
 OpenBabel03242523133D

 48 52  0  0  1  0  0  0  0  0999 V2000
   36.1990   27.1200   39.3690 C   0  0  0  0  0  0  0  0  0  0  0  0
   36.2910   28.4920   39.6920 C   0  0  0  0  0  0  0  0  0  0  0  0
   35.7680   29.2750   38.6900 C   0  0  0  0  0  0  0  0  0  0  0  0
   35.2260   28.8310   37.5230 C   0  0  0  0  0  0  0  0  0  0  0  0
   35.1760   27.4600   37.2800 C   0  0  0  0  0  0  0  0  0  0  0  0
   35.6700   26.5960   38.2200 C   0  0  0  0  0  0  0  0  0  0  0  0
   34.5880   27.3350   36.0370 O   0  0  0  0  0  0  0  0  0  0  0  0
   34.2370   28.6130   35.5230 C   0  0  2  0  0  0  0  0  0  0  0  0
   34.6890   29.5740   36.4910 O   0  0  0  0  0  0  0  0  0  0  0  0
   36.5130   26.2330   39.9600 H   0  0  0  0  0  0  0  0  0  0  0  0
   35.8250   30.2950   38.9090 H   0  0  0  0  0  0  0  0  0  0  0  0
   35.5790   25.5840   37.9310 H   0  0  0  0  0  0  0  0  0  0  0  0
   34.8060   28.8170   34.5980 H   0  0  0  0  0  0  0  0  0  0  0  0
   38.2130   29.6850   42.6760 C   0  0  0  0  0  0  0  0  0  0  0  0
   37.7420   29.7360   41.3620 C   0  0  0  0  0  0  0  0  0  0  0  0
   36.9280   28.7420   40.9090 C   0  0  0  0  0  0  0  0  0  0  0  0
   36.6170   27.7370   41.7850 N   0  0  0  0  0  0  0  0  0  0  0  0
   37.0710   27.6930   43.0440 C   0  0  0  0  0  0  0  0  0  0  0  0
   37.8530   28.6510   43.4740 N   0  0  0  0  0  0  0  0  0  0  0  0
   38.8600   30.4710   43.0430 H   0  0  0  0  0  0  0  0  0  0  0  0
   36.8660   26.9310   43.7820 H   0  0  0  0  0  0  0  0  0  0  0  0
   38.1630   30.8030   40.5730 N   0  0  0  0  0  0  0  0  0  0  0  0
   39.2780   30.6980   39.6890 C   0  0  0  0  0  0  0  0  0  0  0  0
   39.4890   31.8770   38.7900 C   0  0  0  0  0  0  0  0  0  0  0  0
   38.3150   32.4500   38.2740 N   0  0  0  0  0  0  0  0  0  0  0  0
   37.2530   32.5830   39.1470 C   0  0  0  0  0  0  0  0  0  0  0  0
   37.5830   32.0880   40.5380 C   0  0  0  0  0  0  0  0  0  0  0  0
   40.1990   30.6270   40.3280 H   0  0  0  0  0  0  0  0  0  0  0  0
   39.2820   29.7600   39.0920 H   0  0  0  0  0  0  0  0  0  0  0  0
   40.0660   32.6580   39.3450 H   0  0  0  0  0  0  0  0  0  0  0  0
   40.1540   31.5660   37.9500 H   0  0  0  0  0  0  0  0  0  0  0  0
   38.5440   33.2790   37.7110 H   0  0  0  0  0  0  0  0  0  0  0  0
   36.9930   33.6730   39.2540 H   0  0  0  0  0  0  0  0  0  0  0  0
   36.2800   32.1030   38.8710 H   0  0  0  0  0  0  0  0  0  0  0  0
   36.7360   32.2390   41.2400 H   0  0  0  0  0  0  0  0  0  0  0  0
   38.3710   32.8100   40.9050 H   0  0  0  0  0  0  0  0  0  0  0  0
   32.8710   28.6790   35.4530 O   0  0  0  0  0  0  0  0  0  0  0  0
   31.5190   29.5930   38.2080 Cl  0  0  0  0  0  0  0  0  0  0  0  0
   31.3760   30.3830   36.6720 C   0  0  0  0  0  0  0  0  0  0  0  0
   32.0770   29.7440   35.6800 C   0  0  0  0  0  0  0  0  0  0  0  0
   31.9720   30.3740   34.4210 C   0  0  0  0  0  0  0  0  0  0  0  0
   32.3970   30.1290   33.4420 H   0  0  0  0  0  0  0  0  0  0  0  0
   31.2220   31.5420   34.2040 C   0  0  0  0  0  0  0  0  0  0  0  0
   31.0760   32.1000   33.2940 H   0  0  0  0  0  0  0  0  0  0  0  0
   30.5430   32.1220   35.2720 C   0  0  0  0  0  0  0  0  0  0  0  0
   29.9340   33.0070   35.2640 H   0  0  0  0  0  0  0  0  0  0  0  0
   30.6360   31.5230   36.4940 C   0  0  0  0  0  0  0  0  0  0  0  0
   29.8400   32.1310   37.9280 Cl  0  0  0  0  0  0  0  0  0  0  0  0
  1  2  1  0  0  0  0
  1 10  1  0  0  0  0
  2 16  1  0  0  0  0
  3 11  1  0  0  0  0
  3  2  2  0  0  0  0
  4  3  1  0  0  0  0
  5  4  2  0  0  0  0
  5  6  1  0  0  0  0
  6  1  2  0  0  0  0
  7  5  1  0  0  0  0
  8 13  1  6  0  0  0
  8  7  1  0  0  0  0
  8  9  1  0  0  0  0
  9  4  1  0  0  0  0
 12  6  1  0  0  0  0
 14 20  1  0  0  0  0
 14 19  1  0  0  0  0
 15 14  2  0  0  0  0
 16 15  1  0  0  0  0
 16 17  2  0  0  0  0
 17 18  1  0  0  0  0
 18 19  2  0  0  0  0
 18 21  1  0  0  0  0
 22 15  1  0  0  0  0
 23 28  1  0  0  0  0
 23 22  1  0  0  0  0
 24 30  1  0  0  0  0
 24 23  1  0  0  0  0
 25 24  1  0  0  0  0
 25 26  1  0  0  0  0
 26 33  1  0  0  0  0
 26 27  1  0  0  0  0
 27 22  1  0  0  0  0
 27 36  1  0  0  0  0
 27 35  1  0  0  0  0
 29 23  1  0  0  0  0
 31 24  1  0  0  0  0
 32 25  1  0  0  0  0
 34 26  1  0  0  0  0
 37  8  1  0  0  0  0
 37 40  1  0  0  0  0
 39 38  1  0  0  0  0
 40 39  2  0  0  0  0
 41 40  1  0  0  0  0
 42 41  1  0  0  0  0
 43 41  2  0  0  0  0
 43 45  1  0  0  0  0
 44 43  1  0  0  0  0
 45 47  2  0  0  0  0
 46 45  1  0  0  0  0
 47 39  1  0  0  0  0
 47 48  1  0  0  0  0
M  END
>  <minimizedAffinity>
-6.64173698

$$$$

 OpenBabel03242523133D

 48 52  0  0  1  0  0  0  0  0999 V2000
   37.3690   31.5450   40.3280 C   0  0  0  0  0  0  0  0  0  0  0  0
   38.6740   31.6670   40.8570 C   0  0  0  0  0  0  0  0  0  0  0  0
   38.9320   30.6770   41.7750 C   0  0  0  0  0  0  0  0  0  0  0  0
   38.0750   29.6910   42.1570 C   0  0  0  0  0  0  0  0  0  0  0  0
   36.8040   29.6430   41.5890 C   0  0  0  0  0  0  0  0  0  0  0  0
   36.4510   30.5850   40.6610 C   0  0  0  0  0  0  0  0  0  0  0  0
   36.1870   28.5560   42.1750 O   0  0  0  0  0  0  0  0  0  0  0  0
   37.0760   27.9050   43.0730 C   0  0  2  0  0  0  0  0  0  0  0  0
   38.2870   28.6770   43.0690 O   0  0  0  0  0  0  0  0  0  0  0  0
   36.8560   32.1680   39.5650 H   0  0  0  0  0  0  0  0  0  0  0  0
   39.8940   30.7460   42.1780 H   0  0  0  0  0  0  0  0  0  0  0  0
   35.4670   30.4520   40.2970 H   0  0  0  0  0  0  0  0  0  0  0  0
   36.6790   27.9600   44.1020 H   0  0  0  0  0  0  0  0  0  0  0  0
   40.9150   34.2140   39.2730 C   0  0  0  0  0  0  0  0  0  0  0  0
   40.4620   32.9270   39.5710 C   0  0  0  0  0  0  0  0  0  0  0  0
   39.3750   32.7750   40.3770 C   0  0  0  0  0  0  0  0  0  0  0  0
   38.7830   33.9130   40.8530 N   0  0  0  0  0  0  0  0  0  0  0  0
   39.2200   35.1450   40.5650 C   0  0  0  0  0  0  0  0  0  0  0  0
   40.2660   35.2860   39.7900 N   0  0  0  0  0  0  0  0  0  0  0  0
   41.7790   34.3440   38.6340 H   0  0  0  0  0  0  0  0  0  0  0  0
   38.8010   36.0800   40.9090 H   0  0  0  0  0  0  0  0  0  0  0  0
   41.1800   31.8590   39.0390 N   0  0  0  0  0  0  0  0  0  0  0  0
   40.8470   31.2740   37.7810 C   0  0  0  0  0  0  0  0  0  0  0  0
   41.8210   30.2540   37.2770 C   0  0  0  0  0  0  0  0  0  0  0  0
   43.1730   30.5610   37.5020 N   0  0  0  0  0  0  0  0  0  0  0  0
   43.4930   31.0910   38.7360 C   0  0  0  0  0  0  0  0  0  0  0  0
   42.2860   31.2220   39.6390 C   0  0  0  0  0  0  0  0  0  0  0  0
   39.8740   30.7310   37.9180 H   0  0  0  0  0  0  0  0  0  0  0  0
   40.6370   32.0240   36.9870 H   0  0  0  0  0  0  0  0  0  0  0  0
   41.5860   29.2660   37.7420 H   0  0  0  0  0  0  0  0  0  0  0  0
   41.6480   30.1110   36.1840 H   0  0  0  0  0  0  0  0  0  0  0  0
   43.7690   29.7910   37.1720 H   0  0  0  0  0  0  0  0  0  0  0  0
   44.2080   30.4010   39.2650 H   0  0  0  0  0  0  0  0  0  0  0  0
   44.0100   32.0840   38.7670 H   0  0  0  0  0  0  0  0  0  0  0  0
   42.5620   31.6090   40.6420 H   0  0  0  0  0  0  0  0  0  0  0  0
   41.9760   30.1540   39.8380 H   0  0  0  0  0  0  0  0  0  0  0  0
   37.3520   26.6630   42.5660 O   0  0  0  0  0  0  0  0  0  0  0  0
   40.0970   26.2120   44.1520 Cl  0  0  0  0  0  0  0  0  0  0  0  0
   39.8110   25.9080   42.4710 C   0  0  0  0  0  0  0  0  0  0  0  0
   38.5260   26.2020   42.0900 C   0  0  0  0  0  0  0  0  0  0  0  0
   38.2740   25.9590   40.7220 C   0  0  0  0  0  0  0  0  0  0  0  0
   37.3760   26.0850   40.1090 H   0  0  0  0  0  0  0  0  0  0  0  0
   39.2470   25.4640   39.8360 C   0  0  0  0  0  0  0  0  0  0  0  0
   39.1630   25.2440   38.7840 H   0  0  0  0  0  0  0  0  0  0  0  0
   40.5260   25.1930   40.3130 C   0  0  0  0  0  0  0  0  0  0  0  0
   41.3680   24.8140   39.7630 H   0  0  0  0  0  0  0  0  0  0  0  0
   40.7820   25.4230   41.6330 C   0  0  0  0  0  0  0  0  0  0  0  0
   42.3380   25.1330   42.3780 Cl  0  0  0  0  0  0  0  0  0  0  0  0
  1  6  2  0  0  0  0
  1  2  1  0  0  0  0
  2  3  2  0  0  0  0
  3  4  1  0  0  0  0
  3 11  1  0  0  0  0
  4  9  1  0  0  0  0
  5  4  2  0  0  0  0
  5  7  1  0  0  0  0
  6  5  1  0  0  0  0
  7  8  1  0  0  0  0
  8 13  1  1  0  0  0
  9  8  1  0  0  0  0
 10  1  1  0  0  0  0
 12  6  1  0  0  0  0
 14 15  2  0  0  0  0
 14 19  1  0  0  0  0
 15 16  1  0  0  0  0
 16 17  2  0  0  0  0
 16  2  1  0  0  0  0
 18 17  1  0  0  0  0
 18 21  1  0  0  0  0
 19 18  2  0  0  0  0
 20 14  1  0  0  0  0
 22 15  1  0  0  0  0
 22 27  1  0  0  0  0
 23 28  1  0  0  0  0
 23 22  1  0  0  0  0
 24 25  1  0  0  0  0
 24 30  1  0  0  0  0
 24 23  1  0  0  0  0
 25 26  1  0  0  0  0
 26 34  1  0  0  0  0
 26 33  1  0  0  0  0
 26 27  1  0  0  0  0
 27 36  1  0  0  0  0
 27 35  1  0  0  0  0
 29 23  1  0  0  0  0
 31 24  1  0  0  0  0
 32 25  1  0  0  0  0
 37  8  1  0  0  0  0
 39 38  1  0  0  0  0
 40 39  1  0  0  0  0
 40 37  1  0  0  0  0
 41 40  2  0  0  0  0
 42 41  1  0  0  0  0
 43 45  2  0  0  0  0
 43 41  1  0  0  0  0
 44 43  1  0  0  0  0
 45 47  1  0  0  0  0
 46 45  1  0  0  0  0
 47 48  1  0  0  0  0
 47 39  2  0  0  0  0
M  END
>  <minimizedAffinity>
-6.53322411

$$$$

 OpenBabel03242523133D

 48 52  0  0  1  0  0  0  0  0999 V2000
   37.6940   31.2020   40.1950 C   0  0  0  0  0  0  0  0  0  0  0  0
   38.8490   31.5910   40.9110 C   0  0  0  0  0  0  0  0  0  0  0  0
   39.0650   30.7680   41.9900 C   0  0  0  0  0  0  0  0  0  0  0  0
   38.2940   29.7090   42.3610 C   0  0  0  0  0  0  0  0  0  0  0  0
   37.1690   29.3940   41.6030 C   0  0  0  0  0  0  0  0  0  0  0  0
   36.8690   30.1540   40.5050 C   0  0  0  0  0  0  0  0  0  0  0  0
   36.6080   28.2980   42.2270 O   0  0  0  0  0  0  0  0  0  0  0  0
   37.3960   27.9060   43.3440 C   0  0  2  0  0  0  0  0  0  0  0  0
   38.4700   28.8550   43.4310 O   0  0  0  0  0  0  0  0  0  0  0  0
   37.2520   31.6430   39.2770 H   0  0  0  0  0  0  0  0  0  0  0  0
   39.9160   31.0360   42.5340 H   0  0  0  0  0  0  0  0  0  0  0  0
   35.9980   29.8240   40.0050 H   0  0  0  0  0  0  0  0  0  0  0  0
   36.8110   28.0150   44.2740 H   0  0  0  0  0  0  0  0  0  0  0  0
   40.8880   34.2500   39.2390 C   0  0  0  0  0  0  0  0  0  0  0  0
   40.5190   32.9410   39.5600 C   0  0  0  0  0  0  0  0  0  0  0  0
   39.4690   32.7330   40.4010 C   0  0  0  0  0  0  0  0  0  0  0  0
   38.8280   33.8400   40.8890 N   0  0  0  0  0  0  0  0  0  0  0  0
   39.1840   35.0920   40.5790 C   0  0  0  0  0  0  0  0  0  0  0  0
   40.1950   35.2860   39.7690 N   0  0  0  0  0  0  0  0  0  0  0  0
   41.7210   34.4230   38.5700 H   0  0  0  0  0  0  0  0  0  0  0  0
   38.7240   36.0050   40.9300 H   0  0  0  0  0  0  0  0  0  0  0  0
   41.2800   31.9110   39.0110 N   0  0  0  0  0  0  0  0  0  0  0  0
   42.4670   31.4290   39.6400 C   0  0  0  0  0  0  0  0  0  0  0  0
   43.0660   30.2080   39.0130 C   0  0  0  0  0  0  0  0  0  0  0  0
   42.1400   29.2490   38.5730 N   0  0  0  0  0  0  0  0  0  0  0  0
   41.0110   29.7220   37.9320 C   0  0  0  0  0  0  0  0  0  0  0  0
   41.0080   31.2300   37.8080 C   0  0  0  0  0  0  0  0  0  0  0  0
   43.2410   32.2370   39.5460 H   0  0  0  0  0  0  0  0  0  0  0  0
   42.3560   31.2770   40.7360 H   0  0  0  0  0  0  0  0  0  0  0  0
   43.7090   30.5200   38.1530 H   0  0  0  0  0  0  0  0  0  0  0  0
   43.7670   29.7420   39.7460 H   0  0  0  0  0  0  0  0  0  0  0  0
   42.6280   28.4700   38.1130 H   0  0  0  0  0  0  0  0  0  0  0  0
   40.9840   29.3190   36.8810 H   0  0  0  0  0  0  0  0  0  0  0  0
   40.0110   29.4450   38.3500 H   0  0  0  0  0  0  0  0  0  0  0  0
   40.1180   31.5950   37.2530 H   0  0  0  0  0  0  0  0  0  0  0  0
   41.8700   31.4480   37.1090 H   0  0  0  0  0  0  0  0  0  0  0  0
   37.9280   26.6730   43.0720 O   0  0  0  0  0  0  0  0  0  0  0  0
   39.6540   27.1880   40.4240 Cl  0  0  0  0  0  0  0  0  0  0  0  0
   38.4620   25.9520   40.6590 C   0  0  0  0  0  0  0  0  0  0  0  0
   37.8960   25.9920   41.9090 C   0  0  0  0  0  0  0  0  0  0  0  0
   36.9230   24.9920   42.1190 C   0  0  0  0  0  0  0  0  0  0  0  0
   36.2950   24.7500   42.9830 H   0  0  0  0  0  0  0  0  0  0  0  0
   36.5680   24.0460   41.1420 C   0  0  0  0  0  0  0  0  0  0  0  0
   35.8460   23.2470   41.1960 H   0  0  0  0  0  0  0  0  0  0  0  0
   37.1960   24.0810   39.9010 C   0  0  0  0  0  0  0  0  0  0  0  0
   37.0350   23.4300   39.0610 H   0  0  0  0  0  0  0  0  0  0  0  0
   38.1400   25.0430   39.6850 C   0  0  0  0  0  0  0  0  0  0  0  0
   39.0140   25.2150   38.1800 Cl  0  0  0  0  0  0  0  0  0  0  0  0
  1  6  2  0  0  0  0
  1  2  1  0  0  0  0
  2  3  2  0  0  0  0
  3  4  1  0  0  0  0
  3 11  1  0  0  0  0
  4  9  1  0  0  0  0
  5  7  1  0  0  0  0
  5  4  2  0  0  0  0
  6  5  1  0  0  0  0
  7  8  1  0  0  0  0
  8  9  1  0  0  0  0
  8 13  1  1  0  0  0
 10  1  1  0  0  0  0
 12  6  1  0  0  0  0
 14 15  2  0  0  0  0
 14 19  1  0  0  0  0
 15 16  1  0  0  0  0
 16 17  2  0  0  0  0
 16  2  1  0  0  0  0
 18 17  1  0  0  0  0
 18 21  1  0  0  0  0
 19 18  2  0  0  0  0
 20 14  1  0  0  0  0
 22 15  1  0  0  0  0
 22 23  1  0  0  0  0
 23 29  1  0  0  0  0
 24 23  1  0  0  0  0
 24 31  1  0  0  0  0
 25 24  1  0  0  0  0
 26 34  1  0  0  0  0
 26 25  1  0  0  0  0
 27 26  1  0  0  0  0
 27 22  1  0  0  0  0
 28 23  1  0  0  0  0
 30 24  1  0  0  0  0
 32 25  1  0  0  0  0
 33 26  1  0  0  0  0
 35 27  1  0  0  0  0
 36 27  1  0  0  0  0
 37  8  1  0  0  0  0
 38 39  1  0  0  0  0
 39 40  1  0  0  0  0
 40 41  2  0  0  0  0
 40 37  1  0  0  0  0
 41 42  1  0  0  0  0
 43 44  1  0  0  0  0
 43 41  1  0  0  0  0
 45 43  2  0  0  0  0
 46 45  1  0  0  0  0
 47 45  1  0  0  0  0
 47 39  2  0  0  0  0
 48 47  1  0  0  0  0
M  END
>  <minimizedAffinity>
-6.43997526

$$$$

 OpenBabel03242523133D

 48 52  0  0  1  0  0  0  0  0999 V2000
   39.3420   30.4360   42.5010 C   0  0  0  0  0  0  0  0  0  0  0  0
   40.7270   30.3830   42.2280 C   0  0  0  0  0  0  0  0  0  0  0  0
   41.2410   29.1380   42.5050 C   0  0  0  0  0  0  0  0  0  0  0  0
   40.5460   28.0700   42.9830 C   0  0  0  0  0  0  0  0  0  0  0  0
   39.1820   28.2070   43.2290 C   0  0  0  0  0  0  0  0  0  0  0  0
   38.5760   29.4090   42.9820 C   0  0  0  0  0  0  0  0  0  0  0  0
   38.7740   26.9750   43.7020 O   0  0  0  0  0  0  0  0  0  0  0  0
   39.8650   26.0640   43.7170 C   0  0  2  0  0  0  0  0  0  0  0  0
   41.0140   26.8050   43.2740 O   0  0  0  0  0  0  0  0  0  0  0  0
   38.6310   31.2800   42.3760 H   0  0  0  0  0  0  0  0  0  0  0  0
   42.2660   29.0760   42.3090 H   0  0  0  0  0  0  0  0  0  0  0  0
   37.5420   29.3980   43.2020 H   0  0  0  0  0  0  0  0  0  0  0  0
   40.0810   25.7510   44.7540 H   0  0  0  0  0  0  0  0  0  0  0  0
   41.6660   33.6640   40.6860 C   0  0  0  0  0  0  0  0  0  0  0  0
   40.8850   32.5200   40.8690 C   0  0  0  0  0  0  0  0  0  0  0  0
   41.2640   31.5980   41.7970 C   0  0  0  0  0  0  0  0  0  0  0  0
   42.4070   31.8530   42.5040 N   0  0  0  0  0  0  0  0  0  0  0  0
   43.1530   32.9490   42.3260 C   0  0  0  0  0  0  0  0  0  0  0  0
   42.7840   33.8340   41.4330 N   0  0  0  0  0  0  0  0  0  0  0  0
   41.3720   34.4020   39.9510 H   0  0  0  0  0  0  0  0  0  0  0  0
   44.0630   33.2090   42.8480 H   0  0  0  0  0  0  0  0  0  0  0  0
   39.7620   32.3780   40.0580 N   0  0  0  0  0  0  0  0  0  0  0  0
   39.7120   31.4280   38.9950 C   0  0  0  0  0  0  0  0  0  0  0  0
   38.3750   31.2840   38.3350 C   0  0  0  0  0  0  0  0  0  0  0  0
   37.2740   31.3300   39.2050 N   0  0  0  0  0  0  0  0  0  0  0  0
   37.3130   32.2780   40.2090 C   0  0  0  0  0  0  0  0  0  0  0  0
   38.5680   33.1210   40.1570 C   0  0  0  0  0  0  0  0  0  0  0  0
   40.4130   31.7900   38.1960 H   0  0  0  0  0  0  0  0  0  0  0  0
   40.1050   30.4270   39.2770 H   0  0  0  0  0  0  0  0  0  0  0  0
   38.2640   32.0820   37.5600 H   0  0  0  0  0  0  0  0  0  0  0  0
   38.3630   30.3240   37.7670 H   0  0  0  0  0  0  0  0  0  0  0  0
   36.3980   31.2740   38.6700 H   0  0  0  0  0  0  0  0  0  0  0  0
   36.4500   32.9890   40.0840 H   0  0  0  0  0  0  0  0  0  0  0  0
   37.2200   31.9290   41.2690 H   0  0  0  0  0  0  0  0  0  0  0  0
   38.5690   33.9060   40.9410 H   0  0  0  0  0  0  0  0  0  0  0  0
   38.4670   33.7020   39.1930 H   0  0  0  0  0  0  0  0  0  0  0  0
   39.6040   25.0800   42.7990 O   0  0  0  0  0  0  0  0  0  0  0  0
   40.0750   26.5580   39.9970 Cl  0  0  0  0  0  0  0  0  0  0  0  0
   38.6770   25.6460   40.4660 C   0  0  0  0  0  0  0  0  0  0  0  0
   38.7790   25.1350   41.7350 C   0  0  0  0  0  0  0  0  0  0  0  0
   37.6490   24.3880   42.1340 C   0  0  0  0  0  0  0  0  0  0  0  0
   37.4120   23.8570   43.0620 H   0  0  0  0  0  0  0  0  0  0  0  0
   36.5290   24.1880   41.3100 C   0  0  0  0  0  0  0  0  0  0  0  0
   35.6220   23.6410   41.5110 H   0  0  0  0  0  0  0  0  0  0  0  0
   36.5140   24.7450   40.0350 C   0  0  0  0  0  0  0  0  0  0  0  0
   35.7370   24.6800   39.2950 H   0  0  0  0  0  0  0  0  0  0  0  0
   37.6000   25.4690   39.6370 C   0  0  0  0  0  0  0  0  0  0  0  0
   37.7290   26.2300   38.0670 Cl  0  0  0  0  0  0  0  0  0  0  0  0
  1  6  1  0  0  0  0
  2  1  2  0  0  0  0
  2  3  1  0  0  0  0
  3  4  2  0  0  0  0
  4  5  1  0  0  0  0
  4  9  1  0  0  0  0
  5  7  1  0  0  0  0
  6 12  1  0  0  0  0
  6  5  2  0  0  0  0
  7  8  1  0  0  0  0
  8 13  1  1  0  0  0
  9  8  1  0  0  0  0
 10  1  1  0  0  0  0
 11  3  1  0  0  0  0
 14 15  2  0  0  0  0
 14 19  1  0  0  0  0
 15 16  1  0  0  0  0
 16  2  1  0  0  0  0
 16 17  2  0  0  0  0
 18 17  1  0  0  0  0
 18 21  1  0  0  0  0
 19 18  2  0  0  0  0
 20 14  1  0  0  0  0
 22 27  1  0  0  0  0
 22 15  1  0  0  0  0
 23 29  1  0  0  0  0
 23 22  1  0  0  0  0
 24 23  1  0  0  0  0
 24 25  1  0  0  0  0
 25 26  1  0  0  0  0
 26 34  1  0  0  0  0
 27 26  1  0  0  0  0
 27 35  1  0  0  0  0
 28 23  1  0  0  0  0
 30 24  1  0  0  0  0
 31 24  1  0  0  0  0
 32 25  1  0  0  0  0
 33 26  1  0  0  0  0
 36 27  1  0  0  0  0
 37  8  1  0  0  0  0
 38 39  1  0  0  0  0
 39 40  1  0  0  0  0
 40 41  2  0  0  0  0
 40 37  1  0  0  0  0
 41 42  1  0  0  0  0
 43 44  1  0  0  0  0
 43 41  1  0  0  0  0
 45 43  2  0  0  0  0
 46 45  1  0  0  0  0
 47 45  1  0  0  0  0
 47 39  2  0  0  0  0
 48 47  1  0  0  0  0
M  END
>  <minimizedAffinity>
-6.41397429

$$$$

 OpenBabel03242523133D

 48 52  0  0  1  0  0  0  0  0999 V2000
   37.3070   31.5100   40.2270 C   0  0  0  0  0  0  0  0  0  0  0  0
   38.5160   31.6240   40.9500 C   0  0  0  0  0  0  0  0  0  0  0  0
   38.6570   30.5930   41.8480 C   0  0  0  0  0  0  0  0  0  0  0  0
   37.7740   29.5770   42.0510 C   0  0  0  0  0  0  0  0  0  0  0  0
   36.6030   29.5400   41.2990 C   0  0  0  0  0  0  0  0  0  0  0  0
   36.3710   30.5220   40.3740 C   0  0  0  0  0  0  0  0  0  0  0  0
   35.9290   28.4160   41.7340 O   0  0  0  0  0  0  0  0  0  0  0  0
   36.6890   27.7340   42.7230 C   0  0  2  0  0  0  0  0  0  0  0  0
   37.8700   28.5230   42.9370 O   0  0  0  0  0  0  0  0  0  0  0  0
   36.9000   32.1630   39.4260 H   0  0  0  0  0  0  0  0  0  0  0  0
   39.5460   30.6560   42.3930 H   0  0  0  0  0  0  0  0  0  0  0  0
   35.4550   30.3930   39.8620 H   0  0  0  0  0  0  0  0  0  0  0  0
   36.1430   27.7320   43.6830 H   0  0  0  0  0  0  0  0  0  0  0  0
   41.0040   34.3030   40.1430 C   0  0  0  0  0  0  0  0  0  0  0  0
   40.5870   33.0140   40.4810 C   0  0  0  0  0  0  0  0  0  0  0  0
   39.2570   32.7640   40.6320 C   0  0  0  0  0  0  0  0  0  0  0  0
   38.3960   33.8110   40.4420 N   0  0  0  0  0  0  0  0  0  0  0  0
   38.8000   35.0450   40.1180 C   0  0  0  0  0  0  0  0  0  0  0  0
   40.0810   35.2800   39.9730 N   0  0  0  0  0  0  0  0  0  0  0  0
   42.0600   34.5090   40.0200 H   0  0  0  0  0  0  0  0  0  0  0  0
   38.1760   35.9130   39.9560 H   0  0  0  0  0  0  0  0  0  0  0  0
   41.5760   32.0520   40.6720 N   0  0  0  0  0  0  0  0  0  0  0  0
   42.2770   31.9230   41.9080 C   0  0  0  0  0  0  0  0  0  0  0  0
   43.1820   30.7330   42.0030 C   0  0  0  0  0  0  0  0  0  0  0  0
   42.6780   29.5560   41.4270 N   0  0  0  0  0  0  0  0  0  0  0  0
   42.0330   29.6830   40.2130 C   0  0  0  0  0  0  0  0  0  0  0  0
   42.0150   31.1130   39.7170 C   0  0  0  0  0  0  0  0  0  0  0  0
   42.9400   32.8240   42.0050 H   0  0  0  0  0  0  0  0  0  0  0  0
   41.6150   31.9690   42.7990 H   0  0  0  0  0  0  0  0  0  0  0  0
   44.1630   30.9830   41.5300 H   0  0  0  0  0  0  0  0  0  0  0  0
   43.4150   30.5520   43.0790 H   0  0  0  0  0  0  0  0  0  0  0  0
   43.3760   28.8040   41.4910 H   0  0  0  0  0  0  0  0  0  0  0  0
   42.5840   29.0870   39.4330 H   0  0  0  0  0  0  0  0  0  0  0  0
   40.9780   29.3160   40.1330 H   0  0  0  0  0  0  0  0  0  0  0  0
   41.5320   31.1970   38.7210 H   0  0  0  0  0  0  0  0  0  0  0  0
   43.1020   31.3440   39.5110 H   0  0  0  0  0  0  0  0  0  0  0  0
   37.0640   26.5230   42.2050 O   0  0  0  0  0  0  0  0  0  0  0  0
   39.7420   25.9820   43.8750 Cl  0  0  0  0  0  0  0  0  0  0  0  0
   39.5510   25.8610   42.1570 C   0  0  0  0  0  0  0  0  0  0  0  0
   38.2760   26.1560   41.7440 C   0  0  0  0  0  0  0  0  0  0  0  0
   38.1010   26.0610   40.3460 C   0  0  0  0  0  0  0  0  0  0  0  0
   37.2300   26.2270   39.7040 H   0  0  0  0  0  0  0  0  0  0  0  0
   39.1330   25.7000   39.4640 C   0  0  0  0  0  0  0  0  0  0  0  0
   39.1090   25.5980   38.3910 H   0  0  0  0  0  0  0  0  0  0  0  0
   40.3960   25.4180   39.9740 C   0  0  0  0  0  0  0  0  0  0  0  0
   41.2790   25.1300   39.4320 H   0  0  0  0  0  0  0  0  0  0  0  0
   40.5790   25.5050   41.3240 C   0  0  0  0  0  0  0  0  0  0  0  0
   42.1060   25.1810   42.1130 Cl  0  0  0  0  0  0  0  0  0  0  0  0
  1  6  2  0  0  0  0
  1  2  1  0  0  0  0
  2  3  2  0  0  0  0
  3  4  1  0  0  0  0
  3 11  1  0  0  0  0
  4  9  1  0  0  0  0
  5  7  1  0  0  0  0
  5  4  2  0  0  0  0
  6  5  1  0  0  0  0
  7  8  1  0  0  0  0
  8  9  1  0  0  0  0
  8 13  1  1  0  0  0
 10  1  1  0  0  0  0
 12  6  1  0  0  0  0
 14 15  1  0  0  0  0
 15 16  2  0  0  0  0
 15 22  1  0  0  0  0
 16  2  1  0  0  0  0
 17 16  1  0  0  0  0
 18 17  2  0  0  0  0
 19 18  1  0  0  0  0
 19 14  2  0  0  0  0
 20 14  1  0  0  0  0
 21 18  1  0  0  0  0
 22 23  1  0  0  0  0
 23 24  1  0  0  0  0
 23 28  1  0  0  0  0
 23 29  1  0  0  0  0
 24 31  1  0  0  0  0
 25 32  1  0  0  0  0
 25 24  1  0  0  0  0
 26 25  1  0  0  0  0
 27 26  1  0  0  0  0
 27 22  1  0  0  0  0
 30 24  1  0  0  0  0
 33 26  1  0  0  0  0
 34 26  1  0  0  0  0
 35 27  1  0  0  0  0
 36 27  1  0  0  0  0
 37  8  1  0  0  0  0
 39 38  1  0  0  0  0
 40 39  1  0  0  0  0
 40 37  1  0  0  0  0
 41 40  2  0  0  0  0
 42 41  1  0  0  0  0
 43 45  2  0  0  0  0
 43 41  1  0  0  0  0
 44 43  1  0  0  0  0
 45 47  1  0  0  0  0
 46 45  1  0  0  0  0
 47 48  1  0  0  0  0
 47 39  2  0  0  0  0
M  END
>  <minimizedAffinity>
-6.2962141

$$$$

 OpenBabel03242523133D

 48 52  0  0  1  0  0  0  0  0999 V2000
   40.7450   29.8180   37.9110 C   0  0  0  0  0  0  0  0  0  0  0  0
   41.3030   30.9960   38.4560 C   0  0  0  0  0  0  0  0  0  0  0  0
   40.4150   31.6240   39.2960 C   0  0  0  0  0  0  0  0  0  0  0  0
   39.1530   31.2060   39.5910 C   0  0  0  0  0  0  0  0  0  0  0  0
   38.6770   30.0350   39.0080 C   0  0  0  0  0  0  0  0  0  0  0  0
   39.4880   29.3340   38.1570 C   0  0  0  0  0  0  0  0  0  0  0  0
   37.3920   29.8870   39.4910 O   0  0  0  0  0  0  0  0  0  0  0  0
   37.0800   30.9360   40.3990 C   0  0  2  0  0  0  0  0  0  0  0  0
   38.2280   31.7990   40.4260 O   0  0  0  0  0  0  0  0  0  0  0  0
   41.1970   29.0800   37.2140 H   0  0  0  0  0  0  0  0  0  0  0  0
   40.8080   32.4990   39.7130 H   0  0  0  0  0  0  0  0  0  0  0  0
   39.0250   28.4630   37.7760 H   0  0  0  0  0  0  0  0  0  0  0  0
   36.2470   31.5430   40.0020 H   0  0  0  0  0  0  0  0  0  0  0  0
   44.8310   32.0390   37.7570 C   0  0  0  0  0  0  0  0  0  0  0  0
   43.6580   31.9410   38.5090 C   0  0  0  0  0  0  0  0  0  0  0  0
   42.5880   31.2790   37.9880 C   0  0  0  0  0  0  0  0  0  0  0  0
   42.7300   30.7430   36.7360 N   0  0  0  0  0  0  0  0  0  0  0  0
   43.8560   30.8390   36.0190 C   0  0  0  0  0  0  0  0  0  0  0  0
   44.8830   31.4760   36.5250 N   0  0  0  0  0  0  0  0  0  0  0  0
   45.6860   32.5620   38.1640 H   0  0  0  0  0  0  0  0  0  0  0  0
   44.0330   30.4420   35.0300 H   0  0  0  0  0  0  0  0  0  0  0  0
   43.6460   32.5600   39.7560 N   0  0  0  0  0  0  0  0  0  0  0  0
   43.3040   33.9360   39.9150 C   0  0  0  0  0  0  0  0  0  0  0  0
   43.1710   34.3980   41.3330 C   0  0  0  0  0  0  0  0  0  0  0  0
   42.5570   33.4820   42.2020 N   0  0  0  0  0  0  0  0  0  0  0  0
   42.9210   32.1560   42.0680 C   0  0  0  0  0  0  0  0  0  0  0  0
   43.9600   31.9500   40.9880 C   0  0  0  0  0  0  0  0  0  0  0  0
   44.1430   34.5370   39.4710 H   0  0  0  0  0  0  0  0  0  0  0  0
   42.4080   34.2400   39.3310 H   0  0  0  0  0  0  0  0  0  0  0  0
   44.1850   34.6550   41.7280 H   0  0  0  0  0  0  0  0  0  0  0  0
   42.6040   35.3590   41.3400 H   0  0  0  0  0  0  0  0  0  0  0  0
   42.5500   33.8530   43.1610 H   0  0  0  0  0  0  0  0  0  0  0  0
   43.3880   31.7990   43.0270 H   0  0  0  0  0  0  0  0  0  0  0  0
   42.1150   31.4050   41.8670 H   0  0  0  0  0  0  0  0  0  0  0  0
   44.2760   30.8890   40.9180 H   0  0  0  0  0  0  0  0  0  0  0  0
   44.8760   32.4790   41.3860 H   0  0  0  0  0  0  0  0  0  0  0  0
   36.9250   30.3840   41.6430 O   0  0  0  0  0  0  0  0  0  0  0  0
   39.9280   30.1770   42.7360 Cl  0  0  0  0  0  0  0  0  0  0  0  0
   38.7540   28.9030   42.6860 C   0  0  0  0  0  0  0  0  0  0  0  0
   37.5530   29.3090   42.1600 C   0  0  0  0  0  0  0  0  0  0  0  0
   36.5840   28.2840   42.1120 C   0  0  0  0  0  0  0  0  0  0  0  0
   35.5480   28.2710   41.7580 H   0  0  0  0  0  0  0  0  0  0  0  0
   36.8260   26.9740   42.5590 C   0  0  0  0  0  0  0  0  0  0  0  0
   36.1640   26.1230   42.5690 H   0  0  0  0  0  0  0  0  0  0  0  0
   38.0750   26.6530   43.0790 C   0  0  0  0  0  0  0  0  0  0  0  0
   38.4090   25.7040   43.4590 H   0  0  0  0  0  0  0  0  0  0  0  0
   39.0220   27.6350   43.1320 C   0  0  0  0  0  0  0  0  0  0  0  0
   40.6360   27.3860   43.7570 Cl  0  0  0  0  0  0  0  0  0  0  0  0
  1  6  2  0  0  0  0
  1  2  1  0  0  0  0
  2  3  2  0  0  0  0
  3  4  1  0  0  0  0
  3 11  1  0  0  0  0
  4  9  1  0  0  0  0
  5  7  1  0  0  0  0
  5  4  2  0  0  0  0
  6  5  1  0  0  0  0
  7  8  1  0  0  0  0
  8 13  1  6  0  0  0
  8  9  1  0  0  0  0
  8 37  1  0  0  0  0
 10  1  1  0  0  0  0
 12  6  1  0  0  0  0
 14 20  1  0  0  0  0
 14 15  1  0  0  0  0
 15 22  1  0  0  0  0
 16  2  1  0  0  0  0
 16 15  2  0  0  0  0
 17 16  1  0  0  0  0
 18 19  1  0  0  0  0
 18 17  2  0  0  0  0
 19 14  2  0  0  0  0
 21 18  1  0  0  0  0
 22 23  1  0  0  0  0
 22 27  1  0  0  0  0
 23 24  1  0  0  0  0
 24 31  1  0  0  0  0
 24 30  1  0  0  0  0
 24 25  1  0  0  0  0
 25 32  1  0  0  0  0
 26 25  1  0  0  0  0
 26 33  1  0  0  0  0
 27 36  1  0  0  0  0
 27 26  1  0  0  0  0
 28 23  1  0  0  0  0
 29 23  1  0  0  0  0
 34 26  1  0  0  0  0
 35 27  1  0  0  0  0
 37 40  1  0  0  0  0
 39 38  1  0  0  0  0
 39 47  1  0  0  0  0
 40 39  2  0  0  0  0
 41 40  1  0  0  0  0
 41 43  2  0  0  0  0
 42 41  1  0  0  0  0
 43 44  1  0  0  0  0
 43 45  1  0  0  0  0
 45 47  2  0  0  0  0
 45 46  1  0  0  0  0
 47 48  1  0  0  0  0
M  END
>  <minimizedAffinity>
-6.29389048

$$$$

 OpenBabel03242523133D

 48 52  0  0  1  0  0  0  0  0999 V2000
   37.5210   32.5110   39.7300 C   0  0  0  0  0  0  0  0  0  0  0  0
   38.3100   31.3590   39.5170 C   0  0  0  0  0  0  0  0  0  0  0  0
   39.6500   31.6590   39.5610 C   0  0  0  0  0  0  0  0  0  0  0  0
   40.1920   32.8900   39.7750 C   0  0  0  0  0  0  0  0  0  0  0  0
   39.3430   33.9760   39.9730 C   0  0  0  0  0  0  0  0  0  0  0  0
   37.9890   33.7790   39.9500 C   0  0  0  0  0  0  0  0  0  0  0  0
   40.1800   35.0600   40.1530 O   0  0  0  0  0  0  0  0  0  0  0  0
   41.5400   34.6500   40.1070 C   0  0  2  0  0  0  0  0  0  0  0  0
   41.5260   33.2410   39.8290 O   0  0  0  0  0  0  0  0  0  0  0  0
   36.4150   32.6120   39.7690 H   0  0  0  0  0  0  0  0  0  0  0  0
   40.2540   30.8200   39.4080 H   0  0  0  0  0  0  0  0  0  0  0  0
   37.4440   34.6700   40.1130 H   0  0  0  0  0  0  0  0  0  0  0  0
   42.0490   35.1280   39.2510 H   0  0  0  0  0  0  0  0  0  0  0  0
   36.4990   28.0830   39.4090 C   0  0  0  0  0  0  0  0  0  0  0  0
   37.3190   29.0660   39.9670 C   0  0  0  0  0  0  0  0  0  0  0  0
   37.5650   30.2050   39.2630 C   0  0  0  0  0  0  0  0  0  0  0  0
   36.9830   30.3180   38.0290 N   0  0  0  0  0  0  0  0  0  0  0  0
   36.1980   29.3730   37.4980 C   0  0  0  0  0  0  0  0  0  0  0  0
   35.9640   28.2800   38.1800 N   0  0  0  0  0  0  0  0  0  0  0  0
   36.2990   27.1750   39.9630 H   0  0  0  0  0  0  0  0  0  0  0  0
   35.7110   29.3990   36.5330 H   0  0  0  0  0  0  0  0  0  0  0  0
   37.8670   28.8040   41.2210 N   0  0  0  0  0  0  0  0  0  0  0  0
   37.2020   29.1680   42.4290 C   0  0  0  0  0  0  0  0  0  0  0  0
   37.8420   28.6610   43.6850 C   0  0  0  0  0  0  0  0  0  0  0  0
   38.3570   27.3570   43.6050 N   0  0  0  0  0  0  0  0  0  0  0  0
   39.0330   27.0240   42.4470 C   0  0  0  0  0  0  0  0  0  0  0  0
   39.1050   28.1770   41.4700 C   0  0  0  0  0  0  0  0  0  0  0  0
   37.2320   30.2880   42.4970 H   0  0  0  0  0  0  0  0  0  0  0  0
   36.1180   28.9200   42.4290 H   0  0  0  0  0  0  0  0  0  0  0  0
   38.6610   29.3610   43.9830 H   0  0  0  0  0  0  0  0  0  0  0  0
   37.0940   28.7180   44.5110 H   0  0  0  0  0  0  0  0  0  0  0  0
   38.8210   27.1050   44.4870 H   0  0  0  0  0  0  0  0  0  0  0  0
   40.0970   26.7580   42.7000 H   0  0  0  0  0  0  0  0  0  0  0  0
   38.6700   26.1430   41.8580 H   0  0  0  0  0  0  0  0  0  0  0  0
   39.6870   27.9110   40.5630 H   0  0  0  0  0  0  0  0  0  0  0  0
   39.7550   28.9390   41.9940 H   0  0  0  0  0  0  0  0  0  0  0  0
   42.0800   34.8410   41.3510 O   0  0  0  0  0  0  0  0  0  0  0  0
   42.4530   31.9790   42.7390 Cl  0  0  0  0  0  0  0  0  0  0  0  0
   43.6810   33.1750   42.4850 C   0  0  0  0  0  0  0  0  0  0  0  0
   43.2040   34.3010   41.8610 C   0  0  0  0  0  0  0  0  0  0  0  0
   44.1920   35.2860   41.6460 C   0  0  0  0  0  0  0  0  0  0  0  0
   44.1490   36.2780   41.1850 H   0  0  0  0  0  0  0  0  0  0  0  0
   45.5330   35.1290   42.0340 C   0  0  0  0  0  0  0  0  0  0  0  0
   46.3610   35.8110   41.9190 H   0  0  0  0  0  0  0  0  0  0  0  0
   45.9270   33.9520   42.6620 C   0  0  0  0  0  0  0  0  0  0  0  0
   46.9070   33.6860   43.0130 H   0  0  0  0  0  0  0  0  0  0  0  0
   44.9820   32.9910   42.8760 C   0  0  0  0  0  0  0  0  0  0  0  0
   45.3220   31.4600   43.6520 Cl  0  0  0  0  0  0  0  0  0  0  0  0
  1 10  1  0  0  0  0
  1  6  1  0  0  0  0
  2  3  1  0  0  0  0
  2  1  2  0  0  0  0
  3  4  2  0  0  0  0
  4  9  1  0  0  0  0
  4  5  1  0  0  0  0
  5  7  1  0  0  0  0
  6  5  2  0  0  0  0
  6 12  1  0  0  0  0
  8 13  1  6  0  0  0
  8  7  1  0  0  0  0
  8 37  1  0  0  0  0
  9  8  1  0  0  0  0
 11  3  1  0  0  0  0
 14 20  1  0  0  0  0
 14 15  1  0  0  0  0
 15 22  1  0  0  0  0
 16  2  1  0  0  0  0
 16 15  2  0  0  0  0
 17 16  1  0  0  0  0
 18 17  2  0  0  0  0
 18 19  1  0  0  0  0
 19 14  2  0  0  0  0
 21 18  1  0  0  0  0
 22 27  1  0  0  0  0
 22 23  1  0  0  0  0
 23 29  1  0  0  0  0
 23 28  1  0  0  0  0
 23 24  1  0  0  0  0
 24 30  1  0  0  0  0
 24 31  1  0  0  0  0
 25 24  1  0  0  0  0
 25 32  1  0  0  0  0
 26 33  1  0  0  0  0
 26 25  1  0  0  0  0
 27 36  1  0  0  0  0
 27 26  1  0  0  0  0
 34 26  1  0  0  0  0
 35 27  1  0  0  0  0
 37 40  1  0  0  0  0
 39 38  1  0  0  0  0
 39 47  1  0  0  0  0
 40 39  2  0  0  0  0
 41 40  1  0  0  0  0
 41 43  2  0  0  0  0
 42 41  1  0  0  0  0
 43 45  1  0  0  0  0
 44 43  1  0  0  0  0
 45 47  2  0  0  0  0
 45 46  1  0  0  0  0
 47 48  1  0  0  0  0
M  END
>  <minimizedAffinity>
-6.27808952

$$$$

 OpenBabel03242523133D

 48 52  0  0  1  0  0  0  0  0999 V2000
   35.7120   28.3510   39.2040 C   0  0  0  0  0  0  0  0  0  0  0  0
   36.9020   27.6170   39.4040 C   0  0  0  0  0  0  0  0  0  0  0  0
   38.0110   28.3910   39.1590 C   0  0  0  0  0  0  0  0  0  0  0  0
   38.0110   29.6960   38.7700 C   0  0  0  0  0  0  0  0  0  0  0  0
   36.7930   30.3470   38.5910 C   0  0  0  0  0  0  0  0  0  0  0  0
   35.6290   29.6610   38.8130 C   0  0  0  0  0  0  0  0  0  0  0  0
   37.1220   31.6290   38.1990 O   0  0  0  0  0  0  0  0  0  0  0  0
   38.5340   31.7910   38.1690 C   0  0  2  0  0  0  0  0  0  0  0  0
   39.0930   30.5140   38.5140 O   0  0  0  0  0  0  0  0  0  0  0  0
   34.6560   28.0300   39.3270 H   0  0  0  0  0  0  0  0  0  0  0  0
   38.9040   27.8680   39.3030 H   0  0  0  0  0  0  0  0  0  0  0  0
   34.7690   30.2530   38.6490 H   0  0  0  0  0  0  0  0  0  0  0  0
   38.8680   32.0050   37.1380 H   0  0  0  0  0  0  0  0  0  0  0  0
   36.5890   24.1900   40.8790 C   0  0  0  0  0  0  0  0  0  0  0  0
   36.9490   25.5390   40.8600 C   0  0  0  0  0  0  0  0  0  0  0  0
   36.6880   26.2810   39.7480 C   0  0  0  0  0  0  0  0  0  0  0  0
   36.0790   25.6460   38.6990 N   0  0  0  0  0  0  0  0  0  0  0  0
   35.7360   24.3530   38.7220 C   0  0  0  0  0  0  0  0  0  0  0  0
   35.9880   23.6440   39.7940 N   0  0  0  0  0  0  0  0  0  0  0  0
   36.7930   23.5930   41.7600 H   0  0  0  0  0  0  0  0  0  0  0  0
   35.2560   23.7930   37.9320 H   0  0  0  0  0  0  0  0  0  0  0  0
   37.5900   26.0450   41.9880 N   0  0  0  0  0  0  0  0  0  0  0  0
   38.9090   25.6430   42.3540 C   0  0  0  0  0  0  0  0  0  0  0  0
   39.5130   26.4090   43.4910 C   0  0  0  0  0  0  0  0  0  0  0  0
   39.2410   27.7860   43.4920 N   0  0  0  0  0  0  0  0  0  0  0  0
   37.9510   28.1650   43.1740 C   0  0  0  0  0  0  0  0  0  0  0  0
   37.0530   26.9800   42.8970 C   0  0  0  0  0  0  0  0  0  0  0  0
   38.8440   24.5770   42.6990 H   0  0  0  0  0  0  0  0  0  0  0  0
   39.6160   25.6150   41.4970 H   0  0  0  0  0  0  0  0  0  0  0  0
   39.1640   25.9640   44.4550 H   0  0  0  0  0  0  0  0  0  0  0  0
   40.6170   26.2460   43.4790 H   0  0  0  0  0  0  0  0  0  0  0  0
   39.6480   28.2260   44.3270 H   0  0  0  0  0  0  0  0  0  0  0  0
   37.4950   28.7080   44.0480 H   0  0  0  0  0  0  0  0  0  0  0  0
   37.8040   28.8700   42.3160 H   0  0  0  0  0  0  0  0  0  0  0  0
   36.0100   27.2940   42.6840 H   0  0  0  0  0  0  0  0  0  0  0  0
   36.9780   26.4550   43.8950 H   0  0  0  0  0  0  0  0  0  0  0  0
   38.8750   32.6910   39.1450 O   0  0  0  0  0  0  0  0  0  0  0  0
   39.7610   31.1620   41.8150 Cl  0  0  0  0  0  0  0  0  0  0  0  0
   40.7010   32.3080   40.9180 C   0  0  0  0  0  0  0  0  0  0  0  0
   40.0410   32.7880   39.8150 C   0  0  0  0  0  0  0  0  0  0  0  0
   40.7920   33.7230   39.0710 C   0  0  0  0  0  0  0  0  0  0  0  0
   40.5670   34.2840   38.1580 H   0  0  0  0  0  0  0  0  0  0  0  0
   42.0920   34.1230   39.4260 C   0  0  0  0  0  0  0  0  0  0  0  0
   42.7490   34.8220   38.9340 H   0  0  0  0  0  0  0  0  0  0  0  0
   42.6830   33.5820   40.5630 C   0  0  0  0  0  0  0  0  0  0  0  0
   43.6610   33.7860   40.9590 H   0  0  0  0  0  0  0  0  0  0  0  0
   41.9680   32.6770   41.2910 C   0  0  0  0  0  0  0  0  0  0  0  0
   42.5740   31.9110   42.7420 Cl  0  0  0  0  0  0  0  0  0  0  0  0
  1 10  1  0  0  0  0
  1  2  1  0  0  0  0
  2 16  1  0  0  0  0
  3 11  1  0  0  0  0
  3  2  2  0  0  0  0
  4  3  1  0  0  0  0
  5  4  2  0  0  0  0
  5  6  1  0  0  0  0
  6  1  2  0  0  0  0
  7  5  1  0  0  0  0
  8 13  1  6  0  0  0
  8  7  1  0  0  0  0
  8  9  1  0  0  0  0
  8 37  1  0  0  0  0
  9  4  1  0  0  0  0
 12  6  1  0  0  0  0
 14 20  1  0  0  0  0
 15 14  1  0  0  0  0
 15 22  1  0  0  0  0
 16 15  2  0  0  0  0
 17 18  2  0  0  0  0
 17 16  1  0  0  0  0
 18 19  1  0  0  0  0
 19 14  2  0  0  0  0
 21 18  1  0  0  0  0
 22 23  1  0  0  0  0
 22 27  1  0  0  0  0
 23 28  1  0  0  0  0
 23 24  1  0  0  0  0
 24 25  1  0  0  0  0
 24 30  1  0  0  0  0
 25 32  1  0  0  0  0
 26 25  1  0  0  0  0
 26 33  1  0  0  0  0
 27 26  1  0  0  0  0
 27 36  1  0  0  0  0
 29 23  1  0  0  0  0
 31 24  1  0  0  0  0
 34 26  1  0  0  0  0
 35 27  1  0  0  0  0
 37 40  1  0  0  0  0
 39 47  1  0  0  0  0
 39 38  1  0  0  0  0
 40 39  2  0  0  0  0
 41 43  2  0  0  0  0
 41 40  1  0  0  0  0
 42 41  1  0  0  0  0
 43 45  1  0  0  0  0
 44 43  1  0  0  0  0
 45 46  1  0  0  0  0
 45 47  2  0  0  0  0
 47 48  1  0  0  0  0
M  END
>  <minimizedAffinity>
-6.14058685

$$$$

 OpenBabel03242523133D

 48 52  0  0  1  0  0  0  0  0999 V2000
   38.1360   31.5120   37.9480 C   0  0  0  0  0  0  0  0  0  0  0  0
   38.5580   31.6540   39.2900 C   0  0  0  0  0  0  0  0  0  0  0  0
   38.0770   30.6310   40.0720 C   0  0  0  0  0  0  0  0  0  0  0  0
   37.2930   29.6000   39.6550 C   0  0  0  0  0  0  0  0  0  0  0  0
   36.9190   29.5350   38.3150 C   0  0  0  0  0  0  0  0  0  0  0  0
   37.3490   30.5070   37.4530 C   0  0  0  0  0  0  0  0  0  0  0  0
   36.1380   28.4010   38.2120 O   0  0  0  0  0  0  0  0  0  0  0  0
   36.0570   27.7390   39.4680 C   0  0  2  0  0  0  0  0  0  0  0  0
   36.7890   28.5520   40.3990 O   0  0  0  0  0  0  0  0  0  0  0  0
   38.3570   32.1530   37.0680 H   0  0  0  0  0  0  0  0  0  0  0  0
   38.3790   30.7150   41.0690 H   0  0  0  0  0  0  0  0  0  0  0  0
   37.0070   30.3570   36.4650 H   0  0  0  0  0  0  0  0  0  0  0  0
   35.0110   27.7310   39.8230 H   0  0  0  0  0  0  0  0  0  0  0  0
   41.0410   34.4360   39.6320 C   0  0  0  0  0  0  0  0  0  0  0  0
   40.5960   33.1650   39.2590 C   0  0  0  0  0  0  0  0  0  0  0  0
   39.3090   32.8070   39.5250 C   0  0  0  0  0  0  0  0  0  0  0  0
   38.5180   33.7300   40.1540 N   0  0  0  0  0  0  0  0  0  0  0  0
   38.9490   34.9460   40.5100 C   0  0  0  0  0  0  0  0  0  0  0  0
   40.1870   35.2860   40.2510 N   0  0  0  0  0  0  0  0  0  0  0  0
   42.0620   34.7280   39.4230 H   0  0  0  0  0  0  0  0  0  0  0  0
   38.3790   35.7180   41.0080 H   0  0  0  0  0  0  0  0  0  0  0  0
   41.5200   32.3190   38.6510 N   0  0  0  0  0  0  0  0  0  0  0  0
   41.7420   32.3270   37.2420 C   0  0  0  0  0  0  0  0  0  0  0  0
   42.8870   31.4820   36.7740 C   0  0  0  0  0  0  0  0  0  0  0  0
   44.0220   31.5090   37.6010 N   0  0  0  0  0  0  0  0  0  0  0  0
   43.8000   31.4620   38.9640 C   0  0  0  0  0  0  0  0  0  0  0  0
   42.3290   31.3680   39.3060 C   0  0  0  0  0  0  0  0  0  0  0  0
   40.8230   31.8960   36.7610 H   0  0  0  0  0  0  0  0  0  0  0  0
   41.8250   33.3490   36.8130 H   0  0  0  0  0  0  0  0  0  0  0  0
   42.5380   30.4260   36.6630 H   0  0  0  0  0  0  0  0  0  0  0  0
   43.1680   31.8070   35.7440 H   0  0  0  0  0  0  0  0  0  0  0  0
   44.7390   30.8680   37.2380 H   0  0  0  0  0  0  0  0  0  0  0  0
   44.2820   30.5380   39.3890 H   0  0  0  0  0  0  0  0  0  0  0  0
   44.2110   32.2910   39.5940 H   0  0  0  0  0  0  0  0  0  0  0  0
   42.1660   31.2890   40.4010 H   0  0  0  0  0  0  0  0  0  0  0  0
   42.0220   30.3540   38.9120 H   0  0  0  0  0  0  0  0  0  0  0  0
   36.6940   26.5330   39.3510 O   0  0  0  0  0  0  0  0  0  0  0  0
   39.8390   27.1100   39.5370 Cl  0  0  0  0  0  0  0  0  0  0  0  0
   38.9290   26.0050   40.5140 C   0  0  0  0  0  0  0  0  0  0  0  0
   37.5960   25.9840   40.1900 C   0  0  0  0  0  0  0  0  0  0  0  0
   36.8390   25.0890   40.9760 C   0  0  0  0  0  0  0  0  0  0  0  0
   35.7730   24.8360   40.9770 H   0  0  0  0  0  0  0  0  0  0  0  0
   37.3970   24.2960   41.9930 C   0  0  0  0  0  0  0  0  0  0  0  0
   36.9150   23.5870   42.6470 H   0  0  0  0  0  0  0  0  0  0  0  0
   38.7610   24.3840   42.2520 C   0  0  0  0  0  0  0  0  0  0  0  0
   39.3280   23.8470   42.9910 H   0  0  0  0  0  0  0  0  0  0  0  0
   39.5040   25.2450   41.4990 C   0  0  0  0  0  0  0  0  0  0  0  0
   41.2280   25.4650   41.7060 Cl  0  0  0  0  0  0  0  0  0  0  0  0
  1  2  1  0  0  0  0
  2 16  1  0  0  0  0
  2  3  2  0  0  0  0
  3 11  1  0  0  0  0
  4  3  1  0  0  0  0
  4  9  1  0  0  0  0
  5  4  2  0  0  0  0
  6  1  2  0  0  0  0
  6  5  1  0  0  0  0
  7  5  1  0  0  0  0
  7  8  1  0  0  0  0
  8 13  1  1  0  0  0
  8  9  1  0  0  0  0
 10  1  1  0  0  0  0
 12  6  1  0  0  0  0
 14 19  1  0  0  0  0
 15 16  1  0  0  0  0
 15 14  2  0  0  0  0
 16 17  2  0  0  0  0
 17 18  1  0  0  0  0
 18 21  1  0  0  0  0
 19 18  2  0  0  0  0
 20 14  1  0  0  0  0
 22 15  1  0  0  0  0
 22 27  1  0  0  0  0
 23 22  1  0  0  0  0
 24 23  1  0  0  0  0
 24 25  1  0  0  0  0
 25 26  1  0  0  0  0
 26 27  1  0  0  0  0
 26 33  1  0  0  0  0
 26 34  1  0  0  0  0
 27 35  1  0  0  0  0
 28 23  1  0  0  0  0
 29 23  1  0  0  0  0
 30 24  1  0  0  0  0
 31 24  1  0  0  0  0
 32 25  1  0  0  0  0
 36 27  1  0  0  0  0
 37  8  1  0  0  0  0
 37 40  1  0  0  0  0
 38 39  1  0  0  0  0
 39 47  1  0  0  0  0
 40 39  2  0  0  0  0
 40 41  1  0  0  0  0
 41 42  1  0  0  0  0
 41 43  2  0  0  0  0
 43 45  1  0  0  0  0
 43 44  1  0  0  0  0
 45 46  1  0  0  0  0
 47 48  1  0  0  0  0
 47 45  2  0  0  0  0
M  END
>  <minimizedAffinity>
-6.12734699

$$$$
