
 OpenBabel03252508033D

 44 47  0  0  1  0  0  0  0  0999 V2000
   42.0540   33.2620   41.1360 C   0  0  0  0  0  0  0  0  0  0  0  0
   42.8020   34.3920   41.3120 C   0  0  0  0  0  0  0  0  0  0  0  0
   42.1430   35.6370   41.2640 C   0  0  0  0  0  0  0  0  0  0  0  0
   40.7890   35.7670   41.0500 C   0  0  0  0  0  0  0  0  0  0  0  0
   40.0480   34.6300   40.8760 C   0  0  0  0  0  0  0  0  0  0  0  0
   40.6790   33.4240   40.9200 C   0  0  0  0  0  0  0  0  0  0  0  0
   42.6520   36.5840   41.3830 H   0  0  0  0  0  0  0  0  0  0  0  0
   40.2970   36.7010   41.0140 H   0  0  0  0  0  0  0  0  0  0  0  0
   39.0000   34.6550   40.7070 H   0  0  0  0  0  0  0  0  0  0  0  0
   40.0720   32.5160   40.7780 H   0  0  0  0  0  0  0  0  0  0  0  0
   42.6930   31.7130   41.2790 S   0  0  0  0  0  0  0  0  0  0  0  0
   41.5740   30.8860   40.5650 O   0  0  0  0  0  0  0  0  0  0  0  0
   42.7640   31.2400   42.6840 O   0  0  0  0  0  0  0  0  0  0  0  0
   43.2570   28.8470   42.1690 Cl  0  0  0  0  0  0  0  0  0  0  0  0
   44.0260   29.5400   40.7220 C   0  0  0  0  0  0  0  0  0  0  0  0
   43.7980   30.8860   40.3150 C   0  0  0  0  0  0  0  0  0  0  0  0
   44.5180   31.1630   39.1610 C   0  0  0  0  0  0  0  0  0  0  0  0
   44.2830   32.1930   38.8330 H   0  0  0  0  0  0  0  0  0  0  0  0
   45.3660   30.4060   38.3910 C   0  0  0  0  0  0  0  0  0  0  0  0
   45.8210   30.8390   37.5270 H   0  0  0  0  0  0  0  0  0  0  0  0
   45.4580   29.1610   38.9360 C   0  0  0  0  0  0  0  0  0  0  0  0
   46.1140   28.4780   38.3990 H   0  0  0  0  0  0  0  0  0  0  0  0
   44.8450   28.6650   40.0540 C   0  0  0  0  0  0  0  0  0  0  0  0
   45.1080   27.0090   40.5570 Cl  0  0  0  0  0  0  0  0  0  0  0  0
   44.2350   34.3620   41.5450 C   0  0  0  0  0  0  0  0  0  0  0  0
   45.1080   34.2720   40.6320 O   0  0  0  0  0  0  0  0  0  0  0  0
   44.5830   34.4470   42.9440 C   0  0  0  0  0  0  0  0  0  0  0  0
   44.3040   35.7090   43.5760 C   0  0  0  0  0  0  0  0  0  0  0  0
   44.6270   35.8160   44.9150 C   0  0  0  0  0  0  0  0  0  0  0  0
   45.1790   34.7400   45.5400 N   0  0  0  0  0  0  0  0  0  0  0  0
   45.4220   33.5620   44.8870 C   0  0  0  0  0  0  0  0  0  0  0  0
   45.1260   33.4480   43.6370 N   0  0  0  0  0  0  0  0  0  0  0  0
   43.8830   36.5860   43.1650 H   0  0  0  0  0  0  0  0  0  0  0  0
   44.4620   36.7220   45.4970 H   0  0  0  0  0  0  0  0  0  0  0  0
   46.0220   32.4410   45.6460 C   0  0  1  0  0  0  0  0  0  0  0  0
   46.9740   32.7480   46.7800 C   0  0  0  0  0  0  0  0  0  0  0  0
   45.5590   32.3250   47.0460 C   0  0  1  0  0  0  0  0  0  0  0  0
   46.1960   31.5150   45.0980 H   0  0  0  0  0  0  0  0  0  0  0  0
   47.2800   33.8170   46.8650 H   0  0  0  0  0  0  0  0  0  0  0  0
   47.8120   32.0320   46.9180 H   0  0  0  0  0  0  0  0  0  0  0  0
   45.4390   31.3170   47.5100 H   0  0  0  0  0  0  0  0  0  0  0  0
   44.7620   33.3870   47.6430 N   0  0  0  0  0  0  0  0  0  0  0  0
   43.7870   33.0900   47.7640 H   0  0  0  0  0  0  0  0  0  0  0  0
   45.2280   33.8040   48.4630 H   0  0  0  0  0  0  0  0  0  0  0  0
  1 11  1  0  0  0  0
  1  2  1  0  0  0  0
  2 25  1  0  0  0  0
  3  2  2  0  0  0  0
  3  7  1  0  0  0  0
  4  3  1  0  0  0  0
  5  6  1  0  0  0  0
  5  4  2  0  0  0  0
  6  1  2  0  0  0  0
  8  4  1  0  0  0  0
  9  5  1  0  0  0  0
 10  6  1  0  0  0  0
 11 13  2  0  0  0  0
 12 11  2  0  0  0  0
 15 14  1  0  0  0  0
 16 15  1  0  0  0  0
 16 11  1  0  0  0  0
 17 16  2  0  0  0  0
 18 17  1  0  0  0  0
 19 21  2  0  0  0  0
 19 17  1  0  0  0  0
 20 19  1  0  0  0  0
 21 23  1  0  0  0  0
 22 21  1  0  0  0  0
 23 24  1  0  0  0  0
 23 15  2  0  0  0  0
 25 27  1  0  0  0  0
 26 25  2  0  0  0  0
 27 28  2  0  0  0  0
 27 32  1  0  0  0  0
 28 29  1  0  0  0  0
 29 34  1  0  0  0  0
 29 30  2  0  0  0  0
 31 30  1  0  0  0  0
 31 35  1  0  0  0  0
 32 31  2  0  0  0  0
 33 28  1  0  0  0  0
 35 38  1  6  0  0  0
 35 36  1  0  0  0  0
 35 37  1  0  0  0  0
 36 39  1  0  0  0  0
 36 40  1  0  0  0  0
 36 37  1  0  0  0  0
 37 41  1  1  0  0  0
 37 42  1  0  0  0  0
 42 43  1  0  0  0  0
 42 44  1  0  0  0  0
M  END
>  <minimizedAffinity>
-5.6982131

>  <minimizedRMSD>
1.1805464

$$$$
