
     RDKit          3D

 36 38  0  0  0  0  0  0  0  0999 V2000
   46.8848   34.6037   42.2225 N   0  0  0  0  0  0  0  0  0  0  0  0
   48.3371   34.7849   42.2681 C   0  0  0  0  0  0  0  0  0  0  0  0
   48.6324   35.5381   40.9511 C   0  0  0  0  0  0  0  0  0  0  0  0
   48.3586   34.6230   39.7932 C   0  0  0  0  0  0  0  0  0  0  0  0
   47.1015   33.8400   39.9147 C   0  0  0  0  0  0  0  0  0  0  0  0
   46.1652   34.2441   41.0196 C   0  0  1  0  0  0  0  0  0  0  0  0
   44.5096   35.9845   44.7706 C   0  0  0  0  0  0  0  0  0  0  0  0
   45.2283   35.8922   43.5635 C   0  0  0  0  0  0  0  0  0  0  0  0
   46.1101   34.7861   43.4122 C   0  0  0  0  0  0  0  0  0  0  0  0
   46.1898   33.9079   44.4411 N   0  0  0  0  0  0  0  0  0  0  0  0
   45.4841   34.0318   45.5818 C   0  0  0  0  0  0  0  0  0  0  0  0
   44.6394   35.0787   45.7436 N   0  0  0  0  0  0  0  0  0  0  0  0
   45.3301   33.2008   41.2960 O   0  0  0  0  0  0  0  0  0  0  0  0
   48.8891   33.8380   42.2629 H   0  0  0  0  0  0  0  0  0  0  0  0
   48.5834   35.4605   43.0970 H   0  0  0  0  0  0  0  0  0  0  0  0
   49.6981   35.8050   40.9895 H   0  0  0  0  0  0  0  0  0  0  0  0
   47.9800   36.4368   40.9505 H   0  0  0  0  0  0  0  0  0  0  0  0
   48.3956   35.2635   38.8781 H   0  0  0  0  0  0  0  0  0  0  0  0
   49.2305   33.9382   39.7093 H   0  0  0  0  0  0  0  0  0  0  0  0
   47.3250   32.7496   40.0424 H   0  0  0  0  0  0  0  0  0  0  0  0
   46.5406   33.9204   38.9600 H   0  0  0  0  0  0  0  0  0  0  0  0
   45.6761   35.1778   40.6852 H   0  0  0  0  0  0  0  0  0  0  0  0
   43.8282   36.8216   44.9111 H   0  0  0  0  0  0  0  0  0  0  0  0
   45.1421   36.6016   42.7728 H   0  0  0  0  0  0  0  0  0  0  0  0
   45.6644   33.2342   46.3163 H   0  0  0  0  0  0  0  0  0  0  0  0
   43.5770   33.0243   43.8602 Cl  0  0  0  0  0  0  0  0  0  0  0  0
   43.0256   32.8397   42.2340 C   0  0  0  0  0  0  0  0  0  0  0  0
   44.0140   32.9655   41.2834 C   0  0  0  0  0  0  0  0  0  0  0  0
   43.5745   32.8166   39.9557 C   0  0  0  0  0  0  0  0  0  0  0  0
   44.1786   32.8754   39.0343 H   0  0  0  0  0  0  0  0  0  0  0  0
   42.2396   32.5620   39.6443 C   0  0  0  0  0  0  0  0  0  0  0  0
   41.8519   32.4398   38.6446 H   0  0  0  0  0  0  0  0  0  0  0  0
   41.3411   32.4556   40.6573 C   0  0  0  0  0  0  0  0  0  0  0  0
   40.2868   32.2577   40.4696 H   0  0  0  0  0  0  0  0  0  0  0  0
   41.7018   32.5899   41.9753 C   0  0  0  0  0  0  0  0  0  0  0  0
   40.6073   32.4667   43.3293 Cl  0  0  0  0  0  0  0  0  0  0  0  0
  1  2  1  0
  1  9  1  0
  3  2  1  0
  4  5  1  0
  4  3  1  0
  5  6  1  0
  6 13  1  0
  6  1  1  0
  7 12  2  0
  8  7  1  0
  9  8  2  0
  9 10  1  0
 10 11  2  0
 11 12  1  0
  2 14  1  0
  2 15  1  0
  3 16  1  0
  3 17  1  0
  4 18  1  0
  4 19  1  0
  5 20  1  0
  5 21  1  0
  6 22  1  6
  7 23  1  0
  8 24  1  0
 11 25  1  0
 26 27  1  0
 27 28  2  0
 28 29  1  0
 29 30  1  0
 29 31  2  0
 31 32  1  0
 31 33  1  0
 33 34  1  0
 33 35  2  0
 35 36  1  0
 35 27  1  0
 13 28  1  0
M  ISO  8  14  13  15  13  16  13  17  13  18  13  19  13  20  13  21  13
M  ISO  7  22  13  23  14  24  14  25  14  30  15  32  15  34  15
M  END
>  <DihAtoms>  (1) 
5,12,27,26

>  <DihDeg>  (1) 
-0.004557735447835501

$$$$
