
 OpenBabel03252508033D

 44 47  0  0  1  0  0  0  0  0999 V2000
   42.0530   33.2620   41.1360 C   0  0  0  0  0  0  0  0  0  0  0  0
   42.8010   34.3920   41.3120 C   0  0  0  0  0  0  0  0  0  0  0  0
   42.1420   35.6370   41.2640 C   0  0  0  0  0  0  0  0  0  0  0  0
   40.7890   35.7670   41.0500 C   0  0  0  0  0  0  0  0  0  0  0  0
   40.0470   34.6300   40.8760 C   0  0  0  0  0  0  0  0  0  0  0  0
   40.6790   33.4230   40.9200 C   0  0  0  0  0  0  0  0  0  0  0  0
   42.6510   36.5840   41.3830 H   0  0  0  0  0  0  0  0  0  0  0  0
   40.2960   36.7010   41.0140 H   0  0  0  0  0  0  0  0  0  0  0  0
   38.9990   34.6550   40.7070 H   0  0  0  0  0  0  0  0  0  0  0  0
   40.0710   32.5160   40.7780 H   0  0  0  0  0  0  0  0  0  0  0  0
   42.6920   31.7130   41.2790 S   0  0  0  0  0  0  0  0  0  0  0  0
   41.5730   30.8850   40.5650 O   0  0  0  0  0  0  0  0  0  0  0  0
   42.7630   31.2400   42.6840 O   0  0  0  0  0  0  0  0  0  0  0  0
   43.2560   28.8480   42.1680 Cl  0  0  0  0  0  0  0  0  0  0  0  0
   44.0250   29.5390   40.7220 C   0  0  0  0  0  0  0  0  0  0  0  0
   43.7970   30.8860   40.3140 C   0  0  0  0  0  0  0  0  0  0  0  0
   44.5170   31.1640   39.1600 C   0  0  0  0  0  0  0  0  0  0  0  0
   44.2810   32.1930   38.8330 H   0  0  0  0  0  0  0  0  0  0  0  0
   45.3650   30.4060   38.3910 C   0  0  0  0  0  0  0  0  0  0  0  0
   45.8190   30.8400   37.5260 H   0  0  0  0  0  0  0  0  0  0  0  0
   45.4570   29.1610   38.9360 C   0  0  0  0  0  0  0  0  0  0  0  0
   46.1130   28.4780   38.3990 H   0  0  0  0  0  0  0  0  0  0  0  0
   44.8450   28.6650   40.0530 C   0  0  0  0  0  0  0  0  0  0  0  0
   45.1070   27.0100   40.5560 Cl  0  0  0  0  0  0  0  0  0  0  0  0
   44.2340   34.3610   41.5440 C   0  0  0  0  0  0  0  0  0  0  0  0
   45.1070   34.2720   40.6320 O   0  0  0  0  0  0  0  0  0  0  0  0
   44.5830   34.4470   42.9430 C   0  0  0  0  0  0  0  0  0  0  0  0
   44.3040   35.7090   43.5760 C   0  0  0  0  0  0  0  0  0  0  0  0
   44.6270   35.8160   44.9150 C   0  0  0  0  0  0  0  0  0  0  0  0
   45.1790   34.7400   45.5390 N   0  0  0  0  0  0  0  0  0  0  0  0
   45.4220   33.5620   44.8860 C   0  0  0  0  0  0  0  0  0  0  0  0
   45.1260   33.4480   43.6370 N   0  0  0  0  0  0  0  0  0  0  0  0
   43.8830   36.5860   43.1640 H   0  0  0  0  0  0  0  0  0  0  0  0
   44.4620   36.7220   45.4960 H   0  0  0  0  0  0  0  0  0  0  0  0
   46.0220   32.4410   45.6460 C   0  0  1  0  0  0  0  0  0  0  0  0
   46.9740   32.7480   46.7790 C   0  0  0  0  0  0  0  0  0  0  0  0
   45.5590   32.3250   47.0460 C   0  0  1  0  0  0  0  0  0  0  0  0
   46.1960   31.5150   45.0970 H   0  0  0  0  0  0  0  0  0  0  0  0
   47.2800   33.8170   46.8650 H   0  0  0  0  0  0  0  0  0  0  0  0
   47.8110   32.0320   46.9170 H   0  0  0  0  0  0  0  0  0  0  0  0
   45.4390   31.3170   47.5100 H   0  0  0  0  0  0  0  0  0  0  0  0
   44.7620   33.3870   47.6420 N   0  0  0  0  0  0  0  0  0  0  0  0
   43.7870   33.0910   47.7640 H   0  0  0  0  0  0  0  0  0  0  0  0
   45.2280   33.8050   48.4620 H   0  0  0  0  0  0  0  0  0  0  0  0
  1 11  1  0  0  0  0
  1  2  1  0  0  0  0
  2 25  1  0  0  0  0
  3  2  2  0  0  0  0
  3  7  1  0  0  0  0
  4  3  1  0  0  0  0
  5  6  1  0  0  0  0
  5  4  2  0  0  0  0
  6  1  2  0  0  0  0
  8  4  1  0  0  0  0
  9  5  1  0  0  0  0
 10  6  1  0  0  0  0
 11 13  2  0  0  0  0
 12 11  2  0  0  0  0
 15 14  1  0  0  0  0
 16 15  1  0  0  0  0
 16 11  1  0  0  0  0
 17 16  2  0  0  0  0
 18 17  1  0  0  0  0
 19 21  2  0  0  0  0
 19 17  1  0  0  0  0
 20 19  1  0  0  0  0
 21 23  1  0  0  0  0
 22 21  1  0  0  0  0
 23 24  1  0  0  0  0
 23 15  2  0  0  0  0
 25 27  1  0  0  0  0
 26 25  2  0  0  0  0
 27 28  2  0  0  0  0
 27 32  1  0  0  0  0
 28 29  1  0  0  0  0
 29 34  1  0  0  0  0
 29 30  2  0  0  0  0
 31 30  1  0  0  0  0
 31 35  1  0  0  0  0
 32 31  2  0  0  0  0
 33 28  1  0  0  0  0
 35 38  1  6  0  0  0
 35 36  1  0  0  0  0
 35 37  1  0  0  0  0
 36 39  1  0  0  0  0
 36 40  1  0  0  0  0
 36 37  1  0  0  0  0
 37 41  1  1  0  0  0
 37 42  1  0  0  0  0
 42 43  1  0  0  0  0
 42 44  1  0  0  0  0
M  END
>  <minimizedAffinity>
-5.69821787

>  <minimizedRMSD>
1.330948

$$$$
