
     RDKit          3D

 45 48  0  0  0  0  0  0  0  0999 V2000
   46.4372   32.9665   46.4745 C   0  0  2  0  0  0  0  0  0  0  0  0
   46.9811   31.7432   45.7886 C   0  0  0  0  0  0  0  0  0  0  0  0
   46.1215   30.5499   45.8122 C   0  0  0  0  0  0  0  0  0  0  0  0
   45.8200   30.2924   47.2829 C   0  0  0  0  0  0  0  0  0  0  0  0
   45.0216   31.3612   47.8769 C   0  0  0  0  0  0  0  0  0  0  0  0
   45.3762   32.7328   47.4288 C   0  0  0  0  0  0  0  0  0  0  0  0
   44.5846   35.5685   44.6127 C   0  0  0  0  0  0  0  0  0  0  0  0
   45.2300   35.5791   43.3578 C   0  0  0  0  0  0  0  0  0  0  0  0
   46.3093   34.6708   43.1763 C   0  0  0  0  0  0  0  0  0  0  0  0
   46.6549   33.8552   44.2056 N   0  0  0  0  0  0  0  0  0  0  0  0
   46.0073   33.8838   45.3835 C   0  0  0  0  0  0  0  0  0  0  0  0
   44.9693   34.7392   45.5946 N   0  0  0  0  0  0  0  0  0  0  0  0
   46.9960   34.6497   41.8978 C   0  0  0  0  0  0  0  0  0  0  0  0
   48.1353   35.3763   41.7658 C   0  0  0  0  0  0  0  0  0  0  0  0
   48.7728   35.3307   40.5158 C   0  0  0  0  0  0  0  0  0  0  0  0
   48.1721   34.5506   39.5527 C   0  0  0  0  0  0  0  0  0  0  0  0
   47.0354   33.8261   39.6849 C   0  0  0  0  0  0  0  0  0  0  0  0
   46.4514   33.9019   40.9189 N   0  0  0  0  0  0  0  0  0  0  0  0
   44.6740   33.8520   47.9318 N   0  0  0  0  0  0  0  0  0  0  0  0
   47.2678   33.5072   46.9869 H   0  0  0  0  0  0  0  0  0  0  0  0
   47.9451   31.4850   46.2782 H   0  0  0  0  0  0  0  0  0  0  0  0
   47.2607   31.9411   44.7211 H   0  0  0  0  0  0  0  0  0  0  0  0
   45.2096   30.6557   45.2123 H   0  0  0  0  0  0  0  0  0  0  0  0
   46.6966   29.6851   45.4713 H   0  0  0  0  0  0  0  0  0  0  0  0
   46.7537   30.1196   47.8166 H   0  0  0  0  0  0  0  0  0  0  0  0
   45.1363   29.4057   47.2627 H   0  0  0  0  0  0  0  0  0  0  0  0
   44.2212   31.4114   48.5742 H   0  0  0  0  0  0  0  0  0  0  0  0
   43.7810   36.2718   44.6914 H   0  0  0  0  0  0  0  0  0  0  0  0
   44.9395   36.2361   42.5526 H   0  0  0  0  0  0  0  0  0  0  0  0
   48.5511   35.9685   42.5681 H   0  0  0  0  0  0  0  0  0  0  0  0
   49.6849   35.8859   40.3414 H   0  0  0  0  0  0  0  0  0  0  0  0
   48.6996   34.5472   38.6082 H   0  0  0  0  0  0  0  0  0  0  0  0
   43.8257   34.4128   47.6994 H   0  0  0  0  0  0  0  0  0  0  0  0
   45.2768   34.0765   48.7581 H   0  0  0  0  0  0  0  0  0  0  0  0
   44.9962   31.9290   40.6695 Cl  0  0  0  0  0  0  0  0  0  0  0  0
   45.4631   32.0910   38.9754 C   0  0  0  0  0  0  0  0  0  0  0  0
   46.4333   33.0224   38.6620 C   0  0  0  0  0  0  0  0  0  0  0  0
   46.7836   33.1331   37.3322 C   0  0  0  0  0  0  0  0  0  0  0  0
   47.5342   33.8369   36.9992 H   0  0  0  0  0  0  0  0  0  0  0  0
   46.2054   32.3567   36.3252 C   0  0  0  0  0  0  0  0  0  0  0  0
   46.5097   32.4741   35.2850 H   0  0  0  0  0  0  0  0  0  0  0  0
   45.2426   31.4415   36.6853 C   0  0  0  0  0  0  0  0  0  0  0  0
   44.8067   30.8508   35.8975 H   0  0  0  0  0  0  0  0  0  0  0  0
   44.8794   31.3127   37.9884 C   0  0  0  0  0  0  0  0  0  0  0  0
   43.6521   30.1523   38.4809 Cl  0  0  0  0  0  0  0  0  0  0  0  0
  1  6  1  0
  2  3  1  0
  2  1  1  0
  3  4  1  0
  4  5  1  0
  6  5  2  0
  6 19  1  0
  7 12  2  0
  8  7  1  0
  9  8  2  0
  9 10  1  0
 10 11  2  0
 11 12  1  0
 11  1  1  0
 13  9  1  0
 14 13  2  0
 15 14  1  0
 16 17  1  0
 16 15  2  0
 17 18  2  0
 18 13  1  0
  1 20  1  1
  2 21  1  0
  2 22  1  0
  3 23  1  0
  3 24  1  0
  4 25  1  0
  4 26  1  0
  5 27  1  0
  7 28  1  0
  8 29  1  0
 14 30  1  0
 15 31  1  0
 16 32  1  0
 19 33  1  0
 19 34  1  0
 35 36  1  0
 36 37  2  0
 37 38  1  0
 38 39  1  0
 38 40  2  0
 40 41  1  0
 40 42  1  0
 42 43  1  0
 42 44  2  0
 44 45  1  0
 44 36  1  0
 17 37  1  0
M  ISO  8  20  13  21  13  22  13  23  13  24  13  25  13  26  13  27  13
M  ISO  8  28  14  29  14  30  14  31  14  32  14  39  15  41  15  43  15
M  END
>  <DihAtoms>  (1) 
15,16,36,35

>  <DihDeg>  (1) 
-179.9999189590291

$$$$
