REMARK  Name = 
REMARK  3 active torsions:
REMARK  status: ('A' for Active; 'I' for Inactive)
REMARK    1  A    between atoms: C_3  and  S_9
REMARK    2  A    between atoms: S_9  and  C_10
REMARK    3  A    between atoms: C_14  and  C_23
REMARK                            x       y       z     vdW  Elec       q    Type
REMARK                         _______ _______ _______ _____ _____    ______ ____
ROOT
ATOM      1  C   UNL     1      44.363  34.624  42.736  0.00  0.00    +0.000 A 
ATOM      2  C   UNL     1      45.027  33.487  43.207  0.00  0.00    +0.000 A 
ATOM      3  C   UNL     1      45.472  33.489  44.547  0.00  0.00    +0.000 A 
ATOM      4  N   UNL     1      45.225  34.598  45.294  0.00  0.00    +0.000 NA
ATOM      5  C   UNL     1      44.581  35.672  44.799  0.00  0.00    +0.000 A 
ATOM      6  N   UNL     1      44.141  35.701  43.515  0.00  0.00    +0.000 NA
ATOM      7  H   UNL     1      45.204  32.617  42.570  0.00  0.00    +0.000 HD
ATOM      8  H   UNL     1      45.982  32.611  44.904  0.00  0.00    +0.000 HD
ENDROOT
BRANCH   5  11
ATOM      9 CL   UNL     1      46.333  38.006  44.304  0.00  0.00    +0.000 Cl
ATOM     10  C   UNL     1      45.115  37.966  45.566  0.00  0.00    +0.000 A 
ATOM     11  C   UNL     1      44.367  36.811  45.686  0.00  0.00    +0.000 A 
ATOM     12  C   UNL     1      43.388  36.694  46.651  0.00  0.00    +0.000 A 
ATOM     13  H   UNL     1      42.776  35.786  46.769  0.00  0.00    +0.000 HD
ATOM     14  C   UNL     1      43.108  37.725  47.543  0.00  0.00    +0.000 A 
ATOM     15  H   UNL     1      42.372  37.714  48.313  0.00  0.00    +0.000 HD
ATOM     16  C   UNL     1      43.883  38.873  47.391  0.00  0.00    +0.000 A 
ATOM     17  H   UNL     1      43.701  39.697  48.062  0.00  0.00    +0.000 HD
ATOM     18  C   UNL     1      44.846  38.986  46.441  0.00  0.00    +0.000 A 
ATOM     19 CL   UNL     1      45.804  40.445  46.277  0.00  0.00    +0.000 Cl
ENDBRANCH   5  11
BRANCH   1  20
ATOM     20  S   UNL     1      43.833  34.532  41.019  0.00  0.00    +0.000 S 
BRANCH  20  23
ATOM     21 CL   UNL     1      42.102  31.929  41.701  0.00  0.00    +0.000 Cl
ATOM     22  C   UNL     1      41.266  33.365  41.107  0.00  0.00    +0.000 A 
ATOM     23  C   UNL     1      42.077  34.429  40.841  0.00  0.00    +0.000 A 
ATOM     24  C   UNL     1      41.466  35.590  40.368  0.00  0.00    +0.000 A 
ATOM     25  C   UNL     1      40.088  35.617  40.191  0.00  0.00    +0.000 A 
ATOM     26  C   UNL     1      39.277  34.541  40.462  0.00  0.00    +0.000 A 
ATOM     27  C   UNL     1      39.903  33.392  40.931  0.00  0.00    +0.000 A 
ATOM     28 CL   UNL     1      38.980  31.941  41.317  0.00  0.00    +0.000 Cl
ATOM     29  H   UNL     1      42.014  36.488  40.127  0.00  0.00    +0.000 HD
ATOM     30  H   UNL     1      39.596  36.506  39.827  0.00  0.00    +0.000 HD
ATOM     31  H   UNL     1      38.222  34.476  40.355  0.00  0.00    +0.000 HD
ENDBRANCH  20  23
ENDBRANCH   1  20
TORSDOF 3
