REMARK  Name = 
REMARK  3 active torsions:
REMARK  status: ('A' for Active; 'I' for Inactive)
REMARK    1  A    between atoms: C_2  and  C_13
REMARK    2  A    between atoms: C_3  and  C_7
REMARK    3  A    between atoms: C_20  and  C_38
REMARK                            x       y       z     vdW  Elec       q    Type
REMARK                         _______ _______ _______ _____ _____    ______ ____
ROOT
ATOM      1  C   UNL     1      47.412  33.714  42.717  0.00  0.00    +0.000 C 
ATOM      2  O   UNL     1      48.508  33.541  43.326  0.00  0.00    +0.000 OA
ATOM      3  N   UNL     1      47.129  33.199  41.415  0.00  0.00    +0.000 N 
ATOM      4  C   UNL     1      45.935  32.533  40.896  0.00  0.00    +0.000 C 
ATOM      5  C   UNL     1      45.477  33.228  39.608  0.00  0.00    +0.000 C 
ATOM      6  C   UNL     1      46.541  33.084  38.550  0.00  0.00    +0.000 C 
ATOM      7  C   UNL     1      47.824  32.609  39.175  0.00  0.00    +0.000 C 
ATOM      8  C   UNL     1      48.166  33.352  40.432  0.00  0.00    +0.000 C 
ATOM      9  H   UNL     1      46.061  31.455  40.781  0.00  0.00    +0.000 HD
ATOM     10  H   UNL     1      45.146  32.758  41.665  0.00  0.00    +0.000 HD
ATOM     11  H   UNL     1      44.493  32.861  39.322  0.00  0.00    +0.000 HD
ATOM     12  H   UNL     1      45.353  34.295  39.912  0.00  0.00    +0.000 HD
ATOM     13  H   UNL     1      46.203  32.299  37.842  0.00  0.00    +0.000 HD
ATOM     14  H   UNL     1      46.676  34.022  37.973  0.00  0.00    +0.000 HD
ATOM     15  H   UNL     1      48.672  32.725  38.459  0.00  0.00    +0.000 HD
ATOM     16  H   UNL     1      47.718  31.521  39.403  0.00  0.00    +0.000 HD
ATOM     17  H   UNL     1      48.200  34.433  40.184  0.00  0.00    +0.000 HD
ENDROOT
BRANCH   8  20
ATOM     18 CL   UNL     1      48.289  30.589  41.445  0.00  0.00    +0.000 Cl
ATOM     19  C   UNL     1      49.698  31.648  41.387  0.00  0.00    +0.000 A 
ATOM     20  C   UNL     1      49.515  32.940  40.880  0.00  0.00    +0.000 A 
ATOM     21  C   UNL     1      50.671  33.693  40.874  0.00  0.00    +0.000 A 
ATOM     22  H   UNL     1      50.557  34.712  40.484  0.00  0.00    +0.000 HD
ATOM     23  C   UNL     1      51.870  33.192  41.330  0.00  0.00    +0.000 A 
ATOM     24  H   UNL     1      52.733  33.865  41.286  0.00  0.00    +0.000 HD
ATOM     25  C   UNL     1      51.991  31.909  41.820  0.00  0.00    +0.000 A 
ATOM     26  H   UNL     1      52.917  31.515  42.174  0.00  0.00    +0.000 HD
ATOM     27  C   UNL     1      50.873  31.105  41.852  0.00  0.00    +0.000 A 
ATOM     28 CL   UNL     1      50.969  29.488  42.457  0.00  0.00    +0.000 Cl
ENDBRANCH   8  20
BRANCH   1  30
ATOM     29  C   UNL     1      46.023  35.727  42.830  0.00  0.00    +0.000 A 
ATOM     30  C   UNL     1      46.395  34.479  43.389  0.00  0.00    +0.000 A 
ATOM     31  C   UNL     1      45.777  34.050  44.544  0.00  0.00    +0.000 A 
ATOM     32  N   UNL     1      44.834  34.840  45.103  0.00  0.00    +0.000 NA
ATOM     33  C   UNL     1      44.468  36.035  44.581  0.00  0.00    +0.000 A 
ATOM     34  N   UNL     1      45.073  36.456  43.450  0.00  0.00    +0.000 NA
ATOM     35  H   UNL     1      46.510  36.048  41.933  0.00  0.00    +0.000 HD
ATOM     36  H   UNL     1      43.711  36.652  45.045  0.00  0.00    +0.000 HD
BRANCH  31  37
ATOM     37  C   UNL     1      46.171  32.777  45.109  0.00  0.00    +0.000 A 
ATOM     38  C   UNL     1      45.795  31.613  44.507  0.00  0.00    +0.000 A 
ATOM     39  C   UNL     1      46.179  30.412  45.057  0.00  0.00    +0.000 A 
ATOM     40  C   UNL     1      46.942  30.321  46.214  0.00  0.00    +0.000 A 
ATOM     41  C   UNL     1      47.294  31.533  46.783  0.00  0.00    +0.000 A 
ATOM     42  N   UNL     1      46.904  32.684  46.220  0.00  0.00    +0.000 NA
ATOM     43  H   UNL     1      45.204  31.492  43.617  0.00  0.00    +0.000 HD
ATOM     44  H   UNL     1      45.914  29.435  44.629  0.00  0.00    +0.000 HD
ATOM     45  H   UNL     1      47.245  29.391  46.651  0.00  0.00    +0.000 HD
ATOM     46  H   UNL     1      47.896  31.541  47.697  0.00  0.00    +0.000 HD
ENDBRANCH  31  37
ENDBRANCH   1  30
TORSDOF 3
