
 OpenBabel03242520413D

 41 45  0  0  1  0  0  0  0  0999 V2000
   45.8220   33.4810   45.7040 C   0  0  0  0  0  0  0  0  0  0  0  0
   46.6600   33.6380   44.5690 C   0  0  0  0  0  0  0  0  0  0  0  0
   47.3640   32.4900   44.0960 C   0  0  0  0  0  0  0  0  0  0  0  0
   47.2030   31.2990   44.7470 N   0  0  0  0  0  0  0  0  0  0  0  0
   46.3870   31.2120   45.8270 C   0  0  0  0  0  0  0  0  0  0  0  0
   45.7100   32.2910   46.2930 N   0  0  0  0  0  0  0  0  0  0  0  0
   46.2800   29.9560   46.4340 N   0  0  0  0  0  0  0  0  0  0  0  0
   47.4310   29.3010   46.9640 C   0  0  2  0  0  0  0  0  0  0  0  0
   47.2290   27.8750   47.3350 C   0  0  0  0  0  0  0  0  0  0  0  0
   45.9340   27.4990   47.7570 N   0  0  0  0  0  0  0  0  0  0  0  0
   45.0040   28.5690   47.8460 C   0  0  0  0  0  0  0  0  0  0  0  0
   44.9910   29.3070   46.5330 C   0  0  0  0  0  0  0  0  0  0  0  0
   45.3290   34.3820   45.9990 H   0  0  0  0  0  0  0  0  0  0  0  0
   46.8380   34.5260   44.0090 H   0  0  0  0  0  0  0  0  0  0  0  0
   48.0150   32.5590   43.2350 H   0  0  0  0  0  0  0  0  0  0  0  0
   48.1700   29.2520   46.1040 H   0  0  0  0  0  0  0  0  0  0  0  0
   47.9370   27.6590   48.1860 H   0  0  0  0  0  0  0  0  0  0  0  0
   47.5380   27.1650   46.5400 H   0  0  0  0  0  0  0  0  0  0  0  0
   45.9000   26.8000   48.5300 H   0  0  0  0  0  0  0  0  0  0  0  0
   43.9820   28.0900   47.9380 H   0  0  0  0  0  0  0  0  0  0  0  0
   45.1040   29.2180   48.7160 H   0  0  0  0  0  0  0  0  0  0  0  0
   44.9610   28.5510   45.7400 H   0  0  0  0  0  0  0  0  0  0  0  0
   44.1700   30.0520   46.4550 H   0  0  0  0  0  0  0  0  0  0  0  0
   48.0790   30.0990   48.0400 C   0  0  0  0  0  0  0  0  0  0  0  0
   47.5780   30.8890   49.0440 C   0  0  0  0  0  0  0  0  0  0  0  0
   48.5500   31.4120   49.7980 N   0  0  0  0  0  0  0  0  0  0  0  0
   49.6860   30.9560   49.2790 C   0  0  0  0  0  0  0  0  0  0  0  0
   49.4070   30.1700   48.2250 N   0  0  0  0  0  0  0  0  0  0  0  0
   46.5250   31.0680   49.2030 H   0  0  0  0  0  0  0  0  0  0  0  0
   48.4760   32.0440   50.6240 H   0  0  0  0  0  0  0  0  0  0  0  0
   52.1860   30.8880   48.9190 C   0  0  0  0  0  3  0  0  0  0  0  0
   51.0780   31.1900   49.6840 C   0  0  0  0  0  0  0  0  0  0  0  0
   51.2850   31.7570   50.9260 C   0  0  0  0  0  0  0  0  0  0  0  0
   50.4430   32.0070   51.5510 H   0  0  0  0  0  0  0  0  0  0  0  0
   52.5500   32.0240   51.4130 C   0  0  0  0  0  0  0  0  0  0  0  0
   53.6710   31.7190   50.6420 C   0  0  0  0  0  0  0  0  0  0  0  0
   53.4520   31.1530   49.4040 C   0  0  0  0  0  3  0  0  0  0  0  0
   54.8260   32.0830   51.3550 O   0  0  0  0  0  0  0  0  0  0  0  0
   54.3860   32.0960   52.7200 C   0  0  0  0  0  3  0  0  0  0  0  0
   55.0620   32.7560   53.2630 H   0  0  0  0  0  0  0  0  0  0  0  0
   53.0600   32.5740   52.5920 O   0  0  0  0  0  0  0  0  0  0  0  0
  1 13  1  0  0  0  0
  1  6  1  0  0  0  0
  2  1  2  0  0  0  0
  3  2  1  0  0  0  0
  3  4  2  0  0  0  0
  4  5  1  0  0  0  0
  5  6  2  0  0  0  0
  5  7  1  0  0  0  0
  7 12  1  0  0  0  0
  7  8  1  0  0  0  0
  8 16  1  6  0  0  0
  8  9  1  0  0  0  0
  8 24  1  0  0  0  0
  9 10  1  0  0  0  0
  9 17  1  0  0  0  0
 10 11  1  0  0  0  0
 10 19  1  0  0  0  0
 11 20  1  0  0  0  0
 11 21  1  0  0  0  0
 12 11  1  0  0  0  0
 14  2  1  0  0  0  0
 15  3  1  0  0  0  0
 18  9  1  0  0  0  0
 22 12  1  0  0  0  0
 23 12  1  0  0  0  0
 24 28  1  0  0  0  0
 24 25  2  0  0  0  0
 25 29  1  0  0  0  0
 25 26  1  0  0  0  0
 26 30  1  0  0  0  0
 27 32  1  0  0  0  0
 27 26  1  0  0  0  0
 28 27  2  0  0  0  0
 31 37  2  0  0  0  0
 31 32  1  0  0  0  0
 32 33  2  0  0  0  0
 33 35  1  0  0  0  0
 33 34  1  0  0  0  0
 35 41  1  0  0  0  0
 36 38  1  0  0  0  0
 36 35  2  0  0  0  0
 37 36  1  0  0  0  0
 38 39  1  0  0  0  0
 39 40  1  0  0  0  0
 41 39  1  0  0  0  0
M  END
>  <minimizedAffinity>
-5.40186644

>  <minimizedRMSD>
0.456940204

$$$$
