
 OpenBabel03252502493D

 47 51  0  0  1  0  0  0  0  0999 V2000
   38.8820   28.4890   43.1700 C   0  0  0  0  0  0  0  0  0  0  0  0
   39.4260   28.3880   44.1440 H   0  0  0  0  0  0  0  0  0  0  0  0
   39.4330   27.8440   42.4650 H   0  0  0  0  0  0  0  0  0  0  0  0
   38.8700   29.8920   42.6500 C   0  0  1  0  0  0  0  0  0  0  0  0
   40.1580   30.6580   42.6930 C   0  0  0  0  0  0  0  0  0  0  0  0
   39.5890   30.1540   41.4110 C   0  0  2  0  0  0  0  0  0  0  0  0
   37.9760   30.4430   42.9270 H   0  0  0  0  0  0  0  0  0  0  0  0
   40.1000   31.7360   42.9610 H   0  0  0  0  0  0  0  0  0  0  0  0
   41.0740   30.1890   43.1220 H   0  0  0  0  0  0  0  0  0  0  0  0
   40.2400   29.4600   40.8920 H   0  0  0  0  0  0  0  0  0  0  0  0
   38.9920   31.2120   40.6060 N   0  0  0  0  0  0  0  0  0  0  0  0
   39.0290   32.4920   41.2110 C   0  0  0  0  0  0  0  0  0  0  0  0
   38.3540   33.4350   40.2340 C   0  0  0  0  0  0  0  0  0  0  0  0
   36.9990   33.0940   40.0020 N   0  0  0  0  0  0  0  0  0  0  0  0
   36.6970   31.6860   40.1920 C   0  0  0  0  0  0  0  0  0  0  0  0
   37.9160   30.8470   39.7910 C   0  0  0  0  0  0  0  0  0  0  0  0
   40.0930   32.8230   41.2520 H   0  0  0  0  0  0  0  0  0  0  0  0
   38.6240   32.5640   42.2250 H   0  0  0  0  0  0  0  0  0  0  0  0
   38.9930   33.5360   39.3360 H   0  0  0  0  0  0  0  0  0  0  0  0
   38.3680   34.4300   40.7340 H   0  0  0  0  0  0  0  0  0  0  0  0
   36.6170   33.4780   39.1300 H   0  0  0  0  0  0  0  0  0  0  0  0
   36.4030   31.4320   41.2180 H   0  0  0  0  0  0  0  0  0  0  0  0
   35.8740   31.4530   39.5000 H   0  0  0  0  0  0  0  0  0  0  0  0
   37.6150   29.7900   40.0450 H   0  0  0  0  0  0  0  0  0  0  0  0
   38.0670   30.8800   38.7090 H   0  0  0  0  0  0  0  0  0  0  0  0
   37.4440   28.0500   43.2650 C   0  0  0  0  0  0  0  0  0  0  0  0
   36.7150   28.8070   43.5010 H   0  0  0  0  0  0  0  0  0  0  0  0
   37.3980   27.3070   44.1070 H   0  0  0  0  0  0  0  0  0  0  0  0
   36.9530   25.0930   41.0040 C   0  0  0  0  0  0  0  0  0  0  0  0
   37.2470   25.8630   42.1560 C   0  0  0  0  0  0  0  0  0  0  0  0
   37.1330   27.2180   42.0570 C   0  0  0  0  0  0  0  0  0  0  0  0
   36.7490   27.7770   40.8800 N   0  0  0  0  0  0  0  0  0  0  0  0
   36.4770   27.0620   39.8120 C   0  0  0  0  0  0  0  0  0  0  0  0
   36.5730   25.7260   39.8540 N   0  0  0  0  0  0  0  0  0  0  0  0
   37.0260   24.0140   41.0240 H   0  0  0  0  0  0  0  0  0  0  0  0
   37.5440   25.3180   43.0400 H   0  0  0  0  0  0  0  0  0  0  0  0
   34.8730   28.4050   38.5060 C   0  0  0  0  0  3  0  0  0  0  0  0
   36.0680   27.7200   38.5730 C   0  0  0  0  0  0  0  0  0  0  0  0
   36.8380   27.6940   37.4280 C   0  0  0  0  0  0  0  0  0  0  0  0
   37.7740   27.1550   37.4900 H   0  0  0  0  0  0  0  0  0  0  0  0
   36.3920   28.3380   36.2940 C   0  0  0  0  0  0  0  0  0  0  0  0
   35.1890   29.0220   36.2420 C   0  0  0  0  0  0  0  0  0  0  0  0
   34.4160   29.0550   37.3740 C   0  0  0  0  0  3  0  0  0  0  0  0
   35.0840   29.5320   34.9510 O   0  0  0  0  0  0  0  0  0  0  0  0
   36.3490   29.4480   34.3060 C   0  0  0  0  0  3  0  0  0  0  0  0
   36.9410   30.3710   34.4290 H   0  0  0  0  0  0  0  0  0  0  0  0
   37.0130   28.4320   35.0440 O   0  0  0  0  0  0  0  0  0  0  0  0
  1 26  1  0  0  0  0
  1  2  1  0  0  0  0
  3  1  1  0  0  0  0
  4  5  1  0  0  0  0
  4  7  1  1  0  0  0
  4  1  1  0  0  0  0
  5  8  1  0  0  0  0
  5  9  1  0  0  0  0
  6 10  1  6  0  0  0
  6  4  1  0  0  0  0
  6  5  1  0  0  0  0
 11 12  1  0  0  0  0
 11  6  1  0  0  0  0
 12 17  1  0  0  0  0
 12 18  1  0  0  0  0
 13 20  1  0  0  0  0
 13 12  1  0  0  0  0
 14 15  1  0  0  0  0
 14 13  1  0  0  0  0
 15 22  1  0  0  0  0
 16 24  1  0  0  0  0
 16 15  1  0  0  0  0
 16 11  1  0  0  0  0
 19 13  1  0  0  0  0
 21 14  1  0  0  0  0
 23 15  1  0  0  0  0
 25 16  1  0  0  0  0
 26 27  1  0  0  0  0
 26 28  1  0  0  0  0
 29 35  1  0  0  0  0
 29 30  1  0  0  0  0
 30 36  1  0  0  0  0
 31 30  2  0  0  0  0
 31 26  1  0  0  0  0
 32 31  1  0  0  0  0
 33 34  1  0  0  0  0
 33 32  2  0  0  0  0
 34 29  2  0  0  0  0
 37 38  1  0  0  0  0
 38 33  1  0  0  0  0
 39 40  1  0  0  0  0
 39 38  2  0  0  0  0
 41 39  1  0  0  0  0
 42 41  2  0  0  0  0
 42 43  1  0  0  0  0
 43 37  2  0  0  0  0
 44 42  1  0  0  0  0
 45 46  1  0  0  0  0
 45 44  1  0  0  0  0
 45 47  1  0  0  0  0
 47 41  1  0  0  0  0
M  END
>  <minimizedAffinity>
-6.08847952

$$$$

 OpenBabel03252502493D

 47 51  0  0  1  0  0  0  0  0999 V2000
   36.3930   26.1450   38.4260 C   0  0  0  0  0  0  0  0  0  0  0  0
   36.1550   25.0850   38.1520 H   0  0  0  0  0  0  0  0  0  0  0  0
   37.3090   26.3890   37.8630 H   0  0  0  0  0  0  0  0  0  0  0  0
   36.6500   26.3260   39.8890 C   0  0  1  0  0  0  0  0  0  0  0  0
   37.4310   25.2560   40.5930 C   0  0  0  0  0  0  0  0  0  0  0  0
   38.0210   26.5940   40.3010 C   0  0  2  0  0  0  0  0  0  0  0  0
   35.7960   26.7270   40.4280 H   0  0  0  0  0  0  0  0  0  0  0  0
   37.1080   24.9840   41.6220 H   0  0  0  0  0  0  0  0  0  0  0  0
   37.7780   24.3570   40.0330 H   0  0  0  0  0  0  0  0  0  0  0  0
   38.8980   26.5500   39.6670 H   0  0  0  0  0  0  0  0  0  0  0  0
   38.1170   27.4370   41.4870 N   0  0  0  0  0  0  0  0  0  0  0  0
   37.3030   27.0150   42.5660 C   0  0  0  0  0  0  0  0  0  0  0  0
   37.5320   28.0180   43.6800 C   0  0  0  0  0  0  0  0  0  0  0  0
   37.1380   29.3290   43.3140 N   0  0  0  0  0  0  0  0  0  0  0  0
   37.1950   29.5940   41.8880 C   0  0  0  0  0  0  0  0  0  0  0  0
   38.3500   28.7980   41.2700 C   0  0  0  0  0  0  0  0  0  0  0  0
   37.7130   26.0510   42.9500 H   0  0  0  0  0  0  0  0  0  0  0  0
   36.2430   26.8550   42.3450 H   0  0  0  0  0  0  0  0  0  0  0  0
   38.5670   27.9060   44.0530 H   0  0  0  0  0  0  0  0  0  0  0  0
   36.8680   27.6870   44.5090 H   0  0  0  0  0  0  0  0  0  0  0  0
   37.5700   30.0660   43.8830 H   0  0  0  0  0  0  0  0  0  0  0  0
   36.2630   29.3550   41.3570 H   0  0  0  0  0  0  0  0  0  0  0  0
   37.4180   30.6660   41.7830 H   0  0  0  0  0  0  0  0  0  0  0  0
   38.2630   29.0060   40.1630 H   0  0  0  0  0  0  0  0  0  0  0  0
   39.3120   29.2040   41.5910 H   0  0  0  0  0  0  0  0  0  0  0  0
   35.2860   27.0980   38.0600 C   0  0  0  0  0  0  0  0  0  0  0  0
   34.5610   27.3240   38.8250 H   0  0  0  0  0  0  0  0  0  0  0  0
   34.7110   26.6080   37.2290 H   0  0  0  0  0  0  0  0  0  0  0  0
   36.4080   29.5230   35.4230 C   0  0  0  0  0  0  0  0  0  0  0  0
   35.8160   28.3910   36.0360 C   0  0  0  0  0  0  0  0  0  0  0  0
   35.9030   28.2910   37.3940 C   0  0  0  0  0  0  0  0  0  0  0  0
   36.5400   29.2590   38.1010 N   0  0  0  0  0  0  0  0  0  0  0  0
   37.0890   30.3080   37.5310 C   0  0  0  0  0  0  0  0  0  0  0  0
   37.0340   30.4570   36.2000 N   0  0  0  0  0  0  0  0  0  0  0  0
   36.3710   29.6560   34.3500 H   0  0  0  0  0  0  0  0  0  0  0  0
   35.3350   27.6820   35.3810 H   0  0  0  0  0  0  0  0  0  0  0  0
   37.0300   32.2030   39.1080 C   0  0  0  0  0  3  0  0  0  0  0  0
   37.7620   31.3180   38.3450 C   0  0  0  0  0  0  0  0  0  0  0  0
   39.1360   31.4380   38.3950 C   0  0  0  0  0  0  0  0  0  0  0  0
   39.7020   30.7390   37.7940 H   0  0  0  0  0  0  0  0  0  0  0  0
   39.7050   32.4130   39.1860 C   0  0  0  0  0  0  0  0  0  0  0  0
   38.9560   33.2960   39.9460 C   0  0  0  0  0  0  0  0  0  0  0  0
   37.5900   33.1850   39.9050 C   0  0  0  0  0  3  0  0  0  0  0  0
   39.8670   34.1200   40.6000 O   0  0  0  0  0  0  0  0  0  0  0  0
   41.1680   33.5530   40.5070 C   0  0  0  0  0  3  0  0  0  0  0  0
   41.4050   32.9090   41.3710 H   0  0  0  0  0  0  0  0  0  0  0  0
   41.0600   32.6990   39.3760 O   0  0  0  0  0  0  0  0  0  0  0  0
  1  4  1  0  0  0  0
  2  1  1  0  0  0  0
  3  1  1  0  0  0  0
  4  6  1  0  0  0  0
  4  7  1  1  0  0  0
  4  5  1  0  0  0  0
  5  8  1  0  0  0  0
  6 10  1  6  0  0  0
  6  5  1  0  0  0  0
  6 11  1  0  0  0  0
  9  5  1  0  0  0  0
 11 12  1  0  0  0  0
 12 17  1  0  0  0  0
 12 13  1  0  0  0  0
 13 19  1  0  0  0  0
 13 20  1  0  0  0  0
 14 13  1  0  0  0  0
 14 21  1  0  0  0  0
 15 14  1  0  0  0  0
 16 11  1  0  0  0  0
 16 25  1  0  0  0  0
 16 15  1  0  0  0  0
 18 12  1  0  0  0  0
 22 15  1  0  0  0  0
 23 15  1  0  0  0  0
 24 16  1  0  0  0  0
 26  1  1  0  0  0  0
 26 27  1  0  0  0  0
 28 26  1  0  0  0  0
 29 30  2  0  0  0  0
 29 34  1  0  0  0  0
 30 31  1  0  0  0  0
 31 26  1  0  0  0  0
 31 32  2  0  0  0  0
 33 32  1  0  0  0  0
 33 38  1  0  0  0  0
 34 33  2  0  0  0  0
 35 29  1  0  0  0  0
 36 30  1  0  0  0  0
 37 43  1  0  0  0  0
 38 39  1  0  0  0  0
 38 37  2  0  0  0  0
 39 41  2  0  0  0  0
 40 39  1  0  0  0  0
 41 47  1  0  0  0  0
 41 42  1  0  0  0  0
 42 44  1  0  0  0  0
 43 42  2  0  0  0  0
 45 44  1  0  0  0  0
 45 46  1  0  0  0  0
 47 45  1  0  0  0  0
M  END
>  <minimizedAffinity>
-5.83272028

$$$$

 OpenBabel03252502493D

 47 51  0  0  1  0  0  0  0  0999 V2000
   38.0160   29.6450   42.8860 C   0  0  0  0  0  0  0  0  0  0  0  0
   37.7380   30.1160   43.8640 H   0  0  0  0  0  0  0  0  0  0  0  0
   37.1850   29.8880   42.2030 H   0  0  0  0  0  0  0  0  0  0  0  0
   38.1650   28.1590   42.9750 C   0  0  1  0  0  0  0  0  0  0  0  0
   37.0820   27.3950   43.6770 C   0  0  0  0  0  0  0  0  0  0  0  0
   37.2410   27.3450   42.1950 C   0  0  2  0  0  0  0  0  0  0  0  0
   39.1830   27.8410   43.1790 H   0  0  0  0  0  0  0  0  0  0  0  0
   37.3950   26.5400   44.3160 H   0  0  0  0  0  0  0  0  0  0  0  0
   36.2180   27.9360   44.1290 H   0  0  0  0  0  0  0  0  0  0  0  0
   36.3740   27.7050   41.6550 H   0  0  0  0  0  0  0  0  0  0  0  0
   37.8210   26.0900   41.7340 N   0  0  0  0  0  0  0  0  0  0  0  0
   36.9340   24.9870   41.7860 C   0  0  0  0  0  0  0  0  0  0  0  0
   37.7230   23.7920   41.2870 C   0  0  0  0  0  0  0  0  0  0  0  0
   38.8400   23.5010   42.1090 N   0  0  0  0  0  0  0  0  0  0  0  0
   39.3690   24.6480   42.8250 C   0  0  0  0  0  0  0  0  0  0  0  0
   39.1870   25.9080   41.9700 C   0  0  0  0  0  0  0  0  0  0  0  0
   36.1350   25.1510   41.0240 H   0  0  0  0  0  0  0  0  0  0  0  0
   36.4390   24.8040   42.7440 H   0  0  0  0  0  0  0  0  0  0  0  0
   37.9320   23.9280   40.2090 H   0  0  0  0  0  0  0  0  0  0  0  0
   37.0210   22.9320   41.3580 H   0  0  0  0  0  0  0  0  0  0  0  0
   39.5630   22.9420   41.6430 H   0  0  0  0  0  0  0  0  0  0  0  0
   38.9080   24.8060   43.8080 H   0  0  0  0  0  0  0  0  0  0  0  0
   40.4470   24.4640   42.9450 H   0  0  0  0  0  0  0  0  0  0  0  0
   39.5510   26.7440   42.6350 H   0  0  0  0  0  0  0  0  0  0  0  0
   39.8510   25.8840   41.1020 H   0  0  0  0  0  0  0  0  0  0  0  0
   39.3150   30.1780   42.3380 C   0  0  0  0  0  0  0  0  0  0  0  0
   40.1640   29.5150   42.3590 H   0  0  0  0  0  0  0  0  0  0  0  0
   39.5920   31.0530   42.9860 H   0  0  0  0  0  0  0  0  0  0  0  0
   39.4010   32.5520   39.4310 C   0  0  0  0  0  0  0  0  0  0  0  0
   39.6830   31.9660   40.6900 C   0  0  0  0  0  0  0  0  0  0  0  0
   39.0310   30.8110   41.0090 C   0  0  0  0  0  0  0  0  0  0  0  0
   38.1510   30.2700   40.1290 N   0  0  0  0  0  0  0  0  0  0  0  0
   37.8890   30.8150   38.9630 C   0  0  0  0  0  0  0  0  0  0  0  0
   38.5010   31.9500   38.5970 N   0  0  0  0  0  0  0  0  0  0  0  0
   39.8880   33.4680   39.1240 H   0  0  0  0  0  0  0  0  0  0  0  0
   40.4000   32.4790   41.3130 H   0  0  0  0  0  0  0  0  0  0  0  0
   37.1530   30.1790   36.6960 C   0  0  0  0  0  3  0  0  0  0  0  0
   36.9300   30.1860   38.0570 C   0  0  0  0  0  0  0  0  0  0  0  0
   35.7740   29.5770   38.5030 C   0  0  0  0  0  0  0  0  0  0  0  0
   35.6080   29.5870   39.5720 H   0  0  0  0  0  0  0  0  0  0  0  0
   34.9140   29.0020   37.5940 C   0  0  0  0  0  0  0  0  0  0  0  0
   35.1510   29.0040   36.2290 C   0  0  0  0  0  0  0  0  0  0  0  0
   36.2960   29.6050   35.7740 C   0  0  0  0  0  3  0  0  0  0  0  0
   34.0770   28.3400   35.6430 O   0  0  0  0  0  0  0  0  0  0  0  0
   33.3460   27.6470   36.6480 C   0  0  0  0  0  3  0  0  0  0  0  0
   33.6900   26.6070   36.7710 H   0  0  0  0  0  0  0  0  0  0  0  0
   33.7050   28.3420   37.8350 O   0  0  0  0  0  0  0  0  0  0  0  0
  1  4  1  0  0  0  0
  1  2  1  0  0  0  0
  3  1  1  0  0  0  0
  4  7  1  1  0  0  0
  4  5  1  0  0  0  0
  5  9  1  0  0  0  0
  5  8  1  0  0  0  0
  6 10  1  6  0  0  0
  6  4  1  0  0  0  0
  6  5  1  0  0  0  0
 11 12  1  0  0  0  0
 11 16  1  0  0  0  0
 11  6  1  0  0  0  0
 12 18  1  0  0  0  0
 13 20  1  0  0  0  0
 13 12  1  0  0  0  0
 13 14  1  0  0  0  0
 14 15  1  0  0  0  0
 15 23  1  0  0  0  0
 15 22  1  0  0  0  0
 16 24  1  0  0  0  0
 16 15  1  0  0  0  0
 17 12  1  0  0  0  0
 19 13  1  0  0  0  0
 21 14  1  0  0  0  0
 25 16  1  0  0  0  0
 26 27  1  0  0  0  0
 26  1  1  0  0  0  0
 26 28  1  0  0  0  0
 29 30  1  0  0  0  0
 30 31  2  0  0  0  0
 30 36  1  0  0  0  0
 31 26  1  0  0  0  0
 32 31  1  0  0  0  0
 33 32  2  0  0  0  0
 34 33  1  0  0  0  0
 34 29  2  0  0  0  0
 35 29  1  0  0  0  0
 37 38  1  0  0  0  0
 38 39  2  0  0  0  0
 38 33  1  0  0  0  0
 39 40  1  0  0  0  0
 41 47  1  0  0  0  0
 41 39  1  0  0  0  0
 42 41  2  0  0  0  0
 43 42  1  0  0  0  0
 43 37  2  0  0  0  0
 44 42  1  0  0  0  0
 44 45  1  0  0  0  0
 45 46  1  0  0  0  0
 45 47  1  0  0  0  0
M  END
>  <minimizedAffinity>
-5.67554665

$$$$

 OpenBabel03252502493D

 47 51  0  0  1  0  0  0  0  0999 V2000
   36.7830   29.0420   42.0030 C   0  0  0  0  0  0  0  0  0  0  0  0
   36.3110   28.1540   41.5070 H   0  0  0  0  0  0  0  0  0  0  0  0
   35.9430   29.7080   42.2600 H   0  0  0  0  0  0  0  0  0  0  0  0
   37.7360   29.7710   41.1090 C   0  0  1  0  0  0  0  0  0  0  0  0
   37.3210   29.9930   39.6860 C   0  0  0  0  0  0  0  0  0  0  0  0
   37.3580   31.1090   40.6740 C   0  0  2  0  0  0  0  0  0  0  0  0
   38.7720   29.4870   41.2650 H   0  0  0  0  0  0  0  0  0  0  0  0
   38.1060   29.8930   38.9050 H   0  0  0  0  0  0  0  0  0  0  0  0
   36.3430   29.6010   39.3210 H   0  0  0  0  0  0  0  0  0  0  0  0
   36.3950   31.5810   40.8290 H   0  0  0  0  0  0  0  0  0  0  0  0
   38.4950   31.9980   40.4750 N   0  0  0  0  0  0  0  0  0  0  0  0
   38.1440   33.3570   40.2860 C   0  0  0  0  0  0  0  0  0  0  0  0
   39.4490   34.1020   40.0840 C   0  0  0  0  0  0  0  0  0  0  0  0
   40.1490   33.6610   38.9330 N   0  0  0  0  0  0  0  0  0  0  0  0
   39.8710   32.2880   38.5550 C   0  0  0  0  0  0  0  0  0  0  0  0
   39.6030   31.4580   39.8150 C   0  0  0  0  0  0  0  0  0  0  0  0
   37.7310   33.7430   41.2490 H   0  0  0  0  0  0  0  0  0  0  0  0
   37.4060   33.5660   39.5060 H   0  0  0  0  0  0  0  0  0  0  0  0
   40.0160   34.0920   41.0340 H   0  0  0  0  0  0  0  0  0  0  0  0
   39.1540   35.1610   39.9120 H   0  0  0  0  0  0  0  0  0  0  0  0
   41.1510   33.8860   38.9460 H   0  0  0  0  0  0  0  0  0  0  0  0
   39.0240   32.1830   37.8640 H   0  0  0  0  0  0  0  0  0  0  0  0
   40.7880   31.9090   38.0790 H   0  0  0  0  0  0  0  0  0  0  0  0
   39.3240   30.4390   39.4180 H   0  0  0  0  0  0  0  0  0  0  0  0
   40.5220   31.3290   40.3930 H   0  0  0  0  0  0  0  0  0  0  0  0
   37.5520   28.6680   43.2430 C   0  0  0  0  0  0  0  0  0  0  0  0
   37.0420   28.7740   44.1860 H   0  0  0  0  0  0  0  0  0  0  0  0
   38.4310   29.3650   43.2890 H   0  0  0  0  0  0  0  0  0  0  0  0
   39.9240   25.7650   43.4430 C   0  0  0  0  0  0  0  0  0  0  0  0
   39.3360   27.0320   43.6790 C   0  0  0  0  0  0  0  0  0  0  0  0
   38.1860   27.3300   43.0080 C   0  0  0  0  0  0  0  0  0  0  0  0
   37.6520   26.4210   42.1520 N   0  0  0  0  0  0  0  0  0  0  0  0
   38.1990   25.2470   41.9330 C   0  0  0  0  0  0  0  0  0  0  0  0
   39.3290   24.9020   42.5660 N   0  0  0  0  0  0  0  0  0  0  0  0
   40.8360   25.4730   43.9460 H   0  0  0  0  0  0  0  0  0  0  0  0
   39.8430   27.6780   44.3790 H   0  0  0  0  0  0  0  0  0  0  0  0
   38.1050   23.0500   40.8170 C   0  0  0  0  0  3  0  0  0  0  0  0
   37.5770   24.3110   40.9990 C   0  0  0  0  0  0  0  0  0  0  0  0
   36.4520   24.6280   40.2660 C   0  0  0  0  0  0  0  0  0  0  0  0
   36.0440   25.6190   40.4160 H   0  0  0  0  0  0  0  0  0  0  0  0
   35.9170   23.6970   39.4030 C   0  0  0  0  0  0  0  0  0  0  0  0
   36.4590   22.4340   39.2300 C   0  0  0  0  0  0  0  0  0  0  0  0
   37.5770   22.1070   39.9540 C   0  0  0  0  0  3  0  0  0  0  0  0
   35.6570   21.7880   38.2940 O   0  0  0  0  0  0  0  0  0  0  0  0
   34.4450   22.5130   38.1300 C   0  0  0  0  0  3  0  0  0  0  0  0
   33.6470   22.1490   38.7990 H   0  0  0  0  0  0  0  0  0  0  0  0
   34.7940   23.8160   38.5790 O   0  0  0  0  0  0  0  0  0  0  0  0
  1  3  1  0  0  0  0
  1 26  1  0  0  0  0
  2  1  1  0  0  0  0
  4  7  1  1  0  0  0
  4  1  1  0  0  0  0
  5  6  1  0  0  0  0
  5  4  1  0  0  0  0
  6 10  1  1  0  0  0
  6  4  1  0  0  0  0
  8  5  1  0  0  0  0
  9  5  1  0  0  0  0
 11  6  1  0  0  0  0
 12 11  1  0  0  0  0
 12 17  1  0  0  0  0
 13 12  1  0  0  0  0
 13 19  1  0  0  0  0
 14 21  1  0  0  0  0
 14 13  1  0  0  0  0
 15 14  1  0  0  0  0
 15 16  1  0  0  0  0
 16 25  1  0  0  0  0
 16 11  1  0  0  0  0
 18 12  1  0  0  0  0
 20 13  1  0  0  0  0
 22 15  1  0  0  0  0
 23 15  1  0  0  0  0
 24 16  1  0  0  0  0
 26 28  1  0  0  0  0
 26 27  1  0  0  0  0
 29 30  1  0  0  0  0
 29 35  1  0  0  0  0
 30 36  1  0  0  0  0
 31 26  1  0  0  0  0
 31 30  2  0  0  0  0
 32 31  1  0  0  0  0
 33 32  2  0  0  0  0
 33 34  1  0  0  0  0
 34 29  2  0  0  0  0
 37 38  1  0  0  0  0
 38 33  1  0  0  0  0
 39 40  1  0  0  0  0
 39 38  2  0  0  0  0
 41 39  1  0  0  0  0
 42 41  2  0  0  0  0
 42 43  1  0  0  0  0
 43 37  2  0  0  0  0
 44 42  1  0  0  0  0
 45 44  1  0  0  0  0
 45 47  1  0  0  0  0
 45 46  1  0  0  0  0
 47 41  1  0  0  0  0
M  END
>  <minimizedAffinity>
-5.64401102

$$$$

 OpenBabel03252502493D

 47 51  0  0  1  0  0  0  0  0999 V2000
   37.3300   24.1440   39.6650 C   0  0  0  0  0  0  0  0  0  0  0  0
   37.6860   23.0930   39.5040 H   0  0  0  0  0  0  0  0  0  0  0  0
   38.0040   24.7720   39.0600 H   0  0  0  0  0  0  0  0  0  0  0  0
   37.4060   24.5730   41.0960 C   0  0  1  0  0  0  0  0  0  0  0  0
   38.6020   24.1370   41.8880 C   0  0  0  0  0  0  0  0  0  0  0  0
   38.4260   25.5510   41.4490 C   0  0  2  0  0  0  0  0  0  0  0  0
   36.4500   24.5240   41.6090 H   0  0  0  0  0  0  0  0  0  0  0  0
   38.4320   23.8390   42.9450 H   0  0  0  0  0  0  0  0  0  0  0  0
   39.3840   23.4970   41.4150 H   0  0  0  0  0  0  0  0  0  0  0  0
   39.2200   25.9060   40.8040 H   0  0  0  0  0  0  0  0  0  0  0  0
   38.0310   26.4330   42.5410 N   0  0  0  0  0  0  0  0  0  0  0  0
   36.6840   26.8650   42.4800 C   0  0  0  0  0  0  0  0  0  0  0  0
   36.4820   27.7720   43.6790 C   0  0  0  0  0  0  0  0  0  0  0  0
   37.3170   28.9160   43.6370 N   0  0  0  0  0  0  0  0  0  0  0  0
   38.5500   28.7280   42.8950 C   0  0  0  0  0  0  0  0  0  0  0  0
   39.0210   27.2780   43.0510 C   0  0  0  0  0  0  0  0  0  0  0  0
   36.0300   25.9810   42.6670 H   0  0  0  0  0  0  0  0  0  0  0  0
   36.3600   27.3200   41.5390 H   0  0  0  0  0  0  0  0  0  0  0  0
   36.5350   27.1610   44.6000 H   0  0  0  0  0  0  0  0  0  0  0  0
   35.4280   28.1220   43.6030 H   0  0  0  0  0  0  0  0  0  0  0  0
   37.4550   29.3620   44.5510 H   0  0  0  0  0  0  0  0  0  0  0  0
   38.4630   28.9690   41.8270 H   0  0  0  0  0  0  0  0  0  0  0  0
   39.2950   29.3870   43.3660 H   0  0  0  0  0  0  0  0  0  0  0  0
   39.9290   27.2120   42.3840 H   0  0  0  0  0  0  0  0  0  0  0  0
   39.3670   27.0930   44.0720 H   0  0  0  0  0  0  0  0  0  0  0  0
   35.9010   24.3410   39.2290 C   0  0  0  0  0  0  0  0  0  0  0  0
   35.1400   24.2430   39.9850 H   0  0  0  0  0  0  0  0  0  0  0  0
   35.6900   23.5350   38.4750 H   0  0  0  0  0  0  0  0  0  0  0  0
   35.4070   26.7010   36.3510 C   0  0  0  0  0  0  0  0  0  0  0  0
   35.4610   25.5030   37.1060 C   0  0  0  0  0  0  0  0  0  0  0  0
   35.8350   25.5980   38.4150 C   0  0  0  0  0  0  0  0  0  0  0  0
   36.1380   26.8120   38.9420 N   0  0  0  0  0  0  0  0  0  0  0  0
   36.0880   27.9210   38.2400 C   0  0  0  0  0  0  0  0  0  0  0  0
   35.7270   27.8870   36.9500 N   0  0  0  0  0  0  0  0  0  0  0  0
   35.1170   26.6870   35.3090 H   0  0  0  0  0  0  0  0  0  0  0  0
   35.2000   24.5920   36.5890 H   0  0  0  0  0  0  0  0  0  0  0  0
   35.8480   29.5690   40.0590 C   0  0  0  0  0  3  0  0  0  0  0  0
   36.4270   29.1990   38.8630 C   0  0  0  0  0  0  0  0  0  0  0  0
   37.3230   30.0860   38.3020 C   0  0  0  0  0  0  0  0  0  0  0  0
   37.7710   29.7870   37.3640 H   0  0  0  0  0  0  0  0  0  0  0  0
   37.5960   31.2740   38.9450 C   0  0  0  0  0  0  0  0  0  0  0  0
   37.0070   31.6320   40.1460 C   0  0  0  0  0  0  0  0  0  0  0  0
   36.1150   30.7590   40.7130 C   0  0  0  0  0  3  0  0  0  0  0  0
   37.5230   32.8820   40.4790 O   0  0  0  0  0  0  0  0  0  0  0  0
   38.6610   33.1530   39.6690 C   0  0  0  0  0  3  0  0  0  0  0  0
   39.6010   32.8360   40.1520 H   0  0  0  0  0  0  0  0  0  0  0  0
   38.4630   32.2980   38.5510 O   0  0  0  0  0  0  0  0  0  0  0  0
  1  4  1  0  0  0  0
  2  1  1  0  0  0  0
  3  1  1  0  0  0  0
  4  6  1  0  0  0  0
  4  7  1  1  0  0  0
  4  5  1  0  0  0  0
  5  8  1  0  0  0  0
  6 10  1  6  0  0  0
  6  5  1  0  0  0  0
  6 11  1  0  0  0  0
  9  5  1  0  0  0  0
 11 16  1  0  0  0  0
 12 11  1  0  0  0  0
 12 17  1  0  0  0  0
 12 13  1  0  0  0  0
 13 19  1  0  0  0  0
 14 13  1  0  0  0  0
 14 21  1  0  0  0  0
 15 16  1  0  0  0  0
 15 23  1  0  0  0  0
 15 14  1  0  0  0  0
 16 25  1  0  0  0  0
 18 12  1  0  0  0  0
 20 13  1  0  0  0  0
 22 15  1  0  0  0  0
 24 16  1  0  0  0  0
 26  1  1  0  0  0  0
 26 27  1  0  0  0  0
 28 26  1  0  0  0  0
 29 34  2  0  0  0  0
 29 30  1  0  0  0  0
 30 31  2  0  0  0  0
 31 32  1  0  0  0  0
 31 26  1  0  0  0  0
 33 38  1  0  0  0  0
 33 32  2  0  0  0  0
 34 33  1  0  0  0  0
 35 29  1  0  0  0  0
 36 30  1  0  0  0  0
 37 43  1  0  0  0  0
 38 37  2  0  0  0  0
 39 38  1  0  0  0  0
 39 41  2  0  0  0  0
 40 39  1  0  0  0  0
 41 42  1  0  0  0  0
 42 44  1  0  0  0  0
 42 43  2  0  0  0  0
 45 46  1  0  0  0  0
 45 44  1  0  0  0  0
 47 41  1  0  0  0  0
 47 45  1  0  0  0  0
M  END
>  <minimizedAffinity>
-5.6203661

$$$$

 OpenBabel03252502493D

 47 51  0  0  1  0  0  0  0  0999 V2000
   37.3200   28.9100   37.6270 C   0  0  0  0  0  0  0  0  0  0  0  0
   37.0050   28.2060   36.8120 H   0  0  0  0  0  0  0  0  0  0  0  0
   38.4140   28.9980   37.5240 H   0  0  0  0  0  0  0  0  0  0  0  0
   36.9910   28.4020   38.9950 C   0  0  1  0  0  0  0  0  0  0  0  0
   36.8080   26.9230   39.1600 C   0  0  0  0  0  0  0  0  0  0  0  0
   38.0130   27.6260   39.6860 C   0  0  2  0  0  0  0  0  0  0  0  0
   36.2870   29.0330   39.5280 H   0  0  0  0  0  0  0  0  0  0  0  0
   35.9990   26.5830   39.8440 H   0  0  0  0  0  0  0  0  0  0  0  0
   36.8950   26.2460   38.2780 H   0  0  0  0  0  0  0  0  0  0  0  0
   38.9420   27.2710   39.2570 H   0  0  0  0  0  0  0  0  0  0  0  0
   37.9830   27.7860   41.1340 N   0  0  0  0  0  0  0  0  0  0  0  0
   36.7180   27.5370   41.7200 C   0  0  0  0  0  0  0  0  0  0  0  0
   36.8930   27.7700   43.2080 C   0  0  0  0  0  0  0  0  0  0  0  0
   37.2630   29.1050   43.5060 N   0  0  0  0  0  0  0  0  0  0  0  0
   37.9770   29.7790   42.4360 C   0  0  0  0  0  0  0  0  0  0  0  0
   38.8300   28.7590   41.6740 C   0  0  0  0  0  0  0  0  0  0  0  0
   36.4990   26.4480   41.6160 H   0  0  0  0  0  0  0  0  0  0  0  0
   35.8690   28.0830   41.2980 H   0  0  0  0  0  0  0  0  0  0  0  0
   37.5490   26.9780   43.6180 H   0  0  0  0  0  0  0  0  0  0  0  0
   35.8870   27.5940   43.6490 H   0  0  0  0  0  0  0  0  0  0  0  0
   37.7060   29.2170   44.4250 H   0  0  0  0  0  0  0  0  0  0  0  0
   37.3210   30.3040   41.7300 H   0  0  0  0  0  0  0  0  0  0  0  0
   38.6510   30.4990   42.9240 H   0  0  0  0  0  0  0  0  0  0  0  0
   39.2780   29.3560   40.8270 H   0  0  0  0  0  0  0  0  0  0  0  0
   39.6640   28.4160   42.2920 H   0  0  0  0  0  0  0  0  0  0  0  0
   36.6730   30.2640   37.5000 C   0  0  0  0  0  0  0  0  0  0  0  0
   35.6110   30.3190   37.6780 H   0  0  0  0  0  0  0  0  0  0  0  0
   36.8220   30.5850   36.4340 H   0  0  0  0  0  0  0  0  0  0  0  0
   37.7120   32.8340   40.0320 C   0  0  0  0  0  0  0  0  0  0  0  0
   36.9170   31.9070   39.3140 C   0  0  0  0  0  0  0  0  0  0  0  0
   37.5000   31.2460   38.2730 C   0  0  0  0  0  0  0  0  0  0  0  0
   38.7990   31.4930   37.9630 N   0  0  0  0  0  0  0  0  0  0  0  0
   39.5350   32.3530   38.6290 C   0  0  0  0  0  0  0  0  0  0  0  0
   39.0130   33.0310   39.6610 N   0  0  0  0  0  0  0  0  0  0  0  0
   37.3040   33.3870   40.8670 H   0  0  0  0  0  0  0  0  0  0  0  0
   35.8960   31.7880   39.6450 H   0  0  0  0  0  0  0  0  0  0  0  0
   41.5940   33.7100   38.6620 C   0  0  0  0  0  3  0  0  0  0  0  0
   40.9290   32.5760   38.2470 C   0  0  0  0  0  0  0  0  0  0  0  0
   41.6390   31.6850   37.4690 C   0  0  0  0  0  0  0  0  0  0  0  0
   41.1080   30.7980   37.1490 H   0  0  0  0  0  0  0  0  0  0  0  0
   42.9500   31.9580   37.1470 C   0  0  0  0  0  0  0  0  0  0  0  0
   43.6060   33.1020   37.5710 C   0  0  0  0  0  0  0  0  0  0  0  0
   42.9110   33.9950   38.3450 C   0  0  0  0  0  3  0  0  0  0  0  0
   44.8970   33.0280   37.0560 O   0  0  0  0  0  0  0  0  0  0  0  0
   45.1450   31.7050   36.5950 C   0  0  0  0  0  3  0  0  0  0  0  0
   45.6120   31.0740   37.3700 H   0  0  0  0  0  0  0  0  0  0  0  0
   43.8360   31.1940   36.3810 O   0  0  0  0  0  0  0  0  0  0  0  0
  1  4  1  0  0  0  0
  2  1  1  0  0  0  0
  3  1  1  0  0  0  0
  4  5  1  0  0  0  0
  4  7  1  1  0  0  0
  4  6  1  0  0  0  0
  5  6  1  0  0  0  0
  5  8  1  0  0  0  0
  6 10  1  6  0  0  0
  6 11  1  0  0  0  0
  9  5  1  0  0  0  0
 11 16  1  0  0  0  0
 11 12  1  0  0  0  0
 12 13  1  0  0  0  0
 13 14  1  0  0  0  0
 13 19  1  0  0  0  0
 13 20  1  0  0  0  0
 14 21  1  0  0  0  0
 15 23  1  0  0  0  0
 15 14  1  0  0  0  0
 16 25  1  0  0  0  0
 16 15  1  0  0  0  0
 17 12  1  0  0  0  0
 18 12  1  0  0  0  0
 22 15  1  0  0  0  0
 24 16  1  0  0  0  0
 26  1  1  0  0  0  0
 26 27  1  0  0  0  0
 26 31  1  0  0  0  0
 28 26  1  0  0  0  0
 29 35  1  0  0  0  0
 30 36  1  0  0  0  0
 30 29  2  0  0  0  0
 31 30  1  0  0  0  0
 32 31  2  0  0  0  0
 32 33  1  0  0  0  0
 33 34  2  0  0  0  0
 34 29  1  0  0  0  0
 38 33  1  0  0  0  0
 38 37  2  0  0  0  0
 39 38  1  0  0  0  0
 40 39  1  0  0  0  0
 41 39  2  0  0  0  0
 41 42  1  0  0  0  0
 42 43  2  0  0  0  0
 43 37  1  0  0  0  0
 44 42  1  0  0  0  0
 45 44  1  0  0  0  0
 45 46  1  0  0  0  0
 47 45  1  0  0  0  0
 47 41  1  0  0  0  0
M  END
>  <minimizedAffinity>
-5.61302948

$$$$

 OpenBabel03252502493D

 47 51  0  0  1  0  0  0  0  0999 V2000
   36.6460   25.3960   40.2340 C   0  0  0  0  0  0  0  0  0  0  0  0
   36.4000   24.3030   40.2660 H   0  0  0  0  0  0  0  0  0  0  0  0
   35.8260   25.8910   40.7800 H   0  0  0  0  0  0  0  0  0  0  0  0
   36.7100   25.9390   38.8410 C   0  0  1  0  0  0  0  0  0  0  0  0
   35.5560   25.6470   37.9290 C   0  0  0  0  0  0  0  0  0  0  0  0
   35.7830   27.0080   38.4950 C   0  0  2  0  0  0  0  0  0  0  0  0
   37.6990   25.8670   38.3990 H   0  0  0  0  0  0  0  0  0  0  0  0
   35.7920   25.4220   36.8660 H   0  0  0  0  0  0  0  0  0  0  0  0
   34.7020   25.0270   38.2880 H   0  0  0  0  0  0  0  0  0  0  0  0
   34.9620   27.3640   39.1060 H   0  0  0  0  0  0  0  0  0  0  0  0
   36.3160   27.9430   37.5120 N   0  0  0  0  0  0  0  0  0  0  0  0
   35.6240   27.9450   36.2770 C   0  0  0  0  0  0  0  0  0  0  0  0
   36.3340   28.9590   35.4010 C   0  0  0  0  0  0  0  0  0  0  0  0
   37.6840   28.6060   35.1520 N   0  0  0  0  0  0  0  0  0  0  0  0
   38.2860   27.7850   36.1870 C   0  0  0  0  0  0  0  0  0  0  0  0
   37.6960   28.1690   37.5480 C   0  0  0  0  0  0  0  0  0  0  0  0
   34.6070   28.3690   36.4520 H   0  0  0  0  0  0  0  0  0  0  0  0
   35.4940   26.9740   35.7890 H   0  0  0  0  0  0  0  0  0  0  0  0
   36.1630   29.9700   35.8160 H   0  0  0  0  0  0  0  0  0  0  0  0
   35.7950   28.9300   34.4280 H   0  0  0  0  0  0  0  0  0  0  0  0
   38.2730   29.3950   34.8630 H   0  0  0  0  0  0  0  0  0  0  0  0
   38.1580   26.7070   36.0260 H   0  0  0  0  0  0  0  0  0  0  0  0
   39.3580   28.0350   36.1910 H   0  0  0  0  0  0  0  0  0  0  0  0
   38.1620   27.4340   38.2660 H   0  0  0  0  0  0  0  0  0  0  0  0
   38.0370   29.1630   37.8490 H   0  0  0  0  0  0  0  0  0  0  0  0
   37.9690   25.7080   40.8820 C   0  0  0  0  0  0  0  0  0  0  0  0
   38.8430   25.6740   40.2530 H   0  0  0  0  0  0  0  0  0  0  0  0
   38.1260   24.9220   41.6680 H   0  0  0  0  0  0  0  0  0  0  0  0
   37.1260   28.0720   43.6740 C   0  0  0  0  0  0  0  0  0  0  0  0
   37.2750   26.8730   42.9340 C   0  0  0  0  0  0  0  0  0  0  0  0
   37.8070   26.9660   41.6820 C   0  0  0  0  0  0  0  0  0  0  0  0
   38.1710   28.1790   41.1930 N   0  0  0  0  0  0  0  0  0  0  0  0
   38.0320   29.2910   41.8800 C   0  0  0  0  0  0  0  0  0  0  0  0
   37.5140   29.2580   43.1160 N   0  0  0  0  0  0  0  0  0  0  0  0
   36.7100   28.0610   44.6720 H   0  0  0  0  0  0  0  0  0  0  0  0
   36.9530   25.9630   43.4170 H   0  0  0  0  0  0  0  0  0  0  0  0
   37.4990   31.4520   40.8200 C   0  0  0  0  0  3  0  0  0  0  0  0
   38.4420   30.5680   41.3000 C   0  0  0  0  0  0  0  0  0  0  0  0
   39.7640   30.9510   41.2050 C   0  0  0  0  0  0  0  0  0  0  0  0
   40.4960   30.2510   41.5850 H   0  0  0  0  0  0  0  0  0  0  0  0
   40.0800   32.1710   40.6470 C   0  0  0  0  0  0  0  0  0  0  0  0
   39.1220   33.0490   40.1680 C   0  0  0  0  0  0  0  0  0  0  0  0
   37.8040   32.6790   40.2580 C   0  0  0  0  0  3  0  0  0  0  0  0
   39.8120   34.1590   39.6870 O   0  0  0  0  0  0  0  0  0  0  0  0
   41.1540   34.1190   40.1570 C   0  0  0  0  0  3  0  0  0  0  0  0
   41.2810   34.6740   41.1020 H   0  0  0  0  0  0  0  0  0  0  0  0
   41.3420   32.7430   40.4590 O   0  0  0  0  0  0  0  0  0  0  0  0
  1  2  1  0  0  0  0
  1  3  1  0  0  0  0
  1 26  1  0  0  0  0
  4  7  1  6  0  0  0
  4  1  1  0  0  0  0
  5  9  1  0  0  0  0
  5  6  1  0  0  0  0
  5  4  1  0  0  0  0
  6  4  1  0  0  0  0
  6 10  1  1  0  0  0
  8  5  1  0  0  0  0
 11 16  1  0  0  0  0
 11  6  1  0  0  0  0
 12 17  1  0  0  0  0
 12 11  1  0  0  0  0
 13 19  1  0  0  0  0
 13 12  1  0  0  0  0
 14 13  1  0  0  0  0
 14 15  1  0  0  0  0
 15 23  1  0  0  0  0
 15 16  1  0  0  0  0
 16 25  1  0  0  0  0
 16 24  1  0  0  0  0
 18 12  1  0  0  0  0
 20 13  1  0  0  0  0
 21 14  1  0  0  0  0
 22 15  1  0  0  0  0
 26 28  1  0  0  0  0
 26 31  1  0  0  0  0
 27 26  1  0  0  0  0
 29 35  1  0  0  0  0
 30 36  1  0  0  0  0
 30 29  2  0  0  0  0
 31 30  1  0  0  0  0
 32 31  2  0  0  0  0
 32 33  1  0  0  0  0
 33 34  2  0  0  0  0
 34 29  1  0  0  0  0
 37 38  1  0  0  0  0
 38 33  1  0  0  0  0
 39 38  2  0  0  0  0
 39 40  1  0  0  0  0
 41 39  1  0  0  0  0
 42 43  1  0  0  0  0
 42 41  2  0  0  0  0
 43 37  2  0  0  0  0
 44 45  1  0  0  0  0
 44 42  1  0  0  0  0
 45 47  1  0  0  0  0
 45 46  1  0  0  0  0
 47 41  1  0  0  0  0
M  END
>  <minimizedAffinity>
-5.53986835

$$$$

 OpenBabel03252502493D

 47 51  0  0  1  0  0  0  0  0999 V2000
   40.8980   28.7740   40.8340 C   0  0  0  0  0  0  0  0  0  0  0  0
   41.9230   28.3950   40.5880 H   0  0  0  0  0  0  0  0  0  0  0  0
   40.2180   28.2220   40.1640 H   0  0  0  0  0  0  0  0  0  0  0  0
   40.7450   30.2430   40.5930 C   0  0  1  0  0  0  0  0  0  0  0  0
   41.6620   30.8800   39.5920 C   0  0  0  0  0  0  0  0  0  0  0  0
   40.2160   30.6580   39.3000 C   0  0  2  0  0  0  0  0  0  0  0  0
   40.5610   30.8090   41.5000 H   0  0  0  0  0  0  0  0  0  0  0  0
   42.0500   31.8940   39.8300 H   0  0  0  0  0  0  0  0  0  0  0  0
   42.4370   30.2670   39.0740 H   0  0  0  0  0  0  0  0  0  0  0  0
   40.0410   30.0150   38.4460 H   0  0  0  0  0  0  0  0  0  0  0  0
   39.4360   31.8880   39.3600 N   0  0  0  0  0  0  0  0  0  0  0  0
   39.4140   32.4990   40.6370 C   0  0  0  0  0  0  0  0  0  0  0  0
   38.5490   33.7370   40.4930 C   0  0  0  0  0  0  0  0  0  0  0  0
   37.2160   33.4250   40.1280 N   0  0  0  0  0  0  0  0  0  0  0  0
   37.0750   32.1810   39.3910 C   0  0  0  0  0  0  0  0  0  0  0  0
   38.3190   31.9610   38.5230 C   0  0  0  0  0  0  0  0  0  0  0  0
   40.4390   32.8810   40.8540 H   0  0  0  0  0  0  0  0  0  0  0  0
   39.1160   31.8640   41.4770 H   0  0  0  0  0  0  0  0  0  0  0  0
   39.0750   34.4650   39.8460 H   0  0  0  0  0  0  0  0  0  0  0  0
   38.5210   34.1910   41.5080 H   0  0  0  0  0  0  0  0  0  0  0  0
   36.7070   34.2090   39.7040 H   0  0  0  0  0  0  0  0  0  0  0  0
   36.9190   31.3040   40.0330 H   0  0  0  0  0  0  0  0  0  0  0  0
   36.2080   32.3150   38.7270 H   0  0  0  0  0  0  0  0  0  0  0  0
   38.1510   30.9460   38.0580 H   0  0  0  0  0  0  0  0  0  0  0  0
   38.3480   32.6820   37.7030 H   0  0  0  0  0  0  0  0  0  0  0  0
   40.5230   28.5310   42.2730 C   0  0  0  0  0  0  0  0  0  0  0  0
   40.8780   29.2430   42.9990 H   0  0  0  0  0  0  0  0  0  0  0  0
   40.9880   27.5480   42.5560 H   0  0  0  0  0  0  0  0  0  0  0  0
   37.0640   27.8820   43.5810 C   0  0  0  0  0  0  0  0  0  0  0  0
   38.4540   28.1580   43.5490 C   0  0  0  0  0  0  0  0  0  0  0  0
   39.0530   28.2430   42.3260 C   0  0  0  0  0  0  0  0  0  0  0  0
   38.3150   28.0640   41.2010 N   0  0  0  0  0  0  0  0  0  0  0  0
   37.0260   27.8070   41.2320 C   0  0  0  0  0  0  0  0  0  0  0  0
   36.3860   27.7130   42.4060 N   0  0  0  0  0  0  0  0  0  0  0  0
   36.5350   27.8040   44.5210 H   0  0  0  0  0  0  0  0  0  0  0  0
   38.9440   28.2830   44.5020 H   0  0  0  0  0  0  0  0  0  0  0  0
   36.4170   26.4600   39.2590 C   0  0  0  0  0  3  0  0  0  0  0  0
   36.2840   27.6240   39.9860 C   0  0  0  0  0  0  0  0  0  0  0  0
   35.4300   28.5830   39.4820 C   0  0  0  0  0  0  0  0  0  0  0  0
   35.3320   29.4920   40.0600 H   0  0  0  0  0  0  0  0  0  0  0  0
   34.7610   28.3440   38.3010 C   0  0  0  0  0  0  0  0  0  0  0  0
   34.9040   27.1690   37.5800 C   0  0  0  0  0  0  0  0  0  0  0  0
   35.7500   26.2090   38.0720 C   0  0  0  0  0  3  0  0  0  0  0  0
   34.0830   27.2930   36.4630 O   0  0  0  0  0  0  0  0  0  0  0  0
   33.1910   28.3850   36.6510 C   0  0  0  0  0  3  0  0  0  0  0  0
   32.2330   28.0690   37.0970 H   0  0  0  0  0  0  0  0  0  0  0  0
   33.8590   29.1730   37.6270 O   0  0  0  0  0  0  0  0  0  0  0  0
  1 26  1  0  0  0  0
  2  1  1  0  0  0  0
  3  1  1  0  0  0  0
  4  1  1  0  0  0  0
  4  7  1  1  0  0  0
  5  8  1  0  0  0  0
  5  4  1  0  0  0  0
  6 10  1  6  0  0  0
  6 11  1  0  0  0  0
  6  5  1  0  0  0  0
  6  4  1  0  0  0  0
  9  5  1  0  0  0  0
 11 12  1  0  0  0  0
 12 17  1  0  0  0  0
 12 18  1  0  0  0  0
 13 12  1  0  0  0  0
 13 20  1  0  0  0  0
 14 13  1  0  0  0  0
 15 22  1  0  0  0  0
 15 14  1  0  0  0  0
 16 11  1  0  0  0  0
 16 15  1  0  0  0  0
 19 13  1  0  0  0  0
 21 14  1  0  0  0  0
 23 15  1  0  0  0  0
 24 16  1  0  0  0  0
 25 16  1  0  0  0  0
 26 31  1  0  0  0  0
 26 28  1  0  0  0  0
 26 27  1  0  0  0  0
 29 35  1  0  0  0  0
 30 29  1  0  0  0  0
 30 36  1  0  0  0  0
 31 30  2  0  0  0  0
 32 33  2  0  0  0  0
 32 31  1  0  0  0  0
 33 34  1  0  0  0  0
 34 29  2  0  0  0  0
 37 38  1  0  0  0  0
 38 33  1  0  0  0  0
 39 38  2  0  0  0  0
 39 40  1  0  0  0  0
 41 39  1  0  0  0  0
 42 43  1  0  0  0  0
 42 41  2  0  0  0  0
 43 37  2  0  0  0  0
 44 45  1  0  0  0  0
 44 42  1  0  0  0  0
 45 46  1  0  0  0  0
 45 47  1  0  0  0  0
 47 41  1  0  0  0  0
M  END
>  <minimizedAffinity>
-5.4613843

$$$$

 OpenBabel03252502493D

 47 51  0  0  1  0  0  0  0  0999 V2000
   36.2690   29.4140   39.2670 C   0  0  0  0  0  0  0  0  0  0  0  0
   36.4770   28.3240   39.1100 H   0  0  0  0  0  0  0  0  0  0  0  0
   35.3860   29.6310   38.6440 H   0  0  0  0  0  0  0  0  0  0  0  0
   37.4030   30.2920   38.8390 C   0  0  1  0  0  0  0  0  0  0  0  0
   37.3250   30.9100   37.4750 C   0  0  0  0  0  0  0  0  0  0  0  0
   37.1360   31.7190   38.7140 C   0  0  2  0  0  0  0  0  0  0  0  0
   38.3750   29.9110   39.1360 H   0  0  0  0  0  0  0  0  0  0  0  0
   38.2680   30.9710   36.8900 H   0  0  0  0  0  0  0  0  0  0  0  0
   36.4560   30.6920   36.8110 H   0  0  0  0  0  0  0  0  0  0  0  0
   36.1640   32.1940   38.7760 H   0  0  0  0  0  0  0  0  0  0  0  0
   38.2900   32.5550   39.0210 N   0  0  0  0  0  0  0  0  0  0  0  0
   39.4970   31.8360   39.1970 C   0  0  0  0  0  0  0  0  0  0  0  0
   40.5570   32.8720   39.5190 C   0  0  0  0  0  0  0  0  0  0  0  0
   40.2800   33.5720   40.7190 N   0  0  0  0  0  0  0  0  0  0  0  0
   38.8690   33.6460   41.0550 C   0  0  0  0  0  0  0  0  0  0  0  0
   38.0430   33.7120   39.7660 C   0  0  0  0  0  0  0  0  0  0  0  0
   39.7920   31.4120   38.2080 H   0  0  0  0  0  0  0  0  0  0  0  0
   39.4730   31.0100   39.9130 H   0  0  0  0  0  0  0  0  0  0  0  0
   40.7330   33.4930   38.6210 H   0  0  0  0  0  0  0  0  0  0  0  0
   41.4920   32.2890   39.6780 H   0  0  0  0  0  0  0  0  0  0  0  0
   40.7650   34.4730   40.7950 H   0  0  0  0  0  0  0  0  0  0  0  0
   38.5170   32.8070   41.6700 H   0  0  0  0  0  0  0  0  0  0  0  0
   38.7330   34.5910   41.6030 H   0  0  0  0  0  0  0  0  0  0  0  0
   36.9730   33.6880   40.1250 H   0  0  0  0  0  0  0  0  0  0  0  0
   38.1850   34.6740   39.2660 H   0  0  0  0  0  0  0  0  0  0  0  0
   35.9850   29.7460   40.7090 C   0  0  0  0  0  0  0  0  0  0  0  0
   34.9560   29.7080   41.0260 H   0  0  0  0  0  0  0  0  0  0  0  0
   36.3130   30.8100   40.8560 H   0  0  0  0  0  0  0  0  0  0  0  0
   37.4420   27.0680   42.9000 C   0  0  0  0  0  0  0  0  0  0  0  0
   36.5240   27.7870   42.0960 C   0  0  0  0  0  0  0  0  0  0  0  0
   36.9440   28.9690   41.5600 C   0  0  0  0  0  0  0  0  0  0  0  0
   38.2030   29.4110   41.8090 N   0  0  0  0  0  0  0  0  0  0  0  0
   39.0540   28.7440   42.5560 C   0  0  0  0  0  0  0  0  0  0  0  0
   38.6940   27.5760   43.1080 N   0  0  0  0  0  0  0  0  0  0  0  0
   37.1650   26.1250   43.3510 H   0  0  0  0  0  0  0  0  0  0  0  0
   35.5480   27.3450   41.9620 H   0  0  0  0  0  0  0  0  0  0  0  0
   41.3870   28.4600   43.3010 C   0  0  0  0  0  3  0  0  0  0  0  0
   40.3970   29.2710   42.7890 C   0  0  0  0  0  0  0  0  0  0  0  0
   40.7400   30.5790   42.5160 C   0  0  0  0  0  0  0  0  0  0  0  0
   39.9560   31.2080   42.1140 H   0  0  0  0  0  0  0  0  0  0  0  0
   42.0260   31.0100   42.7590 C   0  0  0  0  0  0  0  0  0  0  0  0
   43.0110   30.1830   43.2740 C   0  0  0  0  0  0  0  0  0  0  0  0
   42.6820   28.8810   43.5490 C   0  0  0  0  0  3  0  0  0  0  0  0
   44.1600   30.9610   43.3790 O   0  0  0  0  0  0  0  0  0  0  0  0
   43.9870   32.1620   42.6360 C   0  0  0  0  0  3  0  0  0  0  0  0
   44.3610   32.0700   41.6030 H   0  0  0  0  0  0  0  0  0  0  0  0
   42.5730   32.2800   42.5530 O   0  0  0  0  0  0  0  0  0  0  0  0
  1 26  1  0  0  0  0
  2  1  1  0  0  0  0
  3  1  1  0  0  0  0
  4  7  1  1  0  0  0
  4  1  1  0  0  0  0
  5  6  1  0  0  0  0
  5  4  1  0  0  0  0
  6 10  1  1  0  0  0
  6  4  1  0  0  0  0
  6 11  1  0  0  0  0
  8  5  1  0  0  0  0
  9  5  1  0  0  0  0
 11 12  1  0  0  0  0
 11 16  1  0  0  0  0
 12 13  1  0  0  0  0
 12 18  1  0  0  0  0
 13 20  1  0  0  0  0
 13 14  1  0  0  0  0
 14 21  1  0  0  0  0
 14 15  1  0  0  0  0
 15 23  1  0  0  0  0
 15 22  1  0  0  0  0
 16 24  1  0  0  0  0
 16 15  1  0  0  0  0
 17 12  1  0  0  0  0
 19 13  1  0  0  0  0
 25 16  1  0  0  0  0
 26 28  1  0  0  0  0
 26 27  1  0  0  0  0
 26 31  1  0  0  0  0
 29 34  1  0  0  0  0
 29 35  1  0  0  0  0
 30 29  2  0  0  0  0
 31 32  2  0  0  0  0
 31 30  1  0  0  0  0
 32 33  1  0  0  0  0
 33 38  1  0  0  0  0
 33 34  2  0  0  0  0
 36 30  1  0  0  0  0
 37 43  1  0  0  0  0
 38 37  2  0  0  0  0
 39 41  2  0  0  0  0
 39 38  1  0  0  0  0
 40 39  1  0  0  0  0
 41 42  1  0  0  0  0
 42 44  1  0  0  0  0
 42 43  2  0  0  0  0
 45 44  1  0  0  0  0
 46 45  1  0  0  0  0
 47 45  1  0  0  0  0
 47 41  1  0  0  0  0
M  END
>  <minimizedAffinity>
-5.44409561

$$$$
