
 OpenBabel03252500313D

 45 49  0  0  1  0  0  0  0  0999 V2000
   45.9780   31.8280   46.8810 N   0  0  0  0  0  0  0  0  0  0  0  0
   46.6270   32.6270   47.8660 C   0  0  0  0  0  0  0  0  0  0  0  0
   47.9570   32.0170   48.2860 C   0  0  0  0  0  0  0  0  0  0  0  0
   47.6260   30.7140   48.9800 C   0  0  0  0  0  0  0  0  0  0  0  0
   46.9700   29.8380   47.9180 C   0  0  0  0  0  0  0  0  0  0  0  0
   45.7670   30.5250   47.2940 C   0  0  2  0  0  0  0  0  0  0  0  0
   45.9750   32.4680   48.7840 H   0  0  0  0  0  0  0  0  0  0  0  0
   46.6140   33.6970   47.7570 H   0  0  0  0  0  0  0  0  0  0  0  0
   48.5500   31.7960   47.3770 H   0  0  0  0  0  0  0  0  0  0  0  0
   48.4770   32.7310   48.9580 H   0  0  0  0  0  0  0  0  0  0  0  0
   48.5690   30.2290   49.2660 H   0  0  0  0  0  0  0  0  0  0  0  0
   46.9400   30.8840   49.8220 H   0  0  0  0  0  0  0  0  0  0  0  0
   47.7200   29.5550   47.1690 H   0  0  0  0  0  0  0  0  0  0  0  0
   46.6350   28.9220   48.4460 H   0  0  0  0  0  0  0  0  0  0  0  0
   45.0990   30.6390   48.2190 H   0  0  0  0  0  0  0  0  0  0  0  0
   44.3870   28.4280   46.7940 C   0  0  0  0  0  3  0  0  0  0  0  0
   45.0780   29.5670   46.4470 C   0  0  0  0  0  0  0  0  0  0  0  0
   45.0630   29.7200   45.0490 C   0  0  0  0  0  0  0  0  0  0  0  0
   45.5730   30.5860   44.5960 H   0  0  0  0  0  0  0  0  0  0  0  0
   44.4690   28.8930   44.1460 C   0  0  0  0  0  0  0  0  0  0  0  0
   43.8080   27.7890   44.6020 C   0  0  0  0  0  0  0  0  0  0  0  0
   43.7580   27.5390   45.9530 C   0  0  0  0  0  3  0  0  0  0  0  0
   43.2900   27.1050   43.5240 O   0  0  0  0  0  0  0  0  0  0  0  0
   43.2900   27.9760   42.4050 C   0  0  0  0  0  3  0  0  0  0  0  0
   42.3370   28.4970   42.2440 H   0  0  0  0  0  0  0  0  0  0  0  0
   44.3480   28.8780   42.7640 O   0  0  0  0  0  0  0  0  0  0  0  0
   46.2210   32.1910   45.5390 C   0  0  0  0  0  0  0  0  0  0  0  0
   47.2390   31.8140   45.2150 H   0  0  0  0  0  0  0  0  0  0  0  0
   45.5030   31.7850   44.8050 H   0  0  0  0  0  0  0  0  0  0  0  0
   46.0460   34.3660   44.1090 C   0  0  1  0  0  0  0  0  0  0  0  0
   45.0810   34.4600   45.1410 C   0  0  0  0  0  0  0  0  0  0  0  0
   46.2940   33.6750   45.4660 C   0  0  1  0  0  0  0  0  0  0  0  0
   46.7070   35.2440   43.8790 H   0  0  0  0  0  0  0  0  0  0  0  0
   44.1390   33.8580   45.0560 H   0  0  0  0  0  0  0  0  0  0  0  0
   44.8570   35.4270   45.6580 H   0  0  0  0  0  0  0  0  0  0  0  0
   47.1900   34.1050   45.9380 H   0  0  0  0  0  0  0  0  0  0  0  0
   44.6600   32.9810   42.5700 C   0  0  0  0  0  0  0  0  0  0  0  0
   45.9450   33.4880   42.9150 C   0  0  0  0  0  0  0  0  0  0  0  0
   47.0120   33.1370   42.1290 C   0  0  0  0  0  0  0  0  0  0  0  0
   46.7700   32.3170   41.0580 N   0  0  0  0  0  0  0  0  0  0  0  0
   45.5480   31.8480   40.7470 C   0  0  0  0  0  0  0  0  0  0  0  0
   44.4570   32.1740   41.5040 N   0  0  0  0  0  0  0  0  0  0  0  0
   43.8210   33.2510   43.1790 H   0  0  0  0  0  0  0  0  0  0  0  0
   47.9720   33.5150   42.3860 H   0  0  0  0  0  0  0  0  0  0  0  0
   45.4150   31.2000   39.8840 H   0  0  0  0  0  0  0  0  0  0  0  0
  1  6  1  0  0  0  0
  1  2  1  0  0  0  0
  2  3  1  0  0  0  0
  2  7  1  0  0  0  0
  3 10  1  0  0  0  0
  3  4  1  0  0  0  0
  4 11  1  0  0  0  0
  4 12  1  0  0  0  0
  5 14  1  0  0  0  0
  5  4  1  0  0  0  0
  6  5  1  0  0  0  0
  6 15  1  1  0  0  0
  8  2  1  0  0  0  0
  9  3  1  0  0  0  0
 13  5  1  0  0  0  0
 17 16  1  0  0  0  0
 17  6  1  0  0  0  0
 18 17  2  0  0  0  0
 19 18  1  0  0  0  0
 20 21  2  0  0  0  0
 20 18  1  0  0  0  0
 21 22  1  0  0  0  0
 22 16  2  0  0  0  0
 23 21  1  0  0  0  0
 24 26  1  0  0  0  0
 24 23  1  0  0  0  0
 25 24  1  0  0  0  0
 26 20  1  0  0  0  0
 27  1  1  0  0  0  0
 28 27  1  0  0  0  0
 29 27  1  0  0  0  0
 30 33  1  6  0  0  0
 30 31  1  0  0  0  0
 30 32  1  0  0  0  0
 31 32  1  0  0  0  0
 31 35  1  0  0  0  0
 32 27  1  0  0  0  0
 32 36  1  1  0  0  0
 34 31  1  0  0  0  0
 37 38  1  0  0  0  0
 37 43  1  0  0  0  0
 38 30  1  0  0  0  0
 39 44  1  0  0  0  0
 39 38  2  0  0  0  0
 40 39  1  0  0  0  0
 41 40  2  0  0  0  0
 41 42  1  0  0  0  0
 42 37  2  0  0  0  0
 45 41  1  0  0  0  0
M  END
>  <minimizedAffinity>
-4.2630806

>  <minimizedRMSD>
0.279144943

$$$$
