
 OpenBabel03242520403D

 41 45  0  0  1  0  0  0  0  0999 V2000
   45.8750   33.4770   45.8110 C   0  0  0  0  0  0  0  0  0  0  0  0
   46.6830   33.6270   44.6530 C   0  0  0  0  0  0  0  0  0  0  0  0
   47.3500   32.4700   44.1500 C   0  0  0  0  0  0  0  0  0  0  0  0
   47.1840   31.2760   44.7960 N   0  0  0  0  0  0  0  0  0  0  0  0
   46.3980   31.1960   45.8980 C   0  0  0  0  0  0  0  0  0  0  0  0
   45.7570   32.2840   46.3930 N   0  0  0  0  0  0  0  0  0  0  0  0
   46.2840   29.9380   46.4990 N   0  0  0  0  0  0  0  0  0  0  0  0
   47.4370   29.2560   46.9890 C   0  0  2  0  0  0  0  0  0  0  0  0
   47.2170   27.8300   47.3550 C   0  0  0  0  0  0  0  0  0  0  0  0
   45.9280   27.4760   47.8120 N   0  0  0  0  0  0  0  0  0  0  0  0
   45.0220   28.5640   47.9360 C   0  0  0  0  0  0  0  0  0  0  0  0
   44.9860   29.3140   46.6300 C   0  0  0  0  0  0  0  0  0  0  0  0
   45.4090   34.3860   46.1270 H   0  0  0  0  0  0  0  0  0  0  0  0
   46.8620   34.5160   44.0940 H   0  0  0  0  0  0  0  0  0  0  0  0
   47.9760   32.5330   43.2700 H   0  0  0  0  0  0  0  0  0  0  0  0
   48.1490   29.2000   46.1070 H   0  0  0  0  0  0  0  0  0  0  0  0
   47.9450   27.5940   48.1820 H   0  0  0  0  0  0  0  0  0  0  0  0
   47.4890   27.1220   46.5450 H   0  0  0  0  0  0  0  0  0  0  0  0
   45.9020   26.7720   48.5790 H   0  0  0  0  0  0  0  0  0  0  0  0
   43.9940   28.1040   48.0540 H   0  0  0  0  0  0  0  0  0  0  0  0
   45.1610   29.2030   48.8080 H   0  0  0  0  0  0  0  0  0  0  0  0
   44.9180   28.5650   45.8330 H   0  0  0  0  0  0  0  0  0  0  0  0
   44.1780   30.0750   46.5820 H   0  0  0  0  0  0  0  0  0  0  0  0
   48.1310   30.0310   48.0510 C   0  0  0  0  0  0  0  0  0  0  0  0
   47.6880   30.9230   48.9960 C   0  0  0  0  0  0  0  0  0  0  0  0
   48.6850   31.3730   49.7640 N   0  0  0  0  0  0  0  0  0  0  0  0
   49.7790   30.7680   49.3140 C   0  0  0  0  0  0  0  0  0  0  0  0
   49.4520   29.9640   48.2880 N   0  0  0  0  0  0  0  0  0  0  0  0
   46.6570   31.2260   49.1020 H   0  0  0  0  0  0  0  0  0  0  0  0
   48.6530   32.0510   50.5550 H   0  0  0  0  0  0  0  0  0  0  0  0
   51.8880   29.8460   50.3600 C   0  0  0  0  0  3  0  0  0  0  0  0
   51.1740   30.8660   49.7660 C   0  0  0  0  0  0  0  0  0  0  0  0
   51.8120   32.0760   49.5780 C   0  0  0  0  0  0  0  0  0  0  0  0
   51.2850   32.8970   49.1160 H   0  0  0  0  0  0  0  0  0  0  0  0
   53.1230   32.2870   49.9620 C   0  0  0  0  0  0  0  0  0  0  0  0
   53.8450   31.2580   50.5620 C   0  0  0  0  0  0  0  0  0  0  0  0
   53.1970   30.0530   50.7450 C   0  0  0  0  0  3  0  0  0  0  0  0
   55.1390   31.7200   50.8560 O   0  0  0  0  0  0  0  0  0  0  0  0
   54.9790   33.1450   50.9100 C   0  0  0  0  0  3  0  0  0  0  0  0
   55.9570   33.5790   50.7070 H   0  0  0  0  0  0  0  0  0  0  0  0
   54.0080   33.3660   49.9040 O   0  0  0  0  0  0  0  0  0  0  0  0
  1 13  1  0  0  0  0
  1  6  1  0  0  0  0
  2  1  2  0  0  0  0
  3  2  1  0  0  0  0
  3  4  2  0  0  0  0
  4  5  1  0  0  0  0
  5  6  2  0  0  0  0
  5  7  1  0  0  0  0
  7 12  1  0  0  0  0
  7  8  1  0  0  0  0
  8 16  1  6  0  0  0
  8  9  1  0  0  0  0
  8 24  1  0  0  0  0
  9 10  1  0  0  0  0
  9 17  1  0  0  0  0
 10 11  1  0  0  0  0
 10 19  1  0  0  0  0
 11 20  1  0  0  0  0
 11 21  1  0  0  0  0
 12 11  1  0  0  0  0
 14  2  1  0  0  0  0
 15  3  1  0  0  0  0
 18  9  1  0  0  0  0
 22 12  1  0  0  0  0
 23 12  1  0  0  0  0
 24 28  1  0  0  0  0
 24 25  2  0  0  0  0
 25 29  1  0  0  0  0
 25 26  1  0  0  0  0
 26 30  1  0  0  0  0
 27 26  1  0  0  0  0
 27 32  1  0  0  0  0
 28 27  2  0  0  0  0
 31 37  1  0  0  0  0
 32 31  2  0  0  0  0
 33 32  1  0  0  0  0
 33 35  2  0  0  0  0
 34 33  1  0  0  0  0
 35 36  1  0  0  0  0
 36 37  2  0  0  0  0
 36 38  1  0  0  0  0
 38 39  1  0  0  0  0
 40 39  1  0  0  0  0
 41 35  1  0  0  0  0
 41 39  1  0  0  0  0
M  END
>  <minimizedAffinity>
-5.33383608

>  <minimizedRMSD>
0.870582521

$$$$
