
 OpenBabel03242523063D

 47 52  0  0  1  0  0  0  0  0999 V2000
   46.5830   32.2060   45.7120 C   0  0  0  0  0  0  0  0  0  0  0  0
   46.6890   32.7890   44.4280 C   0  0  0  0  0  0  0  0  0  0  0  0
   47.5080   32.0240   43.6180 C   0  0  0  0  0  0  0  0  0  0  0  0
   48.1440   30.8740   43.9620 C   0  0  0  0  0  0  0  0  0  0  0  0
   47.9910   30.3790   45.2390 C   0  0  0  0  0  0  0  0  0  0  0  0
   47.2020   31.0440   46.1310 C   0  0  0  0  0  0  0  0  0  0  0  0
   48.7590   29.2360   45.2700 O   0  0  0  0  0  0  0  0  0  0  0  0
   49.3100   28.9750   44.0030 C   0  0  2  0  0  0  0  0  0  0  0  0
   48.9650   30.0830   43.1710 O   0  0  0  0  0  0  0  0  0  0  0  0
   46.0040   32.5430   46.5960 H   0  0  0  0  0  0  0  0  0  0  0  0
   47.5930   32.4530   42.6730 H   0  0  0  0  0  0  0  0  0  0  0  0
   47.1460   30.5810   47.0860 H   0  0  0  0  0  0  0  0  0  0  0  0
   50.4130   28.8660   44.0320 H   0  0  0  0  0  0  0  0  0  0  0  0
   48.5410   27.3870   42.1750 C   0  0  0  0  0  0  0  0  0  0  0  0
   48.7460   27.6950   43.5130 C   0  0  0  0  0  0  0  0  0  0  0  0
   48.4130   26.7690   44.4990 C   0  0  0  0  0  0  0  0  0  0  0  0
   48.5640   26.9880   45.5660 H   0  0  0  0  0  0  0  0  0  0  0  0
   47.8790   25.5510   44.0940 C   0  0  0  0  0  0  0  0  0  0  0  0
   47.6730   25.2360   42.7700 C   0  0  0  0  0  0  0  0  0  0  0  0
   48.0090   26.1670   41.8090 C   0  0  0  0  0  0  0  0  0  0  0  0
   47.1340   23.9490   42.7900 O   0  0  0  0  0  0  0  0  0  0  0  0
   47.5060   23.3490   44.0260 C   0  0  0  0  0  0  0  0  0  0  0  0
   48.5460   22.9780   44.0210 H   0  0  0  0  0  0  0  0  0  0  0  0
   47.4750   24.4800   44.8970 O   0  0  0  0  0  0  0  0  0  0  0  0
   45.0970   36.0430   43.5030 C   0  0  0  0  0  0  0  0  0  0  0  0
   45.8870   34.9170   43.2960 C   0  0  0  0  0  0  0  0  0  0  0  0
   45.9960   34.0090   44.3120 C   0  0  0  0  0  0  0  0  0  0  0  0
   45.3300   34.2480   45.4830 N   0  0  0  0  0  0  0  0  0  0  0  0
   44.5710   35.3440   45.6600 C   0  0  0  0  0  0  0  0  0  0  0  0
   44.4590   36.2230   44.6840 N   0  0  0  0  0  0  0  0  0  0  0  0
   44.9980   36.7680   42.7120 H   0  0  0  0  0  0  0  0  0  0  0  0
   44.0170   35.6020   46.5510 H   0  0  0  0  0  0  0  0  0  0  0  0
   46.5480   34.7950   42.0720 N   0  0  0  0  0  0  0  0  0  0  0  0
   47.8760   35.2400   41.8730 C   0  0  0  0  0  0  0  0  0  0  0  0
   48.4790   34.8860   40.5440 C   0  0  0  0  0  0  0  0  0  0  0  0
   48.1600   33.6080   40.0490 N   0  0  0  0  0  0  0  0  0  0  0  0
   46.8410   33.1710   40.2490 C   0  0  0  0  0  0  0  0  0  0  0  0
   45.9750   34.2320   40.8990 C   0  0  0  0  0  0  0  0  0  0  0  0
   48.6050   34.9330   42.6640 H   0  0  0  0  0  0  0  0  0  0  0  0
   47.8820   36.3500   41.9270 H   0  0  0  0  0  0  0  0  0  0  0  0
   48.1860   35.6590   39.7950 H   0  0  0  0  0  0  0  0  0  0  0  0
   49.5970   34.9820   40.6310 H   0  0  0  0  0  0  0  0  0  0  0  0
   48.4870   33.5060   39.0830 H   0  0  0  0  0  0  0  0  0  0  0  0
   46.3750   33.0070   39.2300 H   0  0  0  0  0  0  0  0  0  0  0  0
   46.7270   32.1890   40.7480 H   0  0  0  0  0  0  0  0  0  0  0  0
   44.9510   33.8550   41.0240 H   0  0  0  0  0  0  0  0  0  0  0  0
   45.9380   35.0650   40.1380 H   0  0  0  0  0  0  0  0  0  0  0  0
  1  6  1  0  0  0  0
  1 10  1  0  0  0  0
  2  1  2  0  0  0  0
  3  4  2  0  0  0  0
  3  2  1  0  0  0  0
  4  5  1  0  0  0  0
  5  7  1  0  0  0  0
  5  6  2  0  0  0  0
  6 12  1  0  0  0  0
  8 13  1  1  0  0  0
  8  7  1  0  0  0  0
  9  4  1  0  0  0  0
  9  8  1  0  0  0  0
 11  3  1  0  0  0  0
 14 15  1  0  0  0  0
 15  8  1  0  0  0  0
 15 16  2  0  0  0  0
 16 17  1  0  0  0  0
 18 16  1  0  0  0  0
 18 24  1  0  0  0  0
 19 21  1  0  0  0  0
 19 18  2  0  0  0  0
 20 14  2  0  0  0  0
 20 19  1  0  0  0  0
 21 22  1  0  0  0  0
 22 24  1  0  0  0  0
 23 22  1  0  0  0  0
 25 30  1  0  0  0  0
 26 25  2  0  0  0  0
 26 27  1  0  0  0  0
 27  2  1  0  0  0  0
 27 28  2  0  0  0  0
 28 29  1  0  0  0  0
 29 32  1  0  0  0  0
 30 29  2  0  0  0  0
 31 25  1  0  0  0  0
 33 26  1  0  0  0  0
 34 40  1  0  0  0  0
 34 33  1  0  0  0  0
 34 39  1  0  0  0  0
 35 42  1  0  0  0  0
 35 34  1  0  0  0  0
 36 37  1  0  0  0  0
 36 35  1  0  0  0  0
 37 45  1  0  0  0  0
 37 38  1  0  0  0  0
 38 46  1  0  0  0  0
 38 33  1  0  0  0  0
 41 35  1  0  0  0  0
 43 36  1  0  0  0  0
 44 37  1  0  0  0  0
 47 38  1  0  0  0  0
M  END
>  <minimizedAffinity>
-4.92586136

>  <minimizedRMSD>
1.01145697

$$$$
