
 OpenBabel03252506413D

 42 46  0  0  1  0  0  0  0  0999 V2000
   49.6390   33.4220   41.4700 N   0  0  1  0  0  0  0  0  0  0  0  0
   50.7340   32.9780   42.3000 C   0  0  0  0  0  0  0  0  0  0  0  0
   51.2780   31.6440   41.8540 C   0  0  0  0  0  0  0  0  0  0  0  0
   50.2410   30.6050   42.1930 C   0  0  0  0  0  0  0  0  0  0  0  0
   48.8620   31.1130   41.8420 C   0  0  0  0  0  0  0  0  0  0  0  0
   48.9370   32.2790   40.9120 C   0  0  2  0  0  0  0  0  0  0  0  0
   51.5260   33.7490   42.4120 H   0  0  0  0  0  0  0  0  0  0  0  0
   50.3320   32.8050   43.3290 H   0  0  0  0  0  0  0  0  0  0  0  0
   51.5370   31.6720   40.7960 H   0  0  0  0  0  0  0  0  0  0  0  0
   52.2250   31.4970   42.4140 H   0  0  0  0  0  0  0  0  0  0  0  0
   50.3030   30.2750   43.2500 H   0  0  0  0  0  0  0  0  0  0  0  0
   50.4390   29.7050   41.5890 H   0  0  0  0  0  0  0  0  0  0  0  0
   48.2390   30.3410   41.3550 H   0  0  0  0  0  0  0  0  0  0  0  0
   48.3910   31.4750   42.7710 H   0  0  0  0  0  0  0  0  0  0  0  0
   47.8650   32.6520   40.8500 H   0  0  0  0  0  0  0  0  0  0  0  0
   48.1920   32.0480   38.7000 C   0  0  0  0  0  3  0  0  0  0  0  0
   49.3200   31.9900   39.5300 C   0  0  0  0  0  0  0  0  0  0  0  0
   50.5120   31.6850   38.9480 C   0  0  0  0  0  0  0  0  0  0  0  0
   51.3240   31.6540   39.6430 H   0  0  0  0  0  0  0  0  0  0  0  0
   50.6060   31.4440   37.5950 C   0  0  0  0  0  0  0  0  0  0  0  0
   49.5320   31.4880   36.7330 C   0  0  0  0  0  0  0  0  0  0  0  0
   48.3140   31.7990   37.3280 C   0  0  0  0  0  3  0  0  0  0  0  0
   49.9340   31.2020   35.4360 O   0  0  0  0  0  0  0  0  0  0  0  0
   51.2150   30.6280   35.5370 C   0  0  0  0  0  3  0  0  0  0  0  0
   51.8590   31.0660   34.7560 H   0  0  0  0  0  0  0  0  0  0  0  0
   51.6880   31.1210   36.7880 O   0  0  0  0  0  0  0  0  0  0  0  0
   47.3880   34.6230   41.9010 C   0  0  1  0  0  0  0  0  0  0  0  0
   48.4440   35.5700   41.6070 C   0  0  0  0  0  0  0  0  0  0  0  0
   48.8270   34.2830   42.2690 C   0  0  2  0  0  0  0  0  0  0  0  0
   46.9920   33.8910   41.1610 H   0  0  0  0  0  0  0  0  0  0  0  0
   48.6820   35.7000   40.5100 H   0  0  0  0  0  0  0  0  0  0  0  0
   48.5170   36.5280   42.1360 H   0  0  0  0  0  0  0  0  0  0  0  0
   49.0490   34.3730   43.3550 H   0  0  0  0  0  0  0  0  0  0  0  0
   45.6100   36.0000   43.0580 C   0  0  0  0  0  0  0  0  0  0  0  0
   46.4310   34.8440   43.0230 C   0  0  0  0  0  0  0  0  0  0  0  0
   46.3130   33.9390   44.0600 C   0  0  0  0  0  0  0  0  0  0  0  0
   45.4140   34.2210   45.0450 N   0  0  0  0  0  0  0  0  0  0  0  0
   44.6450   35.3250   45.0570 C   0  0  0  0  0  0  0  0  0  0  0  0
   44.7350   36.2300   44.0610 N   0  0  0  0  0  0  0  0  0  0  0  0
   45.6750   36.7330   42.2620 H   0  0  0  0  0  0  0  0  0  0  0  0
   46.9060   33.0430   44.0910 H   0  0  0  0  0  0  0  0  0  0  0  0
   43.9790   35.3970   45.9180 H   0  0  0  0  0  0  0  0  0  0  0  0
  1 29  1  0  0  0  0
  1  2  1  1  0  0  0
  2  7  1  0  0  0  0
  2  8  1  0  0  0  0
  3  4  1  0  0  0  0
  3  2  1  0  0  0  0
  3 10  1  0  0  0  0
  4 11  1  0  0  0  0
  5  4  1  0  0  0  0
  5 14  1  0  0  0  0
  6 15  1  6  0  0  0
  6  1  1  0  0  0  0
  6  5  1  0  0  0  0
  9  3  1  0  0  0  0
 12  4  1  0  0  0  0
 13  5  1  0  0  0  0
 16 17  1  0  0  0  0
 17  6  1  0  0  0  0
 18 17  2  0  0  0  0
 18 19  1  0  0  0  0
 20 18  1  0  0  0  0
 21 22  1  0  0  0  0
 21 20  2  0  0  0  0
 22 16  2  0  0  0  0
 23 24  1  0  0  0  0
 23 21  1  0  0  0  0
 24 26  1  0  0  0  0
 25 24  1  0  0  0  0
 26 20  1  0  0  0  0
 27 30  1  6  0  0  0
 27 29  1  0  0  0  0
 27 35  1  0  0  0  0
 28 27  1  0  0  0  0
 28 32  1  0  0  0  0
 28 29  1  0  0  0  0
 29 33  1  1  0  0  0
 31 28  1  0  0  0  0
 34 39  1  0  0  0  0
 35 34  2  0  0  0  0
 35 36  1  0  0  0  0
 36 41  1  0  0  0  0
 36 37  2  0  0  0  0
 37 38  1  0  0  0  0
 38 42  1  0  0  0  0
 39 38  2  0  0  0  0
 40 34  1  0  0  0  0
M  END
>  <minimizedAffinity>
-5.57713604

>  <minimizedRMSD>
1.07280111

$$$$
