
 OpenBabel03252508543D

 45 49  0  0  1  0  0  0  0  0999 V2000
   42.9280   34.2190   40.4890 C   0  0  0  0  0  0  0  0  0  0  0  0
   42.9070   35.2690   39.7630 O   0  0  0  0  0  0  0  0  0  0  0  0
   41.5700   33.7490   40.2890 N   0  0  0  0  0  0  0  0  0  0  0  0
   41.2350   33.4370   38.9150 C   0  0  0  0  0  0  0  0  0  0  0  0
   40.4610   34.6730   38.4070 C   0  0  0  0  0  0  0  0  0  0  0  0
   39.6380   35.1840   39.5990 C   0  0  0  0  0  0  0  0  0  0  0  0
   39.2520   34.0460   40.5190 C   0  0  0  0  0  0  0  0  0  0  0  0
   40.5110   33.5500   41.2530 C   0  0  1  0  0  0  0  0  0  0  0  0
   42.1110   33.3430   38.2510 H   0  0  0  0  0  0  0  0  0  0  0  0
   40.6110   32.5360   38.8010 H   0  0  0  0  0  0  0  0  0  0  0  0
   41.1920   35.4800   38.1760 H   0  0  0  0  0  0  0  0  0  0  0  0
   39.8520   34.4530   37.5300 H   0  0  0  0  0  0  0  0  0  0  0  0
   38.6890   35.5690   39.1710 H   0  0  0  0  0  0  0  0  0  0  0  0
   40.1830   35.9400   40.1880 H   0  0  0  0  0  0  0  0  0  0  0  0
   38.9040   33.2190   39.8500 H   0  0  0  0  0  0  0  0  0  0  0  0
   38.5030   34.4220   41.2130 H   0  0  0  0  0  0  0  0  0  0  0  0
   40.7340   34.1700   42.1270 H   0  0  0  0  0  0  0  0  0  0  0  0
   39.2160   31.3780   41.4180 C   0  0  0  0  0  3  0  0  0  0  0  0
   40.3380   32.1370   41.6690 C   0  0  0  0  0  0  0  0  0  0  0  0
   41.3820   31.5450   42.3610 C   0  0  0  0  0  0  0  0  0  0  0  0
   42.3220   32.0570   42.6160 H   0  0  0  0  0  0  0  0  0  0  0  0
   41.3160   30.2340   42.7910 C   0  0  0  0  0  0  0  0  0  0  0  0
   40.1730   29.4810   42.5270 C   0  0  0  0  0  0  0  0  0  0  0  0
   39.1260   30.0530   41.8410 C   0  0  0  0  0  3  0  0  0  0  0  0
   40.3650   28.1980   43.0680 O   0  0  0  0  0  0  0  0  0  0  0  0
   41.7900   28.0290   43.0900 C   0  0  0  0  0  3  0  0  0  0  0  0
   42.1160   27.2580   43.7880 H   0  0  0  0  0  0  0  0  0  0  0  0
   42.1630   29.3570   43.4910 O   0  0  0  0  0  0  0  0  0  0  0  0
   43.9810   33.7530   41.2110 O   0  0  0  0  0  0  0  0  0  0  0  0
   45.3190   33.9320   40.9590 C   0  0  0  0  0  0  0  0  0  0  0  0
   46.0930   34.5250   41.9550 C   0  0  0  0  0  0  0  0  0  0  0  0
   47.4570   34.6970   41.6730 C   0  0  0  0  0  0  0  0  0  0  0  0
   47.9370   34.2800   40.4580 N   0  0  0  0  0  0  0  0  0  0  0  0
   47.1440   33.7200   39.5460 C   0  0  0  0  0  0  0  0  0  0  0  0
   45.8380   33.5410   39.7840 N   0  0  0  0  0  0  0  0  0  0  0  0
   48.0580   35.1560   42.4420 H   0  0  0  0  0  0  0  0  0  0  0  0
   47.5440   33.3930   38.5850 H   0  0  0  0  0  0  0  0  0  0  0  0
   45.4860   34.9300   43.2040 C   0  0  0  0  0  0  0  0  0  0  0  0
   45.0130   36.2240   43.4270 C   0  0  0  0  0  0  0  0  0  0  0  0
   44.5300   36.1730   44.7090 C   0  0  0  0  0  0  0  0  0  0  0  0
   44.6930   34.9360   45.2390 N   0  0  0  0  0  0  0  0  0  0  0  0
   45.2720   34.2150   44.3040 N   0  0  0  0  0  0  0  0  0  0  0  0
   45.0390   37.0470   42.7270 H   0  0  0  0  0  0  0  0  0  0  0  0
   44.0780   37.0380   45.2020 H   0  0  0  0  0  0  0  0  0  0  0  0
   44.3790   34.7090   46.2180 H   0  0  0  0  0  0  0  0  0  0  0  0
  1 29  1  0  0  0  0
  2  1  2  0  0  0  0
  3  1  1  0  0  0  0
  3  8  1  0  0  0  0
  4  3  1  0  0  0  0
  5  4  1  0  0  0  0
  5  6  1  0  0  0  0
  6 14  1  0  0  0  0
  6  7  1  0  0  0  0
  7 16  1  0  0  0  0
  7  8  1  0  0  0  0
  8 19  1  0  0  0  0
  8 17  1  1  0  0  0
  9  4  1  0  0  0  0
 10  4  1  0  0  0  0
 11  5  1  0  0  0  0
 12  5  1  0  0  0  0
 13  6  1  0  0  0  0
 15  7  1  0  0  0  0
 18 19  2  0  0  0  0
 18 24  1  0  0  0  0
 19 20  1  0  0  0  0
 20 21  1  0  0  0  0
 20 22  2  0  0  0  0
 22 28  1  0  0  0  0
 23 22  1  0  0  0  0
 23 25  1  0  0  0  0
 24 23  2  0  0  0  0
 25 26  1  0  0  0  0
 26 28  1  0  0  0  0
 26 27  1  0  0  0  0
 30 29  1  0  0  0  0
 30 31  1  0  0  0  0
 31 38  1  0  0  0  0
 32 31  2  0  0  0  0
 32 36  1  0  0  0  0
 33 32  1  0  0  0  0
 34 35  1  0  0  0  0
 34 33  2  0  0  0  0
 35 30  2  0  0  0  0
 37 34  1  0  0  0  0
 38 39  1  0  0  0  0
 38 42  2  0  0  0  0
 39 40  2  0  0  0  0
 40 44  1  0  0  0  0
 40 41  1  0  0  0  0
 41 45  1  0  0  0  0
 42 41  1  0  0  0  0
 43 39  1  0  0  0  0
M  END
>  <minimizedAffinity>
-7.01505518

>  <minimizedRMSD>
1.05017316

$$$$
