
 OpenBabel03252508503D

 30 33  0  0  0  0  0  0  0  0999 V2000
   45.9440   34.2130   41.0310 C   0  0  0  0  0  0  0  0  0  0  0  0
   46.5310   34.8080   42.1420 C   0  0  0  0  0  0  0  0  0  0  0  0
   47.8850   35.1410   42.0220 C   0  0  0  0  0  0  0  0  0  0  0  0
   48.5330   34.8660   40.8450 N   0  0  0  0  0  0  0  0  0  0  0  0
   47.9180   34.2950   39.8180 C   0  0  0  0  0  0  0  0  0  0  0  0
   46.6210   33.9610   39.8900 N   0  0  0  0  0  0  0  0  0  0  0  0
   48.3690   35.6040   42.8700 H   0  0  0  0  0  0  0  0  0  0  0  0
   48.4370   34.0840   38.8960 H   0  0  0  0  0  0  0  0  0  0  0  0
   45.7520   35.0520   43.3370 C   0  0  0  0  0  0  0  0  0  0  0  0
   45.0960   36.2350   43.5820 C   0  0  0  0  0  0  0  0  0  0  0  0
   44.5000   36.0280   44.8080 C   0  0  0  0  0  0  0  0  0  0  0  0
   44.7780   34.7900   45.2800 N   0  0  0  0  0  0  0  0  0  0  0  0
   45.5370   34.2200   44.3730 N   0  0  0  0  0  0  0  0  0  0  0  0
   45.0120   37.1490   43.0160 H   0  0  0  0  0  0  0  0  0  0  0  0
   43.8680   36.6960   45.4100 H   0  0  0  0  0  0  0  0  0  0  0  0
   44.5010   34.3020   46.1570 H   0  0  0  0  0  0  0  0  0  0  0  0
   44.6040   33.8690   41.1070 O   0  0  0  0  0  0  0  0  0  0  0  0
   43.5410   34.5730   40.6170 C   0  0  0  0  0  0  0  0  0  0  0  0
   43.3170   35.8310   40.7480 O   0  0  0  0  0  0  0  0  0  0  0  0
   42.4840   32.6240   39.3840 C   0  0  0  0  0  3  0  0  0  0  0  0
   42.4410   33.9420   39.8280 C   0  0  0  0  0  0  0  0  0  0  0  0
   41.2860   34.5890   39.4600 C   0  0  0  0  0  0  0  0  0  0  0  0
   41.1560   35.6240   39.7590 H   0  0  0  0  0  0  0  0  0  0  0  0
   40.2720   34.0230   38.7370 C   0  0  0  0  0  0  0  0  0  0  0  0
   40.4010   32.7120   38.3410 C   0  0  0  0  0  0  0  0  0  0  0  0
   41.5150   31.9760   38.6560 C   0  0  0  0  0  3  0  0  0  0  0  0
   39.2540   32.3970   37.6390 O   0  0  0  0  0  0  0  0  0  0  0  0
   38.3850   33.5170   37.5490 C   0  0  0  0  0  3  0  0  0  0  0  0
   37.4100   33.3490   38.0500 H   0  0  0  0  0  0  0  0  0  0  0  0
   39.0560   34.5170   38.2850 O   0  0  0  0  0  0  0  0  0  0  0  0
  1 17  1  0  0  0  0
  1  2  1  0  0  0  0
  2  9  1  0  0  0  0
  3  2  2  0  0  0  0
  3  7  1  0  0  0  0
  4  3  1  0  0  0  0
  5  6  1  0  0  0  0
  5  4  2  0  0  0  0
  6  1  2  0  0  0  0
  8  5  1  0  0  0  0
  9 10  1  0  0  0  0
  9 13  2  0  0  0  0
 10 11  2  0  0  0  0
 11 12  1  0  0  0  0
 11 15  1  0  0  0  0
 12 16  1  0  0  0  0
 13 12  1  0  0  0  0
 14 10  1  0  0  0  0
 18 19  2  0  0  0  0
 18 17  1  0  0  0  0
 20 21  1  0  0  0  0
 21 18  1  0  0  0  0
 22 23  1  0  0  0  0
 22 21  2  0  0  0  0
 24 22  1  0  0  0  0
 25 26  1  0  0  0  0
 25 24  2  0  0  0  0
 26 20  2  0  0  0  0
 27 25  1  0  0  0  0
 28 27  1  0  0  0  0
 28 29  1  0  0  0  0
 28 30  1  0  0  0  0
 30 24  1  0  0  0  0
M  END
>  <minimizedAffinity>
-5.97206259

>  <minimizedRMSD>
0.955656648

$$$$
