
 OpenBabel03252508503D

 30 33  0  0  0  0  0  0  0  0999 V2000
   46.0740   34.1710   41.0120 C   0  0  0  0  0  0  0  0  0  0  0  0
   46.6040   34.8450   42.1060 C   0  0  0  0  0  0  0  0  0  0  0  0
   47.9260   35.2850   41.9800 C   0  0  0  0  0  0  0  0  0  0  0  0
   48.6020   35.0300   40.8140 N   0  0  0  0  0  0  0  0  0  0  0  0
   48.0420   34.3800   39.8030 C   0  0  0  0  0  0  0  0  0  0  0  0
   46.7760   33.9410   39.8810 N   0  0  0  0  0  0  0  0  0  0  0  0
   48.3660   35.8130   42.8150 H   0  0  0  0  0  0  0  0  0  0  0  0
   48.5820   34.1850   38.8900 H   0  0  0  0  0  0  0  0  0  0  0  0
   45.8010   35.0600   43.2910 C   0  0  0  0  0  0  0  0  0  0  0  0
   45.0500   36.1920   43.4980 C   0  0  0  0  0  0  0  0  0  0  0  0
   44.4650   35.9730   44.7280 C   0  0  0  0  0  0  0  0  0  0  0  0
   44.8390   34.7760   45.2370 N   0  0  0  0  0  0  0  0  0  0  0  0
   45.6470   34.2430   44.3490 N   0  0  0  0  0  0  0  0  0  0  0  0
   44.8960   37.0800   42.9050 H   0  0  0  0  0  0  0  0  0  0  0  0
   43.7780   36.6050   45.3080 H   0  0  0  0  0  0  0  0  0  0  0  0
   44.5970   34.2920   46.1260 H   0  0  0  0  0  0  0  0  0  0  0  0
   44.7680   33.7180   41.0940 O   0  0  0  0  0  0  0  0  0  0  0  0
   43.6830   34.1980   40.4150 C   0  0  0  0  0  0  0  0  0  0  0  0
   43.2620   35.4120   40.3840 O   0  0  0  0  0  0  0  0  0  0  0  0
   41.4110   33.3390   39.6880 C   0  0  0  0  0  3  0  0  0  0  0  0
   42.7970   33.3330   39.5800 C   0  0  0  0  0  0  0  0  0  0  0  0
   43.2520   32.4500   38.6310 C   0  0  0  0  0  0  0  0  0  0  0  0
   44.3230   32.3710   38.4710 H   0  0  0  0  0  0  0  0  0  0  0  0
   42.4520   31.6520   37.8600 C   0  0  0  0  0  0  0  0  0  0  0  0
   41.0890   31.7260   38.0370 C   0  0  0  0  0  0  0  0  0  0  0  0
   40.5320   32.5740   38.9590 C   0  0  0  0  0  3  0  0  0  0  0  0
   40.5280   30.8290   37.1470 O   0  0  0  0  0  0  0  0  0  0  0  0
   41.5310   30.1450   36.4090 C   0  0  0  0  0  3  0  0  0  0  0  0
   41.4770   30.3460   35.3190 H   0  0  0  0  0  0  0  0  0  0  0  0
   42.7330   30.7190   36.8720 O   0  0  0  0  0  0  0  0  0  0  0  0
  1 17  1  0  0  0  0
  1  2  1  0  0  0  0
  2  9  1  0  0  0  0
  3  2  2  0  0  0  0
  3  7  1  0  0  0  0
  4  3  1  0  0  0  0
  5  6  1  0  0  0  0
  5  4  2  0  0  0  0
  6  1  2  0  0  0  0
  8  5  1  0  0  0  0
  9 10  1  0  0  0  0
  9 13  2  0  0  0  0
 10 11  2  0  0  0  0
 11 12  1  0  0  0  0
 11 15  1  0  0  0  0
 12 16  1  0  0  0  0
 13 12  1  0  0  0  0
 14 10  1  0  0  0  0
 18 17  1  0  0  0  0
 19 18  2  0  0  0  0
 21 20  1  0  0  0  0
 21 18  1  0  0  0  0
 22 21  2  0  0  0  0
 23 22  1  0  0  0  0
 24 25  2  0  0  0  0
 24 22  1  0  0  0  0
 25 26  1  0  0  0  0
 26 20  2  0  0  0  0
 27 25  1  0  0  0  0
 28 30  1  0  0  0  0
 28 27  1  0  0  0  0
 29 28  1  0  0  0  0
 30 24  1  0  0  0  0
M  END
>  <minimizedAffinity>
-5.35853434

>  <minimizedRMSD>
0.540867329

$$$$
