
 OpenBabel03252507383D

 40 45  0  0  0  0  0  0  0  0999 V2000
   45.8370   34.7140   43.6570 C   0  0  0  0  0  0  0  0  0  0  0  0
   46.5450   33.6770   44.2950 C   0  0  0  0  0  0  0  0  0  0  0  0
   46.2400   33.4050   45.6150 C   0  0  0  0  0  0  0  0  0  0  0  0
   45.2920   34.1300   46.2300 N   0  0  0  0  0  0  0  0  0  0  0  0
   44.6160   35.1290   45.6000 C   0  0  0  0  0  0  0  0  0  0  0  0
   44.8920   35.4090   44.3330 N   0  0  0  0  0  0  0  0  0  0  0  0
   47.3060   33.0910   43.8070 H   0  0  0  0  0  0  0  0  0  0  0  0
   43.8810   35.6290   46.2190 H   0  0  0  0  0  0  0  0  0  0  0  0
   47.1720   32.6400   47.7310 C   0  0  0  0  0  0  0  0  0  0  0  0
   46.8960   32.3570   46.3960 C   0  0  0  0  0  0  0  0  0  0  0  0
   47.2500   31.1250   45.9010 C   0  0  0  0  0  0  0  0  0  0  0  0
   47.8660   30.1710   46.6810 C   0  0  0  0  0  0  0  0  0  0  0  0
   48.2950   28.9100   46.4040 N   0  0  0  0  0  0  0  0  0  0  0  0
   48.8410   28.4080   47.5730 C   0  0  0  0  0  0  0  0  0  0  0  0
   48.7370   29.3500   48.5170 N   0  0  0  0  0  0  0  0  0  0  0  0
   48.1410   30.4420   47.9960 C   0  0  0  0  0  0  0  0  0  0  0  0
   47.7970   31.6700   48.5160 C   0  0  0  0  0  0  0  0  0  0  0  0
   46.9280   33.5880   48.2080 H   0  0  0  0  0  0  0  0  0  0  0  0
   47.0310   30.9100   44.8580 H   0  0  0  0  0  0  0  0  0  0  0  0
   48.2170   28.4270   45.4720 H   0  0  0  0  0  0  0  0  0  0  0  0
   49.2720   27.4270   47.6910 H   0  0  0  0  0  0  0  0  0  0  0  0
   48.0200   31.8730   49.5580 H   0  0  0  0  0  0  0  0  0  0  0  0
   46.1350   34.9980   42.3270 O   0  0  0  0  0  0  0  0  0  0  0  0
   45.2630   34.6110   41.3160 C   0  0  0  0  0  0  0  0  0  0  0  0
   46.0040   33.6720   40.6920 C   0  0  0  0  0  0  0  0  0  0  0  0
   44.8150   33.1230   39.2960 S   0  0  0  0  0  0  0  0  0  0  0  0
   43.5410   34.3610   39.9280 C   0  0  0  0  0  0  0  0  0  0  0  0
   44.0820   34.7970   40.7800 N   0  0  0  0  0  0  0  0  0  0  0  0
   46.9310   32.9600   40.4520 H   0  0  0  0  0  0  0  0  0  0  0  0
   41.9670   35.4630   38.3190 C   0  0  0  0  0  3  0  0  0  0  0  0
   42.2270   34.4480   39.1930 C   0  0  0  0  0  0  0  0  0  0  0  0
   41.4060   33.4160   39.5250 C   0  0  0  0  0  0  0  0  0  0  0  0
   41.6430   32.6260   40.2240 H   0  0  0  0  0  0  0  0  0  0  0  0
   40.1580   33.4120   38.8910 C   0  0  0  0  0  0  0  0  0  0  0  0
   39.8350   34.4230   37.9870 C   0  0  0  0  0  0  0  0  0  0  0  0
   40.7310   35.4470   37.6990 C   0  0  0  0  0  3  0  0  0  0  0  0
   38.5350   34.1600   37.5160 O   0  0  0  0  0  0  0  0  0  0  0  0
   38.2200   32.8060   37.8360 C   0  0  0  0  0  3  0  0  0  0  0  0
   37.1600   32.6650   38.0710 H   0  0  0  0  0  0  0  0  0  0  0  0
   39.0510   32.5460   38.9560 O   0  0  0  0  0  0  0  0  0  0  0  0
  1  2  2  0  0  0  0
  1  6  1  0  0  0  0
  2  3  1  0  0  0  0
  3  4  2  0  0  0  0
  3 10  1  0  0  0  0
  5  8  1  0  0  0  0
  5  4  1  0  0  0  0
  6  5  2  0  0  0  0
  7  2  1  0  0  0  0
  9 18  1  0  0  0  0
  9 17  1  0  0  0  0
 10  9  2  0  0  0  0
 11 10  1  0  0  0  0
 11 12  2  0  0  0  0
 12 16  1  0  0  0  0
 13 12  1  0  0  0  0
 13 14  1  0  0  0  0
 14 21  1  0  0  0  0
 14 15  2  0  0  0  0
 16 17  2  0  0  0  0
 16 15  1  0  0  0  0
 17 22  1  0  0  0  0
 19 11  1  0  0  0  0
 20 13  1  0  0  0  0
 23  1  1  0  0  0  0
 24 23  1  0  0  0  0
 25 24  2  0  0  0  0
 26 27  1  0  0  0  0
 26 25  1  0  0  0  0
 27 28  2  0  0  0  0
 28 24  1  0  0  0  0
 29 25  1  0  0  0  0
 30 31  1  0  0  0  0
 31 32  2  0  0  0  0
 31 27  1  0  0  0  0
 32 33  1  0  0  0  0
 34 40  1  0  0  0  0
 34 32  1  0  0  0  0
 35 34  2  0  0  0  0
 36 35  1  0  0  0  0
 36 30  2  0  0  0  0
 37 38  1  0  0  0  0
 37 35  1  0  0  0  0
 38 39  1  0  0  0  0
 38 40  1  0  0  0  0
M  END
>  <minimizedAffinity>
-7.31852913

>  <minimizedRMSD>
1.28545606

$$$$
