
 OpenBabel03252506443D

 42 46  0  0  1  0  0  0  0  0999 V2000
   36.9450   29.6340   40.4530 N   0  0  1  0  0  0  0  0  0  0  0  0
   37.1800   31.0390   40.6910 C   0  0  0  0  0  0  0  0  0  0  0  0
   36.9460   31.8710   39.4540 C   0  0  0  0  0  0  0  0  0  0  0  0
   38.0690   31.5660   38.4960 C   0  0  0  0  0  0  0  0  0  0  0  0
   38.3440   30.0810   38.4730 C   0  0  0  0  0  0  0  0  0  0  0  0
   37.2070   29.3120   39.0610 C   0  0  2  0  0  0  0  0  0  0  0  0
   36.6270   31.4210   41.5760 H   0  0  0  0  0  0  0  0  0  0  0  0
   38.2650   31.1660   40.9330 H   0  0  0  0  0  0  0  0  0  0  0  0
   35.9570   31.6740   39.0440 H   0  0  0  0  0  0  0  0  0  0  0  0
   36.9510   32.9290   39.7920 H   0  0  0  0  0  0  0  0  0  0  0  0
   38.9830   32.1530   38.7150 H   0  0  0  0  0  0  0  0  0  0  0  0
   37.7550   31.8720   37.4850 H   0  0  0  0  0  0  0  0  0  0  0  0
   38.5100   29.6970   37.4510 H   0  0  0  0  0  0  0  0  0  0  0  0
   39.2220   29.8920   39.1150 H   0  0  0  0  0  0  0  0  0  0  0  0
   37.5970   28.2450   39.1220 H   0  0  0  0  0  0  0  0  0  0  0  0
   34.8710   29.1080   39.0900 C   0  0  0  0  0  3  0  0  0  0  0  0
   35.9900   29.2260   38.2540 C   0  0  0  0  0  0  0  0  0  0  0  0
   35.7710   29.2330   36.9110 C   0  0  0  0  0  0  0  0  0  0  0  0
   36.6700   29.3200   36.3390 H   0  0  0  0  0  0  0  0  0  0  0  0
   34.5000   29.1290   36.3920 C   0  0  0  0  0  0  0  0  0  0  0  0
   33.3650   29.0110   37.1660 C   0  0  0  0  0  0  0  0  0  0  0  0
   33.5880   29.0040   38.5380 C   0  0  0  0  0  3  0  0  0  0  0  0
   32.2350   28.9260   36.3650 O   0  0  0  0  0  0  0  0  0  0  0  0
   32.6910   28.6320   35.0670 C   0  0  0  0  0  3  0  0  0  0  0  0
   32.1370   29.2610   34.3490 H   0  0  0  0  0  0  0  0  0  0  0  0
   34.0340   29.1140   35.0860 O   0  0  0  0  0  0  0  0  0  0  0  0
   37.1790   27.7810   42.2440 C   0  0  1  0  0  0  0  0  0  0  0  0
   37.3500   29.0990   42.8210 C   0  0  0  0  0  0  0  0  0  0  0  0
   37.7430   28.9090   41.3890 C   0  0  2  0  0  0  0  0  0  0  0  0
   36.2170   27.4150   41.8180 H   0  0  0  0  0  0  0  0  0  0  0  0
   36.3930   29.6550   43.0450 H   0  0  0  0  0  0  0  0  0  0  0  0
   38.1010   29.2900   43.5980 H   0  0  0  0  0  0  0  0  0  0  0  0
   38.8400   28.8410   41.2180 H   0  0  0  0  0  0  0  0  0  0  0  0
   37.8840   25.3610   42.0400 C   0  0  0  0  0  0  0  0  0  0  0  0
   38.0970   26.6550   42.5800 C   0  0  0  0  0  0  0  0  0  0  0  0
   39.1750   26.8320   43.4250 C   0  0  0  0  0  0  0  0  0  0  0  0
   39.9620   25.7470   43.6800 N   0  0  0  0  0  0  0  0  0  0  0  0
   39.7400   24.5280   43.1550 C   0  0  0  0  0  0  0  0  0  0  0  0
   38.6960   24.3200   42.3270 N   0  0  0  0  0  0  0  0  0  0  0  0
   37.0470   25.1850   41.3740 H   0  0  0  0  0  0  0  0  0  0  0  0
   39.3910   27.7880   43.8660 H   0  0  0  0  0  0  0  0  0  0  0  0
   40.4640   23.7710   43.4610 H   0  0  0  0  0  0  0  0  0  0  0  0
  1  2  1  6  0  0  0
  1 29  1  0  0  0  0
  2  8  1  0  0  0  0
  2  7  1  0  0  0  0
  3 10  1  0  0  0  0
  3  2  1  0  0  0  0
  4 11  1  0  0  0  0
  4  3  1  0  0  0  0
  5  4  1  0  0  0  0
  5  6  1  0  0  0  0
  5 14  1  0  0  0  0
  6 15  1  1  0  0  0
  6  1  1  0  0  0  0
  9  3  1  0  0  0  0
 12  4  1  0  0  0  0
 13  5  1  0  0  0  0
 17  6  1  0  0  0  0
 17 16  2  0  0  0  0
 18 17  1  0  0  0  0
 19 18  1  0  0  0  0
 20 18  2  0  0  0  0
 20 21  1  0  0  0  0
 21 22  2  0  0  0  0
 22 16  1  0  0  0  0
 23 21  1  0  0  0  0
 24 26  1  0  0  0  0
 24 23  1  0  0  0  0
 25 24  1  0  0  0  0
 26 20  1  0  0  0  0
 27 30  1  6  0  0  0
 27 35  1  0  0  0  0
 27 28  1  0  0  0  0
 28 31  1  0  0  0  0
 28 32  1  0  0  0  0
 29 33  1  6  0  0  0
 29 27  1  0  0  0  0
 29 28  1  0  0  0  0
 34 39  2  0  0  0  0
 34 35  1  0  0  0  0
 35 36  2  0  0  0  0
 36 37  1  0  0  0  0
 36 41  1  0  0  0  0
 38 42  1  0  0  0  0
 38 37  2  0  0  0  0
 39 38  1  0  0  0  0
 40 34  1  0  0  0  0
M  END
>  <minimizedAffinity>
-5.81552553

$$$$

 OpenBabel03252506443D

 42 46  0  0  1  0  0  0  0  0999 V2000
   40.0620   32.1130   39.5180 N   0  0  1  0  0  0  0  0  0  0  0  0
   39.4820   33.4190   39.7230 C   0  0  0  0  0  0  0  0  0  0  0  0
   38.0440   33.3370   40.1720 C   0  0  0  0  0  0  0  0  0  0  0  0
   37.2370   32.8640   38.9910 C   0  0  0  0  0  0  0  0  0  0  0  0
   37.9620   31.7470   38.2790 C   0  0  0  0  0  0  0  0  0  0  0  0
   39.0310   31.1610   39.1420 C   0  0  2  0  0  0  0  0  0  0  0  0
   40.1020   34.0630   40.3830 H   0  0  0  0  0  0  0  0  0  0  0  0
   39.4540   33.9390   38.7330 H   0  0  0  0  0  0  0  0  0  0  0  0
   37.9550   32.6950   41.0480 H   0  0  0  0  0  0  0  0  0  0  0  0
   37.7650   34.3630   40.4940 H   0  0  0  0  0  0  0  0  0  0  0  0
   36.9720   33.6910   38.3020 H   0  0  0  0  0  0  0  0  0  0  0  0
   36.2780   32.4690   39.3630 H   0  0  0  0  0  0  0  0  0  0  0  0
   37.2870   30.9240   37.9840 H   0  0  0  0  0  0  0  0  0  0  0  0
   38.4660   32.1810   37.3990 H   0  0  0  0  0  0  0  0  0  0  0  0
   39.5880   30.4520   38.4490 H   0  0  0  0  0  0  0  0  0  0  0  0
   39.5920   30.2570   41.2320 C   0  0  0  0  0  3  0  0  0  0  0  0
   38.5850   30.3290   40.2590 C   0  0  0  0  0  0  0  0  0  0  0  0
   37.4320   29.6460   40.5000 C   0  0  0  0  0  0  0  0  0  0  0  0
   36.7150   29.7430   39.7130 H   0  0  0  0  0  0  0  0  0  0  0  0
   37.2610   28.9150   41.6530 C   0  0  0  0  0  0  0  0  0  0  0  0
   38.2150   28.8100   42.6430 C   0  0  0  0  0  0  0  0  0  0  0  0
   39.3930   29.5070   42.3980 C   0  0  0  0  0  3  0  0  0  0  0  0
   37.7570   28.0090   43.6790 O   0  0  0  0  0  0  0  0  0  0  0  0
   36.6410   27.3140   43.1790 C   0  0  0  0  0  3  0  0  0  0  0  0
   35.8470   27.3280   43.9460 H   0  0  0  0  0  0  0  0  0  0  0  0
   36.1970   28.1520   42.1130 O   0  0  0  0  0  0  0  0  0  0  0  0
   42.4650   31.5900   38.7140 C   0  0  1  0  0  0  0  0  0  0  0  0
   42.3160   32.9880   39.0600 C   0  0  0  0  0  0  0  0  0  0  0  0
   41.1070   32.2620   38.5560 C   0  0  2  0  0  0  0  0  0  0  0  0
   42.4050   30.7610   39.4560 H   0  0  0  0  0  0  0  0  0  0  0  0
   42.3810   33.2220   40.1630 H   0  0  0  0  0  0  0  0  0  0  0  0
   42.7950   33.7780   38.4670 H   0  0  0  0  0  0  0  0  0  0  0  0
   40.8370   32.4930   37.5030 H   0  0  0  0  0  0  0  0  0  0  0  0
   44.4720   31.6260   37.1760 C   0  0  0  0  0  0  0  0  0  0  0  0
   43.1640   31.1630   37.4680 C   0  0  0  0  0  0  0  0  0  0  0  0
   42.5650   30.3090   36.5610 C   0  0  0  0  0  0  0  0  0  0  0  0
   43.2760   29.9720   35.4480 N   0  0  0  0  0  0  0  0  0  0  0  0
   44.5180   30.4240   35.1920 C   0  0  0  0  0  0  0  0  0  0  0  0
   45.1310   31.2600   36.0550 N   0  0  0  0  0  0  0  0  0  0  0  0
   44.9740   32.2980   37.8630 H   0  0  0  0  0  0  0  0  0  0  0  0
   41.5760   29.9230   36.7250 H   0  0  0  0  0  0  0  0  0  0  0  0
   44.9430   30.0570   34.2570 H   0  0  0  0  0  0  0  0  0  0  0  0
  1  2  1  6  0  0  0
  2  3  1  0  0  0  0
  2  7  1  0  0  0  0
  3 10  1  0  0  0  0
  3  9  1  0  0  0  0
  4 12  1  0  0  0  0
  4  3  1  0  0  0  0
  5  4  1  0  0  0  0
  5  6  1  0  0  0  0
  6 15  1  6  0  0  0
  6  1  1  0  0  0  0
  6 17  1  0  0  0  0
  8  2  1  0  0  0  0
 11  4  1  0  0  0  0
 13  5  1  0  0  0  0
 14  5  1  0  0  0  0
 16 22  1  0  0  0  0
 17 18  1  0  0  0  0
 17 16  2  0  0  0  0
 18 20  2  0  0  0  0
 19 18  1  0  0  0  0
 20 26  1  0  0  0  0
 20 21  1  0  0  0  0
 21 23  1  0  0  0  0
 22 21  2  0  0  0  0
 24 23  1  0  0  0  0
 24 25  1  0  0  0  0
 26 24  1  0  0  0  0
 27 28  1  0  0  0  0
 27 30  1  1  0  0  0
 28 31  1  0  0  0  0
 29 33  1  6  0  0  0
 29 27  1  0  0  0  0
 29 28  1  0  0  0  0
 29  1  1  0  0  0  0
 32 28  1  0  0  0  0
 34 35  1  0  0  0  0
 34 40  1  0  0  0  0
 35 27  1  0  0  0  0
 36 41  1  0  0  0  0
 36 35  2  0  0  0  0
 37 36  1  0  0  0  0
 38 37  2  0  0  0  0
 38 39  1  0  0  0  0
 39 34  2  0  0  0  0
 42 38  1  0  0  0  0
M  END
>  <minimizedAffinity>
-5.68642473

$$$$

 OpenBabel03252506443D

 42 46  0  0  1  0  0  0  0  0999 V2000
   39.7560   32.8790   40.1510 N   0  0  1  0  0  0  0  0  0  0  0  0
   38.7400   33.8800   39.9330 C   0  0  0  0  0  0  0  0  0  0  0  0
   37.3620   33.2760   39.8190 C   0  0  0  0  0  0  0  0  0  0  0  0
   37.3070   32.5410   38.5050 C   0  0  0  0  0  0  0  0  0  0  0  0
   38.5870   31.7700   38.2860 C   0  0  0  0  0  0  0  0  0  0  0  0
   39.3490   31.6150   39.5610 C   0  0  2  0  0  0  0  0  0  0  0  0
   38.7860   34.7060   40.6750 H   0  0  0  0  0  0  0  0  0  0  0  0
   38.9380   34.3560   38.9400 H   0  0  0  0  0  0  0  0  0  0  0  0
   37.1520   32.6440   40.6810 H   0  0  0  0  0  0  0  0  0  0  0  0
   36.6500   34.1270   39.8610 H   0  0  0  0  0  0  0  0  0  0  0  0
   37.0790   33.2150   37.6540 H   0  0  0  0  0  0  0  0  0  0  0  0
   36.4750   31.8210   38.5440 H   0  0  0  0  0  0  0  0  0  0  0  0
   38.4070   30.7570   37.8830 H   0  0  0  0  0  0  0  0  0  0  0  0
   39.2230   32.3600   37.6040 H   0  0  0  0  0  0  0  0  0  0  0  0
   40.3410   31.1610   39.2370 H   0  0  0  0  0  0  0  0  0  0  0  0
   39.4580   30.8310   41.7680 C   0  0  0  0  0  3  0  0  0  0  0  0
   38.8020   30.6760   40.5390 C   0  0  0  0  0  0  0  0  0  0  0  0
   37.8280   29.7280   40.4640 C   0  0  0  0  0  0  0  0  0  0  0  0
   37.3780   29.6640   39.4970 H   0  0  0  0  0  0  0  0  0  0  0  0
   37.4990   28.9520   41.5530 C   0  0  0  0  0  0  0  0  0  0  0  0
   38.1110   29.0610   42.7840 C   0  0  0  0  0  0  0  0  0  0  0  0
   39.1050   30.0290   42.8610 C   0  0  0  0  0  3  0  0  0  0  0  0
   37.5690   28.1510   43.6800 O   0  0  0  0  0  0  0  0  0  0  0  0
   36.8530   27.2160   42.9110 C   0  0  0  0  0  3  0  0  0  0  0  0
   35.8880   27.0190   43.4070 H   0  0  0  0  0  0  0  0  0  0  0  0
   36.5620   27.9430   41.7180 O   0  0  0  0  0  0  0  0  0  0  0  0
   42.3430   32.9070   40.1080 C   0  0  1  0  0  0  0  0  0  0  0  0
   41.8100   34.1420   40.6430 C   0  0  0  0  0  0  0  0  0  0  0  0
   40.9820   33.4040   39.6390 C   0  0  2  0  0  0  0  0  0  0  0  0
   42.2430   31.9210   40.6170 H   0  0  0  0  0  0  0  0  0  0  0  0
   41.4990   34.1030   41.7290 H   0  0  0  0  0  0  0  0  0  0  0  0
   42.2650   35.1120   40.4050 H   0  0  0  0  0  0  0  0  0  0  0  0
   40.9900   33.8480   38.6200 H   0  0  0  0  0  0  0  0  0  0  0  0
   43.5980   31.8220   38.1980 C   0  0  0  0  0  0  0  0  0  0  0  0
   43.4500   32.9010   39.1080 C   0  0  0  0  0  0  0  0  0  0  0  0
   44.3610   33.9350   39.0350 C   0  0  0  0  0  0  0  0  0  0  0  0
   45.3420   33.8470   38.0910 N   0  0  0  0  0  0  0  0  0  0  0  0
   45.4630   32.8140   37.2380 C   0  0  0  0  0  0  0  0  0  0  0  0
   44.5900   31.7860   37.2830 N   0  0  0  0  0  0  0  0  0  0  0  0
   42.9020   30.9920   38.2270 H   0  0  0  0  0  0  0  0  0  0  0  0
   44.3020   34.7810   39.6950 H   0  0  0  0  0  0  0  0  0  0  0  0
   46.3030   32.9010   36.5470 H   0  0  0  0  0  0  0  0  0  0  0  0
  1  2  1  6  0  0  0
  2  7  1  0  0  0  0
  3 10  1  0  0  0  0
  3  2  1  0  0  0  0
  3  9  1  0  0  0  0
  4 12  1  0  0  0  0
  4  3  1  0  0  0  0
  5  4  1  0  0  0  0
  5  6  1  0  0  0  0
  6 15  1  6  0  0  0
  6  1  1  0  0  0  0
  6 17  1  0  0  0  0
  8  2  1  0  0  0  0
 11  4  1  0  0  0  0
 13  5  1  0  0  0  0
 14  5  1  0  0  0  0
 16 22  1  0  0  0  0
 17 16  2  0  0  0  0
 18 17  1  0  0  0  0
 18 20  2  0  0  0  0
 19 18  1  0  0  0  0
 20 26  1  0  0  0  0
 20 21  1  0  0  0  0
 21 22  2  0  0  0  0
 21 23  1  0  0  0  0
 24 25  1  0  0  0  0
 24 23  1  0  0  0  0
 26 24  1  0  0  0  0
 27 30  1  1  0  0  0
 27 28  1  0  0  0  0
 28 31  1  0  0  0  0
 29 33  1  6  0  0  0
 29 27  1  0  0  0  0
 29  1  1  0  0  0  0
 29 28  1  0  0  0  0
 32 28  1  0  0  0  0
 34 40  1  0  0  0  0
 34 35  1  0  0  0  0
 35 27  1  0  0  0  0
 36 35  2  0  0  0  0
 36 41  1  0  0  0  0
 37 36  1  0  0  0  0
 38 39  1  0  0  0  0
 38 37  2  0  0  0  0
 39 34  2  0  0  0  0
 42 38  1  0  0  0  0
M  END
>  <minimizedAffinity>
-5.6028204

$$$$

 OpenBabel03252506443D

 42 46  0  0  1  0  0  0  0  0999 V2000
   34.7150   28.6380   37.4270 N   0  0  1  0  0  0  0  0  0  0  0  0
   35.3620   27.6010   36.6580 C   0  0  0  0  0  0  0  0  0  0  0  0
   36.8020   27.4100   37.0620 C   0  0  0  0  0  0  0  0  0  0  0  0
   37.5620   28.6200   36.5800 C   0  0  0  0  0  0  0  0  0  0  0  0
   36.7680   29.8750   36.8550 C   0  0  0  0  0  0  0  0  0  0  0  0
   35.6900   29.6240   37.8570 C   0  0  2  0  0  0  0  0  0  0  0  0
   34.7870   26.6490   36.6540 H   0  0  0  0  0  0  0  0  0  0  0  0
   35.3950   27.9380   35.5910 H   0  0  0  0  0  0  0  0  0  0  0  0
   36.8780   27.2470   38.1360 H   0  0  0  0  0  0  0  0  0  0  0  0
   37.1380   26.4740   36.5680 H   0  0  0  0  0  0  0  0  0  0  0  0
   37.8530   28.5390   35.5130 H   0  0  0  0  0  0  0  0  0  0  0  0
   38.5080   28.6820   37.1420 H   0  0  0  0  0  0  0  0  0  0  0  0
   37.3970   30.6960   37.2440 H   0  0  0  0  0  0  0  0  0  0  0  0
   36.2690   30.1690   35.9160 H   0  0  0  0  0  0  0  0  0  0  0  0
   35.0850   30.5870   37.8590 H   0  0  0  0  0  0  0  0  0  0  0  0
   37.0030   30.4630   39.6100 C   0  0  0  0  0  3  0  0  0  0  0  0
   36.1170   29.4400   39.2440 C   0  0  0  0  0  0  0  0  0  0  0  0
   35.8250   28.4990   40.1820 C   0  0  0  0  0  0  0  0  0  0  0  0
   35.1480   27.7500   39.8300 H   0  0  0  0  0  0  0  0  0  0  0  0
   36.3770   28.5490   41.4420 C   0  0  0  0  0  0  0  0  0  0  0  0
   37.2530   29.5300   41.8560 C   0  0  0  0  0  0  0  0  0  0  0  0
   37.5520   30.4910   40.8980 C   0  0  0  0  0  3  0  0  0  0  0  0
   37.6390   29.3160   43.1720 O   0  0  0  0  0  0  0  0  0  0  0  0
   37.2790   27.9910   43.4800 C   0  0  0  0  0  3  0  0  0  0  0  0
   36.8210   27.9760   44.4830 H   0  0  0  0  0  0  0  0  0  0  0  0
   36.2340   27.7210   42.5460 O   0  0  0  0  0  0  0  0  0  0  0  0
   32.2040   29.1580   37.0760 C   0  0  1  0  0  0  0  0  0  0  0  0
   32.6670   28.1430   36.1530 C   0  0  0  0  0  0  0  0  0  0  0  0
   33.6580   29.1620   36.6210 C   0  0  2  0  0  0  0  0  0  0  0  0
   32.1420   29.0080   38.1780 H   0  0  0  0  0  0  0  0  0  0  0  0
   32.7310   27.0980   36.5780 H   0  0  0  0  0  0  0  0  0  0  0  0
   32.3240   28.1170   35.1110 H   0  0  0  0  0  0  0  0  0  0  0  0
   33.8950   29.9510   35.8740 H   0  0  0  0  0  0  0  0  0  0  0  0
   31.3060   30.6720   35.2600 C   0  0  0  0  0  0  0  0  0  0  0  0
   31.3450   30.2910   36.6250 C   0  0  0  0  0  0  0  0  0  0  0  0
   30.5650   31.0030   37.5150 C   0  0  0  0  0  0  0  0  0  0  0  0
   29.8110   32.0240   37.0170 N   0  0  0  0  0  0  0  0  0  0  0  0
   29.7900   32.3680   35.7160 C   0  0  0  0  0  0  0  0  0  0  0  0
   30.5400   31.6940   34.8200 N   0  0  0  0  0  0  0  0  0  0  0  0
   31.9060   30.1370   34.5320 H   0  0  0  0  0  0  0  0  0  0  0  0
   30.5500   30.7630   38.5630 H   0  0  0  0  0  0  0  0  0  0  0  0
   29.1330   33.2080   35.4860 H   0  0  0  0  0  0  0  0  0  0  0  0
  1  2  1  6  0  0  0
  1  6  1  0  0  0  0
  2  3  1  0  0  0  0
  3  9  1  0  0  0  0
  4  5  1  0  0  0  0
  4  3  1  0  0  0  0
  4 12  1  0  0  0  0
  5 13  1  0  0  0  0
  5  6  1  0  0  0  0
  6 15  1  1  0  0  0
  6 17  1  0  0  0  0
  7  2  1  0  0  0  0
  8  2  1  0  0  0  0
 10  3  1  0  0  0  0
 11  4  1  0  0  0  0
 14  5  1  0  0  0  0
 16 22  1  0  0  0  0
 17 16  2  0  0  0  0
 17 18  1  0  0  0  0
 18 20  2  0  0  0  0
 19 18  1  0  0  0  0
 20 21  1  0  0  0  0
 20 26  1  0  0  0  0
 21 23  1  0  0  0  0
 22 21  2  0  0  0  0
 23 24  1  0  0  0  0
 24 25  1  0  0  0  0
 26 24  1  0  0  0  0
 27 30  1  1  0  0  0
 28 31  1  0  0  0  0
 28 29  1  0  0  0  0
 28 27  1  0  0  0  0
 29 33  1  6  0  0  0
 29 27  1  0  0  0  0
 29  1  1  0  0  0  0
 32 28  1  0  0  0  0
 34 35  1  0  0  0  0
 35 27  1  0  0  0  0
 35 36  2  0  0  0  0
 36 41  1  0  0  0  0
 37 36  1  0  0  0  0
 38 37  2  0  0  0  0
 39 34  2  0  0  0  0
 39 38  1  0  0  0  0
 40 34  1  0  0  0  0
 42 38  1  0  0  0  0
M  END
>  <minimizedAffinity>
-5.48095083

$$$$

 OpenBabel03252506443D

 42 46  0  0  1  0  0  0  0  0999 V2000
   37.1900   29.8960   40.1570 N   0  0  1  0  0  0  0  0  0  0  0  0
   35.8260   30.3220   40.3680 C   0  0  0  0  0  0  0  0  0  0  0  0
   34.8380   29.2130   40.1030 C   0  0  0  0  0  0  0  0  0  0  0  0
   34.8230   28.9790   38.6150 C   0  0  0  0  0  0  0  0  0  0  0  0
   36.2320   29.0000   38.0710 C   0  0  0  0  0  0  0  0  0  0  0  0
   37.2360   28.8370   39.1640 C   0  0  2  0  0  0  0  0  0  0  0  0
   35.6760   30.8030   41.3590 H   0  0  0  0  0  0  0  0  0  0  0  0
   35.5950   31.1120   39.6100 H   0  0  0  0  0  0  0  0  0  0  0  0
   35.0960   28.3270   40.6820 H   0  0  0  0  0  0  0  0  0  0  0  0
   33.8610   29.5760   40.4860 H   0  0  0  0  0  0  0  0  0  0  0  0
   34.1620   29.6920   38.0810 H   0  0  0  0  0  0  0  0  0  0  0  0
   34.3970   27.9800   38.4250 H   0  0  0  0  0  0  0  0  0  0  0  0
   36.4130   28.1980   37.3330 H   0  0  0  0  0  0  0  0  0  0  0  0
   36.4040   29.9950   37.6240 H   0  0  0  0  0  0  0  0  0  0  0  0
   38.2350   29.0210   38.6520 H   0  0  0  0  0  0  0  0  0  0  0  0
   37.9740   27.5870   41.0060 C   0  0  0  0  0  3  0  0  0  0  0  0
   37.3500   27.5040   39.7530 C   0  0  0  0  0  0  0  0  0  0  0  0
   36.9820   26.2680   39.3180 C   0  0  0  0  0  0  0  0  0  0  0  0
   36.5180   26.2820   38.3550 H   0  0  0  0  0  0  0  0  0  0  0  0
   37.2130   25.1430   40.0780 C   0  0  0  0  0  0  0  0  0  0  0  0
   37.8220   25.1660   41.3140 C   0  0  0  0  0  0  0  0  0  0  0  0
   38.1980   26.4280   41.7590 C   0  0  0  0  0  3  0  0  0  0  0  0
   37.9170   23.8840   41.8350 O   0  0  0  0  0  0  0  0  0  0  0  0
   37.6840   23.0020   40.7640 C   0  0  0  0  0  3  0  0  0  0  0  0
   37.0120   22.1990   41.1100 H   0  0  0  0  0  0  0  0  0  0  0  0
   36.9340   23.8030   39.8510 O   0  0  0  0  0  0  0  0  0  0  0  0
   38.5910   31.9510   40.8720 C   0  0  1  0  0  0  0  0  0  0  0  0
   37.3370   32.3510   40.2680 C   0  0  0  0  0  0  0  0  0  0  0  0
   37.9460   31.0590   39.8190 C   0  0  2  0  0  0  0  0  0  0  0  0
   38.6620   31.4130   41.8450 H   0  0  0  0  0  0  0  0  0  0  0  0
   36.4380   32.3110   40.9500 H   0  0  0  0  0  0  0  0  0  0  0  0
   37.2770   33.2160   39.5960 H   0  0  0  0  0  0  0  0  0  0  0  0
   38.4420   31.1050   38.8240 H   0  0  0  0  0  0  0  0  0  0  0  0
   41.1180   32.0420   40.9000 C   0  0  0  0  0  0  0  0  0  0  0  0
   39.8790   32.6120   40.5120 C   0  0  0  0  0  0  0  0  0  0  0  0
   39.9080   33.7920   39.7970 C   0  0  0  0  0  0  0  0  0  0  0  0
   41.1290   34.3280   39.5120 N   0  0  0  0  0  0  0  0  0  0  0  0
   42.2940   33.7690   39.8910 C   0  0  0  0  0  0  0  0  0  0  0  0
   42.3010   32.6170   40.5920 N   0  0  0  0  0  0  0  0  0  0  0  0
   41.1350   31.1160   41.4640 H   0  0  0  0  0  0  0  0  0  0  0  0
   39.0030   34.2730   39.4730 H   0  0  0  0  0  0  0  0  0  0  0  0
   43.1790   34.3270   39.5820 H   0  0  0  0  0  0  0  0  0  0  0  0
  1  2  1  6  0  0  0
  2  7  1  0  0  0  0
  3  2  1  0  0  0  0
  3 10  1  0  0  0  0
  3  9  1  0  0  0  0
  4  3  1  0  0  0  0
  5  4  1  0  0  0  0
  5  6  1  0  0  0  0
  6 15  1  6  0  0  0
  6 17  1  0  0  0  0
  6  1  1  0  0  0  0
  8  2  1  0  0  0  0
 11  4  1  0  0  0  0
 12  4  1  0  0  0  0
 13  5  1  0  0  0  0
 14  5  1  0  0  0  0
 16 22  1  0  0  0  0
 17 16  2  0  0  0  0
 18 17  1  0  0  0  0
 18 20  2  0  0  0  0
 19 18  1  0  0  0  0
 20 21  1  0  0  0  0
 21 22  2  0  0  0  0
 21 23  1  0  0  0  0
 24 25  1  0  0  0  0
 24 23  1  0  0  0  0
 26 20  1  0  0  0  0
 26 24  1  0  0  0  0
 27 30  1  1  0  0  0
 28 27  1  0  0  0  0
 28 31  1  0  0  0  0
 29 33  1  6  0  0  0
 29  1  1  0  0  0  0
 29 28  1  0  0  0  0
 29 27  1  0  0  0  0
 32 28  1  0  0  0  0
 34 40  1  0  0  0  0
 35 27  1  0  0  0  0
 35 34  2  0  0  0  0
 36 35  1  0  0  0  0
 37 36  2  0  0  0  0
 37 38  1  0  0  0  0
 38 39  2  0  0  0  0
 39 34  1  0  0  0  0
 41 36  1  0  0  0  0
 42 38  1  0  0  0  0
M  END
>  <minimizedAffinity>
-5.45070648

$$$$

 OpenBabel03252506443D

 42 46  0  0  1  0  0  0  0  0999 V2000
   37.8170   28.5080   41.0960 N   0  0  1  0  0  0  0  0  0  0  0  0
   37.2730   29.3320   42.1510 C   0  0  0  0  0  0  0  0  0  0  0  0
   37.5670   28.7690   43.5190 C   0  0  0  0  0  0  0  0  0  0  0  0
   36.7240   27.5300   43.6800 C   0  0  0  0  0  0  0  0  0  0  0  0
   36.7520   26.7140   42.4090 C   0  0  0  0  0  0  0  0  0  0  0  0
   37.8870   27.1230   41.5290 C   0  0  2  0  0  0  0  0  0  0  0  0
   37.5650   30.4000   42.0530 H   0  0  0  0  0  0  0  0  0  0  0  0
   36.1580   29.3140   42.0560 H   0  0  0  0  0  0  0  0  0  0  0  0
   38.6340   28.5890   43.6350 H   0  0  0  0  0  0  0  0  0  0  0  0
   37.2930   29.5660   44.2430 H   0  0  0  0  0  0  0  0  0  0  0  0
   35.6880   27.7620   44.0000 H   0  0  0  0  0  0  0  0  0  0  0  0
   37.1550   26.9200   44.4890 H   0  0  0  0  0  0  0  0  0  0  0  0
   36.8570   25.6320   42.6030 H   0  0  0  0  0  0  0  0  0  0  0  0
   35.8230   26.9280   41.8520 H   0  0  0  0  0  0  0  0  0  0  0  0
   37.7070   26.5520   40.5620 H   0  0  0  0  0  0  0  0  0  0  0  0
   39.1920   25.4240   42.4830 C   0  0  0  0  0  3  0  0  0  0  0  0
   39.2260   26.7260   41.9620 C   0  0  0  0  0  0  0  0  0  0  0  0
   40.4270   27.3660   41.9540 C   0  0  0  0  0  0  0  0  0  0  0  0
   40.3740   28.3540   41.5480 H   0  0  0  0  0  0  0  0  0  0  0  0
   41.5640   26.7600   42.4370 C   0  0  0  0  0  0  0  0  0  0  0  0
   41.5890   25.4840   42.9600 C   0  0  0  0  0  0  0  0  0  0  0  0
   40.3630   24.8300   42.9680 C   0  0  0  0  0  3  0  0  0  0  0  0
   42.8730   25.1480   43.3640 O   0  0  0  0  0  0  0  0  0  0  0  0
   43.5980   26.3520   43.4230 C   0  0  0  0  0  3  0  0  0  0  0  0
   44.5910   26.1860   42.9710 H   0  0  0  0  0  0  0  0  0  0  0  0
   42.8760   27.2010   42.5330 O   0  0  0  0  0  0  0  0  0  0  0  0
   37.4860   29.5780   38.7640 C   0  0  1  0  0  0  0  0  0  0  0  0
   36.5760   30.1440   39.7380 C   0  0  0  0  0  0  0  0  0  0  0  0
   37.0140   28.7260   39.9350 C   0  0  2  0  0  0  0  0  0  0  0  0
   38.5910   29.7120   38.8010 H   0  0  0  0  0  0  0  0  0  0  0  0
   37.0200   30.9400   40.4050 H   0  0  0  0  0  0  0  0  0  0  0  0
   35.5390   30.3900   39.4780 H   0  0  0  0  0  0  0  0  0  0  0  0
   36.2490   27.9670   39.6630 H   0  0  0  0  0  0  0  0  0  0  0  0
   35.6750   29.3740   37.0090 C   0  0  0  0  0  0  0  0  0  0  0  0
   37.0240   29.1810   37.4020 C   0  0  0  0  0  0  0  0  0  0  0  0
   37.8880   28.6150   36.4850 C   0  0  0  0  0  0  0  0  0  0  0  0
   37.3810   28.2810   35.2630 N   0  0  0  0  0  0  0  0  0  0  0  0
   36.0960   28.4730   34.9130 C   0  0  0  0  0  0  0  0  0  0  0  0
   35.2260   29.0230   35.7850 N   0  0  0  0  0  0  0  0  0  0  0  0
   34.9680   29.8150   37.7030 H   0  0  0  0  0  0  0  0  0  0  0  0
   38.9220   28.4430   36.7210 H   0  0  0  0  0  0  0  0  0  0  0  0
   35.8560   28.1500   33.8990 H   0  0  0  0  0  0  0  0  0  0  0  0
  1  6  1  0  0  0  0
  1  2  1  1  0  0  0
  2  3  1  0  0  0  0
  3  9  1  0  0  0  0
  3  4  1  0  0  0  0
  3 10  1  0  0  0  0
  4 11  1  0  0  0  0
  4 12  1  0  0  0  0
  5 13  1  0  0  0  0
  5  4  1  0  0  0  0
  6 15  1  6  0  0  0
  6 17  1  0  0  0  0
  6  5  1  0  0  0  0
  7  2  1  0  0  0  0
  8  2  1  0  0  0  0
 14  5  1  0  0  0  0
 16 22  1  0  0  0  0
 17 16  2  0  0  0  0
 18 17  1  0  0  0  0
 18 20  2  0  0  0  0
 19 18  1  0  0  0  0
 20 26  1  0  0  0  0
 20 21  1  0  0  0  0
 21 22  2  0  0  0  0
 21 23  1  0  0  0  0
 23 24  1  0  0  0  0
 25 24  1  0  0  0  0
 26 24  1  0  0  0  0
 27 30  1  1  0  0  0
 27 28  1  0  0  0  0
 27 29  1  0  0  0  0
 28 29  1  0  0  0  0
 28 31  1  0  0  0  0
 29 33  1  6  0  0  0
 29  1  1  0  0  0  0
 32 28  1  0  0  0  0
 34 35  1  0  0  0  0
 34 40  1  0  0  0  0
 35 27  1  0  0  0  0
 36 41  1  0  0  0  0
 36 35  2  0  0  0  0
 37 36  1  0  0  0  0
 38 37  2  0  0  0  0
 38 39  1  0  0  0  0
 39 34  2  0  0  0  0
 42 38  1  0  0  0  0
M  END
>  <minimizedAffinity>
-5.36302805

$$$$

 OpenBabel03252506443D

 42 46  0  0  1  0  0  0  0  0999 V2000
   37.2680   29.9360   40.1110 N   0  0  1  0  0  0  0  0  0  0  0  0
   35.9450   30.3870   40.4730 C   0  0  0  0  0  0  0  0  0  0  0  0
   34.9190   29.2880   40.3570 C   0  0  0  0  0  0  0  0  0  0  0  0
   34.7220   29.0180   38.8870 C   0  0  0  0  0  0  0  0  0  0  0  0
   36.0550   29.0050   38.1780 C   0  0  0  0  0  0  0  0  0  0  0  0
   37.1810   28.8530   39.1460 C   0  0  2  0  0  0  0  0  0  0  0  0
   35.9210   30.8940   41.4620 H   0  0  0  0  0  0  0  0  0  0  0  0
   35.6340   31.1630   39.7290 H   0  0  0  0  0  0  0  0  0  0  0  0
   35.2330   28.4120   40.9220 H   0  0  0  0  0  0  0  0  0  0  0  0
   34.0000   29.6740   40.8450 H   0  0  0  0  0  0  0  0  0  0  0  0
   34.0100   29.7290   38.4190 H   0  0  0  0  0  0  0  0  0  0  0  0
   34.2640   28.0230   38.7750 H   0  0  0  0  0  0  0  0  0  0  0  0
   36.1360   28.1830   37.4440 H   0  0  0  0  0  0  0  0  0  0  0  0
   36.1850   29.9860   37.6890 H   0  0  0  0  0  0  0  0  0  0  0  0
   38.1130   29.0090   38.5130 H   0  0  0  0  0  0  0  0  0  0  0  0
   38.2160   27.6170   40.8490 C   0  0  0  0  0  3  0  0  0  0  0  0
   37.3480   27.5320   39.7510 C   0  0  0  0  0  0  0  0  0  0  0  0
   36.8420   26.3060   39.4450 C   0  0  0  0  0  0  0  0  0  0  0  0
   36.1950   26.3190   38.5950 H   0  0  0  0  0  0  0  0  0  0  0  0
   37.1690   25.1920   40.1860 C   0  0  0  0  0  0  0  0  0  0  0  0
   38.0160   25.2170   41.2740 C   0  0  0  0  0  0  0  0  0  0  0  0
   38.5320   26.4690   41.5860 C   0  0  0  0  0  3  0  0  0  0  0  0
   38.1530   23.9460   41.8130 O   0  0  0  0  0  0  0  0  0  0  0  0
   37.6680   23.0490   40.8450 C   0  0  0  0  0  3  0  0  0  0  0  0
   37.0420   22.2930   41.3480 H   0  0  0  0  0  0  0  0  0  0  0  0
   36.7870   23.8630   40.0710 O   0  0  0  0  0  0  0  0  0  0  0  0
   39.4130   31.3820   40.1130 C   0  0  1  0  0  0  0  0  0  0  0  0
   38.3020   32.0860   40.7180 C   0  0  0  0  0  0  0  0  0  0  0  0
   37.9930   31.0790   39.6540 C   0  0  2  0  0  0  0  0  0  0  0  0
   39.8820   30.4740   40.5550 H   0  0  0  0  0  0  0  0  0  0  0  0
   38.0870   31.8140   41.7930 H   0  0  0  0  0  0  0  0  0  0  0  0
   38.1440   33.1580   40.5510 H   0  0  0  0  0  0  0  0  0  0  0  0
   37.7340   31.5180   38.6660 H   0  0  0  0  0  0  0  0  0  0  0  0
   40.8800   31.3190   38.0530 C   0  0  0  0  0  0  0  0  0  0  0  0
   40.3190   32.0480   39.1330 C   0  0  0  0  0  0  0  0  0  0  0  0
   40.6430   33.3860   39.2440 C   0  0  0  0  0  0  0  0  0  0  0  0
   41.4790   33.9130   38.3040 N   0  0  0  0  0  0  0  0  0  0  0  0
   42.0000   33.2010   37.2880 C   0  0  0  0  0  0  0  0  0  0  0  0
   41.7050   31.8920   37.1510 N   0  0  0  0  0  0  0  0  0  0  0  0
   40.6500   30.2660   37.9350 H   0  0  0  0  0  0  0  0  0  0  0  0
   40.2500   33.9930   40.0380 H   0  0  0  0  0  0  0  0  0  0  0  0
   42.6500   33.7760   36.6270 H   0  0  0  0  0  0  0  0  0  0  0  0
  1  2  1  6  0  0  0
  2  7  1  0  0  0  0
  3  2  1  0  0  0  0
  3 10  1  0  0  0  0
  3  9  1  0  0  0  0
  4  3  1  0  0  0  0
  5  4  1  0  0  0  0
  5  6  1  0  0  0  0
  6 15  1  6  0  0  0
  6 17  1  0  0  0  0
  6  1  1  0  0  0  0
  8  2  1  0  0  0  0
 11  4  1  0  0  0  0
 12  4  1  0  0  0  0
 13  5  1  0  0  0  0
 14  5  1  0  0  0  0
 16 22  1  0  0  0  0
 17 16  2  0  0  0  0
 18 17  1  0  0  0  0
 18 20  2  0  0  0  0
 19 18  1  0  0  0  0
 20 21  1  0  0  0  0
 21 22  2  0  0  0  0
 21 23  1  0  0  0  0
 24 25  1  0  0  0  0
 24 23  1  0  0  0  0
 26 20  1  0  0  0  0
 26 24  1  0  0  0  0
 27 30  1  1  0  0  0
 27 28  1  0  0  0  0
 28 31  1  0  0  0  0
 29 33  1  6  0  0  0
 29  1  1  0  0  0  0
 29 27  1  0  0  0  0
 29 28  1  0  0  0  0
 32 28  1  0  0  0  0
 34 35  1  0  0  0  0
 35 36  2  0  0  0  0
 35 27  1  0  0  0  0
 36 41  1  0  0  0  0
 37 36  1  0  0  0  0
 38 37  2  0  0  0  0
 39 38  1  0  0  0  0
 39 34  2  0  0  0  0
 40 34  1  0  0  0  0
 42 38  1  0  0  0  0
M  END
>  <minimizedAffinity>
-5.29651928

$$$$

 OpenBabel03252506443D

 42 46  0  0  1  0  0  0  0  0999 V2000
   37.2920   28.6010   41.2910 N   0  0  1  0  0  0  0  0  0  0  0  0
   36.5960   27.9450   42.3730 C   0  0  0  0  0  0  0  0  0  0  0  0
   37.5450   27.4110   43.4170 C   0  0  0  0  0  0  0  0  0  0  0  0
   38.2650   26.2370   42.8040 C   0  0  0  0  0  0  0  0  0  0  0  0
   38.6670   26.5580   41.3840 C   0  0  0  0  0  0  0  0  0  0  0  0
   38.6160   28.0280   41.1260 C   0  0  2  0  0  0  0  0  0  0  0  0
   35.7890   28.5740   42.8070 H   0  0  0  0  0  0  0  0  0  0  0  0
   36.0830   27.0450   41.9510 H   0  0  0  0  0  0  0  0  0  0  0  0
   38.2130   28.1990   43.7630 H   0  0  0  0  0  0  0  0  0  0  0  0
   36.9150   27.1190   44.2830 H   0  0  0  0  0  0  0  0  0  0  0  0
   37.6740   25.3010   42.8660 H   0  0  0  0  0  0  0  0  0  0  0  0
   39.1810   26.0500   43.3860 H   0  0  0  0  0  0  0  0  0  0  0  0
   39.6900   26.2150   41.1470 H   0  0  0  0  0  0  0  0  0  0  0  0
   37.9270   26.0900   40.7120 H   0  0  0  0  0  0  0  0  0  0  0  0
   38.7890   28.1180   40.0060 H   0  0  0  0  0  0  0  0  0  0  0  0
   39.2950   30.1860   41.7440 C   0  0  0  0  0  3  0  0  0  0  0  0
   39.6700   28.8350   41.7400 C   0  0  0  0  0  0  0  0  0  0  0  0
   40.8830   28.5200   42.2710 C   0  0  0  0  0  0  0  0  0  0  0  0
   41.1020   27.4750   42.2280 H   0  0  0  0  0  0  0  0  0  0  0  0
   41.7100   29.4900   42.7910 C   0  0  0  0  0  0  0  0  0  0  0  0
   41.3930   30.8320   42.8210 C   0  0  0  0  0  0  0  0  0  0  0  0
   40.1540   31.1530   42.2790 C   0  0  0  0  0  3  0  0  0  0  0  0
   42.4190   31.5620   43.4030 O   0  0  0  0  0  0  0  0  0  0  0  0
   43.5450   30.7200   43.4210 C   0  0  0  0  0  3  0  0  0  0  0  0
   44.0380   30.8140   44.4040 H   0  0  0  0  0  0  0  0  0  0  0  0
   42.9670   29.4160   43.3750 O   0  0  0  0  0  0  0  0  0  0  0  0
   35.9890   29.7320   39.3620 C   0  0  1  0  0  0  0  0  0  0  0  0
   35.0920   29.0940   40.3030 C   0  0  0  0  0  0  0  0  0  0  0  0
   36.4580   28.5060   40.1350 C   0  0  2  0  0  0  0  0  0  0  0  0
   36.6200   30.6150   39.6140 H   0  0  0  0  0  0  0  0  0  0  0  0
   34.8740   29.6870   41.2400 H   0  0  0  0  0  0  0  0  0  0  0  0
   34.1950   28.5600   39.9660 H   0  0  0  0  0  0  0  0  0  0  0  0
   36.4860   27.5740   39.5290 H   0  0  0  0  0  0  0  0  0  0  0  0
   34.6040   29.0690   37.3530 C   0  0  0  0  0  0  0  0  0  0  0  0
   35.8120   29.5840   37.8890 C   0  0  0  0  0  0  0  0  0  0  0  0
   36.8100   29.9380   37.0030 C   0  0  0  0  0  0  0  0  0  0  0  0
   36.5630   29.7680   35.6730 N   0  0  0  0  0  0  0  0  0  0  0  0
   35.4080   29.2770   35.1870 C   0  0  0  0  0  0  0  0  0  0  0  0
   34.4130   28.9200   36.0240 N   0  0  0  0  0  0  0  0  0  0  0  0
   33.7980   28.7790   38.0180 H   0  0  0  0  0  0  0  0  0  0  0  0
   37.7480   30.3360   37.3460 H   0  0  0  0  0  0  0  0  0  0  0  0
   35.3750   29.2060   34.0990 H   0  0  0  0  0  0  0  0  0  0  0  0
  1  2  1  1  0  0  0
  2  7  1  0  0  0  0
  2  3  1  0  0  0  0
  3  9  1  0  0  0  0
  3 10  1  0  0  0  0
  4 11  1  0  0  0  0
  4 12  1  0  0  0  0
  4  3  1  0  0  0  0
  5  4  1  0  0  0  0
  6 15  1  6  0  0  0
  6  1  1  0  0  0  0
  6  5  1  0  0  0  0
  6 17  1  0  0  0  0
  8  2  1  0  0  0  0
 13  5  1  0  0  0  0
 14  5  1  0  0  0  0
 16 22  1  0  0  0  0
 17 16  2  0  0  0  0
 17 18  1  0  0  0  0
 18 20  2  0  0  0  0
 19 18  1  0  0  0  0
 20 21  1  0  0  0  0
 20 26  1  0  0  0  0
 21 23  1  0  0  0  0
 22 21  2  0  0  0  0
 23 24  1  0  0  0  0
 24 25  1  0  0  0  0
 26 24  1  0  0  0  0
 27 30  1  1  0  0  0
 27 29  1  0  0  0  0
 27 28  1  0  0  0  0
 28 31  1  0  0  0  0
 29 33  1  6  0  0  0
 29 28  1  0  0  0  0
 29  1  1  0  0  0  0
 32 28  1  0  0  0  0
 34 35  1  0  0  0  0
 34 40  1  0  0  0  0
 35 27  1  0  0  0  0
 36 41  1  0  0  0  0
 36 35  2  0  0  0  0
 37 36  1  0  0  0  0
 38 37  2  0  0  0  0
 38 39  1  0  0  0  0
 39 34  2  0  0  0  0
 42 38  1  0  0  0  0
M  END
>  <minimizedAffinity>
-5.27758217

$$$$

 OpenBabel03252506443D

 42 46  0  0  1  0  0  0  0  0999 V2000
   34.6280   28.5040   36.8620 N   0  0  1  0  0  0  0  0  0  0  0  0
   35.1470   27.3380   36.1860 C   0  0  0  0  0  0  0  0  0  0  0  0
   36.5970   27.0880   36.5170 C   0  0  0  0  0  0  0  0  0  0  0  0
   37.3990   28.1730   35.8450 C   0  0  0  0  0  0  0  0  0  0  0  0
   36.7130   29.5080   36.0140 C   0  0  0  0  0  0  0  0  0  0  0  0
   35.6960   29.4580   37.1060 C   0  0  2  0  0  0  0  0  0  0  0  0
   34.5110   26.4380   36.3350 H   0  0  0  0  0  0  0  0  0  0  0  0
   35.1250   27.5440   35.0870 H   0  0  0  0  0  0  0  0  0  0  0  0
   36.7390   27.0460   37.5960 H   0  0  0  0  0  0  0  0  0  0  0  0
   36.8320   26.0780   36.1210 H   0  0  0  0  0  0  0  0  0  0  0  0
   37.6060   27.9450   34.7790 H   0  0  0  0  0  0  0  0  0  0  0  0
   38.3850   28.2290   36.3330 H   0  0  0  0  0  0  0  0  0  0  0  0
   37.4220   30.3190   36.2590 H   0  0  0  0  0  0  0  0  0  0  0  0
   36.1680   29.7260   35.0800 H   0  0  0  0  0  0  0  0  0  0  0  0
   35.1590   30.4570   37.0290 H   0  0  0  0  0  0  0  0  0  0  0  0
   35.1730   29.0790   39.3600 C   0  0  0  0  0  3  0  0  0  0  0  0
   36.2090   29.4060   38.4750 C   0  0  0  0  0  0  0  0  0  0  0  0
   37.4440   29.6150   39.0060 C   0  0  0  0  0  0  0  0  0  0  0  0
   38.1800   29.8650   38.2720 H   0  0  0  0  0  0  0  0  0  0  0  0
   37.6680   29.5090   40.3600 C   0  0  0  0  0  0  0  0  0  0  0  0
   36.6880   29.1910   41.2760 C   0  0  0  0  0  0  0  0  0  0  0  0
   35.4260   28.9770   40.7340 C   0  0  0  0  0  3  0  0  0  0  0  0
   37.2130   29.1580   42.5600 O   0  0  0  0  0  0  0  0  0  0  0  0
   38.4590   29.8080   42.4960 C   0  0  0  0  0  3  0  0  0  0  0  0
   39.1910   29.2200   43.0750 H   0  0  0  0  0  0  0  0  0  0  0  0
   38.8170   29.6720   41.1220 O   0  0  0  0  0  0  0  0  0  0  0  0
   32.1470   29.1970   36.6200 C   0  0  1  0  0  0  0  0  0  0  0  0
   32.4490   28.0280   35.8200 C   0  0  0  0  0  0  0  0  0  0  0  0
   33.5540   29.0080   36.0680 C   0  0  2  0  0  0  0  0  0  0  0  0
   32.1650   29.2030   37.7340 H   0  0  0  0  0  0  0  0  0  0  0  0
   32.4640   27.0490   36.3840 H   0  0  0  0  0  0  0  0  0  0  0  0
   32.0200   27.8940   34.8200 H   0  0  0  0  0  0  0  0  0  0  0  0
   33.7900   29.6630   35.2010 H   0  0  0  0  0  0  0  0  0  0  0  0
   30.6580   31.2150   36.9460 C   0  0  0  0  0  0  0  0  0  0  0  0
   31.3460   30.3320   36.0760 C   0  0  0  0  0  0  0  0  0  0  0  0
   31.2470   30.5580   34.7170 C   0  0  0  0  0  0  0  0  0  0  0  0
   30.4930   31.6170   34.3070 N   0  0  0  0  0  0  0  0  0  0  0  0
   29.8480   32.4430   35.1520 C   0  0  0  0  0  0  0  0  0  0  0  0
   29.9230   32.2500   36.4850 N   0  0  0  0  0  0  0  0  0  0  0  0
   30.7120   31.0690   38.0190 H   0  0  0  0  0  0  0  0  0  0  0  0
   31.7460   29.9250   34.0060 H   0  0  0  0  0  0  0  0  0  0  0  0
   29.2890   33.2400   34.6580 H   0  0  0  0  0  0  0  0  0  0  0  0
  1  2  1  6  0  0  0
  1  6  1  0  0  0  0
  2  7  1  0  0  0  0
  2  3  1  0  0  0  0
  3  9  1  0  0  0  0
  4  5  1  0  0  0  0
  4 12  1  0  0  0  0
  4  3  1  0  0  0  0
  5 13  1  0  0  0  0
  5  6  1  0  0  0  0
  6 15  1  6  0  0  0
  6 17  1  0  0  0  0
  8  2  1  0  0  0  0
 10  3  1  0  0  0  0
 11  4  1  0  0  0  0
 14  5  1  0  0  0  0
 16 22  1  0  0  0  0
 17 18  1  0  0  0  0
 17 16  2  0  0  0  0
 18 20  2  0  0  0  0
 19 18  1  0  0  0  0
 20 26  1  0  0  0  0
 20 21  1  0  0  0  0
 21 23  1  0  0  0  0
 22 21  2  0  0  0  0
 24 23  1  0  0  0  0
 24 25  1  0  0  0  0
 26 24  1  0  0  0  0
 27 30  1  1  0  0  0
 28 29  1  0  0  0  0
 28 31  1  0  0  0  0
 28 27  1  0  0  0  0
 29 33  1  6  0  0  0
 29 27  1  0  0  0  0
 29  1  1  0  0  0  0
 32 28  1  0  0  0  0
 34 40  1  0  0  0  0
 35 27  1  0  0  0  0
 35 34  2  0  0  0  0
 36 35  1  0  0  0  0
 37 36  2  0  0  0  0
 37 38  1  0  0  0  0
 38 39  2  0  0  0  0
 39 34  1  0  0  0  0
 41 36  1  0  0  0  0
 42 38  1  0  0  0  0
M  END
>  <minimizedAffinity>
-5.18140364

$$$$
