
 OpenBabel03242513103D

 43 48  0  0  0  0  0  0  0  0999 V2000
   38.9410   27.8520   40.2370 C   0  0  0  0  0  0  0  0  0  0  0  0
   38.4940   27.3390   41.4600 C   0  0  0  0  0  0  0  0  0  0  0  0
   38.0040   28.2490   42.3730 C   0  0  0  0  0  0  0  0  0  0  0  0
   37.9910   29.5670   42.0200 N   0  0  0  0  0  0  0  0  0  0  0  0
   38.4180   30.0400   40.8580 C   0  0  0  0  0  0  0  0  0  0  0  0
   38.9010   29.1760   39.9480 N   0  0  0  0  0  0  0  0  0  0  0  0
   39.3340   27.1680   39.4930 H   0  0  0  0  0  0  0  0  0  0  0  0
   37.2910   32.0070   39.9150 C   0  0  0  0  0  0  0  0  0  0  0  0
   38.3650   31.4580   40.5740 C   0  0  0  0  0  0  0  0  0  0  0  0
   39.4560   32.2250   41.0050 C   0  0  0  0  0  0  0  0  0  0  0  0
   39.4860   33.5940   40.7730 C   0  0  0  0  0  0  0  0  0  0  0  0
   40.3350   34.6200   41.0310 N   0  0  0  0  0  0  0  0  0  0  0  0
   39.7830   35.7630   40.5370 C   0  0  0  0  0  0  0  0  0  0  0  0
   38.5980   35.4250   39.9790 N   0  0  0  0  0  0  0  0  0  0  0  0
   38.3900   34.1060   40.1100 C   0  0  0  0  0  0  0  0  0  0  0  0
   37.2970   33.3790   39.6710 C   0  0  0  0  0  0  0  0  0  0  0  0
   36.4490   31.4200   39.5820 H   0  0  0  0  0  0  0  0  0  0  0  0
   40.3090   31.7830   41.5290 H   0  0  0  0  0  0  0  0  0  0  0  0
   41.2450   34.4550   41.5350 H   0  0  0  0  0  0  0  0  0  0  0  0
   40.2900   36.7260   40.6270 H   0  0  0  0  0  0  0  0  0  0  0  0
   36.4760   33.8610   39.1560 H   0  0  0  0  0  0  0  0  0  0  0  0
   37.5130   27.7730   43.6870 C   0  0  0  0  0  0  0  0  0  0  0  0
   37.0760   28.8520   44.4690 F   0  0  0  0  0  0  0  0  0  0  0  0
   36.4210   26.9540   43.5260 F   0  0  0  0  0  0  0  0  0  0  0  0
   38.5460   27.1300   44.3270 F   0  0  0  0  0  0  0  0  0  0  0  0
   38.5620   26.0030   41.6820 O   0  0  0  0  0  0  0  0  0  0  0  0
   37.8100   25.0940   40.9810 C   0  0  0  0  0  0  0  0  0  0  0  0
   38.5620   23.9280   41.0600 C   0  0  0  0  0  0  0  0  0  0  0  0
   37.5410   22.7110   40.1150 S   0  0  0  0  0  0  0  0  0  0  0  0
   36.2530   24.0280   39.7760 C   0  0  0  0  0  0  0  0  0  0  0  0
   36.7290   24.8740   40.3000 N   0  0  0  0  0  0  0  0  0  0  0  0
   39.5280   23.4060   41.4530 H   0  0  0  0  0  0  0  0  0  0  0  0
   34.8030   24.1830   37.7610 C   0  0  0  0  0  3  0  0  0  0  0  0
   35.0590   23.6510   38.9840 C   0  0  0  0  0  0  0  0  0  0  0  0
   34.2880   22.7250   39.6480 C   0  0  0  0  0  0  0  0  0  0  0  0
   34.5040   22.3100   40.6220 H   0  0  0  0  0  0  0  0  0  0  0  0
   33.1250   22.2820   39.0080 C   0  0  0  0  0  0  0  0  0  0  0  0
   32.8530   22.8200   37.7550 C   0  0  0  0  0  0  0  0  0  0  0  0
   33.6570   23.7610   37.1040 C   0  0  0  0  0  3  0  0  0  0  0  0
   31.6510   22.2270   37.3260 O   0  0  0  0  0  0  0  0  0  0  0  0
   31.4320   21.0340   38.0830 C   0  0  0  0  0  3  0  0  0  0  0  0
   30.3720   20.8350   38.2440 H   0  0  0  0  0  0  0  0  0  0  0  0
   32.0910   21.3810   39.3100 O   0  0  0  0  0  0  0  0  0  0  0  0
  1  2  1  0  0  0  0
  2 26  1  0  0  0  0
  2  3  2  0  0  0  0
  3 22  1  0  0  0  0
  4  3  1  0  0  0  0
  5  4  2  0  0  0  0
  6  1  2  0  0  0  0
  6  5  1  0  0  0  0
  7  1  1  0  0  0  0
  8  9  1  0  0  0  0
  9  5  1  0  0  0  0
  9 10  2  0  0  0  0
 10 18  1  0  0  0  0
 11 10  1  0  0  0  0
 11 12  1  0  0  0  0
 12 19  1  0  0  0  0
 13 20  1  0  0  0  0
 13 12  1  0  0  0  0
 14 15  1  0  0  0  0
 14 13  2  0  0  0  0
 15 11  2  0  0  0  0
 16  8  2  0  0  0  0
 16 15  1  0  0  0  0
 17  8  1  0  0  0  0
 21 16  1  0  0  0  0
 22 25  1  0  0  0  0
 22 23  1  0  0  0  0
 24 22  1  0  0  0  0
 27 28  2  0  0  0  0
 27 26  1  0  0  0  0
 28 32  1  0  0  0  0
 29 28  1  0  0  0  0
 30 29  1  0  0  0  0
 30 31  2  0  0  0  0
 31 27  1  0  0  0  0
 33 34  1  0  0  0  0
 34 35  2  0  0  0  0
 34 30  1  0  0  0  0
 35 36  1  0  0  0  0
 37 43  1  0  0  0  0
 37 35  1  0  0  0  0
 38 37  2  0  0  0  0
 39 38  1  0  0  0  0
 39 33  2  0  0  0  0
 40 38  1  0  0  0  0
 40 41  1  0  0  0  0
 41 42  1  0  0  0  0
 41 43  1  0  0  0  0
M  END
>  <minimizedAffinity>
-7.48191881

$$$$

 OpenBabel03242513103D

 43 48  0  0  0  0  0  0  0  0999 V2000
   38.9240   27.8270   40.3050 C   0  0  0  0  0  0  0  0  0  0  0  0
   38.4790   27.3320   41.5360 C   0  0  0  0  0  0  0  0  0  0  0  0
   37.9870   28.2540   42.4350 C   0  0  0  0  0  0  0  0  0  0  0  0
   37.9690   29.5670   42.0610 N   0  0  0  0  0  0  0  0  0  0  0  0
   38.3930   30.0220   40.8910 C   0  0  0  0  0  0  0  0  0  0  0  0
   38.8780   29.1460   39.9950 N   0  0  0  0  0  0  0  0  0  0  0  0
   39.3180   27.1320   39.5720 H   0  0  0  0  0  0  0  0  0  0  0  0
   37.2610   31.9690   39.9120 C   0  0  0  0  0  0  0  0  0  0  0  0
   38.3350   31.4360   40.5840 C   0  0  0  0  0  0  0  0  0  0  0  0
   39.4190   32.2150   41.0080 C   0  0  0  0  0  0  0  0  0  0  0  0
   39.4430   33.5810   40.7550 C   0  0  0  0  0  0  0  0  0  0  0  0
   40.2870   34.6140   41.0010 N   0  0  0  0  0  0  0  0  0  0  0  0
   39.7320   35.7470   40.4860 C   0  0  0  0  0  0  0  0  0  0  0  0
   38.5510   35.3940   39.9280 N   0  0  0  0  0  0  0  0  0  0  0  0
   38.3490   34.0760   40.0780 C   0  0  0  0  0  0  0  0  0  0  0  0
   37.2620   33.3370   39.6460 C   0  0  0  0  0  0  0  0  0  0  0  0
   36.4230   31.3730   39.5840 H   0  0  0  0  0  0  0  0  0  0  0  0
   40.2720   31.7860   41.5440 H   0  0  0  0  0  0  0  0  0  0  0  0
   41.1940   34.4620   41.5120 H   0  0  0  0  0  0  0  0  0  0  0  0
   40.2330   36.7130   40.5630 H   0  0  0  0  0  0  0  0  0  0  0  0
   36.4410   33.8070   39.1190 H   0  0  0  0  0  0  0  0  0  0  0  0
   37.4990   27.7980   43.7570 C   0  0  0  0  0  0  0  0  0  0  0  0
   37.1490   28.8950   44.5580 F   0  0  0  0  0  0  0  0  0  0  0  0
   36.3550   27.0500   43.6170 F   0  0  0  0  0  0  0  0  0  0  0  0
   38.5040   27.0860   44.3670 F   0  0  0  0  0  0  0  0  0  0  0  0
   38.5530   26.0000   41.7800 O   0  0  0  0  0  0  0  0  0  0  0  0
   37.8310   25.0740   41.0680 C   0  0  0  0  0  0  0  0  0  0  0  0
   38.6410   23.9450   41.1020 C   0  0  0  0  0  0  0  0  0  0  0  0
   37.6610   22.7040   40.1430 S   0  0  0  0  0  0  0  0  0  0  0  0
   36.3050   23.9650   39.8640 C   0  0  0  0  0  0  0  0  0  0  0  0
   36.7490   24.8200   40.4020 N   0  0  0  0  0  0  0  0  0  0  0  0
   39.6390   23.4600   41.4620 H   0  0  0  0  0  0  0  0  0  0  0  0
   34.1330   22.7770   39.6170 C   0  0  0  0  0  3  0  0  0  0  0  0
   35.1150   23.5500   39.0840 C   0  0  0  0  0  0  0  0  0  0  0  0
   35.1580   24.0450   37.8020 C   0  0  0  0  0  0  0  0  0  0  0  0
   35.9450   24.6590   37.3910 H   0  0  0  0  0  0  0  0  0  0  0  0
   34.0890   23.7260   36.9560 C   0  0  0  0  0  0  0  0  0  0  0  0
   33.0780   22.9350   37.4910 C   0  0  0  0  0  0  0  0  0  0  0  0
   33.0630   22.4470   38.8010 C   0  0  0  0  0  3  0  0  0  0  0  0
   32.1350   22.7560   36.4620 O   0  0  0  0  0  0  0  0  0  0  0  0
   32.3320   23.7720   35.4760 C   0  0  0  0  0  3  0  0  0  0  0  0
   32.0910   23.4260   34.4710 H   0  0  0  0  0  0  0  0  0  0  0  0
   33.7400   24.0080   35.6250 O   0  0  0  0  0  0  0  0  0  0  0  0
  1  2  1  0  0  0  0
  2 26  1  0  0  0  0
  2  3  2  0  0  0  0
  3 22  1  0  0  0  0
  4  3  1  0  0  0  0
  5  4  2  0  0  0  0
  6  1  2  0  0  0  0
  6  5  1  0  0  0  0
  7  1  1  0  0  0  0
  8  9  1  0  0  0  0
  9  5  1  0  0  0  0
  9 10  2  0  0  0  0
 10 18  1  0  0  0  0
 11 12  1  0  0  0  0
 11 10  1  0  0  0  0
 12 19  1  0  0  0  0
 13 20  1  0  0  0  0
 13 12  1  0  0  0  0
 14 15  1  0  0  0  0
 14 13  2  0  0  0  0
 15 11  2  0  0  0  0
 16  8  2  0  0  0  0
 16 15  1  0  0  0  0
 17  8  1  0  0  0  0
 21 16  1  0  0  0  0
 22 25  1  0  0  0  0
 22 23  1  0  0  0  0
 24 22  1  0  0  0  0
 27 28  2  0  0  0  0
 27 26  1  0  0  0  0
 28 32  1  0  0  0  0
 29 28  1  0  0  0  0
 30 29  1  0  0  0  0
 30 31  2  0  0  0  0
 31 27  1  0  0  0  0
 34 33  1  0  0  0  0
 34 30  1  0  0  0  0
 35 34  2  0  0  0  0
 36 35  1  0  0  0  0
 37 38  2  0  0  0  0
 37 35  1  0  0  0  0
 38 39  1  0  0  0  0
 39 33  2  0  0  0  0
 40 38  1  0  0  0  0
 41 43  1  0  0  0  0
 41 40  1  0  0  0  0
 42 41  1  0  0  0  0
 43 37  1  0  0  0  0
M  END
>  <minimizedAffinity>
-7.40708637

$$$$

 OpenBabel03242513103D

 43 48  0  0  0  0  0  0  0  0999 V2000
   36.4420   28.2480   40.2530 C   0  0  0  0  0  0  0  0  0  0  0  0
   37.0350   28.5850   41.4750 C   0  0  0  0  0  0  0  0  0  0  0  0
   37.5470   27.5470   42.2250 C   0  0  0  0  0  0  0  0  0  0  0  0
   37.4370   26.2810   41.7250 N   0  0  0  0  0  0  0  0  0  0  0  0
   36.8730   25.9760   40.5660 C   0  0  0  0  0  0  0  0  0  0  0  0
   36.3660   26.9670   39.8130 N   0  0  0  0  0  0  0  0  0  0  0  0
   36.0280   29.0370   39.6350 H   0  0  0  0  0  0  0  0  0  0  0  0
   35.9070   24.2180   39.1500 C   0  0  0  0  0  0  0  0  0  0  0  0
   36.8040   24.6010   40.1180 C   0  0  0  0  0  0  0  0  0  0  0  0
   37.6920   23.7000   40.7200 C   0  0  0  0  0  0  0  0  0  0  0  0
   37.6930   22.3610   40.3490 C   0  0  0  0  0  0  0  0  0  0  0  0
   38.3770   21.2420   40.6950 N   0  0  0  0  0  0  0  0  0  0  0  0
   37.9010   20.2060   39.9500 C   0  0  0  0  0  0  0  0  0  0  0  0
   36.9270   20.7020   39.1530 N   0  0  0  0  0  0  0  0  0  0  0  0
   36.7790   22.0170   39.3760 C   0  0  0  0  0  0  0  0  0  0  0  0
   35.8880   22.8790   38.7600 C   0  0  0  0  0  0  0  0  0  0  0  0
   35.2210   24.9070   38.6840 H   0  0  0  0  0  0  0  0  0  0  0  0
   38.4050   24.0100   41.4910 H   0  0  0  0  0  0  0  0  0  0  0  0
   39.1320   21.2750   41.4280 H   0  0  0  0  0  0  0  0  0  0  0  0
   38.3020   19.1960   40.0550 H   0  0  0  0  0  0  0  0  0  0  0  0
   35.2010   22.5250   38.0020 H   0  0  0  0  0  0  0  0  0  0  0  0
   38.1890   27.8340   43.5280 C   0  0  0  0  0  0  0  0  0  0  0  0
   39.1440   28.8520   43.3920 F   0  0  0  0  0  0  0  0  0  0  0  0
   37.2630   28.3000   44.4300 F   0  0  0  0  0  0  0  0  0  0  0  0
   38.8010   26.6850   43.9710 F   0  0  0  0  0  0  0  0  0  0  0  0
   37.0780   29.8860   41.8530 O   0  0  0  0  0  0  0  0  0  0  0  0
   37.6680   30.8630   41.0900 C   0  0  0  0  0  0  0  0  0  0  0  0
   36.5850   31.5710   40.5830 C   0  0  0  0  0  0  0  0  0  0  0  0
   37.3900   32.8820   39.5590 S   0  0  0  0  0  0  0  0  0  0  0  0
   39.0820   32.2220   40.0110 C   0  0  0  0  0  0  0  0  0  0  0  0
   38.7740   31.3840   40.6590 N   0  0  0  0  0  0  0  0  0  0  0  0
   35.4260   31.6880   40.5280 H   0  0  0  0  0  0  0  0  0  0  0  0
   40.5110   34.2280   39.6610 C   0  0  0  0  0  3  0  0  0  0  0  0
   40.2720   32.9070   39.4530 C   0  0  0  0  0  0  0  0  0  0  0  0
   41.0570   32.0400   38.7290 C   0  0  0  0  0  0  0  0  0  0  0  0
   40.8550   30.9910   38.5710 H   0  0  0  0  0  0  0  0  0  0  0  0
   42.2170   32.5620   38.1450 C   0  0  0  0  0  0  0  0  0  0  0  0
   42.4720   33.9130   38.3510 C   0  0  0  0  0  0  0  0  0  0  0  0
   41.6540   34.7700   39.0940 C   0  0  0  0  0  3  0  0  0  0  0  0
   43.6740   34.1930   37.6760 O   0  0  0  0  0  0  0  0  0  0  0  0
   44.3680   32.9650   37.4460 C   0  0  0  0  0  3  0  0  0  0  0  0
   44.9450   32.9820   36.5200 H   0  0  0  0  0  0  0  0  0  0  0  0
   43.2620   32.0550   37.3550 O   0  0  0  0  0  0  0  0  0  0  0  0
  1  2  1  0  0  0  0
  2 26  1  0  0  0  0
  2  3  2  0  0  0  0
  3 22  1  0  0  0  0
  4  3  1  0  0  0  0
  5  4  2  0  0  0  0
  6  1  2  0  0  0  0
  6  5  1  0  0  0  0
  7  1  1  0  0  0  0
  8  9  1  0  0  0  0
  9  5  1  0  0  0  0
  9 10  2  0  0  0  0
 10 18  1  0  0  0  0
 11 12  1  0  0  0  0
 11 10  1  0  0  0  0
 12 19  1  0  0  0  0
 13 20  1  0  0  0  0
 13 12  1  0  0  0  0
 14 15  1  0  0  0  0
 14 13  2  0  0  0  0
 15 11  2  0  0  0  0
 16  8  2  0  0  0  0
 16 15  1  0  0  0  0
 17  8  1  0  0  0  0
 21 16  1  0  0  0  0
 22 25  1  0  0  0  0
 22 24  1  0  0  0  0
 23 22  1  0  0  0  0
 27 26  1  0  0  0  0
 28 27  2  0  0  0  0
 29 30  1  0  0  0  0
 29 28  1  0  0  0  0
 30 31  2  0  0  0  0
 31 27  1  0  0  0  0
 32 28  1  0  0  0  0
 34 33  1  0  0  0  0
 34 30  1  0  0  0  0
 35 34  2  0  0  0  0
 36 35  1  0  0  0  0
 37 38  2  0  0  0  0
 37 35  1  0  0  0  0
 38 39  1  0  0  0  0
 39 33  2  0  0  0  0
 40 38  1  0  0  0  0
 41 40  1  0  0  0  0
 42 41  1  0  0  0  0
 43 41  1  0  0  0  0
 43 37  1  0  0  0  0
M  END
>  <minimizedAffinity>
-7.33804369

$$$$

 OpenBabel03242513103D

 43 48  0  0  0  0  0  0  0  0999 V2000
   37.1910   27.9190   39.9850 C   0  0  0  0  0  0  0  0  0  0  0  0
   37.1130   27.4230   41.2910 C   0  0  0  0  0  0  0  0  0  0  0  0
   37.2880   28.3320   42.3130 C   0  0  0  0  0  0  0  0  0  0  0  0
   37.5220   29.6350   41.9770 N   0  0  0  0  0  0  0  0  0  0  0  0
   37.5940   30.0910   40.7360 C   0  0  0  0  0  0  0  0  0  0  0  0
   37.4270   29.2280   39.7200 N   0  0  0  0  0  0  0  0  0  0  0  0
   37.0590   27.2340   39.1550 H   0  0  0  0  0  0  0  0  0  0  0  0
   36.9570   32.2510   39.7570 C   0  0  0  0  0  0  0  0  0  0  0  0
   37.8470   31.4930   40.4790 C   0  0  0  0  0  0  0  0  0  0  0  0
   39.0340   32.0230   41.0030 C   0  0  0  0  0  0  0  0  0  0  0  0
   39.3540   33.3600   40.8040 C   0  0  0  0  0  0  0  0  0  0  0  0
   40.3690   34.1920   41.1430 N   0  0  0  0  0  0  0  0  0  0  0  0
   40.0960   35.4260   40.6360 C   0  0  0  0  0  0  0  0  0  0  0  0
   38.9120   35.3370   39.9870 N   0  0  0  0  0  0  0  0  0  0  0  0
   38.4350   34.0850   40.0740 C   0  0  0  0  0  0  0  0  0  0  0  0
   37.2550   33.5960   39.5420 C   0  0  0  0  0  0  0  0  0  0  0  0
   36.0420   31.8480   39.3510 H   0  0  0  0  0  0  0  0  0  0  0  0
   39.7400   31.4160   41.5780 H   0  0  0  0  0  0  0  0  0  0  0  0
   41.1870   33.8450   41.7080 H   0  0  0  0  0  0  0  0  0  0  0  0
   40.7760   36.2670   40.7820 H   0  0  0  0  0  0  0  0  0  0  0  0
   36.5880   34.2360   38.9800 H   0  0  0  0  0  0  0  0  0  0  0  0
   37.2160   27.8740   43.7190 C   0  0  0  0  0  0  0  0  0  0  0  0
   37.2200   28.9700   44.5940 F   0  0  0  0  0  0  0  0  0  0  0  0
   36.0370   27.2080   43.9500 F   0  0  0  0  0  0  0  0  0  0  0  0
   38.3110   27.0810   43.9720 F   0  0  0  0  0  0  0  0  0  0  0  0
   36.8730   26.1020   41.4840 O   0  0  0  0  0  0  0  0  0  0  0  0
   37.5020   25.1190   40.7610 C   0  0  0  0  0  0  0  0  0  0  0  0
   36.6110   24.0550   40.8270 C   0  0  0  0  0  0  0  0  0  0  0  0
   37.4660   22.7380   39.8500 S   0  0  0  0  0  0  0  0  0  0  0  0
   38.9050   23.8900   39.5240 C   0  0  0  0  0  0  0  0  0  0  0  0
   38.5430   24.7800   40.0670 N   0  0  0  0  0  0  0  0  0  0  0  0
   35.5900   23.6500   41.2200 H   0  0  0  0  0  0  0  0  0  0  0  0
   40.0310   22.1440   38.1560 C   0  0  0  0  0  3  0  0  0  0  0  0
   40.0370   23.3830   38.7130 C   0  0  0  0  0  0  0  0  0  0  0  0
   41.0450   24.3140   38.6190 C   0  0  0  0  0  0  0  0  0  0  0  0
   41.0370   25.2970   39.0680 H   0  0  0  0  0  0  0  0  0  0  0  0
   42.1780   23.9600   37.8780 C   0  0  0  0  0  0  0  0  0  0  0  0
   42.1830   22.6940   37.3030 C   0  0  0  0  0  0  0  0  0  0  0  0
   41.1410   21.7670   37.4170 C   0  0  0  0  0  3  0  0  0  0  0  0
   43.4080   22.5770   36.6230 O   0  0  0  0  0  0  0  0  0  0  0  0
   43.9400   23.8860   36.4060 C   0  0  0  0  0  3  0  0  0  0  0  0
   45.0310   23.8980   36.4230 H   0  0  0  0  0  0  0  0  0  0  0  0
   43.3910   24.5790   37.5370 O   0  0  0  0  0  0  0  0  0  0  0  0
  1  2  1  0  0  0  0
  2 26  1  0  0  0  0
  2  3  2  0  0  0  0
  3 22  1  0  0  0  0
  4  3  1  0  0  0  0
  5  4  2  0  0  0  0
  6  1  2  0  0  0  0
  6  5  1  0  0  0  0
  7  1  1  0  0  0  0
  8  9  1  0  0  0  0
  9  5  1  0  0  0  0
  9 10  2  0  0  0  0
 10 18  1  0  0  0  0
 11 10  1  0  0  0  0
 11 12  1  0  0  0  0
 12 19  1  0  0  0  0
 13 20  1  0  0  0  0
 13 12  1  0  0  0  0
 14 15  1  0  0  0  0
 14 13  2  0  0  0  0
 15 11  2  0  0  0  0
 16  8  2  0  0  0  0
 16 15  1  0  0  0  0
 17  8  1  0  0  0  0
 21 16  1  0  0  0  0
 22 24  1  0  0  0  0
 22 25  1  0  0  0  0
 22 23  1  0  0  0  0
 27 28  2  0  0  0  0
 27 26  1  0  0  0  0
 28 32  1  0  0  0  0
 29 28  1  0  0  0  0
 30 29  1  0  0  0  0
 30 31  2  0  0  0  0
 31 27  1  0  0  0  0
 33 34  1  0  0  0  0
 34 30  1  0  0  0  0
 35 34  2  0  0  0  0
 35 36  1  0  0  0  0
 37 35  1  0  0  0  0
 38 39  1  0  0  0  0
 38 37  2  0  0  0  0
 39 33  2  0  0  0  0
 40 38  1  0  0  0  0
 41 42  1  0  0  0  0
 41 40  1  0  0  0  0
 41 43  1  0  0  0  0
 43 37  1  0  0  0  0
M  END
>  <minimizedAffinity>
-7.14061737

$$$$

 OpenBabel03242513103D

 43 48  0  0  0  0  0  0  0  0999 V2000
   36.7400   27.9610   41.5050 C   0  0  0  0  0  0  0  0  0  0  0  0
   37.7920   27.3250   42.1760 C   0  0  0  0  0  0  0  0  0  0  0  0
   38.9300   28.0720   42.3960 C   0  0  0  0  0  0  0  0  0  0  0  0
   38.9460   29.3620   41.9490 N   0  0  0  0  0  0  0  0  0  0  0  0
   37.9440   29.9520   41.3150 C   0  0  0  0  0  0  0  0  0  0  0  0
   36.8210   29.2490   41.0860 N   0  0  0  0  0  0  0  0  0  0  0  0
   35.8290   27.4060   41.3130 H   0  0  0  0  0  0  0  0  0  0  0  0
   37.0590   31.9140   40.1350 C   0  0  0  0  0  0  0  0  0  0  0  0
   38.0550   31.3270   40.8770 C   0  0  0  0  0  0  0  0  0  0  0  0
   39.2180   32.0120   41.2510 C   0  0  0  0  0  0  0  0  0  0  0  0
   39.4050   33.3360   40.8740 C   0  0  0  0  0  0  0  0  0  0  0  0
   40.3600   34.2840   41.0410 N   0  0  0  0  0  0  0  0  0  0  0  0
   39.9470   35.4190   40.4120 C   0  0  0  0  0  0  0  0  0  0  0  0
   38.7400   35.1540   39.8630 N   0  0  0  0  0  0  0  0  0  0  0  0
   38.3830   33.8880   40.1300 C   0  0  0  0  0  0  0  0  0  0  0  0
   37.2220   33.2420   39.7430 C   0  0  0  0  0  0  0  0  0  0  0  0
   36.1610   31.3910   39.8440 H   0  0  0  0  0  0  0  0  0  0  0  0
   40.0080   31.5400   41.8430 H   0  0  0  0  0  0  0  0  0  0  0  0
   41.2380   34.0770   41.5850 H   0  0  0  0  0  0  0  0  0  0  0  0
   40.5570   36.3250   40.4110 H   0  0  0  0  0  0  0  0  0  0  0  0
   36.4680   33.7520   39.1570 H   0  0  0  0  0  0  0  0  0  0  0  0
   40.0800   27.4610   43.1010 C   0  0  0  0  0  0  0  0  0  0  0  0
   41.0110   28.4430   43.4670 F   0  0  0  0  0  0  0  0  0  0  0  0
   39.6690   26.8710   44.2730 F   0  0  0  0  0  0  0  0  0  0  0  0
   40.6750   26.5560   42.2540 F   0  0  0  0  0  0  0  0  0  0  0  0
   37.6430   26.0360   42.5680 O   0  0  0  0  0  0  0  0  0  0  0  0
   37.3230   25.0260   41.6950 C   0  0  0  0  0  0  0  0  0  0  0  0
   38.4780   24.2530   41.6640 C   0  0  0  0  0  0  0  0  0  0  0  0
   38.0370   22.8970   40.4870 S   0  0  0  0  0  0  0  0  0  0  0  0
   36.3340   23.6370   40.2440 C   0  0  0  0  0  0  0  0  0  0  0  0
   36.4270   24.5090   40.9140 N   0  0  0  0  0  0  0  0  0  0  0  0
   39.5680   24.0980   42.0480 H   0  0  0  0  0  0  0  0  0  0  0  0
   34.0830   22.7830   39.6200 C   0  0  0  0  0  3  0  0  0  0  0  0
   35.3980   22.9500   39.3240 C   0  0  0  0  0  0  0  0  0  0  0  0
   36.0360   22.5270   38.1820 C   0  0  0  0  0  0  0  0  0  0  0  0
   37.0840   22.6670   37.9590 H   0  0  0  0  0  0  0  0  0  0  0  0
   35.2630   21.8600   37.2250 C   0  0  0  0  0  0  0  0  0  0  0  0
   33.9150   21.6840   37.5170 C   0  0  0  0  0  0  0  0  0  0  0  0
   33.2940   22.1250   38.6900 C   0  0  0  0  0  3  0  0  0  0  0  0
   33.3620   20.9980   36.4200 O   0  0  0  0  0  0  0  0  0  0  0  0
   34.2340   21.1500   35.2970 C   0  0  0  0  0  3  0  0  0  0  0  0
   34.2210   20.2770   34.6420 H   0  0  0  0  0  0  0  0  0  0  0  0
   35.4970   21.2820   35.9660 O   0  0  0  0  0  0  0  0  0  0  0  0
  1  2  1  0  0  0  0
  2  3  2  0  0  0  0
  2 26  1  0  0  0  0
  3 22  1  0  0  0  0
  4  3  1  0  0  0  0
  5  4  2  0  0  0  0
  6  5  1  0  0  0  0
  6  1  2  0  0  0  0
  7  1  1  0  0  0  0
  8  9  1  0  0  0  0
  9 10  2  0  0  0  0
  9  5  1  0  0  0  0
 10 18  1  0  0  0  0
 11 12  1  0  0  0  0
 11 10  1  0  0  0  0
 12 19  1  0  0  0  0
 13 12  1  0  0  0  0
 14 15  1  0  0  0  0
 14 13  2  0  0  0  0
 15 11  2  0  0  0  0
 16 15  1  0  0  0  0
 16  8  2  0  0  0  0
 17  8  1  0  0  0  0
 20 13  1  0  0  0  0
 21 16  1  0  0  0  0
 22 23  1  0  0  0  0
 22 24  1  0  0  0  0
 25 22  1  0  0  0  0
 27 26  1  0  0  0  0
 28 27  2  0  0  0  0
 28 32  1  0  0  0  0
 29 28  1  0  0  0  0
 30 29  1  0  0  0  0
 30 31  2  0  0  0  0
 31 27  1  0  0  0  0
 34 33  1  0  0  0  0
 34 30  1  0  0  0  0
 35 34  2  0  0  0  0
 36 35  1  0  0  0  0
 37 38  2  0  0  0  0
 37 35  1  0  0  0  0
 38 39  1  0  0  0  0
 39 33  2  0  0  0  0
 40 38  1  0  0  0  0
 41 43  1  0  0  0  0
 41 40  1  0  0  0  0
 42 41  1  0  0  0  0
 43 37  1  0  0  0  0
M  END
>  <minimizedAffinity>
-6.95262146

$$$$

 OpenBabel03242513103D

 43 48  0  0  0  0  0  0  0  0999 V2000
   37.5890   30.6240   40.9590 C   0  0  0  0  0  0  0  0  0  0  0  0
   37.2140   29.5100   41.7190 C   0  0  0  0  0  0  0  0  0  0  0  0
   38.1340   29.0430   42.6340 C   0  0  0  0  0  0  0  0  0  0  0  0
   39.3290   29.6950   42.7300 N   0  0  0  0  0  0  0  0  0  0  0  0
   39.6730   30.7480   42.0040 C   0  0  0  0  0  0  0  0  0  0  0  0
   38.7960   31.2260   41.1040 N   0  0  0  0  0  0  0  0  0  0  0  0
   36.8930   31.0200   40.2290 H   0  0  0  0  0  0  0  0  0  0  0  0
   41.8190   30.9680   43.1750 C   0  0  0  0  0  0  0  0  0  0  0  0
   40.9670   31.3730   42.1760 C   0  0  0  0  0  0  0  0  0  0  0  0
   41.2930   32.3980   41.2780 C   0  0  0  0  0  0  0  0  0  0  0  0
   42.5160   33.0500   41.3720 C   0  0  0  0  0  0  0  0  0  0  0  0
   43.1560   34.0470   40.7110 N   0  0  0  0  0  0  0  0  0  0  0  0
   44.3680   34.2380   41.3000 C   0  0  0  0  0  0  0  0  0  0  0  0
   44.4600   33.3540   42.3210 N   0  0  0  0  0  0  0  0  0  0  0  0
   43.3410   32.6150   42.3880 C   0  0  0  0  0  0  0  0  0  0  0  0
   43.0520   31.6080   43.2910 C   0  0  0  0  0  0  0  0  0  0  0  0
   41.5720   30.1800   43.8700 H   0  0  0  0  0  0  0  0  0  0  0  0
   40.6110   32.7160   40.4840 H   0  0  0  0  0  0  0  0  0  0  0  0
   42.7040   34.5280   39.8910 H   0  0  0  0  0  0  0  0  0  0  0  0
   45.0660   34.9950   40.9370 H   0  0  0  0  0  0  0  0  0  0  0  0
   43.7600   31.3280   44.0610 H   0  0  0  0  0  0  0  0  0  0  0  0
   37.8000   27.8680   43.4720 C   0  0  0  0  0  0  0  0  0  0  0  0
   37.2550   26.8420   42.6860 F   0  0  0  0  0  0  0  0  0  0  0  0
   38.9340   27.3460   44.0450 F   0  0  0  0  0  0  0  0  0  0  0  0
   36.8820   28.2580   44.4180 F   0  0  0  0  0  0  0  0  0  0  0  0
   35.9910   28.9570   41.5240 O   0  0  0  0  0  0  0  0  0  0  0  0
   35.4670   28.7350   40.2750 C   0  0  0  0  0  0  0  0  0  0  0  0
   36.2030   27.6510   39.8090 C   0  0  0  0  0  0  0  0  0  0  0  0
   35.4900   27.3590   38.1280 S   0  0  0  0  0  0  0  0  0  0  0  0
   34.3010   28.7860   38.3650 C   0  0  0  0  0  0  0  0  0  0  0  0
   34.6040   29.0980   39.3790 N   0  0  0  0  0  0  0  0  0  0  0  0
   37.0470   26.8740   40.0160 H   0  0  0  0  0  0  0  0  0  0  0  0
   33.6980   28.9520   35.9570 C   0  0  0  0  0  3  0  0  0  0  0  0
   33.3610   29.1030   37.2640 C   0  0  0  0  0  0  0  0  0  0  0  0
   32.1540   29.5510   37.7480 C   0  0  0  0  0  0  0  0  0  0  0  0
   31.8980   29.6650   38.7910 H   0  0  0  0  0  0  0  0  0  0  0  0
   31.1710   29.8860   36.8090 C   0  0  0  0  0  0  0  0  0  0  0  0
   31.5060   29.7360   35.4680 C   0  0  0  0  0  0  0  0  0  0  0  0
   32.7440   29.2770   35.0060 C   0  0  0  0  0  3  0  0  0  0  0  0
   30.3730   30.1310   34.7340 O   0  0  0  0  0  0  0  0  0  0  0  0
   29.2320   30.0910   35.5950 C   0  0  0  0  0  3  0  0  0  0  0  0
   28.4950   30.8540   35.3410 H   0  0  0  0  0  0  0  0  0  0  0  0
   29.8520   30.3650   36.8600 O   0  0  0  0  0  0  0  0  0  0  0  0
  1  6  2  0  0  0  0
  1  2  1  0  0  0  0
  2  3  2  0  0  0  0
  3  4  1  0  0  0  0
  3 22  1  0  0  0  0
  5  9  1  0  0  0  0
  5  4  2  0  0  0  0
  6  5  1  0  0  0  0
  7  1  1  0  0  0  0
  8 16  1  0  0  0  0
  8 17  1  0  0  0  0
  9  8  2  0  0  0  0
 10 11  2  0  0  0  0
 10  9  1  0  0  0  0
 11 15  1  0  0  0  0
 12 13  1  0  0  0  0
 12 11  1  0  0  0  0
 13 14  2  0  0  0  0
 14 15  1  0  0  0  0
 15 16  2  0  0  0  0
 16 21  1  0  0  0  0
 18 10  1  0  0  0  0
 19 12  1  0  0  0  0
 20 13  1  0  0  0  0
 22 24  1  0  0  0  0
 22 25  1  0  0  0  0
 23 22  1  0  0  0  0
 26  2  1  0  0  0  0
 27 26  1  0  0  0  0
 28 32  1  0  0  0  0
 28 27  2  0  0  0  0
 29 30  1  0  0  0  0
 29 28  1  0  0  0  0
 30 31  2  0  0  0  0
 31 27  1  0  0  0  0
 33 34  1  0  0  0  0
 34 35  2  0  0  0  0
 34 30  1  0  0  0  0
 35 36  1  0  0  0  0
 37 43  1  0  0  0  0
 37 35  1  0  0  0  0
 38 37  2  0  0  0  0
 39 38  1  0  0  0  0
 39 33  2  0  0  0  0
 40 38  1  0  0  0  0
 40 41  1  0  0  0  0
 41 43  1  0  0  0  0
 42 41  1  0  0  0  0
M  END
>  <minimizedAffinity>
-6.8633275

$$$$

 OpenBabel03242513103D

 43 48  0  0  0  0  0  0  0  0999 V2000
   39.0660   27.8550   40.3410 C   0  0  0  0  0  0  0  0  0  0  0  0
   38.5880   27.3490   41.5560 C   0  0  0  0  0  0  0  0  0  0  0  0
   38.0460   28.2600   42.4370 C   0  0  0  0  0  0  0  0  0  0  0  0
   38.0150   29.5720   42.0640 N   0  0  0  0  0  0  0  0  0  0  0  0
   38.4710   30.0380   40.9110 C   0  0  0  0  0  0  0  0  0  0  0  0
   39.0050   29.1740   40.0310 N   0  0  0  0  0  0  0  0  0  0  0  0
   39.5000   27.1690   39.6220 H   0  0  0  0  0  0  0  0  0  0  0  0
   37.3130   31.9700   39.9330 C   0  0  0  0  0  0  0  0  0  0  0  0
   38.3940   31.4510   40.6030 C   0  0  0  0  0  0  0  0  0  0  0  0
   39.4710   32.2430   41.0240 C   0  0  0  0  0  0  0  0  0  0  0  0
   39.4780   33.6090   40.7700 C   0  0  0  0  0  0  0  0  0  0  0  0
   40.3090   34.6530   41.0130 N   0  0  0  0  0  0  0  0  0  0  0  0
   39.7390   35.7780   40.4990 C   0  0  0  0  0  0  0  0  0  0  0  0
   38.5610   35.4110   39.9440 N   0  0  0  0  0  0  0  0  0  0  0  0
   38.3750   34.0900   40.0960 C   0  0  0  0  0  0  0  0  0  0  0  0
   37.2960   33.3380   39.6660 C   0  0  0  0  0  0  0  0  0  0  0  0
   36.4820   31.3640   39.6070 H   0  0  0  0  0  0  0  0  0  0  0  0
   40.3300   31.8250   41.5570 H   0  0  0  0  0  0  0  0  0  0  0  0
   41.2200   34.5110   41.5220 H   0  0  0  0  0  0  0  0  0  0  0  0
   40.2290   36.7510   40.5740 H   0  0  0  0  0  0  0  0  0  0  0  0
   36.4690   33.7980   39.1410 H   0  0  0  0  0  0  0  0  0  0  0  0
   37.5210   27.7920   43.7410 C   0  0  0  0  0  0  0  0  0  0  0  0
   37.0990   28.8790   44.5200 F   0  0  0  0  0  0  0  0  0  0  0  0
   36.4110   27.0020   43.5580 F   0  0  0  0  0  0  0  0  0  0  0  0
   38.5250   27.1190   44.3950 F   0  0  0  0  0  0  0  0  0  0  0  0
   38.6800   26.0190   41.8000 O   0  0  0  0  0  0  0  0  0  0  0  0
   38.2990   25.0670   40.8870 C   0  0  0  0  0  0  0  0  0  0  0  0
   36.9620   24.8450   41.1960 C   0  0  0  0  0  0  0  0  0  0  0  0
   36.4590   23.5640   39.9620 S   0  0  0  0  0  0  0  0  0  0  0  0
   38.1850   23.5600   39.2360 C   0  0  0  0  0  0  0  0  0  0  0  0
   38.6510   24.3140   39.8920 N   0  0  0  0  0  0  0  0  0  0  0  0
   36.0530   25.1110   41.8770 H   0  0  0  0  0  0  0  0  0  0  0  0
   37.6750   22.6190   36.9900 C   0  0  0  0  0  3  0  0  0  0  0  0
   38.4620   22.6530   38.0970 C   0  0  0  0  0  0  0  0  0  0  0  0
   39.5830   21.8900   38.3250 C   0  0  0  0  0  0  0  0  0  0  0  0
   40.2010   21.9270   39.2110 H   0  0  0  0  0  0  0  0  0  0  0  0
   39.9580   20.9870   37.3230 C   0  0  0  0  0  0  0  0  0  0  0  0
   39.1600   20.9430   36.1850 C   0  0  0  0  0  0  0  0  0  0  0  0
   38.0240   21.7340   35.9830 C   0  0  0  0  0  3  0  0  0  0  0  0
   39.7330   19.9750   35.3410 O   0  0  0  0  0  0  0  0  0  0  0  0
   41.0880   19.7580   35.7440 C   0  0  0  0  0  3  0  0  0  0  0  0
   41.4100   18.7300   35.5750 H   0  0  0  0  0  0  0  0  0  0  0  0
   40.9900   20.0520   37.1460 O   0  0  0  0  0  0  0  0  0  0  0  0
  1  2  1  0  0  0  0
  2 26  1  0  0  0  0
  2  3  2  0  0  0  0
  3 22  1  0  0  0  0
  4  3  1  0  0  0  0
  5  4  2  0  0  0  0
  6  1  2  0  0  0  0
  6  5  1  0  0  0  0
  7  1  1  0  0  0  0
  8  9  1  0  0  0  0
  9  5  1  0  0  0  0
  9 10  2  0  0  0  0
 10 18  1  0  0  0  0
 11 12  1  0  0  0  0
 11 10  1  0  0  0  0
 12 19  1  0  0  0  0
 13 20  1  0  0  0  0
 13 12  1  0  0  0  0
 14 15  1  0  0  0  0
 14 13  2  0  0  0  0
 15 11  2  0  0  0  0
 16  8  2  0  0  0  0
 16 15  1  0  0  0  0
 17  8  1  0  0  0  0
 21 16  1  0  0  0  0
 22 25  1  0  0  0  0
 22 23  1  0  0  0  0
 24 22  1  0  0  0  0
 27 28  2  0  0  0  0
 27 26  1  0  0  0  0
 28 32  1  0  0  0  0
 29 28  1  0  0  0  0
 30 31  2  0  0  0  0
 30 29  1  0  0  0  0
 31 27  1  0  0  0  0
 33 34  1  0  0  0  0
 34 35  2  0  0  0  0
 34 30  1  0  0  0  0
 35 36  1  0  0  0  0
 37 35  1  0  0  0  0
 38 37  2  0  0  0  0
 39 38  1  0  0  0  0
 39 33  2  0  0  0  0
 40 41  1  0  0  0  0
 40 38  1  0  0  0  0
 41 43  1  0  0  0  0
 42 41  1  0  0  0  0
 43 37  1  0  0  0  0
M  END
>  <minimizedAffinity>
-6.71166515

$$$$

 OpenBabel03242513103D

 43 48  0  0  0  0  0  0  0  0999 V2000
   37.8140   29.5080   37.9790 C   0  0  0  0  0  0  0  0  0  0  0  0
   37.0870   28.8590   38.9840 C   0  0  0  0  0  0  0  0  0  0  0  0
   37.3150   29.2710   40.2800 C   0  0  0  0  0  0  0  0  0  0  0  0
   38.2210   30.2710   40.4840 N   0  0  0  0  0  0  0  0  0  0  0  0
   38.9020   30.8780   39.5240 C   0  0  0  0  0  0  0  0  0  0  0  0
   38.7020   30.4970   38.2500 N   0  0  0  0  0  0  0  0  0  0  0  0
   37.6630   29.2120   36.9470 H   0  0  0  0  0  0  0  0  0  0  0  0
   39.8950   33.0810   39.0900 C   0  0  0  0  0  0  0  0  0  0  0  0
   39.8450   31.9300   39.8390 C   0  0  0  0  0  0  0  0  0  0  0  0
   40.6880   31.7090   40.9360 C   0  0  0  0  0  0  0  0  0  0  0  0
   41.6210   32.6680   41.3080 C   0  0  0  0  0  0  0  0  0  0  0  0
   42.5670   32.8030   42.2710 N   0  0  0  0  0  0  0  0  0  0  0  0
   43.1740   34.0100   42.1050 C   0  0  0  0  0  0  0  0  0  0  0  0
   42.5930   34.6060   41.0370 N   0  0  0  0  0  0  0  0  0  0  0  0
   41.6400   33.8070   40.5310 C   0  0  0  0  0  0  0  0  0  0  0  0
   40.8240   34.0590   39.4430 C   0  0  0  0  0  0  0  0  0  0  0  0
   39.2480   33.2560   38.2440 H   0  0  0  0  0  0  0  0  0  0  0  0
   40.6440   30.7910   41.5300 H   0  0  0  0  0  0  0  0  0  0  0  0
   42.7260   32.0430   42.9820 H   0  0  0  0  0  0  0  0  0  0  0  0
   43.9750   34.3420   42.7680 H   0  0  0  0  0  0  0  0  0  0  0  0
   40.9050   34.9840   38.8850 H   0  0  0  0  0  0  0  0  0  0  0  0
   36.5780   28.6260   41.3910 C   0  0  0  0  0  0  0  0  0  0  0  0
   36.7830   27.2390   41.3770 F   0  0  0  0  0  0  0  0  0  0  0  0
   37.0520   29.0670   42.6030 F   0  0  0  0  0  0  0  0  0  0  0  0
   35.2390   28.8950   41.2360 F   0  0  0  0  0  0  0  0  0  0  0  0
   36.2150   27.8790   38.6410 O   0  0  0  0  0  0  0  0  0  0  0  0
   35.0140   28.1340   38.0280 C   0  0  0  0  0  0  0  0  0  0  0  0
   34.8790   27.0760   37.1370 C   0  0  0  0  0  0  0  0  0  0  0  0
   33.2600   27.4290   36.3170 S   0  0  0  0  0  0  0  0  0  0  0  0
   33.0540   28.9770   37.3500 C   0  0  0  0  0  0  0  0  0  0  0  0
   33.9880   28.9210   37.9340 N   0  0  0  0  0  0  0  0  0  0  0  0
   35.3330   26.0950   36.6990 H   0  0  0  0  0  0  0  0  0  0  0  0
   30.9620   30.0540   38.1600 C   0  0  0  0  0  3  0  0  0  0  0  0
   31.8340   29.7940   37.1500 C   0  0  0  0  0  0  0  0  0  0  0  0
   31.7260   30.2250   35.8490 C   0  0  0  0  0  0  0  0  0  0  0  0
   32.4270   30.0110   35.0550 H   0  0  0  0  0  0  0  0  0  0  0  0
   30.6130   31.0090   35.5230 C   0  0  0  0  0  0  0  0  0  0  0  0
   29.7140   31.2820   36.5490 C   0  0  0  0  0  0  0  0  0  0  0  0
   29.8520   30.8280   37.8650 C   0  0  0  0  0  3  0  0  0  0  0  0
   28.6990   32.0730   35.9810 O   0  0  0  0  0  0  0  0  0  0  0  0
   29.1890   32.6450   34.7650 C   0  0  0  0  0  3  0  0  0  0  0  0
   28.4010   32.7730   34.0220 H   0  0  0  0  0  0  0  0  0  0  0  0
   30.1280   31.6360   34.3640 O   0  0  0  0  0  0  0  0  0  0  0  0
  1  6  2  0  0  0  0
  1  2  1  0  0  0  0
  2  3  2  0  0  0  0
  3  4  1  0  0  0  0
  3 22  1  0  0  0  0
  5  9  1  0  0  0  0
  5  4  2  0  0  0  0
  6  5  1  0  0  0  0
  7  1  1  0  0  0  0
  8 16  2  0  0  0  0
  8  9  1  0  0  0  0
  9 10  2  0  0  0  0
 10 11  1  0  0  0  0
 10 18  1  0  0  0  0
 11 12  1  0  0  0  0
 12 19  1  0  0  0  0
 13 12  1  0  0  0  0
 13 20  1  0  0  0  0
 14 13  2  0  0  0  0
 15 14  1  0  0  0  0
 15 11  2  0  0  0  0
 16 15  1  0  0  0  0
 17  8  1  0  0  0  0
 21 16  1  0  0  0  0
 22 24  1  0  0  0  0
 23 22  1  0  0  0  0
 25 22  1  0  0  0  0
 26  2  1  0  0  0  0
 27 26  1  0  0  0  0
 28 27  2  0  0  0  0
 29 28  1  0  0  0  0
 29 30  1  0  0  0  0
 30 31  2  0  0  0  0
 31 27  1  0  0  0  0
 32 28  1  0  0  0  0
 34 30  1  0  0  0  0
 34 33  2  0  0  0  0
 35 34  1  0  0  0  0
 36 35  1  0  0  0  0
 37 35  2  0  0  0  0
 37 38  1  0  0  0  0
 38 39  2  0  0  0  0
 39 33  1  0  0  0  0
 40 38  1  0  0  0  0
 41 40  1  0  0  0  0
 42 41  1  0  0  0  0
 43 41  1  0  0  0  0
 43 37  1  0  0  0  0
M  END
>  <minimizedAffinity>
-6.62832212

$$$$

 OpenBabel03242513103D

 43 48  0  0  0  0  0  0  0  0999 V2000
   40.0990   27.6140   40.4280 C   0  0  0  0  0  0  0  0  0  0  0  0
   39.5910   27.6740   41.7310 C   0  0  0  0  0  0  0  0  0  0  0  0
   38.2690   28.0400   41.8660 C   0  0  0  0  0  0  0  0  0  0  0  0
   37.5610   28.3130   40.7310 N   0  0  0  0  0  0  0  0  0  0  0  0
   38.0540   28.2530   39.5030 C   0  0  0  0  0  0  0  0  0  0  0  0
   39.3400   27.8990   39.3410 N   0  0  0  0  0  0  0  0  0  0  0  0
   41.1350   27.3310   40.2810 H   0  0  0  0  0  0  0  0  0  0  0  0
   35.9040   28.9120   38.5170 C   0  0  0  0  0  0  0  0  0  0  0  0
   37.2230   28.5620   38.3590 C   0  0  0  0  0  0  0  0  0  0  0  0
   37.8350   28.4840   37.1010 C   0  0  0  0  0  0  0  0  0  0  0  0
   37.1110   28.7660   35.9490 C   0  0  0  0  0  0  0  0  0  0  0  0
   37.3520   28.7950   34.6150 N   0  0  0  0  0  0  0  0  0  0  0  0
   36.2010   29.1560   33.9830 C   0  0  0  0  0  0  0  0  0  0  0  0
   35.2620   29.3440   34.9400 N   0  0  0  0  0  0  0  0  0  0  0  0
   35.7920   29.1120   36.1510 C   0  0  0  0  0  0  0  0  0  0  0  0
   35.1550   29.1990   37.3770 C   0  0  0  0  0  0  0  0  0  0  0  0
   35.4280   28.9730   39.4840 H   0  0  0  0  0  0  0  0  0  0  0  0
   38.8870   28.2050   36.9790 H   0  0  0  0  0  0  0  0  0  0  0  0
   38.3050   28.5620   34.2320 H   0  0  0  0  0  0  0  0  0  0  0  0
   36.1510   29.2470   32.8960 H   0  0  0  0  0  0  0  0  0  0  0  0
   34.1120   29.4790   37.4460 H   0  0  0  0  0  0  0  0  0  0  0  0
   37.6680   28.1220   43.2170 C   0  0  0  0  0  0  0  0  0  0  0  0
   38.1730   27.1070   44.0430 F   0  0  0  0  0  0  0  0  0  0  0  0
   38.0050   29.3080   43.8240 F   0  0  0  0  0  0  0  0  0  0  0  0
   36.3060   27.9790   43.0940 F   0  0  0  0  0  0  0  0  0  0  0  0
   40.4060   27.3760   42.7730 O   0  0  0  0  0  0  0  0  0  0  0  0
   41.4740   28.1610   43.1300 C   0  0  0  0  0  0  0  0  0  0  0  0
   42.3550   27.2560   43.7110 C   0  0  0  0  0  0  0  0  0  0  0  0
   43.7890   28.3220   44.1870 S   0  0  0  0  0  0  0  0  0  0  0  0
   42.9180   29.8300   43.5000 C   0  0  0  0  0  0  0  0  0  0  0  0
   41.9880   29.3510   43.1520 N   0  0  0  0  0  0  0  0  0  0  0  0
   42.5710   26.1510   44.0160 H   0  0  0  0  0  0  0  0  0  0  0  0
   44.5390   31.4050   44.5400 C   0  0  0  0  0  3  0  0  0  0  0  0
   43.6120   31.1370   43.5840 C   0  0  0  0  0  0  0  0  0  0  0  0
   43.1920   31.9930   42.5930 C   0  0  0  0  0  0  0  0  0  0  0  0
   42.4530   31.7670   41.8380 H   0  0  0  0  0  0  0  0  0  0  0  0
   43.7710   33.2670   42.5580 C   0  0  0  0  0  0  0  0  0  0  0  0
   44.7220   33.5530   43.5330 C   0  0  0  0  0  0  0  0  0  0  0  0
   45.1280   32.6590   44.5290 C   0  0  0  0  0  3  0  0  0  0  0  0
   45.1470   34.8710   43.2910 O   0  0  0  0  0  0  0  0  0  0  0  0
   44.8080   35.2240   41.9470 C   0  0  0  0  0  3  0  0  0  0  0  0
   44.5740   36.2840   41.8440 H   0  0  0  0  0  0  0  0  0  0  0  0
   43.6420   34.4100   41.7520 O   0  0  0  0  0  0  0  0  0  0  0  0
  1  2  1  0  0  0  0
  2  3  2  0  0  0  0
  2 26  1  0  0  0  0
  3 22  1  0  0  0  0
  4  3  1  0  0  0  0
  5  4  2  0  0  0  0
  6  5  1  0  0  0  0
  6  1  2  0  0  0  0
  7  1  1  0  0  0  0
  8 17  1  0  0  0  0
  9  8  1  0  0  0  0
  9  5  1  0  0  0  0
 10  9  2  0  0  0  0
 11 15  2  0  0  0  0
 11 10  1  0  0  0  0
 12 11  1  0  0  0  0
 13 12  1  0  0  0  0
 13 14  2  0  0  0  0
 14 15  1  0  0  0  0
 15 16  1  0  0  0  0
 16 21  1  0  0  0  0
 16  8  2  0  0  0  0
 18 10  1  0  0  0  0
 19 12  1  0  0  0  0
 20 13  1  0  0  0  0
 22 24  1  0  0  0  0
 22 23  1  0  0  0  0
 25 22  1  0  0  0  0
 26 27  1  0  0  0  0
 27 31  1  0  0  0  0
 27 28  2  0  0  0  0
 28 32  1  0  0  0  0
 28 29  1  0  0  0  0
 30 34  1  0  0  0  0
 30 29  1  0  0  0  0
 31 30  2  0  0  0  0
 34 33  2  0  0  0  0
 35 34  1  0  0  0  0
 36 35  1  0  0  0  0
 37 35  2  0  0  0  0
 37 38  1  0  0  0  0
 38 39  2  0  0  0  0
 39 33  1  0  0  0  0
 40 38  1  0  0  0  0
 41 40  1  0  0  0  0
 42 41  1  0  0  0  0
 43 41  1  0  0  0  0
 43 37  1  0  0  0  0
M  END
>  <minimizedAffinity>
-6.57241678

$$$$
