
 OpenBabel03242523383D

 21 23  0  0  0  0  0  0  0  0999 V2000
   46.0390   34.0100   44.0960 C   0  0  0  0  0  3  0  0  0  0  0  0
   46.4410   32.6980   44.0170 C   0  0  0  0  0  0  0  0  0  0  0  0
   47.2170   32.1890   42.9690 C   0  0  0  0  0  0  0  0  0  0  0  0
   47.5210   31.1720   42.9220 H   0  0  0  0  0  0  0  0  0  0  0  0
   47.5510   33.1310   42.0010 C   0  0  0  0  0  0  0  0  0  0  0  0
   47.1850   34.4610   42.0120 C   0  0  0  0  0  0  0  0  0  0  0  0
   46.4170   34.8570   43.0960 C   0  0  0  0  0  3  0  0  0  0  0  0
   47.7260   35.0300   40.8680 O   0  0  0  0  0  0  0  0  0  0  0  0
   48.2610   34.0160   40.0580 C   0  0  0  0  0  3  0  0  0  0  0  0
   49.2810   34.2870   39.7060 H   0  0  0  0  0  0  0  0  0  0  0  0
   48.3210   32.8660   40.8540 O   0  0  0  0  0  0  0  0  0  0  0  0
   45.3140   29.6420   45.7300 C   0  0  0  0  0  0  0  0  0  0  0  0
   45.3270   30.0330   47.0920 C   0  0  0  0  0  0  0  0  0  0  0  0
   45.7290   31.3560   47.3870 C   0  0  0  0  0  0  0  0  0  0  0  0
   46.0750   32.1660   46.3630 N   0  0  0  0  0  0  0  0  0  0  0  0
   46.0490   31.7540   45.0830 C   0  0  0  0  0  0  0  0  0  0  0  0
   45.6740   30.5110   44.7720 N   0  0  0  0  0  0  0  0  0  0  0  0
   44.9970   28.6280   45.6100 H   0  0  0  0  0  0  0  0  0  0  0  0
   45.0480   29.3730   47.8940 H   0  0  0  0  0  0  0  0  0  0  0  0
   45.7660   31.9080   49.0750 S   0  0  0  0  0  0  0  0  0  0  0  0
   45.8890   33.3280   49.0540 H   0  0  0  0  0  0  0  0  0  0  0  0
  2  1  1  0  0  0  0
  2 16  1  0  0  0  0
  3  2  2  0  0  0  0
  4  3  1  0  0  0  0
  5  6  2  0  0  0  0
  5  3  1  0  0  0  0
  6  7  1  0  0  0  0
  7  1  2  0  0  0  0
  8  6  1  0  0  0  0
  9 11  1  0  0  0  0
  9  8  1  0  0  0  0
 10  9  1  0  0  0  0
 11  5  1  0  0  0  0
 12 13  1  0  0  0  0
 13 14  2  0  0  0  0
 13 19  1  0  0  0  0
 14 20  1  0  0  0  0
 15 14  1  0  0  0  0
 16 15  2  0  0  0  0
 17 16  1  0  0  0  0
 17 12  2  0  0  0  0
 18 12  1  0  0  0  0
 21 20  1  0  0  0  0
M  END
>  <minimizedAffinity>
-3.98802805

>  <minimizedRMSD>
6.74099016

$$$$
