
 OpenBabel03242510233D

 40 44  0  0  1  0  0  0  0  0999 V2000
   48.0450   33.2290   43.1320 N   0  0  0  0  0  0  0  0  0  0  0  0
   49.2180   33.2920   42.3930 C   0  0  0  0  0  0  0  0  0  0  0  0
   50.3820   32.8900   42.6570 O   0  0  0  0  0  0  0  0  0  0  0  0
   47.4970   34.1140   43.0690 H   0  0  0  0  0  0  0  0  0  0  0  0
   46.2900   32.0900   44.4420 C   0  0  1  0  0  0  0  0  0  0  0  0
   46.4220   31.3580   43.2580 C   0  0  0  0  0  0  0  0  0  0  0  0
   47.6570   32.0860   43.8780 C   0  0  1  0  0  0  0  0  0  0  0  0
   46.1330   31.6220   45.4440 H   0  0  0  0  0  0  0  0  0  0  0  0
   46.1470   31.6520   42.2310 H   0  0  0  0  0  0  0  0  0  0  0  0
   46.4570   30.2270   43.3290 H   0  0  0  0  0  0  0  0  0  0  0  0
   48.4130   31.3620   44.2430 H   0  0  0  0  0  0  0  0  0  0  0  0
   45.0510   33.9820   43.1490 C   0  0  0  0  0  0  0  0  0  0  0  0
   45.5450   33.4360   44.3760 C   0  0  0  0  0  0  0  0  0  0  0  0
   45.3540   34.1750   45.5240 C   0  0  0  0  0  0  0  0  0  0  0  0
   44.7190   35.3630   45.4430 N   0  0  0  0  0  0  0  0  0  0  0  0
   44.2560   35.8690   44.2710 C   0  0  0  0  0  0  0  0  0  0  0  0
   44.4340   35.1450   43.0890 N   0  0  0  0  0  0  0  0  0  0  0  0
   45.1830   33.3980   42.2600 H   0  0  0  0  0  0  0  0  0  0  0  0
   45.7160   33.7890   46.4740 H   0  0  0  0  0  0  0  0  0  0  0  0
   43.7560   36.8280   44.2700 H   0  0  0  0  0  0  0  0  0  0  0  0
   49.1910   33.9340   41.0150 C   0  0  2  0  0  0  0  0  0  0  0  0
   48.6190   35.3990   40.9470 C   0  0  0  0  0  0  0  0  0  0  0  0
   47.9280   34.2190   40.3280 C   0  0  1  0  0  0  0  0  0  0  0  0
   50.1200   33.8820   40.4120 H   0  0  0  0  0  0  0  0  0  0  0  0
   48.2380   35.7370   41.9320 H   0  0  0  0  0  0  0  0  0  0  0  0
   49.0840   36.0960   40.2560 H   0  0  0  0  0  0  0  0  0  0  0  0
   47.0690   33.6880   40.7920 H   0  0  0  0  0  0  0  0  0  0  0  0
   47.9200   34.1330   38.8210 C   0  0  0  0  0  0  0  0  0  0  0  0
   48.6340   34.8910   38.1710 O   0  0  0  0  0  0  0  0  0  0  0  0
   46.2950   33.4440   37.0140 C   0  0  0  0  0  3  0  0  0  0  0  0
   47.0870   33.1710   38.1100 C   0  0  0  0  0  0  0  0  0  0  0  0
   47.0450   31.8550   38.5190 C   0  0  0  0  0  0  0  0  0  0  0  0
   47.6170   31.4930   39.3690 H   0  0  0  0  0  0  0  0  0  0  0  0
   46.2860   30.8810   37.9050 C   0  0  0  0  0  0  0  0  0  0  0  0
   45.5120   31.2030   36.8130 C   0  0  0  0  0  0  0  0  0  0  0  0
   45.5220   32.5010   36.3710 C   0  0  0  0  0  3  0  0  0  0  0  0
   44.8580   30.0420   36.3980 O   0  0  0  0  0  0  0  0  0  0  0  0
   44.8310   29.1420   37.5140 C   0  0  0  0  0  3  0  0  0  0  0  0
   44.0650   29.4590   38.2700 H   0  0  0  0  0  0  0  0  0  0  0  0
   46.0770   29.5150   38.1230 O   0  0  0  0  0  0  0  0  0  0  0  0
  1  7  1  0  0  0  0
  2  3  2  0  0  0  0
  2  1  1  0  0  0  0
  4  1  1  0  0  0  0
  5  8  1  1  0  0  0
  6 10  1  0  0  0  0
  6  7  1  0  0  0  0
  6  5  1  0  0  0  0
  7 11  1  1  0  0  0
  7  5  1  0  0  0  0
  9  6  1  0  0  0  0
 12 13  1  0  0  0  0
 13  5  1  0  0  0  0
 13 14  2  0  0  0  0
 14 19  1  0  0  0  0
 15 14  1  0  0  0  0
 16 15  2  0  0  0  0
 17 12  2  0  0  0  0
 17 16  1  0  0  0  0
 18 12  1  0  0  0  0
 20 16  1  0  0  0  0
 21 24  1  6  0  0  0
 21  2  1  0  0  0  0
 22 21  1  0  0  0  0
 22 25  1  0  0  0  0
 23 27  1  1  0  0  0
 23 22  1  0  0  0  0
 23 21  1  0  0  0  0
 26 22  1  0  0  0  0
 28 23  1  0  0  0  0
 29 28  2  0  0  0  0
 30 31  1  0  0  0  0
 31 32  2  0  0  0  0
 31 28  1  0  0  0  0
 32 33  1  0  0  0  0
 34 40  1  0  0  0  0
 34 32  1  0  0  0  0
 35 34  2  0  0  0  0
 36 35  1  0  0  0  0
 36 30  2  0  0  0  0
 37 35  1  0  0  0  0
 37 38  1  0  0  0  0
 38 40  1  0  0  0  0
 38 39  1  0  0  0  0
M  END
>  <minimizedAffinity>
-4.95546484

>  <minimizedRMSD>
0.333860606

$$$$
