
 OpenBabel03252508513D

 30 33  0  0  0  0  0  0  0  0999 V2000
   45.9430   34.2140   41.0330 C   0  0  0  0  0  0  0  0  0  0  0  0
   46.5310   34.8080   42.1430 C   0  0  0  0  0  0  0  0  0  0  0  0
   47.8850   35.1410   42.0240 C   0  0  0  0  0  0  0  0  0  0  0  0
   48.5330   34.8660   40.8470 N   0  0  0  0  0  0  0  0  0  0  0  0
   47.9180   34.2960   39.8190 C   0  0  0  0  0  0  0  0  0  0  0  0
   46.6200   33.9620   39.8910 N   0  0  0  0  0  0  0  0  0  0  0  0
   48.3690   35.6040   42.8710 H   0  0  0  0  0  0  0  0  0  0  0  0
   48.4370   34.0850   38.8980 H   0  0  0  0  0  0  0  0  0  0  0  0
   45.7520   35.0520   43.3390 C   0  0  0  0  0  0  0  0  0  0  0  0
   45.0950   36.2350   43.5830 C   0  0  0  0  0  0  0  0  0  0  0  0
   44.4990   36.0280   44.8100 C   0  0  0  0  0  0  0  0  0  0  0  0
   44.7780   34.7910   45.2820 N   0  0  0  0  0  0  0  0  0  0  0  0
   45.5370   34.2200   44.3740 N   0  0  0  0  0  0  0  0  0  0  0  0
   45.0110   37.1500   43.0170 H   0  0  0  0  0  0  0  0  0  0  0  0
   43.8680   36.6970   45.4120 H   0  0  0  0  0  0  0  0  0  0  0  0
   44.5010   34.3020   46.1580 H   0  0  0  0  0  0  0  0  0  0  0  0
   44.6040   33.8690   41.1080 O   0  0  0  0  0  0  0  0  0  0  0  0
   43.5410   34.5730   40.6180 C   0  0  0  0  0  0  0  0  0  0  0  0
   43.3170   35.8320   40.7480 O   0  0  0  0  0  0  0  0  0  0  0  0
   42.4840   32.6250   39.3860 C   0  0  0  0  0  3  0  0  0  0  0  0
   42.4410   33.9420   39.8280 C   0  0  0  0  0  0  0  0  0  0  0  0
   41.2860   34.5900   39.4600 C   0  0  0  0  0  0  0  0  0  0  0  0
   41.1560   35.6250   39.7590 H   0  0  0  0  0  0  0  0  0  0  0  0
   40.2710   34.0230   38.7370 C   0  0  0  0  0  0  0  0  0  0  0  0
   40.4020   32.7110   38.3420 C   0  0  0  0  0  0  0  0  0  0  0  0
   41.5150   31.9770   38.6570 C   0  0  0  0  0  3  0  0  0  0  0  0
   39.2540   32.3970   37.6390 O   0  0  0  0  0  0  0  0  0  0  0  0
   38.3850   33.5170   37.5500 C   0  0  0  0  0  3  0  0  0  0  0  0
   37.4100   33.3480   38.0500 H   0  0  0  0  0  0  0  0  0  0  0  0
   39.0560   34.5170   38.2840 O   0  0  0  0  0  0  0  0  0  0  0  0
  1 17  1  0  0  0  0
  1  2  1  0  0  0  0
  2  9  1  0  0  0  0
  3  2  2  0  0  0  0
  3  7  1  0  0  0  0
  4  3  1  0  0  0  0
  5  6  1  0  0  0  0
  5  4  2  0  0  0  0
  6  1  2  0  0  0  0
  8  5  1  0  0  0  0
  9 10  1  0  0  0  0
  9 13  2  0  0  0  0
 10 11  2  0  0  0  0
 11 12  1  0  0  0  0
 11 15  1  0  0  0  0
 12 16  1  0  0  0  0
 13 12  1  0  0  0  0
 14 10  1  0  0  0  0
 18 19  2  0  0  0  0
 18 17  1  0  0  0  0
 20 21  1  0  0  0  0
 21 18  1  0  0  0  0
 22 23  1  0  0  0  0
 22 21  2  0  0  0  0
 24 22  1  0  0  0  0
 25 26  1  0  0  0  0
 25 24  2  0  0  0  0
 26 20  2  0  0  0  0
 27 25  1  0  0  0  0
 28 27  1  0  0  0  0
 28 29  1  0  0  0  0
 28 30  1  0  0  0  0
 30 24  1  0  0  0  0
M  END
>  <minimizedAffinity>
-5.97126245

>  <minimizedRMSD>
0.868617058

$$$$
