
 OpenBabel03242520413D

 41 45  0  0  1  0  0  0  0  0999 V2000
   45.8740   33.4760   45.8120 C   0  0  0  0  0  0  0  0  0  0  0  0
   46.6820   33.6270   44.6540 C   0  0  0  0  0  0  0  0  0  0  0  0
   47.3490   32.4700   44.1510 C   0  0  0  0  0  0  0  0  0  0  0  0
   47.1830   31.2760   44.7970 N   0  0  0  0  0  0  0  0  0  0  0  0
   46.3970   31.1950   45.8990 C   0  0  0  0  0  0  0  0  0  0  0  0
   45.7560   32.2830   46.3940 N   0  0  0  0  0  0  0  0  0  0  0  0
   46.2840   29.9360   46.4990 N   0  0  0  0  0  0  0  0  0  0  0  0
   47.4370   29.2550   46.9890 C   0  0  2  0  0  0  0  0  0  0  0  0
   47.2180   27.8290   47.3540 C   0  0  0  0  0  0  0  0  0  0  0  0
   45.9280   27.4750   47.8120 N   0  0  0  0  0  0  0  0  0  0  0  0
   45.0230   28.5620   47.9360 C   0  0  0  0  0  0  0  0  0  0  0  0
   44.9860   29.3120   46.6300 C   0  0  0  0  0  0  0  0  0  0  0  0
   45.4080   34.3840   46.1290 H   0  0  0  0  0  0  0  0  0  0  0  0
   46.8610   34.5160   44.0960 H   0  0  0  0  0  0  0  0  0  0  0  0
   47.9750   32.5340   43.2720 H   0  0  0  0  0  0  0  0  0  0  0  0
   48.1500   29.2000   46.1070 H   0  0  0  0  0  0  0  0  0  0  0  0
   47.9460   27.5920   48.1820 H   0  0  0  0  0  0  0  0  0  0  0  0
   47.4890   27.1210   46.5450 H   0  0  0  0  0  0  0  0  0  0  0  0
   45.9030   26.7700   48.5790 H   0  0  0  0  0  0  0  0  0  0  0  0
   43.9950   28.1020   48.0540 H   0  0  0  0  0  0  0  0  0  0  0  0
   45.1610   29.2010   48.8090 H   0  0  0  0  0  0  0  0  0  0  0  0
   44.9180   28.5640   45.8330 H   0  0  0  0  0  0  0  0  0  0  0  0
   44.1780   30.0730   46.5830 H   0  0  0  0  0  0  0  0  0  0  0  0
   48.1310   30.0300   48.0520 C   0  0  0  0  0  0  0  0  0  0  0  0
   47.6880   30.9220   48.9970 C   0  0  0  0  0  0  0  0  0  0  0  0
   48.6840   31.3720   49.7650 N   0  0  0  0  0  0  0  0  0  0  0  0
   49.7790   30.7670   49.3150 C   0  0  0  0  0  0  0  0  0  0  0  0
   49.4520   29.9630   48.2890 N   0  0  0  0  0  0  0  0  0  0  0  0
   46.6560   31.2240   49.1030 H   0  0  0  0  0  0  0  0  0  0  0  0
   48.6520   32.0500   50.5560 H   0  0  0  0  0  0  0  0  0  0  0  0
   51.8880   29.8450   50.3610 C   0  0  0  0  0  3  0  0  0  0  0  0
   51.1740   30.8650   49.7670 C   0  0  0  0  0  0  0  0  0  0  0  0
   51.8110   32.0750   49.5770 C   0  0  0  0  0  0  0  0  0  0  0  0
   51.2850   32.8970   49.1160 H   0  0  0  0  0  0  0  0  0  0  0  0
   53.1220   32.2860   49.9620 C   0  0  0  0  0  0  0  0  0  0  0  0
   53.8440   31.2570   50.5620 C   0  0  0  0  0  0  0  0  0  0  0  0
   53.1970   30.0520   50.7450 C   0  0  0  0  0  3  0  0  0  0  0  0
   55.1390   31.7190   50.8550 O   0  0  0  0  0  0  0  0  0  0  0  0
   54.9790   33.1430   50.9090 C   0  0  0  0  0  3  0  0  0  0  0  0
   55.9580   33.5790   50.7050 H   0  0  0  0  0  0  0  0  0  0  0  0
   54.0080   33.3650   49.9040 O   0  0  0  0  0  0  0  0  0  0  0  0
  1 13  1  0  0  0  0
  1  6  1  0  0  0  0
  2  1  2  0  0  0  0
  3  2  1  0  0  0  0
  3  4  2  0  0  0  0
  4  5  1  0  0  0  0
  5  6  2  0  0  0  0
  5  7  1  0  0  0  0
  7 12  1  0  0  0  0
  7  8  1  0  0  0  0
  8 16  1  6  0  0  0
  8  9  1  0  0  0  0
  8 24  1  0  0  0  0
  9 10  1  0  0  0  0
  9 17  1  0  0  0  0
 10 11  1  0  0  0  0
 10 19  1  0  0  0  0
 11 20  1  0  0  0  0
 11 21  1  0  0  0  0
 12 11  1  0  0  0  0
 14  2  1  0  0  0  0
 15  3  1  0  0  0  0
 18  9  1  0  0  0  0
 22 12  1  0  0  0  0
 23 12  1  0  0  0  0
 24 28  1  0  0  0  0
 24 25  2  0  0  0  0
 25 29  1  0  0  0  0
 25 26  1  0  0  0  0
 26 30  1  0  0  0  0
 27 26  1  0  0  0  0
 27 32  1  0  0  0  0
 28 27  2  0  0  0  0
 31 37  1  0  0  0  0
 32 31  2  0  0  0  0
 33 32  1  0  0  0  0
 33 35  2  0  0  0  0
 34 33  1  0  0  0  0
 35 36  1  0  0  0  0
 36 37  2  0  0  0  0
 36 38  1  0  0  0  0
 38 39  1  0  0  0  0
 40 39  1  0  0  0  0
 41 35  1  0  0  0  0
 41 39  1  0  0  0  0
M  END
>  <minimizedAffinity>
-5.33355522

>  <minimizedRMSD>
0.440982699

$$$$
