REMARK  Name = 
REMARK  4 active torsions:
REMARK  status: ('A' for Active; 'I' for Inactive)
REMARK    1  A    between atoms: C_1  and  O_16
REMARK    2  A    between atoms: C_3  and  C_8
REMARK    3  A    between atoms: O_16  and  C_17
REMARK    4  A    between atoms: C_20  and  C_31
REMARK                            x       y       z     vdW  Elec       q    Type
REMARK                         _______ _______ _______ _____ _____    ______ ____
ROOT
ATOM      1  C   UNL     1      45.502  34.826  43.537  0.00  0.00    +0.000 A 
ATOM      2  C   UNL     1      46.206  33.756  44.123  0.00  0.00    +0.000 A 
ATOM      3  C   UNL     1      46.019  33.524  45.472  0.00  0.00    +0.000 A 
ATOM      4  N   UNL     1      45.184  34.316  46.163  0.00  0.00    +0.000 NA
ATOM      5  C   UNL     1      44.510  35.346  45.583  0.00  0.00    +0.000 A 
ATOM      6  N   UNL     1      44.674  35.589  44.289  0.00  0.00    +0.000 NA
ATOM      7  H   UNL     1      46.877  33.117  43.574  0.00  0.00    +0.000 HD
ATOM      8  H   UNL     1      43.873  35.900  46.261  0.00  0.00    +0.000 HD
ENDROOT
BRANCH   3  10
ATOM      9  C   UNL     1      47.008  32.695  47.538  0.00  0.00    +0.000 A 
ATOM     10  C   UNL     1      46.685  32.448  46.206  0.00  0.00    +0.000 A 
ATOM     11  C   UNL     1      47.007  31.224  45.670  0.00  0.00    +0.000 A 
ATOM     12  C   UNL     1      47.634  30.244  46.407  0.00  0.00    +0.000 A 
ATOM     13  N   UNL     1      48.037  28.984  46.085  0.00  0.00    +0.000 N 
ATOM     14  C   UNL     1      48.613  28.447  47.224  0.00  0.00    +0.000 A 
ATOM     15  N   UNL     1      48.552  29.366  48.193  0.00  0.00    +0.000 NA
ATOM     16  C   UNL     1      47.955  30.478  47.718  0.00  0.00    +0.000 A 
ATOM     17  C   UNL     1      47.644  31.697  48.279  0.00  0.00    +0.000 A 
ATOM     18  H   UNL     1      46.792  33.634  48.046  0.00  0.00    +0.000 HD
ATOM     19  H   UNL     1      46.752  31.038  44.630  0.00  0.00    +0.000 HD
ATOM     20  H   UNL     1      47.923  28.526  45.145  0.00  0.00    +0.000 HD
ATOM     21  H   UNL     1      49.034  27.458  47.304  0.00  0.00    +0.000 HD
ATOM     22  H   UNL     1      47.903  31.872  49.318  0.00  0.00    +0.000 HD
ENDBRANCH   3  10
BRANCH   1  23
ATOM     23  O   UNL     1      45.681  35.071  42.178  0.00  0.00    +0.000 OA
BRANCH  23  24
ATOM     24  C   UNL     1      44.621  34.917  41.293  0.00  0.00    +0.000 A 
ATOM     25  C   UNL     1      45.021  33.825  40.610  0.00  0.00    +0.000 A 
ATOM     26  S   UNL     1      43.568  33.595  39.386  0.00  0.00    +0.000 S 
ATOM     27  C   UNL     1      42.731  35.110  40.134  0.00  0.00    +0.000 A 
ATOM     28  N   UNL     1      43.465  35.394  40.900  0.00  0.00    +0.000 NA
ATOM     29  H   UNL     1      45.705  32.905  40.279  0.00  0.00    +0.000 HD
BRANCH  27  31
ATOM     30  C   UNL     1      41.263  35.865  38.247  0.00  0.00    +0.000 A 
ATOM     31  C   UNL     1      41.398  35.524  39.563  0.00  0.00    +0.000 A 
ATOM     32  C   UNL     1      40.425  35.501  40.513  0.00  0.00    +0.000 A 
ATOM     33  H   UNL     1      40.566  35.225  41.548  0.00  0.00    +0.000 HD
ATOM     34  C   UNL     1      39.148  35.872  40.075  0.00  0.00    +0.000 A 
ATOM     35  C   UNL     1      38.947  36.231  38.742  0.00  0.00    +0.000 A 
ATOM     36  C   UNL     1      39.996  36.230  37.828  0.00  0.00    +0.000 A 
ATOM     37  O   UNL     1      37.585  36.550  38.597  0.00  0.00    +0.000 OA
ATOM     38  C   UNL     1      36.892  36.030  39.730  0.00  0.00    +0.000 C 
ATOM     39  H   UNL     1      36.050  36.660  40.036  0.00  0.00    +0.000 HD
ATOM     40  O   UNL     1      37.904  35.978  40.722  0.00  0.00    +0.000 OA
ENDBRANCH  27  31
ENDBRANCH  23  24
ENDBRANCH   1  23
TORSDOF 4
