
 OpenBabel03252507193D

 46 50  0  0  1  0  0  0  0  0999 V2000
   47.0000   33.3840   43.0050 C   0  0  0  0  0  0  0  0  0  0  0  0
   48.0620   33.0310   43.5880 O   0  0  0  0  0  0  0  0  0  0  0  0
   46.6040   32.9450   41.6950 N   0  0  0  0  0  0  0  0  0  0  0  0
   45.3210   32.4790   41.1960 C   0  0  0  0  0  0  0  0  0  0  0  0
   44.9680   33.2860   39.9300 C   0  0  0  0  0  0  0  0  0  0  0  0
   45.9720   32.9670   38.8490 C   0  0  0  0  0  0  0  0  0  0  0  0
   47.1740   32.2890   39.4410 C   0  0  0  0  0  0  0  0  0  0  0  0
   47.6520   32.9730   40.6950 C   0  0  2  0  0  0  0  0  0  0  0  0
   44.5140   32.7370   41.9140 H   0  0  0  0  0  0  0  0  0  0  0  0
   45.2800   31.4210   40.9510 H   0  0  0  0  0  0  0  0  0  0  0  0
   45.1170   34.3510   40.2460 H   0  0  0  0  0  0  0  0  0  0  0  0
   43.9330   33.0760   39.6420 H   0  0  0  0  0  0  0  0  0  0  0  0
   45.4720   32.2170   38.1800 H   0  0  0  0  0  0  0  0  0  0  0  0
   46.2230   33.8390   38.2270 H   0  0  0  0  0  0  0  0  0  0  0  0
   47.9970   32.3540   38.7000 H   0  0  0  0  0  0  0  0  0  0  0  0
   46.9000   31.2180   39.6270 H   0  0  0  0  0  0  0  0  0  0  0  0
   47.8110   34.0400   40.4420 H   0  0  0  0  0  0  0  0  0  0  0  0
   50.0760   33.1420   41.4790 C   0  0  0  0  0  0  0  0  0  0  0  0
   48.9440   32.4220   41.1460 C   0  0  0  0  0  0  0  0  0  0  0  0
   49.1190   31.0370   41.2770 C   0  0  0  0  0  0  0  0  0  0  0  0
   48.2440   30.4260   41.0240 H   0  0  0  0  0  0  0  0  0  0  0  0
   50.2550   30.4110   41.6830 C   0  0  0  0  0  0  0  0  0  0  0  0
   51.3470   31.1670   42.0000 C   0  0  0  0  0  0  0  0  0  0  0  0
   51.2440   32.5370   41.8930 C   0  0  0  0  0  0  0  0  0  0  0  0
   52.3360   30.2680   42.3710 O   0  0  0  0  0  0  0  0  0  0  0  0
   51.8420   28.9620   42.3780 C   0  0  0  0  0  0  0  0  0  0  0  0
   51.7340   28.5200   43.3880 H   0  0  0  0  0  0  0  0  0  0  0  0
   50.5360   29.0640   41.8470 O   0  0  0  0  0  0  0  0  0  0  0  0
   45.7440   35.4860   43.0610 C   0  0  0  0  0  0  0  0  0  0  0  0
   46.1240   34.2940   43.7060 C   0  0  0  0  0  0  0  0  0  0  0  0
   45.6500   34.0330   44.9810 C   0  0  0  0  0  0  0  0  0  0  0  0
   44.8360   34.9400   45.5590 N   0  0  0  0  0  0  0  0  0  0  0  0
   44.4660   36.0940   44.9420 C   0  0  0  0  0  0  0  0  0  0  0  0
   44.9300   36.3450   43.7000 N   0  0  0  0  0  0  0  0  0  0  0  0
   46.1330   35.6600   42.0600 H   0  0  0  0  0  0  0  0  0  0  0  0
   43.8230   36.7850   45.4300 H   0  0  0  0  0  0  0  0  0  0  0  0
   46.0530   32.8040   45.6320 C   0  0  0  0  0  0  0  0  0  0  0  0
   45.5790   31.6070   45.1840 C   0  0  0  0  0  0  0  0  0  0  0  0
   45.9690   30.4440   45.8100 C   0  0  0  0  0  0  0  0  0  0  0  0
   46.8410   30.4360   46.8980 C   0  0  0  0  0  0  0  0  0  0  0  0
   47.2940   31.6870   47.3120 C   0  0  0  0  0  0  0  0  0  0  0  0
   46.8850   32.7890   46.6700 N   0  0  0  0  0  0  0  0  0  0  0  0
   44.9130   31.4370   44.3800 H   0  0  0  0  0  0  0  0  0  0  0  0
   45.6380   29.4500   45.5160 H   0  0  0  0  0  0  0  0  0  0  0  0
   47.1440   29.5200   47.3850 H   0  0  0  0  0  0  0  0  0  0  0  0
   47.9710   31.7060   48.1540 H   0  0  0  0  0  0  0  0  0  0  0  0
  1  2  2  0  0  0  0
  1 30  1  0  0  0  0
  3  1  1  0  0  0  0
  4  3  1  0  0  0  0
  4  9  1  0  0  0  0
  5 11  1  0  0  0  0
  5  4  1  0  0  0  0
  6  7  1  0  0  0  0
  6  5  1  0  0  0  0
  7 16  1  0  0  0  0
  7  8  1  0  0  0  0
  8 17  1  6  0  0  0
  8 19  1  0  0  0  0
  8  3  1  0  0  0  0
 10  4  1  0  0  0  0
 12  5  1  0  0  0  0
 13  6  1  0  0  0  0
 14  6  1  0  0  0  0
 15  7  1  0  0  0  0
 18 24  1  0  0  0  0
 19 20  1  0  0  0  0
 19 18  2  0  0  0  0
 20 22  2  0  0  0  0
 21 20  1  0  0  0  0
 22 28  1  0  0  0  0
 22 23  1  0  0  0  0
 23 25  1  0  0  0  0
 24 23  2  0  0  0  0
 25 26  1  0  0  0  0
 26 27  1  0  0  0  0
 28 26  1  0  0  0  0
 29 34  2  0  0  0  0
 29 30  1  0  0  0  0
 30 31  2  0  0  0  0
 31 32  1  0  0  0  0
 31 37  1  0  0  0  0
 33 36  1  0  0  0  0
 33 32  2  0  0  0  0
 34 33  1  0  0  0  0
 35 29  1  0  0  0  0
 37 42  1  0  0  0  0
 38 37  2  0  0  0  0
 38 39  1  0  0  0  0
 39 40  2  0  0  0  0
 40 41  1  0  0  0  0
 40 45  1  0  0  0  0
 41 46  1  0  0  0  0
 42 41  2  0  0  0  0
 43 38  1  0  0  0  0
 44 39  1  0  0  0  0
M  END
>  <minimizedAffinity>
-5.63218689

>  <minimizedRMSD>
1.02164888

$$$$
