
     RDKit          3D

 50 54  0  0  0  0  0  0  0  0999 V2000
   48.9637   34.7629   41.5163 C   0  0  1  0  0  0  0  0  0  0  0  0
   50.0723   34.7986   42.5260 C   0  0  0  0  0  0  0  0  0  0  0  0
   49.3454   33.5372   42.2046 C   0  0  2  0  0  0  0  0  0  0  0  0
   50.1330   32.6294   41.3813 N   0  0  0  0  0  0  0  0  0  0  0  0
   49.4771   32.1971   40.2029 C   0  0  0  0  0  0  0  0  0  0  0  0
   50.4446   31.2611   39.5046 C   0  0  0  0  0  0  0  0  0  0  0  0
   50.7503   30.1188   40.2861 N   0  0  0  0  0  0  0  0  0  0  0  0
   50.6289   30.3255   41.7181 C   0  0  0  0  0  0  0  0  0  0  0  0
   51.0083   31.7716   42.0565 C   0  0  0  0  0  0  0  0  0  0  0  0
   47.6602   35.3900   41.8965 C   0  0  0  0  0  0  0  0  0  0  0  0
   46.6944   34.2620   42.1478 C   0  0  0  0  0  0  0  0  0  0  0  0
   44.5001   35.9007   44.7161 C   0  0  0  0  0  0  0  0  0  0  0  0
   45.1698   35.6457   43.4936 C   0  0  0  0  0  0  0  0  0  0  0  0
   45.9743   34.5457   43.4320 C   0  0  0  0  0  0  0  0  0  0  0  0
   46.1054   33.7460   44.5213 N   0  0  0  0  0  0  0  0  0  0  0  0
   45.4837   33.9844   45.6537 C   0  0  0  0  0  0  0  0  0  0  0  0
   44.6806   35.0513   45.7707 N   0  0  0  0  0  0  0  0  0  0  0  0
   49.2495   34.9585   40.4866 H   0  0  0  0  0  0  0  0  0  0  0  0
   51.1008   34.9803   42.1464 H   0  0  0  0  0  0  0  0  0  0  0  0
   49.9156   35.3003   43.5104 H   0  0  0  0  0  0  0  0  0  0  0  0
   48.8387   33.1014   43.0580 H   0  0  0  0  0  0  0  0  0  0  0  0
   49.3758   33.0764   39.5228 H   0  0  0  0  0  0  0  0  0  0  0  0
   48.4802   31.7652   40.3300 H   0  0  0  0  0  0  0  0  0  0  0  0
   51.3090   31.8487   39.1413 H   0  0  0  0  0  0  0  0  0  0  0  0
   49.9057   30.9122   38.5959 H   0  0  0  0  0  0  0  0  0  0  0  0
   51.6217   29.6505   40.0142 H   0  0  0  0  0  0  0  0  0  0  0  0
   49.6272   30.1114   42.1116 H   0  0  0  0  0  0  0  0  0  0  0  0
   51.3649   29.6561   42.1881 H   0  0  0  0  0  0  0  0  0  0  0  0
   50.8089   31.8546   43.1640 H   0  0  0  0  0  0  0  0  0  0  0  0
   52.0796   31.9324   41.9163 H   0  0  0  0  0  0  0  0  0  0  0  0
   47.2835   36.1151   41.1297 H   0  0  0  0  0  0  0  0  0  0  0  0
   47.7975   35.9868   42.8138 H   0  0  0  0  0  0  0  0  0  0  0  0
   47.0745   33.2591   42.0476 H   0  0  0  0  0  0  0  0  0  0  0  0
   45.8867   34.3623   41.3728 H   0  0  0  0  0  0  0  0  0  0  0  0
   43.8494   36.7578   44.8238 H   0  0  0  0  0  0  0  0  0  0  0  0
   44.9947   36.3455   42.6907 H   0  0  0  0  0  0  0  0  0  0  0  0
   46.4521   33.4616   47.8613 C   0  0  0  0  0  0  0  0  0  0  0  0
   45.6651   33.0860   46.7927 C   0  0  0  0  0  0  0  0  0  0  0  0
   45.0728   31.8417   46.8605 C   0  0  0  0  0  0  0  0  0  0  0  0
   44.4573   31.5557   46.0177 H   0  0  0  0  0  0  0  0  0  0  0  0
   45.2860   31.0453   47.9641 C   0  0  0  0  0  0  0  0  0  0  0  0
   46.0798   31.4361   49.0309 C   0  0  0  0  0  0  0  0  0  0  0  0
   46.6733   32.6705   48.9745 C   0  0  0  0  0  0  0  0  0  0  0  0
   46.0568   30.3852   49.9425 O   0  0  0  0  0  0  0  0  0  0  0  0
   45.0039   29.4905   49.6039 C   0  0  2  0  0  0  0  0  0  0  0  0
   44.0659   29.7312   50.1317 H   0  0  0  0  0  0  0  0  0  0  0  0
   44.7855   29.7666   48.2271 O   0  0  0  0  0  0  0  0  0  0  0  0
   46.9459   34.4362   47.8621 H   0  0  0  0  0  0  0  0  0  0  0  0
   47.2964   32.9962   49.7949 H   0  0  0  0  0  0  0  0  0  0  0  0
   45.2909   28.4367   49.6843 H   0  0  0  0  0  0  0  0  0  0  0  0
  1 10  1  0
  1  3  1  0
  1  2  1  0
  3  2  1  0
  4  9  1  0
  4  3  1  0
  5  4  1  0
  6  5  1  0
  6  7  1  0
  7  8  1  0
  8  9  1  0
 10 11  1  0
 11 14  1  0
 12 17  2  0
 13 12  1  0
 14 13  2  0
 14 15  1  0
 15 16  2  0
 16 17  1  0
  1 18  1  6
  2 19  1  0
  2 20  1  0
  3 21  1  1
  5 22  1  0
  5 23  1  0
  6 24  1  0
  6 25  1  0
  7 26  1  0
  8 27  1  0
  8 28  1  0
  9 29  1  0
  9 30  1  0
 10 31  1  0
 10 32  1  0
 11 33  1  0
 11 34  1  0
 12 35  1  0
 13 36  1  0
 37 38  2  0
 38 39  1  0
 39 40  1  0
 39 41  2  0
 41 42  1  0
 42 43  2  0
 42 44  1  0
 44 45  1  0
 45 46  1  1
 45 47  1  0
 43 37  1  0
 47 41  1  0
 37 48  1  0
 43 49  1  0
 45 50  1  0
 16 38  1  0
M  ISO  8  18  13  19  13  20  13  21  13  22  13  23  13  24  13  25  13
M  ISO  8  26   5  27  13  28  13  29  13  30  13  31   8  32   8  33   8
M  ISO  5  34   8  35  14  36  14  40  16  46   8
M  END
>  <DihAtoms>  (1) 
14,15,37,36

>  <DihDeg>  (1) 
0.0009754703651178595

$$$$
