
 OpenBabel03252508543D

 45 49  0  0  1  0  0  0  0  0999 V2000
   43.2790   34.4050   40.7380 C   0  0  0  0  0  0  0  0  0  0  0  0
   43.2270   35.6180   40.3460 O   0  0  0  0  0  0  0  0  0  0  0  0
   41.9230   33.9850   40.4330 N   0  0  0  0  0  0  0  0  0  0  0  0
   41.5650   34.0750   39.0330 C   0  0  0  0  0  0  0  0  0  0  0  0
   40.7620   35.3890   38.9140 C   0  0  0  0  0  0  0  0  0  0  0  0
   39.9570   35.5190   40.2160 C   0  0  0  0  0  0  0  0  0  0  0  0
   39.6070   34.1580   40.7750 C   0  0  0  0  0  0  0  0  0  0  0  0
   40.8870   33.4960   41.3150 C   0  0  1  0  0  0  0  0  0  0  0  0
   42.4280   34.1930   38.3560 H   0  0  0  0  0  0  0  0  0  0  0  0
   40.9510   33.2330   38.6740 H   0  0  0  0  0  0  0  0  0  0  0  0
   41.4770   36.2430   38.9140 H   0  0  0  0  0  0  0  0  0  0  0  0
   40.1390   35.4190   38.0210 H   0  0  0  0  0  0  0  0  0  0  0  0
   38.9940   35.9920   39.9320 H   0  0  0  0  0  0  0  0  0  0  0  0
   40.5030   36.0840   40.9890 H   0  0  0  0  0  0  0  0  0  0  0  0
   39.2570   33.5510   39.9010 H   0  0  0  0  0  0  0  0  0  0  0  0
   38.8670   34.3030   41.5590 H   0  0  0  0  0  0  0  0  0  0  0  0
   41.1200   33.8430   42.3270 H   0  0  0  0  0  0  0  0  0  0  0  0
   40.8770   31.2240   40.1930 C   0  0  0  0  0  3  0  0  0  0  0  0
   40.7440   32.0200   41.3100 C   0  0  0  0  0  0  0  0  0  0  0  0
   40.4530   31.4050   42.5160 C   0  0  0  0  0  0  0  0  0  0  0  0
   40.3240   31.9420   43.4680 H   0  0  0  0  0  0  0  0  0  0  0  0
   40.2990   30.0360   42.6140 C   0  0  0  0  0  0  0  0  0  0  0  0
   40.4390   29.2450   41.4740 C   0  0  0  0  0  0  0  0  0  0  0  0
   40.7280   29.8400   40.2670 C   0  0  0  0  0  3  0  0  0  0  0  0
   40.2360   27.9050   41.8470 O   0  0  0  0  0  0  0  0  0  0  0  0
   40.5820   27.8650   43.2390 C   0  0  0  0  0  3  0  0  0  0  0  0
   40.1540   27.0090   43.7600 H   0  0  0  0  0  0  0  0  0  0  0  0
   40.0140   29.1210   43.6440 O   0  0  0  0  0  0  0  0  0  0  0  0
   44.3530   33.7710   41.2800 O   0  0  0  0  0  0  0  0  0  0  0  0
   45.6810   34.0820   41.1190 C   0  0  0  0  0  0  0  0  0  0  0  0
   46.3340   34.7080   42.1790 C   0  0  0  0  0  0  0  0  0  0  0  0
   47.6900   35.0140   41.9890 C   0  0  0  0  0  0  0  0  0  0  0  0
   48.2800   34.6860   40.7960 N   0  0  0  0  0  0  0  0  0  0  0  0
   47.6000   34.0880   39.8200 C   0  0  0  0  0  0  0  0  0  0  0  0
   46.3050   33.7810   39.9680 N   0  0  0  0  0  0  0  0  0  0  0  0
   48.1970   35.5000   42.8090 H   0  0  0  0  0  0  0  0  0  0  0  0
   48.0870   33.8330   38.8770 H   0  0  0  0  0  0  0  0  0  0  0  0
   45.6170   35.0120   43.3980 C   0  0  0  0  0  0  0  0  0  0  0  0
   45.0000   36.2440   43.6230 C   0  0  0  0  0  0  0  0  0  0  0  0
   44.4510   36.1050   44.8700 C   0  0  0  0  0  0  0  0  0  0  0  0
   44.7100   34.8750   45.3800 N   0  0  0  0  0  0  0  0  0  0  0  0
   45.4130   34.2460   44.4650 N   0  0  0  0  0  0  0  0  0  0  0  0
   44.9830   37.0860   42.9450 H   0  0  0  0  0  0  0  0  0  0  0  0
   43.8850   36.9050   45.3560 H   0  0  0  0  0  0  0  0  0  0  0  0
   44.3640   34.5890   46.3320 H   0  0  0  0  0  0  0  0  0  0  0  0
  1 29  1  0  0  0  0
  2  1  2  0  0  0  0
  3  1  1  0  0  0  0
  3  8  1  0  0  0  0
  4  3  1  0  0  0  0
  5 11  1  0  0  0  0
  5  4  1  0  0  0  0
  5  6  1  0  0  0  0
  6  7  1  0  0  0  0
  6 14  1  0  0  0  0
  7  8  1  0  0  0  0
  7 16  1  0  0  0  0
  8 17  1  1  0  0  0
  9  4  1  0  0  0  0
 10  4  1  0  0  0  0
 12  5  1  0  0  0  0
 13  6  1  0  0  0  0
 15  7  1  0  0  0  0
 18 24  2  0  0  0  0
 18 19  1  0  0  0  0
 19  8  1  0  0  0  0
 19 20  2  0  0  0  0
 20 22  1  0  0  0  0
 20 21  1  0  0  0  0
 22 28  1  0  0  0  0
 23 25  1  0  0  0  0
 23 22  2  0  0  0  0
 24 23  1  0  0  0  0
 25 26  1  0  0  0  0
 26 28  1  0  0  0  0
 26 27  1  0  0  0  0
 30 29  1  0  0  0  0
 30 31  1  0  0  0  0
 31 38  1  0  0  0  0
 32 31  2  0  0  0  0
 32 36  1  0  0  0  0
 33 32  1  0  0  0  0
 34 35  1  0  0  0  0
 34 33  2  0  0  0  0
 35 30  2  0  0  0  0
 37 34  1  0  0  0  0
 38 39  1  0  0  0  0
 38 42  2  0  0  0  0
 39 40  2  0  0  0  0
 40 44  1  0  0  0  0
 40 41  1  0  0  0  0
 41 45  1  0  0  0  0
 42 41  1  0  0  0  0
 43 39  1  0  0  0  0
M  END
>  <minimizedAffinity>
-7.1590271

>  <minimizedRMSD>
0.449236721

$$$$
