
 OpenBabel03252508513D

 30 33  0  0  0  0  0  0  0  0999 V2000
   46.0740   34.1710   41.0130 C   0  0  0  0  0  0  0  0  0  0  0  0
   46.6040   34.8450   42.1070 C   0  0  0  0  0  0  0  0  0  0  0  0
   47.9270   35.2860   41.9810 C   0  0  0  0  0  0  0  0  0  0  0  0
   48.6020   35.0310   40.8160 N   0  0  0  0  0  0  0  0  0  0  0  0
   48.0420   34.3800   39.8040 C   0  0  0  0  0  0  0  0  0  0  0  0
   46.7770   33.9410   39.8820 N   0  0  0  0  0  0  0  0  0  0  0  0
   48.3660   35.8130   42.8160 H   0  0  0  0  0  0  0  0  0  0  0  0
   48.5830   34.1840   38.8910 H   0  0  0  0  0  0  0  0  0  0  0  0
   45.8010   35.0600   43.2920 C   0  0  0  0  0  0  0  0  0  0  0  0
   45.0500   36.1930   43.4990 C   0  0  0  0  0  0  0  0  0  0  0  0
   44.4650   35.9730   44.7290 C   0  0  0  0  0  0  0  0  0  0  0  0
   44.8390   34.7770   45.2380 N   0  0  0  0  0  0  0  0  0  0  0  0
   45.6470   34.2430   44.3500 N   0  0  0  0  0  0  0  0  0  0  0  0
   44.8960   37.0810   42.9060 H   0  0  0  0  0  0  0  0  0  0  0  0
   43.7780   36.6060   45.3090 H   0  0  0  0  0  0  0  0  0  0  0  0
   44.5960   34.2920   46.1270 H   0  0  0  0  0  0  0  0  0  0  0  0
   44.7680   33.7180   41.0950 O   0  0  0  0  0  0  0  0  0  0  0  0
   43.6830   34.1980   40.4160 C   0  0  0  0  0  0  0  0  0  0  0  0
   43.2620   35.4120   40.3850 O   0  0  0  0  0  0  0  0  0  0  0  0
   41.4110   33.3390   39.6880 C   0  0  0  0  0  3  0  0  0  0  0  0
   42.7980   33.3330   39.5810 C   0  0  0  0  0  0  0  0  0  0  0  0
   43.2540   32.4500   38.6320 C   0  0  0  0  0  0  0  0  0  0  0  0
   44.3240   32.3720   38.4720 H   0  0  0  0  0  0  0  0  0  0  0  0
   42.4530   31.6510   37.8610 C   0  0  0  0  0  0  0  0  0  0  0  0
   41.0900   31.7250   38.0370 C   0  0  0  0  0  0  0  0  0  0  0  0
   40.5330   32.5740   38.9580 C   0  0  0  0  0  3  0  0  0  0  0  0
   40.5310   30.8280   37.1470 O   0  0  0  0  0  0  0  0  0  0  0  0
   41.5330   30.1450   36.4080 C   0  0  0  0  0  3  0  0  0  0  0  0
   41.4800   30.3450   35.3190 H   0  0  0  0  0  0  0  0  0  0  0  0
   42.7350   30.7190   36.8740 O   0  0  0  0  0  0  0  0  0  0  0  0
  1 17  1  0  0  0  0
  1  2  1  0  0  0  0
  2  9  1  0  0  0  0
  3  2  2  0  0  0  0
  3  7  1  0  0  0  0
  4  3  1  0  0  0  0
  5  6  1  0  0  0  0
  5  4  2  0  0  0  0
  6  1  2  0  0  0  0
  8  5  1  0  0  0  0
  9 10  1  0  0  0  0
  9 13  2  0  0  0  0
 10 11  2  0  0  0  0
 11 12  1  0  0  0  0
 11 15  1  0  0  0  0
 12 16  1  0  0  0  0
 13 12  1  0  0  0  0
 14 10  1  0  0  0  0
 18 17  1  0  0  0  0
 19 18  2  0  0  0  0
 21 20  1  0  0  0  0
 21 18  1  0  0  0  0
 22 21  2  0  0  0  0
 23 22  1  0  0  0  0
 24 25  2  0  0  0  0
 24 22  1  0  0  0  0
 25 26  1  0  0  0  0
 26 20  2  0  0  0  0
 27 25  1  0  0  0  0
 28 30  1  0  0  0  0
 28 27  1  0  0  0  0
 29 28  1  0  0  0  0
 30 24  1  0  0  0  0
M  END
>  <minimizedAffinity>
-5.36123276

>  <minimizedRMSD>
0.354963362

$$$$
