
 OpenBabel03242520403D

 41 45  0  0  1  0  0  0  0  0999 V2000
   45.8790   33.5060   45.7980 C   0  0  0  0  0  0  0  0  0  0  0  0
   46.6750   33.6480   44.6310 C   0  0  0  0  0  0  0  0  0  0  0  0
   47.3340   32.4860   44.1280 C   0  0  0  0  0  0  0  0  0  0  0  0
   47.1720   31.2970   44.7830 N   0  0  0  0  0  0  0  0  0  0  0  0
   46.3970   31.2250   45.8940 C   0  0  0  0  0  0  0  0  0  0  0  0
   45.7640   32.3170   46.3880 N   0  0  0  0  0  0  0  0  0  0  0  0
   46.2870   29.9700   46.5030 N   0  0  0  0  0  0  0  0  0  0  0  0
   47.4430   29.2890   46.9850 C   0  0  2  0  0  0  0  0  0  0  0  0
   47.2240   27.8660   47.3610 C   0  0  0  0  0  0  0  0  0  0  0  0
   45.9390   27.5170   47.8330 N   0  0  0  0  0  0  0  0  0  0  0  0
   45.0370   28.6080   47.9600 C   0  0  0  0  0  0  0  0  0  0  0  0
   44.9890   29.3500   46.6500 C   0  0  0  0  0  0  0  0  0  0  0  0
   45.4180   34.4180   46.1130 H   0  0  0  0  0  0  0  0  0  0  0  0
   46.8510   34.5330   44.0660 H   0  0  0  0  0  0  0  0  0  0  0  0
   47.9520   32.5430   43.2420 H   0  0  0  0  0  0  0  0  0  0  0  0
   48.1470   29.2260   46.0960 H   0  0  0  0  0  0  0  0  0  0  0  0
   47.9600   27.6320   48.1830 H   0  0  0  0  0  0  0  0  0  0  0  0
   47.4860   27.1520   46.5530 H   0  0  0  0  0  0  0  0  0  0  0  0
   45.9200   26.8170   48.6050 H   0  0  0  0  0  0  0  0  0  0  0  0
   44.0090   28.1510   48.0910 H   0  0  0  0  0  0  0  0  0  0  0  0
   45.1850   29.2520   48.8270 H   0  0  0  0  0  0  0  0  0  0  0  0
   44.9110   28.5970   45.8580 H   0  0  0  0  0  0  0  0  0  0  0  0
   44.1820   30.1120   46.6060 H   0  0  0  0  0  0  0  0  0  0  0  0
   48.1500   30.0680   48.0360 C   0  0  0  0  0  0  0  0  0  0  0  0
   47.7120   30.9290   49.0120 C   0  0  0  0  0  0  0  0  0  0  0  0
   48.7210   31.3990   49.7510 N   0  0  0  0  0  0  0  0  0  0  0  0
   49.8180   30.8380   49.2520 C   0  0  0  0  0  0  0  0  0  0  0  0
   49.4800   30.0410   48.2240 N   0  0  0  0  0  0  0  0  0  0  0  0
   46.6760   31.1960   49.1600 H   0  0  0  0  0  0  0  0  0  0  0  0
   48.6960   32.0620   50.5550 H   0  0  0  0  0  0  0  0  0  0  0  0
   52.0100   32.0840   49.4140 C   0  0  0  0  0  3  0  0  0  0  0  0
   51.2240   30.9750   49.6550 C   0  0  0  0  0  0  0  0  0  0  0  0
   51.7940   29.9120   50.3250 C   0  0  0  0  0  0  0  0  0  0  0  0
   51.2080   29.0290   50.5310 H   0  0  0  0  0  0  0  0  0  0  0  0
   53.1070   29.9280   50.7520 C   0  0  0  0  0  0  0  0  0  0  0  0
   53.9040   31.0450   50.5100 C   0  0  0  0  0  0  0  0  0  0  0  0
   53.3250   32.1020   49.8390 C   0  0  0  0  0  3  0  0  0  0  0  0
   55.1850   30.8140   51.0380 O   0  0  0  0  0  0  0  0  0  0  0  0
   55.2670   29.3830   51.1010 C   0  0  0  0  0  3  0  0  0  0  0  0
   56.0070   29.1430   51.8630 H   0  0  0  0  0  0  0  0  0  0  0  0
   53.9360   29.0310   51.4320 O   0  0  0  0  0  0  0  0  0  0  0  0
  1 13  1  0  0  0  0
  1  6  1  0  0  0  0
  2  1  2  0  0  0  0
  3  2  1  0  0  0  0
  3  4  2  0  0  0  0
  4  5  1  0  0  0  0
  5  6  2  0  0  0  0
  5  7  1  0  0  0  0
  7 12  1  0  0  0  0
  7  8  1  0  0  0  0
  8 16  1  6  0  0  0
  8  9  1  0  0  0  0
  8 24  1  0  0  0  0
  9 10  1  0  0  0  0
  9 17  1  0  0  0  0
 10 11  1  0  0  0  0
 10 19  1  0  0  0  0
 11 20  1  0  0  0  0
 11 21  1  0  0  0  0
 12 11  1  0  0  0  0
 14  2  1  0  0  0  0
 15  3  1  0  0  0  0
 18  9  1  0  0  0  0
 22 12  1  0  0  0  0
 23 12  1  0  0  0  0
 24 28  1  0  0  0  0
 24 25  2  0  0  0  0
 25 29  1  0  0  0  0
 25 26  1  0  0  0  0
 26 30  1  0  0  0  0
 27 32  1  0  0  0  0
 27 26  1  0  0  0  0
 28 27  2  0  0  0  0
 31 32  2  0  0  0  0
 31 37  1  0  0  0  0
 32 33  1  0  0  0  0
 33 34  1  0  0  0  0
 33 35  2  0  0  0  0
 35 41  1  0  0  0  0
 36 35  1  0  0  0  0
 36 38  1  0  0  0  0
 37 36  2  0  0  0  0
 38 39  1  0  0  0  0
 39 41  1  0  0  0  0
 39 40  1  0  0  0  0
M  END
>  <minimizedAffinity>
-5.31316566

>  <minimizedRMSD>
0.298203528

$$$$
