
 OpenBabel03242510233D

 40 44  0  0  1  0  0  0  0  0999 V2000
   48.0990   33.3530   43.4570 N   0  0  0  0  0  0  0  0  0  0  0  0
   49.2130   33.2860   42.6310 C   0  0  0  0  0  0  0  0  0  0  0  0
   50.3450   32.7650   42.8130 O   0  0  0  0  0  0  0  0  0  0  0  0
   47.6440   34.2910   43.4210 H   0  0  0  0  0  0  0  0  0  0  0  0
   46.2230   32.2610   44.6310 C   0  0  1  0  0  0  0  0  0  0  0  0
   46.5290   31.4350   43.5440 C   0  0  0  0  0  0  0  0  0  0  0  0
   47.6510   32.2640   44.2470 C   0  0  1  0  0  0  0  0  0  0  0  0
   45.9510   31.8740   45.6430 H   0  0  0  0  0  0  0  0  0  0  0  0
   46.3810   31.6290   42.4680 H   0  0  0  0  0  0  0  0  0  0  0  0
   46.5880   30.3170   43.7210 H   0  0  0  0  0  0  0  0  0  0  0  0
   48.3750   31.6050   44.7690 H   0  0  0  0  0  0  0  0  0  0  0  0
   44.9500   33.8950   43.0520 C   0  0  0  0  0  0  0  0  0  0  0  0
   45.4550   33.5650   44.3500 C   0  0  0  0  0  0  0  0  0  0  0  0
   45.2500   34.4760   45.3640 C   0  0  0  0  0  0  0  0  0  0  0  0
   44.5930   35.6240   45.0940 N   0  0  0  0  0  0  0  0  0  0  0  0
   44.1210   35.9250   43.8570 C   0  0  0  0  0  0  0  0  0  0  0  0
   44.3110   35.0220   42.8060 N   0  0  0  0  0  0  0  0  0  0  0  0
   45.0930   33.1770   42.2690 H   0  0  0  0  0  0  0  0  0  0  0  0
   45.6190   34.2560   46.3620 H   0  0  0  0  0  0  0  0  0  0  0  0
   43.6030   36.8620   43.7010 H   0  0  0  0  0  0  0  0  0  0  0  0
   49.1490   33.9170   41.2480 C   0  0  2  0  0  0  0  0  0  0  0  0
   48.6830   35.4190   41.1960 C   0  0  0  0  0  0  0  0  0  0  0  0
   47.8700   34.2900   40.6370 C   0  0  1  0  0  0  0  0  0  0  0  0
   50.0320   33.7900   40.5910 H   0  0  0  0  0  0  0  0  0  0  0  0
   48.3900   35.7930   42.1990 H   0  0  0  0  0  0  0  0  0  0  0  0
   49.1560   36.0740   40.4690 H   0  0  0  0  0  0  0  0  0  0  0  0
   47.0050   33.8280   41.1590 H   0  0  0  0  0  0  0  0  0  0  0  0
   47.7630   34.1920   39.1330 C   0  0  0  0  0  0  0  0  0  0  0  0
   48.5690   34.7960   38.4320 O   0  0  0  0  0  0  0  0  0  0  0  0
   45.7750   32.6340   39.1310 C   0  0  0  0  0  3  0  0  0  0  0  0
   46.7270   33.3950   38.4870 C   0  0  0  0  0  0  0  0  0  0  0  0
   46.6370   33.3620   37.1110 C   0  0  0  0  0  0  0  0  0  0  0  0
   47.3200   33.9130   36.4710 H   0  0  0  0  0  0  0  0  0  0  0  0
   45.6880   32.6370   36.4200 C   0  0  0  0  0  0  0  0  0  0  0  0
   44.7590   31.8910   37.1080 C   0  0  0  0  0  0  0  0  0  0  0  0
   44.8110   31.8960   38.4780 C   0  0  0  0  0  3  0  0  0  0  0  0
   43.9340   31.2690   36.1720 O   0  0  0  0  0  0  0  0  0  0  0  0
   44.6510   31.2220   34.9300 C   0  0  0  0  0  3  0  0  0  0  0  0
   45.4440   30.4280   34.9540 H   0  0  0  0  0  0  0  0  0  0  0  0
   45.3950   32.4420   35.0650 O   0  0  0  0  0  0  0  0  0  0  0  0
  1  7  1  0  0  0  0
  2  3  2  0  0  0  0
  2  1  1  0  0  0  0
  4  1  1  0  0  0  0
  5  8  1  1  0  0  0
  6 10  1  0  0  0  0
  6  7  1  0  0  0  0
  6  5  1  0  0  0  0
  7  5  1  0  0  0  0
  7 11  1  1  0  0  0
  9  6  1  0  0  0  0
 12 13  1  0  0  0  0
 13  5  1  0  0  0  0
 13 14  2  0  0  0  0
 14 19  1  0  0  0  0
 15 14  1  0  0  0  0
 16 15  2  0  0  0  0
 17 12  2  0  0  0  0
 17 16  1  0  0  0  0
 18 12  1  0  0  0  0
 20 16  1  0  0  0  0
 21 24  1  6  0  0  0
 21  2  1  0  0  0  0
 22 21  1  0  0  0  0
 22 25  1  0  0  0  0
 23 27  1  1  0  0  0
 23 22  1  0  0  0  0
 23 21  1  0  0  0  0
 26 22  1  0  0  0  0
 28 23  1  0  0  0  0
 29 28  2  0  0  0  0
 31 30  1  0  0  0  0
 31 28  1  0  0  0  0
 32 31  2  0  0  0  0
 33 32  1  0  0  0  0
 34 35  2  0  0  0  0
 34 32  1  0  0  0  0
 35 36  1  0  0  0  0
 36 30  2  0  0  0  0
 37 35  1  0  0  0  0
 38 39  1  0  0  0  0
 38 40  1  0  0  0  0
 38 37  1  0  0  0  0
 40 34  1  0  0  0  0
M  END
>  <minimizedAffinity>
-5.29174519

>  <minimizedRMSD>
1.18762279

$$$$
