REMARK  Name = 
REMARK  5 active torsions:
REMARK  status: ('A' for Active; 'I' for Inactive)
REMARK    1  A    between atoms: C_1  and  C_10
REMARK    2  A    between atoms: C_3  and  N_4
REMARK    3  A    between atoms: C_10  and  C_11
REMARK    4  A    between atoms: C_11  and  C_14
REMARK    5  A    between atoms: C_16  and  C_38
REMARK                            x       y       z     vdW  Elec       q    Type
REMARK                         _______ _______ _______ _____ _____    ______ ____
ROOT
ATOM      1  C   UNL     1      47.660  35.390  41.897  0.00  0.00    +0.000 C 
ATOM      2  H   UNL     1      47.283  36.115  41.130  0.00  0.00    +0.000 HD
ATOM      3  H   UNL     1      47.797  35.987  42.814  0.00  0.00    +0.000 HD
ENDROOT
BRANCH   1   4
ATOM      4  C   UNL     1      48.964  34.763  41.516  0.00  0.00    +0.000 C 
ATOM      5  C   UNL     1      50.072  34.799  42.526  0.00  0.00    +0.000 C 
ATOM      6  C   UNL     1      49.345  33.537  42.205  0.00  0.00    +0.000 C 
ATOM      7  H   UNL     1      49.249  34.959  40.487  0.00  0.00    +0.000 HD
ATOM      8  H   UNL     1      51.101  34.980  42.146  0.00  0.00    +0.000 HD
ATOM      9  H   UNL     1      49.916  35.300  43.510  0.00  0.00    +0.000 HD
ATOM     10  H   UNL     1      48.839  33.101  43.058  0.00  0.00    +0.000 HD
BRANCH   6  11
ATOM     11  N   UNL     1      50.133  32.629  41.381  0.00  0.00    +0.000 NA
ATOM     12  C   UNL     1      49.477  32.197  40.203  0.00  0.00    +0.000 C 
ATOM     13  C   UNL     1      50.445  31.261  39.505  0.00  0.00    +0.000 C 
ATOM     14  N   UNL     1      50.750  30.119  40.286  0.00  0.00    +0.000 NA
ATOM     15  C   UNL     1      50.629  30.326  41.718  0.00  0.00    +0.000 C 
ATOM     16  C   UNL     1      51.008  31.772  42.056  0.00  0.00    +0.000 C 
ATOM     17  H   UNL     1      49.376  33.076  39.523  0.00  0.00    +0.000 HD
ATOM     18  H   UNL     1      48.480  31.765  40.330  0.00  0.00    +0.000 HD
ATOM     19  H   UNL     1      51.309  31.849  39.141  0.00  0.00    +0.000 HD
ATOM     20  H   UNL     1      49.906  30.912  38.596  0.00  0.00    +0.000 HD
ATOM     21  H   UNL     1      51.622  29.651  40.014  0.00  0.00    +0.000 HD
ATOM     22  H   UNL     1      49.627  30.111  42.112  0.00  0.00    +0.000 HD
ATOM     23  H   UNL     1      51.365  29.656  42.188  0.00  0.00    +0.000 HD
ATOM     24  H   UNL     1      50.809  31.855  43.164  0.00  0.00    +0.000 HD
ATOM     25  H   UNL     1      52.080  31.932  41.916  0.00  0.00    +0.000 HD
ENDBRANCH   6  11
ENDBRANCH   1   4
BRANCH   1  26
ATOM     26  C   UNL     1      46.694  34.262  42.148  0.00  0.00    +0.000 C 
ATOM     27  H   UNL     1      47.075  33.259  42.048  0.00  0.00    +0.000 HD
ATOM     28  H   UNL     1      45.887  34.362  41.373  0.00  0.00    +0.000 HD
BRANCH  26  31
ATOM     29  C   UNL     1      44.500  35.901  44.716  0.00  0.00    +0.000 A 
ATOM     30  C   UNL     1      45.170  35.646  43.494  0.00  0.00    +0.000 A 
ATOM     31  C   UNL     1      45.974  34.546  43.432  0.00  0.00    +0.000 A 
ATOM     32  N   UNL     1      46.105  33.746  44.521  0.00  0.00    +0.000 NA
ATOM     33  C   UNL     1      45.484  33.984  45.654  0.00  0.00    +0.000 A 
ATOM     34  N   UNL     1      44.681  35.051  45.771  0.00  0.00    +0.000 NA
ATOM     35  H   UNL     1      43.849  36.758  44.824  0.00  0.00    +0.000 HD
ATOM     36  H   UNL     1      44.995  36.346  42.691  0.00  0.00    +0.000 HD
BRANCH  33  38
ATOM     37  C   UNL     1      46.452  33.462  47.861  0.00  0.00    +0.000 A 
ATOM     38  C   UNL     1      45.665  33.086  46.793  0.00  0.00    +0.000 A 
ATOM     39  C   UNL     1      45.073  31.842  46.861  0.00  0.00    +0.000 A 
ATOM     40  H   UNL     1      44.457  31.556  46.018  0.00  0.00    +0.000 HD
ATOM     41  C   UNL     1      45.286  31.045  47.964  0.00  0.00    +0.000 A 
ATOM     42  C   UNL     1      46.080  31.436  49.031  0.00  0.00    +0.000 A 
ATOM     43  C   UNL     1      46.673  32.670  48.974  0.00  0.00    +0.000 A 
ATOM     44  O   UNL     1      46.057  30.385  49.943  0.00  0.00    +0.000 OA
ATOM     45  C   UNL     1      45.004  29.491  49.604  0.00  0.00    +0.000 C 
ATOM     46  H   UNL     1      44.066  29.731  50.132  0.00  0.00    +0.000 HD
ATOM     47  O   UNL     1      44.785  29.767  48.227  0.00  0.00    +0.000 OA
ENDBRANCH  33  38
ENDBRANCH  26  31
ENDBRANCH   1  26
TORSDOF 5
