
 OpenBabel03242523093D

 47 52  0  0  1  0  0  0  0  0999 V2000
   36.5810   27.9150   41.4660 C   0  0  0  0  0  0  0  0  0  0  0  0
   37.4620   27.2940   40.5500 C   0  0  0  0  0  0  0  0  0  0  0  0
   37.8780   28.2010   39.5920 C   0  0  0  0  0  0  0  0  0  0  0  0
   37.5180   29.5080   39.5010 C   0  0  0  0  0  0  0  0  0  0  0  0
   36.6480   30.0310   40.4330 C   0  0  0  0  0  0  0  0  0  0  0  0
   36.1710   29.2340   41.4320 C   0  0  0  0  0  0  0  0  0  0  0  0
   36.4780   31.3450   40.0600 O   0  0  0  0  0  0  0  0  0  0  0  0
   37.3000   31.6590   38.9640 C   0  0  2  0  0  0  0  0  0  0  0  0
   37.9230   30.4410   38.5580 O   0  0  0  0  0  0  0  0  0  0  0  0
   36.0750   27.4920   42.3570 H   0  0  0  0  0  0  0  0  0  0  0  0
   38.5220   27.7460   38.9110 H   0  0  0  0  0  0  0  0  0  0  0  0
   35.5110   29.7310   42.1010 H   0  0  0  0  0  0  0  0  0  0  0  0
   36.7310   32.0840   38.1120 H   0  0  0  0  0  0  0  0  0  0  0  0
   37.9390   33.9200   39.9320 C   0  0  0  0  0  3  0  0  0  0  0  0
   38.2780   32.6830   39.4030 C   0  0  0  0  0  0  0  0  0  0  0  0
   39.6190   32.3340   39.2530 C   0  0  0  0  0  0  0  0  0  0  0  0
   39.9160   31.3600   38.8370 H   0  0  0  0  0  0  0  0  0  0  0  0
   40.5800   33.2580   39.6490 C   0  0  0  0  0  0  0  0  0  0  0  0
   40.2530   34.4860   40.1760 C   0  0  0  0  0  0  0  0  0  0  0  0
   38.9200   34.8130   40.3150 C   0  0  0  0  0  3  0  0  0  0  0  0
   41.4790   35.0990   40.4380 O   0  0  0  0  0  0  0  0  0  0  0  0
   42.4550   34.0690   40.5520 C   0  0  0  0  0  3  0  0  0  0  0  0
   42.4280   33.5670   41.5350 H   0  0  0  0  0  0  0  0  0  0  0  0
   41.9710   33.1280   39.5940 O   0  0  0  0  0  0  0  0  0  0  0  0
   38.4790   23.8440   41.5700 C   0  0  0  0  0  0  0  0  0  0  0  0
   38.5880   25.2300   41.5110 C   0  0  0  0  0  0  0  0  0  0  0  0
   37.6480   25.9210   40.7990 C   0  0  0  0  0  0  0  0  0  0  0  0
   36.6490   25.2240   40.1750 N   0  0  0  0  0  0  0  0  0  0  0  0
   36.5660   23.8840   40.2460 C   0  0  0  0  0  0  0  0  0  0  0  0
   37.4660   23.2100   40.9330 N   0  0  0  0  0  0  0  0  0  0  0  0
   39.2100   23.2840   42.1290 H   0  0  0  0  0  0  0  0  0  0  0  0
   35.8110   23.2640   39.7830 H   0  0  0  0  0  0  0  0  0  0  0  0
   39.6680   25.8320   42.1590 N   0  0  0  0  0  0  0  0  0  0  0  0
   39.5630   26.4080   43.4460 C   0  0  0  0  0  0  0  0  0  0  0  0
   40.8590   26.8660   44.0520 C   0  0  0  0  0  0  0  0  0  0  0  0
   41.9680   26.0320   43.8230 N   0  0  0  0  0  0  0  0  0  0  0  0
   42.0690   25.4620   42.5440 C   0  0  0  0  0  0  0  0  0  0  0  0
   40.9750   25.9440   41.6120 C   0  0  0  0  0  0  0  0  0  0  0  0
   39.0390   25.7790   44.2090 H   0  0  0  0  0  0  0  0  0  0  0  0
   38.9230   27.3130   43.3690 H   0  0  0  0  0  0  0  0  0  0  0  0
   41.0850   27.8960   43.6900 H   0  0  0  0  0  0  0  0  0  0  0  0
   40.7040   26.9810   45.1610 H   0  0  0  0  0  0  0  0  0  0  0  0
   42.8300   26.4880   44.1410 H   0  0  0  0  0  0  0  0  0  0  0  0
   43.0300   25.8360   42.0750 H   0  0  0  0  0  0  0  0  0  0  0  0
   42.1760   24.3600   42.5130 H   0  0  0  0  0  0  0  0  0  0  0  0
   41.1000   25.4860   40.6210 H   0  0  0  0  0  0  0  0  0  0  0  0
   41.1730   27.0500   41.4990 H   0  0  0  0  0  0  0  0  0  0  0  0
  1 10  1  0  0  0  0
  2 27  1  0  0  0  0
  2  1  2  0  0  0  0
  3  2  1  0  0  0  0
  4  3  2  0  0  0  0
  4  5  1  0  0  0  0
  5  6  2  0  0  0  0
  6  1  1  0  0  0  0
  6 12  1  0  0  0  0
  7  5  1  0  0  0  0
  8 13  1  6  0  0  0
  8 15  1  0  0  0  0
  8  7  1  0  0  0  0
  9  8  1  0  0  0  0
  9  4  1  0  0  0  0
 11  3  1  0  0  0  0
 14 20  1  0  0  0  0
 15 14  2  0  0  0  0
 16 15  1  0  0  0  0
 16 18  2  0  0  0  0
 17 16  1  0  0  0  0
 18 19  1  0  0  0  0
 19 20  2  0  0  0  0
 19 21  1  0  0  0  0
 21 22  1  0  0  0  0
 22 23  1  0  0  0  0
 24 18  1  0  0  0  0
 24 22  1  0  0  0  0
 25 31  1  0  0  0  0
 26 25  1  0  0  0  0
 26 33  1  0  0  0  0
 27 26  2  0  0  0  0
 28 29  2  0  0  0  0
 28 27  1  0  0  0  0
 29 30  1  0  0  0  0
 30 25  2  0  0  0  0
 32 29  1  0  0  0  0
 33 34  1  0  0  0  0
 34 35  1  0  0  0  0
 34 39  1  0  0  0  0
 35 42  1  0  0  0  0
 36 35  1  0  0  0  0
 36 43  1  0  0  0  0
 37 36  1  0  0  0  0
 38 33  1  0  0  0  0
 38 37  1  0  0  0  0
 40 34  1  0  0  0  0
 41 35  1  0  0  0  0
 44 37  1  0  0  0  0
 45 37  1  0  0  0  0
 46 38  1  0  0  0  0
 47 38  1  0  0  0  0
M  END
>  <minimizedAffinity>
-6.88108158

$$$$

 OpenBabel03242523093D

 47 52  0  0  1  0  0  0  0  0999 V2000
   37.4390   31.3070   40.6490 C   0  0  0  0  0  0  0  0  0  0  0  0
   38.8290   31.3690   40.9000 C   0  0  0  0  0  0  0  0  0  0  0  0
   39.2360   30.2680   41.6300 C   0  0  0  0  0  0  0  0  0  0  0  0
   38.4510   29.2500   42.0690 C   0  0  0  0  0  0  0  0  0  0  0  0
   37.1030   29.2720   41.7850 C   0  0  0  0  0  0  0  0  0  0  0  0
   36.5810   30.3070   41.0650 C   0  0  0  0  0  0  0  0  0  0  0  0
   36.5990   28.1320   42.3690 O   0  0  0  0  0  0  0  0  0  0  0  0
   37.6340   27.3650   42.9320 C   0  0  2  0  0  0  0  0  0  0  0  0
   38.8310   28.1320   42.7960 O   0  0  0  0  0  0  0  0  0  0  0  0
   36.7900   32.0100   40.0870 H   0  0  0  0  0  0  0  0  0  0  0  0
   40.2590   30.3130   41.8230 H   0  0  0  0  0  0  0  0  0  0  0  0
   35.5350   30.2310   40.8960 H   0  0  0  0  0  0  0  0  0  0  0  0
   37.4620   27.1360   44.0030 H   0  0  0  0  0  0  0  0  0  0  0  0
   36.7070   25.1020   42.2400 C   0  0  0  0  0  3  0  0  0  0  0  0
   37.6960   26.0750   42.2040 C   0  0  0  0  0  0  0  0  0  0  0  0
   38.8470   25.8690   41.4470 C   0  0  0  0  0  0  0  0  0  0  0  0
   39.6470   26.6220   41.4010 H   0  0  0  0  0  0  0  0  0  0  0  0
   38.9580   24.6740   40.7440 C   0  0  0  0  0  0  0  0  0  0  0  0
   37.9820   23.7050   40.7720 C   0  0  0  0  0  0  0  0  0  0  0  0
   36.8510   23.9280   41.5280 C   0  0  0  0  0  3  0  0  0  0  0  0
   38.4690   22.6860   39.9520 O   0  0  0  0  0  0  0  0  0  0  0  0
   39.4300   23.2640   39.0760 C   0  0  0  0  0  3  0  0  0  0  0  0
   38.9640   23.8020   38.2320 H   0  0  0  0  0  0  0  0  0  0  0  0
   40.0120   24.2530   39.9260 O   0  0  0  0  0  0  0  0  0  0  0  0
   40.8160   34.0660   39.2380 C   0  0  0  0  0  0  0  0  0  0  0  0
   40.4620   32.7520   39.5310 C   0  0  0  0  0  0  0  0  0  0  0  0
   39.4330   32.5410   40.4050 C   0  0  0  0  0  0  0  0  0  0  0  0
   38.8010   33.6240   40.9530 N   0  0  0  0  0  0  0  0  0  0  0  0
   39.1610   34.8850   40.6550 C   0  0  0  0  0  0  0  0  0  0  0  0
   40.1510   35.0970   39.8110 N   0  0  0  0  0  0  0  0  0  0  0  0
   41.6240   34.2510   38.5500 H   0  0  0  0  0  0  0  0  0  0  0  0
   38.7130   35.7880   41.0440 H   0  0  0  0  0  0  0  0  0  0  0  0
   41.2010   31.7260   38.9380 N   0  0  0  0  0  0  0  0  0  0  0  0
   40.8280   31.1280   37.7120 C   0  0  0  0  0  0  0  0  0  0  0  0
   41.8220   30.1540   37.1460 C   0  0  0  0  0  0  0  0  0  0  0  0
   43.1760   30.5090   37.2900 N   0  0  0  0  0  0  0  0  0  0  0  0
   43.5400   31.1030   38.5090 C   0  0  0  0  0  0  0  0  0  0  0  0
   42.3840   31.1640   39.4880 C   0  0  0  0  0  0  0  0  0  0  0  0
   40.5560   31.8420   36.8960 H   0  0  0  0  0  0  0  0  0  0  0  0
   39.8930   30.5510   37.8780 H   0  0  0  0  0  0  0  0  0  0  0  0
   41.6490   29.1510   37.6040 H   0  0  0  0  0  0  0  0  0  0  0  0
   41.5890   30.0130   36.0540 H   0  0  0  0  0  0  0  0  0  0  0  0
   43.7820   29.7300   37.0120 H   0  0  0  0  0  0  0  0  0  0  0  0
   44.3010   30.4280   39.0060 H   0  0  0  0  0  0  0  0  0  0  0  0
   44.0650   32.0750   38.4350 H   0  0  0  0  0  0  0  0  0  0  0  0
   42.7170   31.6210   40.4300 H   0  0  0  0  0  0  0  0  0  0  0  0
   42.1460   30.0820   39.7030 H   0  0  0  0  0  0  0  0  0  0  0  0
  1  2  2  0  0  0  0
  1  6  1  0  0  0  0
  2  3  1  0  0  0  0
  3 11  1  0  0  0  0
  3  4  2  0  0  0  0
  4  9  1  0  0  0  0
  5  4  1  0  0  0  0
  5  7  1  0  0  0  0
  6  5  2  0  0  0  0
  7  8  1  0  0  0  0
  8 13  1  1  0  0  0
  9  8  1  0  0  0  0
 10  1  1  0  0  0  0
 12  6  1  0  0  0  0
 15 14  1  0  0  0  0
 15  8  1  0  0  0  0
 16 15  2  0  0  0  0
 17 16  1  0  0  0  0
 18 19  2  0  0  0  0
 18 16  1  0  0  0  0
 19 20  1  0  0  0  0
 20 14  2  0  0  0  0
 21 19  1  0  0  0  0
 22 24  1  0  0  0  0
 22 21  1  0  0  0  0
 23 22  1  0  0  0  0
 24 18  1  0  0  0  0
 25 26  2  0  0  0  0
 25 30  1  0  0  0  0
 26 27  1  0  0  0  0
 27  2  1  0  0  0  0
 27 28  2  0  0  0  0
 29 28  1  0  0  0  0
 29 32  1  0  0  0  0
 30 29  2  0  0  0  0
 31 25  1  0  0  0  0
 33 38  1  0  0  0  0
 33 26  1  0  0  0  0
 34 40  1  0  0  0  0
 34 33  1  0  0  0  0
 35 36  1  0  0  0  0
 35 41  1  0  0  0  0
 35 34  1  0  0  0  0
 36 37  1  0  0  0  0
 37 44  1  0  0  0  0
 37 38  1  0  0  0  0
 38 47  1  0  0  0  0
 38 46  1  0  0  0  0
 39 34  1  0  0  0  0
 42 35  1  0  0  0  0
 43 36  1  0  0  0  0
 45 37  1  0  0  0  0
M  END
>  <minimizedAffinity>
-6.78717279

$$$$

 OpenBabel03242523093D

 47 52  0  0  1  0  0  0  0  0999 V2000
   35.7940   28.1540   39.6660 C   0  0  0  0  0  0  0  0  0  0  0  0
   36.9580   27.3750   39.4670 C   0  0  0  0  0  0  0  0  0  0  0  0
   37.9560   28.1410   38.8930 C   0  0  0  0  0  0  0  0  0  0  0  0
   37.8770   29.4520   38.5480 C   0  0  0  0  0  0  0  0  0  0  0  0
   36.7010   30.1340   38.7710 C   0  0  0  0  0  0  0  0  0  0  0  0
   35.6420   29.4880   39.3380 C   0  0  0  0  0  0  0  0  0  0  0  0
   36.9380   31.4090   38.3080 O   0  0  0  0  0  0  0  0  0  0  0  0
   38.2720   31.5430   37.8860 C   0  0  2  0  0  0  0  0  0  0  0  0
   38.8610   30.2460   37.9770 O   0  0  0  0  0  0  0  0  0  0  0  0
   34.8200   27.8670   40.1110 H   0  0  0  0  0  0  0  0  0  0  0  0
   38.8140   27.5690   38.7390 H   0  0  0  0  0  0  0  0  0  0  0  0
   34.7840   30.1000   39.4710 H   0  0  0  0  0  0  0  0  0  0  0  0
   38.3550   31.9130   36.8440 H   0  0  0  0  0  0  0  0  0  0  0  0
   38.2700   33.3560   39.6670 C   0  0  0  0  0  3  0  0  0  0  0  0
   38.9340   32.5350   38.7660 C   0  0  0  0  0  0  0  0  0  0  0  0
   40.3200   32.6130   38.6450 C   0  0  0  0  0  0  0  0  0  0  0  0
   40.8720   31.9750   37.9400 H   0  0  0  0  0  0  0  0  0  0  0  0
   40.9930   33.5280   39.4480 C   0  0  0  0  0  0  0  0  0  0  0  0
   40.3430   34.3450   40.3440 C   0  0  0  0  0  0  0  0  0  0  0  0
   38.9710   34.2530   40.4480 C   0  0  0  0  0  3  0  0  0  0  0  0
   41.3560   35.0980   40.9390 O   0  0  0  0  0  0  0  0  0  0  0  0
   42.5740   34.3790   40.7770 C   0  0  0  0  0  3  0  0  0  0  0  0
   42.6780   33.5540   41.5040 H   0  0  0  0  0  0  0  0  0  0  0  0
   42.3670   33.7790   39.4980 O   0  0  0  0  0  0  0  0  0  0  0  0
   36.7870   23.9890   41.0420 C   0  0  0  0  0  0  0  0  0  0  0  0
   37.0850   25.3470   40.9910 C   0  0  0  0  0  0  0  0  0  0  0  0
   36.7970   26.0280   39.8410 C   0  0  0  0  0  0  0  0  0  0  0  0
   36.2360   25.3470   38.7950 N   0  0  0  0  0  0  0  0  0  0  0  0
   35.9570   24.0330   38.8690 C   0  0  0  0  0  0  0  0  0  0  0  0
   36.2290   23.3700   39.9750 N   0  0  0  0  0  0  0  0  0  0  0  0
   37.0050   23.4370   41.9420 H   0  0  0  0  0  0  0  0  0  0  0  0
   35.5160   23.4280   38.0890 H   0  0  0  0  0  0  0  0  0  0  0  0
   37.6880   25.9290   42.1080 N   0  0  0  0  0  0  0  0  0  0  0  0
   39.0100   25.6250   42.5060 C   0  0  0  0  0  0  0  0  0  0  0  0
   39.5490   26.4600   43.6330 C   0  0  0  0  0  0  0  0  0  0  0  0
   39.1950   27.8210   43.6070 N   0  0  0  0  0  0  0  0  0  0  0  0
   37.8820   28.1180   43.2110 C   0  0  0  0  0  0  0  0  0  0  0  0
   37.0580   26.8690   42.9660 C   0  0  0  0  0  0  0  0  0  0  0  0
   39.7710   25.6370   41.6860 H   0  0  0  0  0  0  0  0  0  0  0  0
   39.0310   24.5730   42.8670 H   0  0  0  0  0  0  0  0  0  0  0  0
   39.2310   26.0100   44.6030 H   0  0  0  0  0  0  0  0  0  0  0  0
   40.6710   26.3680   43.6300 H   0  0  0  0  0  0  0  0  0  0  0  0
   39.4770   28.2810   44.4790 H   0  0  0  0  0  0  0  0  0  0  0  0
   37.3690   28.6340   44.0780 H   0  0  0  0  0  0  0  0  0  0  0  0
   37.7800   28.8440   42.3800 H   0  0  0  0  0  0  0  0  0  0  0  0
   36.0360   27.1480   42.6720 H   0  0  0  0  0  0  0  0  0  0  0  0
   36.9950   26.3760   43.9790 H   0  0  0  0  0  0  0  0  0  0  0  0
  1 10  1  0  0  0  0
  2  1  1  0  0  0  0
  2 27  1  0  0  0  0
  3  2  2  0  0  0  0
  4  5  2  0  0  0  0
  4  3  1  0  0  0  0
  5  6  1  0  0  0  0
  6 12  1  0  0  0  0
  6  1  2  0  0  0  0
  7  5  1  0  0  0  0
  8 13  1  6  0  0  0
  8  9  1  0  0  0  0
  8  7  1  0  0  0  0
  8 15  1  0  0  0  0
  9  4  1  0  0  0  0
 11  3  1  0  0  0  0
 14 20  1  0  0  0  0
 15 14  2  0  0  0  0
 16 15  1  0  0  0  0
 16 18  2  0  0  0  0
 17 16  1  0  0  0  0
 18 24  1  0  0  0  0
 18 19  1  0  0  0  0
 19 20  2  0  0  0  0
 19 21  1  0  0  0  0
 22 21  1  0  0  0  0
 22 23  1  0  0  0  0
 24 22  1  0  0  0  0
 25 31  1  0  0  0  0
 26 25  1  0  0  0  0
 26 33  1  0  0  0  0
 27 26  2  0  0  0  0
 28 29  2  0  0  0  0
 28 27  1  0  0  0  0
 29 30  1  0  0  0  0
 30 25  2  0  0  0  0
 32 29  1  0  0  0  0
 33 34  1  0  0  0  0
 33 38  1  0  0  0  0
 34 40  1  0  0  0  0
 34 35  1  0  0  0  0
 35 41  1  0  0  0  0
 36 35  1  0  0  0  0
 36 43  1  0  0  0  0
 37 36  1  0  0  0  0
 37 44  1  0  0  0  0
 38 37  1  0  0  0  0
 38 47  1  0  0  0  0
 39 34  1  0  0  0  0
 42 35  1  0  0  0  0
 45 37  1  0  0  0  0
 46 38  1  0  0  0  0
M  END
>  <minimizedAffinity>
-6.66985321

$$$$

 OpenBabel03242523093D

 47 52  0  0  1  0  0  0  0  0999 V2000
   37.6810   31.0530   39.5860 C   0  0  0  0  0  0  0  0  0  0  0  0
   38.7300   31.3410   40.4900 C   0  0  0  0  0  0  0  0  0  0  0  0
   38.7730   30.3930   41.4950 C   0  0  0  0  0  0  0  0  0  0  0  0
   37.9470   29.3240   41.6390 C   0  0  0  0  0  0  0  0  0  0  0  0
   36.9450   29.1210   40.7160 C   0  0  0  0  0  0  0  0  0  0  0  0
   36.8040   29.9880   39.6720 C   0  0  0  0  0  0  0  0  0  0  0  0
   36.2920   27.9880   41.1450 O   0  0  0  0  0  0  0  0  0  0  0  0
   36.9340   27.4420   42.2700 C   0  0  2  0  0  0  0  0  0  0  0  0
   37.9700   28.3550   42.6320 O   0  0  0  0  0  0  0  0  0  0  0  0
   37.3720   31.5910   38.6680 H   0  0  0  0  0  0  0  0  0  0  0  0
   39.5410   30.6050   42.1670 H   0  0  0  0  0  0  0  0  0  0  0  0
   36.0060   29.7450   39.0140 H   0  0  0  0  0  0  0  0  0  0  0  0
   36.2470   27.3050   43.1290 H   0  0  0  0  0  0  0  0  0  0  0  0
   38.4880   25.4520   42.5550 C   0  0  0  0  0  3  0  0  0  0  0  0
   37.4550   26.1050   41.8970 C   0  0  0  0  0  0  0  0  0  0  0  0
   36.8350   25.5030   40.8040 C   0  0  0  0  0  0  0  0  0  0  0  0
   36.0140   25.9990   40.2650 H   0  0  0  0  0  0  0  0  0  0  0  0
   37.2850   24.2480   40.4110 C   0  0  0  0  0  0  0  0  0  0  0  0
   38.3070   23.5920   41.0580 C   0  0  0  0  0  0  0  0  0  0  0  0
   38.9080   24.2050   42.1360 C   0  0  0  0  0  3  0  0  0  0  0  0
   38.4490   22.3870   40.3670 O   0  0  0  0  0  0  0  0  0  0  0  0
   37.2220   22.1330   39.6940 C   0  0  0  0  0  3  0  0  0  0  0  0
   36.4460   21.7250   40.3650 H   0  0  0  0  0  0  0  0  0  0  0  0
   36.8180   23.4600   39.3540 O   0  0  0  0  0  0  0  0  0  0  0  0
   40.9660   34.1010   39.3240 C   0  0  0  0  0  0  0  0  0  0  0  0
   40.5420   32.7810   39.4430 C   0  0  0  0  0  0  0  0  0  0  0  0
   39.4200   32.5290   40.1820 C   0  0  0  0  0  0  0  0  0  0  0  0
   38.7690   33.5780   40.7720 N   0  0  0  0  0  0  0  0  0  0  0  0
   39.2000   34.8460   40.6420 C   0  0  0  0  0  0  0  0  0  0  0  0
   40.2790   35.0980   39.9290 N   0  0  0  0  0  0  0  0  0  0  0  0
   41.8480   34.3180   38.7430 H   0  0  0  0  0  0  0  0  0  0  0  0
   38.7430   35.7250   41.0750 H   0  0  0  0  0  0  0  0  0  0  0  0
   41.3040   31.7880   38.8250 N   0  0  0  0  0  0  0  0  0  0  0  0
   41.1920   31.4850   37.4490 C   0  0  0  0  0  0  0  0  0  0  0  0
   42.1990   30.5010   36.9240 C   0  0  0  0  0  0  0  0  0  0  0  0
   43.5030   30.6290   37.4380 N   0  0  0  0  0  0  0  0  0  0  0  0
   43.6080   30.9300   38.8060 C   0  0  0  0  0  0  0  0  0  0  0  0
   42.2580   30.9720   39.4920 C   0  0  0  0  0  0  0  0  0  0  0  0
   41.1980   32.3680   36.7630 H   0  0  0  0  0  0  0  0  0  0  0  0
   40.1950   31.0250   37.2740 H   0  0  0  0  0  0  0  0  0  0  0  0
   41.8260   29.4660   37.1080 H   0  0  0  0  0  0  0  0  0  0  0  0
   42.2320   30.5980   35.8030 H   0  0  0  0  0  0  0  0  0  0  0  0
   44.0830   29.8360   37.1440 H   0  0  0  0  0  0  0  0  0  0  0  0
   44.1570   30.0740   39.3050 H   0  0  0  0  0  0  0  0  0  0  0  0
   44.2240   31.8150   39.0590 H   0  0  0  0  0  0  0  0  0  0  0  0
   42.3880   31.1960   40.5600 H   0  0  0  0  0  0  0  0  0  0  0  0
   41.8730   29.9140   39.4140 H   0  0  0  0  0  0  0  0  0  0  0  0
  1  6  2  0  0  0  0
  1  2  1  0  0  0  0
  2  3  2  0  0  0  0
  3  4  1  0  0  0  0
  3 11  1  0  0  0  0
  4  9  1  0  0  0  0
  5  7  1  0  0  0  0
  5  4  2  0  0  0  0
  6  5  1  0  0  0  0
  7  8  1  0  0  0  0
  8  9  1  0  0  0  0
  8 13  1  1  0  0  0
 10  1  1  0  0  0  0
 12  6  1  0  0  0  0
 15  8  1  0  0  0  0
 15 14  2  0  0  0  0
 16 15  1  0  0  0  0
 17 16  1  0  0  0  0
 18 16  2  0  0  0  0
 18 19  1  0  0  0  0
 19 20  2  0  0  0  0
 20 14  1  0  0  0  0
 21 19  1  0  0  0  0
 22 23  1  0  0  0  0
 22 21  1  0  0  0  0
 24 22  1  0  0  0  0
 24 18  1  0  0  0  0
 25 26  2  0  0  0  0
 25 30  1  0  0  0  0
 26 27  1  0  0  0  0
 27  2  1  0  0  0  0
 27 28  2  0  0  0  0
 29 28  1  0  0  0  0
 29 32  1  0  0  0  0
 30 29  2  0  0  0  0
 31 25  1  0  0  0  0
 33 26  1  0  0  0  0
 33 38  1  0  0  0  0
 34 33  1  0  0  0  0
 35 41  1  0  0  0  0
 35 36  1  0  0  0  0
 35 34  1  0  0  0  0
 36 37  1  0  0  0  0
 37 45  1  0  0  0  0
 37 44  1  0  0  0  0
 37 38  1  0  0  0  0
 38 46  1  0  0  0  0
 39 34  1  0  0  0  0
 40 34  1  0  0  0  0
 42 35  1  0  0  0  0
 43 36  1  0  0  0  0
 47 38  1  0  0  0  0
M  END
>  <minimizedAffinity>
-6.58452129

$$$$

 OpenBabel03242523093D

 47 52  0  0  1  0  0  0  0  0999 V2000
   40.1340   32.5610   40.7700 C   0  0  0  0  0  0  0  0  0  0  0  0
   41.3090   31.9760   41.2960 C   0  0  0  0  0  0  0  0  0  0  0  0
   40.9990   30.8310   42.0070 C   0  0  0  0  0  0  0  0  0  0  0  0
   39.7610   30.3080   42.2030 C   0  0  0  0  0  0  0  0  0  0  0  0
   38.6690   30.9470   41.6600 C   0  0  0  0  0  0  0  0  0  0  0  0
   38.8470   32.0860   40.9310 C   0  0  0  0  0  0  0  0  0  0  0  0
   37.5870   30.1880   42.0450 O   0  0  0  0  0  0  0  0  0  0  0  0
   38.0080   29.0420   42.7430 C   0  0  2  0  0  0  0  0  0  0  0  0
   39.4220   29.1610   42.9060 O   0  0  0  0  0  0  0  0  0  0  0  0
   40.0160   33.4700   40.1450 H   0  0  0  0  0  0  0  0  0  0  0  0
   41.8620   30.4000   42.4020 H   0  0  0  0  0  0  0  0  0  0  0  0
   37.9440   32.5010   40.5530 H   0  0  0  0  0  0  0  0  0  0  0  0
   37.5290   28.9480   43.7380 H   0  0  0  0  0  0  0  0  0  0  0  0
   37.0550   27.9030   40.6810 C   0  0  0  0  0  3  0  0  0  0  0  0
   37.6220   27.8530   41.9470 C   0  0  0  0  0  0  0  0  0  0  0  0
   37.8640   26.6220   42.5530 C   0  0  0  0  0  0  0  0  0  0  0  0
   38.3120   26.5530   43.5550 H   0  0  0  0  0  0  0  0  0  0  0  0
   37.5200   25.4720   41.8510 C   0  0  0  0  0  0  0  0  0  0  0  0
   36.9590   25.5120   40.5950 C   0  0  0  0  0  0  0  0  0  0  0  0
   36.7270   26.7400   40.0130 C   0  0  0  0  0  3  0  0  0  0  0  0
   36.7690   24.1730   40.2480 O   0  0  0  0  0  0  0  0  0  0  0  0
   37.6640   23.3970   41.0370 C   0  0  0  0  0  3  0  0  0  0  0  0
   38.6960   23.4140   40.6470 H   0  0  0  0  0  0  0  0  0  0  0  0
   37.6680   24.1420   42.2540 O   0  0  0  0  0  0  0  0  0  0  0  0
   44.2960   33.7660   39.9350 C   0  0  0  0  0  0  0  0  0  0  0  0
   43.1620   32.9620   39.8650 C   0  0  0  0  0  0  0  0  0  0  0  0
   42.4730   32.7190   41.0200 C   0  0  0  0  0  0  0  0  0  0  0  0
   42.9280   33.2690   42.1880 N   0  0  0  0  0  0  0  0  0  0  0  0
   44.0270   34.0420   42.2290 C   0  0  0  0  0  0  0  0  0  0  0  0
   44.6960   34.2850   41.1200 N   0  0  0  0  0  0  0  0  0  0  0  0
   44.8500   33.9700   39.0330 H   0  0  0  0  0  0  0  0  0  0  0  0
   44.4470   34.5110   43.1080 H   0  0  0  0  0  0  0  0  0  0  0  0
   42.8120   32.4280   38.6240 N   0  0  0  0  0  0  0  0  0  0  0  0
   43.2800   31.1720   38.1740 C   0  0  0  0  0  0  0  0  0  0  0  0
   42.6770   30.6850   36.8880 C   0  0  0  0  0  0  0  0  0  0  0  0
   41.3040   30.9430   36.7210 N   0  0  0  0  0  0  0  0  0  0  0  0
   40.8440   32.1920   37.1690 C   0  0  0  0  0  0  0  0  0  0  0  0
   41.9680   33.0710   37.6780 C   0  0  0  0  0  0  0  0  0  0  0  0
   43.2020   30.3390   38.9170 H   0  0  0  0  0  0  0  0  0  0  0  0
   44.3730   31.2550   37.9890 H   0  0  0  0  0  0  0  0  0  0  0  0
   43.2450   31.1210   36.0330 H   0  0  0  0  0  0  0  0  0  0  0  0
   42.8580   29.5760   36.8150 H   0  0  0  0  0  0  0  0  0  0  0  0
   41.0100   30.7130   35.7660 H   0  0  0  0  0  0  0  0  0  0  0  0
   40.4290   32.7470   36.2740 H   0  0  0  0  0  0  0  0  0  0  0  0
   39.9910   32.1670   37.8770 H   0  0  0  0  0  0  0  0  0  0  0  0
   41.5660   34.0400   38.0050 H   0  0  0  0  0  0  0  0  0  0  0  0
   42.6070   33.2600   36.7670 H   0  0  0  0  0  0  0  0  0  0  0  0
  1  6  2  0  0  0  0
  1  2  1  0  0  0  0
  2  3  2  0  0  0  0
  3  4  1  0  0  0  0
  3 11  1  0  0  0  0
  4  9  1  0  0  0  0
  5  7  1  0  0  0  0
  5  4  2  0  0  0  0
  6  5  1  0  0  0  0
  7  8  1  0  0  0  0
  8  9  1  0  0  0  0
  8 13  1  1  0  0  0
 10  1  1  0  0  0  0
 12  6  1  0  0  0  0
 14 15  1  0  0  0  0
 15 16  2  0  0  0  0
 15  8  1  0  0  0  0
 16 17  1  0  0  0  0
 18 24  1  0  0  0  0
 18 16  1  0  0  0  0
 19 18  2  0  0  0  0
 20 19  1  0  0  0  0
 20 14  2  0  0  0  0
 21 19  1  0  0  0  0
 21 22  1  0  0  0  0
 22 24  1  0  0  0  0
 23 22  1  0  0  0  0
 25 30  1  0  0  0  0
 26 25  2  0  0  0  0
 26 27  1  0  0  0  0
 27  2  1  0  0  0  0
 27 28  2  0  0  0  0
 28 29  1  0  0  0  0
 29 32  1  0  0  0  0
 30 29  2  0  0  0  0
 31 25  1  0  0  0  0
 33 26  1  0  0  0  0
 34 33  1  0  0  0  0
 34 39  1  0  0  0  0
 35 34  1  0  0  0  0
 36 35  1  0  0  0  0
 36 37  1  0  0  0  0
 37 38  1  0  0  0  0
 37 45  1  0  0  0  0
 38 46  1  0  0  0  0
 38 33  1  0  0  0  0
 40 34  1  0  0  0  0
 41 35  1  0  0  0  0
 42 35  1  0  0  0  0
 43 36  1  0  0  0  0
 44 37  1  0  0  0  0
 47 38  1  0  0  0  0
M  END
>  <minimizedAffinity>
-6.56474257

$$$$

 OpenBabel03242523093D

 47 52  0  0  1  0  0  0  0  0999 V2000
   38.4120   32.2050   39.3530 C   0  0  0  0  0  0  0  0  0  0  0  0
   39.7580   32.0240   39.7500 C   0  0  0  0  0  0  0  0  0  0  0  0
   39.8370   31.1020   40.7770 C   0  0  0  0  0  0  0  0  0  0  0  0
   38.8010   30.4430   41.3580 C   0  0  0  0  0  0  0  0  0  0  0  0
   37.5190   30.6840   40.9140 C   0  0  0  0  0  0  0  0  0  0  0  0
   37.3120   31.5710   39.8990 C   0  0  0  0  0  0  0  0  0  0  0  0
   36.7170   29.8870   41.7000 O   0  0  0  0  0  0  0  0  0  0  0  0
   37.4960   29.0940   42.5590 C   0  0  2  0  0  0  0  0  0  0  0  0
   38.8510   29.5110   42.3840 O   0  0  0  0  0  0  0  0  0  0  0  0
   37.9910   32.8520   38.5580 H   0  0  0  0  0  0  0  0  0  0  0  0
   40.8260   30.9710   41.0770 H   0  0  0  0  0  0  0  0  0  0  0  0
   36.2910   31.6850   39.6280 H   0  0  0  0  0  0  0  0  0  0  0  0
   37.2100   29.2110   43.6240 H   0  0  0  0  0  0  0  0  0  0  0  0
   36.7820   26.7060   43.0520 C   0  0  0  0  0  3  0  0  0  0  0  0
   37.2830   27.6740   42.1920 C   0  0  0  0  0  0  0  0  0  0  0  0
   37.6250   27.3340   40.8850 C   0  0  0  0  0  0  0  0  0  0  0  0
   38.0250   28.0810   40.1840 H   0  0  0  0  0  0  0  0  0  0  0  0
   37.4450   26.0140   40.4880 C   0  0  0  0  0  0  0  0  0  0  0  0
   36.9480   25.0470   41.3320 C   0  0  0  0  0  0  0  0  0  0  0  0
   36.6170   25.4040   42.6220 C   0  0  0  0  0  3  0  0  0  0  0  0
   36.9250   23.8820   40.5640 O   0  0  0  0  0  0  0  0  0  0  0  0
   36.9070   24.2730   39.1960 C   0  0  0  0  0  3  0  0  0  0  0  0
   35.9040   24.5870   38.8580 H   0  0  0  0  0  0  0  0  0  0  0  0
   37.7160   25.4480   39.2380 O   0  0  0  0  0  0  0  0  0  0  0  0
   42.2500   33.6930   37.5190 C   0  0  0  0  0  0  0  0  0  0  0  0
   41.4710   32.6350   37.9770 C   0  0  0  0  0  0  0  0  0  0  0  0
   40.6590   32.8530   39.0550 C   0  0  0  0  0  0  0  0  0  0  0  0
   40.6510   34.0920   39.6350 N   0  0  0  0  0  0  0  0  0  0  0  0
   41.4140   35.0980   39.1740 C   0  0  0  0  0  0  0  0  0  0  0  0
   42.1980   34.8990   38.1330 N   0  0  0  0  0  0  0  0  0  0  0  0
   42.8950   33.5400   36.6680 H   0  0  0  0  0  0  0  0  0  0  0  0
   41.4640   36.1010   39.5760 H   0  0  0  0  0  0  0  0  0  0  0  0
   41.5860   31.4050   37.3270 N   0  0  0  0  0  0  0  0  0  0  0  0
   42.7420   31.0300   36.6030 C   0  0  0  0  0  0  0  0  0  0  0  0
   42.7540   29.6130   36.1050 C   0  0  0  0  0  0  0  0  0  0  0  0
   42.2180   28.6520   36.9820 N   0  0  0  0  0  0  0  0  0  0  0  0
   41.0710   29.0300   37.6970 C   0  0  0  0  0  0  0  0  0  0  0  0
   40.5750   30.4070   37.3040 C   0  0  0  0  0  0  0  0  0  0  0  0
   43.7130   31.2090   37.1290 H   0  0  0  0  0  0  0  0  0  0  0  0
   42.8110   31.6730   35.7000 H   0  0  0  0  0  0  0  0  0  0  0  0
   42.2170   29.5670   35.1280 H   0  0  0  0  0  0  0  0  0  0  0  0
   43.8180   29.3380   35.8590 H   0  0  0  0  0  0  0  0  0  0  0  0
   42.1310   27.7460   36.5100 H   0  0  0  0  0  0  0  0  0  0  0  0
   40.2330   28.3280   37.4000 H   0  0  0  0  0  0  0  0  0  0  0  0
   41.1280   28.9140   38.7980 H   0  0  0  0  0  0  0  0  0  0  0  0
   39.6710   30.6560   37.8770 H   0  0  0  0  0  0  0  0  0  0  0  0
   40.2700   30.2950   36.2230 H   0  0  0  0  0  0  0  0  0  0  0  0
  1  2  2  0  0  0  0
  1  6  1  0  0  0  0
  2  3  1  0  0  0  0
  3 11  1  0  0  0  0
  3  4  2  0  0  0  0
  4  9  1  0  0  0  0
  5  4  1  0  0  0  0
  5  7  1  0  0  0  0
  6  5  2  0  0  0  0
  7  8  1  0  0  0  0
  8 13  1  1  0  0  0
  9  8  1  0  0  0  0
 10  1  1  0  0  0  0
 12  6  1  0  0  0  0
 15  8  1  0  0  0  0
 15 14  2  0  0  0  0
 16 15  1  0  0  0  0
 17 16  1  0  0  0  0
 18 16  2  0  0  0  0
 18 19  1  0  0  0  0
 19 20  2  0  0  0  0
 20 14  1  0  0  0  0
 21 19  1  0  0  0  0
 22 24  1  0  0  0  0
 22 21  1  0  0  0  0
 23 22  1  0  0  0  0
 24 18  1  0  0  0  0
 25 26  2  0  0  0  0
 25 30  1  0  0  0  0
 26 27  1  0  0  0  0
 27 28  2  0  0  0  0
 27  2  1  0  0  0  0
 29 32  1  0  0  0  0
 29 28  1  0  0  0  0
 30 29  2  0  0  0  0
 31 25  1  0  0  0  0
 33 26  1  0  0  0  0
 34 39  1  0  0  0  0
 34 33  1  0  0  0  0
 35 34  1  0  0  0  0
 35 36  1  0  0  0  0
 36 37  1  0  0  0  0
 37 45  1  0  0  0  0
 38 33  1  0  0  0  0
 38 37  1  0  0  0  0
 38 46  1  0  0  0  0
 40 34  1  0  0  0  0
 41 35  1  0  0  0  0
 42 35  1  0  0  0  0
 43 36  1  0  0  0  0
 44 37  1  0  0  0  0
 47 38  1  0  0  0  0
M  END
>  <minimizedAffinity>
-6.4661088

$$$$

 OpenBabel03242523093D

 47 52  0  0  1  0  0  0  0  0999 V2000
   36.8090   28.0830   41.5390 C   0  0  0  0  0  0  0  0  0  0  0  0
   37.2350   27.5350   40.3070 C   0  0  0  0  0  0  0  0  0  0  0  0
   37.3920   28.5350   39.3640 C   0  0  0  0  0  0  0  0  0  0  0  0
   37.1760   29.8630   39.5460 C   0  0  0  0  0  0  0  0  0  0  0  0
   36.7540   30.3120   40.7790 C   0  0  0  0  0  0  0  0  0  0  0  0
   36.5680   29.4200   41.7940 C   0  0  0  0  0  0  0  0  0  0  0  0
   36.6170   31.6740   40.6320 O   0  0  0  0  0  0  0  0  0  0  0  0
   37.0330   32.0790   39.3520 C   0  0  2  0  0  0  0  0  0  0  0  0
   37.3290   30.8870   38.6230 O   0  0  0  0  0  0  0  0  0  0  0  0
   36.6010   27.5770   42.5030 H   0  0  0  0  0  0  0  0  0  0  0  0
   37.7000   28.1340   38.4520 H   0  0  0  0  0  0  0  0  0  0  0  0
   36.2460   29.8640   42.7040 H   0  0  0  0  0  0  0  0  0  0  0  0
   36.2550   32.6560   38.8130 H   0  0  0  0  0  0  0  0  0  0  0  0
   38.1830   34.2220   40.0880 C   0  0  0  0  0  3  0  0  0  0  0  0
   38.2140   32.9600   39.5110 C   0  0  0  0  0  0  0  0  0  0  0  0
   39.4170   32.4430   39.0330 C   0  0  0  0  0  0  0  0  0  0  0  0
   39.4700   31.4470   38.5710 H   0  0  0  0  0  0  0  0  0  0  0  0
   40.5570   33.2290   39.1570 C   0  0  0  0  0  0  0  0  0  0  0  0
   40.5360   34.4810   39.7290 C   0  0  0  0  0  0  0  0  0  0  0  0
   39.3360   34.9740   40.1950 C   0  0  0  0  0  3  0  0  0  0  0  0
   41.8570   34.9250   39.6610 O   0  0  0  0  0  0  0  0  0  0  0  0
   42.6890   33.7760   39.5410 C   0  0  0  0  0  3  0  0  0  0  0  0
   42.8470   33.2660   40.5070 H   0  0  0  0  0  0  0  0  0  0  0  0
   41.8600   32.9220   38.7530 O   0  0  0  0  0  0  0  0  0  0  0  0
   37.5680   23.8610   39.7030 C   0  0  0  0  0  0  0  0  0  0  0  0
   37.4900   25.2010   39.3370 C   0  0  0  0  0  0  0  0  0  0  0  0
   37.3370   26.1310   40.3270 C   0  0  0  0  0  0  0  0  0  0  0  0
   37.2640   25.7060   41.6260 N   0  0  0  0  0  0  0  0  0  0  0  0
   37.3420   24.4040   41.9540 C   0  0  0  0  0  0  0  0  0  0  0  0
   37.4920   23.5010   41.0060 N   0  0  0  0  0  0  0  0  0  0  0  0
   37.6900   23.1140   38.9350 H   0  0  0  0  0  0  0  0  0  0  0  0
   37.2930   23.9910   42.9520 H   0  0  0  0  0  0  0  0  0  0  0  0
   37.5410   25.5150   37.9780 N   0  0  0  0  0  0  0  0  0  0  0  0
   36.3800   25.7150   37.1960 C   0  0  0  0  0  0  0  0  0  0  0  0
   36.6260   26.2000   35.7960 C   0  0  0  0  0  0  0  0  0  0  0  0
   37.6570   27.1460   35.6480 N   0  0  0  0  0  0  0  0  0  0  0  0
   38.8070   26.9420   36.4270 C   0  0  0  0  0  0  0  0  0  0  0  0
   38.7400   25.6570   37.2290 C   0  0  0  0  0  0  0  0  0  0  0  0
   35.6070   26.3830   37.6510 H   0  0  0  0  0  0  0  0  0  0  0  0
   35.8570   24.7400   37.0960 H   0  0  0  0  0  0  0  0  0  0  0  0
   36.8280   25.3220   35.1380 H   0  0  0  0  0  0  0  0  0  0  0  0
   35.6640   26.6350   35.4030 H   0  0  0  0  0  0  0  0  0  0  0  0
   37.8540   27.3090   34.6550 H   0  0  0  0  0  0  0  0  0  0  0  0
   39.6790   26.7930   35.7200 H   0  0  0  0  0  0  0  0  0  0  0  0
   39.1250   27.7990   37.0530 H   0  0  0  0  0  0  0  0  0  0  0  0
   39.6640   25.5320   37.8110 H   0  0  0  0  0  0  0  0  0  0  0  0
   38.7200   24.8430   36.4470 H   0  0  0  0  0  0  0  0  0  0  0  0
  1  6  1  0  0  0  0
  1 10  1  0  0  0  0
  2 27  1  0  0  0  0
  2  1  2  0  0  0  0
  3  4  2  0  0  0  0
  3  2  1  0  0  0  0
  4  5  1  0  0  0  0
  5  6  2  0  0  0  0
  6 12  1  0  0  0  0
  7  5  1  0  0  0  0
  8 13  1  6  0  0  0
  8 15  1  0  0  0  0
  8  7  1  0  0  0  0
  9  8  1  0  0  0  0
  9  4  1  0  0  0  0
 11  3  1  0  0  0  0
 14 20  1  0  0  0  0
 15 14  2  0  0  0  0
 16 18  2  0  0  0  0
 16 15  1  0  0  0  0
 17 16  1  0  0  0  0
 18 19  1  0  0  0  0
 19 20  2  0  0  0  0
 21 19  1  0  0  0  0
 22 21  1  0  0  0  0
 22 23  1  0  0  0  0
 24 18  1  0  0  0  0
 24 22  1  0  0  0  0
 25 30  1  0  0  0  0
 26 25  2  0  0  0  0
 26 27  1  0  0  0  0
 27 28  2  0  0  0  0
 28 29  1  0  0  0  0
 29 32  1  0  0  0  0
 30 29  2  0  0  0  0
 31 25  1  0  0  0  0
 33 26  1  0  0  0  0
 34 39  1  0  0  0  0
 34 33  1  0  0  0  0
 35 34  1  0  0  0  0
 36 35  1  0  0  0  0
 36 37  1  0  0  0  0
 37 45  1  0  0  0  0
 37 38  1  0  0  0  0
 38 46  1  0  0  0  0
 38 33  1  0  0  0  0
 40 34  1  0  0  0  0
 41 35  1  0  0  0  0
 42 35  1  0  0  0  0
 43 36  1  0  0  0  0
 44 37  1  0  0  0  0
 47 38  1  0  0  0  0
M  END
>  <minimizedAffinity>
-6.45424938

$$$$

 OpenBabel03242523093D

 47 52  0  0  1  0  0  0  0  0999 V2000
   36.2550   29.9760   40.5330 C   0  0  0  0  0  0  0  0  0  0  0  0
   37.1070   30.5030   39.5350 C   0  0  0  0  0  0  0  0  0  0  0  0
   36.5900   30.2490   38.2780 C   0  0  0  0  0  0  0  0  0  0  0  0
   35.4370   29.5900   37.9920 C   0  0  0  0  0  0  0  0  0  0  0  0
   34.6690   29.1020   39.0270 C   0  0  0  0  0  0  0  0  0  0  0  0
   35.0720   29.2950   40.3150 C   0  0  0  0  0  0  0  0  0  0  0  0
   33.6000   28.4880   38.4150 O   0  0  0  0  0  0  0  0  0  0  0  0
   33.6550   28.6690   37.0220 C   0  0  2  0  0  0  0  0  0  0  0  0
   34.8920   29.3260   36.7440 O   0  0  0  0  0  0  0  0  0  0  0  0
   36.3540   30.0100   41.6370 H   0  0  0  0  0  0  0  0  0  0  0  0
   37.2190   30.6300   37.5390 H   0  0  0  0  0  0  0  0  0  0  0  0
   34.4110   28.8850   41.0400 H   0  0  0  0  0  0  0  0  0  0  0  0
   33.6140   27.7110   36.4650 H   0  0  0  0  0  0  0  0  0  0  0  0
   31.4480   29.8470   37.4690 C   0  0  0  0  0  3  0  0  0  0  0  0
   32.4770   29.4720   36.6160 C   0  0  0  0  0  0  0  0  0  0  0  0
   32.4440   29.8530   35.2770 C   0  0  0  0  0  0  0  0  0  0  0  0
   33.2450   29.5700   34.5790 H   0  0  0  0  0  0  0  0  0  0  0  0
   31.3600   30.6080   34.8420 C   0  0  0  0  0  0  0  0  0  0  0  0
   30.3360   30.9850   35.6800 C   0  0  0  0  0  0  0  0  0  0  0  0
   30.3880   30.5970   37.0030 C   0  0  0  0  0  3  0  0  0  0  0  0
   29.4650   31.7160   34.8710 O   0  0  0  0  0  0  0  0  0  0  0  0
   30.2110   32.1860   33.7550 C   0  0  0  0  0  3  0  0  0  0  0  0
   30.8240   33.0710   33.9970 H   0  0  0  0  0  0  0  0  0  0  0  0
   31.1150   31.0990   33.5550 O   0  0  0  0  0  0  0  0  0  0  0  0
   40.2960   31.4860   41.2210 C   0  0  0  0  0  0  0  0  0  0  0  0
   39.2400   30.6350   40.9070 C   0  0  0  0  0  0  0  0  0  0  0  0
   38.2750   31.0920   40.0540 C   0  0  0  0  0  0  0  0  0  0  0  0
   38.3860   32.3610   39.5520 N   0  0  0  0  0  0  0  0  0  0  0  0
   39.4170   33.1640   39.8700 C   0  0  0  0  0  0  0  0  0  0  0  0
   40.3530   32.7300   40.6900 N   0  0  0  0  0  0  0  0  0  0  0  0
   41.0670   31.1410   41.8900 H   0  0  0  0  0  0  0  0  0  0  0  0
   39.5740   34.1730   39.5160 H   0  0  0  0  0  0  0  0  0  0  0  0
   39.2130   29.3740   41.5070 N   0  0  0  0  0  0  0  0  0  0  0  0
   38.8830   29.1830   42.8690 C   0  0  0  0  0  0  0  0  0  0  0  0
   38.7490   27.7510   43.3020 C   0  0  0  0  0  0  0  0  0  0  0  0
   38.1350   26.8880   42.3760 N   0  0  0  0  0  0  0  0  0  0  0  0
   38.4660   27.0820   41.0250 C   0  0  0  0  0  0  0  0  0  0  0  0
   39.5180   28.1580   40.8390 C   0  0  0  0  0  0  0  0  0  0  0  0
   37.9700   29.7260   43.2190 H   0  0  0  0  0  0  0  0  0  0  0  0
   39.6980   29.6160   43.4870 H   0  0  0  0  0  0  0  0  0  0  0  0
   39.7580   27.3560   43.5670 H   0  0  0  0  0  0  0  0  0  0  0  0
   38.1720   27.7310   44.2680 H   0  0  0  0  0  0  0  0  0  0  0  0
   38.2170   25.9140   42.6860 H   0  0  0  0  0  0  0  0  0  0  0  0
   38.9580   26.1330   40.6520 H   0  0  0  0  0  0  0  0  0  0  0  0
   37.6120   27.2200   40.3330 H   0  0  0  0  0  0  0  0  0  0  0  0
   39.7560   28.2660   39.7720 H   0  0  0  0  0  0  0  0  0  0  0  0
   40.4340   27.7410   41.3490 H   0  0  0  0  0  0  0  0  0  0  0  0
  1 10  1  0  0  0  0
  2 27  1  0  0  0  0
  2  1  2  0  0  0  0
  3  2  1  0  0  0  0
  4  3  2  0  0  0  0
  4  5  1  0  0  0  0
  5  6  2  0  0  0  0
  6  1  1  0  0  0  0
  6 12  1  0  0  0  0
  7  5  1  0  0  0  0
  8 13  1  6  0  0  0
  8  7  1  0  0  0  0
  9  8  1  0  0  0  0
  9  4  1  0  0  0  0
 11  3  1  0  0  0  0
 15  8  1  0  0  0  0
 15 14  2  0  0  0  0
 16 15  1  0  0  0  0
 17 16  1  0  0  0  0
 18 16  2  0  0  0  0
 18 19  1  0  0  0  0
 19 20  2  0  0  0  0
 20 14  1  0  0  0  0
 21 19  1  0  0  0  0
 22 23  1  0  0  0  0
 22 21  1  0  0  0  0
 24 22  1  0  0  0  0
 24 18  1  0  0  0  0
 25 31  1  0  0  0  0
 26 25  1  0  0  0  0
 26 33  1  0  0  0  0
 27 26  2  0  0  0  0
 28 29  2  0  0  0  0
 28 27  1  0  0  0  0
 29 30  1  0  0  0  0
 30 25  2  0  0  0  0
 32 29  1  0  0  0  0
 33 34  1  0  0  0  0
 34 39  1  0  0  0  0
 34 35  1  0  0  0  0
 34 40  1  0  0  0  0
 35 41  1  0  0  0  0
 35 42  1  0  0  0  0
 36 43  1  0  0  0  0
 36 35  1  0  0  0  0
 37 36  1  0  0  0  0
 38 37  1  0  0  0  0
 38 47  1  0  0  0  0
 38 33  1  0  0  0  0
 44 37  1  0  0  0  0
 45 37  1  0  0  0  0
 46 38  1  0  0  0  0
M  END
>  <minimizedAffinity>
-6.43098211

$$$$

 OpenBabel03242523093D

 47 52  0  0  1  0  0  0  0  0999 V2000
   40.9520   34.5690   40.2390 C   0  0  0  0  0  0  0  0  0  0  0  0
   41.7320   33.5050   40.7470 C   0  0  0  0  0  0  0  0  0  0  0  0
   40.9350   32.4060   41.0100 C   0  0  0  0  0  0  0  0  0  0  0  0
   39.5920   32.3150   40.8260 C   0  0  0  0  0  0  0  0  0  0  0  0
   38.9080   33.4040   40.3320 C   0  0  0  0  0  0  0  0  0  0  0  0
   39.5860   34.5470   40.0290 C   0  0  0  0  0  0  0  0  0  0  0  0
   37.5920   33.0010   40.2790 O   0  0  0  0  0  0  0  0  0  0  0  0
   37.4730   31.6500   40.6500 C   0  0  2  0  0  0  0  0  0  0  0  0
   38.7680   31.2270   41.0750 O   0  0  0  0  0  0  0  0  0  0  0  0
   41.2650   35.5820   39.9130 H   0  0  0  0  0  0  0  0  0  0  0  0
   41.5050   31.6210   41.3920 H   0  0  0  0  0  0  0  0  0  0  0  0
   38.9710   35.3270   39.6520 H   0  0  0  0  0  0  0  0  0  0  0  0
   36.7460   31.4970   41.4740 H   0  0  0  0  0  0  0  0  0  0  0  0
   37.5530   30.9430   38.2110 C   0  0  0  0  0  3  0  0  0  0  0  0
   36.9810   30.8930   39.4740 C   0  0  0  0  0  0  0  0  0  0  0  0
   35.8660   30.0900   39.7020 C   0  0  0  0  0  0  0  0  0  0  0  0
   35.3920   30.0320   40.6930 H   0  0  0  0  0  0  0  0  0  0  0  0
   35.3620   29.3570   38.6320 C   0  0  0  0  0  0  0  0  0  0  0  0
   35.9230   29.4000   37.3770 C   0  0  0  0  0  0  0  0  0  0  0  0
   37.0260   30.2020   37.1720 C   0  0  0  0  0  3  0  0  0  0  0  0
   35.1370   28.5410   36.6070 O   0  0  0  0  0  0  0  0  0  0  0  0
   34.4860   27.6430   37.4990 C   0  0  0  0  0  3  0  0  0  0  0  0
   35.1490   26.8290   37.8390 H   0  0  0  0  0  0  0  0  0  0  0  0
   34.2630   28.4930   38.6240 O   0  0  0  0  0  0  0  0  0  0  0  0
   45.4300   34.0450   40.6260 C   0  0  0  0  0  0  0  0  0  0  0  0
   44.2100   33.5380   40.1890 C   0  0  0  0  0  0  0  0  0  0  0  0
   43.0900   33.8390   40.9120 C   0  0  0  0  0  0  0  0  0  0  0  0
   43.2170   34.6170   42.0310 N   0  0  0  0  0  0  0  0  0  0  0  0
   44.4080   35.0950   42.4330 C   0  0  0  0  0  0  0  0  0  0  0  0
   45.4920   34.8120   41.7400 N   0  0  0  0  0  0  0  0  0  0  0  0
   46.3230   33.8190   40.0670 H   0  0  0  0  0  0  0  0  0  0  0  0
   44.5880   35.7140   43.3010 H   0  0  0  0  0  0  0  0  0  0  0  0
   44.2060   32.7260   39.0530 N   0  0  0  0  0  0  0  0  0  0  0  0
   44.5560   31.3560   39.0920 C   0  0  0  0  0  0  0  0  0  0  0  0
   44.3430   30.6030   37.8100 C   0  0  0  0  0  0  0  0  0  0  0  0
   43.1810   30.9380   37.0900 N   0  0  0  0  0  0  0  0  0  0  0  0
   42.8380   32.2990   37.0550 C   0  0  0  0  0  0  0  0  0  0  0  0
   43.8680   33.1710   37.7460 C   0  0  0  0  0  0  0  0  0  0  0  0
   44.0770   30.7650   39.9120 H   0  0  0  0  0  0  0  0  0  0  0  0
   45.6420   31.2820   39.3150 H   0  0  0  0  0  0  0  0  0  0  0  0
   45.2370   30.7380   37.1570 H   0  0  0  0  0  0  0  0  0  0  0  0
   44.3270   29.5040   38.0490 H   0  0  0  0  0  0  0  0  0  0  0  0
   43.1890   30.4900   36.1680 H   0  0  0  0  0  0  0  0  0  0  0  0
   42.8620   32.6320   35.9720 H   0  0  0  0  0  0  0  0  0  0  0  0
   41.8090   32.5470   37.3790 H   0  0  0  0  0  0  0  0  0  0  0  0
   43.5680   34.2260   37.6820 H   0  0  0  0  0  0  0  0  0  0  0  0
   44.8010   33.0460   37.1220 H   0  0  0  0  0  0  0  0  0  0  0  0
  1  2  1  0  0  0  0
  2 27  1  0  0  0  0
  2  3  2  0  0  0  0
  3 11  1  0  0  0  0
  4  3  1  0  0  0  0
  4  9  1  0  0  0  0
  5  4  2  0  0  0  0
  6  1  2  0  0  0  0
  6  5  1  0  0  0  0
  7  5  1  0  0  0  0
  7  8  1  0  0  0  0
  8  9  1  0  0  0  0
  8 13  1  1  0  0  0
 10  1  1  0  0  0  0
 12  6  1  0  0  0  0
 14 15  1  0  0  0  0
 15 16  2  0  0  0  0
 15  8  1  0  0  0  0
 16 17  1  0  0  0  0
 18 16  1  0  0  0  0
 19 18  2  0  0  0  0
 20 19  1  0  0  0  0
 20 14  2  0  0  0  0
 21 19  1  0  0  0  0
 21 22  1  0  0  0  0
 22 23  1  0  0  0  0
 22 24  1  0  0  0  0
 24 18  1  0  0  0  0
 25 30  1  0  0  0  0
 26 25  2  0  0  0  0
 26 27  1  0  0  0  0
 27 28  2  0  0  0  0
 28 29  1  0  0  0  0
 29 32  1  0  0  0  0
 30 29  2  0  0  0  0
 31 25  1  0  0  0  0
 33 34  1  0  0  0  0
 33 26  1  0  0  0  0
 34 40  1  0  0  0  0
 34 39  1  0  0  0  0
 35 42  1  0  0  0  0
 35 34  1  0  0  0  0
 36 35  1  0  0  0  0
 37 36  1  0  0  0  0
 37 45  1  0  0  0  0
 37 38  1  0  0  0  0
 38 33  1  0  0  0  0
 41 35  1  0  0  0  0
 43 36  1  0  0  0  0
 44 37  1  0  0  0  0
 46 38  1  0  0  0  0
 47 38  1  0  0  0  0
M  END
>  <minimizedAffinity>
-6.42136145

$$$$
