
 OpenBabel03242520403D

 41 45  0  0  1  0  0  0  0  0999 V2000
   45.8840   33.4990   45.7960 C   0  0  0  0  0  0  0  0  0  0  0  0
   46.6890   33.6480   44.6360 C   0  0  0  0  0  0  0  0  0  0  0  0
   47.3600   32.4920   44.1360 C   0  0  0  0  0  0  0  0  0  0  0  0
   47.2010   31.3000   44.7880 N   0  0  0  0  0  0  0  0  0  0  0  0
   46.4180   31.2210   45.8930 C   0  0  0  0  0  0  0  0  0  0  0  0
   45.7730   32.3080   46.3840 N   0  0  0  0  0  0  0  0  0  0  0  0
   46.3110   29.9650   46.4990 N   0  0  0  0  0  0  0  0  0  0  0  0
   47.4680   29.2910   46.9890 C   0  0  2  0  0  0  0  0  0  0  0  0
   47.2560   27.8650   47.3620 C   0  0  0  0  0  0  0  0  0  0  0  0
   45.9690   27.5070   47.8230 N   0  0  0  0  0  0  0  0  0  0  0  0
   45.0590   28.5920   47.9450 C   0  0  0  0  0  0  0  0  0  0  0  0
   45.0160   29.3360   46.6360 C   0  0  0  0  0  0  0  0  0  0  0  0
   45.4150   34.4070   46.1100 H   0  0  0  0  0  0  0  0  0  0  0  0
   46.8630   34.5360   44.0740 H   0  0  0  0  0  0  0  0  0  0  0  0
   47.9840   32.5540   43.2550 H   0  0  0  0  0  0  0  0  0  0  0  0
   48.1790   29.2340   46.1060 H   0  0  0  0  0  0  0  0  0  0  0  0
   47.9870   27.6360   48.1890 H   0  0  0  0  0  0  0  0  0  0  0  0
   47.5290   27.1540   46.5550 H   0  0  0  0  0  0  0  0  0  0  0  0
   45.9490   26.8060   48.5940 H   0  0  0  0  0  0  0  0  0  0  0  0
   44.0340   28.1280   48.0670 H   0  0  0  0  0  0  0  0  0  0  0  0
   45.1970   29.2350   48.8140 H   0  0  0  0  0  0  0  0  0  0  0  0
   44.9500   28.5830   45.8420 H   0  0  0  0  0  0  0  0  0  0  0  0
   44.2050   30.0930   46.5870 H   0  0  0  0  0  0  0  0  0  0  0  0
   48.1620   30.0730   48.0470 C   0  0  0  0  0  0  0  0  0  0  0  0
   47.7130   30.9470   49.0060 C   0  0  0  0  0  0  0  0  0  0  0  0
   48.7110   31.4140   49.7610 N   0  0  0  0  0  0  0  0  0  0  0  0
   49.8120   30.8390   49.2880 C   0  0  0  0  0  0  0  0  0  0  0  0
   49.4870   30.0360   48.2610 N   0  0  0  0  0  0  0  0  0  0  0  0
   46.6770   31.2240   49.1320 H   0  0  0  0  0  0  0  0  0  0  0  0
   48.6770   32.0850   50.5590 H   0  0  0  0  0  0  0  0  0  0  0  0
   52.0860   31.9450   49.2830 C   0  0  0  0  0  3  0  0  0  0  0  0
   51.2120   30.9680   49.7180 C   0  0  0  0  0  0  0  0  0  0  0  0
   51.6800   30.0380   50.6230 C   0  0  0  0  0  0  0  0  0  0  0  0
   51.0260   29.2600   50.9850 H   0  0  0  0  0  0  0  0  0  0  0  0
   52.9780   30.0590   51.0980 C   0  0  0  0  0  0  0  0  0  0  0  0
   53.8620   31.0440   50.6610 C   0  0  0  0  0  0  0  0  0  0  0  0
   53.3830   31.9680   49.7550 C   0  0  0  0  0  3  0  0  0  0  0  0
   55.1060   30.8490   51.2850 O   0  0  0  0  0  0  0  0  0  0  0  0
   55.0800   29.4620   51.6530 C   0  0  0  0  0  3  0  0  0  0  0  0
   55.7760   29.3440   52.4810 H   0  0  0  0  0  0  0  0  0  0  0  0
   53.7160   29.2780   51.9890 O   0  0  0  0  0  0  0  0  0  0  0  0
  1 13  1  0  0  0  0
  1  6  1  0  0  0  0
  2  1  2  0  0  0  0
  3  2  1  0  0  0  0
  3  4  2  0  0  0  0
  4  5  1  0  0  0  0
  5  6  2  0  0  0  0
  5  7  1  0  0  0  0
  7 12  1  0  0  0  0
  7  8  1  0  0  0  0
  8 16  1  6  0  0  0
  8  9  1  0  0  0  0
  8 24  1  0  0  0  0
  9 10  1  0  0  0  0
  9 17  1  0  0  0  0
 10 11  1  0  0  0  0
 10 19  1  0  0  0  0
 11 20  1  0  0  0  0
 11 21  1  0  0  0  0
 12 11  1  0  0  0  0
 14  2  1  0  0  0  0
 15  3  1  0  0  0  0
 18  9  1  0  0  0  0
 22 12  1  0  0  0  0
 23 12  1  0  0  0  0
 24 28  1  0  0  0  0
 24 25  2  0  0  0  0
 25 29  1  0  0  0  0
 25 26  1  0  0  0  0
 26 30  1  0  0  0  0
 27 32  1  0  0  0  0
 27 26  1  0  0  0  0
 28 27  2  0  0  0  0
 31 32  2  0  0  0  0
 31 37  1  0  0  0  0
 32 33  1  0  0  0  0
 33 34  1  0  0  0  0
 33 35  2  0  0  0  0
 35 41  1  0  0  0  0
 36 35  1  0  0  0  0
 36 38  1  0  0  0  0
 37 36  2  0  0  0  0
 38 39  1  0  0  0  0
 39 41  1  0  0  0  0
 39 40  1  0  0  0  0
M  END
>  <minimizedAffinity>
-5.31475496

>  <minimizedRMSD>
0.352659196

$$$$
