
     RDKit          3D

 32 35  0  0  0  0  0  0  0  0999 V2000
   44.6230   35.4597   45.1322 C   0  0  0  0  0  0  0  0  0  0  0  0
   45.0961   35.7159   43.7994 C   0  0  0  0  0  0  0  0  0  0  0  0
   46.0423   34.8288   43.3570 C   0  0  0  0  0  0  0  0  0  0  0  0
   46.4917   33.7835   44.1456 N   0  0  0  0  0  0  0  0  0  0  0  0
   46.0129   33.5984   45.3780 C   0  0  0  0  0  0  0  0  0  0  0  0
   45.0795   34.4290   45.8799 N   0  0  0  0  0  0  0  0  0  0  0  0
   46.5410   34.9756   41.9395 C   0  0  1  0  0  0  0  0  0  0  0  0
   48.0673   35.2689   41.9437 C   0  0  0  0  0  0  0  0  0  0  0  0
   47.3822   33.9733   41.3926 C   0  0  2  0  0  0  0  0  0  0  0  0
   44.6469   36.8079   43.0202 N   0  0  0  0  0  0  0  0  0  0  0  0
   43.8780   36.1280   45.5252 H   0  0  0  0  0  0  0  0  0  0  0  0
   46.4709   32.7395   45.8517 H   0  0  0  0  0  0  0  0  0  0  0  0
   45.9636   35.7124   41.3505 H   0  0  0  0  0  0  0  0  0  0  0  0
   48.6382   35.1050   42.8541 H   0  0  0  0  0  0  0  0  0  0  0  0
   48.4306   35.9662   41.1656 H   0  0  0  0  0  0  0  0  0  0  0  0
   47.5576   33.0466   41.9787 H   0  0  0  0  0  0  0  0  0  0  0  0
   45.3125   37.6007   42.8088 H   0  0  0  0  0  0  0  0  0  0  0  0
   43.6662   36.8612   42.6396 H   0  0  0  0  0  0  0  0  0  0  0  0
   46.4302   33.7468   39.0492 C   0  0  0  0  0  0  0  0  0  0  0  0
   47.5041   33.7940   39.9130 C   0  0  0  0  0  0  0  0  0  0  0  0
   48.7597   33.6607   39.3124 C   0  0  0  0  0  0  0  0  0  0  0  0
   49.6244   33.6946   39.9739 H   0  0  0  0  0  0  0  0  0  0  0  0
   48.9692   33.4928   37.9680 C   0  0  0  0  0  0  0  0  0  0  0  0
   47.8670   33.4510   37.1387 C   0  0  0  0  0  0  0  0  0  0  0  0
   46.5899   33.5792   37.6868 C   0  0  0  0  0  0  0  0  0  0  0  0
   48.3572   33.2766   35.8599 O   0  0  0  0  0  0  0  0  0  0  0  0
   49.7635   33.4004   35.8554 C   0  0  1  0  0  0  0  0  0  0  0  0
   50.1814   32.5539   35.2809 H   0  0  0  0  0  0  0  0  0  0  0  0
   50.1231   33.3465   37.2139 O   0  0  0  0  0  0  0  0  0  0  0  0
   45.4543   33.8451   39.4710 H   0  0  0  0  0  0  0  0  0  0  0  0
   45.7267   33.5449   37.0235 H   0  0  0  0  0  0  0  0  0  0  0  0
   50.0998   34.3516   35.3873 H   0  0  0  0  0  0  0  0  0  0  0  0
  1  6  2  0
  2  1  1  0
  3  2  2  0
  3  4  1  0
  4  5  2  0
  5  6  1  0
  7  3  1  0
  8  7  1  0
  9  8  1  0
  9  7  1  0
 10  2  1  0
  1 11  1  0
  5 12  1  0
  7 13  1  6
  8 14  1  0
  8 15  1  0
  9 16  1  1
 10 17  1  0
 10 18  1  0
 19 20  2  0
 20 21  1  0
 21 22  1  0
 21 23  2  0
 23 24  1  0
 24 25  2  0
 24 26  1  0
 26 27  1  0
 27 28  1  6
 27 29  1  0
 25 19  1  0
 29 23  1  0
 19 30  1  0
 25 31  1  0
 27 32  1  0
  9 20  1  0
M  ISO  8  11  14  12  14  13  13  14  13  15  13  16  13  22  16  28   8
M  END
>  <DihAtoms>  (1) 
7,8,19,18

>  <DihDeg>  (1) 
-43.383651417771745

$$$$
