
 OpenBabel03252506413D

 42 46  0  0  1  0  0  0  0  0999 V2000
   49.4040   33.3070   41.4960 N   0  0  1  0  0  0  0  0  0  0  0  0
   50.7070   33.1470   42.0980 C   0  0  0  0  0  0  0  0  0  0  0  0
   51.3440   31.8300   41.7320 C   0  0  0  0  0  0  0  0  0  0  0  0
   50.5770   30.7510   42.4530 C   0  0  0  0  0  0  0  0  0  0  0  0
   49.0940   31.0220   42.3680 C   0  0  0  0  0  0  0  0  0  0  0  0
   48.7860   32.0080   41.2900 C   0  0  2  0  0  0  0  0  0  0  0  0
   51.3750   34.0150   41.9080 H   0  0  0  0  0  0  0  0  0  0  0  0
   50.5670   33.1110   43.2080 H   0  0  0  0  0  0  0  0  0  0  0  0
   51.3630   31.7040   40.6510 H   0  0  0  0  0  0  0  0  0  0  0  0
   52.4000   31.8970   42.0680 H   0  0  0  0  0  0  0  0  0  0  0  0
   50.9160   30.6210   43.5010 H   0  0  0  0  0  0  0  0  0  0  0  0
   50.7790   29.7900   41.9540 H   0  0  0  0  0  0  0  0  0  0  0  0
   48.5080   30.1090   42.1590 H   0  0  0  0  0  0  0  0  0  0  0  0
   48.7820   31.4830   43.3210 H   0  0  0  0  0  0  0  0  0  0  0  0
   47.6800   32.2350   41.4310 H   0  0  0  0  0  0  0  0  0  0  0  0
   48.3960   30.2260   39.8150 C   0  0  0  0  0  3  0  0  0  0  0  0
   48.9040   31.5300   39.9130 C   0  0  0  0  0  0  0  0  0  0  0  0
   49.3990   32.0950   38.7790 C   0  0  0  0  0  0  0  0  0  0  0  0
   49.7730   33.0850   38.9320 H   0  0  0  0  0  0  0  0  0  0  0  0
   49.4020   31.4150   37.5820 C   0  0  0  0  0  0  0  0  0  0  0  0
   48.9150   30.1340   37.4280 C   0  0  0  0  0  0  0  0  0  0  0  0
   48.4090   29.5560   38.5870 C   0  0  0  0  0  3  0  0  0  0  0  0
   49.0510   29.7160   36.1120 O   0  0  0  0  0  0  0  0  0  0  0  0
   49.9530   30.6080   35.5050 C   0  0  0  0  0  3  0  0  0  0  0  0
   49.5640   30.8750   34.5070 H   0  0  0  0  0  0  0  0  0  0  0  0
   49.8430   31.7740   36.3170 O   0  0  0  0  0  0  0  0  0  0  0  0
   47.2410   34.6340   41.9960 C   0  0  1  0  0  0  0  0  0  0  0  0
   48.3510   35.5210   41.7170 C   0  0  0  0  0  0  0  0  0  0  0  0
   48.6590   34.1920   42.3330 C   0  0  2  0  0  0  0  0  0  0  0  0
   46.7900   33.9530   41.2390 H   0  0  0  0  0  0  0  0  0  0  0  0
   48.5840   35.6710   40.6220 H   0  0  0  0  0  0  0  0  0  0  0  0
   48.4930   36.4540   42.2750 H   0  0  0  0  0  0  0  0  0  0  0  0
   48.8980   34.2320   43.4180 H   0  0  0  0  0  0  0  0  0  0  0  0
   45.5110   36.0500   43.1810 C   0  0  0  0  0  0  0  0  0  0  0  0
   46.3130   34.8800   43.1380 C   0  0  0  0  0  0  0  0  0  0  0  0
   46.2040   33.9850   44.1840 C   0  0  0  0  0  0  0  0  0  0  0  0
   45.3320   34.2900   45.1870 N   0  0  0  0  0  0  0  0  0  0  0  0
   44.5810   35.4070   45.2070 C   0  0  0  0  0  0  0  0  0  0  0  0
   44.6630   36.3020   44.2020 N   0  0  0  0  0  0  0  0  0  0  0  0
   45.5710   36.7750   42.3780 H   0  0  0  0  0  0  0  0  0  0  0  0
   46.7830   33.0800   44.2100 H   0  0  0  0  0  0  0  0  0  0  0  0
   43.9360   35.4960   46.0830 H   0  0  0  0  0  0  0  0  0  0  0  0
  1  2  1  1  0  0  0
  1 29  1  0  0  0  0
  2  8  1  0  0  0  0
  3 10  1  0  0  0  0
  3  2  1  0  0  0  0
  3  4  1  0  0  0  0
  4 11  1  0  0  0  0
  5  4  1  0  0  0  0
  5 14  1  0  0  0  0
  6 15  1  1  0  0  0
  6  1  1  0  0  0  0
  6  5  1  0  0  0  0
  7  2  1  0  0  0  0
  9  3  1  0  0  0  0
 12  4  1  0  0  0  0
 13  5  1  0  0  0  0
 16 17  1  0  0  0  0
 17  6  1  0  0  0  0
 18 19  1  0  0  0  0
 18 17  2  0  0  0  0
 20 18  1  0  0  0  0
 21 20  2  0  0  0  0
 21 22  1  0  0  0  0
 22 16  2  0  0  0  0
 23 21  1  0  0  0  0
 24 23  1  0  0  0  0
 24 26  1  0  0  0  0
 25 24  1  0  0  0  0
 26 20  1  0  0  0  0
 27 30  1  6  0  0  0
 27 29  1  0  0  0  0
 27 35  1  0  0  0  0
 28 27  1  0  0  0  0
 28 32  1  0  0  0  0
 28 29  1  0  0  0  0
 29 33  1  1  0  0  0
 31 28  1  0  0  0  0
 34 39  1  0  0  0  0
 35 34  2  0  0  0  0
 35 36  1  0  0  0  0
 36 41  1  0  0  0  0
 36 37  2  0  0  0  0
 37 38  1  0  0  0  0
 38 42  1  0  0  0  0
 39 38  2  0  0  0  0
 40 34  1  0  0  0  0
M  END
>  <minimizedAffinity>
-5.14219284

>  <minimizedRMSD>
0.314439803

$$$$
