
 OpenBabel03242515353D

 34 38  0  0  0  0  0  0  0  0999 V2000
   46.0740   34.7440   41.6600 C   0  0  0  0  0  0  0  0  0  0  0  0
   46.1930   35.1980   42.9680 C   0  0  0  0  0  0  0  0  0  0  0  0
   45.0320   35.6170   43.6320 C   0  0  0  0  0  0  0  0  0  0  0  0
   43.8750   35.5460   42.9410 N   0  0  0  0  0  0  0  0  0  0  0  0
   43.7700   35.1070   41.6810 C   0  0  0  0  0  0  0  0  0  0  0  0
   44.8910   34.7040   41.0450 N   0  0  0  0  0  0  0  0  0  0  0  0
   47.1490   35.2330   43.4740 H   0  0  0  0  0  0  0  0  0  0  0  0
   45.0800   35.9770   44.6490 H   0  0  0  0  0  0  0  0  0  0  0  0
   41.4050   35.7490   41.4150 C   0  0  0  0  0  0  0  0  0  0  0  0
   42.5030   35.0440   40.9600 C   0  0  0  0  0  0  0  0  0  0  0  0
   42.3640   34.2850   39.8130 C   0  0  0  0  0  0  0  0  0  0  0  0
   43.2360   33.7330   39.4630 H   0  0  0  0  0  0  0  0  0  0  0  0
   41.1850   34.1990   39.1020 C   0  0  0  0  0  0  0  0  0  0  0  0
   40.1500   34.9220   39.6140 C   0  0  0  0  0  0  0  0  0  0  0  0
   40.1700   35.7180   40.7560 C   0  0  0  0  0  0  0  0  0  0  0  0
   39.0650   34.7140   38.7790 O   0  0  0  0  0  0  0  0  0  0  0  0
   39.4360   33.9420   37.6750 C   0  0  0  0  0  0  0  0  0  0  0  0
   38.7730   33.0480   37.6420 H   0  0  0  0  0  0  0  0  0  0  0  0
   40.7650   33.5430   37.9610 O   0  0  0  0  0  0  0  0  0  0  0  0
   47.6330   34.2220   40.8860 S   0  0  0  0  0  0  0  0  0  0  0  0
   46.0960   32.9570   39.0610 C   0  0  0  0  0  0  0  0  0  0  0  0
   47.3030   33.6120   39.2310 C   0  0  0  0  0  0  0  0  0  0  0  0
   48.1870   33.7760   38.1840 C   0  0  0  0  0  0  0  0  0  0  0  0
   47.8660   33.2770   36.9280 C   0  0  0  0  0  0  0  0  0  0  0  0
   46.6480   32.6110   36.7340 C   0  0  0  0  0  0  0  0  0  0  0  0
   45.7740   32.4560   37.7920 C   0  0  0  0  0  0  0  0  0  0  0  0
   46.5880   32.2210   35.3920 O   0  0  0  0  0  0  0  0  0  0  0  0
   47.9280   32.3080   34.9020 C   0  0  0  0  0  0  0  0  0  0  0  0
   48.5560   33.2930   35.6940 O   0  0  0  0  0  0  0  0  0  0  0  0
   45.3480   32.7850   39.8200 H   0  0  0  0  0  0  0  0  0  0  0  0
   49.1180   34.2940   38.3630 H   0  0  0  0  0  0  0  0  0  0  0  0
   44.8420   31.9370   37.6110 H   0  0  0  0  0  0  0  0  0  0  0  0
   48.4490   31.3240   34.9280 H   0  0  0  0  0  0  0  0  0  0  0  0
   47.9310   32.7160   33.8630 H   0  0  0  0  0  0  0  0  0  0  0  0
  1  2  1  0  0  0  0
  2  7  1  0  0  0  0
  2  3  2  0  0  0  0
  3  8  1  0  0  0  0
  4  3  1  0  0  0  0
  5  4  2  0  0  0  0
  6  1  2  0  0  0  0
  6  5  1  0  0  0  0
 10  9  1  0  0  0  0
 10  5  1  0  0  0  0
 11 10  2  0  0  0  0
 12 11  1  0  0  0  0
 13 14  2  0  0  0  0
 13 11  1  0  0  0  0
 14 15  1  0  0  0  0
 15  9  2  0  0  0  0
 16 14  1  0  0  0  0
 17 19  1  0  0  0  0
 17 16  1  0  0  0  0
 18 17  1  0  0  0  0
 19 13  1  0  0  0  0
 20  1  1  0  0  0  0
 21 22  1  0  0  0  0
 21 30  1  0  0  0  0
 22 20  1  0  0  0  0
 23 31  1  0  0  0  0
 23 22  2  0  0  0  0
 24 23  1  0  0  0  0
 25 24  2  0  0  0  0
 25 26  1  0  0  0  0
 26 21  2  0  0  0  0
 27 25  1  0  0  0  0
 28 33  1  0  0  0  0
 28 27  1  0  0  0  0
 28 29  1  0  0  0  0
 29 24  1  0  0  0  0
 32 26  1  0  0  0  0
 34 28  1  0  0  0  0
M  END
>  <minimizedAffinity>
-6.40967798

>  <minimizedRMSD>
7.29896069

$$$$
