
     RDKit          3D

 44 48  0  0  0  0  0  0  0  0999 V2000
   45.9422   33.5108   45.8498 C   0  0  0  0  0  0  0  0  0  0  0  0
   46.6979   33.6202   44.6529 C   0  0  0  0  0  0  0  0  0  0  0  0
   47.2995   32.4348   44.1339 C   0  0  0  0  0  0  0  0  0  0  0  0
   47.1252   31.2553   44.8035 N   0  0  0  0  0  0  0  0  0  0  0  0
   46.3913   31.2155   45.9434 C   0  0  0  0  0  0  0  0  0  0  0  0
   45.8120   32.3298   46.4525 N   0  0  0  0  0  0  0  0  0  0  0  0
   46.2643   29.9683   46.5649 N   0  0  0  0  0  0  0  0  0  0  0  0
   47.4154   29.2533   47.0079 C   0  0  2  0  0  0  0  0  0  0  0  0
   47.1647   27.8396   47.4029 C   0  0  0  0  0  0  0  0  0  0  0  0
   45.8878   27.5364   47.9265 N   0  0  0  0  0  0  0  0  0  0  0  0
   45.0272   28.6560   48.0786 C   0  0  0  0  0  0  0  0  0  0  0  0
   44.9530   29.3913   46.7659 C   0  0  0  0  0  0  0  0  0  0  0  0
   48.1857   30.0162   48.0263 C   0  0  0  0  0  0  0  0  0  0  0  0
   47.8083   30.8273   49.0669 C   0  0  0  0  0  0  0  0  0  0  0  0
   48.8620   31.3007   49.7378 N   0  0  0  0  0  0  0  0  0  0  0  0
   49.9277   30.7930   49.1283 C   0  0  0  0  0  0  0  0  0  0  0  0
   49.5269   30.0226   48.1018 N   0  0  0  0  0  0  0  0  0  0  0  0
   45.5234   34.4386   46.1761 H   0  0  0  0  0  0  0  0  0  0  0  0
   46.8800   34.4956   44.0748 H   0  0  0  0  0  0  0  0  0  0  0  0
   47.8847   32.4664   43.2252 H   0  0  0  0  0  0  0  0  0  0  0  0
   48.0816   29.1616   46.0945 H   0  0  0  0  0  0  0  0  0  0  0  0
   47.9236   27.5879   48.1983 H   0  0  0  0  0  0  0  0  0  0  0  0
   47.3734   27.1133   46.5909 H   0  0  0  0  0  0  0  0  0  0  0  0
   45.8757   26.8424   48.7028 H   0  0  0  0  0  0  0  0  0  0  0  0
   43.9913   28.2332   48.2520 H   0  0  0  0  0  0  0  0  0  0  0  0
   45.2288   29.3001   48.9348 H   0  0  0  0  0  0  0  0  0  0  0  0
   44.8206   28.6356   45.9832 H   0  0  0  0  0  0  0  0  0  0  0  0
   44.1703   30.1794   46.7467 H   0  0  0  0  0  0  0  0  0  0  0  0
   46.7808   31.0563   49.3109 H   0  0  0  0  0  0  0  0  0  0  0  0
   48.8856   31.9337   50.5656 H   0  0  0  0  0  0  0  0  0  0  0  0
   52.1636   31.9470   48.8860 C   0  0  0  0  0  0  0  0  0  0  0  0
   51.3587   30.9595   49.4177 C   0  0  0  0  0  0  0  0  0  0  0  0
   51.9338   30.0560   50.2881 C   0  0  0  0  0  0  0  0  0  0  0  0
   51.3355   29.2705   50.7233 H   0  0  0  0  0  0  0  0  0  0  0  0
   53.2702   30.1134   50.6345 C   0  0  0  0  0  0  0  0  0  0  0  0
   54.0850   31.1094   50.0991 C   0  0  0  0  0  0  0  0  0  0  0  0
   53.4996   32.0072   49.2302 C   0  0  0  0  0  0  0  0  0  0  0  0
   55.3875   30.9518   50.6028 O   0  0  0  0  0  0  0  0  0  0  0  0
   55.4292   29.5723   50.9932 C   0  0  2  0  0  0  0  0  0  0  0  0
   56.2054   29.4831   51.7525 H   0  0  0  0  0  0  0  0  0  0  0  0
   54.1094   29.3640   51.4624 O   0  0  0  0  0  0  0  0  0  0  0  0
   51.6969   32.6406   48.2105 H   0  0  0  0  0  0  0  0  0  0  0  0
   54.0802   32.8044   48.7807 H   0  0  0  0  0  0  0  0  0  0  0  0
   55.6462   29.0198   50.0516 H   0  0  0  0  0  0  0  0  0  0  0  0
  1  6  2  0
  2  1  1  0
  3  2  2  0
  3  4  1  0
  4  5  2  0
  5  6  1  0
  5  7  1  0
  7 12  1  0
  7  8  1  0
  8  9  1  0
  8 13  1  0
  9 10  1  0
 10 11  1  0
 12 11  1  0
 13 17  1  0
 13 14  2  0
 14 15  1  0
 16 15  1  0
 17 16  2  0
  1 18  1  0
  2 19  1  0
  3 20  1  0
  8 21  1  6
  9 22  1  0
  9 23  1  0
 10 24  1  0
 11 25  1  0
 11 26  1  0
 12 27  1  0
 12 28  1  0
 14 29  1  0
 15 30  1  0
 31 32  2  0
 32 33  1  0
 33 34  1  0
 33 35  2  0
 35 36  1  0
 36 37  2  0
 36 38  1  0
 38 39  1  0
 39 40  1  1
 39 41  1  0
 37 31  1  0
 41 35  1  0
 31 42  1  0
 37 43  1  0
 39 44  1  0
 16 32  1  0
M  ISO  8  18  14  19  14  20  14  21  13  22  13  23  13  24   5  25  13
M  ISO  7  26  13  27  13  28  13  29  14  30   9  34  16  40   8
M  END
>  <DihAtoms>  (1) 
14,15,31,30

>  <DihDeg>  (1) 
179.9998628433421

$$$$
