
 OpenBabel03252508543D

 45 49  0  0  1  0  0  0  0  0999 V2000
   43.3240   34.5310   40.7020 C   0  0  0  0  0  0  0  0  0  0  0  0
   43.3940   35.7040   40.2040 O   0  0  0  0  0  0  0  0  0  0  0  0
   41.9120   34.2580   40.5020 N   0  0  0  0  0  0  0  0  0  0  0  0
   41.4850   34.2720   39.1190 C   0  0  0  0  0  0  0  0  0  0  0  0
   40.8380   35.6610   38.9200 C   0  0  0  0  0  0  0  0  0  0  0  0
   40.1330   35.9990   40.2420 C   0  0  0  0  0  0  0  0  0  0  0  0
   39.6570   34.7440   40.9390 C   0  0  0  0  0  0  0  0  0  0  0  0
   40.8800   33.9770   41.4750 C   0  0  1  0  0  0  0  0  0  0  0  0
   42.3140   34.2250   38.3930 H   0  0  0  0  0  0  0  0  0  0  0  0
   40.7550   33.4850   38.8690 H   0  0  0  0  0  0  0  0  0  0  0  0
   41.6480   36.4170   38.8070 H   0  0  0  0  0  0  0  0  0  0  0  0
   40.1710   35.6920   38.0590 H   0  0  0  0  0  0  0  0  0  0  0  0
   39.2180   36.5620   39.9630 H   0  0  0  0  0  0  0  0  0  0  0  0
   40.7870   36.5560   40.9330 H   0  0  0  0  0  0  0  0  0  0  0  0
   39.1870   34.1130   40.1430 H   0  0  0  0  0  0  0  0  0  0  0  0
   38.9870   35.0450   41.7420 H   0  0  0  0  0  0  0  0  0  0  0  0
   41.2110   34.3760   42.4380 H   0  0  0  0  0  0  0  0  0  0  0  0
   41.4680   31.5630   41.9720 C   0  0  0  0  0  3  0  0  0  0  0  0
   40.5620   32.5350   41.6110 C   0  0  0  0  0  0  0  0  0  0  0  0
   39.2560   32.1450   41.3570 C   0  0  0  0  0  0  0  0  0  0  0  0
   38.4520   32.8350   41.0630 H   0  0  0  0  0  0  0  0  0  0  0  0
   38.8620   30.8260   41.4570 C   0  0  0  0  0  0  0  0  0  0  0  0
   39.7930   29.8550   41.8240 C   0  0  0  0  0  0  0  0  0  0  0  0
   41.0940   30.2260   42.0800 C   0  0  0  0  0  3  0  0  0  0  0  0
   39.1380   28.6120   41.8500 O   0  0  0  0  0  0  0  0  0  0  0  0
   37.7630   28.9380   42.0970 C   0  0  0  0  0  3  0  0  0  0  0  0
   37.0770   28.1440   41.8030 H   0  0  0  0  0  0  0  0  0  0  0  0
   37.6620   30.1120   41.2760 O   0  0  0  0  0  0  0  0  0  0  0  0
   44.3450   33.8170   41.2460 O   0  0  0  0  0  0  0  0  0  0  0  0
   45.6930   34.0500   41.1210 C   0  0  0  0  0  0  0  0  0  0  0  0
   46.3530   34.6340   42.2010 C   0  0  0  0  0  0  0  0  0  0  0  0
   47.7290   34.8610   42.0480 C   0  0  0  0  0  0  0  0  0  0  0  0
   48.3300   34.5020   40.8690 N   0  0  0  0  0  0  0  0  0  0  0  0
   47.6430   33.9470   39.8730 C   0  0  0  0  0  0  0  0  0  0  0  0
   46.3280   33.7170   39.9860 N   0  0  0  0  0  0  0  0  0  0  0  0
   48.2430   35.3130   42.8830 H   0  0  0  0  0  0  0  0  0  0  0  0
   48.1380   33.6680   38.9420 H   0  0  0  0  0  0  0  0  0  0  0  0
   45.6230   34.9750   43.4020 C   0  0  0  0  0  0  0  0  0  0  0  0
   45.0360   36.2260   43.5970 C   0  0  0  0  0  0  0  0  0  0  0  0
   44.4620   36.1220   44.8370 C   0  0  0  0  0  0  0  0  0  0  0  0
   44.6780   34.8940   45.3700 N   0  0  0  0  0  0  0  0  0  0  0  0
   45.3810   34.2320   44.4770 N   0  0  0  0  0  0  0  0  0  0  0  0
   45.0530   37.0580   42.9070 H   0  0  0  0  0  0  0  0  0  0  0  0
   43.9090   36.9440   45.3000 H   0  0  0  0  0  0  0  0  0  0  0  0
   44.3090   34.6310   46.3190 H   0  0  0  0  0  0  0  0  0  0  0  0
  1 29  1  0  0  0  0
  2  1  2  0  0  0  0
  3  1  1  0  0  0  0
  3  8  1  0  0  0  0
  4  3  1  0  0  0  0
  5  4  1  0  0  0  0
  5  6  1  0  0  0  0
  6 14  1  0  0  0  0
  6  7  1  0  0  0  0
  7  8  1  0  0  0  0
  7 16  1  0  0  0  0
  8 19  1  0  0  0  0
  8 17  1  1  0  0  0
  9  4  1  0  0  0  0
 10  4  1  0  0  0  0
 11  5  1  0  0  0  0
 12  5  1  0  0  0  0
 13  6  1  0  0  0  0
 15  7  1  0  0  0  0
 18 24  1  0  0  0  0
 19 18  2  0  0  0  0
 20 22  2  0  0  0  0
 20 19  1  0  0  0  0
 21 20  1  0  0  0  0
 22 23  1  0  0  0  0
 23 25  1  0  0  0  0
 23 24  2  0  0  0  0
 25 26  1  0  0  0  0
 27 26  1  0  0  0  0
 28 22  1  0  0  0  0
 28 26  1  0  0  0  0
 30 29  1  0  0  0  0
 30 31  1  0  0  0  0
 31 38  1  0  0  0  0
 32 31  2  0  0  0  0
 32 36  1  0  0  0  0
 33 32  1  0  0  0  0
 34 35  1  0  0  0  0
 34 33  2  0  0  0  0
 35 30  2  0  0  0  0
 37 34  1  0  0  0  0
 38 39  1  0  0  0  0
 38 42  2  0  0  0  0
 39 40  2  0  0  0  0
 40 44  1  0  0  0  0
 40 41  1  0  0  0  0
 41 45  1  0  0  0  0
 42 41  1  0  0  0  0
 43 39  1  0  0  0  0
M  END
>  <minimizedAffinity>
-7.24228382

>  <minimizedRMSD>
1.2602495

$$$$
