
 OpenBabel03252502463D

 47 51  0  0  1  0  0  0  0  0999 V2000
   48.1860   35.7900   41.9700 C   0  0  0  0  0  0  0  0  0  0  0  0
   48.2130   36.7910   41.4670 H   0  0  0  0  0  0  0  0  0  0  0  0
   48.3140   36.0040   43.0440 H   0  0  0  0  0  0  0  0  0  0  0  0
   49.2800   34.8770   41.5130 C   0  0  1  0  0  0  0  0  0  0  0  0
   50.3130   34.4750   42.5230 C   0  0  0  0  0  0  0  0  0  0  0  0
   49.2800   33.5170   42.0350 C   0  0  2  0  0  0  0  0  0  0  0  0
   49.6490   35.1150   40.5210 H   0  0  0  0  0  0  0  0  0  0  0  0
   51.3670   34.4080   42.1740 H   0  0  0  0  0  0  0  0  0  0  0  0
   50.2620   34.8700   43.5640 H   0  0  0  0  0  0  0  0  0  0  0  0
   48.6390   33.1350   42.8200 H   0  0  0  0  0  0  0  0  0  0  0  0
   49.8190   32.5370   41.1000 N   0  0  0  0  0  0  0  0  0  0  0  0
   48.9270   32.1730   40.0620 C   0  0  0  0  0  0  0  0  0  0  0  0
   49.6630   31.1470   39.2200 C   0  0  0  0  0  0  0  0  0  0  0  0
   49.9890   29.9800   39.9540 N   0  0  0  0  0  0  0  0  0  0  0  0
   50.1420   30.1960   41.3820 C   0  0  0  0  0  0  0  0  0  0  0  0
   50.7120   31.5980   41.6250 C   0  0  0  0  0  0  0  0  0  0  0  0
   48.7940   33.0580   39.3960 H   0  0  0  0  0  0  0  0  0  0  0  0
   47.9310   31.8400   40.3690 H   0  0  0  0  0  0  0  0  0  0  0  0
   50.5020   31.6480   38.7010 H   0  0  0  0  0  0  0  0  0  0  0  0
   48.9410   30.8540   38.4260 H   0  0  0  0  0  0  0  0  0  0  0  0
   50.7500   29.4290   39.5410 H   0  0  0  0  0  0  0  0  0  0  0  0
   49.2090   30.0800   41.9490 H   0  0  0  0  0  0  0  0  0  0  0  0
   50.8810   29.4570   41.7260 H   0  0  0  0  0  0  0  0  0  0  0  0
   50.7200   31.6980   42.7490 H   0  0  0  0  0  0  0  0  0  0  0  0
   51.7530   31.6520   41.2970 H   0  0  0  0  0  0  0  0  0  0  0  0
   46.8880   35.0620   41.7340 C   0  0  0  0  0  0  0  0  0  0  0  0
   46.9290   34.1700   41.1300 H   0  0  0  0  0  0  0  0  0  0  0  0
   46.2230   35.7770   41.1800 H   0  0  0  0  0  0  0  0  0  0  0  0
   44.6460   35.6890   44.6790 C   0  0  0  0  0  0  0  0  0  0  0  0
   45.2860   35.8500   43.4260 C   0  0  0  0  0  0  0  0  0  0  0  0
   46.1980   34.9060   43.0560 C   0  0  0  0  0  0  0  0  0  0  0  0
   46.4590   33.8620   43.8840 N   0  0  0  0  0  0  0  0  0  0  0  0
   45.8660   33.7140   45.0460 C   0  0  0  0  0  0  0  0  0  0  0  0
   44.9600   34.6120   45.4600 N   0  0  0  0  0  0  0  0  0  0  0  0
   43.9130   36.4050   45.0250 H   0  0  0  0  0  0  0  0  0  0  0  0
   45.0040   36.7160   42.8460 H   0  0  0  0  0  0  0  0  0  0  0  0
   46.7550   32.7570   47.1380 C   0  0  0  0  0  3  0  0  0  0  0  0
   46.1890   32.5680   45.8950 C   0  0  0  0  0  0  0  0  0  0  0  0
   45.9520   31.2660   45.5080 C   0  0  0  0  0  0  0  0  0  0  0  0
   45.5070   31.1270   44.5310 H   0  0  0  0  0  0  0  0  0  0  0  0
   46.2810   30.2320   46.3570 C   0  0  0  0  0  0  0  0  0  0  0  0
   46.8500   30.4370   47.6050 C   0  0  0  0  0  0  0  0  0  0  0  0
   47.0900   31.7270   47.9990 C   0  0  0  0  0  3  0  0  0  0  0  0
   47.0370   29.1750   48.1620 O   0  0  0  0  0  0  0  0  0  0  0  0
   46.2970   28.2170   47.4170 C   0  0  0  0  0  3  0  0  0  0  0  0
   45.2890   28.0520   47.8330 H   0  0  0  0  0  0  0  0  0  0  0  0
   46.1250   28.8570   46.1590 O   0  0  0  0  0  0  0  0  0  0  0  0
  1  3  1  0  0  0  0
  2  1  1  0  0  0  0
  4  7  1  6  0  0  0
  4  1  1  0  0  0  0
  4  6  1  0  0  0  0
  4  5  1  0  0  0  0
  5  9  1  0  0  0  0
  6  5  1  0  0  0  0
  6 10  1  1  0  0  0
  8  5  1  0  0  0  0
 11 16  1  0  0  0  0
 11  6  1  0  0  0  0
 12 18  1  0  0  0  0
 12 11  1  0  0  0  0
 13 14  1  0  0  0  0
 13 12  1  0  0  0  0
 14 15  1  0  0  0  0
 15 16  1  0  0  0  0
 15 23  1  0  0  0  0
 15 22  1  0  0  0  0
 16 24  1  0  0  0  0
 17 12  1  0  0  0  0
 19 13  1  0  0  0  0
 20 13  1  0  0  0  0
 21 14  1  0  0  0  0
 25 16  1  0  0  0  0
 26  1  1  0  0  0  0
 26 31  1  0  0  0  0
 27 26  1  0  0  0  0
 28 26  1  0  0  0  0
 29 35  1  0  0  0  0
 29 34  1  0  0  0  0
 30 29  2  0  0  0  0
 31 30  1  0  0  0  0
 31 32  2  0  0  0  0
 32 33  1  0  0  0  0
 33 34  2  0  0  0  0
 33 38  1  0  0  0  0
 36 30  1  0  0  0  0
 37 43  1  0  0  0  0
 38 37  2  0  0  0  0
 39 38  1  0  0  0  0
 39 41  2  0  0  0  0
 40 39  1  0  0  0  0
 41 42  1  0  0  0  0
 42 43  2  0  0  0  0
 42 44  1  0  0  0  0
 45 46  1  0  0  0  0
 45 44  1  0  0  0  0
 47 41  1  0  0  0  0
 47 45  1  0  0  0  0
M  END
>  <minimizedAffinity>
-5.58278942

>  <minimizedRMSD>
1.27077305

$$$$
