
     RDKit          3D

 24 26  0  0  0  0  0  0  0  0999 V2000
   44.5365   36.0321   44.5328 C   0  0  0  0  0  0  0  0  0  0  0  0
   45.2587   35.8936   43.3219 C   0  0  0  0  0  0  0  0  0  0  0  0
   46.1342   34.7899   43.2071 C   0  0  0  0  0  0  0  0  0  0  0  0
   46.2332   33.9356   44.2487 N   0  0  0  0  0  0  0  0  0  0  0  0
   45.5279   34.1051   45.3816 C   0  0  0  0  0  0  0  0  0  0  0  0
   44.6926   35.1367   45.5224 N   0  0  0  0  0  0  0  0  0  0  0  0
   47.0681   34.5601   41.7144 S   0  0  0  0  0  0  0  0  0  0  0  0
   43.9040   36.8939   44.5228 H   0  0  0  0  0  0  0  0  0  0  0  0
   45.1666   36.5846   42.5028 H   0  0  0  0  0  0  0  0  0  0  0  0
   47.5996   33.2380   41.7459 H   0  0  0  0  0  0  0  0  0  0  0  0
   44.7682   33.1034   47.4995 C   0  0  0  0  0  0  0  0  0  0  0  0
   45.6885   33.1291   46.4788 C   0  0  0  0  0  0  0  0  0  0  0  0
   46.7918   32.2708   46.4117 C   0  0  0  0  0  0  0  0  0  0  0  0
   47.4954   32.3019   45.6165 H   0  0  0  0  0  0  0  0  0  0  0  0
   46.8815   31.3784   47.4762 C   0  0  0  0  0  0  0  0  0  0  0  0
   45.9997   31.2933   48.5328 C   0  0  0  0  0  0  0  0  0  0  0  0
   44.9434   32.1914   48.4978 C   0  0  0  0  0  0  0  0  0  0  0  0
   46.4642   30.2778   49.3553 O   0  0  0  0  0  0  0  0  0  0  0  0
   47.7303   29.8669   48.9116 C   0  0  2  0  0  0  0  0  0  0  0  0
   47.7896   28.7583   48.8559 H   0  0  0  0  0  0  0  0  0  0  0  0
   47.8980   30.4178   47.6350 O   0  0  0  0  0  0  0  0  0  0  0  0
   43.9474   33.8046   47.4681 H   0  0  0  0  0  0  0  0  0  0  0  0
   44.2378   32.1367   49.3260 H   0  0  0  0  0  0  0  0  0  0  0  0
   48.5209   30.3184   49.5518 H   0  0  0  0  0  0  0  0  0  0  0  0
  1  6  2  0
  2  1  1  0
  3  2  2  0
  3  4  1  0
  4  5  2  0
  5  6  1  0
  7  3  1  0
  1  8  1  0
  2  9  1  0
  7 10  1  0
 11 12  2  0
 12 13  1  0
 13 14  1  0
 13 15  2  0
 15 16  1  0
 16 17  2  0
 16 18  1  0
 18 19  1  0
 19 20  1  6
 19 21  1  0
 17 11  1  0
 21 15  1  0
 11 22  1  0
 17 23  1  0
 19 24  1  0
  5 12  1  0
M  ISO  5   8  14   9  14  10  11  14  16  20   8
M  END
>  <DihAtoms>  (1) 
3,4,11,10

>  <DihDeg>  (1) 
-179.99973974013065

$$$$
