
 OpenBabel03242510233D

 40 44  0  0  1  0  0  0  0  0999 V2000
   48.0220   33.1100   43.2950 N   0  0  0  0  0  0  0  0  0  0  0  0
   49.1300   33.0640   42.4590 C   0  0  0  0  0  0  0  0  0  0  0  0
   50.2570   32.5240   42.6120 O   0  0  0  0  0  0  0  0  0  0  0  0
   47.5780   34.0540   43.2990 H   0  0  0  0  0  0  0  0  0  0  0  0
   46.1800   32.0540   44.5530 C   0  0  1  0  0  0  0  0  0  0  0  0
   46.3380   31.2930   43.3900 C   0  0  0  0  0  0  0  0  0  0  0  0
   47.5690   31.9960   44.0470 C   0  0  1  0  0  0  0  0  0  0  0  0
   45.9670   31.6120   45.5560 H   0  0  0  0  0  0  0  0  0  0  0  0
   46.1150   31.5730   42.3470 H   0  0  0  0  0  0  0  0  0  0  0  0
   46.3350   30.1630   43.4850 H   0  0  0  0  0  0  0  0  0  0  0  0
   48.2860   31.2570   44.4570 H   0  0  0  0  0  0  0  0  0  0  0  0
   45.0110   33.9320   43.1770 C   0  0  0  0  0  0  0  0  0  0  0  0
   45.4810   33.4200   44.4290 C   0  0  0  0  0  0  0  0  0  0  0  0
   45.3100   34.2110   45.5450 C   0  0  0  0  0  0  0  0  0  0  0  0
   44.7150   35.4150   45.4130 N   0  0  0  0  0  0  0  0  0  0  0  0
   44.2750   35.8890   44.2180 C   0  0  0  0  0  0  0  0  0  0  0  0
   44.4330   35.1120   43.0670 N   0  0  0  0  0  0  0  0  0  0  0  0
   45.1280   33.3090   42.3130 H   0  0  0  0  0  0  0  0  0  0  0  0
   45.6540   33.8520   46.5110 H   0  0  0  0  0  0  0  0  0  0  0  0
   43.8070   36.8630   44.1750 H   0  0  0  0  0  0  0  0  0  0  0  0
   49.0620   33.7470   41.1020 C   0  0  2  0  0  0  0  0  0  0  0  0
   48.5440   35.2330   41.1030 C   0  0  0  0  0  0  0  0  0  0  0  0
   47.7800   34.1000   40.4860 C   0  0  1  0  0  0  0  0  0  0  0  0
   49.9590   33.6790   40.4540 H   0  0  0  0  0  0  0  0  0  0  0  0
   48.2240   35.5560   42.1150 H   0  0  0  0  0  0  0  0  0  0  0  0
   49.0030   35.9330   40.4100 H   0  0  0  0  0  0  0  0  0  0  0  0
   46.9240   33.5870   40.9760 H   0  0  0  0  0  0  0  0  0  0  0  0
   47.6970   34.0590   38.9790 C   0  0  0  0  0  0  0  0  0  0  0  0
   48.4930   34.7170   38.3150 O   0  0  0  0  0  0  0  0  0  0  0  0
   45.7890   32.4070   38.8800 C   0  0  0  0  0  3  0  0  0  0  0  0
   46.6960   33.2580   38.2840 C   0  0  0  0  0  0  0  0  0  0  0  0
   46.5980   33.3140   36.9100 C   0  0  0  0  0  0  0  0  0  0  0  0
   47.2470   33.9390   36.3050 H   0  0  0  0  0  0  0  0  0  0  0  0
   45.6810   32.5910   36.1750 C   0  0  0  0  0  0  0  0  0  0  0  0
   44.7940   31.7540   36.8160 C   0  0  0  0  0  0  0  0  0  0  0  0
   44.8580   31.6690   38.1830 C   0  0  0  0  0  3  0  0  0  0  0  0
   43.9930   31.1570   35.8430 O   0  0  0  0  0  0  0  0  0  0  0  0
   44.7020   31.2310   34.5980 C   0  0  0  0  0  3  0  0  0  0  0  0
   45.5340   30.4780   34.5640 H   0  0  0  0  0  0  0  0  0  0  0  0
   45.3850   32.4740   34.8120 O   0  0  0  0  0  0  0  0  0  0  0  0
  1  4  1  0  0  0  0
  1  7  1  0  0  0  0
  2  3  2  0  0  0  0
  2  1  1  0  0  0  0
  5  8  1  1  0  0  0
  6 10  1  0  0  0  0
  6  7  1  0  0  0  0
  6  5  1  0  0  0  0
  7 11  1  1  0  0  0
  7  5  1  0  0  0  0
  9  6  1  0  0  0  0
 12 13  1  0  0  0  0
 13  5  1  0  0  0  0
 13 14  2  0  0  0  0
 14 19  1  0  0  0  0
 15 14  1  0  0  0  0
 16 15  2  0  0  0  0
 17 12  2  0  0  0  0
 17 16  1  0  0  0  0
 18 12  1  0  0  0  0
 20 16  1  0  0  0  0
 21 24  1  6  0  0  0
 21 22  1  0  0  0  0
 21  2  1  0  0  0  0
 22 25  1  0  0  0  0
 23 27  1  1  0  0  0
 23 21  1  0  0  0  0
 23 22  1  0  0  0  0
 26 22  1  0  0  0  0
 28 23  1  0  0  0  0
 29 28  2  0  0  0  0
 31 30  1  0  0  0  0
 31 28  1  0  0  0  0
 32 31  2  0  0  0  0
 33 32  1  0  0  0  0
 34 35  2  0  0  0  0
 34 32  1  0  0  0  0
 35 36  1  0  0  0  0
 36 30  2  0  0  0  0
 37 35  1  0  0  0  0
 38 40  1  0  0  0  0
 38 37  1  0  0  0  0
 39 38  1  0  0  0  0
 40 34  1  0  0  0  0
M  END
>  <minimizedAffinity>
-5.39598036

>  <minimizedRMSD>
0.757670045

$$$$
