
 OpenBabel03242520403D

 41 45  0  0  1  0  0  0  0  0999 V2000
   45.8550   33.4860   45.7740 C   0  0  0  0  0  0  0  0  0  0  0  0
   46.6670   33.6330   44.6190 C   0  0  0  0  0  0  0  0  0  0  0  0
   47.3400   32.4750   44.1250 C   0  0  0  0  0  0  0  0  0  0  0  0
   47.1760   31.2840   44.7780 N   0  0  0  0  0  0  0  0  0  0  0  0
   46.3860   31.2080   45.8780 C   0  0  0  0  0  0  0  0  0  0  0  0
   45.7390   32.2970   46.3630 N   0  0  0  0  0  0  0  0  0  0  0  0
   46.2740   29.9530   46.4860 N   0  0  0  0  0  0  0  0  0  0  0  0
   47.4270   29.2780   46.9840 C   0  0  2  0  0  0  0  0  0  0  0  0
   47.2110   27.8540   47.3570 C   0  0  0  0  0  0  0  0  0  0  0  0
   45.9210   27.4980   47.8120 N   0  0  0  0  0  0  0  0  0  0  0  0
   45.0120   28.5840   47.9260 C   0  0  0  0  0  0  0  0  0  0  0  0
   44.9780   29.3250   46.6150 C   0  0  0  0  0  0  0  0  0  0  0  0
   45.3850   34.3950   46.0830 H   0  0  0  0  0  0  0  0  0  0  0  0
   46.8460   34.5190   44.0560 H   0  0  0  0  0  0  0  0  0  0  0  0
   47.9700   32.5350   43.2480 H   0  0  0  0  0  0  0  0  0  0  0  0
   48.1440   29.2190   46.1050 H   0  0  0  0  0  0  0  0  0  0  0  0
   47.9370   27.6250   48.1890 H   0  0  0  0  0  0  0  0  0  0  0  0
   47.4880   27.1410   46.5530 H   0  0  0  0  0  0  0  0  0  0  0  0
   45.8960   26.7980   48.5830 H   0  0  0  0  0  0  0  0  0  0  0  0
   43.9850   28.1210   48.0430 H   0  0  0  0  0  0  0  0  0  0  0  0
   45.1450   29.2280   48.7950 H   0  0  0  0  0  0  0  0  0  0  0  0
   44.9150   28.5720   45.8220 H   0  0  0  0  0  0  0  0  0  0  0  0
   44.1670   30.0830   46.5600 H   0  0  0  0  0  0  0  0  0  0  0  0
   48.1150   30.0620   48.0450 C   0  0  0  0  0  0  0  0  0  0  0  0
   47.6580   30.7430   49.1450 C   0  0  0  0  0  0  0  0  0  0  0  0
   48.6560   31.3020   49.8360 N   0  0  0  0  0  0  0  0  0  0  0  0
   49.7660   30.9800   49.1790 C   0  0  0  0  0  0  0  0  0  0  0  0
   49.4460   30.2370   48.1050 N   0  0  0  0  0  0  0  0  0  0  0  0
   46.6150   30.8200   49.4170 H   0  0  0  0  0  0  0  0  0  0  0  0
   48.6160   31.8740   50.7070 H   0  0  0  0  0  0  0  0  0  0  0  0
   52.2380   30.4600   49.2590 C   0  0  0  0  0  3  0  0  0  0  0  0
   51.1690   31.3090   49.4640 C   0  0  0  0  0  0  0  0  0  0  0  0
   51.4290   32.5650   49.9720 C   0  0  0  0  0  0  0  0  0  0  0  0
   50.6190   33.2570   50.1450 H   0  0  0  0  0  0  0  0  0  0  0  0
   52.7090   32.9860   50.2770 C   0  0  0  0  0  0  0  0  0  0  0  0
   53.7900   32.1310   50.0730 C   0  0  0  0  0  0  0  0  0  0  0  0
   53.5190   30.8770   49.5630 C   0  0  0  0  0  3  0  0  0  0  0  0
   54.9720   32.7890   50.4570 O   0  0  0  0  0  0  0  0  0  0  0  0
   54.5090   33.7990   51.3650 C   0  0  0  0  0  3  0  0  0  0  0  0
   55.2620   34.5880   51.3670 H   0  0  0  0  0  0  0  0  0  0  0  0
   53.2680   34.1610   50.7890 O   0  0  0  0  0  0  0  0  0  0  0  0
  1 13  1  0  0  0  0
  1  6  1  0  0  0  0
  2  1  2  0  0  0  0
  3  2  1  0  0  0  0
  3  4  2  0  0  0  0
  4  5  1  0  0  0  0
  5  6  2  0  0  0  0
  5  7  1  0  0  0  0
  7 12  1  0  0  0  0
  7  8  1  0  0  0  0
  8 16  1  6  0  0  0
  8  9  1  0  0  0  0
  8 24  1  0  0  0  0
  9 10  1  0  0  0  0
  9 17  1  0  0  0  0
 10 11  1  0  0  0  0
 10 19  1  0  0  0  0
 11 20  1  0  0  0  0
 11 21  1  0  0  0  0
 12 11  1  0  0  0  0
 14  2  1  0  0  0  0
 15  3  1  0  0  0  0
 18  9  1  0  0  0  0
 22 12  1  0  0  0  0
 23 12  1  0  0  0  0
 24 28  1  0  0  0  0
 24 25  2  0  0  0  0
 25 29  1  0  0  0  0
 25 26  1  0  0  0  0
 26 30  1  0  0  0  0
 27 32  1  0  0  0  0
 27 26  1  0  0  0  0
 28 27  2  0  0  0  0
 31 32  2  0  0  0  0
 31 37  1  0  0  0  0
 32 33  1  0  0  0  0
 33 34  1  0  0  0  0
 33 35  2  0  0  0  0
 35 41  1  0  0  0  0
 36 35  1  0  0  0  0
 36 38  1  0  0  0  0
 37 36  2  0  0  0  0
 38 39  1  0  0  0  0
 39 40  1  0  0  0  0
 41 39  1  0  0  0  0
M  END
>  <minimizedAffinity>
-5.41725588

>  <minimizedRMSD>
0.433324605

$$$$
