
 OpenBabel03252508513D

 30 33  0  0  0  0  0  0  0  0999 V2000
   45.8870   34.2310   41.0310 C   0  0  0  0  0  0  0  0  0  0  0  0
   46.4940   34.7980   42.1460 C   0  0  0  0  0  0  0  0  0  0  0  0
   47.8570   35.0880   42.0290 C   0  0  0  0  0  0  0  0  0  0  0  0
   48.4960   34.8030   40.8500 N   0  0  0  0  0  0  0  0  0  0  0  0
   47.8640   34.2600   39.8180 C   0  0  0  0  0  0  0  0  0  0  0  0
   46.5570   33.9670   39.8870 N   0  0  0  0  0  0  0  0  0  0  0  0
   48.3560   35.5290   42.8800 H   0  0  0  0  0  0  0  0  0  0  0  0
   48.3760   34.0400   38.8940 H   0  0  0  0  0  0  0  0  0  0  0  0
   45.7230   35.0570   43.3440 C   0  0  0  0  0  0  0  0  0  0  0  0
   45.1090   36.2600   43.6000 C   0  0  0  0  0  0  0  0  0  0  0  0
   44.5040   36.0610   44.8240 C   0  0  0  0  0  0  0  0  0  0  0  0
   44.7380   34.8090   45.2830 N   0  0  0  0  0  0  0  0  0  0  0  0
   45.4770   34.2220   44.3700 N   0  0  0  0  0  0  0  0  0  0  0  0
   45.0580   37.1830   43.0440 H   0  0  0  0  0  0  0  0  0  0  0  0
   43.8960   36.7450   45.4330 H   0  0  0  0  0  0  0  0  0  0  0  0
   44.4420   34.3220   46.1540 H   0  0  0  0  0  0  0  0  0  0  0  0
   44.5380   33.9290   41.1030 O   0  0  0  0  0  0  0  0  0  0  0  0
   43.4960   34.6820   40.6420 C   0  0  0  0  0  0  0  0  0  0  0  0
   43.3140   35.9430   40.8130 O   0  0  0  0  0  0  0  0  0  0  0  0
   41.6530   34.8550   38.9090 C   0  0  0  0  0  3  0  0  0  0  0  0
   42.3720   34.1130   39.8390 C   0  0  0  0  0  0  0  0  0  0  0  0
   41.9370   32.8130   39.9340 C   0  0  0  0  0  0  0  0  0  0  0  0
   42.4370   32.1520   40.6350 H   0  0  0  0  0  0  0  0  0  0  0  0
   40.9080   32.2800   39.2050 C   0  0  0  0  0  0  0  0  0  0  0  0
   40.2530   33.0910   38.3080 C   0  0  0  0  0  0  0  0  0  0  0  0
   40.6090   34.4030   38.1360 C   0  0  0  0  0  3  0  0  0  0  0  0
   39.2750   32.3120   37.7170 O   0  0  0  0  0  0  0  0  0  0  0  0
   39.2750   30.9960   38.2540 C   0  0  0  0  0  3  0  0  0  0  0  0
   39.5100   30.2210   37.4970 H   0  0  0  0  0  0  0  0  0  0  0  0
   40.3440   31.0140   39.1720 O   0  0  0  0  0  0  0  0  0  0  0  0
  1 17  1  0  0  0  0
  1  2  1  0  0  0  0
  2  9  1  0  0  0  0
  3  2  2  0  0  0  0
  3  7  1  0  0  0  0
  4  3  1  0  0  0  0
  5  6  1  0  0  0  0
  5  4  2  0  0  0  0
  6  1  2  0  0  0  0
  8  5  1  0  0  0  0
  9 10  1  0  0  0  0
  9 13  2  0  0  0  0
 10 11  2  0  0  0  0
 11 12  1  0  0  0  0
 11 15  1  0  0  0  0
 12 16  1  0  0  0  0
 13 12  1  0  0  0  0
 14 10  1  0  0  0  0
 18 19  2  0  0  0  0
 18 17  1  0  0  0  0
 20 21  1  0  0  0  0
 21 22  2  0  0  0  0
 21 18  1  0  0  0  0
 22 23  1  0  0  0  0
 24 22  1  0  0  0  0
 25 24  2  0  0  0  0
 26 25  1  0  0  0  0
 26 20  2  0  0  0  0
 27 28  1  0  0  0  0
 27 25  1  0  0  0  0
 28 30  1  0  0  0  0
 29 28  1  0  0  0  0
 30 24  1  0  0  0  0
M  END
>  <minimizedAffinity>
-5.81893539

>  <minimizedRMSD>
0.981764793

$$$$
