REMARK  Name = 
REMARK  5 active torsions:
REMARK  status: ('A' for Active; 'I' for Inactive)
REMARK    1  A    between atoms: C_2  and  O_20
REMARK    2  A    between atoms: C_3  and  C_16
REMARK    3  A    between atoms: C_5  and  C_8
REMARK    4  A    between atoms: O_20  and  C_21
REMARK    5  A    between atoms: C_24  and  C_34
REMARK                            x       y       z     vdW  Elec       q    Type
REMARK                         _______ _______ _______ _____ _____    ______ ____
ROOT
ATOM      1  C   UNL     1      45.968  33.167  41.655  0.00  0.00    +0.000 A 
ATOM      2  C   UNL     1      47.128  33.877  41.324  0.00  0.00    +0.000 A 
ATOM      3  C   UNL     1      48.102  33.964  42.296  0.00  0.00    +0.000 A 
ATOM      4  N   UNL     1      47.865  33.358  43.496  0.00  0.00    +0.000 NA
ATOM      5  C   UNL     1      46.762  32.689  43.797  0.00  0.00    +0.000 A 
ATOM      6  N   UNL     1      45.795  32.587  42.869  0.00  0.00    +0.000 NA
ATOM      7  H   UNL     1      45.179  33.077  40.917  0.00  0.00    +0.000 HD
ENDROOT
BRANCH   5   9
ATOM      8  C   UNL     1      46.922  30.759  45.306  0.00  0.00    +0.000 A 
ATOM      9  C   UNL     1      46.601  32.079  45.100  0.00  0.00    +0.000 A 
ATOM     10  C   UNL     1      46.108  32.902  46.121  0.00  0.00    +0.000 A 
ATOM     11  C   UNL     1      45.924  32.397  47.402  0.00  0.00    +0.000 A 
ATOM     12  N   UNL     1      45.485  32.870  48.595  0.00  0.00    +0.000 N 
ATOM     13  C   UNL     1      45.541  31.855  49.501  0.00  0.00    +0.000 A 
ATOM     14  N   UNL     1      46.014  30.766  48.852  0.00  0.00    +0.000 NA
ATOM     15  C   UNL     1      46.257  31.069  47.567  0.00  0.00    +0.000 A 
ATOM     16  C   UNL     1      46.746  30.228  46.583  0.00  0.00    +0.000 A 
ATOM     17  H   UNL     1      47.302  30.121  44.523  0.00  0.00    +0.000 HD
ATOM     18  H   UNL     1      45.854  33.953  45.952  0.00  0.00    +0.000 HD
ATOM     19  H   UNL     1      45.176  33.871  48.699  0.00  0.00    +0.000 HD
ATOM     20  H   UNL     1      45.235  31.999  50.539  0.00  0.00    +0.000 HD
ATOM     21  H   UNL     1      46.983  29.194  46.799  0.00  0.00    +0.000 HD
ENDBRANCH   5   9
BRANCH   3  22
ATOM     22  C   UNL     1      49.355  34.700  42.011  0.00  0.00    +0.000 C 
ATOM     23  F   UNL     1      49.095  35.823  41.212  0.00  0.00    +0.000 F 
ATOM     24  F   UNL     1      49.907  35.181  43.174  0.00  0.00    +0.000 F 
ATOM     25  F   UNL     1      50.213  33.854  41.349  0.00  0.00    +0.000 F 
ENDBRANCH   3  22
BRANCH   2  26
ATOM     26  O   UNL     1      47.235  34.431  40.091  0.00  0.00    +0.000 OA
BRANCH  26  27
ATOM     27  C   UNL     1      47.374  33.682  38.949  0.00  0.00    +0.000 A 
ATOM     28  C   UNL     1      48.355  34.363  38.238  0.00  0.00    +0.000 A 
ATOM     29  S   UNL     1      48.535  33.347  36.704  0.00  0.00    +0.000 S 
ATOM     30  C   UNL     1      47.222  32.160  37.315  0.00  0.00    +0.000 A 
ATOM     31  N   UNL     1      46.987  32.642  38.279  0.00  0.00    +0.000 NA
ATOM     32  H   UNL     1      49.088  35.269  38.195  0.00  0.00    +0.000 HD
BRANCH  30  34
ATOM     33  C   UNL     1      46.726  29.749  36.952  0.00  0.00    +0.000 A 
ATOM     34  C   UNL     1      46.868  31.006  36.455  0.00  0.00    +0.000 A 
ATOM     35  C   UNL     1      46.713  31.387  35.142  0.00  0.00    +0.000 A 
ATOM     36  H   UNL     1      46.829  32.391  34.761  0.00  0.00    +0.000 HD
ATOM     37  C   UNL     1      46.376  30.389  34.222  0.00  0.00    +0.000 A 
ATOM     38  C   UNL     1      46.228  29.098  34.718  0.00  0.00    +0.000 A 
ATOM     39  C   UNL     1      46.392  28.741  36.060  0.00  0.00    +0.000 A 
ATOM     40  O   UNL     1      45.894  28.290  33.616  0.00  0.00    +0.000 OA
ATOM     41  C   UNL     1      45.409  29.126  32.563  0.00  0.00    +0.000 C 
ATOM     42  H   UNL     1      45.656  28.733  31.576  0.00  0.00    +0.000 HD
ATOM     43  O   UNL     1      46.131  30.335  32.840  0.00  0.00    +0.000 OA
ENDBRANCH  30  34
ENDBRANCH  26  27
ENDBRANCH   2  26
TORSDOF 5
