
 OpenBabel03252509233D

 29 32  0  0  1  0  0  0  0  0999 V2000
   46.1030   34.7260   41.9460 C   0  0  1  0  0  0  0  0  0  0  0  0
   47.6180   35.0290   41.7840 C   0  0  0  0  0  0  0  0  0  0  0  0
   46.9010   33.6940   41.3890 C   0  0  2  0  0  0  0  0  0  0  0  0
   45.4620   35.4160   41.3670 H   0  0  0  0  0  0  0  0  0  0  0  0
   48.2750   34.9320   42.6440 H   0  0  0  0  0  0  0  0  0  0  0  0
   47.8970   35.6750   40.9300 H   0  0  0  0  0  0  0  0  0  0  0  0
   47.1450   32.8110   42.0160 H   0  0  0  0  0  0  0  0  0  0  0  0
   45.7340   33.2270   39.1830 C   0  0  0  0  0  3  0  0  0  0  0  0
   46.8840   33.4160   39.9200 C   0  0  0  0  0  0  0  0  0  0  0  0
   48.0770   33.3300   39.1960 C   0  0  0  0  0  0  0  0  0  0  0  0
   49.0000   33.4760   39.7570 H   0  0  0  0  0  0  0  0  0  0  0  0
   48.1600   33.0800   37.8510 C   0  0  0  0  0  0  0  0  0  0  0  0
   46.9850   32.8980   37.1500 C   0  0  0  0  0  0  0  0  0  0  0  0
   45.7650   32.9720   37.8240 C   0  0  0  0  0  3  0  0  0  0  0  0
   47.3530   32.6660   35.8400 O   0  0  0  0  0  0  0  0  0  0  0  0
   48.7360   32.8910   35.6750 C   0  0  0  0  0  3  0  0  0  0  0  0
   49.1590   32.0370   35.1160 H   0  0  0  0  0  0  0  0  0  0  0  0
   49.2370   32.9640   36.9870 O   0  0  0  0  0  0  0  0  0  0  0  0
   44.6340   35.5300   45.3080 C   0  0  0  0  0  0  0  0  0  0  0  0
   44.9940   35.6970   43.9260 C   0  0  0  0  0  0  0  0  0  0  0  0
   45.7430   34.6720   43.4110 C   0  0  0  0  0  0  0  0  0  0  0  0
   46.1140   33.5790   44.1770 N   0  0  0  0  0  0  0  0  0  0  0  0
   45.7480   33.4820   45.4570 C   0  0  0  0  0  0  0  0  0  0  0  0
   45.0100   34.4500   46.0310 N   0  0  0  0  0  0  0  0  0  0  0  0
   44.0440   36.3080   45.7580 H   0  0  0  0  0  0  0  0  0  0  0  0
   46.1210   32.5690   45.9030 H   0  0  0  0  0  0  0  0  0  0  0  0
   44.6320   36.8360   43.1690 N   0  0  0  0  0  0  0  0  0  0  0  0
   45.3810   37.5160   42.8680 H   0  0  0  0  0  0  0  0  0  0  0  0
   43.6340   37.0330   42.8930 H   0  0  0  0  0  0  0  0  0  0  0  0
  1  4  1  6  0  0  0
  1 21  1  0  0  0  0
  2  1  1  0  0  0  0
  2  5  1  0  0  0  0
  3  2  1  0  0  0  0
  3  1  1  0  0  0  0
  3  7  1  1  0  0  0
  6  2  1  0  0  0  0
  8  9  1  0  0  0  0
  9  3  1  0  0  0  0
 10 11  1  0  0  0  0
 10  9  2  0  0  0  0
 12 10  1  0  0  0  0
 13 14  1  0  0  0  0
 13 12  2  0  0  0  0
 14  8  2  0  0  0  0
 15 13  1  0  0  0  0
 16 15  1  0  0  0  0
 16 18  1  0  0  0  0
 17 16  1  0  0  0  0
 18 12  1  0  0  0  0
 19 25  1  0  0  0  0
 19 24  1  0  0  0  0
 20 19  2  0  0  0  0
 21 20  1  0  0  0  0
 21 22  2  0  0  0  0
 22 23  1  0  0  0  0
 23 26  1  0  0  0  0
 23 24  2  0  0  0  0
 27 20  1  0  0  0  0
 28 27  1  0  0  0  0
 29 27  1  0  0  0  0
M  END
>  <minimizedAffinity>
-5.34827137

>  <minimizedRMSD>
1.10990357

$$$$
