
 OpenBabel03252507383D

 40 45  0  0  0  0  0  0  0  0999 V2000
   47.1890   32.7040   43.4110 C   0  0  0  0  0  0  0  0  0  0  0  0
   46.8630   31.4010   43.8340 C   0  0  0  0  0  0  0  0  0  0  0  0
   46.2120   31.2610   45.0450 C   0  0  0  0  0  0  0  0  0  0  0  0
   45.9180   32.3580   45.7610 N   0  0  0  0  0  0  0  0  0  0  0  0
   46.2390   33.6110   45.3390 C   0  0  0  0  0  0  0  0  0  0  0  0
   46.8650   33.7700   44.1800 N   0  0  0  0  0  0  0  0  0  0  0  0
   47.0960   30.5170   43.2640 H   0  0  0  0  0  0  0  0  0  0  0  0
   45.9420   34.4000   46.0180 H   0  0  0  0  0  0  0  0  0  0  0  0
   45.8090   29.8520   46.9910 C   0  0  0  0  0  0  0  0  0  0  0  0
   45.8140   29.9680   45.6030 C   0  0  0  0  0  0  0  0  0  0  0  0
   45.4500   28.8760   44.8520 C   0  0  0  0  0  0  0  0  0  0  0  0
   45.0820   27.6810   45.4300 C   0  0  0  0  0  0  0  0  0  0  0  0
   44.6910   26.4940   44.8890 N   0  0  0  0  0  0  0  0  0  0  0  0
   44.4420   25.6370   45.9480 C   0  0  0  0  0  0  0  0  0  0  0  0
   44.6800   26.3010   47.0840 N   0  0  0  0  0  0  0  0  0  0  0  0
   45.0730   27.5580   46.7940 C   0  0  0  0  0  0  0  0  0  0  0  0
   45.4350   28.6370   47.5690 C   0  0  0  0  0  0  0  0  0  0  0  0
   46.0820   30.6630   47.6640 H   0  0  0  0  0  0  0  0  0  0  0  0
   45.4560   28.9740   43.7700 H   0  0  0  0  0  0  0  0  0  0  0  0
   44.6030   26.2890   43.8610 H   0  0  0  0  0  0  0  0  0  0  0  0
   44.1130   24.6150   45.8600 H   0  0  0  0  0  0  0  0  0  0  0  0
   45.4250   28.5290   48.6480 H   0  0  0  0  0  0  0  0  0  0  0  0
   47.8450   32.8590   42.1920 O   0  0  0  0  0  0  0  0  0  0  0  0
   48.3500   31.7520   41.5230 C   0  0  0  0  0  0  0  0  0  0  0  0
   47.4290   31.6060   40.5490 C   0  0  0  0  0  0  0  0  0  0  0  0
   48.1120   30.0830   39.6120 S   0  0  0  0  0  0  0  0  0  0  0  0
   49.5510   30.0120   40.8280 C   0  0  0  0  0  0  0  0  0  0  0  0
   49.3120   30.8620   41.4800 N   0  0  0  0  0  0  0  0  0  0  0  0
   46.4550   31.8190   39.8940 H   0  0  0  0  0  0  0  0  0  0  0  0
   51.2970   28.4300   41.6840 C   0  0  0  0  0  3  0  0  0  0  0  0
   50.5750   28.9210   40.6350 C   0  0  0  0  0  0  0  0  0  0  0  0
   50.6500   28.5380   39.3320 C   0  0  0  0  0  0  0  0  0  0  0  0
   50.0620   28.9500   38.5230 H   0  0  0  0  0  0  0  0  0  0  0  0
   51.5770   27.5280   39.0530 C   0  0  0  0  0  0  0  0  0  0  0  0
   52.3450   26.9860   40.0840 C   0  0  0  0  0  0  0  0  0  0  0  0
   52.2100   27.4310   41.3960 C   0  0  0  0  0  3  0  0  0  0  0  0
   53.1750   26.0050   39.5140 O   0  0  0  0  0  0  0  0  0  0  0  0
   52.6550   25.6880   38.2250 C   0  0  0  0  0  3  0  0  0  0  0  0
   53.4390   25.4450   37.5000 H   0  0  0  0  0  0  0  0  0  0  0  0
   51.9520   26.8680   37.8700 O   0  0  0  0  0  0  0  0  0  0  0  0
  1  2  2  0  0  0  0
  1  6  1  0  0  0  0
  2  3  1  0  0  0  0
  3 10  1  0  0  0  0
  3  4  2  0  0  0  0
  5  4  1  0  0  0  0
  5  8  1  0  0  0  0
  6  5  2  0  0  0  0
  7  2  1  0  0  0  0
  9 17  1  0  0  0  0
  9 18  1  0  0  0  0
 10  9  2  0  0  0  0
 11 12  2  0  0  0  0
 11 10  1  0  0  0  0
 12 16  1  0  0  0  0
 13 12  1  0  0  0  0
 13 14  1  0  0  0  0
 14 15  2  0  0  0  0
 16 15  1  0  0  0  0
 16 17  2  0  0  0  0
 17 22  1  0  0  0  0
 19 11  1  0  0  0  0
 20 13  1  0  0  0  0
 21 14  1  0  0  0  0
 23  1  1  0  0  0  0
 24 23  1  0  0  0  0
 25 24  2  0  0  0  0
 26 25  1  0  0  0  0
 26 27  1  0  0  0  0
 27 28  2  0  0  0  0
 28 24  1  0  0  0  0
 29 25  1  0  0  0  0
 31 27  1  0  0  0  0
 31 30  2  0  0  0  0
 32 31  1  0  0  0  0
 33 32  1  0  0  0  0
 34 32  2  0  0  0  0
 34 35  1  0  0  0  0
 35 36  2  0  0  0  0
 36 30  1  0  0  0  0
 37 35  1  0  0  0  0
 38 37  1  0  0  0  0
 39 38  1  0  0  0  0
 40 38  1  0  0  0  0
 40 34  1  0  0  0  0
M  END
>  <minimizedAffinity>
-3.05942655

>  <minimizedRMSD>
9.21345711

$$$$
