
 OpenBabel03252508323D

 34 37  0  0  1  0  0  0  0  0999 V2000
   44.9170   34.7030   42.5650 N   0  0  0  0  0  0  0  0  0  0  0  0
   45.5700   33.8050   41.6910 C   0  0  1  0  0  0  0  0  0  0  0  0
   45.2920   33.9860   40.2440 C   0  0  0  0  0  0  0  0  0  0  0  0
   44.0150   34.4440   39.8870 N   0  0  0  0  0  0  0  0  0  0  0  0
   43.3560   35.3180   40.7710 C   0  0  0  0  0  0  0  0  0  0  0  0
   44.2600   35.7840   41.8950 C   0  0  0  0  0  0  0  0  0  0  0  0
   45.2580   32.7600   41.9720 H   0  0  0  0  0  0  0  0  0  0  0  0
   45.5380   33.0550   39.6950 H   0  0  0  0  0  0  0  0  0  0  0  0
   46.0360   34.7430   39.8570 H   0  0  0  0  0  0  0  0  0  0  0  0
   43.3880   33.5930   39.7700 H   0  0  0  0  0  0  0  0  0  0  0  0
   42.4090   34.9570   41.2100 H   0  0  0  0  0  0  0  0  0  0  0  0
   43.0940   36.2430   40.1960 H   0  0  0  0  0  0  0  0  0  0  0  0
   45.0350   36.4860   41.4660 H   0  0  0  0  0  0  0  0  0  0  0  0
   43.6170   36.4220   42.5280 H   0  0  0  0  0  0  0  0  0  0  0  0
   47.7980   35.0030   41.8540 C   0  0  0  0  0  0  0  0  0  0  0  0
   47.0690   33.8350   41.8310 C   0  0  0  0  0  0  0  0  0  0  0  0
   47.8500   32.6790   41.9340 C   0  0  0  0  0  0  0  0  0  0  0  0
   47.3410   31.7230   41.9220 H   0  0  0  0  0  0  0  0  0  0  0  0
   49.2220   32.6900   42.0470 C   0  0  0  0  0  0  0  0  0  0  0  0
   49.8800   33.9000   42.0630 C   0  0  0  0  0  0  0  0  0  0  0  0
   49.1610   35.0740   41.9650 C   0  0  0  0  0  0  0  0  0  0  0  0
   51.2470   33.6050   42.1860 O   0  0  0  0  0  0  0  0  0  0  0  0
   51.4520   32.2250   41.9110 C   0  0  0  0  0  0  0  0  0  0  0  0
   51.7710   32.1380   40.8520 H   0  0  0  0  0  0  0  0  0  0  0  0
   50.1690   31.6860   42.1590 O   0  0  0  0  0  0  0  0  0  0  0  0
   44.4560   35.4770   44.7790 C   0  0  0  0  0  0  0  0  0  0  0  0
   44.9720   34.4670   43.9560 C   0  0  0  0  0  0  0  0  0  0  0  0
   45.4850   33.3410   44.5730 C   0  0  0  0  0  0  0  0  0  0  0  0
   45.4910   33.2160   45.9280 N   0  0  0  0  0  0  0  0  0  0  0  0
   44.9790   34.2250   46.6990 C   0  0  0  0  0  0  0  0  0  0  0  0
   44.4730   35.3300   46.1140 N   0  0  0  0  0  0  0  0  0  0  0  0
   44.0170   36.4220   44.5070 H   0  0  0  0  0  0  0  0  0  0  0  0
   45.8780   32.5580   43.9520 H   0  0  0  0  0  0  0  0  0  0  0  0
   44.9940   34.1050   47.7750 H   0  0  0  0  0  0  0  0  0  0  0  0
  1 27  1  0  0  0  0
  2 16  1  0  0  0  0
  2  7  1  1  0  0  0
  2  1  1  0  0  0  0
  3  2  1  0  0  0  0
  4  3  1  0  0  0  0
  4  5  1  0  0  0  0
  5 11  1  0  0  0  0
  5  6  1  0  0  0  0
  6 14  1  0  0  0  0
  6  1  1  0  0  0  0
  8  3  1  0  0  0  0
  9  3  1  0  0  0  0
 10  4  1  0  0  0  0
 12  5  1  0  0  0  0
 13  6  1  0  0  0  0
 15 21  1  0  0  0  0
 16 15  2  0  0  0  0
 16 17  1  0  0  0  0
 17 19  2  0  0  0  0
 18 17  1  0  0  0  0
 19 20  1  0  0  0  0
 19 25  1  0  0  0  0
 20 22  1  0  0  0  0
 21 20  2  0  0  0  0
 23 25  1  0  0  0  0
 23 22  1  0  0  0  0
 24 23  1  0  0  0  0
 26 31  1  0  0  0  0
 27 28  1  0  0  0  0
 27 26  2  0  0  0  0
 28 29  2  0  0  0  0
 29 30  1  0  0  0  0
 30 34  1  0  0  0  0
 31 30  2  0  0  0  0
 32 26  1  0  0  0  0
 33 28  1  0  0  0  0
M  END
>  <minimizedAffinity>
-5.23498726

>  <minimizedRMSD>
1.75407076

$$$$
