
 OpenBabel03242516163D

 45 49  0  0  1  0  0  0  0  0999 V2000
   46.3300   35.8270   42.6620 C   0  0  0  0  0  0  0  0  0  0  0  0
   46.9150   34.5710   42.4660 C   0  0  0  0  0  0  0  0  0  0  0  0
   46.4890   33.5150   43.2760 C   0  0  0  0  0  0  0  0  0  0  0  0
   45.5310   33.7630   44.2110 N   0  0  0  0  0  0  0  0  0  0  0  0
   45.0100   34.9840   44.3520 C   0  0  0  0  0  0  0  0  0  0  0  0
   45.3860   35.9980   43.6080 N   0  0  0  0  0  0  0  0  0  0  0  0
   44.0030   35.2680   45.3290 N   0  0  0  0  0  0  0  0  0  0  0  0
   46.6610   36.6460   42.0310 H   0  0  0  0  0  0  0  0  0  0  0  0
   44.2790   36.0060   46.0290 H   0  0  0  0  0  0  0  0  0  0  0  0
   43.0920   34.7280   45.2700 H   0  0  0  0  0  0  0  0  0  0  0  0
   47.9750   34.3890   41.4200 C   0  0  0  0  0  0  0  0  0  0  0  0
   48.8150   35.6260   41.1180 C   0  0  0  0  0  0  0  0  0  0  0  0
   49.3480   34.4680   41.8140 C   0  0  0  0  0  0  0  0  0  0  0  0
   49.1460   35.8240   40.0750 H   0  0  0  0  0  0  0  0  0  0  0  0
   48.4500   36.5660   41.5880 H   0  0  0  0  0  0  0  0  0  0  0  0
   50.0940   33.8470   41.2400 H   0  0  0  0  0  0  0  0  0  0  0  0
   49.8140   34.8570   42.7360 H   0  0  0  0  0  0  0  0  0  0  0  0
   47.5950   33.6440   40.1870 C   0  0  0  0  0  0  0  0  0  0  0  0
   48.1310   34.2150   38.8900 C   0  0  0  0  0  0  0  0  0  0  0  0
   47.7100   33.2380   37.8040 C   0  0  0  0  0  0  0  0  0  0  0  0
   46.3350   33.4670   37.5880 O   0  0  0  0  0  0  0  0  0  0  0  0
   45.7400   32.8780   38.7350 C   0  0  0  0  0  0  0  0  0  0  0  0
   46.0600   33.7080   39.9650 C   0  0  0  0  0  0  0  0  0  0  0  0
   47.8810   32.5950   40.2490 H   0  0  0  0  0  0  0  0  0  0  0  0
   49.2550   34.1740   38.8970 H   0  0  0  0  0  0  0  0  0  0  0  0
   47.7360   35.2260   38.6640 H   0  0  0  0  0  0  0  0  0  0  0  0
   48.2410   33.4400   36.8390 H   0  0  0  0  0  0  0  0  0  0  0  0
   47.8370   32.1950   38.1310 H   0  0  0  0  0  0  0  0  0  0  0  0
   44.6580   32.9210   38.5490 H   0  0  0  0  0  0  0  0  0  0  0  0
   46.1410   31.8690   38.9100 H   0  0  0  0  0  0  0  0  0  0  0  0
   45.5940   33.1550   40.8130 H   0  0  0  0  0  0  0  0  0  0  0  0
   45.7170   34.7440   39.9010 H   0  0  0  0  0  0  0  0  0  0  0  0
   47.0250   32.1970   43.1800 C   0  0  2  0  0  3  0  0  0  0  0  0
   46.4770   31.2000   42.5520 O   0  0  0  0  0  1  0  0  0  0  0  0
   49.2510   31.0430   42.8610 C   0  0  0  0  0  3  0  0  0  0  0  0
   48.1020   31.3210   43.5480 C   0  0  0  0  0  0  0  0  0  0  0  0
   47.9260   30.5670   44.7170 C   0  0  0  0  0  0  0  0  0  0  0  0
   47.0450   30.7170   45.3270 H   0  0  0  0  0  0  0  0  0  0  0  0
   48.7810   29.6170   45.1990 C   0  0  0  0  0  0  0  0  0  0  0  0
   49.9220   29.3700   44.4800 C   0  0  0  0  0  0  0  0  0  0  0  0
   50.1490   30.0750   43.3290 C   0  0  0  0  0  3  0  0  0  0  0  0
   50.6390   28.3720   45.1560 O   0  0  0  0  0  0  0  0  0  0  0  0
   49.7380   27.7140   46.0410 C   0  0  0  0  0  3  0  0  0  0  0  0
   50.2620   27.3540   46.9250 H   0  0  0  0  0  0  0  0  0  0  0  0
   48.7980   28.7650   46.3190 O   0  0  0  0  0  0  0  0  0  0  0  0
  1  6  1  0  0  0  0
  2  1  2  0  0  0  0
  2  3  1  0  0  0  0
  3  4  2  0  0  0  0
  4  5  1  0  0  0  0
  5  7  1  0  0  0  0
  6  5  2  0  0  0  0
  7  9  1  0  0  0  0
  8  1  1  0  0  0  0
 10  7  1  0  0  0  0
 11 13  1  0  0  0  0
 11  2  1  0  0  0  0
 12 11  1  0  0  0  0
 12 15  1  0  0  0  0
 12 13  1  0  0  0  0
 13 17  1  0  0  0  0
 14 12  1  0  0  0  0
 16 13  1  0  0  0  0
 18 24  1  0  0  0  0
 18 11  1  0  0  0  0
 19 25  1  0  0  0  0
 19 18  1  0  0  0  0
 20 28  1  0  0  0  0
 20 19  1  0  0  0  0
 21 20  1  0  0  0  0
 21 22  1  0  0  0  0
 22 30  1  0  0  0  0
 22 23  1  0  0  0  0
 23 18  1  0  0  0  0
 23 31  1  0  0  0  0
 26 19  1  0  0  0  0
 27 20  1  0  0  0  0
 29 22  1  0  0  0  0
 32 23  1  0  0  0  0
 33 34  1  1  0  0  0
 33  3  1  0  0  0  0
 33 36  1  0  0  0  0
 35 41  2  0  0  0  0
 35 36  1  0  0  0  0
 36 37  2  0  0  0  0
 37 39  1  0  0  0  0
 37 38  1  0  0  0  0
 39 45  1  0  0  0  0
 40 42  1  0  0  0  0
 40 39  2  0  0  0  0
 41 40  1  0  0  0  0
 42 43  1  0  0  0  0
 43 45  1  0  0  0  0
 43 44  1  0  0  0  0
M  END
>  <minimizedAffinity>
-5.43639088

>  <minimizedRMSD>
1.42883229

$$$$
