
     RDKit          3D

 46 51  0  0  0  0  0  0  0  0999 V2000
   45.9684   33.1673   41.6549 C   0  0  0  0  0  0  0  0  0  0  0  0
   47.1284   33.8767   41.3241 C   0  0  0  0  0  0  0  0  0  0  0  0
   48.1021   33.9636   42.2964 C   0  0  0  0  0  0  0  0  0  0  0  0
   47.8655   33.3583   43.4957 N   0  0  0  0  0  0  0  0  0  0  0  0
   46.7616   32.6886   43.7973 C   0  0  0  0  0  0  0  0  0  0  0  0
   45.7951   32.5874   42.8691 N   0  0  0  0  0  0  0  0  0  0  0  0
   46.9219   30.7593   45.3060 C   0  0  0  0  0  0  0  0  0  0  0  0
   46.6014   32.0793   45.0997 C   0  0  0  0  0  0  0  0  0  0  0  0
   46.1079   32.9021   46.1209 C   0  0  0  0  0  0  0  0  0  0  0  0
   45.9236   32.3970   47.4019 C   0  0  0  0  0  0  0  0  0  0  0  0
   45.4853   32.8695   48.5949 N   0  0  0  0  0  0  0  0  0  0  0  0
   45.5407   31.8554   49.5008 C   0  0  0  0  0  0  0  0  0  0  0  0
   46.0145   30.7656   48.8525 N   0  0  0  0  0  0  0  0  0  0  0  0
   46.2568   31.0690   47.5674 C   0  0  0  0  0  0  0  0  0  0  0  0
   46.7461   30.2282   46.5827 C   0  0  0  0  0  0  0  0  0  0  0  0
   49.3553   34.7004   42.0115 C   0  0  0  0  0  0  0  0  0  0  0  0
   49.0948   35.8230   41.2115 F   0  0  0  0  0  0  0  0  0  0  0  0
   49.9067   35.1805   43.1744 F   0  0  0  0  0  0  0  0  0  0  0  0
   50.2129   33.8540   41.3493 F   0  0  0  0  0  0  0  0  0  0  0  0
   47.2347   34.4311   40.0910 O   0  0  0  0  0  0  0  0  0  0  0  0
   47.3738   33.6824   38.9485 C   0  0  0  0  0  0  0  0  0  0  0  0
   48.3547   34.3631   38.2376 C   0  0  0  0  0  0  0  0  0  0  0  0
   48.5351   33.3470   36.7036 S   0  0  0  0  0  0  0  0  0  0  0  0
   47.2225   32.1600   37.3147 C   0  0  0  0  0  0  0  0  0  0  0  0
   46.9871   32.6420   38.2786 N   0  0  0  0  0  0  0  0  0  0  0  0
   45.1791   33.0766   40.9167 H   0  0  0  0  0  0  0  0  0  0  0  0
   47.3023   30.1210   44.5234 H   0  0  0  0  0  0  0  0  0  0  0  0
   45.8540   33.9527   45.9518 H   0  0  0  0  0  0  0  0  0  0  0  0
   45.1756   33.8709   48.6988 H   0  0  0  0  0  0  0  0  0  0  0  0
   45.2350   31.9990   50.5392 H   0  0  0  0  0  0  0  0  0  0  0  0
   46.9831   29.1942   46.7993 H   0  0  0  0  0  0  0  0  0  0  0  0
   49.0879   35.2693   38.1949 H   0  0  0  0  0  0  0  0  0  0  0  0
   45.7443   30.2698   36.6577 C   0  0  0  0  0  0  0  0  0  0  0  0
   46.8678   31.0055   36.4548 C   0  0  0  0  0  0  0  0  0  0  0  0
   47.8068   30.8066   35.4700 C   0  0  0  0  0  0  0  0  0  0  0  0
   48.6973   31.4004   35.3200 H   0  0  0  0  0  0  0  0  0  0  0  0
   47.5918   29.7443   34.5855 C   0  0  0  0  0  0  0  0  0  0  0  0
   46.4445   28.9831   34.7825 C   0  0  0  0  0  0  0  0  0  0  0  0
   45.5069   29.2110   35.7954 C   0  0  0  0  0  0  0  0  0  0  0  0
   46.4534   27.9935   33.7835 O   0  0  0  0  0  0  0  0  0  0  0  0
   47.3320   28.4071   32.7343 C   0  0  1  0  0  0  0  0  0  0  0  0
   47.8252   27.5638   32.2511 H   0  0  0  0  0  0  0  0  0  0  0  0
   48.2661   29.2033   33.4793 O   0  0  0  0  0  0  0  0  0  0  0  0
   45.0658   30.4933   37.4490 H   0  0  0  0  0  0  0  0  0  0  0  0
   44.6405   28.5693   35.8771 H   0  0  0  0  0  0  0  0  0  0  0  0
   46.7318   29.0435   32.0480 H   0  0  0  0  0  0  0  0  0  0  0  0
  1  6  2  0
  2  1  1  0
  2  3  2  0
  3  4  1  0
  4  5  2  0
  5  8  1  0
  6  5  1  0
  7 15  2  0
  8  7  1  0
  8  9  2  0
  9 10  1  0
 10 14  2  0
 10 11  1  0
 11 12  1  0
 13 12  2  0
 14 13  1  0
 15 14  1  0
 16  3  1  0
 16 18  1  0
 17 16  1  0
 19 16  1  0
 20  2  1  0
 21 20  1  0
 22 21  2  0
 23 24  1  0
 23 22  1  0
 24 25  2  0
 25 21  1  0
  1 26  1  0
  7 27  1  0
  9 28  1  0
 11 29  1  0
 12 30  1  0
 15 31  1  0
 22 32  1  0
 33 34  2  0
 34 35  1  0
 35 36  1  0
 35 37  2  0
 37 38  1  0
 38 39  2  0
 38 40  1  0
 40 41  1  0
 41 42  1  6
 41 43  1  0
 39 33  1  0
 43 37  1  0
 33 44  1  0
 39 45  1  0
 41 46  1  0
 24 34  1  0
M  ISO  8  26  14  27  14  28  14  29   9  30  14  31  14  32  14  36  16
M  ISO  1  42   8
M  END
>  <DihAtoms>  (1) 
22,23,33,32

>  <DihDeg>  (1) 
-0.005313219387950937

$$$$
