
 OpenBabel03252506413D

 42 46  0  0  1  0  0  0  0  0999 V2000
   48.9900   33.3520   40.9120 N   0  0  1  0  0  0  0  0  0  0  0  0
   50.1130   32.6050   41.4260 C   0  0  0  0  0  0  0  0  0  0  0  0
   50.3830   31.3590   40.6200 C   0  0  0  0  0  0  0  0  0  0  0  0
   49.2610   30.3940   40.9050 C   0  0  0  0  0  0  0  0  0  0  0  0
   47.9380   31.1230   40.9130 C   0  0  0  0  0  0  0  0  0  0  0  0
   48.0530   32.4580   40.2540 C   0  0  2  0  0  0  0  0  0  0  0  0
   51.0200   33.2340   41.5610 H   0  0  0  0  0  0  0  0  0  0  0  0
   49.8410   32.2430   42.4490 H   0  0  0  0  0  0  0  0  0  0  0  0
   50.4900   31.6040   39.5640 H   0  0  0  0  0  0  0  0  0  0  0  0
   51.3680   30.9790   40.9640 H   0  0  0  0  0  0  0  0  0  0  0  0
   49.4240   29.8210   41.8400 H   0  0  0  0  0  0  0  0  0  0  0  0
   49.2350   29.6440   40.0980 H   0  0  0  0  0  0  0  0  0  0  0  0
   47.1430   30.5630   40.3890 H   0  0  0  0  0  0  0  0  0  0  0  0
   47.6630   31.3090   41.9650 H   0  0  0  0  0  0  0  0  0  0  0  0
   47.0500   32.9540   40.4580 H   0  0  0  0  0  0  0  0  0  0  0  0
   48.4020   33.7650   38.3380 C   0  0  0  0  0  0  0  0  0  0  0  0
   48.1870   32.4580   38.7970 C   0  0  0  0  0  0  0  0  0  0  0  0
   48.1350   31.4670   37.8660 C   0  0  0  0  0  0  0  0  0  0  0  0
   47.9640   30.5010   38.2890 H   0  0  0  0  0  0  0  0  0  0  0  0
   48.2890   31.7370   36.5240 C   0  0  0  0  0  0  0  0  0  0  0  0
   48.5020   33.0020   36.0170 C   0  0  0  0  0  0  0  0  0  0  0  0
   48.5550   34.0140   36.9690 C   0  0  0  0  0  0  0  0  0  0  0  0
   48.6170   32.9600   34.6350 O   0  0  0  0  0  0  0  0  0  0  0  0
   48.1200   31.7070   34.2340 C   0  0  0  0  0  0  0  0  0  0  0  0
   48.8000   31.2870   33.4740 H   0  0  0  0  0  0  0  0  0  0  0  0
   48.2760   30.9120   35.4090 O   0  0  0  0  0  0  0  0  0  0  0  0
   47.1480   34.8900   41.8800 C   0  0  1  0  0  0  0  0  0  0  0  0
   48.4230   35.5730   41.8090 C   0  0  0  0  0  0  0  0  0  0  0  0
   48.4380   34.0890   42.0040 C   0  0  2  0  0  0  0  0  0  0  0  0
   46.5720   34.5640   40.9840 H   0  0  0  0  0  0  0  0  0  0  0  0
   48.6940   35.9840   40.7930 H   0  0  0  0  0  0  0  0  0  0  0  0
   48.7520   36.2550   42.6030 H   0  0  0  0  0  0  0  0  0  0  0  0
   48.6690   33.7630   43.0410 H   0  0  0  0  0  0  0  0  0  0  0  0
   45.3970   36.0720   43.2700 C   0  0  0  0  0  0  0  0  0  0  0  0
   46.2810   34.9770   43.0910 C   0  0  0  0  0  0  0  0  0  0  0  0
   46.3100   34.0050   44.0710 C   0  0  0  0  0  0  0  0  0  0  0  0
   45.4840   34.1650   45.1440 N   0  0  0  0  0  0  0  0  0  0  0  0
   44.6530   35.2130   45.2930 C   0  0  0  0  0  0  0  0  0  0  0  0
   44.6000   36.1820   44.3550 N   0  0  0  0  0  0  0  0  0  0  0  0
   45.3470   36.8550   42.5220 H   0  0  0  0  0  0  0  0  0  0  0  0
   46.9570   33.1500   43.9930 H   0  0  0  0  0  0  0  0  0  0  0  0
   44.0610   35.1880   46.2100 H   0  0  0  0  0  0  0  0  0  0  0  0
  1  2  1  1  0  0  0
  1 29  1  0  0  0  0
  2  7  1  0  0  0  0
  2  8  1  0  0  0  0
  3  4  1  0  0  0  0
  3 10  1  0  0  0  0
  3  2  1  0  0  0  0
  4  5  1  0  0  0  0
  4 11  1  0  0  0  0
  5 14  1  0  0  0  0
  6 15  1  1  0  0  0
  6  1  1  0  0  0  0
  6  5  1  0  0  0  0
  9  3  1  0  0  0  0
 12  4  1  0  0  0  0
 13  5  1  0  0  0  0
 16 17  1  0  0  0  0
 17  6  1  0  0  0  0
 18 19  1  0  0  0  0
 18 17  2  0  0  0  0
 20 18  1  0  0  0  0
 21 20  2  0  0  0  0
 21 22  1  0  0  0  0
 22 16  2  0  0  0  0
 23 21  1  0  0  0  0
 24 23  1  0  0  0  0
 24 26  1  0  0  0  0
 25 24  1  0  0  0  0
 26 20  1  0  0  0  0
 27 30  1  6  0  0  0
 27 29  1  0  0  0  0
 27 35  1  0  0  0  0
 28 27  1  0  0  0  0
 28 29  1  0  0  0  0
 28 32  1  0  0  0  0
 29 33  1  1  0  0  0
 31 28  1  0  0  0  0
 34 39  1  0  0  0  0
 35 34  2  0  0  0  0
 35 36  1  0  0  0  0
 36 37  2  0  0  0  0
 37 38  1  0  0  0  0
 38 42  1  0  0  0  0
 39 38  2  0  0  0  0
 40 34  1  0  0  0  0
 41 36  1  0  0  0  0
M  END
>  <minimizedAffinity>
-5.80470705

>  <minimizedRMSD>
1.88025761

$$$$
