
 OpenBabel03252508513D

 30 33  0  0  0  0  0  0  0  0999 V2000
   45.9220   34.2240   41.0430 C   0  0  0  0  0  0  0  0  0  0  0  0
   46.5200   34.8070   42.1540 C   0  0  0  0  0  0  0  0  0  0  0  0
   47.8770   35.1230   42.0330 C   0  0  0  0  0  0  0  0  0  0  0  0
   48.5190   34.8450   40.8540 N   0  0  0  0  0  0  0  0  0  0  0  0
   47.8950   34.2860   39.8250 C   0  0  0  0  0  0  0  0  0  0  0  0
   46.5940   33.9680   39.8990 N   0  0  0  0  0  0  0  0  0  0  0  0
   48.3690   35.5770   42.8820 H   0  0  0  0  0  0  0  0  0  0  0  0
   48.4100   34.0720   38.9020 H   0  0  0  0  0  0  0  0  0  0  0  0
   45.7460   35.0560   43.3520 C   0  0  0  0  0  0  0  0  0  0  0  0
   45.1000   36.2440   43.6000 C   0  0  0  0  0  0  0  0  0  0  0  0
   44.5060   36.0410   44.8280 C   0  0  0  0  0  0  0  0  0  0  0  0
   44.7750   34.8000   45.2980 N   0  0  0  0  0  0  0  0  0  0  0  0
   45.5270   34.2250   44.3870 N   0  0  0  0  0  0  0  0  0  0  0  0
   45.0220   37.1600   43.0350 H   0  0  0  0  0  0  0  0  0  0  0  0
   43.8810   36.7140   45.4320 H   0  0  0  0  0  0  0  0  0  0  0  0
   44.4960   34.3130   46.1740 H   0  0  0  0  0  0  0  0  0  0  0  0
   44.5790   33.8960   41.1190 O   0  0  0  0  0  0  0  0  0  0  0  0
   43.5230   34.6170   40.6370 C   0  0  0  0  0  0  0  0  0  0  0  0
   43.3020   35.8720   40.7990 O   0  0  0  0  0  0  0  0  0  0  0  0
   42.6320   32.9350   38.9620 C   0  0  0  0  0  3  0  0  0  0  0  0
   42.4300   34.0120   39.8180 C   0  0  0  0  0  0  0  0  0  0  0  0
   41.1290   34.4510   39.8240 C   0  0  0  0  0  0  0  0  0  0  0  0
   40.8690   35.2900   40.4620 H   0  0  0  0  0  0  0  0  0  0  0  0
   40.1180   33.9050   39.0790 C   0  0  0  0  0  0  0  0  0  0  0  0
   40.4120   32.8410   38.2580 C   0  0  0  0  0  0  0  0  0  0  0  0
   41.6790   32.3260   38.1790 C   0  0  0  0  0  3  0  0  0  0  0  0
   39.2300   32.4920   37.6310 O   0  0  0  0  0  0  0  0  0  0  0  0
   38.1690   33.3510   38.0210 C   0  0  0  0  0  3  0  0  0  0  0  0
   37.3510   32.8180   38.5480 H   0  0  0  0  0  0  0  0  0  0  0  0
   38.7700   34.2140   38.9610 O   0  0  0  0  0  0  0  0  0  0  0  0
  1 17  1  0  0  0  0
  1  2  1  0  0  0  0
  2  9  1  0  0  0  0
  3  2  2  0  0  0  0
  3  7  1  0  0  0  0
  4  3  1  0  0  0  0
  5  6  1  0  0  0  0
  5  4  2  0  0  0  0
  6  1  2  0  0  0  0
  8  5  1  0  0  0  0
  9 10  1  0  0  0  0
  9 13  2  0  0  0  0
 10 11  2  0  0  0  0
 11 12  1  0  0  0  0
 11 15  1  0  0  0  0
 12 16  1  0  0  0  0
 13 12  1  0  0  0  0
 14 10  1  0  0  0  0
 18 19  2  0  0  0  0
 18 17  1  0  0  0  0
 20 21  1  0  0  0  0
 21 22  2  0  0  0  0
 21 18  1  0  0  0  0
 22 23  1  0  0  0  0
 24 22  1  0  0  0  0
 25 24  2  0  0  0  0
 26 25  1  0  0  0  0
 26 20  2  0  0  0  0
 27 28  1  0  0  0  0
 27 25  1  0  0  0  0
 28 29  1  0  0  0  0
 28 30  1  0  0  0  0
 30 24  1  0  0  0  0
M  END
>  <minimizedAffinity>
-5.96726418

>  <minimizedRMSD>
1.00635159

$$$$
