
 OpenBabel03252506413D

 42 46  0  0  1  0  0  0  0  0999 V2000
   49.3280   33.3080   41.3870 N   0  0  1  0  0  0  0  0  0  0  0  0
   50.6390   33.0900   41.9510 C   0  0  0  0  0  0  0  0  0  0  0  0
   51.2360   31.7780   41.5070 C   0  0  0  0  0  0  0  0  0  0  0  0
   50.4600   30.6830   42.1920 C   0  0  0  0  0  0  0  0  0  0  0  0
   48.9820   30.9920   42.1550 C   0  0  0  0  0  0  0  0  0  0  0  0
   48.6740   32.0360   41.1330 C   0  0  2  0  0  0  0  0  0  0  0  0
   51.3240   33.9510   41.7870 H   0  0  0  0  0  0  0  0  0  0  0  0
   50.5230   33.0030   43.0600 H   0  0  0  0  0  0  0  0  0  0  0  0
   51.2280   31.7040   40.4200 H   0  0  0  0  0  0  0  0  0  0  0  0
   52.3010   31.8040   41.8210 H   0  0  0  0  0  0  0  0  0  0  0  0
   50.8180   30.4940   43.2250 H   0  0  0  0  0  0  0  0  0  0  0  0
   50.6280   29.7430   41.6430 H   0  0  0  0  0  0  0  0  0  0  0  0
   48.3700   30.1040   41.9160 H   0  0  0  0  0  0  0  0  0  0  0  0
   48.7030   31.4130   43.1360 H   0  0  0  0  0  0  0  0  0  0  0  0
   47.5770   32.2810   41.3100 H   0  0  0  0  0  0  0  0  0  0  0  0
   48.2360   30.3250   39.5890 C   0  0  0  0  0  3  0  0  0  0  0  0
   48.7500   31.6220   39.7330 C   0  0  0  0  0  0  0  0  0  0  0  0
   49.2130   32.2400   38.6120 C   0  0  0  0  0  0  0  0  0  0  0  0
   49.5930   33.2210   38.7990 H   0  0  0  0  0  0  0  0  0  0  0  0
   49.1790   31.6160   37.3850 C   0  0  0  0  0  0  0  0  0  0  0  0
   48.6850   30.3450   37.1860 C   0  0  0  0  0  0  0  0  0  0  0  0
   48.2120   29.7120   38.3310 C   0  0  0  0  0  3  0  0  0  0  0  0
   48.7810   29.9870   35.8480 O   0  0  0  0  0  0  0  0  0  0  0  0
   49.6660   30.9060   35.2570 C   0  0  0  0  0  3  0  0  0  0  0  0
   49.2490   31.2200   34.2850 H   0  0  0  0  0  0  0  0  0  0  0  0
   49.5840   32.0340   36.1250 O   0  0  0  0  0  0  0  0  0  0  0  0
   47.2340   34.7130   41.9700 C   0  0  1  0  0  0  0  0  0  0  0  0
   48.3950   35.5540   41.7650 C   0  0  0  0  0  0  0  0  0  0  0  0
   48.6220   34.1680   42.2830 C   0  0  2  0  0  0  0  0  0  0  0  0
   46.7560   34.1150   41.1610 H   0  0  0  0  0  0  0  0  0  0  0  0
   48.6480   35.7730   40.6860 H   0  0  0  0  0  0  0  0  0  0  0  0
   48.5810   36.4350   42.3930 H   0  0  0  0  0  0  0  0  0  0  0  0
   48.8520   34.1140   43.3690 H   0  0  0  0  0  0  0  0  0  0  0  0
   45.4940   36.0830   43.1910 C   0  0  0  0  0  0  0  0  0  0  0  0
   46.3090   34.9240   43.1200 C   0  0  0  0  0  0  0  0  0  0  0  0
   46.2150   34.0060   44.1480 C   0  0  0  0  0  0  0  0  0  0  0  0
   45.3430   34.2790   45.1610 N   0  0  0  0  0  0  0  0  0  0  0  0
   44.5800   35.3870   45.2070 C   0  0  0  0  0  0  0  0  0  0  0  0
   44.6470   36.3040   44.2200 N   0  0  0  0  0  0  0  0  0  0  0  0
   45.5420   36.8260   42.4030 H   0  0  0  0  0  0  0  0  0  0  0  0
   46.8040   33.1070   44.1520 H   0  0  0  0  0  0  0  0  0  0  0  0
   43.9380   35.4510   46.0870 H   0  0  0  0  0  0  0  0  0  0  0  0
  1  2  1  1  0  0  0
  1 29  1  0  0  0  0
  2  8  1  0  0  0  0
  3 10  1  0  0  0  0
  3  2  1  0  0  0  0
  3  4  1  0  0  0  0
  4 11  1  0  0  0  0
  5  4  1  0  0  0  0
  5 14  1  0  0  0  0
  6 15  1  1  0  0  0
  6  1  1  0  0  0  0
  6  5  1  0  0  0  0
  7  2  1  0  0  0  0
  9  3  1  0  0  0  0
 12  4  1  0  0  0  0
 13  5  1  0  0  0  0
 16 17  1  0  0  0  0
 17  6  1  0  0  0  0
 18 19  1  0  0  0  0
 18 17  2  0  0  0  0
 20 18  1  0  0  0  0
 21 20  2  0  0  0  0
 21 22  1  0  0  0  0
 22 16  2  0  0  0  0
 23 21  1  0  0  0  0
 24 23  1  0  0  0  0
 24 26  1  0  0  0  0
 25 24  1  0  0  0  0
 26 20  1  0  0  0  0
 27 30  1  6  0  0  0
 27 29  1  0  0  0  0
 27 35  1  0  0  0  0
 28 27  1  0  0  0  0
 28 29  1  0  0  0  0
 28 32  1  0  0  0  0
 29 33  1  1  0  0  0
 31 28  1  0  0  0  0
 34 39  1  0  0  0  0
 35 34  2  0  0  0  0
 35 36  1  0  0  0  0
 36 41  1  0  0  0  0
 36 37  2  0  0  0  0
 37 38  1  0  0  0  0
 38 42  1  0  0  0  0
 39 38  2  0  0  0  0
 40 34  1  0  0  0  0
M  END
>  <minimizedAffinity>
-5.17550707

>  <minimizedRMSD>
0.952791572

$$$$
