
 OpenBabel03242520413D

 41 45  0  0  1  0  0  0  0  0999 V2000
   45.8190   33.4880   45.7160 C   0  0  0  0  0  0  0  0  0  0  0  0
   46.6510   33.6490   44.5770 C   0  0  0  0  0  0  0  0  0  0  0  0
   47.3600   32.5060   44.1010 C   0  0  0  0  0  0  0  0  0  0  0  0
   47.2080   31.3130   44.7540 N   0  0  0  0  0  0  0  0  0  0  0  0
   46.3970   31.2230   45.8380 C   0  0  0  0  0  0  0  0  0  0  0  0
   45.7170   32.2980   46.3060 N   0  0  0  0  0  0  0  0  0  0  0  0
   46.3010   29.9670   46.4470 N   0  0  0  0  0  0  0  0  0  0  0  0
   47.4580   29.3190   46.9710 C   0  0  2  0  0  0  0  0  0  0  0  0
   47.2650   27.8920   47.3450 C   0  0  0  0  0  0  0  0  0  0  0  0
   45.9750   27.5090   47.7730 N   0  0  0  0  0  0  0  0  0  0  0  0
   45.0390   28.5740   47.8650 C   0  0  0  0  0  0  0  0  0  0  0  0
   45.0160   29.3110   46.5510 C   0  0  0  0  0  0  0  0  0  0  0  0
   45.3220   34.3870   46.0120 H   0  0  0  0  0  0  0  0  0  0  0  0
   46.8220   34.5380   44.0150 H   0  0  0  0  0  0  0  0  0  0  0  0
   48.0060   32.5770   43.2370 H   0  0  0  0  0  0  0  0  0  0  0  0
   48.1930   29.2740   46.1080 H   0  0  0  0  0  0  0  0  0  0  0  0
   47.9790   27.6810   48.1930 H   0  0  0  0  0  0  0  0  0  0  0  0
   47.5750   27.1830   46.5490 H   0  0  0  0  0  0  0  0  0  0  0  0
   45.9480   26.8110   48.5470 H   0  0  0  0  0  0  0  0  0  0  0  0
   44.0200   28.0890   47.9620 H   0  0  0  0  0  0  0  0  0  0  0  0
   45.1390   29.2240   48.7350 H   0  0  0  0  0  0  0  0  0  0  0  0
   44.9870   28.5540   45.7600 H   0  0  0  0  0  0  0  0  0  0  0  0
   44.1900   30.0510   46.4770 H   0  0  0  0  0  0  0  0  0  0  0  0
   48.1060   30.1210   48.0440 C   0  0  0  0  0  0  0  0  0  0  0  0
   47.6170   30.7520   49.1610 C   0  0  0  0  0  0  0  0  0  0  0  0
   48.5860   31.3550   49.8570 N   0  0  0  0  0  0  0  0  0  0  0  0
   49.7070   31.1120   49.1870 C   0  0  0  0  0  0  0  0  0  0  0  0
   49.4240   30.3730   48.1000 N   0  0  0  0  0  0  0  0  0  0  0  0
   46.5740   30.7620   49.4400 H   0  0  0  0  0  0  0  0  0  0  0  0
   48.5180   31.9060   50.7390 H   0  0  0  0  0  0  0  0  0  0  0  0
   52.2150   30.9220   48.9340 C   0  0  0  0  0  3  0  0  0  0  0  0
   51.0910   31.5170   49.4700 C   0  0  0  0  0  0  0  0  0  0  0  0
   51.2710   32.5760   50.3370 C   0  0  0  0  0  0  0  0  0  0  0  0
   50.4150   33.0660   50.7750 H   0  0  0  0  0  0  0  0  0  0  0  0
   52.5260   33.0450   50.6770 C   0  0  0  0  0  0  0  0  0  0  0  0
   53.6620   32.4460   50.1370 C   0  0  0  0  0  0  0  0  0  0  0  0
   53.4700   31.3890   49.2710 C   0  0  0  0  0  3  0  0  0  0  0  0
   54.8020   33.1010   50.6350 O   0  0  0  0  0  0  0  0  0  0  0  0
   54.3350   33.7080   51.8470 C   0  0  0  0  0  3  0  0  0  0  0  0
   54.9980   34.5480   52.0530 H   0  0  0  0  0  0  0  0  0  0  0  0
   53.0090   34.0640   51.5010 O   0  0  0  0  0  0  0  0  0  0  0  0
  1 13  1  0  0  0  0
  1  6  1  0  0  0  0
  2  1  2  0  0  0  0
  3  2  1  0  0  0  0
  3  4  2  0  0  0  0
  4  5  1  0  0  0  0
  5  6  2  0  0  0  0
  5  7  1  0  0  0  0
  7 12  1  0  0  0  0
  7  8  1  0  0  0  0
  8 16  1  6  0  0  0
  8  9  1  0  0  0  0
  8 24  1  0  0  0  0
  9 10  1  0  0  0  0
  9 17  1  0  0  0  0
 10 11  1  0  0  0  0
 10 19  1  0  0  0  0
 11 20  1  0  0  0  0
 11 21  1  0  0  0  0
 12 11  1  0  0  0  0
 14  2  1  0  0  0  0
 15  3  1  0  0  0  0
 18  9  1  0  0  0  0
 22 12  1  0  0  0  0
 23 12  1  0  0  0  0
 24 28  1  0  0  0  0
 24 25  2  0  0  0  0
 25 29  1  0  0  0  0
 25 26  1  0  0  0  0
 26 30  1  0  0  0  0
 27 32  1  0  0  0  0
 27 26  1  0  0  0  0
 28 27  2  0  0  0  0
 31 37  2  0  0  0  0
 31 32  1  0  0  0  0
 32 33  2  0  0  0  0
 33 35  1  0  0  0  0
 33 34  1  0  0  0  0
 35 41  1  0  0  0  0
 36 38  1  0  0  0  0
 36 35  2  0  0  0  0
 37 36  1  0  0  0  0
 38 39  1  0  0  0  0
 39 40  1  0  0  0  0
 41 39  1  0  0  0  0
M  END
>  <minimizedAffinity>
-5.35366535

>  <minimizedRMSD>
0.612091422

$$$$
