REMARK  Name = 
REMARK  4 active torsions:
REMARK  status: ('A' for Active; 'I' for Inactive)
REMARK    1  A    between atoms: C_1  and  O_12
REMARK    2  A    between atoms: C_2  and  C_7
REMARK    3  A    between atoms: O_12  and  C_13
REMARK    4  A    between atoms: C_20  and  C_36
REMARK                            x       y       z     vdW  Elec       q    Type
REMARK                         _______ _______ _______ _____ _____    ______ ____
ROOT
ATOM      1  C   UNL     1      43.383  34.462  40.767  0.00  0.00    +0.000 C 
ATOM      2  O   UNL     1      43.300  35.716  40.542  0.00  0.00    +0.000 OA
ATOM      3  N   UNL     1      42.041  34.052  40.397  0.00  0.00    +0.000 N 
ATOM      4  C   UNL     1      41.686  34.321  39.019  0.00  0.00    +0.000 C 
ATOM      5  C   UNL     1      40.848  35.617  39.073  0.00  0.00    +0.000 C 
ATOM      6  C   UNL     1      40.034  35.548  40.374  0.00  0.00    +0.000 C 
ATOM      7  C   UNL     1      39.719  34.115  40.741  0.00  0.00    +0.000 C 
ATOM      8  C   UNL     1      41.015  33.421  41.197  0.00  0.00    +0.000 C 
ATOM      9  H   UNL     1      42.548  34.552  38.371  0.00  0.00    +0.000 HD
ATOM     10  H   UNL     1      41.097  33.519  38.545  0.00  0.00    +0.000 HD
ATOM     11  H   UNL     1      41.539  36.482  39.194  0.00  0.00    +0.000 HD
ATOM     12  H   UNL     1      40.228  35.751  38.187  0.00  0.00    +0.000 HD
ATOM     13  H   UNL     1      39.060  36.030  40.149  0.00  0.00    +0.000 HD
ATOM     14  H   UNL     1      40.561  36.018  41.221  0.00  0.00    +0.000 HD
ATOM     15  H   UNL     1      39.390  33.623  39.791  0.00  0.00    +0.000 HD
ATOM     16  H   UNL     1      38.972  34.133  41.532  0.00  0.00    +0.000 HD
ATOM     17  H   UNL     1      41.234  33.633  42.248  0.00  0.00    +0.000 HD
ENDROOT
BRANCH   8  19
ATOM     18  C   UNL     1      41.090  31.011  41.977  0.00  0.00    +0.000 A 
ATOM     19  C   UNL     1      40.912  31.956  40.991  0.00  0.00    +0.000 A 
ATOM     20  C   UNL     1      40.613  31.513  39.712  0.00  0.00    +0.000 A 
ATOM     21  H   UNL     1      40.451  32.177  38.851  0.00  0.00    +0.000 HD
ATOM     22  C   UNL     1      40.496  30.168  39.420  0.00  0.00    +0.000 A 
ATOM     23  C   UNL     1      40.680  29.226  40.431  0.00  0.00    +0.000 A 
ATOM     24  C   UNL     1      40.977  29.649  41.707  0.00  0.00    +0.000 A 
ATOM     25  O   UNL     1      40.506  27.948  39.871  0.00  0.00    +0.000 OA
ATOM     26  C   UNL     1      39.651  28.168  38.740  0.00  0.00    +0.000 C 
ATOM     27  H   UNL     1      39.702  27.364  38.006  0.00  0.00    +0.000 HD
ATOM     28  O   UNL     1      40.214  29.403  38.273  0.00  0.00    +0.000 OA
ENDBRANCH   8  19
BRANCH   1  29
ATOM     29  O   UNL     1      44.472  33.790  41.226  0.00  0.00    +0.000 OA
BRANCH  29  30
ATOM     30  C   UNL     1      45.794  34.133  41.082  0.00  0.00    +0.000 A 
ATOM     31  C   UNL     1      46.423  34.758  42.157  0.00  0.00    +0.000 A 
ATOM     32  C   UNL     1      47.773  35.098  41.985  0.00  0.00    +0.000 A 
ATOM     33  N   UNL     1      48.381  34.801  40.792  0.00  0.00    +0.000 NA
ATOM     34  C   UNL     1      47.724  34.202  39.801  0.00  0.00    +0.000 A 
ATOM     35  N   UNL     1      46.435  33.864  39.933  0.00  0.00    +0.000 NA
ATOM     36  H   UNL     1      48.262  35.583  42.816  0.00  0.00    +0.000 HD
ATOM     37  H   UNL     1      48.225  33.973  38.859  0.00  0.00    +0.000 HD
BRANCH  31  38
ATOM     38  C   UNL     1      45.688  35.027  43.374  0.00  0.00    +0.000 A 
ATOM     39  C   UNL     1      45.039  36.240  43.610  0.00  0.00    +0.000 A 
ATOM     40  C   UNL     1      44.483  36.071  44.851  0.00  0.00    +0.000 A 
ATOM     41  N   UNL     1      44.768  34.841  45.346  0.00  0.00    +0.000 N 
ATOM     42  N   UNL     1      45.495  34.242  44.429  0.00  0.00    +0.000 NA
ATOM     43  H   UNL     1      45.006  37.091  42.944  0.00  0.00    +0.000 HD
ATOM     44  H   UNL     1      43.893  36.850  45.342  0.00  0.00    +0.000 HD
ATOM     45  H   UNL     1      44.422  34.533  46.291  0.00  0.00    +0.000 HD
ENDBRANCH  31  38
ENDBRANCH  29  30
ENDBRANCH   1  29
TORSDOF 4
