
 OpenBabel03242516163D

 45 49  0  0  1  0  0  0  0  0999 V2000
   46.2160   35.6410   42.6350 C   0  0  0  0  0  0  0  0  0  0  0  0
   46.6760   34.3440   42.3790 C   0  0  0  0  0  0  0  0  0  0  0  0
   46.2600   33.3210   43.2340 C   0  0  0  0  0  0  0  0  0  0  0  0
   45.4320   33.6380   44.2680 N   0  0  0  0  0  0  0  0  0  0  0  0
   45.0270   34.8950   44.4610 C   0  0  0  0  0  0  0  0  0  0  0  0
   45.3980   35.8800   43.6780 N   0  0  0  0  0  0  0  0  0  0  0  0
   44.1580   35.2510   45.5420 N   0  0  0  0  0  0  0  0  0  0  0  0
   46.5400   36.4350   41.9690 H   0  0  0  0  0  0  0  0  0  0  0  0
   44.5660   35.9610   46.2050 H   0  0  0  0  0  0  0  0  0  0  0  0
   43.2070   34.7850   45.5840 H   0  0  0  0  0  0  0  0  0  0  0  0
   47.5980   34.0860   41.2240 C   0  0  0  0  0  0  0  0  0  0  0  0
   48.4810   35.2600   40.8160 C   0  0  0  0  0  0  0  0  0  0  0  0
   49.0080   34.0720   41.4620 C   0  0  0  0  0  0  0  0  0  0  0  0
   48.7060   35.4310   39.7410 H   0  0  0  0  0  0  0  0  0  0  0  0
   48.2360   36.2250   41.3130 H   0  0  0  0  0  0  0  0  0  0  0  0
   49.6410   33.3980   40.8160 H   0  0  0  0  0  0  0  0  0  0  0  0
   49.6000   34.4300   42.3220 H   0  0  0  0  0  0  0  0  0  0  0  0
   47.0330   33.3640   40.0500 C   0  0  0  0  0  0  0  0  0  0  0  0
   47.5770   33.7890   38.7010 C   0  0  0  0  0  0  0  0  0  0  0  0
   46.9430   32.8500   37.6870 C   0  0  0  0  0  0  0  0  0  0  0  0
   45.6120   33.2910   37.5300 O   0  0  0  0  0  0  0  0  0  0  0  0
   44.9970   32.8530   38.7320 C   0  0  0  0  0  0  0  0  0  0  0  0
   45.5180   33.6690   39.9020 C   0  0  0  0  0  0  0  0  0  0  0  0
   47.1500   32.2850   40.1480 H   0  0  0  0  0  0  0  0  0  0  0  0
   48.6780   33.5650   38.6530 H   0  0  0  0  0  0  0  0  0  0  0  0
   47.3380   34.8400   38.4460 H   0  0  0  0  0  0  0  0  0  0  0  0
   47.4430   32.9250   36.6870 H   0  0  0  0  0  0  0  0  0  0  0  0
   46.9190   31.8140   38.0560 H   0  0  0  0  0  0  0  0  0  0  0  0
   43.9280   33.0650   38.5990 H   0  0  0  0  0  0  0  0  0  0  0  0
   45.2420   31.8000   38.9350 H   0  0  0  0  0  0  0  0  0  0  0  0
   45.0180   33.2330   40.7990 H   0  0  0  0  0  0  0  0  0  0  0  0
   45.3430   34.7430   39.8060 H   0  0  0  0  0  0  0  0  0  0  0  0
   46.6760   31.9650   43.0840 C   0  0  2  0  0  3  0  0  0  0  0  0
   45.8970   30.9250   43.1080 O   0  0  0  0  0  1  0  0  0  0  0  0
   48.9330   30.9630   43.6270 C   0  0  0  0  0  3  0  0  0  0  0  0
   47.7880   31.0770   42.8890 C   0  0  0  0  0  0  0  0  0  0  0  0
   47.7580   30.2790   41.7370 C   0  0  0  0  0  0  0  0  0  0  0  0
   46.8910   30.3020   41.0880 H   0  0  0  0  0  0  0  0  0  0  0  0
   48.7440   29.4340   41.3150 C   0  0  0  0  0  0  0  0  0  0  0  0
   49.8750   29.3480   42.0860 C   0  0  0  0  0  0  0  0  0  0  0  0
   49.9640   30.1030   43.2240 C   0  0  0  0  0  3  0  0  0  0  0  0
   50.7380   28.4310   41.4680 O   0  0  0  0  0  0  0  0  0  0  0  0
   50.3210   28.2860   40.1140 C   0  0  0  0  0  3  0  0  0  0  0  0
   50.5390   27.2840   39.7510 H   0  0  0  0  0  0  0  0  0  0  0  0
   48.9160   28.5660   40.2210 O   0  0  0  0  0  0  0  0  0  0  0  0
  1  6  1  0  0  0  0
  2  1  2  0  0  0  0
  2  3  1  0  0  0  0
  3  4  2  0  0  0  0
  4  5  1  0  0  0  0
  5  7  1  0  0  0  0
  6  5  2  0  0  0  0
  7 10  1  0  0  0  0
  7  9  1  0  0  0  0
  8  1  1  0  0  0  0
 11 13  1  0  0  0  0
 11  2  1  0  0  0  0
 12 11  1  0  0  0  0
 12 15  1  0  0  0  0
 12 13  1  0  0  0  0
 13 17  1  0  0  0  0
 14 12  1  0  0  0  0
 16 13  1  0  0  0  0
 18 24  1  0  0  0  0
 18 11  1  0  0  0  0
 19 18  1  0  0  0  0
 20 28  1  0  0  0  0
 20 19  1  0  0  0  0
 21 20  1  0  0  0  0
 21 22  1  0  0  0  0
 22 30  1  0  0  0  0
 22 23  1  0  0  0  0
 23 18  1  0  0  0  0
 23 31  1  0  0  0  0
 25 19  1  0  0  0  0
 26 19  1  0  0  0  0
 27 20  1  0  0  0  0
 29 22  1  0  0  0  0
 32 23  1  0  0  0  0
 33 34  1  1  0  0  0
 33  3  1  0  0  0  0
 36 33  1  0  0  0  0
 36 35  2  0  0  0  0
 37 36  1  0  0  0  0
 38 37  1  0  0  0  0
 39 37  2  0  0  0  0
 39 40  1  0  0  0  0
 40 41  2  0  0  0  0
 41 35  1  0  0  0  0
 42 40  1  0  0  0  0
 43 45  1  0  0  0  0
 43 42  1  0  0  0  0
 44 43  1  0  0  0  0
 45 39  1  0  0  0  0
M  END
>  <minimizedAffinity>
-4.83570147

>  <minimizedRMSD>
1.67483366

$$$$
