
 OpenBabel03242516243D

 45 50  0  0  0  0  0  0  0  0999 V2000
   49.7720   30.1800   49.4140 C   0  0  0  0  0  0  0  0  0  0  0  0
   50.0080   31.3500   50.0630 N   0  0  0  0  0  0  0  0  0  0  0  0
   50.6700   31.4180   51.2260 C   0  0  0  0  0  0  0  0  0  0  0  0
   51.1130   30.2670   51.7610 N   0  0  0  0  0  0  0  0  0  0  0  0
   50.9270   29.0760   51.1940 C   0  0  0  0  0  0  0  0  0  0  0  0
   51.3760   27.8800   51.7430 C   0  0  0  0  0  0  0  0  0  0  0  0
   51.1490   26.6770   51.1130 C   0  0  0  0  0  0  0  0  0  0  0  0
   50.4590   26.6020   49.8970 C   0  0  0  0  0  0  0  0  0  0  0  0
   50.0280   27.8130   49.3820 C   0  0  0  0  0  0  0  0  0  0  0  0
   50.2430   29.0210   49.9940 C   0  0  0  0  0  0  0  0  0  0  0  0
   50.8600   32.3310   51.7430 H   0  0  0  0  0  0  0  0  0  0  0  0
   51.9050   27.9840   52.6830 H   0  0  0  0  0  0  0  0  0  0  0  0
   51.5520   25.8350   51.6520 H   0  0  0  0  0  0  0  0  0  0  0  0
   50.3450   25.6230   49.5080 H   0  0  0  0  0  0  0  0  0  0  0  0
   50.1130   27.5950   46.9240 C   0  0  0  0  0  0  0  0  0  0  0  0
   49.3650   27.5820   48.1060 C   0  0  0  0  0  0  0  0  0  0  0  0
   47.9920   27.3750   47.9060 C   0  0  0  0  0  0  0  0  0  0  0  0
   47.4000   27.3630   48.8060 H   0  0  0  0  0  0  0  0  0  0  0  0
   47.4770   27.2040   46.6420 C   0  0  0  0  0  0  0  0  0  0  0  0
   48.2650   27.2260   45.5250 C   0  0  0  0  0  0  0  0  0  0  0  0
   49.6160   27.4240   45.6490 C   0  0  0  0  0  0  0  0  0  0  0  0
   47.4230   27.0220   44.4290 O   0  0  0  0  0  0  0  0  0  0  0  0
   46.0850   27.3430   44.8360 C   0  0  0  0  0  0  0  0  0  0  0  0
   45.3320   26.7450   44.3190 H   0  0  0  0  0  0  0  0  0  0  0  0
   46.1650   26.9880   46.2240 O   0  0  0  0  0  0  0  0  0  0  0  0
   48.8830   30.0580   47.8880 S   0  0  0  0  0  0  0  0  0  0  0  0
   46.0360   32.7200   46.9090 C   0  0  0  0  0  0  0  0  0  0  0  0
   47.1500   31.9270   46.9210 C   0  0  0  0  0  0  0  0  0  0  0  0
   47.4090   31.0500   47.9550 C   0  0  0  0  0  0  0  0  0  0  0  0
   46.5240   30.9580   49.0240 C   0  0  0  0  0  0  0  0  0  0  0  0
   45.4170   31.7320   49.0350 C   0  0  0  0  0  0  0  0  0  0  0  0
   45.1880   32.5960   47.9870 C   0  0  0  0  0  0  0  0  0  0  0  0
   47.8300   32.0090   46.0820 H   0  0  0  0  0  0  0  0  0  0  0  0
   46.7930   30.2490   49.7980 H   0  0  0  0  0  0  0  0  0  0  0  0
   44.7160   31.6730   49.8580 H   0  0  0  0  0  0  0  0  0  0  0  0
   44.2830   33.2040   48.0300 H   0  0  0  0  0  0  0  0  0  0  0  0
   44.5600   35.5070   45.0470 C   0  0  0  0  0  0  0  0  0  0  0  0
   45.2110   35.4350   43.8080 C   0  0  0  0  0  0  0  0  0  0  0  0
   46.1590   34.4370   43.5950 C   0  0  0  0  0  0  0  0  0  0  0  0
   46.4320   33.5520   44.5940 N   0  0  0  0  0  0  0  0  0  0  0  0
   45.7750   33.6470   45.8030 C   0  0  0  0  0  0  0  0  0  0  0  0
   44.8540   34.6150   46.0160 N   0  0  0  0  0  0  0  0  0  0  0  0
   43.8200   36.2740   45.2380 H   0  0  0  0  0  0  0  0  0  0  0  0
   44.9630   36.1540   43.0540 H   0  0  0  0  0  0  0  0  0  0  0  0
   46.6760   34.3590   42.6460 H   0  0  0  0  0  0  0  0  0  0  0  0
  1 10  2  0  0  0  0
  1  2  1  0  0  0  0
  2  3  2  0  0  0  0
  3 11  1  0  0  0  0
  3  4  1  0  0  0  0
  5  6  1  0  0  0  0
  5  4  2  0  0  0  0
  6 12  1  0  0  0  0
  7 13  1  0  0  0  0
  7  6  2  0  0  0  0
  8  7  1  0  0  0  0
  9  8  2  0  0  0  0
  9 10  1  0  0  0  0
 10  5  1  0  0  0  0
 14  8  1  0  0  0  0
 15 16  1  0  0  0  0
 16  9  1  0  0  0  0
 17 16  2  0  0  0  0
 17 18  1  0  0  0  0
 19 17  1  0  0  0  0
 20 21  1  0  0  0  0
 20 19  2  0  0  0  0
 21 15  2  0  0  0  0
 22 23  1  0  0  0  0
 22 20  1  0  0  0  0
 23 25  1  0  0  0  0
 24 23  1  0  0  0  0
 25 19  1  0  0  0  0
 26 29  1  0  0  0  0
 26  1  1  0  0  0  0
 27 28  2  0  0  0  0
 27 32  1  0  0  0  0
 28 29  1  0  0  0  0
 29 30  2  0  0  0  0
 30 31  1  0  0  0  0
 30 34  1  0  0  0  0
 31 35  1  0  0  0  0
 32 36  1  0  0  0  0
 32 31  2  0  0  0  0
 33 28  1  0  0  0  0
 37 43  1  0  0  0  0
 37 42  1  0  0  0  0
 38 37  2  0  0  0  0
 39 38  1  0  0  0  0
 39 40  2  0  0  0  0
 40 41  1  0  0  0  0
 41 42  2  0  0  0  0
 41 27  1  0  0  0  0
 44 38  1  0  0  0  0
 45 39  1  0  0  0  0
M  END
>  <minimizedAffinity>
-6.65797281

>  <minimizedRMSD>
0.851836681

$$$$
