
 OpenBabel03252500323D

 45 49  0  0  1  0  0  0  0  0999 V2000
   45.9680   31.5950   47.1730 N   0  0  0  0  0  0  0  0  0  0  0  0
   46.5490   32.4780   48.1280 C   0  0  0  0  0  0  0  0  0  0  0  0
   48.0000   32.1130   48.4090 C   0  0  0  0  0  0  0  0  0  0  0  0
   47.9740   30.7580   49.0810 C   0  0  0  0  0  0  0  0  0  0  0  0
   47.3940   29.7990   48.0470 C   0  0  0  0  0  0  0  0  0  0  0  0
   46.0350   30.2670   47.5530 C   0  0  2  0  0  0  0  0  0  0  0  0
   46.0220   32.1840   49.0920 H   0  0  0  0  0  0  0  0  0  0  0  0
   46.3330   33.5290   48.0600 H   0  0  0  0  0  0  0  0  0  0  0  0
   48.5380   32.0240   47.4460 H   0  0  0  0  0  0  0  0  0  0  0  0
   48.4410   32.8970   49.0610 H   0  0  0  0  0  0  0  0  0  0  0  0
   49.0110   30.4480   49.2670 H   0  0  0  0  0  0  0  0  0  0  0  0
   47.3480   30.7820   49.9840 H   0  0  0  0  0  0  0  0  0  0  0  0
   48.1120   29.6740   47.2270 H   0  0  0  0  0  0  0  0  0  0  0  0
   47.2790   28.8260   48.5670 H   0  0  0  0  0  0  0  0  0  0  0  0
   45.4440   30.2370   48.5360 H   0  0  0  0  0  0  0  0  0  0  0  0
   44.1380   28.9650   46.4310 C   0  0  0  0  0  3  0  0  0  0  0  0
   45.4560   29.2160   46.7340 C   0  0  0  0  0  0  0  0  0  0  0  0
   46.2720   28.2490   46.1210 C   0  0  0  0  0  0  0  0  0  0  0  0
   47.3650   28.2980   46.2590 H   0  0  0  0  0  0  0  0  0  0  0  0
   45.8610   27.2100   45.3420 C   0  0  0  0  0  0  0  0  0  0  0  0
   44.5260   27.0560   45.1080 C   0  0  0  0  0  0  0  0  0  0  0  0
   43.6330   27.9450   45.6580 C   0  0  0  0  0  3  0  0  0  0  0  0
   44.3410   25.9520   44.3040 O   0  0  0  0  0  0  0  0  0  0  0  0
   45.5850   25.6250   43.7090 C   0  0  0  0  0  3  0  0  0  0  0  0
   45.7270   26.0490   42.7060 H   0  0  0  0  0  0  0  0  0  0  0  0
   46.4980   26.1790   44.6670 O   0  0  0  0  0  0  0  0  0  0  0  0
   46.0190   32.0240   45.8290 C   0  0  0  0  0  0  0  0  0  0  0  0
   46.9290   31.5840   45.3170 H   0  0  0  0  0  0  0  0  0  0  0  0
   45.1550   31.7300   45.2090 H   0  0  0  0  0  0  0  0  0  0  0  0
   46.1010   34.2570   44.4830 C   0  0  1  0  0  0  0  0  0  0  0  0
   45.0940   34.3950   45.4690 C   0  0  0  0  0  0  0  0  0  0  0  0
   46.2200   33.4980   45.8210 C   0  0  1  0  0  0  0  0  0  0  0  0
   46.8440   35.0830   44.3220 H   0  0  0  0  0  0  0  0  0  0  0  0
   44.1120   33.8790   45.3130 H   0  0  0  0  0  0  0  0  0  0  0  0
   44.9250   35.3580   46.0140 H   0  0  0  0  0  0  0  0  0  0  0  0
   47.1210   33.8320   46.3540 H   0  0  0  0  0  0  0  0  0  0  0  0
   44.6850   33.1230   42.7760 C   0  0  0  0  0  0  0  0  0  0  0  0
   45.9910   33.4360   43.2500 C   0  0  0  0  0  0  0  0  0  0  0  0
   47.0660   32.9610   42.5450 C   0  0  0  0  0  0  0  0  0  0  0  0
   46.8130   32.2130   41.4260 N   0  0  0  0  0  0  0  0  0  0  0  0
   45.5720   31.9280   40.9920 C   0  0  0  0  0  0  0  0  0  0  0  0
   44.4710   32.3820   41.6650 N   0  0  0  0  0  0  0  0  0  0  0  0
   43.8390   33.4900   43.3220 H   0  0  0  0  0  0  0  0  0  0  0  0
   48.0420   33.1950   42.8990 H   0  0  0  0  0  0  0  0  0  0  0  0
   45.4300   31.3300   40.0950 H   0  0  0  0  0  0  0  0  0  0  0  0
  1  6  1  0  0  0  0
  1  2  1  0  0  0  0
  2  3  1  0  0  0  0
  2  7  1  0  0  0  0
  3 10  1  0  0  0  0
  3  4  1  0  0  0  0
  4 11  1  0  0  0  0
  4 12  1  0  0  0  0
  5 14  1  0  0  0  0
  5  4  1  0  0  0  0
  6  5  1  0  0  0  0
  6 15  1  1  0  0  0
  8  2  1  0  0  0  0
  9  3  1  0  0  0  0
 13  5  1  0  0  0  0
 16 17  1  0  0  0  0
 17  6  1  0  0  0  0
 18 19  1  0  0  0  0
 18 17  2  0  0  0  0
 20 18  1  0  0  0  0
 21 20  2  0  0  0  0
 21 22  1  0  0  0  0
 22 16  2  0  0  0  0
 23 21  1  0  0  0  0
 24 23  1  0  0  0  0
 24 26  1  0  0  0  0
 25 24  1  0  0  0  0
 26 20  1  0  0  0  0
 27  1  1  0  0  0  0
 28 27  1  0  0  0  0
 29 27  1  0  0  0  0
 30 33  1  6  0  0  0
 30 31  1  0  0  0  0
 30 32  1  0  0  0  0
 31 32  1  0  0  0  0
 31 35  1  0  0  0  0
 32 27  1  0  0  0  0
 32 36  1  1  0  0  0
 34 31  1  0  0  0  0
 37 38  1  0  0  0  0
 37 43  1  0  0  0  0
 38 30  1  0  0  0  0
 39 44  1  0  0  0  0
 39 38  2  0  0  0  0
 40 39  1  0  0  0  0
 41 40  2  0  0  0  0
 41 42  1  0  0  0  0
 42 37  2  0  0  0  0
 45 41  1  0  0  0  0
M  END
>  <minimizedAffinity>
-4.23864555

>  <minimizedRMSD>
1.08743167

$$$$
