
 OpenBabel03242523393D

 21 23  0  0  0  0  0  0  0  0999 V2000
   36.9290   31.2260   40.6400 C   0  0  0  0  0  3  0  0  0  0  0  0
   37.9090   30.5010   41.2750 C   0  0  0  0  0  0  0  0  0  0  0  0
   39.2230   30.9530   41.4360 C   0  0  0  0  0  0  0  0  0  0  0  0
   39.9710   30.3810   41.9280 H   0  0  0  0  0  0  0  0  0  0  0  0
   39.4600   32.2130   40.8930 C   0  0  0  0  0  0  0  0  0  0  0  0
   38.5300   32.9980   40.2440 C   0  0  0  0  0  0  0  0  0  0  0  0
   37.2600   32.4510   40.1420 C   0  0  0  0  0  3  0  0  0  0  0  0
   39.1860   34.1610   39.8700 O   0  0  0  0  0  0  0  0  0  0  0  0
   40.5600   34.0150   40.1150 C   0  0  0  0  0  3  0  0  0  0  0  0
   40.9650   34.9080   40.6390 H   0  0  0  0  0  0  0  0  0  0  0  0
   40.6980   32.8830   40.9270 O   0  0  0  0  0  0  0  0  0  0  0  0
   37.1530   27.8020   43.6590 C   0  0  0  0  0  0  0  0  0  0  0  0
   36.9810   26.6820   42.8080 C   0  0  0  0  0  0  0  0  0  0  0  0
   37.1330   26.8900   41.4180 C   0  0  0  0  0  0  0  0  0  0  0  0
   37.4300   28.1330   40.9820 N   0  0  0  0  0  0  0  0  0  0  0  0
   37.5840   29.1700   41.8260 C   0  0  0  0  0  0  0  0  0  0  0  0
   37.4470   29.0060   43.1440 N   0  0  0  0  0  0  0  0  0  0  0  0
   37.0190   27.5440   44.6880 H   0  0  0  0  0  0  0  0  0  0  0  0
   36.7450   25.6990   43.1740 H   0  0  0  0  0  0  0  0  0  0  0  0
   36.9320   25.5260   40.2980 S   0  0  0  0  0  0  0  0  0  0  0  0
   37.4440   25.9370   39.0330 H   0  0  0  0  0  0  0  0  0  0  0  0
  1  2  1  0  0  0  0
  2  3  2  0  0  0  0
  2 16  1  0  0  0  0
  3  4  1  0  0  0  0
  5 11  1  0  0  0  0
  5  3  1  0  0  0  0
  6  5  2  0  0  0  0
  7  6  1  0  0  0  0
  7  1  2  0  0  0  0
  8  9  1  0  0  0  0
  8  6  1  0  0  0  0
  9 10  1  0  0  0  0
  9 11  1  0  0  0  0
 12 18  1  0  0  0  0
 13 19  1  0  0  0  0
 13 12  2  0  0  0  0
 14 13  1  0  0  0  0
 15 14  2  0  0  0  0
 15 16  1  0  0  0  0
 16 17  2  0  0  0  0
 17 12  1  0  0  0  0
 20 14  1  0  0  0  0
 21 20  1  0  0  0  0
M  END
>  <minimizedAffinity>
-4.88185596

$$$$

 OpenBabel03242523393D

 21 23  0  0  0  0  0  0  0  0999 V2000
   36.7910   29.6930   41.0590 C   0  0  0  0  0  3  0  0  0  0  0  0
   38.0600   29.6010   41.5780 C   0  0  0  0  0  0  0  0  0  0  0  0
   38.9770   30.6580   41.5680 C   0  0  0  0  0  0  0  0  0  0  0  0
   39.9560   30.5730   41.9730 H   0  0  0  0  0  0  0  0  0  0  0  0
   38.4920   31.8240   40.9830 C   0  0  0  0  0  0  0  0  0  0  0  0
   37.2340   31.9920   40.4430 C   0  0  0  0  0  0  0  0  0  0  0  0
   36.4090   30.8790   40.5060 C   0  0  0  0  0  3  0  0  0  0  0  0
   37.1740   33.2950   39.9760 O   0  0  0  0  0  0  0  0  0  0  0  0
   38.4510   33.8720   40.0500 C   0  0  0  0  0  3  0  0  0  0  0  0
   38.4020   34.8830   40.5090 H   0  0  0  0  0  0  0  0  0  0  0  0
   39.2210   33.0220   40.8550 O   0  0  0  0  0  0  0  0  0  0  0  0
   39.9660   27.1680   43.5750 C   0  0  0  0  0  0  0  0  0  0  0  0
   39.3040   25.9490   43.2840 C   0  0  0  0  0  0  0  0  0  0  0  0
   38.2060   25.9990   42.3950 C   0  0  0  0  0  0  0  0  0  0  0  0
   37.8510   27.1950   41.8780 N   0  0  0  0  0  0  0  0  0  0  0  0
   38.5070   28.3290   42.1830 C   0  0  0  0  0  0  0  0  0  0  0  0
   39.5470   28.3160   43.0180 N   0  0  0  0  0  0  0  0  0  0  0  0
   40.7790   27.0260   44.2540 H   0  0  0  0  0  0  0  0  0  0  0  0
   39.6020   25.0050   43.7060 H   0  0  0  0  0  0  0  0  0  0  0  0
   37.3360   24.5050   41.9880 S   0  0  0  0  0  0  0  0  0  0  0  0
   36.5120   24.7890   40.8600 H   0  0  0  0  0  0  0  0  0  0  0  0
  1  2  1  0  0  0  0
  2 16  1  0  0  0  0
  3  2  2  0  0  0  0
  3  4  1  0  0  0  0
  5  3  1  0  0  0  0
  6  7  1  0  0  0  0
  6  5  2  0  0  0  0
  7  1  2  0  0  0  0
  8  9  1  0  0  0  0
  8  6  1  0  0  0  0
  9 10  1  0  0  0  0
  9 11  1  0  0  0  0
 11  5  1  0  0  0  0
 12 18  1  0  0  0  0
 13 12  1  0  0  0  0
 13 19  1  0  0  0  0
 14 13  2  0  0  0  0
 15 16  2  0  0  0  0
 15 14  1  0  0  0  0
 16 17  1  0  0  0  0
 17 12  2  0  0  0  0
 20 14  1  0  0  0  0
 21 20  1  0  0  0  0
M  END
>  <minimizedAffinity>
-4.66748762

$$$$

 OpenBabel03242523393D

 21 23  0  0  0  0  0  0  0  0999 V2000
   40.2200   28.9790   42.6980 C   0  0  0  0  0  3  0  0  0  0  0  0
   38.9970   28.8100   42.0960 C   0  0  0  0  0  0  0  0  0  0  0  0
   38.3420   27.5760   42.0120 C   0  0  0  0  0  0  0  0  0  0  0  0
   37.3960   27.4590   41.5430 H   0  0  0  0  0  0  0  0  0  0  0  0
   39.0410   26.5220   42.5930 C   0  0  0  0  0  0  0  0  0  0  0  0
   40.2700   26.6150   43.2140 C   0  0  0  0  0  0  0  0  0  0  0  0
   40.8260   27.8840   43.2400 C   0  0  0  0  0  3  0  0  0  0  0  0
   40.5910   25.3380   43.6470 O   0  0  0  0  0  0  0  0  0  0  0  0
   39.6600   24.4250   43.1290 C   0  0  0  0  0  3  0  0  0  0  0  0
   39.2980   23.7360   43.9220 H   0  0  0  0  0  0  0  0  0  0  0  0
   38.5930   25.1880   42.6380 O   0  0  0  0  0  0  0  0  0  0  0  0
   36.3690   30.9780   40.7050 C   0  0  0  0  0  0  0  0  0  0  0  0
   37.0850   32.1590   40.3880 C   0  0  0  0  0  0  0  0  0  0  0  0
   38.4710   32.1770   40.6640 C   0  0  0  0  0  0  0  0  0  0  0  0
   39.0310   31.0760   41.2120 N   0  0  0  0  0  0  0  0  0  0  0  0
   38.3140   29.9750   41.4990 C   0  0  0  0  0  0  0  0  0  0  0  0
   37.0040   29.9270   41.2500 N   0  0  0  0  0  0  0  0  0  0  0  0
   35.3320   31.0630   40.4600 H   0  0  0  0  0  0  0  0  0  0  0  0
   36.6210   33.0260   39.9520 H   0  0  0  0  0  0  0  0  0  0  0  0
   39.4250   33.6270   40.2880 S   0  0  0  0  0  0  0  0  0  0  0  0
   40.8000   33.2610   40.3640 H   0  0  0  0  0  0  0  0  0  0  0  0
  1  7  1  0  0  0  0
  2  1  2  0  0  0  0
  3  2  1  0  0  0  0
  3  5  2  0  0  0  0
  4  3  1  0  0  0  0
  5 11  1  0  0  0  0
  5  6  1  0  0  0  0
  6  7  2  0  0  0  0
  6  8  1  0  0  0  0
  9  8  1  0  0  0  0
  9 10  1  0  0  0  0
 11  9  1  0  0  0  0
 12 17  1  0  0  0  0
 13 14  1  0  0  0  0
 13 12  2  0  0  0  0
 14 15  2  0  0  0  0
 15 16  1  0  0  0  0
 16  2  1  0  0  0  0
 17 16  2  0  0  0  0
 18 12  1  0  0  0  0
 19 13  1  0  0  0  0
 20 21  1  0  0  0  0
 20 14  1  0  0  0  0
M  END
>  <minimizedAffinity>
-4.57125139

$$$$

 OpenBabel03242523393D

 21 23  0  0  0  0  0  0  0  0999 V2000
   38.9650   29.8770   42.6810 C   0  0  0  0  0  3  0  0  0  0  0  0
   38.3950   30.2050   41.4750 C   0  0  0  0  0  0  0  0  0  0  0  0
   37.6610   29.3030   40.6970 C   0  0  0  0  0  0  0  0  0  0  0  0
   37.2260   29.5700   39.7650 H   0  0  0  0  0  0  0  0  0  0  0  0
   37.5550   28.0310   41.2520 C   0  0  0  0  0  0  0  0  0  0  0  0
   38.0980   27.6290   42.4560 C   0  0  0  0  0  0  0  0  0  0  0  0
   38.8050   28.6040   43.1420 C   0  0  0  0  0  3  0  0  0  0  0  0
   37.7510   26.2970   42.6200 O   0  0  0  0  0  0  0  0  0  0  0  0
   37.1630   25.8230   41.4380 C   0  0  0  0  0  3  0  0  0  0  0  0
   36.2280   25.2620   41.6590 H   0  0  0  0  0  0  0  0  0  0  0  0
   36.8680   26.9520   40.6640 O   0  0  0  0  0  0  0  0  0  0  0  0
   37.6220   33.4700   39.9650 C   0  0  0  0  0  0  0  0  0  0  0  0
   38.8820   34.1180   39.9770 C   0  0  0  0  0  0  0  0  0  0  0  0
   39.9780   33.4030   40.5110 C   0  0  0  0  0  0  0  0  0  0  0  0
   39.7650   32.1540   40.9780 N   0  0  0  0  0  0  0  0  0  0  0  0
   38.5510   31.5760   40.9470 C   0  0  0  0  0  0  0  0  0  0  0  0
   37.4960   32.2240   40.4490 N   0  0  0  0  0  0  0  0  0  0  0  0
   36.8600   34.0900   39.5430 H   0  0  0  0  0  0  0  0  0  0  0  0
   39.0320   35.1150   39.6010 H   0  0  0  0  0  0  0  0  0  0  0  0
   41.5850   34.1590   40.5540 S   0  0  0  0  0  0  0  0  0  0  0  0
   42.5310   33.1300   40.8330 H   0  0  0  0  0  0  0  0  0  0  0  0
  1  7  1  0  0  0  0
  2  1  2  0  0  0  0
  3  5  2  0  0  0  0
  3  2  1  0  0  0  0
  4  3  1  0  0  0  0
  5  6  1  0  0  0  0
  6  8  1  0  0  0  0
  6  7  2  0  0  0  0
  9 10  1  0  0  0  0
  9  8  1  0  0  0  0
 11  5  1  0  0  0  0
 11  9  1  0  0  0  0
 12 13  2  0  0  0  0
 12 17  1  0  0  0  0
 13 14  1  0  0  0  0
 14 20  1  0  0  0  0
 14 15  2  0  0  0  0
 16 15  1  0  0  0  0
 16  2  1  0  0  0  0
 17 16  2  0  0  0  0
 18 12  1  0  0  0  0
 19 13  1  0  0  0  0
 20 21  1  0  0  0  0
M  END
>  <minimizedAffinity>
-4.54692316

$$$$

 OpenBabel03242523393D

 21 23  0  0  0  0  0  0  0  0999 V2000
   37.7210   28.6500   42.9130 C   0  0  0  0  0  3  0  0  0  0  0  0
   37.6370   28.9370   41.5720 C   0  0  0  0  0  0  0  0  0  0  0  0
   37.3110   27.9880   40.5970 C   0  0  0  0  0  0  0  0  0  0  0  0
   37.2500   28.2240   39.5630 H   0  0  0  0  0  0  0  0  0  0  0  0
   37.0760   26.7130   41.1040 C   0  0  0  0  0  0  0  0  0  0  0  0
   37.1400   26.3490   42.4340 C   0  0  0  0  0  0  0  0  0  0  0  0
   37.4730   27.3700   43.3110 C   0  0  0  0  0  3  0  0  0  0  0  0
   36.8360   24.9980   42.4890 O   0  0  0  0  0  0  0  0  0  0  0  0
   36.7740   24.4840   41.1850 C   0  0  0  0  0  3  0  0  0  0  0  0
   35.8610   23.8640   41.0480 H   0  0  0  0  0  0  0  0  0  0  0  0
   36.7310   25.5900   40.3270 O   0  0  0  0  0  0  0  0  0  0  0  0
   37.1240   32.3240   40.2260 C   0  0  0  0  0  0  0  0  0  0  0  0
   38.4340   32.8640   40.2520 C   0  0  0  0  0  0  0  0  0  0  0  0
   39.4720   32.0360   40.7380 C   0  0  0  0  0  0  0  0  0  0  0  0
   39.1600   30.7880   41.1480 N   0  0  0  0  0  0  0  0  0  0  0  0
   37.9010   30.3140   41.1070 C   0  0  0  0  0  0  0  0  0  0  0  0
   36.8990   31.0710   40.6530 N   0  0  0  0  0  0  0  0  0  0  0  0
   36.4130   33.0240   39.8440 H   0  0  0  0  0  0  0  0  0  0  0  0
   38.6630   33.8620   39.9210 H   0  0  0  0  0  0  0  0  0  0  0  0
   41.1360   32.6540   40.7950 S   0  0  0  0  0  0  0  0  0  0  0  0
   41.9950   31.5380   41.0130 H   0  0  0  0  0  0  0  0  0  0  0  0
  1  7  1  0  0  0  0
  2  1  2  0  0  0  0
  3  5  2  0  0  0  0
  3  2  1  0  0  0  0
  4  3  1  0  0  0  0
  5  6  1  0  0  0  0
  6  8  1  0  0  0  0
  6  7  2  0  0  0  0
  9  8  1  0  0  0  0
 10  9  1  0  0  0  0
 11  5  1  0  0  0  0
 11  9  1  0  0  0  0
 12 13  2  0  0  0  0
 12 17  1  0  0  0  0
 13 14  1  0  0  0  0
 14 20  1  0  0  0  0
 14 15  2  0  0  0  0
 16 15  1  0  0  0  0
 16  2  1  0  0  0  0
 17 16  2  0  0  0  0
 18 12  1  0  0  0  0
 19 13  1  0  0  0  0
 20 21  1  0  0  0  0
M  END
>  <minimizedAffinity>
-4.52856112

$$$$

 OpenBabel03242523393D

 21 23  0  0  0  0  0  0  0  0999 V2000
   36.6500   30.5690   40.7420 C   0  0  0  0  0  3  0  0  0  0  0  0
   37.8290   30.0490   41.2200 C   0  0  0  0  0  0  0  0  0  0  0  0
   39.0200   30.7790   41.3010 C   0  0  0  0  0  0  0  0  0  0  0  0
   39.9240   30.3630   41.6720 H   0  0  0  0  0  0  0  0  0  0  0  0
   38.9110   32.0920   40.8510 C   0  0  0  0  0  0  0  0  0  0  0  0
   37.7650   32.6840   40.3600 C   0  0  0  0  0  0  0  0  0  0  0  0
   36.6450   31.8670   40.3250 C   0  0  0  0  0  3  0  0  0  0  0  0
   38.1030   33.9880   40.0320 O   0  0  0  0  0  0  0  0  0  0  0  0
   39.4930   34.1460   40.1380 C   0  0  0  0  0  3  0  0  0  0  0  0
   39.7440   35.0710   40.7000 H   0  0  0  0  0  0  0  0  0  0  0  0
   39.9660   33.0250   40.8320 O   0  0  0  0  0  0  0  0  0  0  0  0
   36.8620   26.5530   41.8410 C   0  0  0  0  0  0  0  0  0  0  0  0
   37.9810   26.0480   42.5480 C   0  0  0  0  0  0  0  0  0  0  0  0
   39.0520   26.9370   42.7960 C   0  0  0  0  0  0  0  0  0  0  0  0
   38.9500   28.2070   42.3480 N   0  0  0  0  0  0  0  0  0  0  0  0
   37.8680   28.6460   41.6790 C   0  0  0  0  0  0  0  0  0  0  0  0
   36.8410   27.8310   41.4290 N   0  0  0  0  0  0  0  0  0  0  0  0
   36.1090   25.8070   41.7040 H   0  0  0  0  0  0  0  0  0  0  0  0
   38.0440   25.0330   42.8980 H   0  0  0  0  0  0  0  0  0  0  0  0
   40.4830   26.3660   43.6790 S   0  0  0  0  0  0  0  0  0  0  0  0
   41.2350   27.5160   44.0570 H   0  0  0  0  0  0  0  0  0  0  0  0
  1  2  1  0  0  0  0
  2  3  2  0  0  0  0
  2 16  1  0  0  0  0
  3  4  1  0  0  0  0
  5  3  1  0  0  0  0
  6  5  2  0  0  0  0
  7  6  1  0  0  0  0
  7  1  2  0  0  0  0
  8  9  1  0  0  0  0
  8  6  1  0  0  0  0
  9 10  1  0  0  0  0
  9 11  1  0  0  0  0
 11  5  1  0  0  0  0
 12 13  1  0  0  0  0
 13 14  2  0  0  0  0
 13 19  1  0  0  0  0
 14 20  1  0  0  0  0
 15 14  1  0  0  0  0
 16 15  2  0  0  0  0
 17 16  1  0  0  0  0
 17 12  2  0  0  0  0
 18 12  1  0  0  0  0
 20 21  1  0  0  0  0
M  END
>  <minimizedAffinity>
-4.44575167

$$$$

 OpenBabel03242523393D

 21 23  0  0  0  0  0  0  0  0999 V2000
   36.7360   30.4600   39.8040 C   0  0  0  0  0  3  0  0  0  0  0  0
   35.9810   29.3340   39.5840 C   0  0  0  0  0  0  0  0  0  0  0  0
   35.8480   28.2980   40.5170 C   0  0  0  0  0  0  0  0  0  0  0  0
   35.2610   27.4320   40.3330 H   0  0  0  0  0  0  0  0  0  0  0  0
   36.5530   28.5070   41.6990 C   0  0  0  0  0  0  0  0  0  0  0  0
   37.3290   29.6090   41.9910 C   0  0  0  0  0  0  0  0  0  0  0  0
   37.3890   30.5720   40.9960 C   0  0  0  0  0  3  0  0  0  0  0  0
   37.8410   29.4060   43.2640 O   0  0  0  0  0  0  0  0  0  0  0  0
   37.5410   28.1000   43.6800 C   0  0  0  0  0  3  0  0  0  0  0  0
   37.1330   28.0980   44.7140 H   0  0  0  0  0  0  0  0  0  0  0  0
   36.5770   27.6140   42.7870 O   0  0  0  0  0  0  0  0  0  0  0  0
   33.2880   28.7580   37.1430 C   0  0  0  0  0  0  0  0  0  0  0  0
   33.9620   28.9050   35.9050 C   0  0  0  0  0  0  0  0  0  0  0  0
   35.3440   29.2000   35.9460 C   0  0  0  0  0  0  0  0  0  0  0  0
   35.9400   29.3270   37.1510 N   0  0  0  0  0  0  0  0  0  0  0  0
   35.2610   29.1810   38.3040 C   0  0  0  0  0  0  0  0  0  0  0  0
   33.9560   28.9010   38.3000 N   0  0  0  0  0  0  0  0  0  0  0  0
   32.2510   28.5370   37.0080 H   0  0  0  0  0  0  0  0  0  0  0  0
   33.4700   28.8000   34.9550 H   0  0  0  0  0  0  0  0  0  0  0  0
   36.2460   29.3950   34.4290 S   0  0  0  0  0  0  0  0  0  0  0  0
   37.6340   29.3650   34.7540 H   0  0  0  0  0  0  0  0  0  0  0  0
  1  7  1  0  0  0  0
  2  1  2  0  0  0  0
  2  3  1  0  0  0  0
  3  5  2  0  0  0  0
  4  3  1  0  0  0  0
  5  6  1  0  0  0  0
  5 11  1  0  0  0  0
  6  8  1  0  0  0  0
  7  6  2  0  0  0  0
  8  9  1  0  0  0  0
  9 10  1  0  0  0  0
 11  9  1  0  0  0  0
 12 17  1  0  0  0  0
 13 14  1  0  0  0  0
 13 12  2  0  0  0  0
 14 15  2  0  0  0  0
 15 16  1  0  0  0  0
 16  2  1  0  0  0  0
 17 16  2  0  0  0  0
 18 12  1  0  0  0  0
 19 13  1  0  0  0  0
 20 21  1  0  0  0  0
 20 14  1  0  0  0  0
M  END
>  <minimizedAffinity>
-4.43635941

$$$$

 OpenBabel03242523393D

 21 23  0  0  0  0  0  0  0  0999 V2000
   35.2340   28.9970   40.5230 C   0  0  0  0  0  3  0  0  0  0  0  0
   36.1760   28.0010   40.4200 C   0  0  0  0  0  0  0  0  0  0  0  0
   36.3390   27.2070   39.2800 C   0  0  0  0  0  0  0  0  0  0  0  0
   37.0710   26.4400   39.2140 H   0  0  0  0  0  0  0  0  0  0  0  0
   35.4570   27.5110   38.2460 C   0  0  0  0  0  0  0  0  0  0  0  0
   34.4890   28.4930   38.2760 C   0  0  0  0  0  0  0  0  0  0  0  0
   34.4170   29.2190   39.4550 C   0  0  0  0  0  3  0  0  0  0  0  0
   33.8470   28.4530   37.0480 O   0  0  0  0  0  0  0  0  0  0  0  0
   34.2840   27.3260   36.3350 C   0  0  0  0  0  3  0  0  0  0  0  0
   34.5440   27.5970   35.2880 H   0  0  0  0  0  0  0  0  0  0  0  0
   35.4230   26.8560   37.0010 O   0  0  0  0  0  0  0  0  0  0  0  0
   38.0530   28.4250   43.5570 C   0  0  0  0  0  0  0  0  0  0  0  0
   38.7590   27.2000   43.6570 C   0  0  0  0  0  0  0  0  0  0  0  0
   38.5680   26.2500   42.6280 C   0  0  0  0  0  0  0  0  0  0  0  0
   37.7280   26.5590   41.6160 N   0  0  0  0  0  0  0  0  0  0  0  0
   37.0770   27.7340   41.5590 C   0  0  0  0  0  0  0  0  0  0  0  0
   37.2370   28.6530   42.5150 N   0  0  0  0  0  0  0  0  0  0  0  0
   38.2640   29.0740   44.3790 H   0  0  0  0  0  0  0  0  0  0  0  0
   39.4230   26.9720   44.4720 H   0  0  0  0  0  0  0  0  0  0  0  0
   39.4240   24.6960   42.6960 S   0  0  0  0  0  0  0  0  0  0  0  0
   39.3020   24.0880   41.4120 H   0  0  0  0  0  0  0  0  0  0  0  0
  2  1  1  0  0  0  0
  2 16  1  0  0  0  0
  3  2  2  0  0  0  0
  4  3  1  0  0  0  0
  5  6  2  0  0  0  0
  5  3  1  0  0  0  0
  6  7  1  0  0  0  0
  7  1  2  0  0  0  0
  8  6  1  0  0  0  0
  9 11  1  0  0  0  0
  9  8  1  0  0  0  0
 10  9  1  0  0  0  0
 11  5  1  0  0  0  0
 12 13  1  0  0  0  0
 12 18  1  0  0  0  0
 13 19  1  0  0  0  0
 14 20  1  0  0  0  0
 14 13  2  0  0  0  0
 15 14  1  0  0  0  0
 16 15  2  0  0  0  0
 16 17  1  0  0  0  0
 17 12  2  0  0  0  0
 21 20  1  0  0  0  0
M  END
>  <minimizedAffinity>
-4.39743614

$$$$

 OpenBabel03242523393D

 21 23  0  0  0  0  0  0  0  0999 V2000
   36.8840   28.0610   42.3470 C   0  0  0  0  0  3  0  0  0  0  0  0
   37.0800   28.1750   40.9920 C   0  0  0  0  0  0  0  0  0  0  0  0
   37.2850   27.0800   40.1460 C   0  0  0  0  0  0  0  0  0  0  0  0
   37.4360   27.1830   39.1000 H   0  0  0  0  0  0  0  0  0  0  0  0
   37.2750   25.8500   40.7980 C   0  0  0  0  0  0  0  0  0  0  0  0
   37.0840   25.6570   42.1510 C   0  0  0  0  0  0  0  0  0  0  0  0
   36.8910   26.8120   42.8930 C   0  0  0  0  0  3  0  0  0  0  0  0
   37.1480   24.2890   42.3680 O   0  0  0  0  0  0  0  0  0  0  0  0
   37.5690   23.6530   41.1900 C   0  0  0  0  0  3  0  0  0  0  0  0
   36.9230   22.7770   40.9620 H   0  0  0  0  0  0  0  0  0  0  0  0
   37.4580   24.6040   40.1680 O   0  0  0  0  0  0  0  0  0  0  0  0
   36.9690   31.8300   40.5780 C   0  0  0  0  0  0  0  0  0  0  0  0
   37.0810   31.9820   39.1740 C   0  0  0  0  0  0  0  0  0  0  0  0
   37.1910   30.8060   38.3980 C   0  0  0  0  0  0  0  0  0  0  0  0
   37.1860   29.6130   39.0320 N   0  0  0  0  0  0  0  0  0  0  0  0
   37.0790   29.5140   40.3690 C   0  0  0  0  0  0  0  0  0  0  0  0
   36.9730   30.6060   41.1300 N   0  0  0  0  0  0  0  0  0  0  0  0
   36.8910   32.7730   41.0750 H   0  0  0  0  0  0  0  0  0  0  0  0
   37.0840   32.9410   38.6870 H   0  0  0  0  0  0  0  0  0  0  0  0
   37.3330   30.9280   36.6310 S   0  0  0  0  0  0  0  0  0  0  0  0
   37.1080   29.6260   36.0970 H   0  0  0  0  0  0  0  0  0  0  0  0
  1  7  1  0  0  0  0
  2  1  2  0  0  0  0
  3  5  2  0  0  0  0
  3  2  1  0  0  0  0
  4  3  1  0  0  0  0
  5  6  1  0  0  0  0
  6  8  1  0  0  0  0
  6  7  2  0  0  0  0
  9  8  1  0  0  0  0
 10  9  1  0  0  0  0
 11  5  1  0  0  0  0
 11  9  1  0  0  0  0
 12 18  1  0  0  0  0
 12 17  1  0  0  0  0
 13 12  2  0  0  0  0
 14 15  2  0  0  0  0
 14 13  1  0  0  0  0
 15 16  1  0  0  0  0
 16  2  1  0  0  0  0
 16 17  2  0  0  0  0
 19 13  1  0  0  0  0
 20 14  1  0  0  0  0
 21 20  1  0  0  0  0
M  END
>  <minimizedAffinity>
-4.37761211

$$$$
