
 OpenBabel03242520413D

 41 45  0  0  1  0  0  0  0  0999 V2000
   45.8590   33.4480   45.7620 C   0  0  0  0  0  0  0  0  0  0  0  0
   46.6910   33.6000   44.6210 C   0  0  0  0  0  0  0  0  0  0  0  0
   47.3790   32.4470   44.1380 C   0  0  0  0  0  0  0  0  0  0  0  0
   47.2090   31.2550   44.7850 N   0  0  0  0  0  0  0  0  0  0  0  0
   46.4000   31.1720   45.8710 C   0  0  0  0  0  0  0  0  0  0  0  0
   45.7390   32.2560   46.3460 N   0  0  0  0  0  0  0  0  0  0  0  0
   46.2840   29.9150   46.4750 N   0  0  0  0  0  0  0  0  0  0  0  0
   47.4320   29.2460   46.9920 C   0  0  2  0  0  0  0  0  0  0  0  0
   47.2160   27.8200   47.3600 C   0  0  0  0  0  0  0  0  0  0  0  0
   45.9210   27.4560   47.7900 N   0  0  0  0  0  0  0  0  0  0  0  0
   45.0030   28.5370   47.8900 C   0  0  0  0  0  0  0  0  0  0  0  0
   44.9890   29.2800   46.5790 C   0  0  0  0  0  0  0  0  0  0  0  0
   45.3780   34.3530   46.0630 H   0  0  0  0  0  0  0  0  0  0  0  0
   46.8740   34.4890   44.0630 H   0  0  0  0  0  0  0  0  0  0  0  0
   48.0240   32.5120   43.2720 H   0  0  0  0  0  0  0  0  0  0  0  0
   48.1640   29.1930   46.1270 H   0  0  0  0  0  0  0  0  0  0  0  0
   47.9280   27.5930   48.2040 H   0  0  0  0  0  0  0  0  0  0  0  0
   47.5120   27.1100   46.5600 H   0  0  0  0  0  0  0  0  0  0  0  0
   45.8850   26.7550   48.5600 H   0  0  0  0  0  0  0  0  0  0  0  0
   43.9770   28.0680   47.9870 H   0  0  0  0  0  0  0  0  0  0  0  0
   45.1170   29.1810   48.7620 H   0  0  0  0  0  0  0  0  0  0  0  0
   44.9450   28.5280   45.7840 H   0  0  0  0  0  0  0  0  0  0  0  0
   44.1750   30.0340   46.5110 H   0  0  0  0  0  0  0  0  0  0  0  0
   48.0960   30.0320   48.0670 C   0  0  0  0  0  0  0  0  0  0  0  0
   47.6280   30.9440   48.9800 C   0  0  0  0  0  0  0  0  0  0  0  0
   48.6010   31.3970   49.7760 N   0  0  0  0  0  0  0  0  0  0  0  0
   49.7050   30.7730   49.3760 C   0  0  0  0  0  0  0  0  0  0  0  0
   49.4060   29.9550   48.3530 N   0  0  0  0  0  0  0  0  0  0  0  0
   46.5970   31.2600   49.0430 H   0  0  0  0  0  0  0  0  0  0  0  0
   48.5480   32.0890   50.5540 H   0  0  0  0  0  0  0  0  0  0  0  0
   52.1360   31.4380   49.1920 C   0  0  0  0  0  3  0  0  0  0  0  0
   51.0830   30.8640   49.8770 C   0  0  0  0  0  0  0  0  0  0  0  0
   51.3370   30.3350   51.1250 C   0  0  0  0  0  0  0  0  0  0  0  0
   50.5370   29.8790   51.6900 H   0  0  0  0  0  0  0  0  0  0  0  0
   52.5930   30.3640   51.6980 C   0  0  0  0  0  0  0  0  0  0  0  0
   53.6580   30.9420   51.0090 C   0  0  0  0  0  0  0  0  0  0  0  0
   53.3930   31.4680   49.7620 C   0  0  0  0  0  3  0  0  0  0  0  0
   54.8170   30.8450   51.7980 O   0  0  0  0  0  0  0  0  0  0  0  0
   54.5270   29.7550   52.6840 C   0  0  0  0  0  3  0  0  0  0  0  0
   55.1530   29.8900   53.5660 H   0  0  0  0  0  0  0  0  0  0  0  0
   53.1390   29.9240   52.9060 O   0  0  0  0  0  0  0  0  0  0  0  0
  1 13  1  0  0  0  0
  1  6  1  0  0  0  0
  2  1  2  0  0  0  0
  3  2  1  0  0  0  0
  3  4  2  0  0  0  0
  4  5  1  0  0  0  0
  5  6  2  0  0  0  0
  5  7  1  0  0  0  0
  7 12  1  0  0  0  0
  7  8  1  0  0  0  0
  8 16  1  6  0  0  0
  8  9  1  0  0  0  0
  8 24  1  0  0  0  0
  9 10  1  0  0  0  0
  9 17  1  0  0  0  0
 10 11  1  0  0  0  0
 10 19  1  0  0  0  0
 11 20  1  0  0  0  0
 11 21  1  0  0  0  0
 12 11  1  0  0  0  0
 14  2  1  0  0  0  0
 15  3  1  0  0  0  0
 18  9  1  0  0  0  0
 22 12  1  0  0  0  0
 23 12  1  0  0  0  0
 24 28  1  0  0  0  0
 24 25  2  0  0  0  0
 25 29  1  0  0  0  0
 25 26  1  0  0  0  0
 26 30  1  0  0  0  0
 27 26  1  0  0  0  0
 27 32  1  0  0  0  0
 28 27  2  0  0  0  0
 31 37  2  0  0  0  0
 31 32  1  0  0  0  0
 32 33  2  0  0  0  0
 33 34  1  0  0  0  0
 33 35  1  0  0  0  0
 35 41  1  0  0  0  0
 36 35  2  0  0  0  0
 36 38  1  0  0  0  0
 37 36  1  0  0  0  0
 38 39  1  0  0  0  0
 39 41  1  0  0  0  0
 39 40  1  0  0  0  0
M  END
>  <minimizedAffinity>
-5.3890729

>  <minimizedRMSD>
0.618654966

$$$$
