REMARK  Name = 
REMARK  4 active torsions:
REMARK  status: ('A' for Active; 'I' for Inactive)
REMARK    1  A    between atoms: C_1  and  O_12
REMARK    2  A    between atoms: C_2  and  C_7
REMARK    3  A    between atoms: O_12  and  C_13
REMARK    4  A    between atoms: C_13  and  C_21
REMARK                            x       y       z     vdW  Elec       q    Type
REMARK                         _______ _______ _______ _____ _____    ______ ____
ROOT
ATOM      1  C   UNL     1      46.083  34.159  41.015  0.00  0.00    +0.000 A 
ATOM      2  C   UNL     1      46.610  34.837  42.108  0.00  0.00    +0.000 A 
ATOM      3  C   UNL     1      47.931  35.281  41.983  0.00  0.00    +0.000 A 
ATOM      4  N   UNL     1      48.608  35.026  40.818  0.00  0.00    +0.000 NA
ATOM      5  C   UNL     1      48.051  34.372  39.807  0.00  0.00    +0.000 A 
ATOM      6  N   UNL     1      46.787  33.930  39.885  0.00  0.00    +0.000 NA
ATOM      7  H   UNL     1      48.368  35.811  42.817  0.00  0.00    +0.000 HD
ATOM      8  H   UNL     1      48.593  34.177  38.895  0.00  0.00    +0.000 HD
ENDROOT
BRANCH   2   9
ATOM      9  C   UNL     1      45.805  35.051  43.292  0.00  0.00    +0.000 A 
ATOM     10  C   UNL     1      45.049  36.181  43.496  0.00  0.00    +0.000 A 
ATOM     11  C   UNL     1      44.464  35.962  44.726  0.00  0.00    +0.000 A 
ATOM     12  N   UNL     1      44.843  34.768  45.238  0.00  0.00    +0.000 N 
ATOM     13  N   UNL     1      45.654  34.236  44.352  0.00  0.00    +0.000 NA
ATOM     14  H   UNL     1      44.892  37.067  42.901  0.00  0.00    +0.000 HD
ATOM     15  H   UNL     1      43.774  36.593  45.304  0.00  0.00    +0.000 HD
ATOM     16  H   UNL     1      44.602  34.285  46.128  0.00  0.00    +0.000 HD
ENDBRANCH   2   9
BRANCH   1  17
ATOM     17  O   UNL     1      44.778  33.703  41.096  0.00  0.00    +0.000 OA
BRANCH  17  18
ATOM     18  C   UNL     1      43.690  34.187  40.426  0.00  0.00    +0.000 C 
ATOM     19  O   UNL     1      43.257  35.397  40.421  0.00  0.00    +0.000 OA
BRANCH  18  21
ATOM     20  C   UNL     1      43.313  32.403  38.663  0.00  0.00    +0.000 A 
ATOM     21  C   UNL     1      42.814  33.332  39.570  0.00  0.00    +0.000 A 
ATOM     22  C   UNL     1      41.441  33.373  39.588  0.00  0.00    +0.000 A 
ATOM     23  H   UNL     1      40.953  34.069  40.264  0.00  0.00    +0.000 HD
ATOM     24  C   UNL     1      40.627  32.596  38.809  0.00  0.00    +0.000 A 
ATOM     25  C   UNL     1      41.211  31.704  37.939  0.00  0.00    +0.000 A 
ATOM     26  C   UNL     1      42.573  31.584  37.844  0.00  0.00    +0.000 A 
ATOM     27  O   UNL     1      40.177  31.059  37.286  0.00  0.00    +0.000 OA
ATOM     28  C   UNL     1      38.915  31.554  37.710  0.00  0.00    +0.000 C 
ATOM     29  H   UNL     1      38.291  30.781  38.204  0.00  0.00    +0.000 HD
ATOM     30  O   UNL     1      39.247  32.506  38.696  0.00  0.00    +0.000 OA
ENDBRANCH  18  21
ENDBRANCH  17  18
ENDBRANCH   1  17
TORSDOF 4
