
 OpenBabel03242516163D

 45 49  0  0  1  0  0  0  0  0999 V2000
   46.2590   35.6170   42.7680 C   0  0  0  0  0  0  0  0  0  0  0  0
   46.8830   34.3920   42.5050 C   0  0  0  0  0  0  0  0  0  0  0  0
   46.5650   33.3050   43.3240 C   0  0  0  0  0  0  0  0  0  0  0  0
   45.6690   33.4950   44.3320 N   0  0  0  0  0  0  0  0  0  0  0  0
   45.1070   34.6890   44.5340 C   0  0  0  0  0  0  0  0  0  0  0  0
   45.3820   35.7300   43.7840 N   0  0  0  0  0  0  0  0  0  0  0  0
   44.1640   34.9120   45.5880 N   0  0  0  0  0  0  0  0  0  0  0  0
   46.5060   36.4600   42.1290 H   0  0  0  0  0  0  0  0  0  0  0  0
   44.4590   35.6500   46.2790 H   0  0  0  0  0  0  0  0  0  0  0  0
   43.2770   34.3320   45.5860 H   0  0  0  0  0  0  0  0  0  0  0  0
   47.8680   34.2740   41.3800 C   0  0  0  0  0  0  0  0  0  0  0  0
   48.6330   35.5500   41.0450 C   0  0  0  0  0  0  0  0  0  0  0  0
   49.2620   34.4030   41.6740 C   0  0  0  0  0  0  0  0  0  0  0  0
   48.8780   35.7820   39.9850 H   0  0  0  0  0  0  0  0  0  0  0  0
   48.2670   36.4650   41.5610 H   0  0  0  0  0  0  0  0  0  0  0  0
   49.9880   33.8240   41.0340 H   0  0  0  0  0  0  0  0  0  0  0  0
   49.7790   34.7920   42.5670 H   0  0  0  0  0  0  0  0  0  0  0  0
   47.4280   33.5380   40.1620 C   0  0  0  0  0  0  0  0  0  0  0  0
   47.9660   34.0700   38.8500 C   0  0  0  0  0  0  0  0  0  0  0  0
   47.4770   33.1050   37.7820 C   0  0  0  0  0  0  0  0  0  0  0  0
   46.1100   33.4000   37.5900 O   0  0  0  0  0  0  0  0  0  0  0  0
   45.5090   32.8520   38.7530 C   0  0  0  0  0  0  0  0  0  0  0  0
   45.8940   33.6760   39.9680 C   0  0  0  0  0  0  0  0  0  0  0  0
   47.6630   32.4760   40.2290 H   0  0  0  0  0  0  0  0  0  0  0  0
   49.0860   33.9730   38.8360 H   0  0  0  0  0  0  0  0  0  0  0  0
   47.6180   35.0970   38.6200 H   0  0  0  0  0  0  0  0  0  0  0  0
   47.9980   33.2720   36.8040 H   0  0  0  0  0  0  0  0  0  0  0  0
   47.5570   32.0600   38.1160 H   0  0  0  0  0  0  0  0  0  0  0  0
   44.4270   32.9470   38.5870 H   0  0  0  0  0  0  0  0  0  0  0  0
   45.8640   31.8260   38.9310 H   0  0  0  0  0  0  0  0  0  0  0  0
   45.4170   33.1550   40.8310 H   0  0  0  0  0  0  0  0  0  0  0  0
   45.6020   34.7270   39.9010 H   0  0  0  0  0  0  0  0  0  0  0  0
   47.1490   32.0150   43.1640 C   0  0  2  0  0  3  0  0  0  0  0  0
   46.5920   30.8850   43.4850 O   0  0  0  0  0  1  0  0  0  0  0  0
   49.5840   31.3330   43.2010 C   0  0  0  0  0  3  0  0  0  0  0  0
   48.3010   31.2750   42.7290 C   0  0  0  0  0  0  0  0  0  0  0  0
   48.1310   30.4520   41.6080 C   0  0  0  0  0  0  0  0  0  0  0  0
   47.1490   30.3440   41.1630 H   0  0  0  0  0  0  0  0  0  0  0  0
   49.1070   29.7340   40.9790 C   0  0  0  0  0  0  0  0  0  0  0  0
   50.3780   29.8180   41.4850 C   0  0  0  0  0  0  0  0  0  0  0  0
   50.6090   30.6060   42.5800 C   0  0  0  0  0  3  0  0  0  0  0  0
   51.2030   29.0060   40.6910 O   0  0  0  0  0  0  0  0  0  0  0  0
   50.5270   28.7740   39.4590 C   0  0  0  0  0  3  0  0  0  0  0  0
   50.7950   27.8000   39.0540 H   0  0  0  0  0  0  0  0  0  0  0  0
   49.1540   28.8690   39.8690 O   0  0  0  0  0  0  0  0  0  0  0  0
  1  6  1  0  0  0  0
  2  1  2  0  0  0  0
  2  3  1  0  0  0  0
  3  4  2  0  0  0  0
  4  5  1  0  0  0  0
  5  7  1  0  0  0  0
  6  5  2  0  0  0  0
  7  9  1  0  0  0  0
  8  1  1  0  0  0  0
 10  7  1  0  0  0  0
 11 13  1  0  0  0  0
 11  2  1  0  0  0  0
 12 11  1  0  0  0  0
 12 15  1  0  0  0  0
 12 13  1  0  0  0  0
 13 17  1  0  0  0  0
 14 12  1  0  0  0  0
 16 13  1  0  0  0  0
 18 24  1  0  0  0  0
 18 11  1  0  0  0  0
 19 18  1  0  0  0  0
 20 28  1  0  0  0  0
 20 19  1  0  0  0  0
 21 20  1  0  0  0  0
 21 22  1  0  0  0  0
 22 30  1  0  0  0  0
 22 23  1  0  0  0  0
 23 18  1  0  0  0  0
 23 31  1  0  0  0  0
 25 19  1  0  0  0  0
 26 19  1  0  0  0  0
 27 20  1  0  0  0  0
 29 22  1  0  0  0  0
 32 23  1  0  0  0  0
 33  3  1  0  0  0  0
 33 34  1  1  0  0  0
 36 33  1  0  0  0  0
 36 35  1  0  0  0  0
 37 36  2  0  0  0  0
 38 37  1  0  0  0  0
 39 40  2  0  0  0  0
 39 37  1  0  0  0  0
 40 41  1  0  0  0  0
 41 35  2  0  0  0  0
 42 40  1  0  0  0  0
 43 45  1  0  0  0  0
 43 42  1  0  0  0  0
 44 43  1  0  0  0  0
 45 39  1  0  0  0  0
M  END
>  <minimizedAffinity>
-4.95703459

>  <minimizedRMSD>
1.72185898

$$$$
