REMARK  Name = 
REMARK  2 active torsions:
REMARK  status: ('A' for Active; 'I' for Inactive)
REMARK    1  A    between atoms: C_3  and  S_7
REMARK    2  A    between atoms: C_5  and  C_12
REMARK                            x       y       z     vdW  Elec       q    Type
REMARK                         _______ _______ _______ _____ _____    ______ ____
ROOT
ATOM      1  C   UNL     1      44.872  32.024  46.525  0.00  0.00    +0.000 A 
ATOM      2  C   UNL     1      45.688  33.129  46.479  0.00  0.00    +0.000 A 
ATOM      3  C   UNL     1      46.684  33.394  47.426  0.00  0.00    +0.000 A 
ATOM      4  H   UNL     1      47.308  34.252  47.378  0.00  0.00    +0.000 HD
ATOM      5  C   UNL     1      46.780  32.434  48.430  0.00  0.00    +0.000 A 
ATOM      6  C   UNL     1      45.999  31.304  48.542  0.00  0.00    +0.000 A 
ATOM      7  C   UNL     1      45.044  31.142  47.549  0.00  0.00    +0.000 A 
ATOM      8  O   UNL     1      46.430  30.636  49.678  0.00  0.00    +0.000 OA
ATOM      9  C   UNL     1      47.342  31.445  50.372  0.00  0.00    +0.000 C 
ATOM     10  H   UNL     1      48.244  30.865  50.663  0.00  0.00    +0.000 HD
ATOM     11  O   UNL     1      47.700  32.476  49.495  0.00  0.00    +0.000 OA
ENDROOT
BRANCH   2  16
ATOM     12  C   UNL     1      44.536  36.032  44.533  0.00  0.00    +0.000 A 
ATOM     13  C   UNL     1      45.259  35.894  43.322  0.00  0.00    +0.000 A 
ATOM     14  C   UNL     1      46.134  34.790  43.207  0.00  0.00    +0.000 A 
ATOM     15  N   UNL     1      46.233  33.936  44.249  0.00  0.00    +0.000 NA
ATOM     16  C   UNL     1      45.528  34.105  45.382  0.00  0.00    +0.000 A 
ATOM     17  N   UNL     1      44.693  35.137  45.522  0.00  0.00    +0.000 NA
ATOM     18  H   UNL     1      43.904  36.894  44.523  0.00  0.00    +0.000 HD
ATOM     19  H   UNL     1      45.167  36.585  42.503  0.00  0.00    +0.000 HD
BRANCH  14  20
ATOM     20  S   UNL     1      47.068  34.560  41.714  0.00  0.00    +0.000 S 
ATOM     21  H   UNL     1      47.600  33.238  41.746  0.00  0.00    +0.000 HD
ENDBRANCH  14  20
ENDBRANCH   2  16
TORSDOF 2
