
     RDKit          3D

 33 36  0  0  0  0  0  0  0  0999 V2000
   46.0830   34.1590   41.0146 C   0  0  0  0  0  0  0  0  0  0  0  0
   46.6097   34.8367   42.1078 C   0  0  0  0  0  0  0  0  0  0  0  0
   47.9314   35.2805   41.9826 C   0  0  0  0  0  0  0  0  0  0  0  0
   48.6083   35.0257   40.8184 N   0  0  0  0  0  0  0  0  0  0  0  0
   48.0508   34.3721   39.8069 C   0  0  0  0  0  0  0  0  0  0  0  0
   46.7871   33.9296   39.8854 N   0  0  0  0  0  0  0  0  0  0  0  0
   45.8052   35.0511   43.2917 C   0  0  0  0  0  0  0  0  0  0  0  0
   45.0494   36.1805   43.4963 C   0  0  0  0  0  0  0  0  0  0  0  0
   44.4637   35.9620   44.7259 C   0  0  0  0  0  0  0  0  0  0  0  0
   44.8426   34.7678   45.2383 N   0  0  0  0  0  0  0  0  0  0  0  0
   45.6537   34.2365   44.3522 N   0  0  0  0  0  0  0  0  0  0  0  0
   44.7784   33.7028   41.0958 O   0  0  0  0  0  0  0  0  0  0  0  0
   43.6901   34.1873   40.4259 C   0  0  0  0  0  0  0  0  0  0  0  0
   43.2567   35.3974   40.4213 O   0  0  0  0  0  0  0  0  0  0  0  0
   48.3682   35.8109   42.8171 H   0  0  0  0  0  0  0  0  0  0  0  0
   48.5933   34.1774   38.8952 H   0  0  0  0  0  0  0  0  0  0  0  0
   44.8916   37.0674   42.9014 H   0  0  0  0  0  0  0  0  0  0  0  0
   43.7742   36.5926   45.3040 H   0  0  0  0  0  0  0  0  0  0  0  0
   44.6023   34.2845   46.1284 H   0  0  0  0  0  0  0  0  0  0  0  0
   41.7110   33.8254   38.8820 C   0  0  0  0  0  0  0  0  0  0  0  0
   42.8143   33.3323   39.5703 C   0  0  0  0  0  0  0  0  0  0  0  0
   43.0030   31.9849   39.3760 C   0  0  0  0  0  0  0  0  0  0  0  0
   43.8404   31.5041   39.8721 H   0  0  0  0  0  0  0  0  0  0  0  0
   42.2076   31.1906   38.5958 C   0  0  0  0  0  0  0  0  0  0  0  0
   41.1370   31.7667   37.9520 C   0  0  0  0  0  0  0  0  0  0  0  0
   40.8605   33.1032   38.0791 C   0  0  0  0  0  0  0  0  0  0  0  0
   40.5139   30.7558   37.2447 O   0  0  0  0  0  0  0  0  0  0  0  0
   41.1634   29.5095   37.4519 C   0  0  2  0  0  0  0  0  0  0  0  0
   41.5914   29.0852   36.5209 H   0  0  0  0  0  0  0  0  0  0  0  0
   42.2483   29.8373   38.2913 O   0  0  0  0  0  0  0  0  0  0  0  0
   41.4860   34.8985   38.9820 H   0  0  0  0  0  0  0  0  0  0  0  0
   40.0370   33.5754   37.5911 H   0  0  0  0  0  0  0  0  0  0  0  0
   40.5086   28.7800   37.9640 H   0  0  0  0  0  0  0  0  0  0  0  0
  1 12  1  0
  1  2  1  0
  2  7  1  0
  3  2  2  0
  4  3  1  0
  5  6  1  0
  5  4  2  0
  6  1  2  0
  7  8  1  0
  7 11  2  0
  8  9  2  0
  9 10  1  0
 11 10  1  0
 13 14  2  0
 13 12  1  0
  3 15  1  0
  5 16  1  0
  8 17  1  0
  9 18  1  0
 10 19  1  0
 20 21  2  0
 21 22  1  0
 22 23  1  0
 22 24  2  0
 24 25  1  0
 25 26  2  0
 25 27  1  0
 27 28  1  0
 28 29  1  6
 28 30  1  0
 26 20  1  0
 30 24  1  0
 20 31  1  0
 26 32  1  0
 28 33  1  0
 13 21  1  0
M  ISO  7  15  14  16  14  17  14  18  14  19   9  23  16  29   8
M  END
>  <DihAtoms>  (1) 
13,12,20,19

>  <DihDeg>  (1) 
-179.49142945355302

$$$$
