
 OpenBabel03252509233D

 29 32  0  0  1  0  0  0  0  0999 V2000
   46.3000   34.8300   41.9400 C   0  0  1  0  0  0  0  0  0  0  0  0
   47.8110   35.1790   41.8570 C   0  0  0  0  0  0  0  0  0  0  0  0
   47.1560   33.8280   41.4150 C   0  0  2  0  0  0  0  0  0  0  0  0
   45.6690   35.5070   41.3340 H   0  0  0  0  0  0  0  0  0  0  0  0
   48.4270   35.0920   42.7480 H   0  0  0  0  0  0  0  0  0  0  0  0
   48.1130   35.8410   41.0240 H   0  0  0  0  0  0  0  0  0  0  0  0
   47.3930   32.9460   42.0450 H   0  0  0  0  0  0  0  0  0  0  0  0
   48.3830   33.6040   39.2030 C   0  0  0  0  0  3  0  0  0  0  0  0
   47.2210   33.5640   39.9440 C   0  0  0  0  0  0  0  0  0  0  0  0
   46.0630   33.2550   39.2230 C   0  0  0  0  0  0  0  0  0  0  0  0
   45.1320   33.2180   39.7870 H   0  0  0  0  0  0  0  0  0  0  0  0
   46.0250   32.9970   37.8770 C   0  0  0  0  0  0  0  0  0  0  0  0
   47.2110   33.0480   37.1720 C   0  0  0  0  0  0  0  0  0  0  0  0
   48.3970   33.3530   37.8430 C   0  0  0  0  0  3  0  0  0  0  0  0
   46.8890   32.7550   35.8620 O   0  0  0  0  0  0  0  0  0  0  0  0
   45.5450   32.3340   35.7720 C   0  0  0  0  0  3  0  0  0  0  0  0
   45.0690   32.8800   34.9370 H   0  0  0  0  0  0  0  0  0  0  0  0
   44.9870   32.6800   37.0160 O   0  0  0  0  0  0  0  0  0  0  0  0
   44.6140   35.5360   45.2200 C   0  0  0  0  0  0  0  0  0  0  0  0
   45.0340   35.7270   43.8590 C   0  0  0  0  0  0  0  0  0  0  0  0
   45.8680   34.7500   43.3840 C   0  0  0  0  0  0  0  0  0  0  0  0
   46.2630   33.6780   44.1680 N   0  0  0  0  0  0  0  0  0  0  0  0
   45.8380   33.5560   45.4270 C   0  0  0  0  0  0  0  0  0  0  0  0
   45.0150   34.4780   45.9620 N   0  0  0  0  0  0  0  0  0  0  0  0
   43.9560   36.2750   45.6400 H   0  0  0  0  0  0  0  0  0  0  0  0
   46.2410   32.6660   45.8920 H   0  0  0  0  0  0  0  0  0  0  0  0
   44.6450   36.8450   43.0840 N   0  0  0  0  0  0  0  0  0  0  0  0
   45.3670   37.5700   42.8220 H   0  0  0  0  0  0  0  0  0  0  0  0
   43.6530   36.9830   42.7560 H   0  0  0  0  0  0  0  0  0  0  0  0
  1  4  1  6  0  0  0
  1 21  1  0  0  0  0
  2  1  1  0  0  0  0
  2  5  1  0  0  0  0
  3  2  1  0  0  0  0
  3  1  1  0  0  0  0
  3  7  1  1  0  0  0
  6  2  1  0  0  0  0
  8  9  1  0  0  0  0
  9  3  1  0  0  0  0
 10 11  1  0  0  0  0
 10  9  2  0  0  0  0
 12 10  1  0  0  0  0
 13 14  1  0  0  0  0
 13 12  2  0  0  0  0
 14  8  2  0  0  0  0
 15 13  1  0  0  0  0
 16 15  1  0  0  0  0
 16 18  1  0  0  0  0
 17 16  1  0  0  0  0
 18 12  1  0  0  0  0
 19 25  1  0  0  0  0
 19 24  1  0  0  0  0
 20 19  2  0  0  0  0
 21 20  1  0  0  0  0
 21 22  2  0  0  0  0
 22 23  1  0  0  0  0
 23 26  1  0  0  0  0
 23 24  2  0  0  0  0
 27 20  1  0  0  0  0
 28 27  1  0  0  0  0
 29 27  1  0  0  0  0
M  END
>  <minimizedAffinity>
-5.43485117

>  <minimizedRMSD>
0.477380931

$$$$
