REMARK  Name = 
REMARK  2 active torsions:
REMARK  status: ('A' for Active; 'I' for Inactive)
REMARK    1  A    between atoms: C_8  and  C_13
REMARK    2  A    between atoms: C_16  and  C_32
REMARK                            x       y       z     vdW  Elec       q    Type
REMARK                         _______ _______ _______ _____ _____    ______ ____
ROOT
ATOM      1  C   UNL     1      45.942  33.511  45.850  0.00  0.00    +0.000 A 
ATOM      2  C   UNL     1      46.698  33.620  44.653  0.00  0.00    +0.000 A 
ATOM      3  C   UNL     1      47.300  32.435  44.134  0.00  0.00    +0.000 A 
ATOM      4  N   UNL     1      47.125  31.255  44.803  0.00  0.00    +0.000 NA
ATOM      5  C   UNL     1      46.391  31.215  45.943  0.00  0.00    +0.000 A 
ATOM      6  N   UNL     1      45.812  32.330  46.453  0.00  0.00    +0.000 NA
ATOM      7  N   UNL     1      46.264  29.968  46.565  0.00  0.00    +0.000 N 
ATOM      8  C   UNL     1      47.415  29.253  47.008  0.00  0.00    +0.000 C 
ATOM      9  C   UNL     1      47.165  27.840  47.403  0.00  0.00    +0.000 C 
ATOM     10  N   UNL     1      45.888  27.536  47.926  0.00  0.00    +0.000 NA
ATOM     11  C   UNL     1      45.027  28.656  48.079  0.00  0.00    +0.000 C 
ATOM     12  C   UNL     1      44.953  29.391  46.766  0.00  0.00    +0.000 C 
ATOM     13  H   UNL     1      45.523  34.439  46.176  0.00  0.00    +0.000 HD
ATOM     14  H   UNL     1      46.880  34.496  44.075  0.00  0.00    +0.000 HD
ATOM     15  H   UNL     1      47.885  32.466  43.225  0.00  0.00    +0.000 HD
ATOM     16  H   UNL     1      48.082  29.162  46.094  0.00  0.00    +0.000 HD
ATOM     17  H   UNL     1      47.924  27.588  48.198  0.00  0.00    +0.000 HD
ATOM     18  H   UNL     1      47.373  27.113  46.591  0.00  0.00    +0.000 HD
ATOM     19  H   UNL     1      45.876  26.842  48.703  0.00  0.00    +0.000 HD
ATOM     20  H   UNL     1      43.991  28.233  48.252  0.00  0.00    +0.000 HD
ATOM     21  H   UNL     1      45.229  29.300  48.935  0.00  0.00    +0.000 HD
ATOM     22  H   UNL     1      44.821  28.636  45.983  0.00  0.00    +0.000 HD
ATOM     23  H   UNL     1      44.170  30.179  46.747  0.00  0.00    +0.000 HD
ENDROOT
BRANCH   8  24
ATOM     24  C   UNL     1      48.186  30.016  48.026  0.00  0.00    +0.000 A 
ATOM     25  C   UNL     1      47.808  30.827  49.067  0.00  0.00    +0.000 A 
ATOM     26  N   UNL     1      48.862  31.301  49.738  0.00  0.00    +0.000 N 
ATOM     27  C   UNL     1      49.928  30.793  49.128  0.00  0.00    +0.000 A 
ATOM     28  N   UNL     1      49.527  30.023  48.102  0.00  0.00    +0.000 NA
ATOM     29  H   UNL     1      46.781  31.056  49.311  0.00  0.00    +0.000 HD
ATOM     30  H   UNL     1      48.886  31.934  50.566  0.00  0.00    +0.000 HD
BRANCH  27  32
ATOM     31  C   UNL     1      52.334  31.206  48.472  0.00  0.00    +0.000 A 
ATOM     32  C   UNL     1      51.359  30.959  49.418  0.00  0.00    +0.000 A 
ATOM     33  C   UNL     1      51.749  30.861  50.738  0.00  0.00    +0.000 A 
ATOM     34  H   UNL     1      51.015  30.669  51.505  0.00  0.00    +0.000 HD
ATOM     35  C   UNL     1      53.067  31.000  51.130  0.00  0.00    +0.000 A 
ATOM     36  C   UNL     1      54.053  31.248  50.177  0.00  0.00    +0.000 A 
ATOM     37  C   UNL     1      53.651  31.345  48.860  0.00  0.00    +0.000 A 
ATOM     38  O   UNL     1      55.297  31.347  50.824  0.00  0.00    +0.000 OA
ATOM     39  C   UNL     1      55.092  30.633  52.051  0.00  0.00    +0.000 C 
ATOM     40  H   UNL     1      55.823  31.015  52.763  0.00  0.00    +0.000 HD
ATOM     41  O   UNL     1      53.745  30.953  52.350  0.00  0.00    +0.000 OA
ENDBRANCH  27  32
ENDBRANCH   8  24
TORSDOF 2
