REMARK  Name = 
REMARK  6 active torsions:
REMARK  status: ('A' for Active; 'I' for Inactive)
REMARK    1  A    between atoms: C_1  and  C_3
REMARK    2  A    between atoms: C_1  and  C_11
REMARK    3  A    between atoms: C_2  and  S_8
REMARK    4  A    between atoms: C_11  and  C_13
REMARK    5  A    between atoms: C_16  and  C_18
REMARK    6  A    between atoms: C_18  and  C_33
REMARK                            x       y       z     vdW  Elec       q    Type
REMARK                         _______ _______ _______ _____ _____    ______ ____
ROOT
ATOM      1  C   UNL     1      47.408  32.265  47.806  0.00  0.00    +0.000 A 
ATOM      2  C   UNL     1      47.072  31.290  46.828  0.00  0.00    +0.000 A 
ATOM      3  C   UNL     1      47.571  30.001  47.006  0.00  0.00    +0.000 A 
ATOM      4  N   UNL     1      48.349  29.752  48.104  0.00  0.00    +0.000 NA
ATOM      5  C   UNL     1      48.633  30.695  48.987  0.00  0.00    +0.000 A 
ATOM      6  N   UNL     1      48.175  31.936  48.848  0.00  0.00    +0.000 NA
ATOM      7  H   UNL     1      47.068  33.280  47.747  0.00  0.00    +0.000 HD
ATOM      8  H   UNL     1      47.332  29.241  46.279  0.00  0.00    +0.000 HD
ENDROOT
BRANCH   2   9
ATOM      9  C   UNL     1      46.226  31.665  45.693  0.00  0.00    +0.000 C 
ATOM     10  H   UNL     1      46.126  30.737  45.054  0.00  0.00    +0.000 HD
ATOM     11  H   UNL     1      45.197  31.940  45.930  0.00  0.00    +0.000 HD
BRANCH   9  12
ATOM     12  C   UNL     1      46.985  32.684  44.871  0.00  0.00    +0.000 C 
ATOM     13  H   UNL     1      47.903  33.051  45.417  0.00  0.00    +0.000 HD
ATOM     14  H   UNL     1      47.409  32.216  43.948  0.00  0.00    +0.000 HD
BRANCH  12  16
ATOM     15  C   UNL     1      46.500  34.509  43.305  0.00  0.00    +0.000 A 
ATOM     16  C   UNL     1      46.231  33.880  44.508  0.00  0.00    +0.000 A 
ATOM     17  C   UNL     1      45.285  34.327  45.379  0.00  0.00    +0.000 A 
ATOM     18  C   UNL     1      44.562  35.455  45.050  0.00  0.00    +0.000 A 
ATOM     19  C   UNL     1      44.771  36.132  43.880  0.00  0.00    +0.000 A 
ATOM     20  C   UNL     1      45.748  35.622  43.040  0.00  0.00    +0.000 A 
ATOM     21  H   UNL     1      45.007  33.916  46.323  0.00  0.00    +0.000 HD
ATOM     22  H   UNL     1      43.781  35.888  45.689  0.00  0.00    +0.000 HD
ATOM     23  H   UNL     1      44.243  37.026  43.552  0.00  0.00    +0.000 HD
ATOM     24  H   UNL     1      45.938  36.138  42.100  0.00  0.00    +0.000 HD
BRANCH  15  25
ATOM     25  S   UNL     1      47.702  33.972  42.164  0.00  0.00    +0.000 S 
ATOM     26  O   UNL     1      49.097  34.432  42.525  0.00  0.00    +0.000 OA
ATOM     27  O   UNL     1      47.433  34.638  40.823  0.00  0.00    +0.000 OA
ATOM     28  H   UNL     1      47.731  32.633  41.978  0.00  0.00    +0.000 HD
ENDBRANCH  15  25
ENDBRANCH  12  16
ENDBRANCH   9  12
ENDBRANCH   2   9
BRANCH   5  29
ATOM     29  C   UNL     1      49.480  30.316  50.173  0.00  0.00    +0.000 C 
ATOM     30  H   UNL     1      49.254  29.287  50.523  0.00  0.00    +0.000 HD
ATOM     31  H   UNL     1      49.210  31.034  50.975  0.00  0.00    +0.000 HD
BRANCH  29  33
ATOM     32  C   UNL     1      51.730  29.419  49.630  0.00  0.00    +0.000 A 
ATOM     33  C   UNL     1      50.918  30.507  49.876  0.00  0.00    +0.000 A 
ATOM     34  C   UNL     1      51.399  31.817  49.859  0.00  0.00    +0.000 A 
ATOM     35  H   UNL     1      50.740  32.629  50.054  0.00  0.00    +0.000 HD
ATOM     36  C   UNL     1      52.743  31.956  49.579  0.00  0.00    +0.000 A 
ATOM     37  C   UNL     1      53.592  30.898  49.326  0.00  0.00    +0.000 A 
ATOM     38  C   UNL     1      53.068  29.616  49.355  0.00  0.00    +0.000 A 
ATOM     39  O   UNL     1      54.853  31.409  49.089  0.00  0.00    +0.000 OA
ATOM     40  C   UNL     1      54.821  32.800  49.352  0.00  0.00    +0.000 C 
ATOM     41  H   UNL     1      55.243  33.396  48.507  0.00  0.00    +0.000 HD
ATOM     42  O   UNL     1      53.462  33.141  49.502  0.00  0.00    +0.000 OA
ENDBRANCH  29  33
ENDBRANCH   5  29
TORSDOF 6
