
 OpenBabel03242522403D

 42 45  0  0  0  0  0  0  0  0999 V2000
   47.3180   32.3460   47.6090 C   0  0  0  0  0  0  0  0  0  0  0  0
   47.0630   31.3650   46.6120 C   0  0  0  0  0  0  0  0  0  0  0  0
   47.6170   30.0990   46.7990 C   0  0  0  0  0  0  0  0  0  0  0  0
   48.3670   29.8780   47.9220 N   0  0  0  0  0  0  0  0  0  0  0  0
   48.5740   30.8250   48.8210 C   0  0  0  0  0  0  0  0  0  0  0  0
   48.0630   32.0440   48.6750 N   0  0  0  0  0  0  0  0  0  0  0  0
   46.9320   33.3440   47.5450 H   0  0  0  0  0  0  0  0  0  0  0  0
   47.4400   29.3350   46.0580 H   0  0  0  0  0  0  0  0  0  0  0  0
   46.2410   31.7090   45.4510 C   0  0  0  0  0  0  0  0  0  0  0  0
   46.1840   30.7750   44.8160 H   0  0  0  0  0  0  0  0  0  0  0  0
   45.1990   31.9580   45.6560 H   0  0  0  0  0  0  0  0  0  0  0  0
   46.9960   32.7420   44.6430 C   0  0  0  0  0  0  0  0  0  0  0  0
   47.9180   33.0990   45.1900 H   0  0  0  0  0  0  0  0  0  0  0  0
   47.4150   32.2910   43.7090 H   0  0  0  0  0  0  0  0  0  0  0  0
   46.5180   34.6080   43.1230 C   0  0  0  0  0  0  0  0  0  0  0  0
   46.2410   33.9460   44.3060 C   0  0  0  0  0  0  0  0  0  0  0  0
   45.2870   34.3660   45.1810 C   0  0  0  0  0  0  0  0  0  0  0  0
   44.5630   35.5000   44.8770 C   0  0  0  0  0  0  0  0  0  0  0  0
   44.7790   36.2090   43.7270 C   0  0  0  0  0  0  0  0  0  0  0  0
   45.7650   35.7250   42.8820 C   0  0  0  0  0  0  0  0  0  0  0  0
   45.0020   33.9290   46.1110 H   0  0  0  0  0  0  0  0  0  0  0  0
   43.7750   35.9130   45.5210 H   0  0  0  0  0  0  0  0  0  0  0  0
   44.2510   37.1100   43.4190 H   0  0  0  0  0  0  0  0  0  0  0  0
   45.9610   36.2670   41.9580 H   0  0  0  0  0  0  0  0  0  0  0  0
   47.7320   34.1060   41.9780 S   0  0  0  0  0  0  0  0  0  0  0  0
   49.0580   34.8020   42.1890 O   0  0  0  0  0  0  0  0  0  0  0  0
   47.3030   34.5490   40.5880 O   0  0  0  0  0  0  0  0  0  0  0  0
   47.9510   32.7720   41.9520 H   0  0  0  0  0  0  0  0  0  0  0  0
   49.3960   30.4760   50.0340 C   0  0  0  0  0  0  0  0  0  0  0  0
   49.5410   29.3790   50.1260 H   0  0  0  0  0  0  0  0  0  0  0  0
   48.8100   30.8340   50.9050 H   0  0  0  0  0  0  0  0  0  0  0  0
   50.9340   32.1760   50.9880 C   0  0  0  0  0  3  0  0  0  0  0  0
   50.6790   31.2160   50.0310 C   0  0  0  0  0  0  0  0  0  0  0  0
   51.5980   30.8970   49.0290 C   0  0  0  0  0  0  0  0  0  0  0  0
   51.3630   30.1500   48.3090 H   0  0  0  0  0  0  0  0  0  0  0  0
   52.7820   31.6050   49.0590 C   0  0  0  0  0  0  0  0  0  0  0  0
   53.0790   32.5740   49.9950 C   0  0  0  0  0  0  0  0  0  0  0  0
   52.1350   32.8540   50.9690 C   0  0  0  0  0  3  0  0  0  0  0  0
   54.3380   33.0660   49.7170 O   0  0  0  0  0  0  0  0  0  0  0  0
   54.7690   32.5030   48.4910 C   0  0  0  0  0  3  0  0  0  0  0  0
   55.7880   32.0510   48.5710 H   0  0  0  0  0  0  0  0  0  0  0  0
   53.8510   31.4790   48.1820 O   0  0  0  0  0  0  0  0  0  0  0  0
  1  6  1  0  0  0  0
  2  3  1  0  0  0  0
  2  1  2  0  0  0  0
  3  4  2  0  0  0  0
  4  5  1  0  0  0  0
  5 29  1  0  0  0  0
  6  5  2  0  0  0  0
  7  1  1  0  0  0  0
  8  3  1  0  0  0  0
  9 11  1  0  0  0  0
  9  2  1  0  0  0  0
 10  9  1  0  0  0  0
 12 13  1  0  0  0  0
 12  9  1  0  0  0  0
 14 12  1  0  0  0  0
 15 16  1  0  0  0  0
 16 12  1  0  0  0  0
 16 17  2  0  0  0  0
 17 21  1  0  0  0  0
 18 17  1  0  0  0  0
 18 22  1  0  0  0  0
 19 18  2  0  0  0  0
 20 15  2  0  0  0  0
 20 19  1  0  0  0  0
 23 19  1  0  0  0  0
 24 20  1  0  0  0  0
 25 26  2  0  0  0  0
 25 15  1  0  0  0  0
 27 25  2  0  0  0  0
 28 25  1  0  0  0  0
 29 30  1  0  0  0  0
 29 31  1  0  0  0  0
 33 29  1  0  0  0  0
 33 32  2  0  0  0  0
 34 36  2  0  0  0  0
 34 33  1  0  0  0  0
 35 34  1  0  0  0  0
 36 37  1  0  0  0  0
 37 38  2  0  0  0  0
 38 32  1  0  0  0  0
 39 37  1  0  0  0  0
 40 41  1  0  0  0  0
 40 39  1  0  0  0  0
 42 40  1  0  0  0  0
 42 36  1  0  0  0  0
M  END
>  <minimizedAffinity>
-6.02875137

>  <minimizedRMSD>
1.37747073

$$$$
