
 OpenBabel03242522403D

 42 45  0  0  0  0  0  0  0  0999 V2000
   47.3270   32.3010   47.7350 C   0  0  0  0  0  0  0  0  0  0  0  0
   47.0930   31.3660   46.6910 C   0  0  0  0  0  0  0  0  0  0  0  0
   47.6700   30.1040   46.8160 C   0  0  0  0  0  0  0  0  0  0  0  0
   48.4220   29.8410   47.9280 N   0  0  0  0  0  0  0  0  0  0  0  0
   48.6100   30.7470   48.8740 C   0  0  0  0  0  0  0  0  0  0  0  0
   48.0760   31.9610   48.7870 N   0  0  0  0  0  0  0  0  0  0  0  0
   46.9220   33.2940   47.7200 H   0  0  0  0  0  0  0  0  0  0  0  0
   47.5090   29.3740   46.0380 H   0  0  0  0  0  0  0  0  0  0  0  0
   46.2660   31.7520   45.5460 C   0  0  0  0  0  0  0  0  0  0  0  0
   46.1370   30.8180   44.9210 H   0  0  0  0  0  0  0  0  0  0  0  0
   45.2460   32.0660   45.7730 H   0  0  0  0  0  0  0  0  0  0  0  0
   47.0630   32.7320   44.7120 C   0  0  0  0  0  0  0  0  0  0  0  0
   47.9670   33.1100   45.2750 H   0  0  0  0  0  0  0  0  0  0  0  0
   47.5130   32.2240   43.8220 H   0  0  0  0  0  0  0  0  0  0  0  0
   46.7290   34.5690   43.1210 C   0  0  0  0  0  0  0  0  0  0  0  0
   46.3360   33.9200   44.2780 C   0  0  0  0  0  0  0  0  0  0  0  0
   45.2890   34.3410   45.0410 C   0  0  0  0  0  0  0  0  0  0  0  0
   44.5890   35.4620   44.6440 C   0  0  0  0  0  0  0  0  0  0  0  0
   44.9190   36.1570   43.5130 C   0  0  0  0  0  0  0  0  0  0  0  0
   45.9940   35.6730   42.7840 C   0  0  0  0  0  0  0  0  0  0  0  0
   44.9120   33.9140   45.9420 H   0  0  0  0  0  0  0  0  0  0  0  0
   43.7330   35.8750   45.1940 H   0  0  0  0  0  0  0  0  0  0  0  0
   44.4170   37.0470   43.1360 H   0  0  0  0  0  0  0  0  0  0  0  0
   46.2810   36.2040   41.8780 H   0  0  0  0  0  0  0  0  0  0  0  0
   48.0620   34.0650   42.1190 S   0  0  0  0  0  0  0  0  0  0  0  0
   49.4060   34.4510   42.6970 O   0  0  0  0  0  0  0  0  0  0  0  0
   47.9980   34.8270   40.8030 O   0  0  0  0  0  0  0  0  0  0  0  0
   48.0810   32.7410   41.8460 H   0  0  0  0  0  0  0  0  0  0  0  0
   49.4370   30.3540   50.0700 C   0  0  0  0  0  0  0  0  0  0  0  0
   49.6700   29.2680   50.0650 H   0  0  0  0  0  0  0  0  0  0  0  0
   48.8080   30.5810   50.9560 H   0  0  0  0  0  0  0  0  0  0  0  0
   51.5790   31.1990   49.1430 C   0  0  0  0  0  3  0  0  0  0  0  0
   50.6540   31.1910   50.1670 C   0  0  0  0  0  0  0  0  0  0  0  0
   50.8150   31.9540   51.3240 C   0  0  0  0  0  0  0  0  0  0  0  0
   50.0790   31.9200   52.0920 H   0  0  0  0  0  0  0  0  0  0  0  0
   51.9610   32.7200   51.3790 C   0  0  0  0  0  0  0  0  0  0  0  0
   52.9120   32.7610   50.3810 C   0  0  0  0  0  0  0  0  0  0  0  0
   52.7080   31.9840   49.2520 C   0  0  0  0  0  3  0  0  0  0  0  0
   53.9110   33.6270   50.7760 O   0  0  0  0  0  0  0  0  0  0  0  0
   53.6540   34.0140   52.1140 C   0  0  0  0  0  3  0  0  0  0  0  0
   53.6810   35.1240   52.2410 H   0  0  0  0  0  0  0  0  0  0  0  0
   52.3530   33.5610   52.4120 O   0  0  0  0  0  0  0  0  0  0  0  0
  1  6  1  0  0  0  0
  2  3  1  0  0  0  0
  2  1  2  0  0  0  0
  3  4  2  0  0  0  0
  4  5  1  0  0  0  0
  5 29  1  0  0  0  0
  6  5  2  0  0  0  0
  7  1  1  0  0  0  0
  8  3  1  0  0  0  0
  9 11  1  0  0  0  0
  9  2  1  0  0  0  0
 10  9  1  0  0  0  0
 12 13  1  0  0  0  0
 12  9  1  0  0  0  0
 14 12  1  0  0  0  0
 15 16  1  0  0  0  0
 16 12  1  0  0  0  0
 16 17  2  0  0  0  0
 17 21  1  0  0  0  0
 18 17  1  0  0  0  0
 18 22  1  0  0  0  0
 19 18  2  0  0  0  0
 20 15  2  0  0  0  0
 20 19  1  0  0  0  0
 23 19  1  0  0  0  0
 24 20  1  0  0  0  0
 25 26  2  0  0  0  0
 25 15  1  0  0  0  0
 27 25  2  0  0  0  0
 28 25  1  0  0  0  0
 29 33  1  0  0  0  0
 29 31  1  0  0  0  0
 30 29  1  0  0  0  0
 32 38  2  0  0  0  0
 32 33  1  0  0  0  0
 33 34  2  0  0  0  0
 34 36  1  0  0  0  0
 34 35  1  0  0  0  0
 36 42  1  0  0  0  0
 37 39  1  0  0  0  0
 37 36  2  0  0  0  0
 38 37  1  0  0  0  0
 39 40  1  0  0  0  0
 40 41  1  0  0  0  0
 40 42  1  0  0  0  0
M  END
>  <minimizedAffinity>
-6.12116909

>  <minimizedRMSD>
1.27039993

$$$$
