
 OpenBabel03242522403D

 42 45  0  0  0  0  0  0  0  0999 V2000
   47.3270   32.3370   47.6610 C   0  0  0  0  0  0  0  0  0  0  0  0
   47.0730   31.3700   46.6500 C   0  0  0  0  0  0  0  0  0  0  0  0
   47.6180   30.0990   46.8250 C   0  0  0  0  0  0  0  0  0  0  0  0
   48.3590   29.8590   47.9500 N   0  0  0  0  0  0  0  0  0  0  0  0
   48.5650   30.7930   48.8630 C   0  0  0  0  0  0  0  0  0  0  0  0
   48.0620   32.0170   48.7280 N   0  0  0  0  0  0  0  0  0  0  0  0
   46.9480   33.3380   47.6070 H   0  0  0  0  0  0  0  0  0  0  0  0
   47.4420   29.3450   46.0730 H   0  0  0  0  0  0  0  0  0  0  0  0
   46.2610   31.7340   45.4880 C   0  0  0  0  0  0  0  0  0  0  0  0
   46.1590   30.7940   44.8670 H   0  0  0  0  0  0  0  0  0  0  0  0
   45.2320   32.0330   45.6940 H   0  0  0  0  0  0  0  0  0  0  0  0
   47.0580   32.7200   44.6610 C   0  0  0  0  0  0  0  0  0  0  0  0
   47.9660   33.0880   45.2230 H   0  0  0  0  0  0  0  0  0  0  0  0
   47.5000   32.2220   43.7630 H   0  0  0  0  0  0  0  0  0  0  0  0
   46.7220   34.5780   43.0950 C   0  0  0  0  0  0  0  0  0  0  0  0
   46.3320   33.9170   44.2460 C   0  0  0  0  0  0  0  0  0  0  0  0
   45.2920   34.3320   45.0190 C   0  0  0  0  0  0  0  0  0  0  0  0
   44.5940   35.4610   44.6400 C   0  0  0  0  0  0  0  0  0  0  0  0
   44.9200   36.1680   43.5160 C   0  0  0  0  0  0  0  0  0  0  0  0
   45.9890   35.6890   42.7760 C   0  0  0  0  0  0  0  0  0  0  0  0
   44.9180   33.8950   45.9180 H   0  0  0  0  0  0  0  0  0  0  0  0
   43.7430   35.8700   45.2000 H   0  0  0  0  0  0  0  0  0  0  0  0
   44.4190   37.0650   43.1530 H   0  0  0  0  0  0  0  0  0  0  0  0
   46.2730   36.2300   41.8740 H   0  0  0  0  0  0  0  0  0  0  0  0
   48.0470   34.0820   42.0790 S   0  0  0  0  0  0  0  0  0  0  0  0
   49.3950   34.4710   42.6450 O   0  0  0  0  0  0  0  0  0  0  0  0
   47.9680   34.8460   40.7660 O   0  0  0  0  0  0  0  0  0  0  0  0
   48.0690   32.7580   41.8030 H   0  0  0  0  0  0  0  0  0  0  0  0
   49.3770   30.4240   50.0760 C   0  0  0  0  0  0  0  0  0  0  0  0
   49.5460   29.3290   50.1350 H   0  0  0  0  0  0  0  0  0  0  0  0
   48.7690   30.7400   50.9500 H   0  0  0  0  0  0  0  0  0  0  0  0
   50.8690   32.1090   51.1240 C   0  0  0  0  0  3  0  0  0  0  0  0
   50.6420   31.1930   50.1180 C   0  0  0  0  0  0  0  0  0  0  0  0
   51.5720   30.9470   49.1070 C   0  0  0  0  0  0  0  0  0  0  0  0
   51.3590   30.2310   48.3500 H   0  0  0  0  0  0  0  0  0  0  0  0
   52.7390   31.6810   49.1790 C   0  0  0  0  0  0  0  0  0  0  0  0
   53.0100   32.6060   50.1660 C   0  0  0  0  0  0  0  0  0  0  0  0
   52.0550   32.8150   51.1470 C   0  0  0  0  0  3  0  0  0  0  0  0
   54.2580   33.1400   49.9200 O   0  0  0  0  0  0  0  0  0  0  0  0
   54.7080   32.6510   48.6700 C   0  0  0  0  0  3  0  0  0  0  0  0
   55.7360   32.2200   48.7330 H   0  0  0  0  0  0  0  0  0  0  0  0
   53.8150   31.6240   48.3040 O   0  0  0  0  0  0  0  0  0  0  0  0
  1  6  1  0  0  0  0
  2  3  1  0  0  0  0
  2  1  2  0  0  0  0
  3  4  2  0  0  0  0
  4  5  1  0  0  0  0
  5 29  1  0  0  0  0
  6  5  2  0  0  0  0
  7  1  1  0  0  0  0
  8  3  1  0  0  0  0
  9 11  1  0  0  0  0
  9  2  1  0  0  0  0
 10  9  1  0  0  0  0
 12 13  1  0  0  0  0
 12  9  1  0  0  0  0
 14 12  1  0  0  0  0
 15 16  1  0  0  0  0
 16 12  1  0  0  0  0
 16 17  2  0  0  0  0
 17 21  1  0  0  0  0
 18 17  1  0  0  0  0
 18 22  1  0  0  0  0
 19 18  2  0  0  0  0
 20 15  2  0  0  0  0
 20 19  1  0  0  0  0
 23 19  1  0  0  0  0
 24 20  1  0  0  0  0
 25 26  2  0  0  0  0
 25 15  1  0  0  0  0
 27 25  2  0  0  0  0
 28 25  1  0  0  0  0
 29 33  1  0  0  0  0
 29 30  1  0  0  0  0
 29 31  1  0  0  0  0
 32 38  1  0  0  0  0
 33 32  2  0  0  0  0
 34 36  2  0  0  0  0
 34 33  1  0  0  0  0
 35 34  1  0  0  0  0
 36 37  1  0  0  0  0
 37 38  2  0  0  0  0
 39 37  1  0  0  0  0
 40 41  1  0  0  0  0
 40 39  1  0  0  0  0
 42 40  1  0  0  0  0
 42 36  1  0  0  0  0
M  END
>  <minimizedAffinity>
-6.02368784

>  <minimizedRMSD>
1.17031801

$$$$
