
 OpenBabel03242517533D

 40 43  0  0  0  0  0  0  0  0999 V2000
   45.2790   34.2620   43.9350 C   0  0  0  0  0  0  0  0  0  0  0  0
   46.2480   34.7980   43.0580 C   0  0  0  0  0  0  0  0  0  0  0  0
   47.5250   34.2710   43.0450 C   0  0  0  0  0  0  0  0  0  0  0  0
   47.7320   33.2610   43.9000 N   0  0  0  0  0  0  0  0  0  0  0  0
   46.8370   32.7520   44.7230 C   0  0  0  0  0  0  0  0  0  0  0  0
   45.6030   33.2600   44.7370 N   0  0  0  0  0  0  0  0  0  0  0  0
   44.3080   34.7270   43.8860 H   0  0  0  0  0  0  0  0  0  0  0  0
   46.0070   35.6150   42.3960 H   0  0  0  0  0  0  0  0  0  0  0  0
   48.6010   34.7580   42.1710 C   0  0  0  0  0  0  0  0  0  0  0  0
   49.1230   35.6060   42.6570 H   0  0  0  0  0  0  0  0  0  0  0  0
   49.3320   33.9660   42.0140 H   0  0  0  0  0  0  0  0  0  0  0  0
   48.0850   35.1340   40.7950 C   0  0  0  0  0  0  0  0  0  0  0  0
   48.4380   36.1420   40.5110 H   0  0  0  0  0  0  0  0  0  0  0  0
   46.9790   35.2060   40.8980 H   0  0  0  0  0  0  0  0  0  0  0  0
   48.3350   34.5670   38.4560 C   0  0  0  0  0  3  0  0  0  0  0  0
   48.4160   34.1290   39.7730 C   0  0  0  0  0  0  0  0  0  0  0  0
   48.7900   32.8180   39.9780 C   0  0  0  0  0  0  0  0  0  0  0  0
   48.8450   32.5040   41.0090 H   0  0  0  0  0  0  0  0  0  0  0  0
   49.0770   31.9650   38.9370 C   0  0  0  0  0  0  0  0  0  0  0  0
   48.9840   32.4470   37.6340 C   0  0  0  0  0  0  0  0  0  0  0  0
   48.6100   33.7620   37.3700 C   0  0  0  0  0  3  0  0  0  0  0  0
   49.3280   31.3680   36.7980 O   0  0  0  0  0  0  0  0  0  0  0  0
   49.3310   30.1640   37.5430 C   0  0  0  0  0  3  0  0  0  0  0  0
   50.1400   29.4690   37.2490 H   0  0  0  0  0  0  0  0  0  0  0  0
   49.4680   30.6350   38.8670 O   0  0  0  0  0  0  0  0  0  0  0  0
   47.1000   31.7080   45.5890 O   0  0  0  0  0  0  0  0  0  0  0  0
   45.5970   30.3800   47.0560 C   0  0  0  0  0  0  0  0  0  0  0  0
   46.4080   31.4360   46.7580 C   0  0  0  0  0  0  0  0  0  0  0  0
   46.5910   32.3990   47.7440 C   0  0  0  0  0  0  0  0  0  0  0  0
   45.9720   32.2910   48.9860 C   0  0  0  0  0  0  0  0  0  0  0  0
   45.1630   31.2140   49.2490 C   0  0  0  0  0  0  0  0  0  0  0  0
   44.9780   30.2510   48.2680 C   0  0  0  0  0  0  0  0  0  0  0  0
   47.2120   33.2760   47.6170 H   0  0  0  0  0  0  0  0  0  0  0  0
   46.1320   33.0660   49.7510 H   0  0  0  0  0  0  0  0  0  0  0  0
   44.6560   31.0800   50.1990 H   0  0  0  0  0  0  0  0  0  0  0  0
   44.3610   29.3710   48.3820 H   0  0  0  0  0  0  0  0  0  0  0  0
   45.4230   29.2200   45.7640 S   0  0  0  0  0  0  0  0  0  0  0  0
   44.7100   29.8120   44.5770 O   0  0  0  0  0  0  0  0  0  0  0  0
   44.5070   28.1120   46.2710 O   0  0  0  0  0  0  0  0  0  0  0  0
   46.6330   28.7060   45.3480 H   0  0  0  0  0  0  0  0  0  0  0  0
  1  6  1  0  0  0  0
  2  1  2  0  0  0  0
  3  2  1  0  0  0  0
  3  4  2  0  0  0  0
  4  5  1  0  0  0  0
  5  6  2  0  0  0  0
  5 26  1  0  0  0  0
  7  1  1  0  0  0  0
  8  2  1  0  0  0  0
  9 10  1  0  0  0  0
  9  3  1  0  0  0  0
 11  9  1  0  0  0  0
 12 14  1  0  0  0  0
 12  9  1  0  0  0  0
 13 12  1  0  0  0  0
 15 16  1  0  0  0  0
 16 17  2  0  0  0  0
 16 12  1  0  0  0  0
 17 18  1  0  0  0  0
 19 17  1  0  0  0  0
 20 19  2  0  0  0  0
 21 20  1  0  0  0  0
 21 15  2  0  0  0  0
 22 23  1  0  0  0  0
 22 20  1  0  0  0  0
 23 25  1  0  0  0  0
 24 23  1  0  0  0  0
 25 19  1  0  0  0  0
 26 28  1  0  0  0  0
 27 32  1  0  0  0  0
 28 27  2  0  0  0  0
 28 29  1  0  0  0  0
 29 30  2  0  0  0  0
 30 31  1  0  0  0  0
 30 34  1  0  0  0  0
 31 35  1  0  0  0  0
 32 36  1  0  0  0  0
 32 31  2  0  0  0  0
 33 29  1  0  0  0  0
 37 39  2  0  0  0  0
 37 27  1  0  0  0  0
 38 37  2  0  0  0  0
 40 37  1  0  0  0  0
M  END
>  <minimizedAffinity>
-5.70830822

>  <minimizedRMSD>
1.4967829

$$$$
