
 OpenBabel03242522403D

 42 45  0  0  0  0  0  0  0  0999 V2000
   47.3390   32.2530   47.8150 C   0  0  0  0  0  0  0  0  0  0  0  0
   47.0890   31.2900   46.8000 C   0  0  0  0  0  0  0  0  0  0  0  0
   47.6730   30.0330   46.9470 C   0  0  0  0  0  0  0  0  0  0  0  0
   48.4460   29.8010   48.0520 N   0  0  0  0  0  0  0  0  0  0  0  0
   48.6470   30.7310   48.9710 C   0  0  0  0  0  0  0  0  0  0  0  0
   48.1070   31.9420   48.8620 N   0  0  0  0  0  0  0  0  0  0  0  0
   46.9310   33.2430   47.7820 H   0  0  0  0  0  0  0  0  0  0  0  0
   47.5000   29.2830   46.1910 H   0  0  0  0  0  0  0  0  0  0  0  0
   46.2410   31.6440   45.6600 C   0  0  0  0  0  0  0  0  0  0  0  0
   46.1490   30.7080   45.0320 H   0  0  0  0  0  0  0  0  0  0  0  0
   45.2090   31.9120   45.8930 H   0  0  0  0  0  0  0  0  0  0  0  0
   46.9910   32.6600   44.8270 C   0  0  0  0  0  0  0  0  0  0  0  0
   47.9210   33.0200   45.3560 H   0  0  0  0  0  0  0  0  0  0  0  0
   47.3950   32.1920   43.8950 H   0  0  0  0  0  0  0  0  0  0  0  0
   46.5040   34.5050   43.2840 C   0  0  0  0  0  0  0  0  0  0  0  0
   46.2380   33.8620   44.4800 C   0  0  0  0  0  0  0  0  0  0  0  0
   45.2960   34.3000   45.3600 C   0  0  0  0  0  0  0  0  0  0  0  0
   44.5740   35.4330   45.0470 C   0  0  0  0  0  0  0  0  0  0  0  0
   44.7800   36.1240   43.8850 C   0  0  0  0  0  0  0  0  0  0  0  0
   45.7530   35.6220   43.0350 C   0  0  0  0  0  0  0  0  0  0  0  0
   45.0200   33.8780   46.3000 H   0  0  0  0  0  0  0  0  0  0  0  0
   43.7960   35.8600   45.6940 H   0  0  0  0  0  0  0  0  0  0  0  0
   44.2530   37.0230   43.5690 H   0  0  0  0  0  0  0  0  0  0  0  0
   45.9410   36.1490   42.1010 H   0  0  0  0  0  0  0  0  0  0  0  0
   47.7010   33.9790   42.1330 S   0  0  0  0  0  0  0  0  0  0  0  0
   49.0960   34.4470   42.4860 O   0  0  0  0  0  0  0  0  0  0  0  0
   47.4190   34.6480   40.7960 O   0  0  0  0  0  0  0  0  0  0  0  0
   47.7370   32.6410   41.9420 H   0  0  0  0  0  0  0  0  0  0  0  0
   49.4960   30.3720   50.1610 C   0  0  0  0  0  0  0  0  0  0  0  0
   49.1090   29.4710   50.6810 H   0  0  0  0  0  0  0  0  0  0  0  0
   49.4280   31.2390   50.8500 H   0  0  0  0  0  0  0  0  0  0  0  0
   51.5600   29.0170   49.9050 C   0  0  0  0  0  3  0  0  0  0  0  0
   50.9180   30.2300   49.7710 C   0  0  0  0  0  0  0  0  0  0  0  0
   51.5610   31.3640   49.2720 C   0  0  0  0  0  0  0  0  0  0  0  0
   51.0290   32.2820   49.1840 H   0  0  0  0  0  0  0  0  0  0  0  0
   52.8830   31.1930   48.9190 C   0  0  0  0  0  0  0  0  0  0  0  0
   53.5660   30.0000   49.0350 C   0  0  0  0  0  0  0  0  0  0  0  0
   52.8850   28.9020   49.5360 C   0  0  0  0  0  3  0  0  0  0  0  0
   54.8580   30.2010   48.5920 O   0  0  0  0  0  0  0  0  0  0  0  0
   55.0270   31.5840   48.3400 C   0  0  0  0  0  3  0  0  0  0  0  0
   55.4510   31.7770   47.3250 H   0  0  0  0  0  0  0  0  0  0  0  0
   53.7390   32.1560   48.4000 O   0  0  0  0  0  0  0  0  0  0  0  0
  1  6  1  0  0  0  0
  2  3  1  0  0  0  0
  2  1  2  0  0  0  0
  3  4  2  0  0  0  0
  4  5  1  0  0  0  0
  5 29  1  0  0  0  0
  6  5  2  0  0  0  0
  7  1  1  0  0  0  0
  8  3  1  0  0  0  0
  9 11  1  0  0  0  0
  9  2  1  0  0  0  0
 10  9  1  0  0  0  0
 12 13  1  0  0  0  0
 12  9  1  0  0  0  0
 14 12  1  0  0  0  0
 15 16  1  0  0  0  0
 16 12  1  0  0  0  0
 16 17  2  0  0  0  0
 17 21  1  0  0  0  0
 18 17  1  0  0  0  0
 18 22  1  0  0  0  0
 19 18  2  0  0  0  0
 20 15  2  0  0  0  0
 20 19  1  0  0  0  0
 23 19  1  0  0  0  0
 24 20  1  0  0  0  0
 25 26  2  0  0  0  0
 25 15  1  0  0  0  0
 27 25  2  0  0  0  0
 28 25  1  0  0  0  0
 29 30  1  0  0  0  0
 29 31  1  0  0  0  0
 33 32  1  0  0  0  0
 33 29  1  0  0  0  0
 34 33  2  0  0  0  0
 35 34  1  0  0  0  0
 36 37  2  0  0  0  0
 36 34  1  0  0  0  0
 37 38  1  0  0  0  0
 38 32  2  0  0  0  0
 39 37  1  0  0  0  0
 40 42  1  0  0  0  0
 40 39  1  0  0  0  0
 41 40  1  0  0  0  0
 42 36  1  0  0  0  0
M  END
>  <minimizedAffinity>
-5.55215025

>  <minimizedRMSD>
0.534780443

$$$$
