
     RDKit          3D

 45 48  0  0  0  0  0  0  0  0999 V2000
   46.9849   32.6839   44.8713 C   0  0  0  0  0  0  0  0  0  0  0  0
   46.5003   34.5092   43.3047 C   0  0  0  0  0  0  0  0  0  0  0  0
   46.2315   33.8795   44.5077 C   0  0  0  0  0  0  0  0  0  0  0  0
   45.2849   34.3269   45.3792 C   0  0  0  0  0  0  0  0  0  0  0  0
   44.5625   35.4552   45.0504 C   0  0  0  0  0  0  0  0  0  0  0  0
   44.7709   36.1315   43.8800 C   0  0  0  0  0  0  0  0  0  0  0  0
   45.7480   35.6223   43.0403 C   0  0  0  0  0  0  0  0  0  0  0  0
   47.7018   33.9716   42.1639 S   0  0  0  0  0  0  0  0  0  0  0  0
   49.0973   34.4325   42.5252 O   0  0  0  0  0  0  0  0  0  0  0  0
   47.4334   34.6380   40.8231 O   0  0  0  0  0  0  0  0  0  0  0  0
   46.2259   31.6651   45.6930 C   0  0  0  0  0  0  0  0  0  0  0  0
   47.4085   32.2654   47.8061 C   0  0  0  0  0  0  0  0  0  0  0  0
   47.0720   31.2899   46.8275 C   0  0  0  0  0  0  0  0  0  0  0  0
   47.5714   30.0009   47.0058 C   0  0  0  0  0  0  0  0  0  0  0  0
   48.3493   29.7519   48.1037 N   0  0  0  0  0  0  0  0  0  0  0  0
   48.6333   30.6952   48.9867 C   0  0  0  0  0  0  0  0  0  0  0  0
   48.1748   31.9357   48.8482 N   0  0  0  0  0  0  0  0  0  0  0  0
   49.4803   30.3163   50.1732 C   0  0  0  0  0  0  0  0  0  0  0  0
   47.9033   33.0515   45.4174 H   0  0  0  0  0  0  0  0  0  0  0  0
   47.4092   32.2161   43.9481 H   0  0  0  0  0  0  0  0  0  0  0  0
   45.0073   33.9164   46.3229 H   0  0  0  0  0  0  0  0  0  0  0  0
   43.7814   35.8880   45.6891 H   0  0  0  0  0  0  0  0  0  0  0  0
   44.2429   37.0259   43.5516 H   0  0  0  0  0  0  0  0  0  0  0  0
   45.9385   36.1378   42.1002 H   0  0  0  0  0  0  0  0  0  0  0  0
   47.7312   32.6326   41.9778 H   0  0  0  0  0  0  0  0  0  0  0  0
   46.1258   30.7366   45.0542 H   0  0  0  0  0  0  0  0  0  0  0  0
   45.1972   31.9396   45.9304 H   0  0  0  0  0  0  0  0  0  0  0  0
   47.0683   33.2799   47.7473 H   0  0  0  0  0  0  0  0  0  0  0  0
   47.3323   29.2408   46.2785 H   0  0  0  0  0  0  0  0  0  0  0  0
   49.2535   29.2871   50.5232 H   0  0  0  0  0  0  0  0  0  0  0  0
   49.2096   31.0340   50.9751 H   0  0  0  0  0  0  0  0  0  0  0  0
   51.8724   30.2181   50.8294 C   0  0  0  0  0  0  0  0  0  0  0  0
   50.9178   30.5066   49.8763 C   0  0  0  0  0  0  0  0  0  0  0  0
   51.2510   30.9836   48.6072 C   0  0  0  0  0  0  0  0  0  0  0  0
   50.4849   31.1946   47.8993 H   0  0  0  0  0  0  0  0  0  0  0  0
   52.5997   31.1485   48.3666 C   0  0  0  0  0  0  0  0  0  0  0  0
   53.5880   30.8730   49.2890 C   0  0  0  0  0  0  0  0  0  0  0  0
   53.2073   30.4018   50.5345 C   0  0  0  0  0  0  0  0  0  0  0  0
   54.8076   31.1540   48.7060 O   0  0  0  0  0  0  0  0  0  0  0  0
   54.5652   31.7632   47.4511 C   0  0  2  0  0  0  0  0  0  0  0  0
   55.1367   31.2700   46.6281 H   0  0  0  0  0  0  0  0  0  0  0  0
   53.1883   31.6052   47.1949 O   0  0  0  0  0  0  0  0  0  0  0  0
   51.5093   29.8493   51.7936 H   0  0  0  0  0  0  0  0  0  0  0  0
   53.9418   30.1695   51.2963 H   0  0  0  0  0  0  0  0  0  0  0  0
   54.7892   32.8594   47.4928 H   0  0  0  0  0  0  0  0  0  0  0  0
  1 11  1  0
  2  3  2  0
  3  1  1  0
  3  4  1  0
  5  4  2  0
  6  5  1  0
  7  2  1  0
  7  6  2  0
  8  9  2  0
  8  2  1  0
 10  8  2  0
 11 13  1  0
 12 17  2  0
 13 14  2  0
 13 12  1  0
 14 15  1  0
 15 16  2  0
 16 18  1  0
 17 16  1  0
  1 19  1  0
  1 20  1  0
  4 21  1  0
  5 22  1  0
  6 23  1  0
  7 24  1  0
  8 25  1  0
 11 26  1  0
 11 27  1  0
 12 28  1  0
 14 29  1  0
 18 30  1  0
 18 31  1  0
 32 33  2  0
 33 34  1  0
 34 35  1  0
 34 36  2  0
 36 37  1  0
 37 38  2  0
 37 39  1  0
 39 40  1  0
 40 41  1  6
 40 42  1  0
 38 32  1  0
 42 36  1  0
 32 43  1  0
 38 44  1  0
 40 45  1  0
 18 33  1  0
M  ISO  8  19   8  20   8  21  14  22  14  23  14  24  14  25  11  26   8
M  ISO  7  27   8  28  14  29  14  30   8  31   8  35  16  41   8
M  END
>  <DihAtoms>  (1) 
15,17,32,31

>  <DihDeg>  (1) 
89.99983044676804

$$$$
