
 OpenBabel03252503203D

 41 45  0  0  0  0  0  0  0  0999 V2000
   44.4010   34.2000   41.9980 C   0  0  0  0  0  0  0  0  0  0  0  0
   44.4690   33.8550   43.3150 C   0  0  0  0  0  0  0  0  0  0  0  0
   44.6920   35.0040   43.9910 N   0  0  0  0  0  0  0  0  0  0  0  0
   44.7570   36.0100   43.1180 C   0  0  0  0  0  0  0  0  0  0  0  0
   44.5770   35.5160   41.8900 N   0  0  0  0  0  0  0  0  0  0  0  0
   44.9720   37.3960   43.3220 N   0  0  0  0  0  0  0  0  0  0  0  0
   44.3670   32.8670   43.7430 H   0  0  0  0  0  0  0  0  0  0  0  0
   44.3290   38.1770   43.6270 H   0  0  0  0  0  0  0  0  0  0  0  0
   45.8630   37.9160   43.1960 H   0  0  0  0  0  0  0  0  0  0  0  0
   44.8460   35.1890   45.4240 C   0  0  0  0  0  0  0  0  0  0  0  0
   45.5890   35.9810   45.6340 H   0  0  0  0  0  0  0  0  0  0  0  0
   43.8980   35.4320   45.9210 H   0  0  0  0  0  0  0  0  0  0  0  0
   44.9080   33.5780   47.2510 C   0  0  0  0  0  3  0  0  0  0  0  0
   45.4040   33.9390   46.0080 C   0  0  0  0  0  0  0  0  0  0  0  0
   46.3530   33.1060   45.4560 C   0  0  0  0  0  0  0  0  0  0  0  0
   46.7200   33.4140   44.4870 H   0  0  0  0  0  0  0  0  0  0  0  0
   46.7540   31.9810   46.1470 C   0  0  0  0  0  0  0  0  0  0  0  0
   46.2510   31.6380   47.3810 C   0  0  0  0  0  0  0  0  0  0  0  0
   45.3040   32.4590   47.9450 C   0  0  0  0  0  3  0  0  0  0  0  0
   46.8880   30.4450   47.7680 O   0  0  0  0  0  0  0  0  0  0  0  0
   47.5430   29.8840   46.6560 C   0  0  0  0  0  3  0  0  0  0  0  0
   48.5170   29.4290   46.9160 H   0  0  0  0  0  0  0  0  0  0  0  0
   47.6810   31.0040   45.8010 O   0  0  0  0  0  0  0  0  0  0  0  0
   44.1670   33.2880   40.8320 C   0  0  0  0  0  0  0  0  0  0  0  0
   44.7780   33.3560   39.7250 O   0  0  0  0  0  0  0  0  0  0  0  0
   43.5940   30.9440   41.2460 C   0  0  0  0  0  0  0  0  0  0  0  0
   43.1990   32.2580   40.9270 C   0  0  0  0  0  0  0  0  0  0  0  0
   41.8340   32.4070   40.7310 C   0  0  0  0  0  0  0  0  0  0  0  0
   40.9640   31.4050   40.8320 N   0  0  0  0  0  0  0  0  0  0  0  0
   41.4070   30.1550   41.1440 C   0  0  0  0  0  0  0  0  0  0  0  0
   42.7080   29.9380   41.3470 N   0  0  0  0  0  0  0  0  0  0  0  0
   44.6350   30.6990   41.4240 H   0  0  0  0  0  0  0  0  0  0  0  0
   40.6430   29.3840   41.2100 H   0  0  0  0  0  0  0  0  0  0  0  0
   41.3480   33.7090   40.3990 C   0  0  0  0  0  0  0  0  0  0  0  0
   41.2730   34.4620   39.2750 C   0  0  0  0  0  0  0  0  0  0  0  0
   40.7600   35.6700   39.2550 C   0  0  0  0  0  0  0  0  0  0  0  0
   40.3050   36.1310   40.4270 C   0  0  0  0  0  0  0  0  0  0  0  0
   40.6160   34.7930   41.6160 S   0  0  0  0  0  0  0  0  0  0  0  0
   41.6880   33.9510   38.3820 H   0  0  0  0  0  0  0  0  0  0  0  0
   40.6710   36.3160   38.3910 H   0  0  0  0  0  0  0  0  0  0  0  0
   39.8120   37.1480   40.6810 H   0  0  0  0  0  0  0  0  0  0  0  0
  1  2  2  0  0  0  0
  2  7  1  0  0  0  0
  2  3  1  0  0  0  0
  3 10  1  0  0  0  0
  4  6  1  0  0  0  0
  4  3  1  0  0  0  0
  5  1  1  0  0  0  0
  5  4  2  0  0  0  0
  6  8  1  0  0  0  0
  9  6  1  0  0  0  0
 10 11  1  0  0  0  0
 10 12  1  0  0  0  0
 10 14  1  0  0  0  0
 13 19  1  0  0  0  0
 14 13  2  0  0  0  0
 15 14  1  0  0  0  0
 15 17  2  0  0  0  0
 16 15  1  0  0  0  0
 17 18  1  0  0  0  0
 18 20  1  0  0  0  0
 18 19  2  0  0  0  0
 21 22  1  0  0  0  0
 21 20  1  0  0  0  0
 23 17  1  0  0  0  0
 23 21  1  0  0  0  0
 24 27  1  0  0  0  0
 24  1  1  0  0  0  0
 25 24  2  0  0  0  0
 26 31  1  0  0  0  0
 26 32  1  0  0  0  0
 27 26  2  0  0  0  0
 28 29  2  0  0  0  0
 28 27  1  0  0  0  0
 29 30  1  0  0  0  0
 30 33  1  0  0  0  0
 30 31  2  0  0  0  0
 34 28  1  0  0  0  0
 34 38  1  0  0  0  0
 35 34  2  0  0  0  0
 36 35  1  0  0  0  0
 36 37  2  0  0  0  0
 37 41  1  0  0  0  0
 37 38  1  0  0  0  0
 39 35  1  0  0  0  0
 40 36  1  0  0  0  0
M  END
>  <minimizedAffinity>
-5.94954872

>  <minimizedRMSD>
8.53831005

$$$$
