
 OpenBabel03242517533D

 40 43  0  0  0  0  0  0  0  0999 V2000
   45.6740   34.3220   44.0570 C   0  0  0  0  0  0  0  0  0  0  0  0
   46.6360   34.6690   43.0830 C   0  0  0  0  0  0  0  0  0  0  0  0
   47.7990   33.9300   42.9780 C   0  0  0  0  0  0  0  0  0  0  0  0
   47.9070   32.9140   43.8430 N   0  0  0  0  0  0  0  0  0  0  0  0
   47.0170   32.5800   44.7550 C   0  0  0  0  0  0  0  0  0  0  0  0
   45.8930   33.2930   44.8590 N   0  0  0  0  0  0  0  0  0  0  0  0
   44.7950   34.9470   44.0770 H   0  0  0  0  0  0  0  0  0  0  0  0
   46.4790   35.5040   42.4190 H   0  0  0  0  0  0  0  0  0  0  0  0
   48.8590   34.2100   41.9990 C   0  0  0  0  0  0  0  0  0  0  0  0
   49.7670   34.5670   42.5230 H   0  0  0  0  0  0  0  0  0  0  0  0
   49.1200   33.2940   41.4700 H   0  0  0  0  0  0  0  0  0  0  0  0
   48.4030   35.1940   40.9380 C   0  0  0  0  0  0  0  0  0  0  0  0
   49.1850   35.9520   40.7500 H   0  0  0  0  0  0  0  0  0  0  0  0
   47.5400   35.7370   41.3820 H   0  0  0  0  0  0  0  0  0  0  0  0
   48.6990   34.8650   38.5600 C   0  0  0  0  0  0  0  0  0  0  0  0
   47.9740   34.5300   39.6970 C   0  0  0  0  0  0  0  0  0  0  0  0
   46.9460   33.6240   39.5440 C   0  0  0  0  0  0  0  0  0  0  0  0
   46.4000   33.3820   40.4440 H   0  0  0  0  0  0  0  0  0  0  0  0
   46.6350   33.0650   38.3250 C   0  0  0  0  0  0  0  0  0  0  0  0
   47.3870   33.4290   37.2120 C   0  0  0  0  0  0  0  0  0  0  0  0
   48.4360   34.3390   37.3110 C   0  0  0  0  0  0  0  0  0  0  0  0
   46.8470   32.7090   36.1290 O   0  0  0  0  0  0  0  0  0  0  0  0
   45.5970   32.1560   36.4960 C   0  0  0  0  0  0  0  0  0  0  0  0
   45.4260   31.1460   36.0750 H   0  0  0  0  0  0  0  0  0  0  0  0
   45.6760   32.1540   37.9060 O   0  0  0  0  0  0  0  0  0  0  0  0
   47.1750   31.5200   45.6280 O   0  0  0  0  0  0  0  0  0  0  0  0
   45.5780   30.3310   47.1140 C   0  0  0  0  0  0  0  0  0  0  0  0
   46.4580   31.3240   46.7970 C   0  0  0  0  0  0  0  0  0  0  0  0
   46.6940   32.2990   47.7590 C   0  0  0  0  0  0  0  0  0  0  0  0
   46.0600   32.2640   48.9980 C   0  0  0  0  0  0  0  0  0  0  0  0
   45.1810   31.2480   49.2810 C   0  0  0  0  0  0  0  0  0  0  0  0
   44.9430   30.2740   48.3230 C   0  0  0  0  0  0  0  0  0  0  0  0
   47.3720   33.1310   47.6160 H   0  0  0  0  0  0  0  0  0  0  0  0
   46.2640   33.0470   49.7440 H   0  0  0  0  0  0  0  0  0  0  0  0
   44.6600   31.1730   50.2290 H   0  0  0  0  0  0  0  0  0  0  0  0
   44.2700   29.4380   48.4540 H   0  0  0  0  0  0  0  0  0  0  0  0
   45.3400   29.1510   45.8510 S   0  0  0  0  0  0  0  0  0  0  0  0
   44.7080   29.7630   44.6290 O   0  0  0  0  0  0  0  0  0  0  0  0
   44.3230   28.1380   46.3640 O   0  0  0  0  0  0  0  0  0  0  0  0
   46.5130   28.5270   45.4820 H   0  0  0  0  0  0  0  0  0  0  0  0
  1  7  1  0  0  0  0
  1  6  1  0  0  0  0
  2  1  2  0  0  0  0
  3  2  1  0  0  0  0
  3  4  2  0  0  0  0
  4  5  1  0  0  0  0
  5  6  2  0  0  0  0
  5 26  1  0  0  0  0
  8  2  1  0  0  0  0
  9 10  1  0  0  0  0
  9  3  1  0  0  0  0
 11  9  1  0  0  0  0
 12 14  1  0  0  0  0
 12  9  1  0  0  0  0
 13 12  1  0  0  0  0
 15 16  1  0  0  0  0
 16 12  1  0  0  0  0
 17 16  2  0  0  0  0
 17 18  1  0  0  0  0
 19 17  1  0  0  0  0
 20 21  1  0  0  0  0
 20 19  2  0  0  0  0
 21 15  2  0  0  0  0
 22 23  1  0  0  0  0
 22 20  1  0  0  0  0
 23 25  1  0  0  0  0
 24 23  1  0  0  0  0
 25 19  1  0  0  0  0
 26 28  1  0  0  0  0
 27 32  1  0  0  0  0
 28 27  2  0  0  0  0
 28 29  1  0  0  0  0
 29 30  2  0  0  0  0
 30 31  1  0  0  0  0
 30 34  1  0  0  0  0
 31 35  1  0  0  0  0
 32 36  1  0  0  0  0
 32 31  2  0  0  0  0
 33 29  1  0  0  0  0
 37 39  2  0  0  0  0
 37 27  1  0  0  0  0
 38 37  2  0  0  0  0
 40 37  1  0  0  0  0
M  END
>  <minimizedAffinity>
-6.05668211

>  <minimizedRMSD>
1.85665345

$$$$
