
 OpenBabel03242522403D

 42 45  0  0  0  0  0  0  0  0999 V2000
   46.9840   31.7730   48.1990 C   0  0  0  0  0  0  0  0  0  0  0  0
   47.1410   31.1690   46.9220 C   0  0  0  0  0  0  0  0  0  0  0  0
   48.1680   30.2390   46.7720 C   0  0  0  0  0  0  0  0  0  0  0  0
   48.9590   29.9640   47.8550 N   0  0  0  0  0  0  0  0  0  0  0  0
   48.7710   30.5530   49.0240 C   0  0  0  0  0  0  0  0  0  0  0  0
   47.8020   31.4470   49.2030 N   0  0  0  0  0  0  0  0  0  0  0  0
   46.2210   32.4980   48.4020 H   0  0  0  0  0  0  0  0  0  0  0  0
   48.3110   29.7650   45.8140 H   0  0  0  0  0  0  0  0  0  0  0  0
   46.2340   31.5330   45.8320 C   0  0  0  0  0  0  0  0  0  0  0  0
   46.1050   30.6020   45.2040 H   0  0  0  0  0  0  0  0  0  0  0  0
   45.2170   31.8040   46.1230 H   0  0  0  0  0  0  0  0  0  0  0  0
   46.9420   32.5530   44.9660 C   0  0  0  0  0  0  0  0  0  0  0  0
   47.9050   32.8990   45.4440 H   0  0  0  0  0  0  0  0  0  0  0  0
   47.2860   32.0910   44.0070 H   0  0  0  0  0  0  0  0  0  0  0  0
   46.3640   34.4050   43.4650 C   0  0  0  0  0  0  0  0  0  0  0  0
   46.1800   33.7640   44.6780 C   0  0  0  0  0  0  0  0  0  0  0  0
   45.3110   34.2120   45.6250 C   0  0  0  0  0  0  0  0  0  0  0  0
   44.5820   35.3550   45.3670 C   0  0  0  0  0  0  0  0  0  0  0  0
   44.7090   36.0440   44.1930 C   0  0  0  0  0  0  0  0  0  0  0  0
   45.6100   35.5320   43.2730 C   0  0  0  0  0  0  0  0  0  0  0  0
   45.1010   33.7930   46.5830 H   0  0  0  0  0  0  0  0  0  0  0  0
   43.8590   35.7900   46.0700 H   0  0  0  0  0  0  0  0  0  0  0  0
   44.1710   36.9500   43.9180 H   0  0  0  0  0  0  0  0  0  0  0  0
   45.7340   36.0580   42.3280 H   0  0  0  0  0  0  0  0  0  0  0  0
   47.4650   33.8660   42.2280 S   0  0  0  0  0  0  0  0  0  0  0  0
   48.8800   34.3540   42.4510 O   0  0  0  0  0  0  0  0  0  0  0  0
   47.0630   34.5040   40.9060 O   0  0  0  0  0  0  0  0  0  0  0  0
   47.5000   32.5250   42.0610 H   0  0  0  0  0  0  0  0  0  0  0  0
   49.6810   30.1680   50.1600 C   0  0  0  0  0  0  0  0  0  0  0  0
   50.3360   29.3150   49.8860 H   0  0  0  0  0  0  0  0  0  0  0  0
   49.0100   29.8520   50.9860 H   0  0  0  0  0  0  0  0  0  0  0  0
   50.6980   32.4040   49.8010 C   0  0  0  0  0  0  0  0  0  0  0  0
   50.4500   31.3380   50.6400 C   0  0  0  0  0  0  0  0  0  0  0  0
   50.9030   31.3080   51.9610 C   0  0  0  0  0  0  0  0  0  0  0  0
   50.6910   30.4670   52.5770 H   0  0  0  0  0  0  0  0  0  0  0  0
   51.6160   32.4150   52.3730 C   0  0  0  0  0  0  0  0  0  0  0  0
   51.8880   33.5010   51.5680 C   0  0  0  0  0  0  0  0  0  0  0  0
   51.4170   33.4850   50.2650 C   0  0  0  0  0  0  0  0  0  0  0  0
   52.6160   34.4110   52.3090 O   0  0  0  0  0  0  0  0  0  0  0  0
   52.9370   33.8110   53.5490 C   0  0  0  0  0  0  0  0  0  0  0  0
   52.6670   34.4640   54.4140 H   0  0  0  0  0  0  0  0  0  0  0  0
   52.1710   32.6300   53.6280 O   0  0  0  0  0  0  0  0  0  0  0  0
  1  7  1  0  0  0  0
  1  6  1  0  0  0  0
  2  1  2  0  0  0  0
  3  2  1  0  0  0  0
  3  4  2  0  0  0  0
  4  5  1  0  0  0  0
  5  6  2  0  0  0  0
  5 29  1  0  0  0  0
  8  3  1  0  0  0  0
  9 11  1  0  0  0  0
  9  2  1  0  0  0  0
 10  9  1  0  0  0  0
 12 13  1  0  0  0  0
 12  9  1  0  0  0  0
 14 12  1  0  0  0  0
 15 16  1  0  0  0  0
 16 12  1  0  0  0  0
 16 17  2  0  0  0  0
 17 21  1  0  0  0  0
 18 17  1  0  0  0  0
 18 22  1  0  0  0  0
 19 18  2  0  0  0  0
 20 15  2  0  0  0  0
 20 19  1  0  0  0  0
 23 19  1  0  0  0  0
 24 20  1  0  0  0  0
 25 26  2  0  0  0  0
 25 15  1  0  0  0  0
 27 25  2  0  0  0  0
 28 25  1  0  0  0  0
 29 33  1  0  0  0  0
 29 31  1  0  0  0  0
 30 29  1  0  0  0  0
 32 38  2  0  0  0  0
 32 33  1  0  0  0  0
 33 34  2  0  0  0  0
 34 36  1  0  0  0  0
 34 35  1  0  0  0  0
 36 42  1  0  0  0  0
 37 39  1  0  0  0  0
 37 36  2  0  0  0  0
 38 37  1  0  0  0  0
 39 40  1  0  0  0  0
 40 42  1  0  0  0  0
 40 41  1  0  0  0  0
M  END
>  <minimizedAffinity>
-6.34863186

>  <minimizedRMSD>
2.06573582

$$$$
