
 OpenBabel03242517533D

 40 43  0  0  0  0  0  0  0  0999 V2000
   45.2720   34.2630   43.8230 C   0  0  0  0  0  0  0  0  0  0  0  0
   46.2790   34.8640   43.0360 C   0  0  0  0  0  0  0  0  0  0  0  0
   47.5710   34.3790   43.0920 C   0  0  0  0  0  0  0  0  0  0  0  0
   47.7550   33.3440   43.9200 N   0  0  0  0  0  0  0  0  0  0  0  0
   46.8240   32.7740   44.6600 C   0  0  0  0  0  0  0  0  0  0  0  0
   45.5750   33.2410   44.6070 N   0  0  0  0  0  0  0  0  0  0  0  0
   44.2910   34.6990   43.7240 H   0  0  0  0  0  0  0  0  0  0  0  0
   46.0550   35.6990   42.3900 H   0  0  0  0  0  0  0  0  0  0  0  0
   48.6870   34.9360   42.3140 C   0  0  0  0  0  0  0  0  0  0  0  0
   49.0100   35.8980   42.7580 H   0  0  0  0  0  0  0  0  0  0  0  0
   49.5350   34.2530   42.3500 H   0  0  0  0  0  0  0  0  0  0  0  0
   48.3320   35.0890   40.8460 C   0  0  0  0  0  0  0  0  0  0  0  0
   49.0670   35.7370   40.3350 H   0  0  0  0  0  0  0  0  0  0  0  0
   47.3640   35.6370   40.8270 H   0  0  0  0  0  0  0  0  0  0  0  0
   47.0070   33.6490   39.4250 C   0  0  0  0  0  3  0  0  0  0  0  0
   48.1740   33.7960   40.1650 C   0  0  0  0  0  0  0  0  0  0  0  0
   49.0470   32.7280   40.1800 C   0  0  0  0  0  0  0  0  0  0  0  0
   49.9450   32.8680   40.7620 H   0  0  0  0  0  0  0  0  0  0  0  0
   48.7900   31.5600   39.4990 C   0  0  0  0  0  0  0  0  0  0  0  0
   47.6090   31.4560   38.7710 C   0  0  0  0  0  0  0  0  0  0  0  0
   46.6930   32.5040   38.7220 C   0  0  0  0  0  3  0  0  0  0  0  0
   47.6220   30.1740   38.1920 O   0  0  0  0  0  0  0  0  0  0  0  0
   48.6290   29.3850   38.7970 C   0  0  0  0  0  3  0  0  0  0  0  0
   49.1510   28.7190   38.0830 H   0  0  0  0  0  0  0  0  0  0  0  0
   49.4810   30.3650   39.3510 O   0  0  0  0  0  0  0  0  0  0  0  0
   47.0630   31.7040   45.5010 O   0  0  0  0  0  0  0  0  0  0  0  0
   45.5820   30.3920   47.0030 C   0  0  0  0  0  0  0  0  0  0  0  0
   46.3900   31.4430   46.6840 C   0  0  0  0  0  0  0  0  0  0  0  0
   46.5930   32.4120   47.6600 C   0  0  0  0  0  0  0  0  0  0  0  0
   45.9950   32.3150   48.9140 C   0  0  0  0  0  0  0  0  0  0  0  0
   45.1880   31.2420   49.1980 C   0  0  0  0  0  0  0  0  0  0  0  0
   44.9830   30.2730   48.2260 C   0  0  0  0  0  0  0  0  0  0  0  0
   47.2150   33.2860   47.5160 H   0  0  0  0  0  0  0  0  0  0  0  0
   46.1710   33.0950   49.6700 H   0  0  0  0  0  0  0  0  0  0  0  0
   44.6970   31.1170   50.1570 H   0  0  0  0  0  0  0  0  0  0  0  0
   44.3660   29.3960   48.3570 H   0  0  0  0  0  0  0  0  0  0  0  0
   45.3810   29.2240   45.7220 S   0  0  0  0  0  0  0  0  0  0  0  0
   44.6930   29.8230   44.5250 O   0  0  0  0  0  0  0  0  0  0  0  0
   44.4320   28.1480   46.2350 O   0  0  0  0  0  0  0  0  0  0  0  0
   46.5790   28.6710   45.3180 H   0  0  0  0  0  0  0  0  0  0  0  0
  1  6  1  0  0  0  0
  2  3  1  0  0  0  0
  2  1  2  0  0  0  0
  3  4  2  0  0  0  0
  4  5  1  0  0  0  0
  5 26  1  0  0  0  0
  6  5  2  0  0  0  0
  7  1  1  0  0  0  0
  8  2  1  0  0  0  0
  9 11  1  0  0  0  0
  9 10  1  0  0  0  0
  9  3  1  0  0  0  0
 12  9  1  0  0  0  0
 13 12  1  0  0  0  0
 14 12  1  0  0  0  0
 15 16  1  0  0  0  0
 16 17  2  0  0  0  0
 16 12  1  0  0  0  0
 17 18  1  0  0  0  0
 19 17  1  0  0  0  0
 20 19  2  0  0  0  0
 21 20  1  0  0  0  0
 21 15  2  0  0  0  0
 22 20  1  0  0  0  0
 22 23  1  0  0  0  0
 23 25  1  0  0  0  0
 24 23  1  0  0  0  0
 25 19  1  0  0  0  0
 26 28  1  0  0  0  0
 27 32  1  0  0  0  0
 28 27  2  0  0  0  0
 28 29  1  0  0  0  0
 29 30  2  0  0  0  0
 30 31  1  0  0  0  0
 30 34  1  0  0  0  0
 31 35  1  0  0  0  0
 32 36  1  0  0  0  0
 32 31  2  0  0  0  0
 33 29  1  0  0  0  0
 37 39  2  0  0  0  0
 37 27  1  0  0  0  0
 38 37  2  0  0  0  0
 40 37  1  0  0  0  0
M  END
>  <minimizedAffinity>
-5.45128298

>  <minimizedRMSD>
0.53070569

$$$$
