
 OpenBabel03242517533D

 40 43  0  0  0  0  0  0  0  0999 V2000
   45.2930   34.2670   43.8710 C   0  0  0  0  0  0  0  0  0  0  0  0
   46.3130   34.8420   43.0810 C   0  0  0  0  0  0  0  0  0  0  0  0
   47.5900   34.3140   43.1220 C   0  0  0  0  0  0  0  0  0  0  0  0
   47.7450   33.2650   43.9400 N   0  0  0  0  0  0  0  0  0  0  0  0
   46.8020   32.7190   44.6810 C   0  0  0  0  0  0  0  0  0  0  0  0
   45.5690   33.2280   44.6430 N   0  0  0  0  0  0  0  0  0  0  0  0
   44.3260   34.7360   43.7850 H   0  0  0  0  0  0  0  0  0  0  0  0
   46.1130   35.6900   42.4450 H   0  0  0  0  0  0  0  0  0  0  0  0
   48.7170   34.8410   42.3400 C   0  0  0  0  0  0  0  0  0  0  0  0
   49.1390   35.7320   42.8450 H   0  0  0  0  0  0  0  0  0  0  0  0
   49.5030   34.0900   42.2800 H   0  0  0  0  0  0  0  0  0  0  0  0
   48.3170   35.1460   40.9080 C   0  0  0  0  0  0  0  0  0  0  0  0
   49.0710   35.7950   40.4260 H   0  0  0  0  0  0  0  0  0  0  0  0
   47.3850   35.7490   40.9780 H   0  0  0  0  0  0  0  0  0  0  0  0
   49.0380   32.9500   40.1940 C   0  0  0  0  0  3  0  0  0  0  0  0
   48.0550   33.9310   40.1230 C   0  0  0  0  0  0  0  0  0  0  0  0
   46.9560   33.6640   39.3340 C   0  0  0  0  0  0  0  0  0  0  0  0
   46.2090   34.4430   39.2970 H   0  0  0  0  0  0  0  0  0  0  0  0
   46.8190   32.4830   38.6410 C   0  0  0  0  0  0  0  0  0  0  0  0
   47.8280   31.5290   38.7410 C   0  0  0  0  0  0  0  0  0  0  0  0
   48.9590   31.7470   39.5220 C   0  0  0  0  0  3  0  0  0  0  0  0
   47.4180   30.4480   37.9370 O   0  0  0  0  0  0  0  0  0  0  0  0
   46.3380   30.8450   37.1120 C   0  0  0  0  0  3  0  0  0  0  0  0
   45.5760   30.0540   36.9790 H   0  0  0  0  0  0  0  0  0  0  0  0
   45.8400   31.9740   37.7980 O   0  0  0  0  0  0  0  0  0  0  0  0
   47.0130   31.6350   45.5110 O   0  0  0  0  0  0  0  0  0  0  0  0
   45.5510   30.3550   47.0600 C   0  0  0  0  0  0  0  0  0  0  0  0
   46.3580   31.3970   46.7090 C   0  0  0  0  0  0  0  0  0  0  0  0
   46.5790   32.3830   47.6630 C   0  0  0  0  0  0  0  0  0  0  0  0
   46.0020   32.3110   48.9280 C   0  0  0  0  0  0  0  0  0  0  0  0
   45.1950   31.2460   49.2450 C   0  0  0  0  0  0  0  0  0  0  0  0
   44.9720   30.2600   48.2950 C   0  0  0  0  0  0  0  0  0  0  0  0
   47.2020   33.2530   47.4940 H   0  0  0  0  0  0  0  0  0  0  0  0
   46.1920   33.1030   49.6670 H   0  0  0  0  0  0  0  0  0  0  0  0
   44.7200   31.1400   50.2140 H   0  0  0  0  0  0  0  0  0  0  0  0
   44.3540   29.3880   48.4520 H   0  0  0  0  0  0  0  0  0  0  0  0
   45.3270   29.1640   45.8040 S   0  0  0  0  0  0  0  0  0  0  0  0
   44.6640   29.7550   44.5890 O   0  0  0  0  0  0  0  0  0  0  0  0
   44.3440   28.1270   46.3340 O   0  0  0  0  0  0  0  0  0  0  0  0
   46.5110   28.5690   45.4220 H   0  0  0  0  0  0  0  0  0  0  0  0
  1  6  1  0  0  0  0
  2  3  1  0  0  0  0
  2  1  2  0  0  0  0
  3  4  2  0  0  0  0
  4  5  1  0  0  0  0
  5 26  1  0  0  0  0
  6  5  2  0  0  0  0
  7  1  1  0  0  0  0
  8  2  1  0  0  0  0
  9 10  1  0  0  0  0
  9  3  1  0  0  0  0
 11  9  1  0  0  0  0
 12 14  1  0  0  0  0
 12  9  1  0  0  0  0
 13 12  1  0  0  0  0
 16 15  1  0  0  0  0
 16 12  1  0  0  0  0
 17 16  2  0  0  0  0
 18 17  1  0  0  0  0
 19 20  2  0  0  0  0
 19 17  1  0  0  0  0
 20 21  1  0  0  0  0
 21 15  2  0  0  0  0
 22 20  1  0  0  0  0
 23 25  1  0  0  0  0
 23 22  1  0  0  0  0
 24 23  1  0  0  0  0
 25 19  1  0  0  0  0
 26 28  1  0  0  0  0
 27 32  1  0  0  0  0
 28 27  2  0  0  0  0
 28 29  1  0  0  0  0
 29 30  2  0  0  0  0
 30 31  1  0  0  0  0
 30 34  1  0  0  0  0
 31 35  1  0  0  0  0
 32 36  1  0  0  0  0
 32 31  2  0  0  0  0
 33 29  1  0  0  0  0
 37 39  2  0  0  0  0
 37 27  1  0  0  0  0
 38 37  2  0  0  0  0
 40 37  1  0  0  0  0
M  END
>  <minimizedAffinity>
-5.58004236

>  <minimizedRMSD>
0.879897952

$$$$
