
 OpenBabel03242517533D

 40 43  0  0  0  0  0  0  0  0999 V2000
   45.2710   34.2560   43.8190 C   0  0  0  0  0  0  0  0  0  0  0  0
   46.2750   34.8600   43.0300 C   0  0  0  0  0  0  0  0  0  0  0  0
   47.5700   34.3830   43.0890 C   0  0  0  0  0  0  0  0  0  0  0  0
   47.7600   33.3520   43.9210 N   0  0  0  0  0  0  0  0  0  0  0  0
   46.8320   32.7790   44.6620 C   0  0  0  0  0  0  0  0  0  0  0  0
   45.5800   33.2380   44.6060 N   0  0  0  0  0  0  0  0  0  0  0  0
   44.2870   34.6850   43.7180 H   0  0  0  0  0  0  0  0  0  0  0  0
   46.0470   35.6920   42.3810 H   0  0  0  0  0  0  0  0  0  0  0  0
   48.6830   34.9440   42.3090 C   0  0  0  0  0  0  0  0  0  0  0  0
   49.0030   35.9080   42.7530 H   0  0  0  0  0  0  0  0  0  0  0  0
   49.5340   34.2640   42.3450 H   0  0  0  0  0  0  0  0  0  0  0  0
   48.3260   35.0940   40.8420 C   0  0  0  0  0  0  0  0  0  0  0  0
   49.0590   35.7440   40.3300 H   0  0  0  0  0  0  0  0  0  0  0  0
   47.3570   35.6390   40.8230 H   0  0  0  0  0  0  0  0  0  0  0  0
   47.0070   33.6510   39.4180 C   0  0  0  0  0  3  0  0  0  0  0  0
   48.1720   33.7990   40.1620 C   0  0  0  0  0  0  0  0  0  0  0  0
   49.0450   32.7320   40.1830 C   0  0  0  0  0  0  0  0  0  0  0  0
   49.9410   32.8740   40.7690 H   0  0  0  0  0  0  0  0  0  0  0  0
   48.7910   31.5620   39.5030 C   0  0  0  0  0  0  0  0  0  0  0  0
   47.6130   31.4570   38.7700 C   0  0  0  0  0  0  0  0  0  0  0  0
   46.6980   32.5050   38.7150 C   0  0  0  0  0  3  0  0  0  0  0  0
   47.6290   30.1740   38.1940 O   0  0  0  0  0  0  0  0  0  0  0  0
   48.6340   29.3860   38.8060 C   0  0  0  0  0  3  0  0  0  0  0  0
   49.1590   28.7190   38.0950 H   0  0  0  0  0  0  0  0  0  0  0  0
   49.4840   30.3680   39.3620 O   0  0  0  0  0  0  0  0  0  0  0  0
   47.0770   31.7140   45.5070 O   0  0  0  0  0  0  0  0  0  0  0  0
   45.5960   30.3910   47.0010 C   0  0  0  0  0  0  0  0  0  0  0  0
   46.3990   31.4480   46.6860 C   0  0  0  0  0  0  0  0  0  0  0  0
   46.5900   32.4190   47.6630 C   0  0  0  0  0  0  0  0  0  0  0  0
   45.9850   32.3180   48.9130 C   0  0  0  0  0  0  0  0  0  0  0  0
   45.1840   31.2390   49.1930 C   0  0  0  0  0  0  0  0  0  0  0  0
   44.9920   30.2690   48.2210 C   0  0  0  0  0  0  0  0  0  0  0  0
   47.2060   33.2980   47.5230 H   0  0  0  0  0  0  0  0  0  0  0  0
   46.1510   33.0990   49.6700 H   0  0  0  0  0  0  0  0  0  0  0  0
   44.6890   31.1110   50.1500 H   0  0  0  0  0  0  0  0  0  0  0  0
   44.3800   29.3870   48.3490 H   0  0  0  0  0  0  0  0  0  0  0  0
   45.4120   29.2220   45.7190 S   0  0  0  0  0  0  0  0  0  0  0  0
   44.6880   29.8030   44.5340 O   0  0  0  0  0  0  0  0  0  0  0  0
   44.5020   28.1160   46.2430 O   0  0  0  0  0  0  0  0  0  0  0  0
   46.6180   28.7060   45.2970 H   0  0  0  0  0  0  0  0  0  0  0  0
  1  6  1  0  0  0  0
  2  3  1  0  0  0  0
  2  1  2  0  0  0  0
  3  4  2  0  0  0  0
  4  5  1  0  0  0  0
  5 26  1  0  0  0  0
  6  5  2  0  0  0  0
  7  1  1  0  0  0  0
  8  2  1  0  0  0  0
  9 11  1  0  0  0  0
  9 10  1  0  0  0  0
  9  3  1  0  0  0  0
 12  9  1  0  0  0  0
 13 12  1  0  0  0  0
 14 12  1  0  0  0  0
 15 16  1  0  0  0  0
 16 17  2  0  0  0  0
 16 12  1  0  0  0  0
 17 18  1  0  0  0  0
 19 17  1  0  0  0  0
 20 19  2  0  0  0  0
 21 20  1  0  0  0  0
 21 15  2  0  0  0  0
 22 20  1  0  0  0  0
 22 23  1  0  0  0  0
 23 25  1  0  0  0  0
 24 23  1  0  0  0  0
 25 19  1  0  0  0  0
 26 28  1  0  0  0  0
 27 32  1  0  0  0  0
 28 27  2  0  0  0  0
 28 29  1  0  0  0  0
 29 30  2  0  0  0  0
 30 31  1  0  0  0  0
 30 34  1  0  0  0  0
 31 35  1  0  0  0  0
 32 36  1  0  0  0  0
 32 31  2  0  0  0  0
 33 29  1  0  0  0  0
 37 39  2  0  0  0  0
 37 27  1  0  0  0  0
 38 37  2  0  0  0  0
 40 37  1  0  0  0  0
M  END
>  <minimizedAffinity>
-5.44294786

>  <minimizedRMSD>
0.47114864

$$$$
