REMARK  Name = 
REMARK  6 active torsions:
REMARK  status: ('A' for Active; 'I' for Inactive)
REMARK    1  A    between atoms: C_1  and  S_7
REMARK    2  A    between atoms: C_2  and  O_10
REMARK    3  A    between atoms: O_10  and  C_15
REMARK    4  A    between atoms: C_13  and  C_17
REMARK    5  A    between atoms: C_17  and  C_18
REMARK    6  A    between atoms: C_18  and  C_31
REMARK                            x       y       z     vdW  Elec       q    Type
REMARK                         _______ _______ _______ _____ _____    ______ ____
ROOT
ATOM      1  C   UNL     1      45.225  34.301  43.844  0.00  0.00    +0.000 A 
ATOM      2  C   UNL     1      46.177  34.892  42.984  0.00  0.00    +0.000 A 
ATOM      3  C   UNL     1      47.482  34.438  42.994  0.00  0.00    +0.000 A 
ATOM      4  N   UNL     1      47.731  33.441  43.852  0.00  0.00    +0.000 NA
ATOM      5  C   UNL     1      46.852  32.881  44.659  0.00  0.00    +0.000 A 
ATOM      6  N   UNL     1      45.591  33.318  44.651  0.00  0.00    +0.000 NA
ATOM      7  H   UNL     1      44.230  34.711  43.778  0.00  0.00    +0.000 HD
ATOM      8  H   UNL     1      45.902  35.695  42.318  0.00  0.00    +0.000 HD
ENDROOT
BRANCH   3   9
ATOM      9  C   UNL     1      48.544  34.987  42.139  0.00  0.00    +0.000 C 
ATOM     10  H   UNL     1      48.741  36.041  42.417  0.00  0.00    +0.000 HD
ATOM     11  H   UNL     1      49.465  34.426  42.294  0.00  0.00    +0.000 HD
BRANCH   9  12
ATOM     12  C   UNL     1      48.211  34.850  40.665  0.00  0.00    +0.000 C 
ATOM     13  H   UNL     1      48.970  35.363  40.047  0.00  0.00    +0.000 HD
ATOM     14  H   UNL     1      47.259  35.407  40.519  0.00  0.00    +0.000 HD
BRANCH  12  16
ATOM     15  C   UNL     1      48.893  32.996  39.268  0.00  0.00    +0.000 A 
ATOM     16  C   UNL     1      48.025  33.450  40.255  0.00  0.00    +0.000 A 
ATOM     17  C   UNL     1      47.096  32.552  40.737  0.00  0.00    +0.000 A 
ATOM     18  H   UNL     1      46.435  32.931  41.502  0.00  0.00    +0.000 HD
ATOM     19  C   UNL     1      47.016  31.259  40.273  0.00  0.00    +0.000 A 
ATOM     20  C   UNL     1      47.904  30.847  39.285  0.00  0.00    +0.000 A 
ATOM     21  C   UNL     1      48.862  31.712  38.764  0.00  0.00    +0.000 A 
ATOM     22  O   UNL     1      47.588  29.502  39.017  0.00  0.00    +0.000 OA
ATOM     23  C   UNL     1      46.337  29.179  39.594  0.00  0.00    +0.000 C 
ATOM     24  H   UNL     1      46.300  28.155  40.015  0.00  0.00    +0.000 HD
ATOM     25  O   UNL     1      46.196  30.181  40.579  0.00  0.00    +0.000 OA
ENDBRANCH  12  16
ENDBRANCH   9  12
ENDBRANCH   3   9
BRANCH   5  26
ATOM     26  O   UNL     1      47.158  31.852  45.529  0.00  0.00    +0.000 OA
BRANCH  26  28
ATOM     27  C   UNL     1      45.646  30.444  46.909  0.00  0.00    +0.000 A 
ATOM     28  C   UNL     1      46.446  31.523  46.671  0.00  0.00    +0.000 A 
ATOM     29  C   UNL     1      46.593  32.448  47.698  0.00  0.00    +0.000 A 
ATOM     30  C   UNL     1      45.950  32.281  48.922  0.00  0.00    +0.000 A 
ATOM     31  C   UNL     1      45.153  31.182  49.124  0.00  0.00    +0.000 A 
ATOM     32  C   UNL     1      45.004  30.257  48.101  0.00  0.00    +0.000 A 
ATOM     33  H   UNL     1      47.203  33.339  47.620  0.00  0.00    +0.000 HD
ATOM     34  H   UNL     1      46.082  33.027  49.720  0.00  0.00    +0.000 HD
ATOM     35  H   UNL     1      44.629  31.003  50.057  0.00  0.00    +0.000 HD
ATOM     36  H   UNL     1      44.399  29.364  48.167  0.00  0.00    +0.000 HD
BRANCH  27  37
ATOM     37  S   UNL     1      45.517  29.335  45.568  0.00  0.00    +0.000 S 
ATOM     38  O   UNL     1      44.733  29.928  44.428  0.00  0.00    +0.000 OA
ATOM     39  O   UNL     1      44.695  28.143  46.044  0.00  0.00    +0.000 OA
ATOM     40  H   UNL     1      46.748  28.927  45.099  0.00  0.00    +0.000 HD
ENDBRANCH  27  37
ENDBRANCH  26  28
ENDBRANCH   5  26
TORSDOF 6
