
 OpenBabel03242516213D

 31 34  0  0  0  0  0  0  0  0999 V2000
   46.0020   32.7590   47.0550 C   0  0  0  0  0  0  0  0  0  0  0  0
   47.2520   32.4530   47.5480 C   0  0  0  0  0  0  0  0  0  0  0  0
   47.4140   31.6660   48.6670 C   0  0  0  0  0  0  0  0  0  0  0  0
   46.3110   31.1590   49.3310 C   0  0  0  0  0  0  0  0  0  0  0  0
   45.0540   31.4490   48.8580 C   0  0  0  0  0  0  0  0  0  0  0  0
   44.9110   32.2450   47.7280 C   0  0  0  0  0  0  0  0  0  0  0  0
   48.1080   32.8590   47.0160 H   0  0  0  0  0  0  0  0  0  0  0  0
   46.4700   30.5540   50.1930 H   0  0  0  0  0  0  0  0  0  0  0  0
   44.1920   31.0460   49.3870 H   0  0  0  0  0  0  0  0  0  0  0  0
   43.9030   32.4480   47.3930 H   0  0  0  0  0  0  0  0  0  0  0  0
   44.7090   35.3750   44.8480 C   0  0  0  0  0  0  0  0  0  0  0  0
   45.4750   35.2210   43.6790 C   0  0  0  0  0  0  0  0  0  0  0  0
   46.4470   34.2060   43.6470 C   0  0  0  0  0  0  0  0  0  0  0  0
   46.6030   33.4200   44.7490 N   0  0  0  0  0  0  0  0  0  0  0  0
   45.8460   33.5980   45.8620 C   0  0  0  0  0  0  0  0  0  0  0  0
   44.9070   34.5710   45.9040 N   0  0  0  0  0  0  0  0  0  0  0  0
   43.9480   36.1430   44.9210 H   0  0  0  0  0  0  0  0  0  0  0  0
   45.2940   35.8780   42.8520 H   0  0  0  0  0  0  0  0  0  0  0  0
   47.0490   34.0700   42.7580 H   0  0  0  0  0  0  0  0  0  0  0  0
   49.0490   31.3130   49.2490 S   0  0  0  0  0  0  0  0  0  0  0  0
   49.4290   29.3310   47.2710 C   0  0  0  0  0  3  0  0  0  0  0  0
   49.8240   29.9520   48.4330 C   0  0  0  0  0  0  0  0  0  0  0  0
   50.9640   29.4870   49.0790 C   0  0  0  0  0  0  0  0  0  0  0  0
   51.3690   29.8920   49.9920 H   0  0  0  0  0  0  0  0  0  0  0  0
   51.6870   28.4190   48.5600 C   0  0  0  0  0  0  0  0  0  0  0  0
   51.2600   27.8160   47.3850 C   0  0  0  0  0  0  0  0  0  0  0  0
   50.1290   28.2690   46.7360 C   0  0  0  0  0  3  0  0  0  0  0  0
   52.1710   26.7830   47.1060 O   0  0  0  0  0  0  0  0  0  0  0  0
   52.8020   26.4340   48.3420 C   0  0  0  0  0  3  0  0  0  0  0  0
   52.1370   25.8110   48.9860 H   0  0  0  0  0  0  0  0  0  0  0  0
   52.8440   27.7310   48.9560 O   0  0  0  0  0  0  0  0  0  0  0  0
  1  2  2  0  0  0  0
  1  6  1  0  0  0  0
  2  3  1  0  0  0  0
  3 20  1  0  0  0  0
  3  4  2  0  0  0  0
  4  8  1  0  0  0  0
  5  4  1  0  0  0  0
  5  9  1  0  0  0  0
  6  5  2  0  0  0  0
  7  2  1  0  0  0  0
 10  6  1  0  0  0  0
 11 17  1  0  0  0  0
 11 16  1  0  0  0  0
 12 11  2  0  0  0  0
 13 12  1  0  0  0  0
 13 14  2  0  0  0  0
 14 15  1  0  0  0  0
 15 16  2  0  0  0  0
 15  1  1  0  0  0  0
 18 12  1  0  0  0  0
 19 13  1  0  0  0  0
 21 22  1  0  0  0  0
 22 23  2  0  0  0  0
 22 20  1  0  0  0  0
 23 24  1  0  0  0  0
 25 31  1  0  0  0  0
 25 23  1  0  0  0  0
 26 25  2  0  0  0  0
 27 21  2  0  0  0  0
 27 26  1  0  0  0  0
 28 26  1  0  0  0  0
 28 29  1  0  0  0  0
 29 31  1  0  0  0  0
 29 30  1  0  0  0  0
M  END
>  <minimizedAffinity>
-5.25054789

>  <minimizedRMSD>
0.274099439

$$$$
