
 OpenBabel03242517553D

 45 48  0  0  0  0  0  0  0  0999 V2000
   45.4660   30.1700   47.2870 C   0  0  0  0  0  0  0  0  0  0  0  0
   46.0580   31.2370   46.7000 C   0  0  0  0  0  0  0  0  0  0  0  0
   46.2560   32.3740   47.4580 C   0  0  0  0  0  0  0  0  0  0  0  0
   45.8810   32.4700   48.7760 C   0  0  0  0  0  0  0  0  0  0  0  0
   45.2800   31.3790   49.3630 C   0  0  0  0  0  0  0  0  0  0  0  0
   45.0760   30.2320   48.6100 C   0  0  0  0  0  0  0  0  0  0  0  0
   46.7220   33.2680   47.0630 H   0  0  0  0  0  0  0  0  0  0  0  0
   46.0320   33.3550   49.3730 H   0  0  0  0  0  0  0  0  0  0  0  0
   44.9460   31.3530   50.3980 H   0  0  0  0  0  0  0  0  0  0  0  0
   44.6090   29.3420   49.0190 H   0  0  0  0  0  0  0  0  0  0  0  0
   45.1430   28.8050   46.2500 S   0  0  0  0  0  0  0  0  0  0  0  0
   44.2250   29.0940   45.1330 O   0  0  0  0  0  0  0  0  0  0  0  0
   44.3760   27.7980   47.1400 O   0  0  0  0  0  0  0  0  0  0  0  0
   46.6140   27.0310   44.7570 C   0  0  0  0  0  3  0  0  0  0  0  0
   46.5840   27.8980   45.8520 C   0  0  0  0  0  0  0  0  0  0  0  0
   47.7730   27.9440   46.5410 C   0  0  0  0  0  0  0  0  0  0  0  0
   47.8050   28.6140   47.4150 H   0  0  0  0  0  0  0  0  0  0  0  0
   48.8810   27.2040   46.1790 C   0  0  0  0  0  0  0  0  0  0  0  0
   48.8390   26.3670   45.0830 C   0  0  0  0  0  0  0  0  0  0  0  0
   47.6820   26.2650   44.3400 C   0  0  0  0  0  3  0  0  0  0  0  0
   50.0800   25.7570   44.9580 O   0  0  0  0  0  0  0  0  0  0  0  0
   50.8330   25.9810   46.1270 C   0  0  0  0  0  3  0  0  0  0  0  0
   51.8990   26.1550   45.9660 H   0  0  0  0  0  0  0  0  0  0  0  0
   50.1620   27.0950   46.7180 O   0  0  0  0  0  0  0  0  0  0  0  0
   46.5120   31.3390   45.3870 O   0  0  0  0  0  0  0  0  0  0  0  0
   45.3090   34.2440   43.7770 C   0  0  0  0  0  0  0  0  0  0  0  0
   46.4670   34.7450   43.1530 C   0  0  0  0  0  0  0  0  0  0  0  0
   47.6520   34.0730   43.2940 C   0  0  0  0  0  0  0  0  0  0  0  0
   47.6120   32.9600   44.0400 N   0  0  0  0  0  0  0  0  0  0  0  0
   46.5280   32.4870   44.6270 C   0  0  0  0  0  0  0  0  0  0  0  0
   45.3730   33.1310   44.4960 N   0  0  0  0  0  0  0  0  0  0  0  0
   44.3770   34.7770   43.6630 H   0  0  0  0  0  0  0  0  0  0  0  0
   46.3400   35.6500   42.5850 H   0  0  0  0  0  0  0  0  0  0  0  0
   48.9140   34.4910   42.6670 C   0  0  0  0  0  0  0  0  0  0  0  0
   49.6590   34.7140   43.4450 H   0  0  0  0  0  0  0  0  0  0  0  0
   49.3210   33.6390   42.0600 H   0  0  0  0  0  0  0  0  0  0  0  0
   48.7370   35.6500   41.7280 C   0  0  0  0  0  0  0  0  0  0  0  0
   48.0050   36.3960   42.0270 H   0  0  0  0  0  0  0  0  0  0  0  0
   49.7300   36.2050   41.7870 H   0  0  0  0  0  0  0  0  0  0  0  0
   48.6060   35.2590   40.3270 C   0  0  0  0  0  3  0  0  0  0  0  0
   48.0370   34.3450   39.5530 C   0  0  0  0  0  3  0  0  0  0  0  0
   48.2320   34.1950   38.0550 C   0  0  0  0  0  0  0  0  0  0  0  0
   49.0680   34.8830   37.7380 H   0  0  0  0  0  0  0  0  0  0  0  0
   48.4810   33.1500   37.8960 H   0  0  0  0  0  0  0  0  0  0  0  0
   47.3200   34.5640   37.5450 H   0  0  0  0  0  0  0  0  0  0  0  0
  1  6  1  0  0  0  0
  2  1  2  0  0  0  0
  2  3  1  0  0  0  0
  3  4  2  0  0  0  0
  4  5  1  0  0  0  0
  4  8  1  0  0  0  0
  5  9  1  0  0  0  0
  6 10  1  0  0  0  0
  6  5  2  0  0  0  0
  7  3  1  0  0  0  0
 11 13  2  0  0  0  0
 11  1  1  0  0  0  0
 12 11  2  0  0  0  0
 14 15  1  0  0  0  0
 15 11  1  0  0  0  0
 15 16  2  0  0  0  0
 16 17  1  0  0  0  0
 18 16  1  0  0  0  0
 18 24  1  0  0  0  0
 19 18  2  0  0  0  0
 20 14  2  0  0  0  0
 20 19  1  0  0  0  0
 21 19  1  0  0  0  0
 21 22  1  0  0  0  0
 22 24  1  0  0  0  0
 23 22  1  0  0  0  0
 25  2  1  0  0  0  0
 26 31  1  0  0  0  0
 27 28  1  0  0  0  0
 27 26  2  0  0  0  0
 28 29  2  0  0  0  0
 29 30  1  0  0  0  0
 30 25  1  0  0  0  0
 31 30  2  0  0  0  0
 32 26  1  0  0  0  0
 33 27  1  0  0  0  0
 34 28  1  0  0  0  0
 34 35  1  0  0  0  0
 36 34  1  0  0  0  0
 37 39  1  0  0  0  0
 37 38  1  0  0  0  0
 37 34  1  0  0  0  0
 40 37  1  0  0  0  0
 41 40  2  0  0  0  0
 42 41  1  0  0  0  0
 43 42  1  0  0  0  0
 44 42  1  0  0  0  0
 45 42  1  0  0  0  0
M  END
>  <minimizedAffinity>
-5.58220339

>  <minimizedRMSD>
1.94302487

$$$$
