REMARK  Name = 
REMARK  8 active torsions:
REMARK  status: ('A' for Active; 'I' for Inactive)
REMARK    1  A    between atoms: C_3  and  C_7
REMARK    2  A    between atoms: C_5  and  O_12
REMARK    3  A    between atoms: C_7  and  C_8
REMARK    4  A    between atoms: C_8  and  C_9
REMARK    5  A    between atoms: C_10  and  C_11
REMARK    6  A    between atoms: O_12  and  C_14
REMARK    7  A    between atoms: C_13  and  S_19
REMARK    8  A    between atoms: S_19  and  C_38
REMARK                            x       y       z     vdW  Elec       q    Type
REMARK                         _______ _______ _______ _____ _____    ______ ____
ROOT
ATOM      1  C   UNL     1      45.440  30.186  47.242  0.00  0.00    +0.000 A 
ATOM      2  C   UNL     1      46.066  31.228  46.646  0.00  0.00    +0.000 A 
ATOM      3  C   UNL     1      46.362  32.338  47.413  0.00  0.00    +0.000 A 
ATOM      4  C   UNL     1      46.051  32.430  48.748  0.00  0.00    +0.000 A 
ATOM      5  C   UNL     1      45.415  31.364  49.343  0.00  0.00    +0.000 A 
ATOM      6  C   UNL     1      45.113  30.244  48.582  0.00  0.00    +0.000 A 
ATOM      7  H   UNL     1      46.861  33.211  47.013  0.00  0.00    +0.000 HD
ATOM      8  H   UNL     1      46.279  33.293  49.352  0.00  0.00    +0.000 HD
ATOM      9  H   UNL     1      45.126  31.337  50.392  0.00  0.00    +0.000 HD
ATOM     10  H   UNL     1      44.614  29.375  48.996  0.00  0.00    +0.000 HD
ENDROOT
BRANCH   1  11
ATOM     11  S   UNL     1      44.995  28.861  46.198  0.00  0.00    +0.000 S 
ATOM     12  O   UNL     1      43.547  28.750  45.941  0.00  0.00    +0.000 OA
ATOM     13  O   UNL     1      45.352  27.584  46.996  0.00  0.00    +0.000 OA
BRANCH  11  15
ATOM     14  C   UNL     1      46.367  29.822  44.022  0.00  0.00    +0.000 A 
ATOM     15  C   UNL     1      46.041  28.711  44.806  0.00  0.00    +0.000 A 
ATOM     16  C   UNL     1      46.621  27.546  44.363  0.00  0.00    +0.000 A 
ATOM     17  H   UNL     1      46.397  26.638  44.945  0.00  0.00    +0.000 HD
ATOM     18  C   UNL     1      47.441  27.488  43.254  0.00  0.00    +0.000 A 
ATOM     19  C   UNL     1      47.721  28.627  42.526  0.00  0.00    +0.000 A 
ATOM     20  C   UNL     1      47.177  29.836  42.906  0.00  0.00    +0.000 A 
ATOM     21  O   UNL     1      48.561  28.275  41.478  0.00  0.00    +0.000 OA
ATOM     22  C   UNL     1      48.602  26.872  41.361  0.00  0.00    +0.000 C 
ATOM     23  H   UNL     1      49.577  26.455  41.104  0.00  0.00    +0.000 HD
ATOM     24  O   UNL     1      48.123  26.441  42.636  0.00  0.00    +0.000 OA
ENDBRANCH  11  15
ENDBRANCH   1  11
BRANCH   2  25
ATOM     25  O   UNL     1      46.468  31.330  45.316  0.00  0.00    +0.000 OA
BRANCH  25  30
ATOM     26  C   UNL     1      45.310  34.277  43.750  0.00  0.00    +0.000 A 
ATOM     27  C   UNL     1      46.474  34.764  43.125  0.00  0.00    +0.000 A 
ATOM     28  C   UNL     1      47.647  34.068  43.250  0.00  0.00    +0.000 A 
ATOM     29  N   UNL     1      47.590  32.946  43.983  0.00  0.00    +0.000 NA
ATOM     30  C   UNL     1      46.501  32.487  44.570  0.00  0.00    +0.000 A 
ATOM     31  N   UNL     1      45.357  33.154  44.454  0.00  0.00    +0.000 NA
ATOM     32  H   UNL     1      44.388  34.828  43.648  0.00  0.00    +0.000 HD
ATOM     33  H   UNL     1      46.360  35.678  42.569  0.00  0.00    +0.000 HD
BRANCH  28  34
ATOM     34  C   UNL     1      48.913  34.470  42.621  0.00  0.00    +0.000 C 
ATOM     35  H   UNL     1      49.671  34.652  43.397  0.00  0.00    +0.000 HD
ATOM     36  H   UNL     1      49.291  33.625  41.987  0.00  0.00    +0.000 HD
BRANCH  34  37
ATOM     37  C   UNL     1      48.756  35.658  41.716  0.00  0.00    +0.000 C 
ATOM     38  H   UNL     1      48.099  36.446  42.075  0.00  0.00    +0.000 HD
ATOM     39  H   UNL     1      49.787  36.143  41.719  0.00  0.00    +0.000 HD
BRANCH  37  40
ATOM     40  C   UNL     1      48.508  35.308  40.320  0.00  0.00    +0.000 C 
ATOM     41  C   UNL     1      48.270  34.263  39.539  0.00  0.00    +0.000 C 
BRANCH  41  42
ATOM     42  C   UNL     1      48.167  34.284  38.024  0.00  0.00    +0.000 C 
ATOM     43  H   UNL     1      48.492  35.303  37.663  0.00  0.00    +0.000 HD
ATOM     44  H   UNL     1      48.829  33.498  37.675  0.00  0.00    +0.000 HD
ATOM     45  H   UNL     1      47.100  34.185  37.745  0.00  0.00    +0.000 HD
ENDBRANCH  41  42
ENDBRANCH  37  40
ENDBRANCH  34  37
ENDBRANCH  28  34
ENDBRANCH  25  30
ENDBRANCH   2  25
TORSDOF 8
