
 OpenBabel03242517543D

 45 48  0  0  0  0  0  0  0  0999 V2000
   45.4950   30.1800   47.3330 C   0  0  0  0  0  0  0  0  0  0  0  0
   46.0830   31.2460   46.7410 C   0  0  0  0  0  0  0  0  0  0  0  0
   46.2650   32.3920   47.4900 C   0  0  0  0  0  0  0  0  0  0  0  0
   45.8780   32.4960   48.8040 C   0  0  0  0  0  0  0  0  0  0  0  0
   45.2820   31.4050   49.3960 C   0  0  0  0  0  0  0  0  0  0  0  0
   45.0940   30.2490   48.6520 C   0  0  0  0  0  0  0  0  0  0  0  0
   46.7260   33.2860   47.0920 H   0  0  0  0  0  0  0  0  0  0  0  0
   46.0160   33.3870   49.3950 H   0  0  0  0  0  0  0  0  0  0  0  0
   44.9400   31.3850   50.4290 H   0  0  0  0  0  0  0  0  0  0  0  0
   44.6310   29.3590   49.0640 H   0  0  0  0  0  0  0  0  0  0  0  0
   45.1940   28.8030   46.3050 S   0  0  0  0  0  0  0  0  0  0  0  0
   44.2980   29.0790   45.1670 O   0  0  0  0  0  0  0  0  0  0  0  0
   44.4090   27.8050   47.1900 O   0  0  0  0  0  0  0  0  0  0  0  0
   47.4050   27.3160   46.9650 C   0  0  0  0  0  3  0  0  0  0  0  0
   46.6410   27.8920   45.9460 C   0  0  0  0  0  0  0  0  0  0  0  0
   47.1500   27.6610   44.6900 C   0  0  0  0  0  0  0  0  0  0  0  0
   46.5860   28.0930   43.8480 H   0  0  0  0  0  0  0  0  0  0  0  0
   48.3000   26.9320   44.4660 C   0  0  0  0  0  0  0  0  0  0  0  0
   49.0060   26.3910   45.5220 C   0  0  0  0  0  0  0  0  0  0  0  0
   48.5610   26.5780   46.8140 C   0  0  0  0  0  3  0  0  0  0  0  0
   50.1070   25.7170   45.0070 O   0  0  0  0  0  0  0  0  0  0  0  0
   50.2700   26.0560   43.6500 C   0  0  0  0  0  3  0  0  0  0  0  0
   50.5890   25.2380   43.0030 H   0  0  0  0  0  0  0  0  0  0  0  0
   48.9860   26.5800   43.3050 O   0  0  0  0  0  0  0  0  0  0  0  0
   46.5480   31.3420   45.4310 O   0  0  0  0  0  0  0  0  0  0  0  0
   45.3180   34.2240   43.8000 C   0  0  0  0  0  0  0  0  0  0  0  0
   46.4690   34.7230   43.1600 C   0  0  0  0  0  0  0  0  0  0  0  0
   47.6580   34.0570   43.2980 C   0  0  0  0  0  0  0  0  0  0  0  0
   47.6290   32.9510   44.0570 N   0  0  0  0  0  0  0  0  0  0  0  0
   46.5520   32.4810   44.6580 C   0  0  0  0  0  0  0  0  0  0  0  0
   45.3930   33.1190   44.5300 N   0  0  0  0  0  0  0  0  0  0  0  0
   44.3840   34.7510   43.6880 H   0  0  0  0  0  0  0  0  0  0  0  0
   46.3330   35.6210   42.5830 H   0  0  0  0  0  0  0  0  0  0  0  0
   48.9130   34.4730   42.6560 C   0  0  0  0  0  0  0  0  0  0  0  0
   49.6690   34.6890   43.4260 H   0  0  0  0  0  0  0  0  0  0  0  0
   49.3080   33.6230   42.0390 H   0  0  0  0  0  0  0  0  0  0  0  0
   48.7270   35.6380   41.7270 C   0  0  0  0  0  0  0  0  0  0  0  0
   47.9910   36.3770   42.0310 H   0  0  0  0  0  0  0  0  0  0  0  0
   49.7160   36.2000   41.7900 H   0  0  0  0  0  0  0  0  0  0  0  0
   48.5990   35.2570   40.3220 C   0  0  0  0  0  3  0  0  0  0  0  0
   48.0400   34.3420   39.5420 C   0  0  0  0  0  3  0  0  0  0  0  0
   48.2340   34.2070   38.0420 C   0  0  0  0  0  0  0  0  0  0  0  0
   49.0620   34.9080   37.7290 H   0  0  0  0  0  0  0  0  0  0  0  0
   48.4960   33.1670   37.8740 H   0  0  0  0  0  0  0  0  0  0  0  0
   47.3170   34.5680   37.5370 H   0  0  0  0  0  0  0  0  0  0  0  0
  1  6  1  0  0  0  0
  2  1  2  0  0  0  0
  2  3  1  0  0  0  0
  3  4  2  0  0  0  0
  4  8  1  0  0  0  0
  4  5  1  0  0  0  0
  5  9  1  0  0  0  0
  6 10  1  0  0  0  0
  6  5  2  0  0  0  0
  7  3  1  0  0  0  0
 11 13  2  0  0  0  0
 11  1  1  0  0  0  0
 12 11  2  0  0  0  0
 15 11  1  0  0  0  0
 15 14  2  0  0  0  0
 16 15  1  0  0  0  0
 17 16  1  0  0  0  0
 18 16  2  0  0  0  0
 18 19  1  0  0  0  0
 19 20  2  0  0  0  0
 20 14  1  0  0  0  0
 21 19  1  0  0  0  0
 22 21  1  0  0  0  0
 23 22  1  0  0  0  0
 24 22  1  0  0  0  0
 24 18  1  0  0  0  0
 25  2  1  0  0  0  0
 26 31  1  0  0  0  0
 27 28  1  0  0  0  0
 27 26  2  0  0  0  0
 28 29  2  0  0  0  0
 29 30  1  0  0  0  0
 30 25  1  0  0  0  0
 31 30  2  0  0  0  0
 32 26  1  0  0  0  0
 33 27  1  0  0  0  0
 34 28  1  0  0  0  0
 34 35  1  0  0  0  0
 36 34  1  0  0  0  0
 37 39  1  0  0  0  0
 37 38  1  0  0  0  0
 37 34  1  0  0  0  0
 40 37  1  0  0  0  0
 41 40  2  0  0  0  0
 42 41  1  0  0  0  0
 43 42  1  0  0  0  0
 44 42  1  0  0  0  0
 45 42  1  0  0  0  0
M  END
>  <minimizedAffinity>
-5.58376455

>  <minimizedRMSD>
1.9111805

$$$$
