
 OpenBabel03242517553D

 45 48  0  0  0  0  0  0  0  0999 V2000
   45.4590   30.1610   47.2640 C   0  0  0  0  0  0  0  0  0  0  0  0
   46.0750   31.2220   46.6930 C   0  0  0  0  0  0  0  0  0  0  0  0
   46.2900   32.3470   47.4650 C   0  0  0  0  0  0  0  0  0  0  0  0
   45.9080   32.4360   48.7810 C   0  0  0  0  0  0  0  0  0  0  0  0
   45.2830   31.3500   49.3520 C   0  0  0  0  0  0  0  0  0  0  0  0
   45.0620   30.2150   48.5850 C   0  0  0  0  0  0  0  0  0  0  0  0
   46.7760   33.2360   47.0840 H   0  0  0  0  0  0  0  0  0  0  0  0
   46.0720   33.3100   49.3890 H   0  0  0  0  0  0  0  0  0  0  0  0
   44.9420   31.3180   50.3850 H   0  0  0  0  0  0  0  0  0  0  0  0
   44.5760   29.3300   48.9800 H   0  0  0  0  0  0  0  0  0  0  0  0
   45.1180   28.8140   46.2100 S   0  0  0  0  0  0  0  0  0  0  0  0
   44.2550   29.1450   45.0600 O   0  0  0  0  0  0  0  0  0  0  0  0
   44.2760   27.8380   47.0650 O   0  0  0  0  0  0  0  0  0  0  0  0
   47.1060   27.8370   44.5860 C   0  0  0  0  0  3  0  0  0  0  0  0
   46.5320   27.8470   45.8610 C   0  0  0  0  0  0  0  0  0  0  0  0
   47.1910   27.0420   46.7600 C   0  0  0  0  0  0  0  0  0  0  0  0
   46.7800   27.0120   47.7810 H   0  0  0  0  0  0  0  0  0  0  0  0
   48.3060   26.2990   46.4280 C   0  0  0  0  0  0  0  0  0  0  0  0
   48.8200   26.3380   45.1470 C   0  0  0  0  0  0  0  0  0  0  0  0
   48.2160   27.1230   44.1870 C   0  0  0  0  0  3  0  0  0  0  0  0
   49.9300   25.5030   45.1010 O   0  0  0  0  0  0  0  0  0  0  0  0
   49.9700   24.7130   46.2650 C   0  0  0  0  0  3  0  0  0  0  0  0
   50.9680   24.5360   46.6730 H   0  0  0  0  0  0  0  0  0  0  0  0
   49.1180   25.4330   47.1580 O   0  0  0  0  0  0  0  0  0  0  0  0
   46.5410   31.3310   45.3840 O   0  0  0  0  0  0  0  0  0  0  0  0
   45.3170   34.2280   43.7750 C   0  0  0  0  0  0  0  0  0  0  0  0
   46.4710   34.7370   43.1510 C   0  0  0  0  0  0  0  0  0  0  0  0
   47.6610   34.0730   43.2900 C   0  0  0  0  0  0  0  0  0  0  0  0
   47.6290   32.9590   44.0370 N   0  0  0  0  0  0  0  0  0  0  0  0
   46.5480   32.4800   44.6240 C   0  0  0  0  0  0  0  0  0  0  0  0
   45.3880   33.1160   44.4940 N   0  0  0  0  0  0  0  0  0  0  0  0
   44.3810   34.7540   43.6620 H   0  0  0  0  0  0  0  0  0  0  0  0
   46.3370   35.6410   42.5830 H   0  0  0  0  0  0  0  0  0  0  0  0
   48.9200   34.4990   42.6630 C   0  0  0  0  0  0  0  0  0  0  0  0
   49.6630   34.7280   43.4410 H   0  0  0  0  0  0  0  0  0  0  0  0
   49.3320   33.6500   42.0570 H   0  0  0  0  0  0  0  0  0  0  0  0
   48.7330   35.6560   41.7240 C   0  0  0  0  0  0  0  0  0  0  0  0
   47.9970   36.3980   42.0220 H   0  0  0  0  0  0  0  0  0  0  0  0
   49.7230   36.2180   41.7810 H   0  0  0  0  0  0  0  0  0  0  0  0
   48.6040   35.2640   40.3230 C   0  0  0  0  0  3  0  0  0  0  0  0
   48.0390   34.3450   39.5510 C   0  0  0  0  0  3  0  0  0  0  0  0
   48.2330   34.1950   38.0520 C   0  0  0  0  0  0  0  0  0  0  0  0
   49.0650   34.8870   37.7330 H   0  0  0  0  0  0  0  0  0  0  0  0
   48.4880   33.1520   37.8940 H   0  0  0  0  0  0  0  0  0  0  0  0
   47.3190   34.5580   37.5430 H   0  0  0  0  0  0  0  0  0  0  0  0
  1  6  1  0  0  0  0
  2  1  2  0  0  0  0
  2  3  1  0  0  0  0
  3  4  2  0  0  0  0
  4  5  1  0  0  0  0
  4  8  1  0  0  0  0
  5  9  1  0  0  0  0
  6 10  1  0  0  0  0
  6  5  2  0  0  0  0
  7  3  1  0  0  0  0
 11 13  2  0  0  0  0
 11  1  1  0  0  0  0
 12 11  2  0  0  0  0
 14 15  1  0  0  0  0
 15 11  1  0  0  0  0
 15 16  2  0  0  0  0
 16 17  1  0  0  0  0
 18 16  1  0  0  0  0
 18 24  1  0  0  0  0
 19 18  2  0  0  0  0
 20 14  2  0  0  0  0
 20 19  1  0  0  0  0
 21 19  1  0  0  0  0
 21 22  1  0  0  0  0
 22 23  1  0  0  0  0
 22 24  1  0  0  0  0
 25  2  1  0  0  0  0
 26 31  1  0  0  0  0
 27 28  1  0  0  0  0
 27 26  2  0  0  0  0
 28 29  2  0  0  0  0
 29 30  1  0  0  0  0
 30 25  1  0  0  0  0
 31 30  2  0  0  0  0
 32 26  1  0  0  0  0
 33 27  1  0  0  0  0
 34 28  1  0  0  0  0
 34 35  1  0  0  0  0
 36 34  1  0  0  0  0
 37 39  1  0  0  0  0
 37 38  1  0  0  0  0
 37 34  1  0  0  0  0
 40 37  1  0  0  0  0
 41 40  2  0  0  0  0
 42 41  1  0  0  0  0
 43 42  1  0  0  0  0
 44 42  1  0  0  0  0
 45 42  1  0  0  0  0
M  END
>  <minimizedAffinity>
-5.58956575

>  <minimizedRMSD>
2.01595974

$$$$
