
 OpenBabel03242517543D

 45 48  0  0  0  0  0  0  0  0999 V2000
   45.4650   30.1690   47.2920 C   0  0  0  0  0  0  0  0  0  0  0  0
   46.0360   31.2390   46.6900 C   0  0  0  0  0  0  0  0  0  0  0  0
   46.2340   32.3820   47.4390 C   0  0  0  0  0  0  0  0  0  0  0  0
   45.8780   32.4810   48.7620 C   0  0  0  0  0  0  0  0  0  0  0  0
   45.2990   31.3860   49.3640 C   0  0  0  0  0  0  0  0  0  0  0  0
   45.0960   30.2320   48.6200 C   0  0  0  0  0  0  0  0  0  0  0  0
   46.6840   33.2790   47.0330 H   0  0  0  0  0  0  0  0  0  0  0  0
   46.0290   33.3700   49.3530 H   0  0  0  0  0  0  0  0  0  0  0  0
   44.9820   31.3610   50.4050 H   0  0  0  0  0  0  0  0  0  0  0  0
   44.6450   29.3400   49.0400 H   0  0  0  0  0  0  0  0  0  0  0  0
   45.1420   28.7950   46.2660 S   0  0  0  0  0  0  0  0  0  0  0  0
   44.1680   29.0560   45.1900 O   0  0  0  0  0  0  0  0  0  0  0  0
   44.4450   27.7640   47.1850 O   0  0  0  0  0  0  0  0  0  0  0  0
   46.5840   27.0190   44.7490 C   0  0  0  0  0  3  0  0  0  0  0  0
   46.5910   27.9350   45.8050 C   0  0  0  0  0  0  0  0  0  0  0  0
   47.8230   28.0640   46.4030 C   0  0  0  0  0  0  0  0  0  0  0  0
   47.8850   28.7730   47.2420 H   0  0  0  0  0  0  0  0  0  0  0  0
   48.9360   27.3560   45.9940 C   0  0  0  0  0  0  0  0  0  0  0  0
   48.8560   26.4680   44.9420 C   0  0  0  0  0  0  0  0  0  0  0  0
   47.6560   26.2810   44.2900 C   0  0  0  0  0  3  0  0  0  0  0  0
   50.1120   25.9060   44.7540 O   0  0  0  0  0  0  0  0  0  0  0  0
   50.9340   26.2190   45.8530 C   0  0  0  0  0  3  0  0  0  0  0  0
   51.9760   26.4310   45.6100 H   0  0  0  0  0  0  0  0  0  0  0  0
   50.2550   27.3280   46.4430 O   0  0  0  0  0  0  0  0  0  0  0  0
   46.4690   31.3400   45.3690 O   0  0  0  0  0  0  0  0  0  0  0  0
   45.2950   34.2650   43.7730 C   0  0  0  0  0  0  0  0  0  0  0  0
   46.4600   34.7600   43.1560 C   0  0  0  0  0  0  0  0  0  0  0  0
   47.6390   34.0770   43.2970 C   0  0  0  0  0  0  0  0  0  0  0  0
   47.5870   32.9600   44.0370 N   0  0  0  0  0  0  0  0  0  0  0  0
   46.4970   32.4930   44.6160 C   0  0  0  0  0  0  0  0  0  0  0  0
   45.3470   33.1470   44.4850 N   0  0  0  0  0  0  0  0  0  0  0  0
   44.3690   34.8060   43.6590 H   0  0  0  0  0  0  0  0  0  0  0  0
   46.3420   35.6690   42.5930 H   0  0  0  0  0  0  0  0  0  0  0  0
   48.9070   34.4890   42.6780 C   0  0  0  0  0  0  0  0  0  0  0  0
   49.6480   34.7090   43.4600 H   0  0  0  0  0  0  0  0  0  0  0  0
   49.3130   33.6350   42.0740 H   0  0  0  0  0  0  0  0  0  0  0  0
   48.7400   35.6470   41.7370 C   0  0  0  0  0  0  0  0  0  0  0  0
   48.0150   36.4000   42.0330 H   0  0  0  0  0  0  0  0  0  0  0  0
   49.7380   36.1950   41.7970 H   0  0  0  0  0  0  0  0  0  0  0  0
   48.6080   35.2560   40.3360 C   0  0  0  0  0  3  0  0  0  0  0  0
   48.0350   34.3430   39.5640 C   0  0  0  0  0  3  0  0  0  0  0  0
   48.2290   34.1910   38.0650 C   0  0  0  0  0  0  0  0  0  0  0  0
   49.0680   34.8750   37.7470 H   0  0  0  0  0  0  0  0  0  0  0  0
   48.4730   33.1450   37.9070 H   0  0  0  0  0  0  0  0  0  0  0  0
   47.3190   34.5630   37.5550 H   0  0  0  0  0  0  0  0  0  0  0  0
  1  6  1  0  0  0  0
  2  1  2  0  0  0  0
  2  3  1  0  0  0  0
  3  4  2  0  0  0  0
  4  8  1  0  0  0  0
  4  5  1  0  0  0  0
  5  9  1  0  0  0  0
  6 10  1  0  0  0  0
  6  5  2  0  0  0  0
  7  3  1  0  0  0  0
 11 13  2  0  0  0  0
 11  1  1  0  0  0  0
 12 11  2  0  0  0  0
 14 15  1  0  0  0  0
 15 11  1  0  0  0  0
 15 16  2  0  0  0  0
 16 17  1  0  0  0  0
 18 16  1  0  0  0  0
 18 24  1  0  0  0  0
 19 18  2  0  0  0  0
 20 14  2  0  0  0  0
 20 19  1  0  0  0  0
 21 19  1  0  0  0  0
 21 22  1  0  0  0  0
 22 24  1  0  0  0  0
 23 22  1  0  0  0  0
 25  2  1  0  0  0  0
 26 31  1  0  0  0  0
 27 28  1  0  0  0  0
 27 26  2  0  0  0  0
 28 29  2  0  0  0  0
 29 30  1  0  0  0  0
 30 25  1  0  0  0  0
 31 30  2  0  0  0  0
 32 26  1  0  0  0  0
 33 27  1  0  0  0  0
 34 28  1  0  0  0  0
 34 35  1  0  0  0  0
 36 34  1  0  0  0  0
 37 39  1  0  0  0  0
 37 38  1  0  0  0  0
 37 34  1  0  0  0  0
 40 37  1  0  0  0  0
 41 40  2  0  0  0  0
 42 41  1  0  0  0  0
 43 42  1  0  0  0  0
 44 42  1  0  0  0  0
 45 42  1  0  0  0  0
M  END
>  <minimizedAffinity>
-5.57945395

>  <minimizedRMSD>
1.77781618

$$$$
