
 OpenBabel03242514553D

 21 23  0  0  0  0  0  0  0  0999 V2000
   42.5780   35.4160   41.8010 C   0  0  0  0  0  3  0  0  0  0  0  0
   43.9500   35.2150   41.6930 C   0  0  0  0  0  0  0  0  0  0  0  0
   44.4640   34.4560   40.6670 C   0  0  0  0  0  0  0  0  0  0  0  0
   45.5360   34.3270   40.6220 H   0  0  0  0  0  0  0  0  0  0  0  0
   43.6350   33.8800   39.7250 C   0  0  0  0  0  0  0  0  0  0  0  0
   42.2550   34.0730   39.8220 C   0  0  0  0  0  0  0  0  0  0  0  0
   41.7260   34.8380   40.8570 C   0  0  0  0  0  3  0  0  0  0  0  0
   41.6470   33.3880   38.7540 O   0  0  0  0  0  0  0  0  0  0  0  0
   42.6360   32.4700   38.2900 C   0  0  0  0  0  3  0  0  0  0  0  0
   42.5950   32.3040   37.2140 H   0  0  0  0  0  0  0  0  0  0  0  0
   43.8800   33.0740   38.5960 O   0  0  0  0  0  0  0  0  0  0  0  0
   44.9480   35.9960   42.9520 S   0  0  0  0  0  0  0  0  0  0  0  0
   45.5680   34.7440   44.1100 C   0  0  0  0  0  0  0  0  0  0  0  0
   46.6260   33.9840   43.6080 C   0  0  0  0  0  0  0  0  0  0  0  0
   47.1550   32.9890   44.4590 C   0  0  0  0  0  0  0  0  0  0  0  0
   46.6140   32.8410   45.6880 N   0  0  0  0  0  0  0  0  0  0  0  0
   45.5920   33.5990   46.1310 C   0  0  0  0  0  0  0  0  0  0  0  0
   45.0710   34.5510   45.3410 N   0  0  0  0  0  0  0  0  0  0  0  0
   47.0610   34.0970   42.6300 H   0  0  0  0  0  0  0  0  0  0  0  0
   47.9720   32.3750   44.1180 H   0  0  0  0  0  0  0  0  0  0  0  0
   45.1370   33.5070   47.1030 H   0  0  0  0  0  0  0  0  0  0  0  0
  2  1  1  0  0  0  0
  2 12  1  0  0  0  0
  3  2  2  0  0  0  0
  4  3  1  0  0  0  0
  5  6  2  0  0  0  0
  5  3  1  0  0  0  0
  6  7  1  0  0  0  0
  7  1  2  0  0  0  0
  8  6  1  0  0  0  0
  9 11  1  0  0  0  0
  9  8  1  0  0  0  0
 10  9  1  0  0  0  0
 11  5  1  0  0  0  0
 12 13  1  0  0  0  0
 13 18  1  0  0  0  0
 14 13  2  0  0  0  0
 14 15  1  0  0  0  0
 15 16  2  0  0  0  0
 16 17  1  0  0  0  0
 17 21  1  0  0  0  0
 18 17  2  0  0  0  0
 19 14  1  0  0  0  0
 20 15  1  0  0  0  0
M  END
>  <minimizedAffinity>
-4.25098038

>  <minimizedRMSD>
0.884293854

$$$$
