
 OpenBabel03242514553D

 21 23  0  0  0  0  0  0  0  0999 V2000
   42.7250   35.6160   41.2060 C   0  0  0  0  0  3  0  0  0  0  0  0
   43.6370   34.7240   41.7570 C   0  0  0  0  0  0  0  0  0  0  0  0
   43.3990   33.3690   41.7150 C   0  0  0  0  0  0  0  0  0  0  0  0
   44.1360   32.7140   42.1560 H   0  0  0  0  0  0  0  0  0  0  0  0
   42.2550   32.8670   41.1290 C   0  0  0  0  0  0  0  0  0  0  0  0
   41.3300   33.7530   40.5710 C   0  0  0  0  0  0  0  0  0  0  0  0
   41.5620   35.1230   40.6080 C   0  0  0  0  0  3  0  0  0  0  0  0
   40.2670   32.9930   40.0450 O   0  0  0  0  0  0  0  0  0  0  0  0
   40.3850   31.7120   40.6630 C   0  0  0  0  0  3  0  0  0  0  0  0
   40.0790   30.8920   40.0130 H   0  0  0  0  0  0  0  0  0  0  0  0
   41.7640   31.5600   40.9480 O   0  0  0  0  0  0  0  0  0  0  0  0
   45.0890   35.4580   42.4950 S   0  0  0  0  0  0  0  0  0  0  0  0
   45.6420   34.4490   43.8990 C   0  0  0  0  0  0  0  0  0  0  0  0
   46.6940   33.5840   43.5930 C   0  0  0  0  0  0  0  0  0  0  0  0
   47.1730   32.7680   44.6420 C   0  0  0  0  0  0  0  0  0  0  0  0
   46.5910   32.8770   45.8560 N   0  0  0  0  0  0  0  0  0  0  0  0
   45.5770   33.7270   46.1050 C   0  0  0  0  0  0  0  0  0  0  0  0
   45.1040   34.5130   45.1260 N   0  0  0  0  0  0  0  0  0  0  0  0
   47.1610   33.4930   42.6270 H   0  0  0  0  0  0  0  0  0  0  0  0
   47.9840   32.0830   44.4570 H   0  0  0  0  0  0  0  0  0  0  0  0
   45.0910   33.8390   47.0610 H   0  0  0  0  0  0  0  0  0  0  0  0
  1  2  1  0  0  0  0
  2 12  1  0  0  0  0
  3  2  2  0  0  0  0
  3  4  1  0  0  0  0
  5  3  1  0  0  0  0
  6  7  1  0  0  0  0
  6  5  2  0  0  0  0
  7  1  2  0  0  0  0
  8  6  1  0  0  0  0
  8  9  1  0  0  0  0
  9 11  1  0  0  0  0
 10  9  1  0  0  0  0
 11  5  1  0  0  0  0
 12 13  1  0  0  0  0
 13 18  1  0  0  0  0
 14 13  2  0  0  0  0
 14 15  1  0  0  0  0
 15 16  2  0  0  0  0
 16 17  1  0  0  0  0
 17 21  1  0  0  0  0
 18 17  2  0  0  0  0
 19 14  1  0  0  0  0
 20 15  1  0  0  0  0
M  END
>  <minimizedAffinity>
-4.05671835

>  <minimizedRMSD>
0.520606995

$$$$
