
 OpenBabel03242514553D

 21 23  0  0  0  0  0  0  0  0999 V2000
   44.3160   34.5310   40.7510 C   0  0  0  0  0  3  0  0  0  0  0  0
   43.8130   35.3480   41.7580 C   0  0  0  0  0  0  0  0  0  0  0  0
   42.4600   35.5880   41.8500 C   0  0  0  0  0  0  0  0  0  0  0  0
   42.1140   36.2290   42.6490 H   0  0  0  0  0  0  0  0  0  0  0  0
   41.5770   35.0250   40.9520 C   0  0  0  0  0  0  0  0  0  0  0  0
   42.0680   34.2030   39.9360 C   0  0  0  0  0  0  0  0  0  0  0  0
   43.4330   33.9550   39.8350 C   0  0  0  0  0  3  0  0  0  0  0  0
   40.9740   33.7630   39.1670 O   0  0  0  0  0  0  0  0  0  0  0  0
   39.9110   34.6580   39.4900 C   0  0  0  0  0  3  0  0  0  0  0  0
   38.9310   34.1810   39.4810 H   0  0  0  0  0  0  0  0  0  0  0  0
   40.1770   35.0950   40.8110 O   0  0  0  0  0  0  0  0  0  0  0  0
   45.0250   36.0340   42.8770 S   0  0  0  0  0  0  0  0  0  0  0  0
   45.6480   34.7350   43.9800 C   0  0  0  0  0  0  0  0  0  0  0  0
   46.7070   33.9990   43.4440 C   0  0  0  0  0  0  0  0  0  0  0  0
   47.2400   32.9700   44.2520 C   0  0  0  0  0  0  0  0  0  0  0  0
   46.6990   32.7680   45.4730 N   0  0  0  0  0  0  0  0  0  0  0  0
   45.6760   33.5040   45.9490 C   0  0  0  0  0  0  0  0  0  0  0  0
   45.1520   34.4880   45.2010 N   0  0  0  0  0  0  0  0  0  0  0  0
   47.1410   34.1560   42.4720 H   0  0  0  0  0  0  0  0  0  0  0  0
   48.0580   32.3730   43.8840 H   0  0  0  0  0  0  0  0  0  0  0  0
   45.2220   33.3690   46.9170 H   0  0  0  0  0  0  0  0  0  0  0  0
  1  2  1  0  0  0  0
  2  3  2  0  0  0  0
  2 12  1  0  0  0  0
  3  4  1  0  0  0  0
  5  3  1  0  0  0  0
  6  5  2  0  0  0  0
  7  6  1  0  0  0  0
  7  1  2  0  0  0  0
  8  9  1  0  0  0  0
  8  6  1  0  0  0  0
  9 11  1  0  0  0  0
 10  9  1  0  0  0  0
 11  5  1  0  0  0  0
 12 13  1  0  0  0  0
 13 18  1  0  0  0  0
 14 13  2  0  0  0  0
 14 15  1  0  0  0  0
 15 16  2  0  0  0  0
 16 17  1  0  0  0  0
 17 21  1  0  0  0  0
 18 17  2  0  0  0  0
 19 14  1  0  0  0  0
 20 15  1  0  0  0  0
M  END
>  <minimizedAffinity>
-4.46293354

>  <minimizedRMSD>
0.542060494

$$$$
