REMARK  Name = 
REMARK  2 active torsions:
REMARK  status: ('A' for Active; 'I' for Inactive)
REMARK    1  A    between atoms: C_1  and  S_7
REMARK    2  A    between atoms: S_7  and  C_12
REMARK                            x       y       z     vdW  Elec       q    Type
REMARK                         _______ _______ _______ _____ _____    ______ ____
ROOT
ATOM      1  C   UNL     1      42.361  35.880  42.200  0.00  0.00    +0.000 A 
ATOM      2  C   UNL     1      43.588  35.234  42.097  0.00  0.00    +0.000 A 
ATOM      3  C   UNL     1      43.728  34.129  41.289  0.00  0.00    +0.000 A 
ATOM      4  H   UNL     1      44.699  33.659  41.240  0.00  0.00    +0.000 HD
ATOM      5  C   UNL     1      42.659  33.637  40.567  0.00  0.00    +0.000 A 
ATOM      6  C   UNL     1      41.421  34.276  40.662  0.00  0.00    +0.000 A 
ATOM      7  C   UNL     1      41.270  35.394  41.476  0.00  0.00    +0.000 A 
ATOM      8  O   UNL     1      40.513  33.585  39.837  0.00  0.00    +0.000 OA
ATOM      9  C   UNL     1      41.123  32.318  39.596  0.00  0.00    +0.000 C 
ATOM     10  H   UNL     1      40.906  31.920  38.604  0.00  0.00    +0.000 HD
ATOM     11  O   UNL     1      42.517  32.550  39.683  0.00  0.00    +0.000 OA
ENDROOT
BRANCH   2  12
ATOM     12  S   UNL     1      44.916  35.935  43.065  0.00  0.00    +0.000 S 
BRANCH  12  13
ATOM     13  C   UNL     1      45.539  34.700  44.240  0.00  0.00    +0.000 A 
ATOM     14  C   UNL     1      46.578  33.915  43.737  0.00  0.00    +0.000 A 
ATOM     15  C   UNL     1      47.109  32.932  44.601  0.00  0.00    +0.000 A 
ATOM     16  N   UNL     1      46.586  32.818  45.841  0.00  0.00    +0.000 NA
ATOM     17  C   UNL     1      45.582  33.599  46.284  0.00  0.00    +0.000 A 
ATOM     18  N   UNL     1      45.060  34.540  45.483  0.00  0.00    +0.000 NA
ATOM     19  H   UNL     1      46.998  34.002  42.750  0.00  0.00    +0.000 HD
ATOM     20  H   UNL     1      47.912  32.300  44.260  0.00  0.00    +0.000 HD
ATOM     21  H   UNL     1      45.142  33.534  47.266  0.00  0.00    +0.000 HD
ENDBRANCH  12  13
ENDBRANCH   2  12
TORSDOF 2
