
 OpenBabel03242514553D

 21 23  0  0  0  0  0  0  0  0999 V2000
   43.7340   33.6400   41.9120 C   0  0  0  0  0  3  0  0  0  0  0  0
   43.8710   35.0180   41.7820 C   0  0  0  0  0  0  0  0  0  0  0  0
   43.0730   35.7190   40.9070 C   0  0  0  0  0  0  0  0  0  0  0  0
   43.2150   36.7880   40.8390 H   0  0  0  0  0  0  0  0  0  0  0  0
   42.1230   35.0740   40.1420 C   0  0  0  0  0  0  0  0  0  0  0  0
   41.9740   33.6910   40.2620 C   0  0  0  0  0  0  0  0  0  0  0  0
   42.7760   32.9740   41.1440 C   0  0  0  0  0  3  0  0  0  0  0  0
   40.9510   33.2870   39.3830 O   0  0  0  0  0  0  0  0  0  0  0  0
   40.7990   34.3720   38.4680 C   0  0  0  0  0  3  0  0  0  0  0  0
   39.7700   34.5110   38.1350 H   0  0  0  0  0  0  0  0  0  0  0  0
   41.1900   35.5270   39.1880 O   0  0  0  0  0  0  0  0  0  0  0  0
   45.1240   35.7710   42.8100 S   0  0  0  0  0  0  0  0  0  0  0  0
   45.6570   34.5980   44.0880 C   0  0  0  0  0  0  0  0  0  0  0  0
   46.7190   33.7800   43.6980 C   0  0  0  0  0  0  0  0  0  0  0  0
   47.1830   32.8420   44.6460 C   0  0  0  0  0  0  0  0  0  0  0  0
   46.5800   32.8000   45.8540 N   0  0  0  0  0  0  0  0  0  0  0  0
   45.5570   33.6110   46.1880 C   0  0  0  0  0  0  0  0  0  0  0  0
   45.0970   34.5090   45.3040 N   0  0  0  0  0  0  0  0  0  0  0  0
   47.2030   33.8100   42.7370 H   0  0  0  0  0  0  0  0  0  0  0  0
   48.0000   32.1870   44.3930 H   0  0  0  0  0  0  0  0  0  0  0  0
   45.0540   33.6020   47.1410 H   0  0  0  0  0  0  0  0  0  0  0  0
  2  1  1  0  0  0  0
  2 12  1  0  0  0  0
  3  2  2  0  0  0  0
  4  3  1  0  0  0  0
  5  6  2  0  0  0  0
  5  3  1  0  0  0  0
  6  7  1  0  0  0  0
  7  1  2  0  0  0  0
  8  6  1  0  0  0  0
  9 11  1  0  0  0  0
  9  8  1  0  0  0  0
 10  9  1  0  0  0  0
 11  5  1  0  0  0  0
 12 13  1  0  0  0  0
 13 18  1  0  0  0  0
 14 13  2  0  0  0  0
 14 15  1  0  0  0  0
 15 16  2  0  0  0  0
 16 17  1  0  0  0  0
 17 21  1  0  0  0  0
 18 17  2  0  0  0  0
 19 14  1  0  0  0  0
 20 15  1  0  0  0  0
M  END
>  <minimizedAffinity>
-4.28586531

>  <minimizedRMSD>
0.457124829

$$$$
