
 OpenBabel03242514553D

 21 23  0  0  0  0  0  0  0  0999 V2000
   44.2110   34.6500   40.7520 C   0  0  0  0  0  3  0  0  0  0  0  0
   43.7220   35.3670   41.8380 C   0  0  0  0  0  0  0  0  0  0  0  0
   42.3650   35.5140   42.0220 C   0  0  0  0  0  0  0  0  0  0  0  0
   42.0310   36.0800   42.8800 H   0  0  0  0  0  0  0  0  0  0  0  0
   41.4650   34.9570   41.1380 C   0  0  0  0  0  0  0  0  0  0  0  0
   41.9430   34.2330   40.0430 C   0  0  0  0  0  0  0  0  0  0  0  0
   43.3110   34.0790   39.8490 C   0  0  0  0  0  3  0  0  0  0  0  0
   40.8320   33.7780   39.3070 O   0  0  0  0  0  0  0  0  0  0  0  0
   39.7390   34.5810   39.7500 C   0  0  0  0  0  3  0  0  0  0  0  0
   38.7900   34.0460   39.7630 H   0  0  0  0  0  0  0  0  0  0  0  0
   40.0570   34.9480   41.0810 O   0  0  0  0  0  0  0  0  0  0  0  0
   44.9560   36.0540   42.9320 S   0  0  0  0  0  0  0  0  0  0  0  0
   45.6120   34.7520   44.0140 C   0  0  0  0  0  0  0  0  0  0  0  0
   46.6670   34.0300   43.4530 C   0  0  0  0  0  0  0  0  0  0  0  0
   47.2240   33.0000   44.2430 C   0  0  0  0  0  0  0  0  0  0  0  0
   46.7080   32.7850   45.4730 N   0  0  0  0  0  0  0  0  0  0  0  0
   45.6890   33.5080   45.9730 C   0  0  0  0  0  0  0  0  0  0  0  0
   45.1420   34.4920   45.2430 N   0  0  0  0  0  0  0  0  0  0  0  0
   47.0810   34.1970   42.4740 H   0  0  0  0  0  0  0  0  0  0  0  0
   48.0400   32.4130   43.8550 H   0  0  0  0  0  0  0  0  0  0  0  0
   45.2540   33.3620   46.9490 H   0  0  0  0  0  0  0  0  0  0  0  0
  1  2  1  0  0  0  0
  2  3  2  0  0  0  0
  2 12  1  0  0  0  0
  3  4  1  0  0  0  0
  5  3  1  0  0  0  0
  6  5  2  0  0  0  0
  7  6  1  0  0  0  0
  7  1  2  0  0  0  0
  8  9  1  0  0  0  0
  8  6  1  0  0  0  0
  9 10  1  0  0  0  0
  9 11  1  0  0  0  0
 11  5  1  0  0  0  0
 12 13  1  0  0  0  0
 13 18  1  0  0  0  0
 14 13  2  0  0  0  0
 14 15  1  0  0  0  0
 15 16  2  0  0  0  0
 16 17  1  0  0  0  0
 17 21  1  0  0  0  0
 18 17  2  0  0  0  0
 19 14  1  0  0  0  0
 20 15  1  0  0  0  0
M  END
>  <minimizedAffinity>
-4.44090796

>  <minimizedRMSD>
0.483255714

$$$$
