REMARK  Name = 
REMARK  2 active torsions:
REMARK  status: ('A' for Active; 'I' for Inactive)
REMARK    1  A    between atoms: C_1  and  S_7
REMARK    2  A    between atoms: S_7  and  C_12
REMARK                            x       y       z     vdW  Elec       q    Type
REMARK                         _______ _______ _______ _____ _____    ______ ____
ROOT
ATOM      1  C   UNL     1      42.831  34.256  42.732  0.00  0.00    +0.000 A 
ATOM      2  C   UNL     1      43.588  35.234  42.097  0.00  0.00    +0.000 A 
ATOM      3  C   UNL     1      43.299  35.609  40.805  0.00  0.00    +0.000 A 
ATOM      4  H   UNL     1      43.914  36.373  40.351  0.00  0.00    +0.000 HD
ATOM      5  C   UNL     1      42.257  35.026  40.112  0.00  0.00    +0.000 A 
ATOM      6  C   UNL     1      41.488  34.042  40.739  0.00  0.00    +0.000 A 
ATOM      7  C   UNL     1      41.773  33.657  42.045  0.00  0.00    +0.000 A 
ATOM      8  O   UNL     1      40.503  33.617  39.827  0.00  0.00    +0.000 OA
ATOM      9  C   UNL     1      40.965  34.058  38.551  0.00  0.00    +0.000 C 
ATOM     10  H   UNL     1      40.156  34.343  37.878  0.00  0.00    +0.000 HD
ATOM     11  O   UNL     1      41.747  35.209  38.812  0.00  0.00    +0.000 OA
ENDROOT
BRANCH   2  12
ATOM     12  S   UNL     1      44.916  35.935  43.065  0.00  0.00    +0.000 S 
BRANCH  12  13
ATOM     13  C   UNL     1      45.539  34.700  44.240  0.00  0.00    +0.000 A 
ATOM     14  C   UNL     1      46.578  33.915  43.737  0.00  0.00    +0.000 A 
ATOM     15  C   UNL     1      47.109  32.932  44.601  0.00  0.00    +0.000 A 
ATOM     16  N   UNL     1      46.586  32.818  45.841  0.00  0.00    +0.000 NA
ATOM     17  C   UNL     1      45.582  33.599  46.284  0.00  0.00    +0.000 A 
ATOM     18  N   UNL     1      45.060  34.540  45.483  0.00  0.00    +0.000 NA
ATOM     19  H   UNL     1      46.998  34.002  42.750  0.00  0.00    +0.000 HD
ATOM     20  H   UNL     1      47.912  32.300  44.260  0.00  0.00    +0.000 HD
ATOM     21  H   UNL     1      45.142  33.534  47.266  0.00  0.00    +0.000 HD
ENDBRANCH  12  13
ENDBRANCH   2  12
TORSDOF 2
