
     RDKit          3D

 24 26  0  0  0  0  0  0  0  0999 V2000
   45.5391   34.7002   44.2396 C   0  0  0  0  0  0  0  0  0  0  0  0
   46.5778   33.9146   43.7367 C   0  0  0  0  0  0  0  0  0  0  0  0
   47.1094   32.9318   44.6014 C   0  0  0  0  0  0  0  0  0  0  0  0
   46.5857   32.8175   45.8413 N   0  0  0  0  0  0  0  0  0  0  0  0
   45.5823   33.5988   46.2838 C   0  0  0  0  0  0  0  0  0  0  0  0
   45.0596   34.5396   45.4827 N   0  0  0  0  0  0  0  0  0  0  0  0
   44.9162   35.9355   43.0646 S   0  0  0  0  0  0  0  0  0  0  0  0
   46.9982   34.0020   42.7499 H   0  0  0  0  0  0  0  0  0  0  0  0
   47.9116   32.3005   44.2604 H   0  0  0  0  0  0  0  0  0  0  0  0
   45.1416   33.5341   47.2661 H   0  0  0  0  0  0  0  0  0  0  0  0
   43.4722   33.8495   42.1467 C   0  0  0  0  0  0  0  0  0  0  0  0
   43.5879   35.2341   42.0970 C   0  0  0  0  0  0  0  0  0  0  0  0
   42.7145   35.9797   41.3386 C   0  0  0  0  0  0  0  0  0  0  0  0
   42.8418   37.0523   41.3296 H   0  0  0  0  0  0  0  0  0  0  0  0
   41.7085   35.3738   40.6135 C   0  0  0  0  0  0  0  0  0  0  0  0
   41.5810   33.9833   40.6545 C   0  0  0  0  0  0  0  0  0  0  0  0
   42.4590   33.2215   41.4180 C   0  0  0  0  0  0  0  0  0  0  0  0
   40.4910   33.6245   39.8386 O   0  0  0  0  0  0  0  0  0  0  0  0
   40.2559   34.7640   39.0121 C   0  0  2  0  0  0  0  0  0  0  0  0
   39.2019   34.9115   38.7752 H   0  0  0  0  0  0  0  0  0  0  0  0
   40.6967   35.8750   39.7716 O   0  0  0  0  0  0  0  0  0  0  0  0
   44.1306   33.2298   42.7241 H   0  0  0  0  0  0  0  0  0  0  0  0
   42.3636   32.1375   41.4532 H   0  0  0  0  0  0  0  0  0  0  0  0
   40.8864   34.6216   38.1123 H   0  0  0  0  0  0  0  0  0  0  0  0
  1  6  1  0
  2  1  2  0
  2  3  1  0
  3  4  2  0
  4  5  1  0
  6  5  2  0
  7  1  1  0
  2  8  1  0
  3  9  1  0
  5 10  1  0
 11 12  2  0
 12 13  1  0
 13 14  1  0
 13 15  2  0
 15 16  1  0
 16 17  2  0
 16 18  1  0
 18 19  1  0
 19 20  1  6
 19 21  1  0
 17 11  1  0
 21 15  1  0
 11 22  1  0
 17 23  1  0
 19 24  1  0
  7 12  1  0
M  ISO  5   8  14   9  14  10  14  14  16  20   8
M  END
>  <DihAtoms>  (1) 
0,6,11,10

>  <DihDeg>  (1) 
89.99969462806793

$$$$
