
     RDKit          3D

 24 26  0  0  0  0  0  0  0  0999 V2000
   45.5391   34.7002   44.2396 C   0  0  0  0  0  0  0  0  0  0  0  0
   46.5778   33.9146   43.7367 C   0  0  0  0  0  0  0  0  0  0  0  0
   47.1094   32.9318   44.6014 C   0  0  0  0  0  0  0  0  0  0  0  0
   46.5857   32.8175   45.8413 N   0  0  0  0  0  0  0  0  0  0  0  0
   45.5823   33.5988   46.2838 C   0  0  0  0  0  0  0  0  0  0  0  0
   45.0596   34.5396   45.4827 N   0  0  0  0  0  0  0  0  0  0  0  0
   44.9162   35.9355   43.0646 S   0  0  0  0  0  0  0  0  0  0  0  0
   46.9982   34.0020   42.7499 H   0  0  0  0  0  0  0  0  0  0  0  0
   47.9116   32.3005   44.2604 H   0  0  0  0  0  0  0  0  0  0  0  0
   45.1416   33.5341   47.2661 H   0  0  0  0  0  0  0  0  0  0  0  0
   43.9188   34.1153   41.3408 C   0  0  0  0  0  0  0  0  0  0  0  0
   43.5879   35.2341   42.0970 C   0  0  0  0  0  0  0  0  0  0  0  0
   42.3072   35.7373   42.0734 C   0  0  0  0  0  0  0  0  0  0  0  0
   42.0952   36.6079   42.6766 H   0  0  0  0  0  0  0  0  0  0  0  0
   41.3265   35.1464   41.3028 C   0  0  0  0  0  0  0  0  0  0  0  0
   41.6455   34.0216   40.5381 C   0  0  0  0  0  0  0  0  0  0  0  0
   42.9370   33.5060   40.5555 C   0  0  0  0  0  0  0  0  0  0  0  0
   40.4824   33.6193   39.8542 O   0  0  0  0  0  0  0  0  0  0  0  0
   39.6123   34.7494   39.9063 C   0  0  2  0  0  0  0  0  0  0  0  0
   38.5588   34.4764   39.9734 H   0  0  0  0  0  0  0  0  0  0  0  0
   39.9652   35.4396   41.0914 O   0  0  0  0  0  0  0  0  0  0  0  0
   44.9037   33.6900   41.3293 H   0  0  0  0  0  0  0  0  0  0  0  0
   43.1905   32.6296   39.9614 H   0  0  0  0  0  0  0  0  0  0  0  0
   39.8467   35.3545   39.0084 H   0  0  0  0  0  0  0  0  0  0  0  0
  1  6  1  0
  2  1  2  0
  2  3  1  0
  3  4  2  0
  4  5  1  0
  6  5  2  0
  7  1  1  0
  2  8  1  0
  3  9  1  0
  5 10  1  0
 11 12  2  0
 12 13  1  0
 13 14  1  0
 13 15  2  0
 15 16  1  0
 16 17  2  0
 16 18  1  0
 18 19  1  0
 19 20  1  1
 19 21  1  0
 17 11  1  0
 21 15  1  0
 11 22  1  0
 17 23  1  0
 19 24  1  0
  7 12  1  0
M  ISO  5   8  14   9  14  10  14  14  16  20   8
M  END
>  <DihAtoms>  (1) 
0,6,11,10

>  <DihDeg>  (1) 
89.99969462806793

$$$$
