
     RDKit          3D

 24 26  0  0  0  0  0  0  0  0999 V2000
   45.5391   34.7002   44.2396 C   0  0  0  0  0  0  0  0  0  0  0  0
   46.5778   33.9146   43.7367 C   0  0  0  0  0  0  0  0  0  0  0  0
   47.1094   32.9318   44.6014 C   0  0  0  0  0  0  0  0  0  0  0  0
   46.5857   32.8175   45.8413 N   0  0  0  0  0  0  0  0  0  0  0  0
   45.5823   33.5988   46.2838 C   0  0  0  0  0  0  0  0  0  0  0  0
   45.0596   34.5396   45.4827 N   0  0  0  0  0  0  0  0  0  0  0  0
   44.9162   35.9355   43.0646 S   0  0  0  0  0  0  0  0  0  0  0  0
   46.9982   34.0020   42.7499 H   0  0  0  0  0  0  0  0  0  0  0  0
   47.9116   32.3005   44.2604 H   0  0  0  0  0  0  0  0  0  0  0  0
   45.1416   33.5341   47.2661 H   0  0  0  0  0  0  0  0  0  0  0  0
   42.4675   36.0415   41.9369 C   0  0  0  0  0  0  0  0  0  0  0  0
   43.5879   35.2341   42.0970 C   0  0  0  0  0  0  0  0  0  0  0  0
   43.6307   33.9809   41.5298 C   0  0  0  0  0  0  0  0  0  0  0  0
   44.5212   33.3884   41.6801 H   0  0  0  0  0  0  0  0  0  0  0  0
   42.5680   33.4988   40.7927 C   0  0  0  0  0  0  0  0  0  0  0  0
   41.4360   34.2998   40.6241 C   0  0  0  0  0  0  0  0  0  0  0  0
   41.3837   35.5676   41.1936 C   0  0  0  0  0  0  0  0  0  0  0  0
   40.5106   33.5820   39.8425 O   0  0  0  0  0  0  0  0  0  0  0  0
   40.9422   32.2234   39.9117 C   0  0  2  0  0  0  0  0  0  0  0  0
   40.7568   31.6675   38.9922 H   0  0  0  0  0  0  0  0  0  0  0  0
   42.3423   32.2850   40.1149 O   0  0  0  0  0  0  0  0  0  0  0  0
   42.3914   37.0240   42.3612 H   0  0  0  0  0  0  0  0  0  0  0  0
   40.5036   36.1956   41.0649 H   0  0  0  0  0  0  0  0  0  0  0  0
   40.4309   31.7871   40.7923 H   0  0  0  0  0  0  0  0  0  0  0  0
  1  6  1  0
  2  1  2  0
  2  3  1  0
  3  4  2  0
  4  5  1  0
  6  5  2  0
  7  1  1  0
  2  8  1  0
  3  9  1  0
  5 10  1  0
 11 12  2  0
 12 13  1  0
 13 14  1  0
 13 15  2  0
 15 16  1  0
 16 17  2  0
 16 18  1  0
 18 19  1  0
 19 20  1  6
 19 21  1  0
 17 11  1  0
 21 15  1  0
 11 22  1  0
 17 23  1  0
 19 24  1  0
  7 12  1  0
M  ISO  5   8  14   9  14  10  14  14  16  20   8
M  END
>  <DihAtoms>  (1) 
0,6,11,10

>  <DihDeg>  (1) 
89.99969462806793

$$$$
