
 OpenBabel03242513433D

 42 46  0  0  0  0  0  0  0  0999 V2000
   41.0130   31.5390   40.7740 C   0  0  0  0  0  0  0  0  0  0  0  0
   40.9870   30.7960   41.9230 C   0  0  0  0  0  0  0  0  0  0  0  0
   41.9070   31.0890   42.9010 C   0  0  0  0  0  0  0  0  0  0  0  0
   42.8400   32.0890   42.7670 C   0  0  0  0  0  0  0  0  0  0  0  0
   43.8460   32.6160   43.5030 N   0  0  0  0  0  0  0  0  0  0  0  0
   44.4440   33.6230   42.8320 C   0  0  0  0  0  0  0  0  0  0  0  0
   43.8010   33.7240   41.6580 N   0  0  0  0  0  0  0  0  0  0  0  0
   42.8150   32.7960   41.5940 C   0  0  0  0  0  0  0  0  0  0  0  0
   41.9290   32.5560   40.5850 C   0  0  0  0  0  0  0  0  0  0  0  0
   40.2780   31.3050   39.9930 H   0  0  0  0  0  0  0  0  0  0  0  0
   41.9160   30.5180   43.8320 H   0  0  0  0  0  0  0  0  0  0  0  0
   44.1020   32.2650   44.4700 H   0  0  0  0  0  0  0  0  0  0  0  0
   45.2760   34.2420   43.1480 H   0  0  0  0  0  0  0  0  0  0  0  0
   39.2630   27.5800   41.6460 C   0  0  0  0  0  0  0  0  0  0  0  0
   38.1400   27.7460   42.4460 C   0  0  0  0  0  0  0  0  0  0  0  0
   38.0010   28.9830   43.0730 C   0  0  0  0  0  0  0  0  0  0  0  0
   38.9330   29.9480   42.8870 N   0  0  0  0  0  0  0  0  0  0  0  0
   40.0010   29.7210   42.0960 C   0  0  0  0  0  0  0  0  0  0  0  0
   40.1860   28.5530   41.4690 N   0  0  0  0  0  0  0  0  0  0  0  0
   39.4620   26.6570   41.1160 H   0  0  0  0  0  0  0  0  0  0  0  0
   37.1410   29.1060   43.6840 H   0  0  0  0  0  0  0  0  0  0  0  0
   37.1970   26.6060   42.5640 C   0  0  0  0  0  0  0  0  0  0  0  0
   36.3240   26.9590   43.5590 F   0  0  0  0  0  0  0  0  0  0  0  0
   37.9120   25.4940   42.9170 F   0  0  0  0  0  0  0  0  0  0  0  0
   36.5790   26.4460   41.3260 F   0  0  0  0  0  0  0  0  0  0  0  0
   41.9660   33.3130   39.4300 O   0  0  0  0  0  0  0  0  0  0  0  0
   42.5420   31.5230   37.6580 O   0  0  0  0  0  0  0  0  0  0  0  0
   41.6570   32.7540   37.8780 P   0  0  2  0  0  0  0  0  0  0  0  0
   42.2200   33.9530   36.7950 O   0  0  0  0  0  0  0  0  0  0  0  0
   42.9870   33.6490   36.2700 H   0  0  0  0  0  0  0  0  0  0  0  0
   40.0650   32.4130   37.5630 O   0  0  0  0  0  0  0  0  0  0  0  0
   38.3480   33.0010   39.2330 C   0  0  0  0  0  3  0  0  0  0  0  0
   39.0300   32.1320   38.4060 C   0  0  0  0  0  0  0  0  0  0  0  0
   38.6080   30.7970   38.4360 C   0  0  0  0  0  0  0  0  0  0  0  0
   39.0500   29.9930   37.8360 H   0  0  0  0  0  0  0  0  0  0  0  0
   37.5580   30.4050   39.2640 C   0  0  0  0  0  0  0  0  0  0  0  0
   36.9220   31.3180   40.0630 C   0  0  0  0  0  0  0  0  0  0  0  0
   37.3180   32.6270   40.0490 C   0  0  0  0  0  3  0  0  0  0  0  0
   35.9140   30.6720   40.7880 O   0  0  0  0  0  0  0  0  0  0  0  0
   35.6580   29.4480   40.1300 C   0  0  0  0  0  3  0  0  0  0  0  0
   35.3700   28.6470   40.8170 H   0  0  0  0  0  0  0  0  0  0  0  0
   36.9190   29.1830   39.5160 O   0  0  0  0  0  0  0  0  0  0  0  0
  1  2  1  0  0  0  0
  2 18  1  0  0  0  0
  2  3  2  0  0  0  0
  3 11  1  0  0  0  0
  4  3  1  0  0  0  0
  4  5  1  0  0  0  0
  5 12  1  0  0  0  0
  6 13  1  0  0  0  0
  6  5  1  0  0  0  0
  7  6  2  0  0  0  0
  8  7  1  0  0  0  0
  8  4  2  0  0  0  0
  9  1  2  0  0  0  0
  9  8  1  0  0  0  0
 10  1  1  0  0  0  0
 14 15  1  0  0  0  0
 15 22  1  0  0  0  0
 15 16  2  0  0  0  0
 16 21  1  0  0  0  0
 17 16  1  0  0  0  0
 18 17  2  0  0  0  0
 19 14  2  0  0  0  0
 19 18  1  0  0  0  0
 20 14  1  0  0  0  0
 22 24  1  0  0  0  0
 22 23  1  0  0  0  0
 25 22  1  0  0  0  0
 26  9  1  0  0  0  0
 28 27  2  6  0  0  0
 28 26  1  0  0  0  0
 29 28  1  0  0  0  0
 30 29  1  0  0  0  0
 31 28  1  0  0  0  0
 31 33  1  0  0  0  0
 32 38  1  0  0  0  0
 33 34  1  0  0  0  0
 33 32  2  0  0  0  0
 34 36  2  0  0  0  0
 35 34  1  0  0  0  0
 36 42  1  0  0  0  0
 36 37  1  0  0  0  0
 37 39  1  0  0  0  0
 38 37  2  0  0  0  0
 40 39  1  0  0  0  0
 40 41  1  0  0  0  0
 42 40  1  0  0  0  0
M  END
>  <minimizedAffinity>
-7.14021969

$$$$

 OpenBabel03242513433D

 42 46  0  0  0  0  0  0  0  0999 V2000
   40.8130   31.9630   40.7820 C   0  0  0  0  0  0  0  0  0  0  0  0
   40.8650   31.2360   41.9400 C   0  0  0  0  0  0  0  0  0  0  0  0
   41.9140   31.4630   42.7980 C   0  0  0  0  0  0  0  0  0  0  0  0
   42.9000   32.3850   42.5370 C   0  0  0  0  0  0  0  0  0  0  0  0
   44.0240   32.8380   43.1410 N   0  0  0  0  0  0  0  0  0  0  0  0
   44.6150   33.7870   42.3860 C   0  0  0  0  0  0  0  0  0  0  0  0
   43.8470   33.9280   41.2940 N   0  0  0  0  0  0  0  0  0  0  0  0
   42.7920   33.0810   41.3620 C   0  0  0  0  0  0  0  0  0  0  0  0
   41.7770   32.9030   40.4680 C   0  0  0  0  0  0  0  0  0  0  0  0
   39.9750   31.7810   40.0970 H   0  0  0  0  0  0  0  0  0  0  0  0
   41.9890   30.9020   43.7310 H   0  0  0  0  0  0  0  0  0  0  0  0
   44.3640   32.4750   44.0770 H   0  0  0  0  0  0  0  0  0  0  0  0
   45.5240   34.3420   42.5910 H   0  0  0  0  0  0  0  0  0  0  0  0
   37.6030   29.6390   42.3820 C   0  0  0  0  0  0  0  0  0  0  0  0
   37.9250   28.3620   42.8260 C   0  0  0  0  0  0  0  0  0  0  0  0
   39.2820   28.0780   42.9660 C   0  0  0  0  0  0  0  0  0  0  0  0
   40.2080   29.0230   42.6730 N   0  0  0  0  0  0  0  0  0  0  0  0
   39.8260   30.2430   42.2460 C   0  0  0  0  0  0  0  0  0  0  0  0
   38.5380   30.5720   42.0940 N   0  0  0  0  0  0  0  0  0  0  0  0
   36.5770   29.9570   42.2420 H   0  0  0  0  0  0  0  0  0  0  0  0
   39.5260   27.1020   43.3050 H   0  0  0  0  0  0  0  0  0  0  0  0
   36.8110   27.4240   43.1120 C   0  0  0  0  0  0  0  0  0  0  0  0
   35.7900   27.8120   42.2850 F   0  0  0  0  0  0  0  0  0  0  0  0
   36.4550   27.5700   44.4240 F   0  0  0  0  0  0  0  0  0  0  0  0
   37.2710   26.1370   42.8450 F   0  0  0  0  0  0  0  0  0  0  0  0
   41.7360   33.6430   39.3040 O   0  0  0  0  0  0  0  0  0  0  0  0
   43.2450   32.1220   37.8590 O   0  0  0  0  0  0  0  0  0  0  0  0
   42.0400   33.0640   37.7580 P   0  0  2  0  0  0  0  0  0  0  0  0
   42.5490   34.3980   36.8160 O   0  0  0  0  0  0  0  0  0  0  0  0
   43.4850   34.3260   36.5440 H   0  0  0  0  0  0  0  0  0  0  0  0
   40.7530   32.3150   37.0270 O   0  0  0  0  0  0  0  0  0  0  0  0
   38.4220   31.8110   37.6560 C   0  0  0  0  0  3  0  0  0  0  0  0
   39.7680   31.5270   37.5460 C   0  0  0  0  0  0  0  0  0  0  0  0
   40.1740   30.2760   38.0270 C   0  0  0  0  0  0  0  0  0  0  0  0
   41.2060   29.9090   38.0080 H   0  0  0  0  0  0  0  0  0  0  0  0
   39.2450   29.3950   38.5780 C   0  0  0  0  0  0  0  0  0  0  0  0
   37.9210   29.7370   38.6590 C   0  0  0  0  0  0  0  0  0  0  0  0
   37.5050   30.9550   38.1940 C   0  0  0  0  0  3  0  0  0  0  0  0
   37.2090   28.6860   39.2460 O   0  0  0  0  0  0  0  0  0  0  0  0
   38.0230   27.5350   39.1470 C   0  0  0  0  0  3  0  0  0  0  0  0
   37.8960   26.8500   39.9910 H   0  0  0  0  0  0  0  0  0  0  0  0
   39.3300   28.1090   39.1300 O   0  0  0  0  0  0  0  0  0  0  0  0
  1  2  1  0  0  0  0
  2 18  1  0  0  0  0
  2  3  2  0  0  0  0
  3 11  1  0  0  0  0
  4  3  1  0  0  0  0
  4  5  1  0  0  0  0
  5 12  1  0  0  0  0
  6 13  1  0  0  0  0
  6  5  1  0  0  0  0
  7  8  1  0  0  0  0
  7  6  2  0  0  0  0
  8  4  2  0  0  0  0
  9  1  2  0  0  0  0
  9  8  1  0  0  0  0
 10  1  1  0  0  0  0
 14 15  1  0  0  0  0
 15 16  2  0  0  0  0
 15 22  1  0  0  0  0
 16 21  1  0  0  0  0
 17 16  1  0  0  0  0
 18 17  2  0  0  0  0
 19 18  1  0  0  0  0
 19 14  2  0  0  0  0
 20 14  1  0  0  0  0
 22 24  1  0  0  0  0
 23 22  1  0  0  0  0
 25 22  1  0  0  0  0
 26  9  1  0  0  0  0
 28 27  2  1  0  0  0
 28 26  1  0  0  0  0
 29 28  1  0  0  0  0
 30 29  1  0  0  0  0
 31 33  1  0  0  0  0
 31 28  1  0  0  0  0
 32 38  1  0  0  0  0
 33 32  2  0  0  0  0
 33 34  1  0  0  0  0
 34 36  2  0  0  0  0
 35 34  1  0  0  0  0
 36 37  1  0  0  0  0
 36 42  1  0  0  0  0
 37 39  1  0  0  0  0
 38 37  2  0  0  0  0
 40 39  1  0  0  0  0
 40 41  1  0  0  0  0
 42 40  1  0  0  0  0
M  END
>  <minimizedAffinity>
-7.03604507

$$$$

 OpenBabel03242513433D

 42 46  0  0  0  0  0  0  0  0999 V2000
   36.7220   27.4020   39.9630 C   0  0  0  0  0  0  0  0  0  0  0  0
   36.9110   26.8940   38.7060 C   0  0  0  0  0  0  0  0  0  0  0  0
   37.3090   25.5840   38.5940 C   0  0  0  0  0  0  0  0  0  0  0  0
   37.5230   24.7750   39.6850 C   0  0  0  0  0  0  0  0  0  0  0  0
   37.9020   23.4980   39.9170 N   0  0  0  0  0  0  0  0  0  0  0  0
   37.9380   23.2500   41.2430 C   0  0  0  0  0  0  0  0  0  0  0  0
   37.5770   24.3940   41.8470 N   0  0  0  0  0  0  0  0  0  0  0  0
   37.3170   25.3420   40.9150 C   0  0  0  0  0  0  0  0  0  0  0  0
   36.9210   26.6350   41.0960 C   0  0  0  0  0  0  0  0  0  0  0  0
   36.4040   28.4480   40.0530 H   0  0  0  0  0  0  0  0  0  0  0  0
   37.4700   25.1440   37.6070 H   0  0  0  0  0  0  0  0  0  0  0  0
   38.1310   22.8110   39.1430 H   0  0  0  0  0  0  0  0  0  0  0  0
   38.2020   22.3290   41.7500 H   0  0  0  0  0  0  0  0  0  0  0  0
   35.3590   29.1570   36.2850 C   0  0  0  0  0  0  0  0  0  0  0  0
   36.3270   29.2860   35.2970 C   0  0  0  0  0  0  0  0  0  0  0  0
   37.5110   28.5770   35.4920 C   0  0  0  0  0  0  0  0  0  0  0  0
   37.6720   27.8140   36.5990 N   0  0  0  0  0  0  0  0  0  0  0  0
   36.6910   27.7330   37.5200 C   0  0  0  0  0  0  0  0  0  0  0  0
   35.5340   28.3920   37.3860 N   0  0  0  0  0  0  0  0  0  0  0  0
   34.4060   29.6670   36.2270 H   0  0  0  0  0  0  0  0  0  0  0  0
   38.2490   28.6770   34.7350 H   0  0  0  0  0  0  0  0  0  0  0  0
   36.0210   30.1550   34.1340 C   0  0  0  0  0  0  0  0  0  0  0  0
   36.6820   31.3300   34.3760 F   0  0  0  0  0  0  0  0  0  0  0  0
   34.6680   30.3580   34.0970 F   0  0  0  0  0  0  0  0  0  0  0  0
   36.4720   29.4990   32.9920 F   0  0  0  0  0  0  0  0  0  0  0  0
   36.7340   27.1350   42.3690 O   0  0  0  0  0  0  0  0  0  0  0  0
   38.7630   27.0760   43.9690 O   0  0  0  0  0  0  0  0  0  0  0  0
   37.8390   28.0550   43.2370 P   0  0  2  0  0  0  0  0  0  0  0  0
   36.9570   28.8820   44.4470 O   0  0  0  0  0  0  0  0  0  0  0  0
   37.1820   28.5750   45.3470 H   0  0  0  0  0  0  0  0  0  0  0  0
   38.7080   29.1400   42.3320 O   0  0  0  0  0  0  0  0  0  0  0  0
   37.0890   30.5580   41.1280 C   0  0  0  0  0  3  0  0  0  0  0  0
   38.3190   30.2770   41.6880 C   0  0  0  0  0  0  0  0  0  0  0  0
   39.2870   31.2830   41.5800 C   0  0  0  0  0  0  0  0  0  0  0  0
   40.3070   31.2080   41.9750 H   0  0  0  0  0  0  0  0  0  0  0  0
   38.9910   32.4850   40.9400 C   0  0  0  0  0  0  0  0  0  0  0  0
   37.7490   32.7020   40.4040 C   0  0  0  0  0  0  0  0  0  0  0  0
   36.7890   31.7320   40.4980 C   0  0  0  0  0  3  0  0  0  0  0  0
   37.7140   33.9750   39.8240 O   0  0  0  0  0  0  0  0  0  0  0  0
   38.7990   34.7010   40.3660 C   0  0  0  0  0  3  0  0  0  0  0  0
   39.2280   35.4160   39.6580 H   0  0  0  0  0  0  0  0  0  0  0  0
   39.7180   33.6530   40.6750 O   0  0  0  0  0  0  0  0  0  0  0  0
  1 10  1  0  0  0  0
  1  9  1  0  0  0  0
  2  1  2  0  0  0  0
  3  2  1  0  0  0  0
  3  4  2  0  0  0  0
  4  5  1  0  0  0  0
  4  8  1  0  0  0  0
  5  6  1  0  0  0  0
  6 13  1  0  0  0  0
  6  7  2  0  0  0  0
  8  9  2  0  0  0  0
  8  7  1  0  0  0  0
  9 26  1  0  0  0  0
 11  3  1  0  0  0  0
 12  5  1  0  0  0  0
 14 19  1  0  0  0  0
 15 16  1  0  0  0  0
 15 14  2  0  0  0  0
 16 17  2  0  0  0  0
 17 18  1  0  0  0  0
 18  2  1  0  0  0  0
 19 18  2  0  0  0  0
 20 14  1  0  0  0  0
 21 16  1  0  0  0  0
 22 23  1  0  0  0  0
 22 15  1  0  0  0  0
 24 22  1  0  0  0  0
 25 22  1  0  0  0  0
 26 28  1  0  0  0  0
 28 27  2  1  0  0  0
 28 29  1  0  0  0  0
 29 30  1  0  0  0  0
 31 28  1  0  0  0  0
 32 33  1  0  0  0  0
 33 31  1  0  0  0  0
 34 33  2  0  0  0  0
 34 35  1  0  0  0  0
 36 34  1  0  0  0  0
 37 38  1  0  0  0  0
 37 36  2  0  0  0  0
 38 32  2  0  0  0  0
 39 40  1  0  0  0  0
 39 37  1  0  0  0  0
 40 42  1  0  0  0  0
 41 40  1  0  0  0  0
 42 36  1  0  0  0  0
M  END
>  <minimizedAffinity>
-6.9633193

$$$$

 OpenBabel03242513433D

 42 46  0  0  0  0  0  0  0  0999 V2000
   40.0460   31.0870   41.0720 C   0  0  0  0  0  0  0  0  0  0  0  0
   40.3960   30.0840   41.9340 C   0  0  0  0  0  0  0  0  0  0  0  0
   41.5110   30.2660   42.7150 C   0  0  0  0  0  0  0  0  0  0  0  0
   42.2790   31.4050   42.6620 C   0  0  0  0  0  0  0  0  0  0  0  0
   43.3910   31.8850   43.2650 N   0  0  0  0  0  0  0  0  0  0  0  0
   43.6930   33.1120   42.7920 C   0  0  0  0  0  0  0  0  0  0  0  0
   42.7540   33.4010   41.8760 N   0  0  0  0  0  0  0  0  0  0  0  0
   41.8770   32.3730   41.7780 C   0  0  0  0  0  0  0  0  0  0  0  0
   40.7800   32.2550   40.9750 C   0  0  0  0  0  0  0  0  0  0  0  0
   39.1550   30.9420   40.4480 H   0  0  0  0  0  0  0  0  0  0  0  0
   41.8210   29.4870   43.4150 H   0  0  0  0  0  0  0  0  0  0  0  0
   43.9260   31.3470   44.0050 H   0  0  0  0  0  0  0  0  0  0  0  0
   44.5170   33.7580   43.0710 H   0  0  0  0  0  0  0  0  0  0  0  0
   37.7600   27.7000   42.8030 C   0  0  0  0  0  0  0  0  0  0  0  0
   38.1360   26.5430   42.1320 C   0  0  0  0  0  0  0  0  0  0  0  0
   39.3100   26.6140   41.3840 C   0  0  0  0  0  0  0  0  0  0  0  0
   40.0180   27.7670   41.3370 N   0  0  0  0  0  0  0  0  0  0  0  0
   39.5950   28.8550   42.0140 C   0  0  0  0  0  0  0  0  0  0  0  0
   38.4770   28.8450   42.7490 N   0  0  0  0  0  0  0  0  0  0  0  0
   36.8650   27.7470   43.4110 H   0  0  0  0  0  0  0  0  0  0  0  0
   39.5950   25.7280   40.8710 H   0  0  0  0  0  0  0  0  0  0  0  0
   37.2690   25.3470   42.2680 C   0  0  0  0  0  0  0  0  0  0  0  0
   36.7370   25.1420   41.0230 F   0  0  0  0  0  0  0  0  0  0  0  0
   36.2840   25.6350   43.1740 F   0  0  0  0  0  0  0  0  0  0  0  0
   38.0720   24.2960   42.7000 F   0  0  0  0  0  0  0  0  0  0  0  0
   40.4380   33.2740   40.1090 O   0  0  0  0  0  0  0  0  0  0  0  0
   39.5150   35.6610   39.7500 O   0  0  0  0  0  0  0  0  0  0  0  0
   39.0960   34.2730   40.2470 P   0  0  2  0  0  0  0  0  0  0  0  0
   38.7670   34.4390   41.9170 O   0  0  0  0  0  0  0  0  0  0  0  0
   38.9210   35.3490   42.2380 H   0  0  0  0  0  0  0  0  0  0  0  0
   37.7410   33.7350   39.4560 O   0  0  0  0  0  0  0  0  0  0  0  0
   37.5860   31.8930   37.8240 C   0  0  0  0  0  3  0  0  0  0  0  0
   37.3820   32.4820   39.0550 C   0  0  0  0  0  0  0  0  0  0  0  0
   36.7230   31.6970   40.0100 C   0  0  0  0  0  0  0  0  0  0  0  0
   36.4910   32.0260   41.0290 H   0  0  0  0  0  0  0  0  0  0  0  0
   36.3130   30.4020   39.7010 C   0  0  0  0  0  0  0  0  0  0  0  0
   36.5470   29.8740   38.4580 C   0  0  0  0  0  0  0  0  0  0  0  0
   37.1890   30.6240   37.5110 C   0  0  0  0  0  3  0  0  0  0  0  0
   36.0410   28.5710   38.4090 O   0  0  0  0  0  0  0  0  0  0  0  0
   35.8680   28.1490   39.7470 C   0  0  0  0  0  3  0  0  0  0  0  0
   35.0170   27.4720   39.8730 H   0  0  0  0  0  0  0  0  0  0  0  0
   35.6520   29.3920   40.4140 O   0  0  0  0  0  0  0  0  0  0  0  0
  1  2  1  0  0  0  0
  2 18  1  0  0  0  0
  2  3  2  0  0  0  0
  3 11  1  0  0  0  0
  4  3  1  0  0  0  0
  4  5  1  0  0  0  0
  5 12  1  0  0  0  0
  6 13  1  0  0  0  0
  6  5  1  0  0  0  0
  7  6  2  0  0  0  0
  8  7  1  0  0  0  0
  8  4  2  0  0  0  0
  9  1  2  0  0  0  0
  9  8  1  0  0  0  0
 10  1  1  0  0  0  0
 14 20  1  0  0  0  0
 15 22  1  0  0  0  0
 15 14  2  0  0  0  0
 16 15  1  0  0  0  0
 17 16  2  0  0  0  0
 17 18  1  0  0  0  0
 18 19  2  0  0  0  0
 19 14  1  0  0  0  0
 21 16  1  0  0  0  0
 22 25  1  0  0  0  0
 22 24  1  0  0  0  0
 23 22  1  0  0  0  0
 26 28  1  0  0  0  0
 26  9  1  0  0  0  0
 28 27  2  6  0  0  0
 28 29  1  0  0  0  0
 29 30  1  0  0  0  0
 31 28  1  0  0  0  0
 32 33  1  0  0  0  0
 33 31  1  0  0  0  0
 33 34  2  0  0  0  0
 34 35  1  0  0  0  0
 36 34  1  0  0  0  0
 36 42  1  0  0  0  0
 37 36  2  0  0  0  0
 38 32  2  0  0  0  0
 38 37  1  0  0  0  0
 39 37  1  0  0  0  0
 39 40  1  0  0  0  0
 40 41  1  0  0  0  0
 40 42  1  0  0  0  0
M  END
>  <minimizedAffinity>
-6.89423466

$$$$

 OpenBabel03242513433D

 42 46  0  0  0  0  0  0  0  0999 V2000
   41.3970   31.8110   40.7300 C   0  0  0  0  0  0  0  0  0  0  0  0
   40.2070   31.3670   41.2380 C   0  0  0  0  0  0  0  0  0  0  0  0
   39.1530   32.2480   41.2740 C   0  0  0  0  0  0  0  0  0  0  0  0
   39.2500   33.5420   40.8230 C   0  0  0  0  0  0  0  0  0  0  0  0
   38.4430   34.6230   40.7180 N   0  0  0  0  0  0  0  0  0  0  0  0
   39.1120   35.6610   40.1740 C   0  0  0  0  0  0  0  0  0  0  0  0
   40.3570   35.2200   39.9380 N   0  0  0  0  0  0  0  0  0  0  0  0
   40.4680   33.9260   40.3250 C   0  0  0  0  0  0  0  0  0  0  0  0
   41.5530   33.1020   40.2620 C   0  0  0  0  0  0  0  0  0  0  0  0
   42.2390   31.1080   40.7010 H   0  0  0  0  0  0  0  0  0  0  0  0
   38.1870   31.9290   41.6720 H   0  0  0  0  0  0  0  0  0  0  0  0
   37.4290   34.6210   41.0280 H   0  0  0  0  0  0  0  0  0  0  0  0
   38.7480   36.6600   39.9610 H   0  0  0  0  0  0  0  0  0  0  0  0
   38.8480   28.0430   41.9430 C   0  0  0  0  0  0  0  0  0  0  0  0
   39.8640   27.4240   42.6600 C   0  0  0  0  0  0  0  0  0  0  0  0
   41.0120   28.1810   42.8880 C   0  0  0  0  0  0  0  0  0  0  0  0
   41.0960   29.4480   42.4190 N   0  0  0  0  0  0  0  0  0  0  0  0
   40.0710   29.9880   41.7290 C   0  0  0  0  0  0  0  0  0  0  0  0
   38.9450   29.3100   41.4800 N   0  0  0  0  0  0  0  0  0  0  0  0
   37.9170   27.5410   41.7140 H   0  0  0  0  0  0  0  0  0  0  0  0
   41.7880   27.7050   43.4370 H   0  0  0  0  0  0  0  0  0  0  0  0
   39.6420   26.0300   43.1170 C   0  0  0  0  0  0  0  0  0  0  0  0
   38.3680   25.7180   42.7220 F   0  0  0  0  0  0  0  0  0  0  0  0
   39.7470   26.0050   44.4810 F   0  0  0  0  0  0  0  0  0  0  0  0
   40.6120   25.2340   42.5140 F   0  0  0  0  0  0  0  0  0  0  0  0
   42.7480   33.5630   39.7460 O   0  0  0  0  0  0  0  0  0  0  0  0
   44.6330   33.7990   37.9940 O   0  0  0  0  0  0  0  0  0  0  0  0
   43.1060   33.7610   38.1180 P   0  0  2  0  0  0  0  0  0  0  0  0
   42.5470   35.3150   37.6700 O   0  0  0  0  0  0  0  0  0  0  0  0
   43.2790   35.9230   37.4470 H   0  0  0  0  0  0  0  0  0  0  0  0
   42.4500   32.6150   37.1140 O   0  0  0  0  0  0  0  0  0  0  0  0
   41.5170   30.3610   37.4760 C   0  0  0  0  0  3  0  0  0  0  0  0
   41.4330   31.7300   37.3170 C   0  0  0  0  0  0  0  0  0  0  0  0
   40.1440   32.2770   37.3690 C   0  0  0  0  0  0  0  0  0  0  0  0
   39.9190   33.3430   37.2600 H   0  0  0  0  0  0  0  0  0  0  0  0
   39.0350   31.4570   37.5710 C   0  0  0  0  0  0  0  0  0  0  0  0
   39.1860   30.1040   37.7220 C   0  0  0  0  0  0  0  0  0  0  0  0
   40.4360   29.5500   37.6750 C   0  0  0  0  0  3  0  0  0  0  0  0
   37.9300   29.5190   37.9110 O   0  0  0  0  0  0  0  0  0  0  0  0
   37.0480   30.5570   38.2890 C   0  0  0  0  0  3  0  0  0  0  0  0
   36.0270   30.4020   37.9280 H   0  0  0  0  0  0  0  0  0  0  0  0
   37.6570   31.6900   37.6700 O   0  0  0  0  0  0  0  0  0  0  0  0
  1  2  1  0  0  0  0
  2  3  2  0  0  0  0
  2 18  1  0  0  0  0
  3 11  1  0  0  0  0
  4  3  1  0  0  0  0
  5  4  1  0  0  0  0
  5 12  1  0  0  0  0
  6  5  1  0  0  0  0
  7  6  2  0  0  0  0
  7  8  1  0  0  0  0
  8  4  2  0  0  0  0
  9  8  1  0  0  0  0
  9  1  2  0  0  0  0
 10  1  1  0  0  0  0
 13  6  1  0  0  0  0
 14 15  1  0  0  0  0
 15 16  2  0  0  0  0
 15 22  1  0  0  0  0
 16 21  1  0  0  0  0
 17 16  1  0  0  0  0
 18 17  2  0  0  0  0
 19 18  1  0  0  0  0
 19 14  2  0  0  0  0
 20 14  1  0  0  0  0
 22 24  1  0  0  0  0
 23 22  1  0  0  0  0
 25 22  1  0  0  0  0
 26  9  1  0  0  0  0
 28 27  2  6  0  0  0
 28 26  1  0  0  0  0
 29 28  1  0  0  0  0
 30 29  1  0  0  0  0
 31 33  1  0  0  0  0
 31 28  1  0  0  0  0
 32 38  1  0  0  0  0
 33 34  1  0  0  0  0
 33 32  2  0  0  0  0
 34 36  2  0  0  0  0
 35 34  1  0  0  0  0
 36 42  1  0  0  0  0
 36 37  1  0  0  0  0
 37 39  1  0  0  0  0
 38 37  2  0  0  0  0
 39 40  1  0  0  0  0
 41 40  1  0  0  0  0
 42 40  1  0  0  0  0
M  END
>  <minimizedAffinity>
-6.85237932

$$$$

 OpenBabel03242513433D

 42 46  0  0  0  0  0  0  0  0999 V2000
   40.8850   31.9740   40.7060 C   0  0  0  0  0  0  0  0  0  0  0  0
   40.9070   31.2780   41.8840 C   0  0  0  0  0  0  0  0  0  0  0  0
   41.9330   31.5290   42.7620 C   0  0  0  0  0  0  0  0  0  0  0  0
   42.9250   32.4450   42.5040 C   0  0  0  0  0  0  0  0  0  0  0  0
   44.0320   32.9150   43.1250 N   0  0  0  0  0  0  0  0  0  0  0  0
   44.6420   33.8450   42.3610 C   0  0  0  0  0  0  0  0  0  0  0  0
   43.9040   33.9560   41.2450 N   0  0  0  0  0  0  0  0  0  0  0  0
   42.8470   33.1100   41.3080 C   0  0  0  0  0  0  0  0  0  0  0  0
   41.8560   32.9070   40.3930 C   0  0  0  0  0  0  0  0  0  0  0  0
   40.0660   31.7730   40.0040 H   0  0  0  0  0  0  0  0  0  0  0  0
   41.9840   30.9930   43.7120 H   0  0  0  0  0  0  0  0  0  0  0  0
   44.3480   32.5780   44.0790 H   0  0  0  0  0  0  0  0  0  0  0  0
   45.5450   34.4060   42.5750 H   0  0  0  0  0  0  0  0  0  0  0  0
   37.6440   29.6520   42.1910 C   0  0  0  0  0  0  0  0  0  0  0  0
   37.9470   28.4260   42.7720 C   0  0  0  0  0  0  0  0  0  0  0  0
   39.2910   28.1870   43.0490 C   0  0  0  0  0  0  0  0  0  0  0  0
   40.2240   29.1220   42.7530 N   0  0  0  0  0  0  0  0  0  0  0  0
   39.8610   30.2920   42.1880 C   0  0  0  0  0  0  0  0  0  0  0  0
   38.5850   30.5770   41.9010 N   0  0  0  0  0  0  0  0  0  0  0  0
   36.6290   29.9340   41.9380 H   0  0  0  0  0  0  0  0  0  0  0  0
   39.5200   27.2490   43.4930 H   0  0  0  0  0  0  0  0  0  0  0  0
   36.8270   27.4910   43.0450 C   0  0  0  0  0  0  0  0  0  0  0  0
   35.8120   27.8890   42.2150 F   0  0  0  0  0  0  0  0  0  0  0  0
   36.4630   27.6310   44.3560 F   0  0  0  0  0  0  0  0  0  0  0  0
   37.2830   26.2040   42.7730 F   0  0  0  0  0  0  0  0  0  0  0  0
   41.8450   33.6170   39.2090 O   0  0  0  0  0  0  0  0  0  0  0  0
   43.9030   32.5900   38.0300 O   0  0  0  0  0  0  0  0  0  0  0  0
   42.4860   33.0990   37.7460 P   0  0  2  0  0  0  0  0  0  0  0  0
   42.6600   34.4860   36.7590 O   0  0  0  0  0  0  0  0  0  0  0  0
   43.5970   34.7010   36.5830 H   0  0  0  0  0  0  0  0  0  0  0  0
   41.5830   31.9540   36.9550 O   0  0  0  0  0  0  0  0  0  0  0  0
   40.7190   29.8330   37.8680 C   0  0  0  0  0  3  0  0  0  0  0  0
   41.5570   30.5960   37.0810 C   0  0  0  0  0  0  0  0  0  0  0  0
   42.4970   29.8910   36.3210 C   0  0  0  0  0  0  0  0  0  0  0  0
   43.2280   30.3570   35.6500 H   0  0  0  0  0  0  0  0  0  0  0  0
   42.5540   28.4990   36.3790 C   0  0  0  0  0  0  0  0  0  0  0  0
   41.6920   27.7990   37.1810 C   0  0  0  0  0  0  0  0  0  0  0  0
   40.7660   28.4700   37.9320 C   0  0  0  0  0  3  0  0  0  0  0  0
   41.9570   26.4310   37.0560 O   0  0  0  0  0  0  0  0  0  0  0  0
   42.7020   26.2650   35.8670 C   0  0  0  0  0  3  0  0  0  0  0  0
   43.4230   25.4440   35.9270 H   0  0  0  0  0  0  0  0  0  0  0  0
   43.3550   27.5300   35.7600 O   0  0  0  0  0  0  0  0  0  0  0  0
  1  2  1  0  0  0  0
  2 18  1  0  0  0  0
  2  3  2  0  0  0  0
  3 11  1  0  0  0  0
  4  3  1  0  0  0  0
  4  5  1  0  0  0  0
  5 12  1  0  0  0  0
  6 13  1  0  0  0  0
  6  5  1  0  0  0  0
  7  8  1  0  0  0  0
  7  6  2  0  0  0  0
  8  4  2  0  0  0  0
  9  1  2  0  0  0  0
  9  8  1  0  0  0  0
 10  1  1  0  0  0  0
 14 15  1  0  0  0  0
 15 22  1  0  0  0  0
 15 16  2  0  0  0  0
 16 21  1  0  0  0  0
 17 16  1  0  0  0  0
 18 17  2  0  0  0  0
 19 18  1  0  0  0  0
 19 14  2  0  0  0  0
 20 14  1  0  0  0  0
 22 24  1  0  0  0  0
 23 22  1  0  0  0  0
 25 22  1  0  0  0  0
 26  9  1  0  0  0  0
 28 27  2  1  0  0  0
 28 26  1  0  0  0  0
 29 28  1  0  0  0  0
 30 29  1  0  0  0  0
 31 33  1  0  0  0  0
 31 28  1  0  0  0  0
 32 38  1  0  0  0  0
 33 32  2  0  0  0  0
 34 36  2  0  0  0  0
 34 33  1  0  0  0  0
 35 34  1  0  0  0  0
 36 37  1  0  0  0  0
 37 38  2  0  0  0  0
 39 37  1  0  0  0  0
 40 41  1  0  0  0  0
 40 39  1  0  0  0  0
 42 40  1  0  0  0  0
 42 36  1  0  0  0  0
M  END
>  <minimizedAffinity>
-6.81394243

$$$$

 OpenBabel03242513433D

 42 46  0  0  0  0  0  0  0  0999 V2000
   41.2660   31.6960   40.5550 C   0  0  0  0  0  0  0  0  0  0  0  0
   40.0620   31.2850   41.0590 C   0  0  0  0  0  0  0  0  0  0  0  0
   39.0490   32.2090   41.1400 C   0  0  0  0  0  0  0  0  0  0  0  0
   39.1990   33.5150   40.7370 C   0  0  0  0  0  0  0  0  0  0  0  0
   38.4400   34.6330   40.6830 N   0  0  0  0  0  0  0  0  0  0  0  0
   39.1490   35.6610   40.1710 C   0  0  0  0  0  0  0  0  0  0  0  0
   40.3720   35.1750   39.9040 N   0  0  0  0  0  0  0  0  0  0  0  0
   40.4280   33.8640   40.2410 C   0  0  0  0  0  0  0  0  0  0  0  0
   41.4750   32.9960   40.1340 C   0  0  0  0  0  0  0  0  0  0  0  0
   42.0760   30.9580   40.4900 H   0  0  0  0  0  0  0  0  0  0  0  0
   38.0740   31.9190   41.5370 H   0  0  0  0  0  0  0  0  0  0  0  0
   37.4300   34.6640   41.0040 H   0  0  0  0  0  0  0  0  0  0  0  0
   38.8280   36.6820   40.0000 H   0  0  0  0  0  0  0  0  0  0  0  0
   40.1800   28.2210   43.0560 C   0  0  0  0  0  0  0  0  0  0  0  0
   39.4890   27.3010   42.2770 C   0  0  0  0  0  0  0  0  0  0  0  0
   38.9920   27.7670   41.0620 C   0  0  0  0  0  0  0  0  0  0  0  0
   39.1910   29.0550   40.6940 N   0  0  0  0  0  0  0  0  0  0  0  0
   39.8710   29.8960   41.4980 C   0  0  0  0  0  0  0  0  0  0  0  0
   40.3720   29.5050   42.6760 N   0  0  0  0  0  0  0  0  0  0  0  0
   40.6060   27.9580   44.0160 H   0  0  0  0  0  0  0  0  0  0  0  0
   38.4640   27.0620   40.4680 H   0  0  0  0  0  0  0  0  0  0  0  0
   39.3430   25.9200   42.7990 C   0  0  0  0  0  0  0  0  0  0  0  0
   38.0200   25.6070   42.6320 F   0  0  0  0  0  0  0  0  0  0  0  0
   39.6760   25.9270   44.1260 F   0  0  0  0  0  0  0  0  0  0  0  0
   40.1960   25.1030   42.0610 F   0  0  0  0  0  0  0  0  0  0  0  0
   42.6840   33.4230   39.6230 O   0  0  0  0  0  0  0  0  0  0  0  0
   44.5560   33.4920   37.8430 O   0  0  0  0  0  0  0  0  0  0  0  0
   43.0400   33.6540   37.9990 P   0  0  2  0  0  0  0  0  0  0  0  0
   42.6890   35.2890   37.6390 O   0  0  0  0  0  0  0  0  0  0  0  0
   43.4930   35.8040   37.4280 H   0  0  0  0  0  0  0  0  0  0  0  0
   42.2190   32.6590   36.9560 O   0  0  0  0  0  0  0  0  0  0  0  0
   43.2860   30.6230   36.0630 C   0  0  0  0  0  3  0  0  0  0  0  0
   42.3090   31.3140   36.7510 C   0  0  0  0  0  0  0  0  0  0  0  0
   41.2830   30.5380   37.3050 C   0  0  0  0  0  0  0  0  0  0  0  0
   40.4400   30.9420   37.8770 H   0  0  0  0  0  0  0  0  0  0  0  0
   41.2810   29.1530   37.1520 C   0  0  0  0  0  0  0  0  0  0  0  0
   42.2820   28.5270   36.4570 C   0  0  0  0  0  0  0  0  0  0  0  0
   43.2940   29.2660   35.9080 C   0  0  0  0  0  3  0  0  0  0  0  0
   42.0450   27.1480   36.4520 O   0  0  0  0  0  0  0  0  0  0  0  0
   41.1260   26.8870   37.4940 C   0  0  0  0  0  3  0  0  0  0  0  0
   40.4510   26.0560   37.2670 H   0  0  0  0  0  0  0  0  0  0  0  0
   40.4240   28.1270   37.5730 O   0  0  0  0  0  0  0  0  0  0  0  0
  1  2  1  0  0  0  0
  2  3  2  0  0  0  0
  2 18  1  0  0  0  0
  3 11  1  0  0  0  0
  4  3  1  0  0  0  0
  5  4  1  0  0  0  0
  5 12  1  0  0  0  0
  6  5  1  0  0  0  0
  7  6  2  0  0  0  0
  7  8  1  0  0  0  0
  8  4  2  0  0  0  0
  9  8  1  0  0  0  0
  9  1  2  0  0  0  0
 10  1  1  0  0  0  0
 13  6  1  0  0  0  0
 14 20  1  0  0  0  0
 15 22  1  0  0  0  0
 15 14  2  0  0  0  0
 16 15  1  0  0  0  0
 17 16  2  0  0  0  0
 17 18  1  0  0  0  0
 18 19  2  0  0  0  0
 19 14  1  0  0  0  0
 21 16  1  0  0  0  0
 22 24  1  0  0  0  0
 23 22  1  0  0  0  0
 25 22  1  0  0  0  0
 26  9  1  0  0  0  0
 28 27  2  6  0  0  0
 28 26  1  0  0  0  0
 29 28  1  0  0  0  0
 30 29  1  0  0  0  0
 31 28  1  0  0  0  0
 32 33  1  0  0  0  0
 33 31  1  0  0  0  0
 33 34  2  0  0  0  0
 34 35  1  0  0  0  0
 36 34  1  0  0  0  0
 36 42  1  0  0  0  0
 37 36  2  0  0  0  0
 38 32  2  0  0  0  0
 38 37  1  0  0  0  0
 39 37  1  0  0  0  0
 39 40  1  0  0  0  0
 40 42  1  0  0  0  0
 41 40  1  0  0  0  0
M  END
>  <minimizedAffinity>
-6.75578833

$$$$

 OpenBabel03242513433D

 42 46  0  0  0  0  0  0  0  0999 V2000
   36.2050   27.4610   39.9750 C   0  0  0  0  0  0  0  0  0  0  0  0
   36.2980   27.2940   38.6200 C   0  0  0  0  0  0  0  0  0  0  0  0
   37.3450   26.5500   38.1320 C   0  0  0  0  0  0  0  0  0  0  0  0
   38.2900   25.9740   38.9470 C   0  0  0  0  0  0  0  0  0  0  0  0
   39.3990   25.2130   38.8010 N   0  0  0  0  0  0  0  0  0  0  0  0
   39.9440   24.9360   40.0040 C   0  0  0  0  0  0  0  0  0  0  0  0
   39.1610   25.5360   40.9160 N   0  0  0  0  0  0  0  0  0  0  0  0
   38.1410   26.1770   40.2950 C   0  0  0  0  0  0  0  0  0  0  0  0
   37.1260   26.9050   40.8420 C   0  0  0  0  0  0  0  0  0  0  0  0
   35.3680   28.0550   40.3640 H   0  0  0  0  0  0  0  0  0  0  0  0
   37.4520   26.3950   37.0570 H   0  0  0  0  0  0  0  0  0  0  0  0
   39.7630   24.8950   37.8570 H   0  0  0  0  0  0  0  0  0  0  0  0
   40.8310   24.3540   40.2250 H   0  0  0  0  0  0  0  0  0  0  0  0
   33.3170   29.0280   37.3940 C   0  0  0  0  0  0  0  0  0  0  0  0
   33.4780   29.0110   36.0150 C   0  0  0  0  0  0  0  0  0  0  0  0
   34.6290   28.3920   35.5320 C   0  0  0  0  0  0  0  0  0  0  0  0
   35.5210   27.8470   36.3930 N   0  0  0  0  0  0  0  0  0  0  0  0
   35.3030   27.8980   37.7230 C   0  0  0  0  0  0  0  0  0  0  0  0
   34.2150   28.4790   38.2430 N   0  0  0  0  0  0  0  0  0  0  0  0
   32.4570   29.4840   37.8680 H   0  0  0  0  0  0  0  0  0  0  0  0
   34.7500   28.3810   34.4760 H   0  0  0  0  0  0  0  0  0  0  0  0
   32.4240   29.6460   35.1850 C   0  0  0  0  0  0  0  0  0  0  0  0
   31.5690   30.2390   36.0760 F   0  0  0  0  0  0  0  0  0  0  0  0
   31.7850   28.6620   34.4810 F   0  0  0  0  0  0  0  0  0  0  0  0
   33.0510   30.5570   34.3390 F   0  0  0  0  0  0  0  0  0  0  0  0
   37.0440   27.0650   42.2110 O   0  0  0  0  0  0  0  0  0  0  0  0
   38.9350   27.1970   43.9670 O   0  0  0  0  0  0  0  0  0  0  0  0
   37.9980   28.0860   43.1410 P   0  0  2  0  0  0  0  0  0  0  0  0
   36.9590   28.8590   44.2580 O   0  0  0  0  0  0  0  0  0  0  0  0
   37.1350   28.5860   45.1800 H   0  0  0  0  0  0  0  0  0  0  0  0
   38.8490   29.2210   42.2830 O   0  0  0  0  0  0  0  0  0  0  0  0
   37.1980   30.6090   41.0860 C   0  0  0  0  0  3  0  0  0  0  0  0
   38.4320   30.3550   41.6480 C   0  0  0  0  0  0  0  0  0  0  0  0
   39.3750   31.3870   41.5550 C   0  0  0  0  0  0  0  0  0  0  0  0
   40.3940   31.3340   41.9530 H   0  0  0  0  0  0  0  0  0  0  0  0
   39.0500   32.5860   40.9240 C   0  0  0  0  0  0  0  0  0  0  0  0
   37.8050   32.7770   40.3850 C   0  0  0  0  0  0  0  0  0  0  0  0
   36.8700   31.7810   40.4660 C   0  0  0  0  0  3  0  0  0  0  0  0
   37.7390   34.0540   39.8180 O   0  0  0  0  0  0  0  0  0  0  0  0
   38.8030   34.8020   40.3710 C   0  0  0  0  0  3  0  0  0  0  0  0
   39.2160   35.5360   39.6720 H   0  0  0  0  0  0  0  0  0  0  0  0
   39.7480   33.7760   40.6740 O   0  0  0  0  0  0  0  0  0  0  0  0
  1 10  1  0  0  0  0
  1  9  1  0  0  0  0
  2  1  2  0  0  0  0
  3  2  1  0  0  0  0
  3  4  2  0  0  0  0
  4  8  1  0  0  0  0
  5  4  1  0  0  0  0
  5  6  1  0  0  0  0
  6 13  1  0  0  0  0
  6  7  2  0  0  0  0
  8  9  2  0  0  0  0
  8  7  1  0  0  0  0
  9 26  1  0  0  0  0
 11  3  1  0  0  0  0
 12  5  1  0  0  0  0
 14 20  1  0  0  0  0
 14 19  1  0  0  0  0
 15 14  2  0  0  0  0
 16 15  1  0  0  0  0
 16 17  2  0  0  0  0
 17 18  1  0  0  0  0
 18 19  2  0  0  0  0
 18  2  1  0  0  0  0
 21 16  1  0  0  0  0
 22 15  1  0  0  0  0
 22 23  1  0  0  0  0
 24 22  1  0  0  0  0
 25 22  1  0  0  0  0
 26 28  1  0  0  0  0
 28 27  2  1  0  0  0
 28 29  1  0  0  0  0
 29 30  1  0  0  0  0
 31 28  1  0  0  0  0
 32 33  1  0  0  0  0
 33 31  1  0  0  0  0
 34 33  2  0  0  0  0
 34 35  1  0  0  0  0
 36 34  1  0  0  0  0
 37 38  1  0  0  0  0
 37 36  2  0  0  0  0
 38 32  2  0  0  0  0
 39 40  1  0  0  0  0
 39 37  1  0  0  0  0
 40 42  1  0  0  0  0
 41 40  1  0  0  0  0
 42 36  1  0  0  0  0
M  END
>  <minimizedAffinity>
-6.59146786

$$$$

 OpenBabel03242513433D

 42 46  0  0  0  0  0  0  0  0999 V2000
   36.4930   27.1190   38.6940 C   0  0  0  0  0  0  0  0  0  0  0  0
   35.8480   28.2920   38.4110 C   0  0  0  0  0  0  0  0  0  0  0  0
   34.6540   28.2240   37.7360 C   0  0  0  0  0  0  0  0  0  0  0  0
   34.0910   27.0340   37.3390 C   0  0  0  0  0  0  0  0  0  0  0  0
   32.9770   26.6280   36.6860 N   0  0  0  0  0  0  0  0  0  0  0  0
   32.9540   25.2830   36.5830 C   0  0  0  0  0  0  0  0  0  0  0  0
   34.0730   24.8430   37.1810 N   0  0  0  0  0  0  0  0  0  0  0  0
   34.7860   25.8950   37.6520 C   0  0  0  0  0  0  0  0  0  0  0  0
   35.9750   25.8940   38.3200 C   0  0  0  0  0  0  0  0  0  0  0  0
   37.4480   27.1740   39.2330 H   0  0  0  0  0  0  0  0  0  0  0  0
   34.1090   29.1390   37.4920 H   0  0  0  0  0  0  0  0  0  0  0  0
   32.2440   27.3010   36.3200 H   0  0  0  0  0  0  0  0  0  0  0  0
   32.2020   24.6560   36.1180 H   0  0  0  0  0  0  0  0  0  0  0  0
   37.8080   31.3820   38.4160 C   0  0  0  0  0  0  0  0  0  0  0  0
   37.4710   31.9770   39.6260 C   0  0  0  0  0  0  0  0  0  0  0  0
   36.5620   31.2860   40.4240 C   0  0  0  0  0  0  0  0  0  0  0  0
   36.0540   30.1010   40.0090 N   0  0  0  0  0  0  0  0  0  0  0  0
   36.4240   29.5800   38.8210 C   0  0  0  0  0  0  0  0  0  0  0  0
   37.2940   30.1980   38.0130 N   0  0  0  0  0  0  0  0  0  0  0  0
   38.5060   31.8380   37.7250 H   0  0  0  0  0  0  0  0  0  0  0  0
   36.3060   31.7430   41.3480 H   0  0  0  0  0  0  0  0  0  0  0  0
   38.1010   33.2780   39.9590 C   0  0  0  0  0  0  0  0  0  0  0  0
   37.1380   34.2200   39.7140 F   0  0  0  0  0  0  0  0  0  0  0  0
   39.1760   33.4570   39.1320 F   0  0  0  0  0  0  0  0  0  0  0  0
   38.4860   33.2250   41.2960 F   0  0  0  0  0  0  0  0  0  0  0  0
   36.6160   24.7030   38.5990 O   0  0  0  0  0  0  0  0  0  0  0  0
   37.1980   22.4690   39.7600 O   0  0  0  0  0  0  0  0  0  0  0  0
   36.3280   23.7190   39.9290 P   0  0  2  0  0  0  0  0  0  0  0  0
   34.7030   23.1950   39.8180 O   0  0  0  0  0  0  0  0  0  0  0  0
   34.6340   22.2340   39.6530 H   0  0  0  0  0  0  0  0  0  0  0  0
   36.5890   24.4390   41.4000 O   0  0  0  0  0  0  0  0  0  0  0  0
   38.8680   25.2760   41.8310 C   0  0  0  0  0  3  0  0  0  0  0  0
   37.4930   25.3860   41.7810 C   0  0  0  0  0  0  0  0  0  0  0  0
   36.9610   26.6210   42.1710 C   0  0  0  0  0  0  0  0  0  0  0  0
   35.8920   26.8590   42.1840 H   0  0  0  0  0  0  0  0  0  0  0  0
   37.8000   27.6560   42.5780 C   0  0  0  0  0  0  0  0  0  0  0  0
   39.1590   27.4830   42.6060 C   0  0  0  0  0  0  0  0  0  0  0  0
   39.6990   26.2840   42.2290 C   0  0  0  0  0  3  0  0  0  0  0  0
   39.7640   28.6640   43.0480 O   0  0  0  0  0  0  0  0  0  0  0  0
   38.8090   29.6950   42.8970 C   0  0  0  0  0  3  0  0  0  0  0  0
   38.8940   30.4700   43.6650 H   0  0  0  0  0  0  0  0  0  0  0  0
   37.5850   28.9710   43.0150 O   0  0  0  0  0  0  0  0  0  0  0  0
  1 10  1  0  0  0  0
  2  1  1  0  0  0  0
  2 18  1  0  0  0  0
  3  2  2  0  0  0  0
  4  8  2  0  0  0  0
  4  3  1  0  0  0  0
  5  4  1  0  0  0  0
  6  5  1  0  0  0  0
  6  7  2  0  0  0  0
  7  8  1  0  0  0  0
  8  9  1  0  0  0  0
  9 26  1  0  0  0  0
  9  1  2  0  0  0  0
 11  3  1  0  0  0  0
 12  5  1  0  0  0  0
 13  6  1  0  0  0  0
 14 15  1  0  0  0  0
 15 22  1  0  0  0  0
 15 16  2  0  0  0  0
 16 21  1  0  0  0  0
 17 16  1  0  0  0  0
 18 17  2  0  0  0  0
 19 14  2  0  0  0  0
 19 18  1  0  0  0  0
 20 14  1  0  0  0  0
 22 25  1  0  0  0  0
 23 22  1  0  0  0  0
 24 22  1  0  0  0  0
 26 28  1  0  0  0  0
 28 27  2  6  0  0  0
 28 31  1  0  0  0  0
 29 28  1  0  0  0  0
 30 29  1  0  0  0  0
 31 33  1  0  0  0  0
 32 38  1  0  0  0  0
 33 32  2  0  0  0  0
 33 34  1  0  0  0  0
 34 35  1  0  0  0  0
 34 36  2  0  0  0  0
 36 37  1  0  0  0  0
 36 42  1  0  0  0  0
 37 39  1  0  0  0  0
 38 37  2  0  0  0  0
 40 42  1  0  0  0  0
 40 39  1  0  0  0  0
 40 41  1  0  0  0  0
M  END
>  <minimizedAffinity>
-6.43315744

$$$$
