
 OpenBabel03242520263D

 40 43  0  0  0  0  0  0  0  0999 V2000
   45.1320   35.6420   43.5010 C   0  0  0  0  0  0  0  0  0  0  0  0
   46.0330   34.5320   43.4990 C   0  0  0  0  0  0  0  0  0  0  0  0
   46.1600   33.7940   44.6590 C   0  0  0  0  0  0  0  0  0  0  0  0
   45.4180   34.1610   45.7540 N   0  0  0  0  0  0  0  0  0  0  0  0
   44.5750   35.2090   45.7390 C   0  0  0  0  0  0  0  0  0  0  0  0
   44.4330   35.9420   44.6230 N   0  0  0  0  0  0  0  0  0  0  0  0
   45.0120   36.2390   42.6040 H   0  0  0  0  0  0  0  0  0  0  0  0
   44.0160   35.4530   46.6260 H   0  0  0  0  0  0  0  0  0  0  0  0
   46.7100   34.3010   42.2910 N   0  0  0  0  0  0  0  0  0  0  0  0
   47.8810   35.0470   41.8650 C   0  0  0  0  0  0  0  0  0  0  0  0
   48.4370   34.4850   40.6060 C   0  0  0  0  0  0  0  0  0  0  0  0
   47.4420   34.3460   39.5760 N   0  0  0  0  0  0  0  0  0  0  0  0
   46.2460   33.6690   39.9710 C   0  0  0  0  0  0  0  0  0  0  0  0
   46.2120   33.2520   41.4070 C   0  0  0  0  0  0  0  0  0  0  0  0
   47.5150   36.0840   41.6350 H   0  0  0  0  0  0  0  0  0  0  0  0
   48.6570   35.1280   42.6260 H   0  0  0  0  0  0  0  0  0  0  0  0
   48.9810   33.5430   40.8030 H   0  0  0  0  0  0  0  0  0  0  0  0
   49.1960   35.1920   40.2180 H   0  0  0  0  0  0  0  0  0  0  0  0
   47.8650   33.9980   38.7040 H   0  0  0  0  0  0  0  0  0  0  0  0
   45.3220   34.2150   39.7550 H   0  0  0  0  0  0  0  0  0  0  0  0
   46.2050   32.7240   39.3550 H   0  0  0  0  0  0  0  0  0  0  0  0
   46.9240   32.4040   41.5180 H   0  0  0  0  0  0  0  0  0  0  0  0
   45.1950   32.9390   41.6650 H   0  0  0  0  0  0  0  0  0  0  0  0
   47.0320   32.7300   44.6350 O   0  0  0  0  0  0  0  0  0  0  0  0
   45.1350   31.0600   43.8710 O   0  0  0  0  0  0  0  0  0  0  0  0
   46.4030   31.1290   44.7090 P   0  0  1  0  0  0  0  0  0  0  0  0
   47.5750   30.0920   44.1180 O   0  0  0  0  0  0  0  0  0  0  0  0
   48.4850   30.3800   44.3770 H   0  0  0  0  0  0  0  0  0  0  0  0
   46.0230   30.8100   46.3200 O   0  0  0  0  0  0  0  0  0  0  0  0
   47.5460   29.3350   47.3080 C   0  0  0  0  0  3  0  0  0  0  0  0
   47.1030   30.6380   47.2030 C   0  0  0  0  0  0  0  0  0  0  0  0
   47.6710   31.6840   47.9070 C   0  0  0  0  0  0  0  0  0  0  0  0
   47.2870   32.6670   47.7850 H   0  0  0  0  0  0  0  0  0  0  0  0
   48.7220   31.3420   48.7310 C   0  0  0  0  0  0  0  0  0  0  0  0
   49.2090   30.0590   48.8770 C   0  0  0  0  0  0  0  0  0  0  0  0
   48.6040   29.0410   48.1490 C   0  0  0  0  0  3  0  0  0  0  0  0
   50.2770   30.0810   49.7920 O   0  0  0  0  0  0  0  0  0  0  0  0
   50.6860   31.4400   49.8970 C   0  0  0  0  0  3  0  0  0  0  0  0
   51.0040   31.6070   50.9290 H   0  0  0  0  0  0  0  0  0  0  0  0
   49.4950   32.1700   49.5630 O   0  0  0  0  0  0  0  0  0  0  0  0
  1  6  1  0  0  0  0
  2  1  2  0  0  0  0
  2  3  1  0  0  0  0
  3  4  2  0  0  0  0
  5  4  1  0  0  0  0
  5  8  1  0  0  0  0
  6  5  2  0  0  0  0
  7  1  1  0  0  0  0
  9  2  1  0  0  0  0
 10  9  1  0  0  0  0
 10 16  1  0  0  0  0
 11 17  1  0  0  0  0
 11 10  1  0  0  0  0
 12 13  1  0  0  0  0
 12 11  1  0  0  0  0
 13 14  1  0  0  0  0
 14 22  1  0  0  0  0
 14 23  1  0  0  0  0
 14  9  1  0  0  0  0
 15 10  1  0  0  0  0
 18 11  1  0  0  0  0
 19 12  1  0  0  0  0
 20 13  1  0  0  0  0
 21 13  1  0  0  0  0
 24  3  1  0  0  0  0
 24 26  1  0  0  0  0
 26 25  2  6  0  0  0
 26 29  1  0  0  0  0
 27 28  1  0  0  0  0
 27 26  1  0  0  0  0
 29 31  1  0  0  0  0
 30 36  1  0  0  0  0
 31 30  2  0  0  0  0
 31 32  1  0  0  0  0
 32 34  2  0  0  0  0
 33 32  1  0  0  0  0
 34 35  1  0  0  0  0
 34 40  1  0  0  0  0
 35 37  1  0  0  0  0
 36 35  2  0  0  0  0
 37 38  1  0  0  0  0
 38 39  1  0  0  0  0
 40 38  1  0  0  0  0
M  END
>  <minimizedAffinity>
-5.47653151

>  <minimizedRMSD>
1.67938638

$$$$
