REMARK  Name = 
REMARK  6 active torsions:
REMARK  status: ('A' for Active; 'I' for Inactive)
REMARK    1  A    between atoms: C_2  and  N_7
REMARK    2  A    between atoms: C_3  and  O_13
REMARK    3  A    between atoms: O_13  and  P_15
REMARK    4  A    between atoms: P_15  and  O_16
REMARK    5  A    between atoms: P_15  and  O_17
REMARK    6  A    between atoms: O_17  and  C_31
REMARK                            x       y       z     vdW  Elec       q    Type
REMARK                         _______ _______ _______ _____ _____    ______ ____
ROOT
ATOM      1  C   UNL     1      45.201  35.819  43.375  0.00  0.00    +0.000 A 
ATOM      2  C   UNL     1      45.917  34.581  43.404  0.00  0.00    +0.000 A 
ATOM      3  C   UNL     1      45.901  33.846  44.572  0.00  0.00    +0.000 A 
ATOM      4  N   UNL     1      45.201  34.338  45.646  0.00  0.00    +0.000 NA
ATOM      5  C   UNL     1      44.533  35.504  45.603  0.00  0.00    +0.000 A 
ATOM      6  N   UNL     1      44.533  36.237  44.478  0.00  0.00    +0.000 NA
ATOM      7  H   UNL     1      45.196  36.416  42.471  0.00  0.00    +0.000 HD
ATOM      8  H   UNL     1      44.000  35.843  46.474  0.00  0.00    +0.000 HD
ENDROOT
BRANCH   2   9
ATOM      9  N   UNL     1      46.576  34.233  42.214  0.00  0.00    +0.000 N 
ATOM     10  C   UNL     1      47.827  34.829  41.778  0.00  0.00    +0.000 C 
ATOM     11  C   UNL     1      48.330  34.164  40.548  0.00  0.00    +0.000 C 
ATOM     12  N   UNL     1      47.336  34.098  39.510  0.00  0.00    +0.000 NA
ATOM     13  C   UNL     1      46.068  33.572  39.911  0.00  0.00    +0.000 C 
ATOM     14  C   UNL     1      45.974  33.214  41.361  0.00  0.00    +0.000 C 
ATOM     15  H   UNL     1      47.580  35.891  41.507  0.00  0.00    +0.000 HD
ATOM     16  H   UNL     1      48.599  34.852  42.547  0.00  0.00    +0.000 HD
ATOM     17  H   UNL     1      48.764  33.175  40.785  0.00  0.00    +0.000 HD
ATOM     18  H   UNL     1      49.166  34.768  40.146  0.00  0.00    +0.000 HD
ATOM     19  H   UNL     1      47.726  33.674  38.656  0.00  0.00    +0.000 HD
ATOM     20  H   UNL     1      45.212  34.208  39.664  0.00  0.00    +0.000 HD
ATOM     21  H   UNL     1      45.929  32.615  39.329  0.00  0.00    +0.000 HD
ATOM     22  H   UNL     1      46.586  32.297  41.511  0.00  0.00    +0.000 HD
ATOM     23  H   UNL     1      44.926  33.025  41.615  0.00  0.00    +0.000 HD
ENDBRANCH   2   9
BRANCH   3  24
ATOM     24  O   UNL     1      46.596  32.659  44.578  0.00  0.00    +0.000 OA
BRANCH  24  26
ATOM     25  O   UNL     1      45.552  31.209  46.523  0.00  0.00    +0.000 OA
ATOM     26  P   UNL     1      46.858  31.849  46.075  0.00  0.00    +0.000 P 
BRANCH  26  27
ATOM     27  O   UNL     1      48.043  30.694  45.830  0.00  0.00    +0.000 OA
ATOM     28  H   UNL     1      48.738  31.009  45.201  0.00  0.00    +0.000 HD
ENDBRANCH  26  27
BRANCH  26  29
ATOM     29  O   UNL     1      47.323  33.011  47.203  0.00  0.00    +0.000 OA
BRANCH  29  31
ATOM     30  C   UNL     1      49.113  31.570  47.641  0.00  0.00    +0.000 A 
ATOM     31  C   UNL     1      48.401  32.682  48.044  0.00  0.00    +0.000 A 
ATOM     32  C   UNL     1      48.719  33.409  49.176  0.00  0.00    +0.000 A 
ATOM     33  H   UNL     1      48.134  34.256  49.436  0.00  0.00    +0.000 HD
ATOM     34  C   UNL     1      49.806  32.950  49.889  0.00  0.00    +0.000 A 
ATOM     35  C   UNL     1      50.556  31.846  49.536  0.00  0.00    +0.000 A 
ATOM     36  C   UNL     1      50.197  31.147  48.390  0.00  0.00    +0.000 A 
ATOM     37  O   UNL     1      51.580  31.673  50.485  0.00  0.00    +0.000 OA
ATOM     38  C   UNL     1      51.684  32.904  51.191  0.00  0.00    +0.000 C 
ATOM     39  H   UNL     1      51.943  32.666  52.226  0.00  0.00    +0.000 HD
ATOM     40  O   UNL     1      50.369  33.467  51.068  0.00  0.00    +0.000 OA
ENDBRANCH  29  31
ENDBRANCH  26  29
ENDBRANCH  24  26
ENDBRANCH   3  24
TORSDOF 6
