
 OpenBabel03242520263D

 40 43  0  0  0  0  0  0  0  0999 V2000
   45.1500   35.6990   43.3040 C   0  0  0  0  0  0  0  0  0  0  0  0
   46.0340   34.5750   43.3340 C   0  0  0  0  0  0  0  0  0  0  0  0
   46.1420   33.8620   44.5110 C   0  0  0  0  0  0  0  0  0  0  0  0
   45.3970   34.2650   45.5920 N   0  0  0  0  0  0  0  0  0  0  0  0
   44.5700   35.3240   45.5480 C   0  0  0  0  0  0  0  0  0  0  0  0
   44.4480   36.0340   44.4140 N   0  0  0  0  0  0  0  0  0  0  0  0
   45.0450   36.2760   42.3930 H   0  0  0  0  0  0  0  0  0  0  0  0
   44.0090   35.5970   46.4240 H   0  0  0  0  0  0  0  0  0  0  0  0
   46.7160   34.3060   42.1370 N   0  0  0  0  0  0  0  0  0  0  0  0
   47.9060   35.0190   41.7060 C   0  0  0  0  0  0  0  0  0  0  0  0
   48.4610   34.4220   40.4640 C   0  0  0  0  0  0  0  0  0  0  0  0
   47.4720   34.2830   39.4280 N   0  0  0  0  0  0  0  0  0  0  0  0
   46.2580   33.6390   39.8250 C   0  0  0  0  0  0  0  0  0  0  0  0
   46.2040   33.2510   41.2700 C   0  0  0  0  0  0  0  0  0  0  0  0
   47.5630   36.0590   41.4530 H   0  0  0  0  0  0  0  0  0  0  0  0
   48.6770   35.1000   42.4730 H   0  0  0  0  0  0  0  0  0  0  0  0
   48.9830   33.4720   40.6830 H   0  0  0  0  0  0  0  0  0  0  0  0
   49.2370   35.1050   40.0690 H   0  0  0  0  0  0  0  0  0  0  0  0
   47.8940   33.9090   38.5660 H   0  0  0  0  0  0  0  0  0  0  0  0
   45.3470   34.1990   39.5910 H   0  0  0  0  0  0  0  0  0  0  0  0
   46.2030   32.6820   39.2280 H   0  0  0  0  0  0  0  0  0  0  0  0
   46.8970   32.3900   41.4030 H   0  0  0  0  0  0  0  0  0  0  0  0
   45.1790   32.9640   41.5240 H   0  0  0  0  0  0  0  0  0  0  0  0
   46.9980   32.7850   44.5180 O   0  0  0  0  0  0  0  0  0  0  0  0
   45.1220   31.0900   43.7550 O   0  0  0  0  0  0  0  0  0  0  0  0
   46.3460   31.1970   44.6530 P   0  0  1  0  0  0  0  0  0  0  0  0
   47.5330   30.1160   44.1860 O   0  0  0  0  0  0  0  0  0  0  0  0
   48.4320   30.4100   44.4750 H   0  0  0  0  0  0  0  0  0  0  0  0
   45.8780   30.9780   46.2570 O   0  0  0  0  0  0  0  0  0  0  0  0
   47.1090   32.2790   47.7630 C   0  0  0  0  0  3  0  0  0  0  0  0
   46.8970   31.0240   47.2260 C   0  0  0  0  0  0  0  0  0  0  0  0
   47.6220   29.9110   47.6060 C   0  0  0  0  0  0  0  0  0  0  0  0
   47.4130   28.9710   47.1580 H   0  0  0  0  0  0  0  0  0  0  0  0
   48.5840   30.1310   48.5700 C   0  0  0  0  0  0  0  0  0  0  0  0
   48.8410   31.3600   49.1420 C   0  0  0  0  0  0  0  0  0  0  0  0
   48.0860   32.4500   48.7270 C   0  0  0  0  0  3  0  0  0  0  0  0
   49.8810   31.2140   50.0790 O   0  0  0  0  0  0  0  0  0  0  0  0
   49.9800   29.8210   50.3520 C   0  0  0  0  0  3  0  0  0  0  0  0
   51.0360   29.5950   50.5210 H   0  0  0  0  0  0  0  0  0  0  0  0
   49.4710   29.2120   49.1560 O   0  0  0  0  0  0  0  0  0  0  0  0
  1  2  2  0  0  0  0
  1  6  1  0  0  0  0
  2  3  1  0  0  0  0
  3 24  1  0  0  0  0
  3  4  2  0  0  0  0
  5  4  1  0  0  0  0
  5  8  1  0  0  0  0
  6  5  2  0  0  0  0
  7  1  1  0  0  0  0
  9  2  1  0  0  0  0
 10  9  1  0  0  0  0
 10 16  1  0  0  0  0
 11 17  1  0  0  0  0
 11 10  1  0  0  0  0
 12 13  1  0  0  0  0
 12 11  1  0  0  0  0
 13 14  1  0  0  0  0
 14 22  1  0  0  0  0
 14 23  1  0  0  0  0
 14  9  1  0  0  0  0
 15 10  1  0  0  0  0
 18 11  1  0  0  0  0
 19 12  1  0  0  0  0
 20 13  1  0  0  0  0
 21 13  1  0  0  0  0
 24 26  1  0  0  0  0
 26 25  2  6  0  0  0
 26 29  1  0  0  0  0
 27 28  1  0  0  0  0
 27 26  1  0  0  0  0
 29 31  1  0  0  0  0
 30 36  1  0  0  0  0
 31 32  1  0  0  0  0
 31 30  2  0  0  0  0
 32 34  2  0  0  0  0
 33 32  1  0  0  0  0
 34 35  1  0  0  0  0
 34 40  1  0  0  0  0
 35 37  1  0  0  0  0
 36 35  2  0  0  0  0
 37 38  1  0  0  0  0
 38 39  1  0  0  0  0
 40 38  1  0  0  0  0
M  END
>  <minimizedAffinity>
-5.73102283

>  <minimizedRMSD>
1.50257671

$$$$
