
 OpenBabel03252502233D

 36 39  0  0  1  0  0  0  0  0999 V2000
   46.8790   34.6250   42.3070 N   0  0  0  0  0  0  0  0  0  0  0  0
   48.3350   34.6500   42.3740 C   0  0  0  0  0  0  0  0  0  0  0  0
   48.7540   35.4390   41.1260 C   0  0  0  0  0  0  0  0  0  0  0  0
   48.3820   34.7070   39.8780 C   0  0  0  0  0  0  0  0  0  0  0  0
   47.0620   34.0190   39.9360 C   0  0  0  0  0  0  0  0  0  0  0  0
   46.1710   34.4340   41.0640 C   0  0  1  0  0  0  0  0  0  0  0  0
   48.7040   35.1670   43.2590 H   0  0  0  0  0  0  0  0  0  0  0  0
   48.7960   33.6510   42.2420 H   0  0  0  0  0  0  0  0  0  0  0  0
   48.3830   36.4850   41.1520 H   0  0  0  0  0  0  0  0  0  0  0  0
   49.8730   35.5220   41.2120 H   0  0  0  0  0  0  0  0  0  0  0  0
   48.4630   35.4250   39.0290 H   0  0  0  0  0  0  0  0  0  0  0  0
   49.1820   33.9410   39.6890 H   0  0  0  0  0  0  0  0  0  0  0  0
   46.5220   34.2610   38.9960 H   0  0  0  0  0  0  0  0  0  0  0  0
   47.1680   32.9070   39.9480 H   0  0  0  0  0  0  0  0  0  0  0  0
   45.6670   35.4000   40.8500 H   0  0  0  0  0  0  0  0  0  0  0  0
   44.4720   35.9630   44.8300 C   0  0  0  0  0  0  0  0  0  0  0  0
   45.1990   35.8830   43.6230 C   0  0  0  0  0  0  0  0  0  0  0  0
   46.0980   34.7940   43.4910 C   0  0  0  0  0  0  0  0  0  0  0  0
   46.2010   33.9110   44.5180 N   0  0  0  0  0  0  0  0  0  0  0  0
   45.4740   34.0410   45.6580 C   0  0  0  0  0  0  0  0  0  0  0  0
   44.6150   35.0660   45.8070 N   0  0  0  0  0  0  0  0  0  0  0  0
   43.7850   36.7900   44.9410 H   0  0  0  0  0  0  0  0  0  0  0  0
   45.1030   36.5960   42.8160 H   0  0  0  0  0  0  0  0  0  0  0  0
   45.6630   33.2600   46.3860 H   0  0  0  0  0  0  0  0  0  0  0  0
   45.2250   33.4240   41.2460 O   0  0  0  0  0  0  0  0  0  0  0  0
   43.4800   34.6850   40.4340 C   0  0  0  0  0  0  0  0  0  0  0  0
   43.8730   33.5100   41.0830 C   0  0  0  0  0  0  0  0  0  0  0  0
   42.8680   32.6380   41.4520 C   0  0  0  0  0  0  0  0  0  0  0  0
   43.2400   31.7520   41.9490 H   0  0  0  0  0  0  0  0  0  0  0  0
   41.5430   32.9210   41.1890 C   0  0  0  0  0  0  0  0  0  0  0  0
   41.1870   34.0730   40.5540 C   0  0  0  0  0  0  0  0  0  0  0  0
   42.1650   34.9910   40.1580 C   0  0  0  0  0  0  0  0  0  0  0  0
   39.7840   34.0650   40.4350 O   0  0  0  0  0  0  0  0  0  0  0  0
   39.3110   33.0260   41.2920 C   0  0  0  0  0  0  0  0  0  0  0  0
   38.4590   32.4870   40.8370 H   0  0  0  0  0  0  0  0  0  0  0  0
   40.4210   32.1570   41.4910 O   0  0  0  0  0  0  0  0  0  0  0  0
  1  2  1  0  0  0  0
  1 18  1  0  0  0  0
  2  7  1  0  0  0  0
  3  9  1  0  0  0  0
  3 10  1  0  0  0  0
  3  2  1  0  0  0  0
  4  5  1  0  0  0  0
  4  3  1  0  0  0  0
  5 14  1  0  0  0  0
  5  6  1  0  0  0  0
  6 15  1  6  0  0  0
  6 25  1  0  0  0  0
  6  1  1  0  0  0  0
  8  2  1  0  0  0  0
 11  4  1  0  0  0  0
 12  4  1  0  0  0  0
 13  5  1  0  0  0  0
 16 22  1  0  0  0  0
 16 21  1  0  0  0  0
 17 16  2  0  0  0  0
 18 17  1  0  0  0  0
 18 19  2  0  0  0  0
 19 20  1  0  0  0  0
 20 21  2  0  0  0  0
 20 24  1  0  0  0  0
 23 17  1  0  0  0  0
 26 27  1  0  0  0  0
 27 25  1  0  0  0  0
 27 28  2  0  0  0  0
 28 29  1  0  0  0  0
 30 28  1  0  0  0  0
 30 36  1  0  0  0  0
 31 30  2  0  0  0  0
 32 26  2  0  0  0  0
 32 31  1  0  0  0  0
 33 31  1  0  0  0  0
 33 34  1  0  0  0  0
 34 36  1  0  0  0  0
 35 34  1  0  0  0  0
M  END
>  <minimizedAffinity>
-6.42216635

>  <minimizedRMSD>
0.771326065

$$$$
