
 OpenBabel03252502233D

 36 39  0  0  1  0  0  0  0  0999 V2000
   46.7770   34.5640   42.3290 N   0  0  0  0  0  0  0  0  0  0  0  0
   48.2260   34.4220   42.3880 C   0  0  0  0  0  0  0  0  0  0  0  0
   48.7300   35.2120   41.1710 C   0  0  0  0  0  0  0  0  0  0  0  0
   48.2750   34.5810   39.8960 C   0  0  0  0  0  0  0  0  0  0  0  0
   46.8860   34.0430   39.9330 C   0  0  0  0  0  0  0  0  0  0  0  0
   46.0500   34.5080   41.0840 C   0  0  1  0  0  0  0  0  0  0  0  0
   48.6530   34.8560   43.2910 H   0  0  0  0  0  0  0  0  0  0  0  0
   48.5720   33.3850   42.2100 H   0  0  0  0  0  0  0  0  0  0  0  0
   48.4780   36.2910   41.2450 H   0  0  0  0  0  0  0  0  0  0  0  0
   49.8510   35.1650   41.2540 H   0  0  0  0  0  0  0  0  0  0  0  0
   48.4350   35.3210   39.0780 H   0  0  0  0  0  0  0  0  0  0  0  0
   48.9830   33.7390   39.6700 H   0  0  0  0  0  0  0  0  0  0  0  0
   46.3750   34.3850   39.0080 H   0  0  0  0  0  0  0  0  0  0  0  0
   46.8660   32.9270   39.8970 H   0  0  0  0  0  0  0  0  0  0  0  0
   45.6580   35.5320   40.9150 H   0  0  0  0  0  0  0  0  0  0  0  0
   44.4740   36.0120   44.8880 C   0  0  0  0  0  0  0  0  0  0  0  0
   45.1790   35.8990   43.6710 C   0  0  0  0  0  0  0  0  0  0  0  0
   46.0220   34.7680   43.5250 C   0  0  0  0  0  0  0  0  0  0  0  0
   46.0960   33.8790   44.5490 N   0  0  0  0  0  0  0  0  0  0  0  0
   45.3920   34.0420   45.7000 C   0  0  0  0  0  0  0  0  0  0  0  0
   44.5860   35.1070   45.8620 N   0  0  0  0  0  0  0  0  0  0  0  0
   43.8290   36.8720   45.0100 H   0  0  0  0  0  0  0  0  0  0  0  0
   45.1060   36.6180   42.8660 H   0  0  0  0  0  0  0  0  0  0  0  0
   45.5540   33.2520   46.4240 H   0  0  0  0  0  0  0  0  0  0  0  0
   44.9960   33.6030   41.2290 O   0  0  0  0  0  0  0  0  0  0  0  0
   42.8600   34.4270   41.4560 C   0  0  0  0  0  3  0  0  0  0  0  0
   43.7500   33.6810   40.6780 C   0  0  0  0  0  0  0  0  0  0  0  0
   43.2550   33.1470   39.5040 C   0  0  0  0  0  0  0  0  0  0  0  0
   43.9950   32.5830   38.9530 H   0  0  0  0  0  0  0  0  0  0  0  0
   41.9440   33.3480   39.1270 C   0  0  0  0  0  0  0  0  0  0  0  0
   41.0950   34.0790   39.9020 C   0  0  0  0  0  0  0  0  0  0  0  0
   41.5460   34.6420   41.1010 C   0  0  0  0  0  3  0  0  0  0  0  0
   39.8470   34.0980   39.2510 O   0  0  0  0  0  0  0  0  0  0  0  0
   39.9060   33.1020   38.2320 C   0  0  0  0  0  3  0  0  0  0  0  0
   39.3880   33.4330   37.3140 H   0  0  0  0  0  0  0  0  0  0  0  0
   41.2930   32.8850   37.9860 O   0  0  0  0  0  0  0  0  0  0  0  0
  1  2  1  0  0  0  0
  1 18  1  0  0  0  0
  2  7  1  0  0  0  0
  3  9  1  0  0  0  0
  3 10  1  0  0  0  0
  3  2  1  0  0  0  0
  4  5  1  0  0  0  0
  4  3  1  0  0  0  0
  5  6  1  0  0  0  0
  6 15  1  6  0  0  0
  6 25  1  0  0  0  0
  6  1  1  0  0  0  0
  8  2  1  0  0  0  0
 11  4  1  0  0  0  0
 12  4  1  0  0  0  0
 13  5  1  0  0  0  0
 14  5  1  0  0  0  0
 16 22  1  0  0  0  0
 16 21  1  0  0  0  0
 17 16  2  0  0  0  0
 18 17  1  0  0  0  0
 18 19  2  0  0  0  0
 19 20  1  0  0  0  0
 20 21  2  0  0  0  0
 20 24  1  0  0  0  0
 23 17  1  0  0  0  0
 27 25  1  0  0  0  0
 27 26  2  0  0  0  0
 28 27  1  0  0  0  0
 29 28  1  0  0  0  0
 30 28  2  0  0  0  0
 30 31  1  0  0  0  0
 31 32  2  0  0  0  0
 32 26  1  0  0  0  0
 33 31  1  0  0  0  0
 34 33  1  0  0  0  0
 35 34  1  0  0  0  0
 36 34  1  0  0  0  0
 36 30  1  0  0  0  0
M  END
>  <minimizedAffinity>
-6.07618237

>  <minimizedRMSD>
1.13522696

$$$$
