
     RDKit          3D

 39 42  0  0  0  0  0  0  0  0999 V2000
   46.8851   34.6085   42.2336 N   0  0  0  0  0  0  0  0  0  0  0  0
   48.3316   34.7815   42.2668 C   0  0  0  0  0  0  0  0  0  0  0  0
   48.6507   35.5120   40.9539 C   0  0  0  0  0  0  0  0  0  0  0  0
   48.3354   34.6537   39.7731 C   0  0  0  0  0  0  0  0  0  0  0  0
   47.0921   33.8447   39.9114 C   0  0  0  0  0  0  0  0  0  0  0  0
   46.1808   34.2551   41.0250 C   0  0  1  0  0  0  0  0  0  0  0  0
   44.5108   35.9864   44.7675 C   0  0  0  0  0  0  0  0  0  0  0  0
   45.2348   35.8961   43.5589 C   0  0  0  0  0  0  0  0  0  0  0  0
   46.1095   34.7875   43.4198 C   0  0  0  0  0  0  0  0  0  0  0  0
   46.1930   33.8985   44.4422 N   0  0  0  0  0  0  0  0  0  0  0  0
   45.4699   34.0379   45.5843 C   0  0  0  0  0  0  0  0  0  0  0  0
   44.6338   35.0812   45.7387 N   0  0  0  0  0  0  0  0  0  0  0  0
   45.3436   33.1730   41.3027 O   0  0  0  0  0  0  0  0  0  0  0  0
   48.6610   35.3993   43.1022 H   0  0  0  0  0  0  0  0  0  0  0  0
   48.8886   33.8267   42.1981 H   0  0  0  0  0  0  0  0  0  0  0  0
   48.1766   36.5150   40.9124 H   0  0  0  0  0  0  0  0  0  0  0  0
   49.7567   35.7108   41.0090 H   0  0  0  0  0  0  0  0  0  0  0  0
   48.3309   35.3104   38.8715 H   0  0  0  0  0  0  0  0  0  0  0  0
   49.2048   33.9593   39.6233 H   0  0  0  0  0  0  0  0  0  0  0  0
   46.5163   33.9611   38.9682 H   0  0  0  0  0  0  0  0  0  0  0  0
   47.3088   32.7526   40.0032 H   0  0  0  0  0  0  0  0  0  0  0  0
   45.5798   35.1471   40.7524 H   0  0  0  0  0  0  0  0  0  0  0  0
   43.8416   36.8278   44.8827 H   0  0  0  0  0  0  0  0  0  0  0  0
   45.1540   36.6161   42.7552 H   0  0  0  0  0  0  0  0  0  0  0  0
   45.6434   33.2496   46.3083 H   0  0  0  0  0  0  0  0  0  0  0  0
   43.4755   31.8823   40.9341 C   0  0  0  0  0  0  0  0  0  0  0  0
   43.9797   33.1437   41.2649 C   0  0  0  0  0  0  0  0  0  0  0  0
   43.0555   34.1429   41.4975 C   0  0  0  0  0  0  0  0  0  0  0  0
   43.5126   35.0895   41.7475 H   0  0  0  0  0  0  0  0  0  0  0  0
   41.7006   33.8970   41.4050 C   0  0  0  0  0  0  0  0  0  0  0  0
   41.2340   32.6589   41.0809 C   0  0  0  0  0  0  0  0  0  0  0  0
   42.1285   31.6111   40.8353 C   0  0  0  0  0  0  0  0  0  0  0  0
   39.8279   32.7340   41.0686 O   0  0  0  0  0  0  0  0  0  0  0  0
   39.4961   34.1209   41.0907 C   0  0  2  0  0  0  0  0  0  0  0  0
   38.6102   34.3132   41.7245 H   0  0  0  0  0  0  0  0  0  0  0  0
   40.6471   34.7834   41.6061 O   0  0  0  0  0  0  0  0  0  0  0  0
   44.1026   31.0012   40.7248 H   0  0  0  0  0  0  0  0  0  0  0  0
   41.7330   30.6444   40.5816 H   0  0  0  0  0  0  0  0  0  0  0  0
   39.3766   34.4806   40.0367 H   0  0  0  0  0  0  0  0  0  0  0  0
  1  2  1  0
  1  9  1  0
  3  2  1  0
  4  5  1  0
  4  3  1  0
  5  6  1  0
  6 13  1  0
  6  1  1  0
  7 12  2  0
  8  7  1  0
  9  8  2  0
  9 10  1  0
 10 11  2  0
 11 12  1  0
  2 14  1  0
  2 15  1  0
  3 16  1  0
  3 17  1  0
  4 18  1  0
  4 19  1  0
  5 20  1  0
  5 21  1  0
  6 22  1  6
  7 23  1  0
  8 24  1  0
 11 25  1  0
 26 27  2  0
 27 28  1  0
 28 29  1  0
 28 30  2  0
 30 31  1  0
 31 32  2  0
 31 33  1  0
 33 34  1  0
 34 35  1  1
 34 36  1  0
 32 26  1  0
 36 30  1  0
 26 37  1  0
 32 38  1  0
 34 39  1  0
 13 27  1  0
M  ISO  8  14  13  15  13  16  13  17  13  18  13  19  13  20  13  21  13
M  ISO  6  22  13  23  14  24  14  25  14  29  16  35   8
M  END
>  <DihAtoms>  (1) 
5,12,26,25

>  <DihDeg>  (1) 
179.9990919227206

$$$$
