REMARK  Name = 
REMARK  3 active torsions:
REMARK  status: ('A' for Active; 'I' for Inactive)
REMARK    1  A    between atoms: N_1  and  C_9
REMARK    2  A    between atoms: C_6  and  O_13
REMARK    3  A    between atoms: O_13  and  C_27
REMARK                            x       y       z     vdW  Elec       q    Type
REMARK                         _______ _______ _______ _____ _____    ______ ____
ROOT
ATOM      1  N   UNL     1      46.885  34.608  42.234  0.00  0.00    +0.000 N 
ATOM      2  C   UNL     1      48.332  34.782  42.267  0.00  0.00    +0.000 C 
ATOM      3  C   UNL     1      48.651  35.512  40.954  0.00  0.00    +0.000 C 
ATOM      4  C   UNL     1      48.335  34.654  39.773  0.00  0.00    +0.000 C 
ATOM      5  C   UNL     1      47.092  33.845  39.911  0.00  0.00    +0.000 C 
ATOM      6  C   UNL     1      46.181  34.255  41.025  0.00  0.00    +0.000 C 
ATOM      7  H   UNL     1      48.661  35.399  43.102  0.00  0.00    +0.000 HD
ATOM      8  H   UNL     1      48.889  33.827  42.198  0.00  0.00    +0.000 HD
ATOM      9  H   UNL     1      48.177  36.515  40.912  0.00  0.00    +0.000 HD
ATOM     10  H   UNL     1      49.757  35.711  41.009  0.00  0.00    +0.000 HD
ATOM     11  H   UNL     1      48.331  35.310  38.871  0.00  0.00    +0.000 HD
ATOM     12  H   UNL     1      49.205  33.959  39.623  0.00  0.00    +0.000 HD
ATOM     13  H   UNL     1      46.516  33.961  38.968  0.00  0.00    +0.000 HD
ATOM     14  H   UNL     1      47.309  32.753  40.003  0.00  0.00    +0.000 HD
ATOM     15  H   UNL     1      45.580  35.147  40.752  0.00  0.00    +0.000 HD
ENDROOT
BRANCH   1  18
ATOM     16  C   UNL     1      44.511  35.986  44.767  0.00  0.00    +0.000 A 
ATOM     17  C   UNL     1      45.235  35.896  43.559  0.00  0.00    +0.000 A 
ATOM     18  C   UNL     1      46.109  34.788  43.420  0.00  0.00    +0.000 A 
ATOM     19  N   UNL     1      46.193  33.898  44.442  0.00  0.00    +0.000 NA
ATOM     20  C   UNL     1      45.470  34.038  45.584  0.00  0.00    +0.000 A 
ATOM     21  N   UNL     1      44.634  35.081  45.739  0.00  0.00    +0.000 NA
ATOM     22  H   UNL     1      43.842  36.828  44.883  0.00  0.00    +0.000 HD
ATOM     23  H   UNL     1      45.154  36.616  42.755  0.00  0.00    +0.000 HD
ATOM     24  H   UNL     1      45.643  33.250  46.308  0.00  0.00    +0.000 HD
ENDBRANCH   1  18
BRANCH   6  25
ATOM     25  O   UNL     1      45.344  33.173  41.303  0.00  0.00    +0.000 OA
BRANCH  25  27
ATOM     26  C   UNL     1      43.398  34.257  41.879  0.00  0.00    +0.000 A 
ATOM     27  C   UNL     1      43.980  33.144  41.265  0.00  0.00    +0.000 A 
ATOM     28  C   UNL     1      43.118  32.208  40.728  0.00  0.00    +0.000 A 
ATOM     29  H   UNL     1      43.633  31.375  40.270  0.00  0.00    +0.000 HD
ATOM     30  C   UNL     1      41.750  32.373  40.799  0.00  0.00    +0.000 A 
ATOM     31  C   UNL     1      41.208  33.468  41.403  0.00  0.00    +0.000 A 
ATOM     32  C   UNL     1      42.036  34.446  41.963  0.00  0.00    +0.000 A 
ATOM     33  O   UNL     1      39.808  33.343  41.311  0.00  0.00    +0.000 OA
ATOM     34  C   UNL     1      39.547  31.998  40.912  0.00  0.00    +0.000 C 
ATOM     35  H   UNL     1      38.703  31.947  40.199  0.00  0.00    +0.000 HD
ATOM     36  O   UNL     1      40.753  31.533  40.314  0.00  0.00    +0.000 OA
ENDBRANCH  25  27
ENDBRANCH   6  25
TORSDOF 3
