
 OpenBabel03252502233D

 36 39  0  0  1  0  0  0  0  0999 V2000
   46.8620   34.6210   42.3150 N   0  0  0  0  0  0  0  0  0  0  0  0
   48.3180   34.6070   42.3850 C   0  0  0  0  0  0  0  0  0  0  0  0
   48.7600   35.4050   41.1500 C   0  0  0  0  0  0  0  0  0  0  0  0
   48.3700   34.7030   39.8900 C   0  0  0  0  0  0  0  0  0  0  0  0
   47.0320   34.0490   39.9350 C   0  0  0  0  0  0  0  0  0  0  0  0
   46.1510   34.4700   41.0690 C   0  0  1  0  0  0  0  0  0  0  0  0
   48.7000   35.1000   43.2780 H   0  0  0  0  0  0  0  0  0  0  0  0
   48.7530   33.5990   42.2370 H   0  0  0  0  0  0  0  0  0  0  0  0
   48.4160   36.4600   41.1930 H   0  0  0  0  0  0  0  0  0  0  0  0
   49.8800   35.4570   41.2390 H   0  0  0  0  0  0  0  0  0  0  0  0
   48.4710   35.4320   39.0520 H   0  0  0  0  0  0  0  0  0  0  0  0
   49.1500   33.9200   39.6900 H   0  0  0  0  0  0  0  0  0  0  0  0
   46.5000   34.3210   38.9990 H   0  0  0  0  0  0  0  0  0  0  0  0
   47.1090   32.9340   39.9300 H   0  0  0  0  0  0  0  0  0  0  0  0
   45.6740   35.4510   40.8710 H   0  0  0  0  0  0  0  0  0  0  0  0
   44.4700   35.9680   44.8480 C   0  0  0  0  0  0  0  0  0  0  0  0
   45.1950   35.8870   43.6400 C   0  0  0  0  0  0  0  0  0  0  0  0
   46.0840   34.7910   43.5020 C   0  0  0  0  0  0  0  0  0  0  0  0
   46.1810   33.9030   44.5240 N   0  0  0  0  0  0  0  0  0  0  0  0
   45.4570   34.0340   45.6670 C   0  0  0  0  0  0  0  0  0  0  0  0
   44.6060   35.0650   45.8210 N   0  0  0  0  0  0  0  0  0  0  0  0
   43.7890   36.8000   44.9640 H   0  0  0  0  0  0  0  0  0  0  0  0
   45.1030   36.6050   42.8350 H   0  0  0  0  0  0  0  0  0  0  0  0
   45.6420   33.2490   46.3910 H   0  0  0  0  0  0  0  0  0  0  0  0
   45.1790   33.4820   41.2340 O   0  0  0  0  0  0  0  0  0  0  0  0
   43.5940   32.7400   39.7410 C   0  0  0  0  0  3  0  0  0  0  0  0
   43.8670   33.5330   40.8590 C   0  0  0  0  0  0  0  0  0  0  0  0
   42.8060   34.2280   41.4050 C   0  0  0  0  0  0  0  0  0  0  0  0
   43.0880   34.8180   42.2650 H   0  0  0  0  0  0  0  0  0  0  0  0
   41.5410   34.1380   40.8630 C   0  0  0  0  0  0  0  0  0  0  0  0
   41.2990   33.3590   39.7710 C   0  0  0  0  0  0  0  0  0  0  0  0
   42.3400   32.6340   39.1800 C   0  0  0  0  0  3  0  0  0  0  0  0
   39.9300   33.4810   39.4680 O   0  0  0  0  0  0  0  0  0  0  0  0
   39.4440   34.5900   40.2210 C   0  0  0  0  0  3  0  0  0  0  0  0
   38.4270   34.3980   40.6100 H   0  0  0  0  0  0  0  0  0  0  0  0
   40.3740   34.7670   41.2860 O   0  0  0  0  0  0  0  0  0  0  0  0
  1  2  1  0  0  0  0
  1 18  1  0  0  0  0
  2  7  1  0  0  0  0
  3  9  1  0  0  0  0
  3 10  1  0  0  0  0
  3  2  1  0  0  0  0
  4  5  1  0  0  0  0
  4  3  1  0  0  0  0
  5  6  1  0  0  0  0
  6 15  1  6  0  0  0
  6 25  1  0  0  0  0
  6  1  1  0  0  0  0
  8  2  1  0  0  0  0
 11  4  1  0  0  0  0
 12  4  1  0  0  0  0
 13  5  1  0  0  0  0
 14  5  1  0  0  0  0
 16 22  1  0  0  0  0
 16 21  1  0  0  0  0
 17 16  2  0  0  0  0
 18 17  1  0  0  0  0
 18 19  2  0  0  0  0
 19 20  1  0  0  0  0
 20 21  2  0  0  0  0
 20 24  1  0  0  0  0
 23 17  1  0  0  0  0
 26 27  1  0  0  0  0
 27 25  1  0  0  0  0
 27 28  2  0  0  0  0
 28 29  1  0  0  0  0
 30 36  1  0  0  0  0
 30 28  1  0  0  0  0
 31 30  2  0  0  0  0
 32 26  2  0  0  0  0
 32 31  1  0  0  0  0
 33 31  1  0  0  0  0
 33 34  1  0  0  0  0
 34 35  1  0  0  0  0
 34 36  1  0  0  0  0
M  END
>  <minimizedAffinity>
-6.17283773

>  <minimizedRMSD>
0.857850969

$$$$
