
 OpenBabel03242514333D

 29 32  0  0  1  0  0  0  0  0999 V2000
   47.4240   34.4600   40.1710 O   0  0  0  0  0  0  0  0  0  0  0  0
   48.8130   35.7570   41.8990 O   0  0  0  0  0  0  0  0  0  0  0  0
   48.3970   34.3700   41.5270 P   0  0  2  0  0  0  0  0  0  0  0  0
   49.7930   33.5130   41.1530 O   0  0  0  0  0  0  0  0  0  0  0  0
   49.8060   33.1430   40.2500 H   0  0  0  0  0  0  0  0  0  0  0  0
   47.5510   33.6230   42.8170 O   0  0  0  0  0  0  0  0  0  0  0  0
   45.9510   35.4030   42.8570 C   0  0  0  0  0  0  0  0  0  0  0  0
   46.5300   34.3060   43.4910 C   0  0  0  0  0  0  0  0  0  0  0  0
   46.0700   33.9400   44.7570 C   0  0  0  0  0  0  0  0  0  0  0  0
   45.0680   34.6860   45.3090 N   0  0  0  0  0  0  0  0  0  0  0  0
   44.5350   35.7320   44.6760 C   0  0  0  0  0  0  0  0  0  0  0  0
   44.9720   36.0860   43.4650 N   0  0  0  0  0  0  0  0  0  0  0  0
   46.2340   35.7690   41.8760 H   0  0  0  0  0  0  0  0  0  0  0  0
   46.5260   33.0860   45.2420 H   0  0  0  0  0  0  0  0  0  0  0  0
   43.7370   36.3310   45.1110 H   0  0  0  0  0  0  0  0  0  0  0  0
   47.3870   33.5420   39.1720 C   0  0  1  0  0  0  0  0  0  0  0  0
   46.7540   32.4790   39.5330 O   0  0  0  0  0  0  0  0  0  0  0  0
   49.1090   31.0850   35.1540 C   0  0  0  0  0  0  0  0  0  0  0  0
   48.1760   32.1790   34.7620 C   0  0  0  0  0  0  0  0  0  0  0  0
   47.5340   32.6700   35.9560 N   0  0  0  0  0  0  0  0  0  0  0  0
   46.5070   33.0660   36.8850 C   0  0  0  0  0  0  0  0  0  0  0  0
   45.3400   33.5240   36.6380 O   0  0  0  0  0  0  0  0  0  0  0  0
   47.4590   32.6870   37.9610 C   0  0  1  0  0  0  0  0  0  0  0  0
   48.4910   33.0400   36.9470 C   0  0  1  0  0  0  0  0  0  0  0  0
   49.7590   31.7300   36.7420 S   0  0  0  0  0  0  0  0  0  0  0  0
   48.5040   29.7310   35.2850 C   0  0  0  0  0  0  0  0  0  0  0  0
   47.5580   29.6710   35.8300 H   0  0  0  0  0  0  0  0  0  0  0  0
   50.2170   31.0310   34.1260 C   0  0  0  0  0  0  0  0  0  0  0  0
   50.8650   31.9220   34.3360 H   0  0  0  0  0  0  0  0  0  0  0  0
  1  3  1  0  0  0  0
  3  2  2  1  0  0  0
  3  6  1  0  0  0  0
  4  3  1  0  0  0  0
  5  4  1  0  0  0  0
  6  8  1  0  0  0  0
  7 12  2  0  0  0  0
  7  8  1  0  0  0  0
  8  9  2  0  0  0  0
  9 14  1  0  0  0  0
  9 10  1  0  0  0  0
 11 15  1  0  0  0  0
 11 10  2  0  0  0  0
 12 11  1  0  0  0  0
 13  7  1  0  0  0  0
 16 17  1  0  0  0  0
 16  1  1  6  0  0  0
 18 26  1  0  0  0  0
 18 25  1  0  0  0  0
 19 18  1  0  0  0  0
 19 20  1  0  0  0  0
 20 21  1  0  0  0  0
 20 24  1  0  0  0  0
 22 21  2  0  0  0  0
 23 21  1  6  0  0  0
 23 16  1  0  0  0  0
 23 17  1  0  0  0  0
 24 25  1  1  0  0  0
 24 23  1  0  0  0  0
 26 27  1  0  0  0  0
 28 29  1  0  0  0  0
 28 18  1  0  0  0  0
M  END
>  <minimizedAffinity>
-4.97556019

>  <minimizedRMSD>
1.22393811

$$$$
