REMARK  Name = 
REMARK  4 active torsions:
REMARK  status: ('A' for Active; 'I' for Inactive)
REMARK    1  A    between atoms: C_1  and  C_7
REMARK    2  A    between atoms: C_7  and  C_21
REMARK    3  A    between atoms: C_12  and  C_14
REMARK    4  A    between atoms: C_14  and  C_15
REMARK                            x       y       z     vdW  Elec       q    Type
REMARK                         _______ _______ _______ _____ _____    ______ ____
ROOT
ATOM      1  C   UNL     1      43.133  34.024  43.026  0.00  0.00    +0.000 C 
ATOM      2  C   UNL     1      43.906  32.786  42.939  0.00  0.00    +0.000 C 
ATOM      3  N   UNL     1      44.958  32.865  42.026  0.00  0.00    +0.000 N 
ATOM      4  C   UNL     1      46.169  32.549  41.420  0.00  0.00    +0.000 C 
ATOM      5  O   UNL     1      46.971  31.595  41.243  0.00  0.00    +0.000 OA
ATOM      6  C   UNL     1      46.301  33.940  40.926  0.00  0.00    +0.000 C 
ATOM      7  C   UNL     1      44.807  33.886  41.024  0.00  0.00    +0.000 C 
ATOM      8  S   UNL     1      44.093  35.224  42.060  0.00  0.00    +0.000 S 
ENDROOT
BRANCH   6   9
ATOM      9  C   UNL     1      46.960  34.792  41.962  0.00  0.00    +0.000 C 
ATOM     10  O   UNL     1      48.057  35.395  41.741  0.00  0.00    +0.000 OA
BRANCH   9  11
ATOM     11  C   UNL     1      46.219  34.834  43.186  0.00  0.00    +0.000 A 
ATOM     12  C   UNL     1      45.318  35.910  43.280  0.00  0.00    +0.000 A 
ATOM     13  C   UNL     1      44.559  36.010  44.457  0.00  0.00    +0.000 A 
ATOM     14  N   UNL     1      44.744  35.066  45.418  0.00  0.00    +0.000 NA
ATOM     15  C   UNL     1      45.618  34.053  45.284  0.00  0.00    +0.000 A 
ATOM     16  N   UNL     1      46.352  33.943  44.166  0.00  0.00    +0.000 NA
ATOM     17  H   UNL     1      45.144  36.668  42.553  0.00  0.00    +0.000 HD
ATOM     18  H   UNL     1      43.848  36.786  44.631  0.00  0.00    +0.000 HD
ATOM     19  H   UNL     1      45.692  33.351  46.108  0.00  0.00    +0.000 HD
ENDBRANCH   9  11
ENDBRANCH   6   9
BRANCH   1  20
ATOM     20  C   UNL     1      41.825  33.845  42.244  0.00  0.00    +0.000 C 
ATOM     21  H   UNL     1      42.023  33.252  41.332  0.00  0.00    +0.000 HD
ENDBRANCH   1  20
BRANCH   1  22
ATOM     22  C   UNL     1      42.847  34.502  44.428  0.00  0.00    +0.000 C 
ATOM     23  H   UNL     1      41.769  34.755  44.486  0.00  0.00    +0.000 HD
ENDBRANCH   1  22
TORSDOF 4
