
 OpenBabel03252501403D

 48 53  0  0  1  0  0  0  0  0999 V2000
   44.4700   33.1020   41.9290 C   0  0  0  0  0  0  0  0  0  0  0  0
   44.0260   32.3640   42.8860 O   0  0  0  0  0  0  0  0  0  0  0  0
   45.2920   34.1680   42.4040 N   0  0  0  0  0  0  0  0  0  0  0  0
   45.7640   34.8340   41.7950 H   0  0  0  0  0  0  0  0  0  0  0  0
   45.3360   34.1320   43.8480 C   0  0  0  0  0  0  0  0  0  0  0  0
   44.6230   34.9190   44.6970 C   0  0  0  0  0  0  0  0  0  0  0  0
   44.8110   34.7250   46.0400 C   0  0  0  0  0  0  0  0  0  0  0  0
   45.6930   33.7630   46.4220 N   0  0  0  0  0  0  0  0  0  0  0  0
   46.3820   33.0020   45.5620 C   0  0  0  0  0  0  0  0  0  0  0  0
   46.2090   33.1800   44.2280 N   0  0  0  0  0  0  0  0  0  0  0  0
   44.2550   35.3390   46.7330 H   0  0  0  0  0  0  0  0  0  0  0  0
   43.7550   35.8640   44.1240 N   0  0  0  0  0  0  0  0  0  0  0  0
   42.8500   35.8380   44.6400 H   0  0  0  0  0  0  0  0  0  0  0  0
   43.9440   36.4980   43.3260 H   0  0  0  0  0  0  0  0  0  0  0  0
   47.3060   31.9960   46.1430 C   0  0  0  0  0  2  0  0  0  0  0  0
   46.5120   30.9230   46.8420 C   0  0  1  0  0  0  0  0  0  0  0  0
   45.2500   30.5670   46.1850 C   0  0  0  0  0  2  0  0  0  0  0  0
   44.9450   29.2060   46.2640 N   0  0  1  0  0  0  0  0  0  0  0  0
   44.2490   28.0080   46.0560 C   0  0  1  0  0  0  0  0  0  0  0  0
   43.0820   27.5490   45.9540 O   0  0  0  0  0  1  0  0  0  0  0  0
   45.6060   27.3510   45.9880 C   0  0  0  0  0  3  0  0  0  0  0  0
   46.1480   27.5820   45.0550 H   0  0  0  0  0  0  0  0  0  0  0  0
   45.8720   28.3920   47.0230 C   0  0  1  0  0  0  0  0  0  0  0  0
   47.4070   29.3410   46.8570 S   0  0  0  0  0  0  0  0  0  0  0  0
   46.2580   31.2920   48.2740 C   0  0  0  0  0  2  0  0  0  0  0  0
   45.3610   31.9340   48.4110 H   0  0  0  0  0  0  0  0  0  0  0  0
   44.2250   32.9490   40.5640 O   0  0  0  0  0  0  0  0  0  0  0  0
   42.2010   30.7780   40.7120 Cl  0  0  0  0  0  0  0  0  0  0  0  0
   41.9600   32.4060   40.1030 C   0  0  0  0  0  0  0  0  0  0  0  0
   42.9730   33.3620   40.0730 C   0  0  0  0  0  0  0  0  0  0  0  0
   42.7320   34.6110   39.5900 C   0  0  0  0  0  0  0  0  0  0  0  0
   41.5020   35.0140   39.1090 C   0  0  0  0  0  0  0  0  0  0  0  0
   40.4560   34.0660   39.1290 C   0  0  0  0  0  0  0  0  0  0  0  0
   38.8580   34.4840   38.5380 Cl  0  0  0  0  0  0  0  0  0  0  0  0
   40.7390   32.8070   39.6260 C   0  0  0  0  0  0  0  0  0  0  0  0
   43.5420   35.3280   39.5810 H   0  0  0  0  0  0  0  0  0  0  0  0
   41.3310   36.0090   38.7300 H   0  0  0  0  0  0  0  0  0  0  0  0
   39.1580   32.5780   41.8310 F   0  0  0  0  0  0  0  0  0  0  0  0
   38.8770   31.7310   40.7860 C   0  0  0  0  0  0  0  0  0  0  0  0
   39.6630   31.8220   39.6490 C   0  0  0  0  0  0  0  0  0  0  0  0
   39.3450   30.9440   38.6090 C   0  0  0  0  0  0  0  0  0  0  0  0
   38.2950   30.0560   38.7660 C   0  0  0  0  0  0  0  0  0  0  0  0
   37.5380   30.0160   39.9480 C   0  0  0  0  0  0  0  0  0  0  0  0
   37.8250   30.8750   41.0010 C   0  0  0  0  0  0  0  0  0  0  0  0
   39.9530   31.0150   37.7310 H   0  0  0  0  0  0  0  0  0  0  0  0
   38.0850   29.3930   37.9320 H   0  0  0  0  0  0  0  0  0  0  0  0
   36.7180   29.3090   40.0440 H   0  0  0  0  0  0  0  0  0  0  0  0
   37.2660   30.8630   41.9040 H   0  0  0  0  0  0  0  0  0  0  0  0
  1  3  1  0  0  0  0
  1  2  2  0  0  0  0
  3  5  1  0  0  0  0
  4  3  1  0  0  0  0
  5 10  2  0  0  0  0
  5  6  1  0  0  0  0
  6  7  2  0  0  0  0
  7  8  1  0  0  0  0
  7 11  1  0  0  0  0
  9 15  1  0  0  0  0
  9  8  2  0  0  0  0
 10  9  1  0  0  0  0
 12 13  1  0  0  0  0
 12  6  1  0  0  0  0
 14 12  1  0  0  0  0
 16 15  1  6  0  0  0
 16 24  1  0  0  0  0
 16 25  1  0  0  0  0
 17 16  1  0  0  0  0
 18 17  1  6  0  0  0
 18 23  1  0  0  0  0
 19 20  1  1  0  0  0
 19 18  1  0  0  0  0
 19 23  1  0  0  0  0
 21 19  1  0  0  0  0
 22 21  1  0  0  0  0
 23 21  1  6  0  0  0
 24 23  1  0  0  0  0
 25 26  1  0  0  0  0
 27  1  1  0  0  0  0
 29 28  1  0  0  0  0
 30 29  1  0  0  0  0
 30 27  1  0  0  0  0
 31 30  2  0  0  0  0
 32 33  2  0  0  0  0
 32 31  1  0  0  0  0
 33 35  1  0  0  0  0
 34 33  1  0  0  0  0
 35 40  1  0  0  0  0
 35 29  2  0  0  0  0
 36 31  1  0  0  0  0
 37 32  1  0  0  0  0
 39 44  1  0  0  0  0
 39 38  1  0  0  0  0
 40 39  2  0  0  0  0
 41 42  2  0  0  0  0
 41 40  1  0  0  0  0
 42 43  1  0  0  0  0
 43 47  1  0  0  0  0
 43 44  2  0  0  0  0
 44 48  1  0  0  0  0
 45 41  1  0  0  0  0
 46 42  1  0  0  0  0
M  END
>  <minimizedAffinity>
-6.6742568

>  <minimizedRMSD>
1.81112862

$$$$
