
     RDKit          3D

 56 60  0  0  0  0  0  0  0  0999 V2000
   42.8290   34.4811   38.7784 C   0  0  1  0  0  0  0  0  0  0  0  0
   42.9506   35.1618   40.1355 C   0  0  1  0  0  0  0  0  0  0  0  0
   41.6543   35.3748   40.6414 O   0  0  0  0  0  0  0  0  0  0  0  0
   40.7375   35.6999   39.6409 C   0  0  0  0  0  0  0  0  0  0  0  0
   40.4478   34.5187   38.7345 C   0  0  2  0  0  0  0  0  0  0  0  0
   41.6701   33.5427   38.8805 C   0  0  1  0  0  0  0  0  0  0  0  0
   42.6137   35.4265   37.7671 O   0  0  0  0  0  0  0  0  0  0  0  0
   40.4705   34.9373   37.4105 O   0  0  0  0  0  0  0  0  0  0  0  0
   43.4881   34.1802   40.9896 O   0  0  0  0  0  0  0  0  0  0  0  0
   44.6011   34.3319   41.7159 C   0  0  0  0  0  0  0  0  0  0  0  0
   45.8585   34.4462   41.1038 C   0  0  0  0  0  0  0  0  0  0  0  0
   46.9750   34.6031   41.9089 C   0  0  0  0  0  0  0  0  0  0  0  0
   46.8208   34.6425   43.2824 N   0  0  0  0  0  0  0  0  0  0  0  0
   45.5917   34.5284   43.8386 C   0  0  0  0  0  0  0  0  0  0  0  0
   44.4897   34.3741   43.0607 N   0  0  0  0  0  0  0  0  0  0  0  0
   48.3489   34.7124   41.3331 C   0  0  0  0  0  0  0  0  0  0  0  0
   49.0665   36.0505   41.5158 C   0  0  0  0  0  0  0  0  0  0  0  0
   49.5064   34.7222   42.1668 C   0  0  0  0  0  0  0  0  0  0  0  0
   41.5589   32.6087   37.9139 O   0  0  0  0  0  0  0  0  0  0  0  0
   40.9201   31.4182   37.9657 C   0  0  0  0  0  0  0  0  0  0  0  0
   39.6668   31.2948   37.6059 O   0  0  0  0  0  0  0  0  0  0  0  0
   43.7290   33.8663   38.5620 H   0  0  0  0  0  0  0  0  0  0  0  0
   43.5276   36.0878   40.1076 H   0  0  0  0  0  0  0  0  0  0  0  0
   41.0177   36.6067   39.0688 H   0  0  0  0  0  0  0  0  0  0  0  0
   39.8056   35.9484   40.1661 H   0  0  0  0  0  0  0  0  0  0  0  0
   39.5188   33.9840   38.9926 H   0  0  0  0  0  0  0  0  0  0  0  0
   41.4488   33.2464   39.9551 H   0  0  0  0  0  0  0  0  0  0  0  0
   43.2859   35.4026   37.0560 H   0  0  0  0  0  0  0  0  0  0  0  0
   40.3541   35.8955   37.3027 H   0  0  0  0  0  0  0  0  0  0  0  0
   45.9808   34.4160   40.0401 H   0  0  0  0  0  0  0  0  0  0  0  0
   45.4729   34.5589   44.9124 H   0  0  0  0  0  0  0  0  0  0  0  0
   48.3974   34.2874   40.2971 H   0  0  0  0  0  0  0  0  0  0  0  0
   48.5546   36.7938   42.1431 H   0  0  0  0  0  0  0  0  0  0  0  0
   49.7030   36.4263   40.6949 H   0  0  0  0  0  0  0  0  0  0  0  0
   49.4438   34.7412   43.2736 H   0  0  0  0  0  0  0  0  0  0  0  0
   50.4909   34.3497   41.8184 H   0  0  0  0  0  0  0  0  0  0  0  0
   39.2654   31.1387   34.2766 C   0  0  0  0  0  0  0  0  0  0  0  0
   38.3171   31.3561   34.8085 H   0  0  0  0  0  0  0  0  0  0  0  0
   39.8992   29.8557   34.6865 C   0  0  0  0  0  0  0  0  0  0  0  0
   40.1991   28.9711   33.4703 C   0  0  0  0  0  0  0  0  0  0  0  0
   41.1767   29.2522   33.0007 H   0  0  0  0  0  0  0  0  0  0  0  0
   39.0867   29.0001   35.6112 C   0  0  0  0  0  0  0  0  0  0  0  0
   39.5841   29.1661   36.9372 N   0  0  0  0  0  0  0  0  0  0  0  0
   39.5509   29.3688   38.3420 C   0  0  0  0  0  0  0  0  0  0  0  0
   38.7436   29.1602   39.2940 O   0  0  0  0  0  0  0  0  0  0  0  0
   40.9107   29.9563   38.2651 C   0  0  1  0  0  0  0  0  0  0  0  0
   41.0052   29.1069   37.0217 C   0  0  2  0  0  0  0  0  0  0  0  0
   41.4904   30.0620   35.5354 S   0  0  0  0  0  0  0  0  0  0  0  0
   39.9865   31.9829   34.2822 H   0  0  0  0  0  0  0  0  0  0  0  0
   38.9627   31.0411   33.1927 H   0  0  0  0  0  0  0  0  0  0  0  0
   40.3411   27.9081   33.8011 H   0  0  0  0  0  0  0  0  0  0  0  0
   39.3893   28.9617   32.7382 H   0  0  0  0  0  0  0  0  0  0  0  0
   39.0737   27.9317   35.3437 H   0  0  0  0  0  0  0  0  0  0  0  0
   38.0430   29.3606   35.5166 H   0  0  0  0  0  0  0  0  0  0  0  0
   41.5026   29.6048   39.1232 H   0  0  0  0  0  0  0  0  0  0  0  0
   41.5087   28.1549   37.1322 H   0  0  0  0  0  0  0  0  0  0  0  0
  1  6  1  0
  1  2  1  0
  2  3  1  0
  2  9  1  0
  4  3  1  0
  5  6  1  0
  5  4  1  0
  7  1  1  0
  8  5  1  0
  9 10  1  0
 10 15  1  0
 11 10  2  0
 11 12  1  0
 12 13  2  0
 13 14  1  0
 15 14  2  0
 16 17  1  0
 16 12  1  0
 16 18  1  0
 17 18  1  0
 19 20  1  0
 19  6  1  0
 21 20  2  0
  1 22  1  6
  2 23  1  6
  4 24  1  0
  4 25  1  0
  5 26  1  1
  6 27  1  1
  7 28  1  0
  8 29  1  0
 11 30  1  0
 14 31  1  0
 16 32  1  0
 17 33  1  0
 17 34  1  0
 18 35  1  0
 18 36  1  0
 37 38  1  0
 37 39  1  0
 39 40  1  0
 40 41  1  0
 39 42  1  0
 42 43  1  0
 43 44  1  0
 44 45  2  0
 44 46  1  0
 46 47  1  0
 47 48  1  0
 48 39  1  0
 47 43  1  0
 37 49  1  0
 37 50  1  0
 40 51  1  0
 40 52  1  0
 42 53  1  0
 42 54  1  0
 46 55  1  1
 47 56  1  1
 20 46  1  0
M  ISO  8  22  13  23  13  24  13  25  13  26  13  27  13  28   3  29   3
M  ISO  8  30  14  31  14  32  13  33  13  34  13  35  13  36  13  38   8
M  ISO  1  41   8
M  END
>  <DihAtoms>  (1) 
18,19,45,43

>  <DihDeg>  (1) 
-179.7958717514526

$$$$
