REMARK  Name = 
REMARK  10 active torsions:
REMARK  status: ('A' for Active; 'I' for Inactive)
REMARK    1  A    between atoms: C_1  and  O_7
REMARK    2  A    between atoms: C_2  and  O_9
REMARK    3  A    between atoms: C_5  and  O_8
REMARK    4  A    between atoms: C_6  and  O_19
REMARK    5  A    between atoms: O_9  and  C_10
REMARK    6  A    between atoms: C_12  and  C_16
REMARK    7  A    between atoms: O_19  and  C_20
REMARK    8  A    between atoms: C_20  and  C_46
REMARK    9  A    between atoms: C_37  and  C_39
REMARK   10  A    between atoms: C_39  and  C_40
REMARK                            x       y       z     vdW  Elec       q    Type
REMARK                         _______ _______ _______ _____ _____    ______ ____
ROOT
ATOM      1  C   UNL     1      42.829  34.481  38.778  0.00  0.00    +0.000 C 
ATOM      2  C   UNL     1      42.951  35.162  40.136  0.00  0.00    +0.000 C 
ATOM      3  O   UNL     1      41.654  35.375  40.641  0.00  0.00    +0.000 OA
ATOM      4  C   UNL     1      40.737  35.700  39.641  0.00  0.00    +0.000 C 
ATOM      5  C   UNL     1      40.448  34.519  38.734  0.00  0.00    +0.000 C 
ATOM      6  C   UNL     1      41.670  33.543  38.880  0.00  0.00    +0.000 C 
ATOM      7  H   UNL     1      43.729  33.866  38.562  0.00  0.00    +0.000 HD
ATOM      8  H   UNL     1      43.528  36.088  40.108  0.00  0.00    +0.000 HD
ATOM      9  H   UNL     1      41.018  36.607  39.069  0.00  0.00    +0.000 HD
ATOM     10  H   UNL     1      39.806  35.948  40.166  0.00  0.00    +0.000 HD
ATOM     11  H   UNL     1      39.519  33.984  38.993  0.00  0.00    +0.000 HD
ATOM     12  H   UNL     1      41.449  33.246  39.955  0.00  0.00    +0.000 HD
ENDROOT
BRANCH   1  13
ATOM     13  O   UNL     1      42.614  35.426  37.767  0.00  0.00    +0.000 OA
ATOM     14  H   UNL     1      43.286  35.403  37.056  0.00  0.00    +0.000 HD
ENDBRANCH   1  13
BRANCH   5  15
ATOM     15  O   UNL     1      40.471  34.937  37.410  0.00  0.00    +0.000 OA
ATOM     16  H   UNL     1      40.354  35.895  37.303  0.00  0.00    +0.000 HD
ENDBRANCH   5  15
BRANCH   2  17
ATOM     17  O   UNL     1      43.488  34.180  40.990  0.00  0.00    +0.000 OA
BRANCH  17  18
ATOM     18  C   UNL     1      44.601  34.332  41.716  0.00  0.00    +0.000 A 
ATOM     19  C   UNL     1      45.858  34.446  41.104  0.00  0.00    +0.000 A 
ATOM     20  C   UNL     1      46.975  34.603  41.909  0.00  0.00    +0.000 A 
ATOM     21  N   UNL     1      46.821  34.642  43.282  0.00  0.00    +0.000 NA
ATOM     22  C   UNL     1      45.592  34.528  43.839  0.00  0.00    +0.000 A 
ATOM     23  N   UNL     1      44.490  34.374  43.061  0.00  0.00    +0.000 NA
ATOM     24  H   UNL     1      45.981  34.416  40.040  0.00  0.00    +0.000 HD
ATOM     25  H   UNL     1      45.473  34.559  44.912  0.00  0.00    +0.000 HD
BRANCH  20  26
ATOM     26  C   UNL     1      48.349  34.712  41.333  0.00  0.00    +0.000 C 
ATOM     27  C   UNL     1      49.066  36.050  41.516  0.00  0.00    +0.000 C 
ATOM     28  C   UNL     1      49.506  34.722  42.167  0.00  0.00    +0.000 C 
ATOM     29  H   UNL     1      48.397  34.287  40.297  0.00  0.00    +0.000 HD
ATOM     30  H   UNL     1      48.555  36.794  42.143  0.00  0.00    +0.000 HD
ATOM     31  H   UNL     1      49.703  36.426  40.695  0.00  0.00    +0.000 HD
ATOM     32  H   UNL     1      49.444  34.741  43.274  0.00  0.00    +0.000 HD
ATOM     33  H   UNL     1      50.491  34.350  41.818  0.00  0.00    +0.000 HD
ENDBRANCH  20  26
ENDBRANCH  17  18
ENDBRANCH   2  17
BRANCH   6  34
ATOM     34  O   UNL     1      41.559  32.609  37.914  0.00  0.00    +0.000 OA
BRANCH  34  35
ATOM     35  C   UNL     1      40.920  31.418  37.966  0.00  0.00    +0.000 C 
ATOM     36  O   UNL     1      39.667  31.295  37.606  0.00  0.00    +0.000 OA
BRANCH  35  42
ATOM     37  C   UNL     1      39.139  31.212  41.286  0.00  0.00    +0.000 C 
ATOM     38  C   UNL     1      40.222  30.208  41.543  0.00  0.00    +0.000 C 
ATOM     39  N   UNL     1      40.811  29.846  40.296  0.00  0.00    +0.000 N 
ATOM     40  C   UNL     1      41.836  29.562  39.355  0.00  0.00    +0.000 C 
ATOM     41  O   UNL     1      43.032  29.150  39.378  0.00  0.00    +0.000 OA
ATOM     42  C   UNL     1      40.911  29.956  38.265  0.00  0.00    +0.000 C 
ATOM     43  C   UNL     1      39.856  29.576  39.274  0.00  0.00    +0.000 C 
ATOM     44  S   UNL     1      38.632  30.907  39.570  0.00  0.00    +0.000 S 
BRANCH  37  45
ATOM     45  C   UNL     1      39.500  32.630  41.563  0.00  0.00    +0.000 C 
ATOM     46  H   UNL     1      40.571  32.776  41.810  0.00  0.00    +0.000 HD
ENDBRANCH  37  45
BRANCH  37  47
ATOM     47  C   UNL     1      37.953  30.762  42.147  0.00  0.00    +0.000 C 
ATOM     48  H   UNL     1      36.980  31.055  41.674  0.00  0.00    +0.000 HD
ENDBRANCH  37  47
ENDBRANCH  35  42
ENDBRANCH  34  35
ENDBRANCH   6  34
TORSDOF 10
