
 OpenBabel03242518553D

 45 48  0  0  1  0  0  0  0  0999 V2000
   45.8330   31.2750   46.5780 C   0  0  2  0  0  0  0  0  0  0  0  0
   45.8810   30.5150   47.8650 C   0  0  0  0  0  0  0  0  0  0  0  0
   45.1520   29.2340   47.6390 C   0  0  0  0  0  0  0  0  0  0  0  0
   44.5150   29.0770   46.3040 C   0  0  0  0  0  0  0  0  0  0  0  0
   45.5300   29.2720   45.2110 C   0  0  0  0  0  0  0  0  0  0  0  0
   46.4040   30.4060   45.4750 C   0  0  2  0  0  0  0  0  0  0  0  0
   44.7740   31.4230   46.2840 H   0  0  0  0  0  0  0  0  0  0  0  0
   46.8840   30.3660   48.2800 H   0  0  0  0  0  0  0  0  0  0  0  0
   45.3600   31.1650   48.6360 H   0  0  0  0  0  0  0  0  0  0  0  0
   45.7390   28.3120   47.8850 H   0  0  0  0  0  0  0  0  0  0  0  0
   44.3070   29.1970   48.3860 H   0  0  0  0  0  0  0  0  0  0  0  0
   44.1270   28.0300   46.2600 H   0  0  0  0  0  0  0  0  0  0  0  0
   43.6080   29.7250   46.1750 H   0  0  0  0  0  0  0  0  0  0  0  0
   45.9850   28.2870   45.0060 H   0  0  0  0  0  0  0  0  0  0  0  0
   44.9290   29.4940   44.2810 H   0  0  0  0  0  0  0  0  0  0  0  0
   46.5620   31.0320   44.5940 H   0  0  0  0  0  0  0  0  0  0  0  0
   47.7110   29.8270   45.8960 C   0  0  0  0  0  0  0  0  0  0  0  0
   47.6600   29.1180   46.7430 H   0  0  0  0  0  0  0  0  0  0  0  0
   48.3610   30.6750   46.2090 H   0  0  0  0  0  0  0  0  0  0  0  0
   52.1080   28.1420   43.8110 C   0  0  0  0  0  0  0  0  0  0  0  0
   51.7770   29.6040   43.9970 C   0  0  0  0  0  2  0  0  0  0  0  0
   50.3370   29.7440   43.9840 N   0  0  0  0  0  0  0  0  0  0  0  0
   48.9690   30.0490   43.7340 C   0  0  0  0  0  0  0  0  0  0  0  0
   48.4530   30.8650   42.9000 O   0  0  0  0  0  0  0  0  0  0  0  0
   48.4310   29.1120   44.7510 C   0  0  1  0  0  3  0  0  0  0  0  0
   49.8830   28.9520   45.1330 C   0  0  1  0  0  3  0  0  0  0  0  0
   50.6370   27.3650   44.5950 S   0  0  0  0  0  0  0  0  0  0  0  0
   53.2960   27.7250   44.6520 C   0  0  0  0  0  2  0  0  0  0  0  0
   54.1310   28.4540   44.6260 H   0  0  0  0  0  0  0  0  0  0  0  0
   52.2580   27.7500   42.3730 C   0  0  0  0  0  2  0  0  0  0  0  0
   52.5910   28.6720   41.8130 H   0  0  0  0  0  0  0  0  0  0  0  0
   46.4660   32.6160   46.6380 C   0  0  0  0  0  0  0  0  0  0  0  0
   47.3660   32.9060   47.4670 O   0  0  0  0  0  0  0  0  0  0  0  0
   44.5880   35.3640   45.1370 C   0  0  0  0  0  0  0  0  0  0  0  0
   45.1180   35.4760   43.8280 C   0  0  0  0  0  0  0  0  0  0  0  0
   46.1280   34.5900   43.4970 C   0  0  0  0  0  0  0  0  0  0  0  0
   46.4800   33.7330   44.4580 N   0  0  0  0  0  0  0  0  0  0  0  0
   45.9930   33.6200   45.6760 C   0  0  0  0  0  0  0  0  0  0  0  0
   45.0130   34.4680   46.0240 N   0  0  0  0  0  0  0  0  0  0  0  0
   43.7850   36.0490   45.4400 H   0  0  0  0  0  0  0  0  0  0  0  0
   44.7240   36.2280   43.1620 H   0  0  0  0  0  0  0  0  0  0  0  0
   46.6730   34.6940   42.1540 C   0  0  0  0  0  0  0  0  0  0  0  0
   47.3640   33.5300   41.8380 F   0  0  0  0  0  0  0  0  0  0  0  0
   47.5430   35.7360   42.1600 F   0  0  0  0  0  0  0  0  0  0  0  0
   45.6810   34.8100   41.1880 F   0  0  0  0  0  0  0  0  0  0  0  0
  1  7  1  6  0  0  0
  1 32  1  0  0  0  0
  1  2  1  0  0  0  0
  2  8  1  0  0  0  0
  2  9  1  0  0  0  0
  3  2  1  0  0  0  0
  3 10  1  0  0  0  0
  3 11  1  0  0  0  0
  4  3  1  0  0  0  0
  5  6  1  0  0  0  0
  5  4  1  0  0  0  0
  6 16  1  6  0  0  0
  6 17  1  0  0  0  0
  6  1  1  0  0  0  0
 12  4  1  0  0  0  0
 13  4  1  0  0  0  0
 14  5  1  0  0  0  0
 15  5  1  0  0  0  0
 17 19  1  0  0  0  0
 17 18  1  0  0  0  0
 20 21  1  0  0  0  0
 20 27  1  0  0  0  0
 20 28  1  0  0  0  0
 22 21  1  0  0  0  0
 22 26  1  0  0  0  0
 23 22  1  0  0  0  0
 23 25  1  0  0  0  0
 24 23  2  0  0  0  0
 25 26  1  0  0  0  0
 25 17  1  1  0  0  0
 26 27  1  6  0  0  0
 29 28  1  0  0  0  0
 30 20  1  0  0  0  0
 31 30  1  0  0  0  0
 32 33  2  0  0  0  0
 34 40  1  0  0  0  0
 34 39  1  0  0  0  0
 35 34  2  0  0  0  0
 36 35  1  0  0  0  0
 36 37  2  0  0  0  0
 37 38  1  0  0  0  0
 38 39  2  0  0  0  0
 38 32  1  0  0  0  0
 41 35  1  0  0  0  0
 42 44  1  0  0  0  0
 42 36  1  0  0  0  0
 43 42  1  0  0  0  0
 45 42  1  0  0  0  0
M  END
>  <minimizedAffinity>
-5.41025734

>  <minimizedRMSD>
0.659122467

$$$$
