
     RDKit          3D

 31 33  0  0  0  0  0  0  0  0999 V2000
   45.2043   35.9731   43.3731 C   0  0  0  0  0  0  0  0  0  0  0  0
   46.0873   34.9126   43.1511 C   0  0  0  0  0  0  0  0  0  0  0  0
   46.2463   33.9585   44.1669 C   0  0  0  0  0  0  0  0  0  0  0  0
   45.5335   34.1170   45.3111 N   0  0  0  0  0  0  0  0  0  0  0  0
   44.6878   35.1508   45.4986 C   0  0  0  0  0  0  0  0  0  0  0  0
   44.5362   36.0590   44.5322 N   0  0  0  0  0  0  0  0  0  0  0  0
   46.8248   34.7834   41.9192 C   0  0  0  0  0  0  0  0  0  0  0  0
   47.9087   35.3986   41.8208 O   0  0  0  0  0  0  0  0  0  0  0  0
   45.0488   36.7305   42.6229 H   0  0  0  0  0  0  0  0  0  0  0  0
   44.1411   35.2306   46.4339 H   0  0  0  0  0  0  0  0  0  0  0  0
   46.2777   34.1304   41.2404 H   0  0  0  0  0  0  0  0  0  0  0  0
   47.1692   32.8177   43.9797 C   0  0  0  0  0  0  0  0  0  0  0  0
   47.7097   32.4201   45.3272 C   0  0  2  0  0  0  0  0  0  0  0  0
   48.4494   33.5426   45.9743 C   0  0  0  0  0  0  0  0  0  0  0  0
   48.7227   34.3125   45.2271 H   0  0  0  0  0  0  0  0  0  0  0  0
   48.6018   31.2144   45.2809 C   0  0  0  0  0  0  0  0  0  0  0  0
   47.7742   30.0491   45.4645 N   0  0  0  0  0  0  0  0  0  0  0  0
   47.1454   28.7756   45.2792 C   0  0  0  0  0  0  0  0  0  0  0  0
   47.4844   27.7902   44.5682 O   0  0  0  0  0  0  0  0  0  0  0  0
   46.0196   29.1128   46.2171 C   0  0  1  0  0  0  0  0  0  0  0  0
   45.1139   29.4697   45.6982 H   0  0  0  0  0  0  0  0  0  0  0  0
   46.9836   30.1761   46.6771 C   0  0  2  0  0  0  0  0  0  0  0  0
   46.3862   31.8819   46.4523 S   0  0  0  0  0  0  0  0  0  0  0  0
   48.0504   33.2189   43.4138 H   0  0  0  0  0  0  0  0  0  0  0  0
   46.7521   31.9814   43.4233 H   0  0  0  0  0  0  0  0  0  0  0  0
   49.4281   33.2044   46.4085 H   0  0  0  0  0  0  0  0  0  0  0  0
   47.8980   33.9757   46.8590 H   0  0  0  0  0  0  0  0  0  0  0  0
   49.0764   31.1783   44.3035 H   0  0  0  0  0  0  0  0  0  0  0  0
   49.3795   31.2566   46.0840 H   0  0  0  0  0  0  0  0  0  0  0  0
   45.8473   28.3530   47.0124 H   0  0  0  0  0  0  0  0  0  0  0  0
   47.5135   29.9867   47.6123 H   0  0  0  0  0  0  0  0  0  0  0  0
  1  6  2  0
  2  1  1  0
  2  3  2  0
  3  4  1  0
  4  5  2  0
  6  5  1  0
  7  2  1  0
  8  7  2  0
  1  9  1  0
  5 10  1  0
  7 11  1  0
 13 12  1  6
 13 14  1  0
 14 15  1  0
 13 16  1  0
 16 17  1  0
 17 18  1  0
 18 19  2  0
 18 20  1  0
 20 21  1  6
 20 22  1  0
 22 23  1  0
 23 13  1  0
 22 17  1  0
 12 24  1  0
 12 25  1  0
 14 26  1  0
 14 27  1  0
 16 28  1  0
 16 29  1  0
 20 30  1  0
 22 31  1  1
  3 12  1  0
M  ISO  5   9  14  10  14  11   6  15   8  21  15
M  END
>  <DihAtoms>  (1) 
1,2,11,12

>  <DihDeg>  (1) 
-179.99274185765947

$$$$
