
 OpenBabel03242514333D

 29 32  0  0  1  0  0  0  0  0999 V2000
   48.3800   34.9520   40.4500 O   0  0  0  0  0  0  0  0  0  0  0  0
   49.4830   35.5340   42.6950 O   0  0  0  0  0  0  0  0  0  0  0  0
   48.9820   34.3730   41.8970 P   0  0  2  0  0  0  0  0  0  0  0  0
   50.2970   33.3720   41.5930 O   0  0  0  0  0  0  0  0  0  0  0  0
   50.4730   33.2210   40.6440 H   0  0  0  0  0  0  0  0  0  0  0  0
   47.7610   33.5300   42.7540 O   0  0  0  0  0  0  0  0  0  0  0  0
   46.1550   35.3030   42.6890 C   0  0  0  0  0  0  0  0  0  0  0  0
   46.7120   34.2240   43.3720 C   0  0  0  0  0  0  0  0  0  0  0  0
   46.2040   33.8870   44.6280 C   0  0  0  0  0  0  0  0  0  0  0  0
   45.1790   34.6430   45.1220 N   0  0  0  0  0  0  0  0  0  0  0  0
   44.6680   35.6700   44.4430 C   0  0  0  0  0  0  0  0  0  0  0  0
   45.1500   35.9960   43.2420 N   0  0  0  0  0  0  0  0  0  0  0  0
   46.4740   35.6460   41.7110 H   0  0  0  0  0  0  0  0  0  0  0  0
   46.6450   33.0470   45.1510 H   0  0  0  0  0  0  0  0  0  0  0  0
   43.8510   36.2760   44.8320 H   0  0  0  0  0  0  0  0  0  0  0  0
   48.0060   34.1840   39.3950 C   0  0  1  0  0  3  0  0  0  0  0  0
   46.8200   33.7080   39.5570 O   0  0  0  0  0  0  0  0  0  0  0  0
   45.8220   31.7340   35.6030 C   0  0  0  0  0  0  0  0  0  0  0  0
   46.5530   30.7990   36.5040 C   0  0  0  0  0  2  0  0  0  0  0  0
   47.3530   31.5830   37.4110 N   0  0  0  0  0  0  0  0  0  0  0  0
   48.4880   32.0780   38.1440 C   0  0  0  0  0  0  0  0  0  0  0  0
   49.5380   31.4480   38.5120 O   0  0  0  0  0  0  0  0  0  0  0  0
   47.7950   33.3930   38.1570 C   0  0  2  0  0  0  0  0  0  0  0  0
   46.5630   32.5580   38.0910 C   0  0  1  0  0  3  0  0  0  0  0  0
   45.4160   33.0940   36.7630 S   0  0  0  0  0  0  0  0  0  0  0  0
   46.5730   32.2020   34.4050 C   0  0  0  0  0  2  0  0  0  0  0  0
   47.6050   32.5220   34.5720 H   0  0  0  0  0  0  0  0  0  0  0  0
   44.5540   31.0450   35.1500 C   0  0  0  0  0  2  0  0  0  0  0  0
   43.8710   31.0600   36.0390 H   0  0  0  0  0  0  0  0  0  0  0  0
  1  3  1  0  0  0  0
  3  2  2  1  0  0  0
  3  6  1  0  0  0  0
  4  3  1  0  0  0  0
  5  4  1  0  0  0  0
  6  8  1  0  0  0  0
  7 12  2  0  0  0  0
  7  8  1  0  0  0  0
  8  9  2  0  0  0  0
  9 10  1  0  0  0  0
  9 14  1  0  0  0  0
 11 15  1  0  0  0  0
 11 10  2  0  0  0  0
 12 11  1  0  0  0  0
 13  7  1  0  0  0  0
 16 17  1  0  0  0  0
 16  1  1  6  0  0  0
 18 19  1  0  0  0  0
 18 25  1  0  0  0  0
 19 20  1  0  0  0  0
 20 24  1  0  0  0  0
 20 21  1  0  0  0  0
 21 22  2  0  0  0  0
 23 21  1  1  0  0  0
 23 16  1  0  0  0  0
 23 17  1  0  0  0  0
 24 25  1  6  0  0  0
 24 23  1  0  0  0  0
 26 27  1  0  0  0  0
 26 18  1  0  0  0  0
 28 18  1  0  0  0  0
 28 29  1  0  0  0  0
M  END
>  <minimizedAffinity>
-4.86105442

>  <minimizedRMSD>
0.508437991

$$$$
