
 OpenBabel03242513113D

 23 26  0  0  1  0  0  0  0  0999 V2000
   45.2420   30.1390   47.9220 C   0  0  0  0  0  0  0  0  0  0  0  0
   44.6790   29.6830   46.6100 C   0  0  0  0  0  2  0  0  0  0  0  0
   45.5120   30.2040   45.5660 N   0  0  2  0  0  0  0  0  0  0  0  0
   45.8730   30.8190   44.3360 C   0  0  1  0  0  0  0  0  0  0  0  0
   45.4080   30.9490   43.1590 O   0  0  0  0  0  1  0  0  0  0  0  0
   47.1040   31.3000   44.9830 C   0  0  2  0  0  3  0  0  0  0  0  0
   46.9050   30.0730   45.8150 C   0  0  1  0  0  0  0  0  0  0  0  0
   47.0190   30.3150   47.6010 S   0  0  0  0  0  0  0  0  0  0  0  0
   46.8780   32.5870   45.6950 C   0  0  0  0  0  0  0  0  0  0  0  0
   47.3550   32.5980   46.8560 O   0  0  0  0  0  0  0  0  0  0  0  0
   44.5490   35.3390   45.3750 C   0  0  0  0  0  0  0  0  0  0  0  0
   44.7750   35.8480   44.0730 C   0  0  0  0  0  0  0  0  0  0  0  0
   45.7620   35.2040   43.3120 C   0  0  0  0  0  0  0  0  0  0  0  0
   46.4350   34.1450   43.8570 N   0  0  0  0  0  0  0  0  0  0  0  0
   46.1730   33.7120   45.0960 C   0  0  0  0  0  0  0  0  0  0  0  0
   45.2300   34.3060   45.8630 N   0  0  0  0  0  0  0  0  0  0  0  0
   43.7930   35.7990   46.0160 H   0  0  0  0  0  0  0  0  0  0  0  0
   44.1940   36.6840   43.7360 H   0  0  0  0  0  0  0  0  0  0  0  0
   45.9530   35.5720   42.3170 H   0  0  0  0  0  0  0  0  0  0  0  0
   44.6100   31.3550   48.5020 C   0  0  0  0  0  2  0  0  0  0  0  0
   45.3550   31.8530   49.1890 H   0  0  0  0  0  0  0  0  0  0  0  0
   45.1030   28.9440   48.8740 C   0  0  0  0  0  2  0  0  0  0  0  0
   46.0020   28.8360   49.5270 H   0  0  0  0  0  0  0  0  0  0  0  0
  1 20  1  0  0  0  0
  1 22  1  0  0  0  0
  2  1  1  0  0  0  0
  3  7  1  0  0  0  0
  3  2  1  6  0  0  0
  4  5  1  6  0  0  0
  4  6  1  0  0  0  0
  4  3  1  0  0  0  0
  4  7  1  0  0  0  0
  6  9  1  1  0  0  0
  6  7  1  0  0  0  0
  7  8  1  1  0  0  0
  8  1  1  0  0  0  0
  9 10  2  0  0  0  0
 11 16  1  0  0  0  0
 11 17  1  0  0  0  0
 12 11  2  0  0  0  0
 13 14  2  0  0  0  0
 13 12  1  0  0  0  0
 14 15  1  0  0  0  0
 15  9  1  0  0  0  0
 15 16  2  0  0  0  0
 18 12  1  0  0  0  0
 19 13  1  0  0  0  0
 20 21  1  0  0  0  0
 22 23  1  0  0  0  0
M  END
>  <minimizedAffinity>
-4.25665951

>  <minimizedRMSD>
1.78218305

$$$$
