
 OpenBabel03242511353D

 38 41  0  0  1  0  0  0  0  0999 V2000
   37.1780   30.9550   40.8450 C   0  0  0  0  0  0  0  0  0  0  0  0
   36.0440   30.4580   40.1720 C   0  0  0  0  0  0  0  0  0  0  0  0
   35.5510   29.1970   40.5300 C   0  0  0  0  0  0  0  0  0  0  0  0
   36.1990   28.5130   41.5150 N   0  0  0  0  0  0  0  0  0  0  0  0
   37.2780   29.0170   42.1350 C   0  0  0  0  0  0  0  0  0  0  0  0
   37.7570   30.2220   41.8030 N   0  0  0  0  0  0  0  0  0  0  0  0
   35.5400   31.0120   39.3910 H   0  0  0  0  0  0  0  0  0  0  0  0
   34.6790   28.8150   40.0110 H   0  0  0  0  0  0  0  0  0  0  0  0
   37.6680   32.2700   40.4510 C   0  0  0  0  0  3  0  0  0  0  0  0
   38.9770   32.4830   40.4370 C   0  0  0  0  0  3  0  0  0  0  0  0
   39.5530   33.7860   40.0510 C   0  0  0  0  0  0  0  0  0  0  0  0
   39.3860   34.5310   40.8480 H   0  0  0  0  0  0  0  0  0  0  0  0
   39.0740   34.1460   39.1370 H   0  0  0  0  0  0  0  0  0  0  0  0
   42.5000   33.9080   37.9450 C   0  0  1  0  0  0  0  0  0  0  0  0
   41.5480   34.7250   38.8320 C   0  0  0  0  0  0  0  0  0  0  0  0
   41.0450   33.6600   39.7400 C   0  0  2  0  0  0  0  0  0  0  0  0
   41.3520   32.4390   39.2130 O   0  0  0  0  0  0  0  0  0  0  0  0
   41.7740   32.5790   37.9210 C   0  0  0  0  0  0  0  0  0  0  0  0
   43.4850   33.8340   38.4360 H   0  0  0  0  0  0  0  0  0  0  0  0
   40.7070   35.0200   38.1680 H   0  0  0  0  0  0  0  0  0  0  0  0
   42.0590   35.5730   39.3210 H   0  0  0  0  0  0  0  0  0  0  0  0
   41.5570   33.7830   40.7350 H   0  0  0  0  0  0  0  0  0  0  0  0
   42.5000   31.7720   37.6530 H   0  0  0  0  0  0  0  0  0  0  0  0
   40.9460   32.6460   37.2090 H   0  0  0  0  0  0  0  0  0  0  0  0
   42.5730   34.4950   36.6840 O   0  0  0  0  0  0  0  0  0  0  0  0
   41.8790   34.1670   36.0780 H   0  0  0  0  0  0  0  0  0  0  0  0
   37.9920   28.3050   43.1980 C   0  0  0  0  0  2  0  0  0  0  0  0
   39.1750   27.5190   42.6820 C   0  0  1  0  0  0  0  0  0  0  0  0
   38.9940   26.0320   42.9000 C   0  0  0  0  0  2  0  0  0  0  0  0
   38.2290   25.5040   41.8010 N   0  0  0  0  0  0  0  0  0  0  0  0
   37.2240   24.8630   41.0020 C   0  0  0  0  0  0  0  0  0  0  0  0
   36.2830   24.0740   41.2750 O   0  0  0  0  0  0  0  0  0  0  0  0
   37.7180   25.4840   39.7450 C   0  0  0  0  0  3  0  0  0  0  0  0
   37.1940   26.4050   39.4310 H   0  0  0  0  0  0  0  0  0  0  0  0
   38.9310   25.7990   40.5580 C   0  0  1  0  0  3  0  0  0  0  0  0
   39.2340   27.5860   40.8470 S   0  0  0  0  0  0  0  0  0  0  0  0
   40.4980   28.0050   43.1740 C   0  0  0  0  0  2  0  0  0  0  0  0
   40.7940   28.9210   42.6430 H   0  0  0  0  0  0  0  0  0  0  0  0
  1  6  1  0  0  0  0
  2  3  1  0  0  0  0
  2  1  2  0  0  0  0
  3  4  2  0  0  0  0
  4  5  1  0  0  0  0
  5 27  1  0  0  0  0
  6  5  2  0  0  0  0
  7  2  1  0  0  0  0
  8  3  1  0  0  0  0
  9  1  1  0  0  0  0
 10  9  2  0  0  0  0
 11 10  1  0  0  0  0
 11 12  1  0  0  0  0
 13 11  1  0  0  0  0
 14 19  1  1  0  0  0
 14 15  1  0  0  0  0
 15 21  1  0  0  0  0
 15 16  1  0  0  0  0
 16 11  1  0  0  0  0
 16 22  1  1  0  0  0
 17 16  1  0  0  0  0
 18 14  1  0  0  0  0
 18 17  1  0  0  0  0
 20 15  1  0  0  0  0
 23 18  1  0  0  0  0
 24 18  1  0  0  0  0
 25 14  1  0  0  0  0
 26 25  1  0  0  0  0
 28 29  1  0  0  0  0
 28 37  1  1  0  0  0
 28 27  1  0  0  0  0
 30 29  1  0  0  0  0
 31 32  2  0  0  0  0
 31 30  1  0  0  0  0
 33 31  1  0  0  0  0
 34 33  1  0  0  0  0
 35 33  1  6  0  0  0
 35 36  1  0  0  0  0
 35 30  1  0  0  0  0
 36 28  1  0  0  0  0
 38 37  1  0  0  0  0
M  END
>  <minimizedAffinity>
-6.24431515

$$$$

 OpenBabel03242511353D

 38 41  0  0  1  0  0  0  0  0999 V2000
   37.0210   30.9630   40.7640 C   0  0  0  0  0  0  0  0  0  0  0  0
   35.9270   30.5460   39.9810 C   0  0  0  0  0  0  0  0  0  0  0  0
   35.3450   29.3010   40.2500 C   0  0  0  0  0  0  0  0  0  0  0  0
   35.8710   28.5540   41.2620 N   0  0  0  0  0  0  0  0  0  0  0  0
   36.9160   28.9830   41.9890 C   0  0  0  0  0  0  0  0  0  0  0  0
   37.4790   30.1710   41.7410 N   0  0  0  0  0  0  0  0  0  0  0  0
   35.5190   31.1500   39.1800 H   0  0  0  0  0  0  0  0  0  0  0  0
   34.5030   28.9800   39.6460 H   0  0  0  0  0  0  0  0  0  0  0  0
   37.6060   32.2640   40.4600 C   0  0  0  0  0  3  0  0  0  0  0  0
   38.9230   32.3550   40.3390 C   0  0  0  0  0  3  0  0  0  0  0  0
   39.5920   33.6350   40.0330 C   0  0  0  0  0  0  0  0  0  0  0  0
   39.5190   34.3220   40.8930 H   0  0  0  0  0  0  0  0  0  0  0  0
   39.1130   34.1070   39.1720 H   0  0  0  0  0  0  0  0  0  0  0  0
   42.4730   33.7470   37.8360 C   0  0  1  0  0  0  0  0  0  0  0  0
   41.6290   34.5320   38.8530 C   0  0  0  0  0  0  0  0  0  0  0  0
   41.0560   33.4140   39.6480 C   0  0  2  0  0  0  0  0  0  0  0  0
   41.2310   32.2440   38.9680 O   0  0  0  0  0  0  0  0  0  0  0  0
   41.6250   32.5020   37.6850 C   0  0  0  0  0  0  0  0  0  0  0  0
   43.4620   33.5260   38.2740 H   0  0  0  0  0  0  0  0  0  0  0  0
   40.8010   34.9810   38.2640 H   0  0  0  0  0  0  0  0  0  0  0  0
   42.2330   35.2650   39.4180 H   0  0  0  0  0  0  0  0  0  0  0  0
   41.6070   33.3690   40.6290 H   0  0  0  0  0  0  0  0  0  0  0  0
   42.2640   31.6710   37.2930 H   0  0  0  0  0  0  0  0  0  0  0  0
   40.7860   32.7290   37.0200 H   0  0  0  0  0  0  0  0  0  0  0  0
   42.5640   34.4750   36.6520 O   0  0  0  0  0  0  0  0  0  0  0  0
   41.8240   34.2870   36.0400 H   0  0  0  0  0  0  0  0  0  0  0  0
   37.5010   28.2020   43.0820 C   0  0  0  0  0  2  0  0  0  0  0  0
   38.3380   27.0440   42.5910 C   0  0  1  0  0  0  0  0  0  0  0  0
   39.1800   27.4330   41.3960 C   0  0  0  0  0  2  0  0  0  0  0  0
   40.3940   28.0400   41.8760 N   0  0  0  0  0  0  0  0  0  0  0  0
   41.4740   28.9490   42.1300 C   0  0  0  0  0  0  0  0  0  0  0  0
   41.8560   30.0080   41.5710 O   0  0  0  0  0  0  0  0  0  0  0  0
   41.9620   28.1640   43.2950 C   0  0  0  0  0  3  0  0  0  0  0  0
   41.6100   28.5120   44.2830 H   0  0  0  0  0  0  0  0  0  0  0  0
   41.0760   27.0920   42.7490 C   0  0  1  0  0  3  0  0  0  0  0  0
   39.6490   26.6430   43.8130 S   0  0  0  0  0  0  0  0  0  0  0  0
   37.5690   25.7860   42.3550 C   0  0  0  0  0  2  0  0  0  0  0  0
   37.3320   25.2940   43.3090 H   0  0  0  0  0  0  0  0  0  0  0  0
  1  6  1  0  0  0  0
  2  3  1  0  0  0  0
  2  1  2  0  0  0  0
  3  4  2  0  0  0  0
  4  5  1  0  0  0  0
  5 27  1  0  0  0  0
  6  5  2  0  0  0  0
  7  2  1  0  0  0  0
  8  3  1  0  0  0  0
  9  1  1  0  0  0  0
 10  9  2  0  0  0  0
 11 10  1  0  0  0  0
 11 12  1  0  0  0  0
 13 11  1  0  0  0  0
 14 19  1  1  0  0  0
 14 15  1  0  0  0  0
 15 21  1  0  0  0  0
 15 16  1  0  0  0  0
 16 11  1  0  0  0  0
 16 22  1  1  0  0  0
 17 16  1  0  0  0  0
 18 14  1  0  0  0  0
 18 17  1  0  0  0  0
 20 15  1  0  0  0  0
 23 18  1  0  0  0  0
 24 18  1  0  0  0  0
 25 14  1  0  0  0  0
 26 25  1  0  0  0  0
 28 37  1  6  0  0  0
 28 27  1  0  0  0  0
 28 36  1  0  0  0  0
 29 30  1  0  0  0  0
 29 28  1  0  0  0  0
 30 31  1  0  0  0  0
 30 35  1  0  0  0  0
 31 33  1  0  0  0  0
 32 31  2  0  0  0  0
 33 34  1  0  0  0  0
 35 33  1  1  0  0  0
 35 36  1  0  0  0  0
 37 38  1  0  0  0  0
M  END
>  <minimizedAffinity>
-6.14829826

$$$$

 OpenBabel03242511353D

 38 41  0  0  1  0  0  0  0  0999 V2000
   37.2820   27.9010   38.2680 C   0  0  0  0  0  0  0  0  0  0  0  0
   36.4460   27.6900   37.1530 C   0  0  0  0  0  0  0  0  0  0  0  0
   36.1350   28.7800   36.3310 C   0  0  0  0  0  0  0  0  0  0  0  0
   36.6600   29.9960   36.6560 N   0  0  0  0  0  0  0  0  0  0  0  0
   37.4530   30.1620   37.7260 C   0  0  0  0  0  0  0  0  0  0  0  0
   37.7580   29.1270   38.5190 N   0  0  0  0  0  0  0  0  0  0  0  0
   36.0360   26.7180   36.9080 H   0  0  0  0  0  0  0  0  0  0  0  0
   35.4920   28.6170   35.4740 H   0  0  0  0  0  0  0  0  0  0  0  0
   37.5880   26.7480   39.1060 C   0  0  0  0  0  3  0  0  0  0  0  0
   37.0160   26.6590   40.2990 C   0  0  0  0  0  3  0  0  0  0  0  0
   37.2750   25.5240   41.2060 C   0  0  0  0  0  0  0  0  0  0  0  0
   38.2170   25.0190   40.9320 H   0  0  0  0  0  0  0  0  0  0  0  0
   36.4610   24.7980   41.1330 H   0  0  0  0  0  0  0  0  0  0  0  0
   37.4840   27.9470   43.8940 C   0  0  1  0  0  0  0  0  0  0  0  0
   36.5450   27.2270   42.9130 C   0  0  0  0  0  0  0  0  0  0  0  0
   37.3170   25.9820   42.6650 C   0  0  2  0  0  0  0  0  0  0  0  0
   38.5980   26.1510   43.1070 O   0  0  0  0  0  0  0  0  0  0  0  0
   38.8270   27.4700   43.3810 C   0  0  0  0  0  0  0  0  0  0  0  0
   37.2820   27.5940   44.9200 H   0  0  0  0  0  0  0  0  0  0  0  0
   36.5760   27.8300   41.9800 H   0  0  0  0  0  0  0  0  0  0  0  0
   35.5320   27.0910   43.3310 H   0  0  0  0  0  0  0  0  0  0  0  0
   36.8250   25.1480   43.2410 H   0  0  0  0  0  0  0  0  0  0  0  0
   39.5870   27.5770   44.1950 H   0  0  0  0  0  0  0  0  0  0  0  0
   39.0870   28.0510   42.4910 H   0  0  0  0  0  0  0  0  0  0  0  0
   37.3240   29.3240   43.7600 O   0  0  0  0  0  0  0  0  0  0  0  0
   37.9060   29.7030   43.0720 H   0  0  0  0  0  0  0  0  0  0  0  0
   38.0310   31.4560   38.0980 C   0  0  0  0  0  2  0  0  0  0  0  0
   37.7400   31.8370   39.5300 C   0  0  1  0  0  0  0  0  0  0  0  0
   38.9500   31.6370   40.4170 C   0  0  0  0  0  2  0  0  0  0  0  0
   39.7770   32.8120   40.3260 N   0  0  0  0  0  0  0  0  0  0  0  0
   40.8720   33.7140   40.1180 C   0  0  0  0  0  0  0  0  0  0  0  0
   42.1100   33.5440   39.9730 O   0  0  0  0  0  0  0  0  0  0  0  0
   39.9910   34.9110   40.1400 C   0  0  0  0  0  3  0  0  0  0  0  0
   39.6680   35.2820   39.1500 H   0  0  0  0  0  0  0  0  0  0  0  0
   38.9870   33.9710   40.7220 C   0  0  1  0  0  3  0  0  0  0  0  0
   37.5150   33.6550   39.6720 S   0  0  0  0  0  0  0  0  0  0  0  0
   36.5130   31.2050   40.0980 C   0  0  0  0  0  2  0  0  0  0  0  0
   35.6100   31.7020   39.7150 H   0  0  0  0  0  0  0  0  0  0  0  0
  1  6  1  0  0  0  0
  1  9  1  0  0  0  0
  2  1  2  0  0  0  0
  3  4  2  0  0  0  0
  3  2  1  0  0  0  0
  4  5  1  0  0  0  0
  5 27  1  0  0  0  0
  5  6  2  0  0  0  0
  7  2  1  0  0  0  0
  8  3  1  0  0  0  0
  9 10  2  0  0  0  0
 10 11  1  0  0  0  0
 11 16  1  0  0  0  0
 12 11  1  0  0  0  0
 13 11  1  0  0  0  0
 14 19  1  1  0  0  0
 15 21  1  0  0  0  0
 15 14  1  0  0  0  0
 16 15  1  0  0  0  0
 16 17  1  0  0  0  0
 16 22  1  1  0  0  0
 17 18  1  0  0  0  0
 18 14  1  0  0  0  0
 18 23  1  0  0  0  0
 20 15  1  0  0  0  0
 24 18  1  0  0  0  0
 25 14  1  0  0  0  0
 26 25  1  0  0  0  0
 28 27  1  6  0  0  0
 28 36  1  0  0  0  0
 28 37  1  0  0  0  0
 28 29  1  0  0  0  0
 30 29  1  0  0  0  0
 30 35  1  0  0  0  0
 31 33  1  0  0  0  0
 31 30  1  0  0  0  0
 32 31  2  0  0  0  0
 33 35  1  0  0  0  0
 34 33  1  0  0  0  0
 35 36  1  6  0  0  0
 38 37  1  0  0  0  0
M  END
>  <minimizedAffinity>
-5.83557653

$$$$

 OpenBabel03242511353D

 38 41  0  0  1  0  0  0  0  0999 V2000
   37.4640   29.9690   39.4920 C   0  0  0  0  0  0  0  0  0  0  0  0
   36.0700   29.8260   39.6360 C   0  0  0  0  0  0  0  0  0  0  0  0
   35.5440   28.5450   39.8380 C   0  0  0  0  0  0  0  0  0  0  0  0
   36.4140   27.4960   39.8830 N   0  0  0  0  0  0  0  0  0  0  0  0
   37.7380   27.6670   39.7400 C   0  0  0  0  0  0  0  0  0  0  0  0
   38.2530   28.8880   39.5480 N   0  0  0  0  0  0  0  0  0  0  0  0
   35.3910   30.6690   39.5980 H   0  0  0  0  0  0  0  0  0  0  0  0
   34.4710   28.4360   39.9490 H   0  0  0  0  0  0  0  0  0  0  0  0
   37.9840   31.3150   39.2820 C   0  0  0  0  0  3  0  0  0  0  0  0
   39.1170   31.6590   39.8770 C   0  0  0  0  0  3  0  0  0  0  0  0
   39.7080   33.0020   39.7170 C   0  0  0  0  0  0  0  0  0  0  0  0
   39.5790   33.5920   40.6400 H   0  0  0  0  0  0  0  0  0  0  0  0
   39.2110   33.5300   38.8990 H   0  0  0  0  0  0  0  0  0  0  0  0
   42.6110   33.5490   37.6170 C   0  0  1  0  0  0  0  0  0  0  0  0
   41.7080   34.1520   38.7040 C   0  0  0  0  0  0  0  0  0  0  0  0
   41.1870   32.9130   39.3400 C   0  0  2  0  0  0  0  0  0  0  0  0
   41.4410   31.8490   38.5240 O   0  0  0  0  0  0  0  0  0  0  0  0
   41.8390   32.2870   37.2920 C   0  0  0  0  0  0  0  0  0  0  0  0
   43.6040   33.3300   38.0470 H   0  0  0  0  0  0  0  0  0  0  0  0
   40.8640   34.6250   38.1570 H   0  0  0  0  0  0  0  0  0  0  0  0
   42.2590   34.8410   39.3690 H   0  0  0  0  0  0  0  0  0  0  0  0
   41.7250   32.7750   40.3200 H   0  0  0  0  0  0  0  0  0  0  0  0
   42.5310   31.5490   36.8160 H   0  0  0  0  0  0  0  0  0  0  0  0
   40.9990   32.5500   36.6430 H   0  0  0  0  0  0  0  0  0  0  0  0
   42.6780   34.4240   36.5350 O   0  0  0  0  0  0  0  0  0  0  0  0
   41.9600   34.2740   35.8880 H   0  0  0  0  0  0  0  0  0  0  0  0
   38.6950   26.5590   39.7860 C   0  0  0  0  0  2  0  0  0  0  0  0
   38.8700   25.9940   41.1750 C   0  0  1  0  0  0  0  0  0  0  0  0
   39.9090   26.7630   41.9630 C   0  0  0  0  0  2  0  0  0  0  0  0
   39.2690   27.9040   42.5630 N   0  0  0  0  0  0  0  0  0  0  0  0
   38.9100   29.2370   42.9540 C   0  0  0  0  0  0  0  0  0  0  0  0
   39.5010   30.3440   42.8740 O   0  0  0  0  0  0  0  0  0  0  0  0
   37.5880   28.8090   43.4820 C   0  0  0  0  0  3  0  0  0  0  0  0
   36.7380   28.9240   42.7860 H   0  0  0  0  0  0  0  0  0  0  0  0
   38.1730   27.4360   43.4030 C   0  0  1  0  0  3  0  0  0  0  0  0
   37.3720   26.3170   42.1880 S   0  0  0  0  0  0  0  0  0  0  0  0
   39.1080   24.5210   41.2150 C   0  0  0  0  0  2  0  0  0  0  0  0
   38.1710   23.9740   41.0420 H   0  0  0  0  0  0  0  0  0  0  0  0
  1  6  2  0  0  0  0
  1  2  1  0  0  0  0
  2  3  2  0  0  0  0
  3  4  1  0  0  0  0
  3  8  1  0  0  0  0
  5 27  1  0  0  0  0
  5  4  2  0  0  0  0
  6  5  1  0  0  0  0
  7  2  1  0  0  0  0
  9  1  1  0  0  0  0
  9 10  2  0  0  0  0
 11 10  1  0  0  0  0
 11 12  1  0  0  0  0
 13 11  1  0  0  0  0
 14 19  1  1  0  0  0
 14 15  1  0  0  0  0
 15 16  1  0  0  0  0
 15 21  1  0  0  0  0
 16 11  1  0  0  0  0
 16 22  1  1  0  0  0
 17 16  1  0  0  0  0
 18 14  1  0  0  0  0
 18 17  1  0  0  0  0
 20 15  1  0  0  0  0
 23 18  1  0  0  0  0
 24 18  1  0  0  0  0
 25 14  1  0  0  0  0
 26 25  1  0  0  0  0
 28 27  1  6  0  0  0
 28 37  1  0  0  0  0
 28 29  1  0  0  0  0
 28 36  1  0  0  0  0
 29 30  1  0  0  0  0
 30 31  1  0  0  0  0
 30 35  1  0  0  0  0
 31 33  1  0  0  0  0
 32 31  2  0  0  0  0
 34 33  1  0  0  0  0
 35 36  1  6  0  0  0
 35 33  1  0  0  0  0
 38 37  1  0  0  0  0
M  END
>  <minimizedAffinity>
-5.72816563

$$$$

 OpenBabel03242511353D

 38 41  0  0  1  0  0  0  0  0999 V2000
   36.6510   29.6930   38.6440 C   0  0  0  0  0  0  0  0  0  0  0  0
   35.3910   29.3120   38.1420 C   0  0  0  0  0  0  0  0  0  0  0  0
   35.0170   27.9650   38.2220 C   0  0  0  0  0  0  0  0  0  0  0  0
   35.8970   27.0890   38.7840 N   0  0  0  0  0  0  0  0  0  0  0  0
   37.0900   27.4870   39.2520 C   0  0  0  0  0  0  0  0  0  0  0  0
   37.4590   28.7720   39.1830 N   0  0  0  0  0  0  0  0  0  0  0  0
   34.7020   30.0190   37.6980 H   0  0  0  0  0  0  0  0  0  0  0  0
   34.0470   27.6720   37.8350 H   0  0  0  0  0  0  0  0  0  0  0  0
   37.0140   31.1020   38.5470 C   0  0  0  0  0  3  0  0  0  0  0  0
   37.0260   31.8330   39.6530 C   0  0  0  0  0  3  0  0  0  0  0  0
   37.3810   33.2660   39.6380 C   0  0  0  0  0  0  0  0  0  0  0  0
   36.5120   33.8810   39.9280 H   0  0  0  0  0  0  0  0  0  0  0  0
   37.6920   33.5600   38.6330 H   0  0  0  0  0  0  0  0  0  0  0  0
   40.7770   34.2610   40.4260 C   0  0  1  0  0  0  0  0  0  0  0  0
   39.3450   34.7540   40.1650 C   0  0  0  0  0  0  0  0  0  0  0  0
   38.5680   33.5500   40.5600 C   0  0  2  0  0  0  0  0  0  0  0  0
   39.4120   32.4800   40.6460 O   0  0  0  0  0  0  0  0  0  0  0  0
   40.6220   32.7910   40.0920 C   0  0  0  0  0  0  0  0  0  0  0  0
   41.0320   34.4210   41.4870 H   0  0  0  0  0  0  0  0  0  0  0  0
   39.2650   34.8540   39.0610 H   0  0  0  0  0  0  0  0  0  0  0  0
   39.1160   35.6800   40.7220 H   0  0  0  0  0  0  0  0  0  0  0  0
   38.1070   33.7500   41.5680 H   0  0  0  0  0  0  0  0  0  0  0  0
   41.4430   32.2160   40.5880 H   0  0  0  0  0  0  0  0  0  0  0  0
   40.6330   32.6770   39.0040 H   0  0  0  0  0  0  0  0  0  0  0  0
   41.6540   34.9110   39.5600 O   0  0  0  0  0  0  0  0  0  0  0  0
   41.7500   34.4460   38.7060 H   0  0  0  0  0  0  0  0  0  0  0  0
   38.0550   26.5670   39.8620 C   0  0  0  0  0  2  0  0  0  0  0  0
   37.8170   26.3670   41.3400 C   0  0  1  0  0  0  0  0  0  0  0  0
   39.1010   26.4870   42.1330 C   0  0  0  0  0  2  0  0  0  0  0  0
   39.3310   27.8810   42.4110 N   0  0  0  0  0  0  0  0  0  0  0  0
   39.9030   29.1940   42.4960 C   0  0  0  0  0  0  0  0  0  0  0  0
   41.0650   29.6390   42.3150 O   0  0  0  0  0  0  0  0  0  0  0  0
   38.6080   29.8170   42.8760 C   0  0  0  0  0  3  0  0  0  0  0  0
   38.0330   30.2640   42.0450 H   0  0  0  0  0  0  0  0  0  0  0  0
   38.1820   28.4090   43.1360 C   0  0  1  0  0  3  0  0  0  0  0  0
   36.8620   27.7760   42.0290 S   0  0  0  0  0  0  0  0  0  0  0  0
   37.0600   25.1250   41.6790 C   0  0  0  0  0  2  0  0  0  0  0  0
   35.9900   25.2550   41.4600 H   0  0  0  0  0  0  0  0  0  0  0  0
  1  6  1  0  0  0  0
  2  3  1  0  0  0  0
  2  1  2  0  0  0  0
  3  4  2  0  0  0  0
  4  5  1  0  0  0  0
  5 27  1  0  0  0  0
  6  5  2  0  0  0  0
  7  2  1  0  0  0  0
  8  3  1  0  0  0  0
  9  1  1  0  0  0  0
  9 10  2  0  0  0  0
 11 10  1  0  0  0  0
 11 12  1  0  0  0  0
 11 16  1  0  0  0  0
 13 11  1  0  0  0  0
 14 19  1  1  0  0  0
 15 14  1  0  0  0  0
 15 16  1  0  0  0  0
 15 21  1  0  0  0  0
 16 17  1  0  0  0  0
 16 22  1  1  0  0  0
 18 14  1  0  0  0  0
 18 23  1  0  0  0  0
 18 17  1  0  0  0  0
 20 15  1  0  0  0  0
 24 18  1  0  0  0  0
 25 14  1  0  0  0  0
 26 25  1  0  0  0  0
 28 27  1  6  0  0  0
 28 37  1  0  0  0  0
 28 36  1  0  0  0  0
 28 29  1  0  0  0  0
 29 30  1  0  0  0  0
 30 31  1  0  0  0  0
 30 35  1  0  0  0  0
 31 33  1  0  0  0  0
 32 31  2  0  0  0  0
 33 35  1  0  0  0  0
 34 33  1  0  0  0  0
 35 36  1  6  0  0  0
 38 37  1  0  0  0  0
M  END
>  <minimizedAffinity>
-5.72226381

$$$$

 OpenBabel03242511353D

 38 41  0  0  1  0  0  0  0  0999 V2000
   35.4940   29.3500   40.4090 C   0  0  0  0  0  0  0  0  0  0  0  0
   36.1780   30.5800   40.3430 C   0  0  0  0  0  0  0  0  0  0  0  0
   37.2310   30.8110   41.2370 C   0  0  0  0  0  0  0  0  0  0  0  0
   37.5390   29.8280   42.1290 N   0  0  0  0  0  0  0  0  0  0  0  0
   36.8660   28.6670   42.1650 C   0  0  0  0  0  0  0  0  0  0  0  0
   35.8590   28.4340   41.3150 N   0  0  0  0  0  0  0  0  0  0  0  0
   35.9210   31.3520   39.6280 H   0  0  0  0  0  0  0  0  0  0  0  0
   37.7560   31.7580   41.1860 H   0  0  0  0  0  0  0  0  0  0  0  0
   34.4020   29.1370   39.4660 C   0  0  0  0  0  3  0  0  0  0  0  0
   34.6950   28.7540   38.2310 C   0  0  0  0  0  3  0  0  0  0  0  0
   33.6470   28.5190   37.2180 C   0  0  0  0  0  0  0  0  0  0  0  0
   33.0110   29.4150   37.1060 H   0  0  0  0  0  0  0  0  0  0  0  0
   33.0140   27.6830   37.5260 H   0  0  0  0  0  0  0  0  0  0  0  0
   36.2550   28.3590   34.7050 C   0  0  1  0  0  0  0  0  0  0  0  0
   35.6810   27.7070   35.9720 C   0  0  0  0  0  0  0  0  0  0  0  0
   34.2580   28.1270   35.8720 C   0  0  2  0  0  0  0  0  0  0  0  0
   34.1500   29.1300   34.9530 O   0  0  0  0  0  0  0  0  0  0  0  0
   35.3910   29.6010   34.6250 C   0  0  0  0  0  0  0  0  0  0  0  0
   36.0970   27.6880   33.8440 H   0  0  0  0  0  0  0  0  0  0  0  0
   36.1330   28.2640   36.8210 H   0  0  0  0  0  0  0  0  0  0  0  0
   35.8610   26.6170   35.9980 H   0  0  0  0  0  0  0  0  0  0  0  0
   33.6570   27.2360   35.5330 H   0  0  0  0  0  0  0  0  0  0  0  0
   35.4020   29.9860   33.5760 H   0  0  0  0  0  0  0  0  0  0  0  0
   35.7690   30.3360   35.3420 H   0  0  0  0  0  0  0  0  0  0  0  0
   37.5990   28.6610   34.9100 O   0  0  0  0  0  0  0  0  0  0  0  0
   37.7280   29.5440   35.3090 H   0  0  0  0  0  0  0  0  0  0  0  0
   37.1770   27.5930   43.1120 C   0  0  0  0  0  2  0  0  0  0  0  0
   38.3620   26.7600   42.6830 C   0  0  1  0  0  0  0  0  0  0  0  0
   37.9320   25.4050   42.1650 C   0  0  0  0  0  2  0  0  0  0  0  0
   37.5890   25.5400   40.7740 N   0  0  0  0  0  0  0  0  0  0  0  0
   36.8970   25.5320   39.5170 C   0  0  0  0  0  0  0  0  0  0  0  0
   35.8350   24.9850   39.1240 O   0  0  0  0  0  0  0  0  0  0  0  0
   37.9070   26.4090   38.8680 C   0  0  0  0  0  3  0  0  0  0  0  0
   37.6600   27.4850   38.8480 H   0  0  0  0  0  0  0  0  0  0  0  0
   38.7440   26.0650   40.0570 C   0  0  1  0  0  3  0  0  0  0  0  0
   39.1280   27.4710   41.1730 S   0  0  0  0  0  0  0  0  0  0  0  0
   39.4440   26.6560   43.7070 C   0  0  0  0  0  2  0  0  0  0  0  0
   40.0300   27.5850   43.7440 H   0  0  0  0  0  0  0  0  0  0  0  0
  1  6  1  0  0  0  0
  2  1  2  0  0  0  0
  2  3  1  0  0  0  0
  3  4  2  0  0  0  0
  4  5  1  0  0  0  0
  5 27  1  0  0  0  0
  6  5  2  0  0  0  0
  7  2  1  0  0  0  0
  8  3  1  0  0  0  0
  9  1  1  0  0  0  0
 10  9  2  0  0  0  0
 11 13  1  0  0  0  0
 11 10  1  0  0  0  0
 12 11  1  0  0  0  0
 14 19  1  6  0  0  0
 14 25  1  0  0  0  0
 14 15  1  0  0  0  0
 15 21  1  0  0  0  0
 15 20  1  0  0  0  0
 16 22  1  6  0  0  0
 16 15  1  0  0  0  0
 16 11  1  0  0  0  0
 17 16  1  0  0  0  0
 18 14  1  0  0  0  0
 18 17  1  0  0  0  0
 18 24  1  0  0  0  0
 23 18  1  0  0  0  0
 25 26  1  0  0  0  0
 28 27  1  1  0  0  0
 28 37  1  0  0  0  0
 29 28  1  0  0  0  0
 30 29  1  0  0  0  0
 31 30  1  0  0  0  0
 32 31  2  0  0  0  0
 33 31  1  0  0  0  0
 34 33  1  0  0  0  0
 35 33  1  6  0  0  0
 35 30  1  0  0  0  0
 35 36  1  0  0  0  0
 36 28  1  0  0  0  0
 37 38  1  0  0  0  0
M  END
>  <minimizedAffinity>
-5.69861126

$$$$

 OpenBabel03242511353D

 38 41  0  0  1  0  0  0  0  0999 V2000
   36.5370   28.8320   41.5530 C   0  0  0  0  0  0  0  0  0  0  0  0
   36.5780   27.7150   42.4110 C   0  0  0  0  0  0  0  0  0  0  0  0
   37.6300   27.6120   43.3290 C   0  0  0  0  0  0  0  0  0  0  0  0
   38.5670   28.6030   43.3420 N   0  0  0  0  0  0  0  0  0  0  0  0
   38.4980   29.6530   42.5090 C   0  0  0  0  0  0  0  0  0  0  0  0
   37.4960   29.7640   41.6280 N   0  0  0  0  0  0  0  0  0  0  0  0
   35.8270   26.9350   42.3890 H   0  0  0  0  0  0  0  0  0  0  0  0
   37.6610   26.7520   43.9890 H   0  0  0  0  0  0  0  0  0  0  0  0
   35.4300   28.9120   40.6080 C   0  0  0  0  0  3  0  0  0  0  0  0
   35.7020   28.9420   39.3110 C   0  0  0  0  0  3  0  0  0  0  0  0
   34.6370   29.0230   38.2910 C   0  0  0  0  0  0  0  0  0  0  0  0
   34.4880   30.0700   37.9740 H   0  0  0  0  0  0  0  0  0  0  0  0
   33.6970   28.6510   38.7060 H   0  0  0  0  0  0  0  0  0  0  0  0
   36.3060   28.1580   35.1930 C   0  0  1  0  0  0  0  0  0  0  0  0
   36.4000   28.1360   36.7260 C   0  0  0  0  0  0  0  0  0  0  0  0
   34.9580   28.1390   37.0850 C   0  0  2  0  0  0  0  0  0  0  0  0
   34.2230   28.4880   35.9890 O   0  0  0  0  0  0  0  0  0  0  0  0
   35.0440   28.9750   35.0100 C   0  0  0  0  0  0  0  0  0  0  0  0
   36.1910   27.1260   34.8180 H   0  0  0  0  0  0  0  0  0  0  0  0
   36.8160   29.1270   37.0090 H   0  0  0  0  0  0  0  0  0  0  0  0
   36.9870   27.2760   37.0950 H   0  0  0  0  0  0  0  0  0  0  0  0
   34.6800   27.0970   37.4110 H   0  0  0  0  0  0  0  0  0  0  0  0
   34.6170   28.7650   33.9980 H   0  0  0  0  0  0  0  0  0  0  0  0
   35.2890   30.0320   35.1480 H   0  0  0  0  0  0  0  0  0  0  0  0
   37.4300   28.7950   34.6690 O   0  0  0  0  0  0  0  0  0  0  0  0
   37.3110   29.7620   34.5960 H   0  0  0  0  0  0  0  0  0  0  0  0
   39.4890   30.7320   42.5020 C   0  0  0  0  0  2  0  0  0  0  0  0
   40.3620   30.7170   41.2700 C   0  0  1  0  0  0  0  0  0  0  0  0
   39.6600   31.3350   40.0810 C   0  0  0  0  0  2  0  0  0  0  0  0
   39.8490   32.7610   40.1350 N   0  0  0  0  0  0  0  0  0  0  0  0
   39.6390   34.1790   40.1890 C   0  0  0  0  0  0  0  0  0  0  0  0
   38.6350   34.9080   39.9820 O   0  0  0  0  0  0  0  0  0  0  0  0
   41.0470   34.4510   40.5800 C   0  0  0  0  0  3  0  0  0  0  0  0
   41.2260   34.5680   41.6640 H   0  0  0  0  0  0  0  0  0  0  0  0
   41.2800   33.0420   40.1390 C   0  0  1  0  0  3  0  0  0  0  0  0
   41.7700   31.8790   41.4720 S   0  0  0  0  0  0  0  0  0  0  0  0
   40.9480   29.3820   40.9480 C   0  0  0  0  0  2  0  0  0  0  0  0
   41.7860   29.1560   41.6230 H   0  0  0  0  0  0  0  0  0  0  0  0
  1  6  2  0  0  0  0
  1  2  1  0  0  0  0
  2  3  2  0  0  0  0
  3  4  1  0  0  0  0
  3  8  1  0  0  0  0
  5  4  2  0  0  0  0
  6  5  1  0  0  0  0
  7  2  1  0  0  0  0
  9  1  1  0  0  0  0
 10  9  2  0  0  0  0
 11 13  1  0  0  0  0
 11 10  1  0  0  0  0
 12 11  1  0  0  0  0
 14 19  1  6  0  0  0
 14 15  1  0  0  0  0
 15 20  1  0  0  0  0
 15 16  1  0  0  0  0
 15 21  1  0  0  0  0
 16 22  1  1  0  0  0
 16 11  1  0  0  0  0
 17 16  1  0  0  0  0
 18 24  1  0  0  0  0
 18 14  1  0  0  0  0
 18 17  1  0  0  0  0
 23 18  1  0  0  0  0
 25 14  1  0  0  0  0
 26 25  1  0  0  0  0
 27  5  1  0  0  0  0
 28 37  1  6  0  0  0
 28 36  1  0  0  0  0
 28 27  1  0  0  0  0
 29 30  1  0  0  0  0
 29 28  1  0  0  0  0
 30 35  1  0  0  0  0
 30 31  1  0  0  0  0
 31 33  1  0  0  0  0
 32 31  2  0  0  0  0
 33 34  1  0  0  0  0
 35 33  1  1  0  0  0
 35 36  1  0  0  0  0
 37 38  1  0  0  0  0
M  END
>  <minimizedAffinity>
-5.66379976

$$$$

 OpenBabel03242511353D

 38 41  0  0  1  0  0  0  0  0999 V2000
   37.4660   28.7260   42.1420 C   0  0  0  0  0  0  0  0  0  0  0  0
   38.6650   28.8360   42.8730 C   0  0  0  0  0  0  0  0  0  0  0  0
   39.2800   27.6650   43.3330 C   0  0  0  0  0  0  0  0  0  0  0  0
   38.6820   26.4740   43.0480 N   0  0  0  0  0  0  0  0  0  0  0  0
   37.5380   26.4050   42.3490 C   0  0  0  0  0  0  0  0  0  0  0  0
   36.9410   27.5180   41.9030 N   0  0  0  0  0  0  0  0  0  0  0  0
   39.1290   29.7890   43.0930 H   0  0  0  0  0  0  0  0  0  0  0  0
   40.2030   27.7510   43.8960 H   0  0  0  0  0  0  0  0  0  0  0  0
   36.8480   29.9620   41.6760 C   0  0  0  0  0  3  0  0  0  0  0  0
   37.5210   30.7290   40.8300 C   0  0  0  0  0  3  0  0  0  0  0  0
   36.9650   31.9950   40.3130 C   0  0  0  0  0  0  0  0  0  0  0  0
   36.4760   32.5610   41.1250 H   0  0  0  0  0  0  0  0  0  0  0  0
   36.2200   31.7860   39.5420 H   0  0  0  0  0  0  0  0  0  0  0  0
   40.0710   33.8580   40.1840 C   0  0  1  0  0  0  0  0  0  0  0  0
   39.4270   32.4690   40.0640 C   0  0  0  0  0  0  0  0  0  0  0  0
   38.0500   32.8440   39.6490 C   0  0  2  0  0  0  0  0  0  0  0  0
   37.8610   34.1780   39.8750 O   0  0  0  0  0  0  0  0  0  0  0  0
   38.8790   34.6710   40.6420 C   0  0  0  0  0  0  0  0  0  0  0  0
   40.4370   34.1790   39.1930 H   0  0  0  0  0  0  0  0  0  0  0  0
   39.3670   32.0810   41.1040 H   0  0  0  0  0  0  0  0  0  0  0  0
   39.9780   31.8120   39.3670 H   0  0  0  0  0  0  0  0  0  0  0  0
   37.9490   32.6290   38.5480 H   0  0  0  0  0  0  0  0  0  0  0  0
   39.0610   35.7500   40.4080 H   0  0  0  0  0  0  0  0  0  0  0  0
   38.7280   34.4970   41.7110 H   0  0  0  0  0  0  0  0  0  0  0  0
   41.0840   33.8170   41.1400 O   0  0  0  0  0  0  0  0  0  0  0  0
   40.7540   33.9970   42.0420 H   0  0  0  0  0  0  0  0  0  0  0  0
   36.8740   25.1390   42.0270 C   0  0  0  0  0  2  0  0  0  0  0  0
   37.3750   24.5270   40.7400 C   0  0  1  0  0  0  0  0  0  0  0  0
   36.3120   24.5440   39.6630 C   0  0  0  0  0  2  0  0  0  0  0  0
   36.3520   25.8250   39.0090 N   0  0  0  0  0  0  0  0  0  0  0  0
   36.0100   27.1120   38.4750 C   0  0  0  0  0  0  0  0  0  0  0  0
   34.9140   27.6920   38.2640 O   0  0  0  0  0  0  0  0  0  0  0  0
   37.4330   27.4910   38.2710 C   0  0  0  0  0  3  0  0  0  0  0  0
   37.8860   28.0920   39.0790 H   0  0  0  0  0  0  0  0  0  0  0  0
   37.6900   26.0320   38.4680 C   0  0  1  0  0  3  0  0  0  0  0  0
   38.6490   25.6060   39.9740 S   0  0  0  0  0  0  0  0  0  0  0  0
   37.9940   23.1780   40.9010 C   0  0  0  0  0  2  0  0  0  0  0  0
   39.0040   23.2650   41.3280 H   0  0  0  0  0  0  0  0  0  0  0  0
  1  2  1  0  0  0  0
  2  7  1  0  0  0  0
  2  3  2  0  0  0  0
  3  8  1  0  0  0  0
  4  3  1  0  0  0  0
  5  4  2  0  0  0  0
  6  1  2  0  0  0  0
  6  5  1  0  0  0  0
  9  1  1  0  0  0  0
 10  9  2  0  0  0  0
 11 10  1  0  0  0  0
 11 12  1  0  0  0  0
 13 11  1  0  0  0  0
 14 19  1  6  0  0  0
 14 18  1  0  0  0  0
 14 25  1  0  0  0  0
 15 14  1  0  0  0  0
 15 20  1  0  0  0  0
 16 22  1  6  0  0  0
 16 17  1  0  0  0  0
 16 15  1  0  0  0  0
 16 11  1  0  0  0  0
 17 18  1  0  0  0  0
 18 24  1  0  0  0  0
 21 15  1  0  0  0  0
 23 18  1  0  0  0  0
 25 26  1  0  0  0  0
 27  5  1  0  0  0  0
 28 37  1  1  0  0  0
 28 27  1  0  0  0  0
 29 28  1  0  0  0  0
 30 29  1  0  0  0  0
 31 30  1  0  0  0  0
 32 31  2  0  0  0  0
 33 31  1  0  0  0  0
 33 34  1  0  0  0  0
 35 33  1  1  0  0  0
 35 30  1  0  0  0  0
 35 36  1  0  0  0  0
 36 28  1  0  0  0  0
 37 38  1  0  0  0  0
M  END
>  <minimizedAffinity>
-5.65341806

$$$$

 OpenBabel03242511353D

 38 41  0  0  1  0  0  0  0  0999 V2000
   39.0390   27.1480   43.0450 C   0  0  0  0  0  0  0  0  0  0  0  0
   40.2760   26.6840   43.5350 C   0  0  0  0  0  0  0  0  0  0  0  0
   40.5320   25.3080   43.5130 C   0  0  0  0  0  0  0  0  0  0  0  0
   39.5650   24.4850   43.0180 N   0  0  0  0  0  0  0  0  0  0  0  0
   38.3970   24.9610   42.5590 C   0  0  0  0  0  0  0  0  0  0  0  0
   38.1400   26.2750   42.5730 N   0  0  0  0  0  0  0  0  0  0  0  0
   41.0340   27.3500   43.9260 H   0  0  0  0  0  0  0  0  0  0  0  0
   41.4840   24.9520   43.8910 H   0  0  0  0  0  0  0  0  0  0  0  0
   38.7990   28.5860   43.0810 C   0  0  0  0  0  3  0  0  0  0  0  0
   39.5980   29.3810   42.3820 C   0  0  0  0  0  3  0  0  0  0  0  0
   39.4220   30.8460   42.3660 C   0  0  0  0  0  0  0  0  0  0  0  0
   40.2770   31.3420   42.8570 H   0  0  0  0  0  0  0  0  0  0  0  0
   38.5110   31.1160   42.9050 H   0  0  0  0  0  0  0  0  0  0  0  0
   37.8260   32.7380   39.7180 C   0  0  1  0  0  0  0  0  0  0  0  0
   38.8330   32.7920   40.8780 C   0  0  0  0  0  0  0  0  0  0  0  0
   39.2510   31.3670   40.9380 C   0  0  2  0  0  0  0  0  0  0  0  0
   38.3680   30.6090   40.2230 O   0  0  0  0  0  0  0  0  0  0  0  0
   37.2600   31.3470   39.9150 C   0  0  0  0  0  0  0  0  0  0  0  0
   38.3650   32.8360   38.7600 H   0  0  0  0  0  0  0  0  0  0  0  0
   38.2260   33.0000   41.7850 H   0  0  0  0  0  0  0  0  0  0  0  0
   39.6400   33.5240   40.6950 H   0  0  0  0  0  0  0  0  0  0  0  0
   40.2770   31.2870   40.4790 H   0  0  0  0  0  0  0  0  0  0  0  0
   36.8090   30.9980   38.9540 H   0  0  0  0  0  0  0  0  0  0  0  0
   36.5310   31.3790   40.7300 H   0  0  0  0  0  0  0  0  0  0  0  0
   36.8650   33.7320   39.8950 O   0  0  0  0  0  0  0  0  0  0  0  0
   36.1110   33.4300   40.4390 H   0  0  0  0  0  0  0  0  0  0  0  0
   37.3410   24.1000   42.0200 C   0  0  0  0  0  2  0  0  0  0  0  0
   37.4990   23.8380   40.5400 C   0  0  1  0  0  0  0  0  0  0  0  0
   36.3580   24.4330   39.7440 C   0  0  0  0  0  2  0  0  0  0  0  0
   36.6630   25.8140   39.4800 N   0  0  0  0  0  0  0  0  0  0  0  0
   36.6200   27.2460   39.4060 C   0  0  0  0  0  0  0  0  0  0  0  0
   35.7040   28.0890   39.5870 O   0  0  0  0  0  0  0  0  0  0  0  0
   38.0560   27.3480   39.0380 C   0  0  0  0  0  3  0  0  0  0  0  0
   38.7500   27.5420   39.8760 H   0  0  0  0  0  0  0  0  0  0  0  0
   37.9310   25.8840   38.7650 C   0  0  1  0  0  3  0  0  0  0  0  0
   38.9140   24.7980   39.8710 S   0  0  0  0  0  0  0  0  0  0  0  0
   37.7450   22.4070   40.1920 C   0  0  0  0  0  2  0  0  0  0  0  0
   38.7840   22.1290   40.4170 H   0  0  0  0  0  0  0  0  0  0  0  0
  1  9  1  0  0  0  0
  1  2  1  0  0  0  0
  2  7  1  0  0  0  0
  3  2  2  0  0  0  0
  3  8  1  0  0  0  0
  4  3  1  0  0  0  0
  5  6  1  0  0  0  0
  5  4  2  0  0  0  0
  6  1  2  0  0  0  0
 10  9  2  0  0  0  0
 11 10  1  0  0  0  0
 11 12  1  0  0  0  0
 11 13  1  0  0  0  0
 14 19  1  6  0  0  0
 14 25  1  0  0  0  0
 14 18  1  0  0  0  0
 14 15  1  0  0  0  0
 15 16  1  0  0  0  0
 15 20  1  0  0  0  0
 16 22  1  6  0  0  0
 16 11  1  0  0  0  0
 17 16  1  0  0  0  0
 18 17  1  0  0  0  0
 18 24  1  0  0  0  0
 21 15  1  0  0  0  0
 23 18  1  0  0  0  0
 25 26  1  0  0  0  0
 27  5  1  0  0  0  0
 28 37  1  6  0  0  0
 28 27  1  0  0  0  0
 29 28  1  0  0  0  0
 30 29  1  0  0  0  0
 31 30  1  0  0  0  0
 31 32  2  0  0  0  0
 33 31  1  0  0  0  0
 33 34  1  0  0  0  0
 35 33  1  1  0  0  0
 35 30  1  0  0  0  0
 35 36  1  0  0  0  0
 36 28  1  0  0  0  0
 37 38  1  0  0  0  0
M  END
>  <minimizedAffinity>
-5.6521945

$$$$
