
 OpenBabel03252507163D

 32 36  0  0  1  0  0  0  0  0999 V2000
   45.1220   36.1180   43.3560 C   0  0  0  0  0  0  0  0  0  0  0  0
   45.7440   34.8890   43.0480 C   0  0  0  0  0  0  0  0  0  0  0  0
   45.7920   33.9110   44.0300 C   0  0  0  0  0  0  0  0  0  0  0  0
   45.2500   34.1620   45.2330 N   0  0  0  0  0  0  0  0  0  0  0  0
   44.6490   35.3580   45.5190 C   0  0  0  0  0  0  0  0  0  0  0  0
   44.5980   36.2990   44.5860 N   0  0  0  0  0  0  0  0  0  0  0  0
   45.0640   36.9110   42.6110 H   0  0  0  0  0  0  0  0  0  0  0  0
   44.2210   35.5270   46.4960 H   0  0  0  0  0  0  0  0  0  0  0  0
   46.4350   32.6460   43.7070 C   0  0  0  0  0  0  0  0  0  0  0  0
   45.6630   31.5410   43.4420 C   0  0  0  0  0  0  0  0  0  0  0  0
   46.3050   30.3580   43.1390 C   0  0  0  0  0  0  0  0  0  0  0  0
   47.6860   30.2240   43.0880 C   0  0  0  0  0  0  0  0  0  0  0  0
   48.3940   31.3710   43.3650 C   0  0  0  0  0  0  0  0  0  0  0  0
   47.7710   32.5320   43.6620 N   0  0  0  0  0  0  0  0  0  0  0  0
   44.5880   31.5920   43.4680 H   0  0  0  0  0  0  0  0  0  0  0  0
   45.6670   29.5110   42.9360 H   0  0  0  0  0  0  0  0  0  0  0  0
   48.1270   29.2640   42.8450 H   0  0  0  0  0  0  0  0  0  0  0  0
   49.4760   31.3130   43.3370 H   0  0  0  0  0  0  0  0  0  0  0  0
   46.3000   34.6950   41.7460 C   0  0  0  0  0  0  0  0  0  0  0  0
   47.5620   34.8010   41.6200 O   0  0  0  0  0  0  0  0  0  0  0  0
   42.1240   32.9990   39.4040 C   0  0  0  0  0  0  0  0  0  0  0  0
   43.4110   32.6950   38.7460 C   0  0  0  0  0  2  0  0  0  0  0  0
   44.5020   32.9440   39.5940 N   0  0  1  0  0  0  0  0  0  0  0  0
   45.8250   32.9710   40.1140 C   0  0  1  0  0  0  0  0  0  0  0  0
   46.7670   32.1450   40.1420 O   0  0  0  0  0  1  0  0  0  0  0  0
   45.4690   34.3810   40.5480 C   0  0  1  0  0  3  0  0  0  0  0  0
   44.1940   33.6900   40.8350 C   0  0  1  0  0  0  0  0  0  0  0  0
   42.6360   34.4830   40.3720 S   0  0  0  0  0  0  0  0  0  0  0  0
   41.0220   33.3290   38.4340 C   0  0  0  0  0  2  0  0  0  0  0  0
   41.3540   33.1190   37.3780 H   0  0  0  0  0  0  0  0  0  0  0  0
   41.7450   31.9620   40.4120 C   0  0  0  0  0  2  0  0  0  0  0  0
   40.9220   31.3010   40.0600 H   0  0  0  0  0  0  0  0  0  0  0  0
  1  6  1  0  0  0  0
  2  1  2  0  0  0  0
  2  3  1  0  0  0  0
  3  4  2  0  0  0  0
  4  5  1  0  0  0  0
  5  8  1  0  0  0  0
  6  5  2  0  0  0  0
  7  1  1  0  0  0  0
  9  3  1  0  0  0  0
 10 15  1  0  0  0  0
 10  9  2  0  0  0  0
 11 10  1  0  0  0  0
 12 11  2  0  0  0  0
 12 13  1  0  0  0  0
 13 14  2  0  0  0  0
 14  9  1  0  0  0  0
 16 11  1  0  0  0  0
 17 12  1  0  0  0  0
 18 13  1  0  0  0  0
 19  2  1  0  0  0  0
 20 19  2  0  0  0  0
 21 28  1  0  0  0  0
 21 31  1  0  0  0  0
 22 21  1  0  0  0  0
 23 22  1  6  0  0  0
 23 24  1  0  0  0  0
 23 27  1  0  0  0  0
 24 25  1  1  0  0  0
 24 26  1  0  0  0  0
 24 27  1  0  0  0  0
 26 27  1  0  0  0  0
 26 19  1  1  0  0  0
 27 28  1  1  0  0  0
 29 21  1  0  0  0  0
 30 29  1  0  0  0  0
 32 31  1  0  0  0  0
M  END
>  <minimizedAffinity>
-4.91360426

>  <minimizedRMSD>
0.614205658

$$$$
