
 OpenBabel03252503563D

 23 26  0  0  1  0  0  0  0  0999 V2000
   46.8810   32.8470   47.3020 C   0  0  0  0  0  0  0  0  0  0  0  0
   46.7130   31.3700   47.5550 C   0  0  2  0  0  0  0  0  0  0  0  0
   46.8360   31.0530   49.0100 C   0  0  0  0  0  0  0  0  0  0  0  0
   48.1270   30.5170   49.2770 N   0  0  2  0  0  0  0  0  0  0  0  0
   49.4080   30.2530   49.8320 C   0  0  2  0  0  0  0  0  0  0  0  0
   50.0590   30.4790   50.8820 O   0  0  0  0  0  0  0  0  0  0  0  0
   49.8830   29.5000   48.6410 C   0  0  0  0  0  0  0  0  0  0  0  0
   50.3340   28.5180   48.8360 H   0  0  0  0  0  0  0  0  0  0  0  0
   48.4080   29.4730   48.3280 C   0  0  1  0  0  0  0  0  0  0  0  0
   47.9900   30.3570   46.7710 S   0  0  0  0  0  0  0  0  0  0  0  0
   45.3720   30.8420   47.0940 C   0  0  0  0  0  0  0  0  0  0  0  0
   45.4160   30.4700   46.0660 H   0  0  0  0  0  0  0  0  0  0  0  0
   46.8590   33.0870   43.6480 C   0  0  0  0  0  0  0  0  0  0  0  0
   45.7760   33.9200   43.3640 C   0  0  0  0  0  0  0  0  0  0  0  0
   45.0450   34.4030   44.4630 C   0  0  0  0  0  0  0  0  0  0  0  0
   45.4350   34.0340   45.7140 N   0  0  0  0  0  0  0  0  0  0  0  0
   46.4980   33.2200   45.9330 C   0  0  0  0  0  0  0  0  0  0  0  0
   47.1940   32.7590   44.8940 N   0  0  0  0  0  0  0  0  0  0  0  0
   45.4710   34.2110   42.3770 H   0  0  0  0  0  0  0  0  0  0  0  0
   44.1970   35.0510   44.3220 H   0  0  0  0  0  0  0  0  0  0  0  0
   47.5680   32.6250   42.4910 C   0  0  0  0  0  0  0  0  0  0  0  0
   48.8160   32.6420   42.3090 O   0  0  0  0  0  0  0  0  0  0  0  0
   47.0400   32.1960   41.6260 H   0  0  0  0  0  0  0  0  0  0  0  0
  1  2  1  0  0  0  0
  2 11  1  6  0  0  0
  2  3  1  0  0  0  0
  4  3  1  6  0  0  0
  4  5  1  0  0  0  0
  5  6  1  1  0  0  0
  7  8  1  0  0  0  0
  7  5  1  0  0  0  0
  9 10  1  6  0  0  0
  9  7  1  0  0  0  0
  9  4  1  0  0  0  0
  9  5  1  0  0  0  0
 10  2  1  0  0  0  0
 12 11  1  0  0  0  0
 13 18  1  0  0  0  0
 14 13  2  0  0  0  0
 14 15  1  0  0  0  0
 15 16  2  0  0  0  0
 16 17  1  0  0  0  0
 17  1  1  0  0  0  0
 18 17  2  0  0  0  0
 19 14  1  0  0  0  0
 20 15  1  0  0  0  0
 21 13  1  0  0  0  0
 22 21  2  0  0  0  0
 23 21  1  0  0  0  0
M  END
>  <minimizedAffinity>
-4.06646395

>  <minimizedRMSD>
1.98165047

$$$$
