
     RDKit          3D

 56 60  0  0  0  0  0  0  0  0999 V2000
   42.8956   32.0646   39.3947 Cl  0  0  0  0  0  0  0  0  0  0  0  0
   41.9465   33.4682   39.8542 C   0  0  0  0  0  0  0  0  0  0  0  0
   42.5120   34.6235   40.3898 C   0  0  0  0  0  0  0  0  0  0  0  0
   41.7291   35.6836   40.7292 C   0  0  0  0  0  0  0  0  0  0  0  0
   40.3580   35.6945   40.5734 C   0  0  0  0  0  0  0  0  0  0  0  0
   39.7582   34.5361   40.0326 C   0  0  0  0  0  0  0  0  0  0  0  0
   38.0209   34.4552   39.7967 Cl  0  0  0  0  0  0  0  0  0  0  0  0
   40.5849   33.4802   39.7001 C   0  0  0  0  0  0  0  0  0  0  0  0
   39.7179   31.5020   41.3590 F   0  0  0  0  0  0  0  0  0  0  0  0
   39.5416   31.2916   40.0121 C   0  0  0  0  0  0  0  0  0  0  0  0
   39.9722   32.2794   39.1405 C   0  0  0  0  0  0  0  0  0  0  0  0
   39.7751   32.0278   37.7796 C   0  0  0  0  0  0  0  0  0  0  0  0
   39.1787   30.8417   37.3870 C   0  0  0  0  0  0  0  0  0  0  0  0
   38.7655   29.8821   38.3249 C   0  0  0  0  0  0  0  0  0  0  0  0
   38.9455   30.0986   39.6851 C   0  0  0  0  0  0  0  0  0  0  0  0
   43.9095   34.6104   40.5477 O   0  0  0  0  0  0  0  0  0  0  0  0
   44.4197   34.1957   41.7787 C   0  0  0  0  0  0  0  0  0  0  0  0
   44.0494   33.1748   42.4711 O   0  0  0  0  0  0  0  0  0  0  0  0
   45.4699   34.9257   42.4125 N   0  0  0  0  0  0  0  0  0  0  0  0
   45.7697   34.3227   43.6907 C   0  0  0  0  0  0  0  0  0  0  0  0
   45.1446   34.5780   44.8709 C   0  0  0  0  0  0  0  0  0  0  0  0
   45.5837   33.8946   45.9750 C   0  0  0  0  0  0  0  0  0  0  0  0
   46.6083   33.0155   45.8072 N   0  0  0  0  0  0  0  0  0  0  0  0
   47.2045   32.7852   44.6314 C   0  0  0  0  0  0  0  0  0  0  0  0
   46.7836   33.4523   43.5267 N   0  0  0  0  0  0  0  0  0  0  0  0
   44.1026   35.5200   44.8584 N   0  0  0  0  0  0  0  0  0  0  0  0
   42.2022   36.5650   41.1426 H   0  0  0  0  0  0  0  0  0  0  0  0
   39.7548   36.5446   40.8484 H   0  0  0  0  0  0  0  0  0  0  0  0
   40.1081   32.7916   37.1075 H   0  0  0  0  0  0  0  0  0  0  0  0
   39.0465   30.6906   36.3201 H   0  0  0  0  0  0  0  0  0  0  0  0
   38.3003   28.9605   37.9879 H   0  0  0  0  0  0  0  0  0  0  0  0
   38.6411   29.3877   40.4123 H   0  0  0  0  0  0  0  0  0  0  0  0
   45.9201   35.7417   42.0024 H   0  0  0  0  0  0  0  0  0  0  0  0
   45.1016   34.0815   46.9230 H   0  0  0  0  0  0  0  0  0  0  0  0
   43.3086   35.1449   45.4193 H   0  0  0  0  0  0  0  0  0  0  0  0
   44.0871   36.4422   44.3842 H   0  0  0  0  0  0  0  0  0  0  0  0
   48.3098   31.7930   44.6193 C   0  0  0  0  0  0  0  0  0  0  0  0
   47.7545   30.4191   44.3452 C   0  0  1  0  0  0  0  0  0  0  0  0
   46.7638   30.0217   45.4007 C   0  0  0  0  0  0  0  0  0  0  0  0
   45.7352   30.3914   45.1999 H   0  0  0  0  0  0  0  0  0  0  0  0
   47.1620   30.2520   43.0135 C   0  0  0  0  0  0  0  0  0  0  0  0
   47.3903   28.9913   42.4572 N   0  0  0  0  0  0  0  0  0  0  0  0
   47.3693   27.9542   41.5142 C   0  0  0  0  0  0  0  0  0  0  0  0
   46.6428   27.4458   40.6220 O   0  0  0  0  0  0  0  0  0  0  0  0
   48.7452   27.6022   42.0245 C   0  0  2  0  0  0  0  0  0  0  0  0
   49.5182   28.3211   41.7050 H   0  0  0  0  0  0  0  0  0  0  0  0
   48.1037   28.0485   43.2939 C   0  0  1  0  0  0  0  0  0  0  0  0
   49.0650   29.1610   44.3541 S   0  0  0  0  0  0  0  0  0  0  0  0
   49.0689   32.1092   43.9075 H   0  0  0  0  0  0  0  0  0  0  0  0
   48.7996   31.7623   45.6154 H   0  0  0  0  0  0  0  0  0  0  0  0
   46.6930   28.9059   45.3733 H   0  0  0  0  0  0  0  0  0  0  0  0
   47.0947   30.2627   46.4352 H   0  0  0  0  0  0  0  0  0  0  0  0
   47.4779   31.1248   42.3882 H   0  0  0  0  0  0  0  0  0  0  0  0
   46.0484   30.4110   43.1229 H   0  0  0  0  0  0  0  0  0  0  0  0
   48.9998   26.5429   42.0038 H   0  0  0  0  0  0  0  0  0  0  0  0
   47.4648   27.3374   43.8308 H   0  0  0  0  0  0  0  0  0  0  0  0
  1  2  1  0
  2  3  2  0
  3 16  1  0
  3  4  1  0
  5  4  2  0
  6  5  1  0
  7  6  1  0
  8  2  1  0
  8  6  2  0
 10  9  1  0
 11  8  1  0
 11 10  2  0
 12 11  1  0
 13 12  2  0
 13 14  1  0
 14 15  2  0
 15 10  1  0
 16 17  1  0
 17 19  1  0
 17 18  2  0
 19 20  1  0
 20 21  2  0
 21 22  1  0
 23 22  2  0
 24 23  1  0
 25 20  1  0
 25 24  2  0
 26 21  1  0
  4 27  1  0
  5 28  1  0
 12 29  1  0
 13 30  1  0
 14 31  1  0
 15 32  1  0
 19 33  1  0
 22 34  1  0
 26 35  1  0
 26 36  1  0
 38 37  1  1
 38 39  1  0
 39 40  1  0
 38 41  1  0
 41 42  1  0
 42 43  1  0
 43 44  2  0
 43 45  1  0
 45 46  1  6
 45 47  1  0
 47 48  1  0
 48 38  1  0
 47 42  1  0
 37 49  1  0
 37 50  1  0
 39 51  1  0
 39 52  1  0
 41 53  1  0
 41 54  1  0
 45 55  1  0
 47 56  1  1
 24 37  1  0
M  ISO  8  27  14  28  14  29  14  30  14  31  14  32  14  34  14  40   8
M  ISO  1  46  15
M  END
>  <DihAtoms>  (1) 
22,23,36,37

>  <DihDeg>  (1) 
89.9994324354195

$$$$
