
 OpenBabel03242515043D

 42 45  0  0  1  0  0  0  0  0999 V2000
   44.3700   34.5860   41.9720 C   0  0  0  0  0  0  0  0  0  0  0  0
   45.3220   33.7500   41.3830 C   0  0  0  0  0  0  0  0  0  0  0  0
   46.2790   33.1370   42.1970 C   0  0  0  0  0  0  0  0  0  0  0  0
   46.2190   33.3960   43.5220 N   0  0  0  0  0  0  0  0  0  0  0  0
   45.2970   34.2020   44.0770 C   0  0  0  0  0  0  0  0  0  0  0  0
   44.3890   34.7850   43.2970 N   0  0  0  0  0  0  0  0  0  0  0  0
   45.3280   33.5770   40.3350 H   0  0  0  0  0  0  0  0  0  0  0  0
   45.3660   34.3810   45.5120 C   0  0  0  0  0  0  0  0  0  0  0  0
   44.5310   35.1690   46.0390 O   0  0  0  0  0  0  0  0  0  0  0  0
   46.3620   33.6630   46.2410 N   0  0  0  0  0  0  0  0  0  0  0  0
   47.3220   34.0470   46.3870 H   0  0  0  0  0  0  0  0  0  0  0  0
   46.1320   32.7360   46.6380 H   0  0  0  0  0  0  0  0  0  0  0  0
   43.1740   35.3430   40.8820 S   0  0  0  0  0  0  0  0  0  0  0  0
   41.5200   35.4150   41.5910 C   0  0  0  0  0  0  0  0  0  0  0  0
   41.1500   34.3610   41.7120 H   0  0  0  0  0  0  0  0  0  0  0  0
   41.5570   35.8580   42.6170 H   0  0  0  0  0  0  0  0  0  0  0  0
   40.5310   36.1370   40.7400 C   0  0  0  0  0  0  0  0  0  0  0  0
   41.0320   36.9360   40.1900 H   0  0  0  0  0  0  0  0  0  0  0  0
   39.7660   36.5940   41.4210 H   0  0  0  0  0  0  0  0  0  0  0  0
   41.4220   36.3750   37.8430 Cl  0  0  0  0  0  0  0  0  0  0  0  0
   40.2310   35.2400   38.4090 C   0  0  0  0  0  0  0  0  0  0  0  0
   39.8950   35.2160   39.7590 C   0  0  0  0  0  0  0  0  0  0  0  0
   38.9530   34.2990   40.1310 C   0  0  0  0  0  0  0  0  0  0  0  0
   38.3010   33.3940   39.2910 C   0  0  0  0  0  0  0  0  0  0  0  0
   38.6550   33.4450   37.9680 C   0  0  0  0  0  0  0  0  0  0  0  0
   37.8800   32.3370   36.8420 Cl  0  0  0  0  0  0  0  0  0  0  0  0
   39.5970   34.3480   37.5400 C   0  0  0  0  0  0  0  0  0  0  0  0
   38.7080   34.3000   41.1930 H   0  0  0  0  0  0  0  0  0  0  0  0
   37.5680   32.7140   39.7110 H   0  0  0  0  0  0  0  0  0  0  0  0
   39.8530   34.3590   36.4800 H   0  0  0  0  0  0  0  0  0  0  0  0
   47.2750   32.2590   41.5490 C   0  0  0  0  0  0  0  0  0  0  0  0
   48.1960   33.1060   40.7250 C   0  0  2  0  0  0  0  0  0  0  0  0
   47.5490   34.1250   39.8640 C   0  0  0  0  0  0  0  0  0  0  0  0
   47.4310   33.5940   38.5260 N   0  0  0  0  0  0  0  0  0  0  0  0
   46.9250   33.1830   37.2520 C   0  0  0  0  0  0  0  0  0  0  0  0
   45.8700   33.5100   36.6400 O   0  0  0  0  0  0  0  0  0  0  0  0
   48.0760   32.2810   36.9790 C   0  0  0  0  0  0  0  0  0  0  0  0
   47.8930   31.2230   37.2120 H   0  0  0  0  0  0  0  0  0  0  0  0
   48.7220   33.0950   38.0650 C   0  0  2  0  0  0  0  0  0  0  0  0
   49.1700   32.1200   39.5520 S   0  0  0  0  0  0  0  0  0  0  0  0
   49.1810   33.7850   41.6680 C   0  0  0  0  0  0  0  0  0  0  0  0
   50.2070   33.8140   41.2080 H   0  0  0  0  0  0  0  0  0  0  0  0
  1  6  1  0  0  0  0
  2  1  2  0  0  0  0
  2  3  1  0  0  0  0
  3  4  2  0  0  0  0
  4  5  1  0  0  0  0
  5  8  1  0  0  0  0
  6  5  2  0  0  0  0
  7  2  1  0  0  0  0
  8  9  2  0  0  0  0
  8 10  1  0  0  0  0
 10 11  1  0  0  0  0
 10 12  1  0  0  0  0
 13 14  1  0  0  0  0
 13  1  1  0  0  0  0
 14 15  1  0  0  0  0
 14 16  1  0  0  0  0
 17 19  1  0  0  0  0
 17 14  1  0  0  0  0
 18 17  1  0  0  0  0
 20 21  1  0  0  0  0
 21 22  1  0  0  0  0
 22 23  2  0  0  0  0
 22 17  1  0  0  0  0
 23 28  1  0  0  0  0
 24 29  1  0  0  0  0
 24 23  1  0  0  0  0
 25 24  2  0  0  0  0
 26 25  1  0  0  0  0
 27 25  1  0  0  0  0
 27 21  2  0  0  0  0
 30 27  1  0  0  0  0
 31  3  1  0  0  0  0
 32 31  1  1  0  0  0
 32 41  1  0  0  0  0
 33 32  1  0  0  0  0
 34 33  1  0  0  0  0
 35 34  1  0  0  0  0
 36 35  2  0  0  0  0
 37 38  1  0  0  0  0
 37 35  1  0  0  0  0
 39 37  1  6  0  0  0
 39 34  1  0  0  0  0
 39 40  1  0  0  0  0
 40 32  1  0  0  0  0
 42 41  1  0  0  0  0
M  END
>  <minimizedAffinity>
-6.99958277

>  <minimizedRMSD>
1.8111186

$$$$
