
 OpenBabel03252501403D

 48 53  0  0  1  0  0  0  0  0999 V2000
   44.4530   33.1380   41.9120 C   0  0  0  0  0  0  0  0  0  0  0  0
   44.0050   32.4000   42.8670 O   0  0  0  0  0  0  0  0  0  0  0  0
   45.2750   34.2020   42.3910 N   0  0  0  0  0  0  0  0  0  0  0  0
   45.7490   34.8690   41.7840 H   0  0  0  0  0  0  0  0  0  0  0  0
   45.3150   34.1650   43.8340 C   0  0  0  0  0  0  0  0  0  0  0  0
   44.6010   34.9520   44.6830 C   0  0  0  0  0  0  0  0  0  0  0  0
   44.7850   34.7560   46.0260 C   0  0  0  0  0  0  0  0  0  0  0  0
   45.6650   33.7920   46.4090 N   0  0  0  0  0  0  0  0  0  0  0  0
   46.3550   33.0320   45.5490 C   0  0  0  0  0  0  0  0  0  0  0  0
   46.1860   33.2110   44.2150 N   0  0  0  0  0  0  0  0  0  0  0  0
   44.2280   35.3690   46.7190 H   0  0  0  0  0  0  0  0  0  0  0  0
   43.7360   35.8990   44.1090 N   0  0  0  0  0  0  0  0  0  0  0  0
   42.8290   35.8740   44.6220 H   0  0  0  0  0  0  0  0  0  0  0  0
   43.9280   36.5330   43.3120 H   0  0  0  0  0  0  0  0  0  0  0  0
   47.2760   32.0230   46.1320 C   0  0  0  0  0  0  0  0  0  0  0  0
   46.4870   31.0120   46.9240 C   0  0  1  0  0  0  0  0  0  0  0  0
   45.3380   30.4400   46.2140 C   0  0  0  0  0  0  0  0  0  0  0  0
   45.1250   29.0890   46.4970 N   0  0  1  0  0  0  0  0  0  0  0  0
   44.5450   27.8140   46.4330 C   0  0  1  0  0  0  0  0  0  0  0  0
   43.4350   27.2400   46.2940 O   0  0  0  0  0  0  0  0  0  0  0  0
   45.9460   27.2820   46.6180 C   0  0  0  0  0  0  0  0  0  0  0  0
   46.5740   27.4040   45.7190 H   0  0  0  0  0  0  0  0  0  0  0  0
   46.0140   28.4990   47.4760 C   0  0  1  0  0  0  0  0  0  0  0  0
   47.4860   29.5440   47.3050 S   0  0  0  0  0  0  0  0  0  0  0  0
   46.0430   31.5890   48.2360 C   0  0  0  0  0  0  0  0  0  0  0  0
   45.0920   32.1600   48.1670 H   0  0  0  0  0  0  0  0  0  0  0  0
   44.2120   32.9870   40.5460 O   0  0  0  0  0  0  0  0  0  0  0  0
   42.1980   30.8060   40.6990 Cl  0  0  0  0  0  0  0  0  0  0  0  0
   41.9490   32.4310   40.0870 C   0  0  0  0  0  0  0  0  0  0  0  0
   42.9570   33.3920   40.0540 C   0  0  0  0  0  0  0  0  0  0  0  0
   42.7100   34.6400   39.5680 C   0  0  0  0  0  0  0  0  0  0  0  0
   41.4780   35.0340   39.0870 C   0  0  0  0  0  0  0  0  0  0  0  0
   40.4370   34.0810   39.1080 C   0  0  0  0  0  0  0  0  0  0  0  0
   38.8360   34.4900   38.5170 Cl  0  0  0  0  0  0  0  0  0  0  0  0
   40.7260   32.8260   39.6080 C   0  0  0  0  0  0  0  0  0  0  0  0
   43.5160   35.3610   39.5590 H   0  0  0  0  0  0  0  0  0  0  0  0
   41.3020   36.0280   38.7060 H   0  0  0  0  0  0  0  0  0  0  0  0
   39.1460   32.5930   41.8130 F   0  0  0  0  0  0  0  0  0  0  0  0
   38.8700   31.7420   40.7700 C   0  0  0  0  0  0  0  0  0  0  0  0
   39.6550   31.8340   39.6330 C   0  0  0  0  0  0  0  0  0  0  0  0
   39.3430   30.9520   38.5950 C   0  0  0  0  0  0  0  0  0  0  0  0
   38.2960   30.0590   38.7540 C   0  0  0  0  0  0  0  0  0  0  0  0
   37.5390   30.0190   39.9360 C   0  0  0  0  0  0  0  0  0  0  0  0
   37.8220   30.8810   40.9870 C   0  0  0  0  0  0  0  0  0  0  0  0
   39.9510   31.0250   37.7170 H   0  0  0  0  0  0  0  0  0  0  0  0
   38.0910   29.3940   37.9220 H   0  0  0  0  0  0  0  0  0  0  0  0
   36.7230   29.3080   40.0330 H   0  0  0  0  0  0  0  0  0  0  0  0
   37.2630   30.8690   41.8900 H   0  0  0  0  0  0  0  0  0  0  0  0
  1  3  1  0  0  0  0
  1  2  2  0  0  0  0
  3  5  1  0  0  0  0
  4  3  1  0  0  0  0
  5 10  2  0  0  0  0
  5  6  1  0  0  0  0
  6  7  2  0  0  0  0
  7  8  1  0  0  0  0
  7 11  1  0  0  0  0
  9 15  1  0  0  0  0
  9  8  2  0  0  0  0
 10  9  1  0  0  0  0
 12 13  1  0  0  0  0
 12  6  1  0  0  0  0
 14 12  1  0  0  0  0
 16 15  1  6  0  0  0
 16 24  1  0  0  0  0
 16 25  1  0  0  0  0
 17 16  1  0  0  0  0
 18 17  1  6  0  0  0
 18 23  1  0  0  0  0
 19 20  1  1  0  0  0
 19 18  1  0  0  0  0
 19 21  1  0  0  0  0
 19 23  1  0  0  0  0
 22 21  1  0  0  0  0
 23 21  1  6  0  0  0
 24 23  1  0  0  0  0
 26 25  1  0  0  0  0
 27  1  1  0  0  0  0
 29 28  1  0  0  0  0
 30 29  1  0  0  0  0
 30 27  1  0  0  0  0
 31 30  2  0  0  0  0
 32 33  2  0  0  0  0
 32 31  1  0  0  0  0
 33 35  1  0  0  0  0
 34 33  1  0  0  0  0
 35 40  1  0  0  0  0
 35 29  2  0  0  0  0
 36 31  1  0  0  0  0
 37 32  1  0  0  0  0
 39 44  1  0  0  0  0
 39 38  1  0  0  0  0
 40 39  2  0  0  0  0
 41 42  2  0  0  0  0
 41 40  1  0  0  0  0
 42 43  1  0  0  0  0
 43 47  1  0  0  0  0
 43 44  2  0  0  0  0
 44 48  1  0  0  0  0
 45 41  1  0  0  0  0
 46 42  1  0  0  0  0
M  END
>  <minimizedAffinity>
-6.84724474

>  <minimizedRMSD>
1.65156269

$$$$
