
 OpenBabel03252507163D

 32 36  0  0  1  0  0  0  0  0999 V2000
   45.0910   36.1230   43.4950 C   0  0  0  0  0  0  0  0  0  0  0  0
   45.7300   34.9120   43.1520 C   0  0  0  0  0  0  0  0  0  0  0  0
   45.7900   33.9060   44.1050 C   0  0  0  0  0  0  0  0  0  0  0  0
   45.2420   34.1130   45.3130 N   0  0  0  0  0  0  0  0  0  0  0  0
   44.6250   35.2930   45.6330 C   0  0  0  0  0  0  0  0  0  0  0  0
   44.5630   36.2600   44.7300 N   0  0  0  0  0  0  0  0  0  0  0  0
   45.0240   36.9370   42.7740 H   0  0  0  0  0  0  0  0  0  0  0  0
   44.1940   35.4270   46.6150 H   0  0  0  0  0  0  0  0  0  0  0  0
   46.4500   32.6590   43.7450 C   0  0  0  0  0  0  0  0  0  0  0  0
   45.6930   31.5460   43.4740 C   0  0  0  0  0  0  0  0  0  0  0  0
   46.3510   30.3800   43.1360 C   0  0  0  0  0  0  0  0  0  0  0  0
   47.7330   30.2730   43.0560 C   0  0  0  0  0  0  0  0  0  0  0  0
   48.4250   31.4280   43.3420 C   0  0  0  0  0  0  0  0  0  0  0  0
   47.7860   32.5710   43.6730 N   0  0  0  0  0  0  0  0  0  0  0  0
   44.6180   31.5760   43.5210 H   0  0  0  0  0  0  0  0  0  0  0  0
   45.7240   29.5260   42.9290 H   0  0  0  0  0  0  0  0  0  0  0  0
   48.1870   29.3270   42.7860 H   0  0  0  0  0  0  0  0  0  0  0  0
   49.5070   31.3910   43.2920 H   0  0  0  0  0  0  0  0  0  0  0  0
   46.2890   34.7640   41.8450 C   0  0  0  0  0  0  0  0  0  0  0  0
   47.5470   34.9160   41.7200 O   0  0  0  0  0  0  0  0  0  0  0  0
   42.1720   32.9680   39.4750 C   0  0  0  0  0  0  0  0  0  0  0  0
   43.4680   32.7240   38.8080 C   0  0  0  0  0  2  0  0  0  0  0  0
   44.5510   32.9940   39.6600 N   0  0  1  0  0  0  0  0  0  0  0  0
   45.8730   33.0580   40.1790 C   0  0  1  0  0  0  0  0  0  0  0  0
   46.8440   32.2660   40.1880 O   0  0  0  0  0  1  0  0  0  0  0  0
   45.4680   34.4440   40.6420 C   0  0  1  0  0  3  0  0  0  0  0  0
   44.2190   33.7020   40.9160 C   0  0  1  0  0  0  0  0  0  0  0  0
   42.6330   34.4490   40.4730 S   0  0  0  0  0  0  0  0  0  0  0  0
   41.0570   33.2790   38.5130 C   0  0  0  0  0  2  0  0  0  0  0  0
   41.3940   33.1040   37.4510 H   0  0  0  0  0  0  0  0  0  0  0  0
   41.8330   31.8970   40.4620 C   0  0  0  0  0  2  0  0  0  0  0  0
   41.0330   31.2160   40.0970 H   0  0  0  0  0  0  0  0  0  0  0  0
  1  6  1  0  0  0  0
  2  1  2  0  0  0  0
  2  3  1  0  0  0  0
  3  4  2  0  0  0  0
  4  5  1  0  0  0  0
  5  8  1  0  0  0  0
  6  5  2  0  0  0  0
  7  1  1  0  0  0  0
  9  3  1  0  0  0  0
 10 15  1  0  0  0  0
 10  9  2  0  0  0  0
 11 10  1  0  0  0  0
 12 11  2  0  0  0  0
 12 13  1  0  0  0  0
 13 14  2  0  0  0  0
 14  9  1  0  0  0  0
 16 11  1  0  0  0  0
 17 12  1  0  0  0  0
 18 13  1  0  0  0  0
 19  2  1  0  0  0  0
 20 19  2  0  0  0  0
 21 31  1  0  0  0  0
 21 28  1  0  0  0  0
 22 21  1  0  0  0  0
 23 22  1  6  0  0  0
 23 24  1  0  0  0  0
 23 27  1  0  0  0  0
 24 25  1  1  0  0  0
 24 26  1  0  0  0  0
 24 27  1  0  0  0  0
 26 27  1  0  0  0  0
 26 19  1  1  0  0  0
 27 28  1  1  0  0  0
 29 21  1  0  0  0  0
 30 29  1  0  0  0  0
 32 31  1  0  0  0  0
M  END
>  <minimizedAffinity>
-4.92661524

>  <minimizedRMSD>
1.85755038

$$$$
