
     RDKit          3D

 37 39  0  0  0  0  0  0  0  0999 V2000
   46.5280   33.6177   44.3334 C   0  0  0  0  0  0  0  0  0  0  0  0
   46.2316   33.2033   45.6436 C   0  0  0  0  0  0  0  0  0  0  0  0
   45.2983   33.9017   46.3685 C   0  0  0  0  0  0  0  0  0  0  0  0
   44.7075   34.9649   45.7700 N   0  0  0  0  0  0  0  0  0  0  0  0
   44.9824   35.3666   44.5241 C   0  0  0  0  0  0  0  0  0  0  0  0
   45.8961   34.6905   43.8038 N   0  0  0  0  0  0  0  0  0  0  0  0
   45.0481   33.4538   47.6480 O   0  0  0  0  0  0  0  0  0  0  0  0
   45.3295   30.8582   47.4595 O   0  0  0  0  0  0  0  0  0  0  0  0
   45.8115   32.0789   48.2624 P   0  0  2  0  0  0  0  0  0  0  0  0
   45.3204   31.8468   49.8549 O   0  0  0  0  0  0  0  0  0  0  0  0
   47.4498   32.1986   48.1144 O   0  0  0  0  0  0  0  0  0  0  0  0
   48.4689   31.4382   48.5613 C   0  0  0  0  0  0  0  0  0  0  0  0
   49.2179   32.0227   49.4191 O   0  0  0  0  0  0  0  0  0  0  0  0
   47.2438   33.1378   43.6847 H   0  0  0  0  0  0  0  0  0  0  0  0
   46.8148   32.3390   45.9072 H   0  0  0  0  0  0  0  0  0  0  0  0
   44.4729   36.2151   44.1236 H   0  0  0  0  0  0  0  0  0  0  0  0
   44.4264   32.2011   50.0154 H   0  0  0  0  0  0  0  0  0  0  0  0
   48.8927   28.2679   43.8773 C   0  0  0  0  0  0  0  0  0  0  0  0
   49.7756   28.9039   43.7055 H   0  0  0  0  0  0  0  0  0  0  0  0
   48.3596   28.5222   45.2445 C   0  0  0  0  0  0  0  0  0  0  0  0
   46.9012   28.2367   45.4235 C   0  0  0  0  0  0  0  0  0  0  0  0
   46.4686   27.6482   44.5782 H   0  0  0  0  0  0  0  0  0  0  0  0
   49.1481   27.7179   46.2928 C   0  0  0  0  0  0  0  0  0  0  0  0
   48.9140   28.4143   47.5691 N   0  0  0  0  0  0  0  0  0  0  0  0
   48.5900   28.9458   48.8447 C   0  0  0  0  0  0  0  0  0  0  0  0
   47.9004   28.3172   49.6964 O   0  0  0  0  0  0  0  0  0  0  0  0
   49.2966   30.2224   48.6419 C   0  0  1  0  0  0  0  0  0  0  0  0
   49.6931   29.6522   47.3427 C   0  0  2  0  0  0  0  0  0  0  0  0
   48.8052   30.2044   45.8584 S   0  0  0  0  0  0  0  0  0  0  0  0
   49.2714   27.2147   43.8627 H   0  0  0  0  0  0  0  0  0  0  0  0
   48.1269   28.4469   43.1158 H   0  0  0  0  0  0  0  0  0  0  0  0
   46.7298   27.6342   46.3579 H   0  0  0  0  0  0  0  0  0  0  0  0
   46.2941   29.1685   45.5689 H   0  0  0  0  0  0  0  0  0  0  0  0
   50.2172   27.8367   46.0622 H   0  0  0  0  0  0  0  0  0  0  0  0
   48.8108   26.6835   46.3554 H   0  0  0  0  0  0  0  0  0  0  0  0
   50.1235   30.2482   49.3871 H   0  0  0  0  0  0  0  0  0  0  0  0
   50.7705   29.4470   47.1775 H   0  0  0  0  0  0  0  0  0  0  0  0
  1  2  2  0
  2  3  1  0
  3  7  1  0
  4  3  2  0
  5  4  1  0
  6  1  1  0
  6  5  2  0
  9  7  1  6
  9  8  2  0
  9 10  1  0
 11  9  1  0
 11 12  1  0
 12 13  2  0
  1 14  1  0
  2 15  1  0
  5 16  1  0
 10 17  1  0
 18 19  1  0
 18 20  1  0
 20 21  1  0
 21 22  1  0
 20 23  1  0
 23 24  1  0
 24 25  1  0
 25 26  2  0
 25 27  1  0
 27 28  1  0
 28 29  1  0
 29 20  1  0
 28 24  1  0
 18 30  1  0
 18 31  1  0
 21 32  1  0
 21 33  1  0
 23 34  1  0
 23 35  1  0
 27 36  1  1
 28 37  1  6
 12 27  1  0
M  ISO  6  14  14  15  14  16  14  17   3  19   8  22   8
M  END
>  <DihAtoms>  (1) 
10,11,26,24

>  <DihDeg>  (1) 
175.1679550824895

$$$$
