
 OpenBabel03242523543D

 48 52  0  0  1  0  0  0  0  0999 V2000
   42.8720   34.5210   38.7940 C   0  0  1  0  0  0  0  0  0  0  0  0
   42.9250   35.1620   40.1760 C   0  0  1  0  0  0  0  0  0  0  0  0
   41.6060   35.2960   40.6510 O   0  0  0  0  0  0  0  0  0  0  0  0
   40.7020   35.6100   39.6360 C   0  0  0  0  0  0  0  0  0  0  0  0
   40.4940   34.4480   38.6840 C   0  0  2  0  0  0  0  0  0  0  0  0
   41.7580   33.5260   38.8330 C   0  0  1  0  0  0  0  0  0  0  0  0
   43.8070   33.9570   38.5840 H   0  0  0  0  0  0  0  0  0  0  0  0
   43.4570   36.1150   40.1940 H   0  0  0  0  0  0  0  0  0  0  0  0
   40.9540   36.5480   39.1010 H   0  0  0  0  0  0  0  0  0  0  0  0
   39.7460   35.7960   40.1420 H   0  0  0  0  0  0  0  0  0  0  0  0
   39.5860   33.8610   38.9000 H   0  0  0  0  0  0  0  0  0  0  0  0
   41.5230   33.1840   39.8920 H   0  0  0  0  0  0  0  0  0  0  0  0
   42.6390   35.4880   37.8080 O   0  0  0  0  0  0  0  0  0  0  0  0
   43.3300   35.5210   37.1160 H   0  0  0  0  0  0  0  0  0  0  0  0
   40.5320   34.9100   37.3750 O   0  0  0  0  0  0  0  0  0  0  0  0
   40.3720   35.8640   37.2960 H   0  0  0  0  0  0  0  0  0  0  0  0
   43.4860   34.1790   41.0130 O   0  0  0  0  0  0  0  0  0  0  0  0
   44.6040   34.3400   41.7290 C   0  0  0  0  0  0  0  0  0  0  0  0
   45.8580   34.4390   41.1070 C   0  0  0  0  0  0  0  0  0  0  0  0
   46.9800   34.6060   41.9020 C   0  0  0  0  0  0  0  0  0  0  0  0
   46.8360   34.6700   43.2750 N   0  0  0  0  0  0  0  0  0  0  0  0
   45.6100   34.5690   43.8420 C   0  0  0  0  0  0  0  0  0  0  0  0
   44.5020   34.4060   43.0740 N   0  0  0  0  0  0  0  0  0  0  0  0
   45.9740   34.3900   40.0430 H   0  0  0  0  0  0  0  0  0  0  0  0
   45.4980   34.6200   44.9150 H   0  0  0  0  0  0  0  0  0  0  0  0
   48.3510   34.7010   41.3150 C   0  0  0  0  0  0  0  0  0  0  0  0
   49.0840   36.0310   41.4930 C   0  0  0  0  0  0  0  0  0  0  0  0
   49.5140   34.6970   42.1400 C   0  0  0  0  0  0  0  0  0  0  0  0
   48.3860   34.2760   40.2780 H   0  0  0  0  0  0  0  0  0  0  0  0
   48.5860   36.7800   42.1250 H   0  0  0  0  0  0  0  0  0  0  0  0
   49.7180   36.4000   40.6670 H   0  0  0  0  0  0  0  0  0  0  0  0
   49.4610   34.7160   43.2470 H   0  0  0  0  0  0  0  0  0  0  0  0
   50.4930   34.3150   41.7830 H   0  0  0  0  0  0  0  0  0  0  0  0
   41.7180   32.6210   37.8350 O   0  0  0  0  0  0  0  0  0  0  0  0
   41.5480   31.2820   37.9220 C   0  0  0  0  0  0  0  0  0  0  0  0
   40.8890   30.7360   38.9130 O   0  0  0  0  0  0  0  0  0  0  0  0
   45.1620   31.2940   36.8370 C   0  0  0  0  0  0  0  0  0  0  0  0
   44.5780   30.5430   35.6810 C   0  0  0  0  0  2  0  0  0  0  0  0
   43.2730   30.0960   36.0410 N   0  0  0  0  0  0  0  0  0  0  0  0
   41.8810   29.8480   35.9100 C   0  0  0  0  0  0  0  0  0  0  0  0
   41.0550   29.6540   34.9710 O   0  0  0  0  0  0  0  0  0  0  0  0
   41.7560   29.9040   37.3860 C   0  0  1  0  0  3  0  0  0  0  0  0
   43.2120   29.5120   37.3390 C   0  0  2  0  0  3  0  0  0  0  0  0
   44.2920   30.6440   38.2910 S   0  0  0  0  0  0  0  0  0  0  0  0
   45.1190   32.7790   36.7250 C   0  0  0  0  0  2  0  0  0  0  0  0
   44.5470   33.1410   35.8480 H   0  0  0  0  0  0  0  0  0  0  0  0
   46.6040   30.7890   36.9670 C   0  0  0  0  0  2  0  0  0  0  0  0
   46.9520   30.8350   38.0310 H   0  0  0  0  0  0  0  0  0  0  0  0
  1  7  1  6  0  0  0
  1  6  1  0  0  0  0
  1  2  1  0  0  0  0
  2  8  1  1  0  0  0
  2  3  1  0  0  0  0
  2 17  1  0  0  0  0
  4 10  1  0  0  0  0
  4  3  1  0  0  0  0
  5  6  1  0  0  0  0
  5 11  1  1  0  0  0
  5  4  1  0  0  0  0
  6 12  1  1  0  0  0
  9  4  1  0  0  0  0
 13  1  1  0  0  0  0
 14 13  1  0  0  0  0
 15  5  1  0  0  0  0
 16 15  1  0  0  0  0
 17 18  1  0  0  0  0
 18 23  1  0  0  0  0
 19 18  2  0  0  0  0
 19 20  1  0  0  0  0
 20 21  2  0  0  0  0
 21 22  1  0  0  0  0
 22 25  1  0  0  0  0
 23 22  2  0  0  0  0
 24 19  1  0  0  0  0
 26 27  1  0  0  0  0
 26 20  1  0  0  0  0
 26 28  1  0  0  0  0
 27 30  1  0  0  0  0
 27 28  1  0  0  0  0
 28 32  1  0  0  0  0
 29 26  1  0  0  0  0
 31 27  1  0  0  0  0
 33 28  1  0  0  0  0
 34 35  1  0  0  0  0
 34  6  1  0  0  0  0
 35 36  2  0  0  0  0
 37 47  1  0  0  0  0
 37 44  1  0  0  0  0
 38 39  1  0  0  0  0
 38 37  1  0  0  0  0
 39 43  1  0  0  0  0
 40 39  1  0  0  0  0
 40 42  1  0  0  0  0
 41 40  2  0  0  0  0
 42 35  1  6  0  0  0
 43 42  1  0  0  0  0
 43 44  1  1  0  0  0
 45 37  1  0  0  0  0
 46 45  1  0  0  0  0
 47 48  1  0  0  0  0
M  END
>  <minimizedAffinity>
-6.19202042

>  <minimizedRMSD>
1.02262175

$$$$
