
 OpenBabel03242523563D

 48 52  0  0  1  0  0  0  0  0999 V2000
   38.0270   32.3150   40.6120 C   0  0  1  0  0  0  0  0  0  0  0  0
   37.5130   30.9510   41.0570 C   0  0  1  0  0  0  0  0  0  0  0  0
   37.3090   30.1610   39.9090 O   0  0  0  0  0  0  0  0  0  0  0  0
   36.8350   30.9020   38.8260 C   0  0  0  0  0  0  0  0  0  0  0  0
   37.8910   31.8450   38.2820 C   0  0  2  0  0  0  0  0  0  0  0  0
   38.9250   32.0660   39.4440 C   0  0  1  0  0  0  0  0  0  0  0  0
   38.6480   32.7810   41.4070 H   0  0  0  0  0  0  0  0  0  0  0  0
   36.6130   31.0050   41.6720 H   0  0  0  0  0  0  0  0  0  0  0  0
   35.8800   31.4230   39.0390 H   0  0  0  0  0  0  0  0  0  0  0  0
   36.6130   30.1670   38.0420 H   0  0  0  0  0  0  0  0  0  0  0  0
   38.4160   31.4510   37.3950 H   0  0  0  0  0  0  0  0  0  0  0  0
   39.3350   31.0060   39.4330 H   0  0  0  0  0  0  0  0  0  0  0  0
   36.9640   33.1520   40.2510 O   0  0  0  0  0  0  0  0  0  0  0  0
   36.9310   33.9890   40.7580 H   0  0  0  0  0  0  0  0  0  0  0  0
   37.3240   33.0920   38.0550 O   0  0  0  0  0  0  0  0  0  0  0  0
   36.3570   33.0710   37.9780 H   0  0  0  0  0  0  0  0  0  0  0  0
   38.6070   30.3390   41.6970 O   0  0  0  0  0  0  0  0  0  0  0  0
   38.5210   29.2550   42.4770 C   0  0  0  0  0  0  0  0  0  0  0  0
   39.5470   28.2990   42.5070 C   0  0  0  0  0  0  0  0  0  0  0  0
   39.4020   27.1980   43.3360 C   0  0  0  0  0  0  0  0  0  0  0  0
   38.2590   27.0730   44.1030 N   0  0  0  0  0  0  0  0  0  0  0  0
   37.2880   28.0150   44.0480 C   0  0  0  0  0  0  0  0  0  0  0  0
   37.4190   29.0990   43.2400 N   0  0  0  0  0  0  0  0  0  0  0  0
   40.4350   28.3930   41.9140 H   0  0  0  0  0  0  0  0  0  0  0  0
   36.3950   27.9160   44.6480 H   0  0  0  0  0  0  0  0  0  0  0  0
   40.4420   26.1280   43.4100 C   0  0  0  0  0  0  0  0  0  0  0  0
   39.9490   24.6840   43.3050 C   0  0  0  0  0  0  0  0  0  0  0  0
   40.8310   25.3900   42.2530 C   0  0  0  0  0  0  0  0  0  0  0  0
   41.1730   26.3200   44.2370 H   0  0  0  0  0  0  0  0  0  0  0  0
   38.8810   24.5490   43.0840 H   0  0  0  0  0  0  0  0  0  0  0  0
   40.4450   23.9100   43.9180 H   0  0  0  0  0  0  0  0  0  0  0  0
   40.3270   25.5060   41.2730 H   0  0  0  0  0  0  0  0  0  0  0  0
   41.8450   24.9520   42.1440 H   0  0  0  0  0  0  0  0  0  0  0  0
   39.7360   33.0780   39.0760 O   0  0  0  0  0  0  0  0  0  0  0  0
   40.5570   33.8220   39.8520 C   0  0  0  0  0  0  0  0  0  0  0  0
   40.3070   35.0820   40.1050 O   0  0  0  0  0  0  0  0  0  0  0  0
   43.2610   32.2590   37.7370 C   0  0  0  0  0  0  0  0  0  0  0  0
   43.6620   31.7030   39.0700 C   0  0  0  0  0  2  0  0  0  0  0  0
   42.9980   32.4450   40.0890 N   0  0  0  0  0  0  0  0  0  0  0  0
   42.2560   32.6840   41.2760 C   0  0  0  0  0  0  0  0  0  0  0  0
   42.0520   32.0990   42.3790 O   0  0  0  0  0  0  0  0  0  0  0  0
   41.7800   33.9620   40.6940 C   0  0  1  0  0  3  0  0  0  0  0  0
   43.0540   33.8560   39.8920 C   0  0  2  0  0  3  0  0  0  0  0  0
   42.7750   33.9720   38.0850 S   0  0  0  0  0  0  0  0  0  0  0  0
   42.2300   31.4800   37.0000 C   0  0  0  0  0  2  0  0  0  0  0  0
   41.7970   30.6460   37.5900 H   0  0  0  0  0  0  0  0  0  0  0  0
   44.5620   32.3610   36.9300 C   0  0  0  0  0  2  0  0  0  0  0  0
   44.5120   33.2050   36.1950 H   0  0  0  0  0  0  0  0  0  0  0  0
  1  2  1  0  0  0  0
  1  7  1  1  0  0  0
  2  8  1  1  0  0  0
  2 17  1  0  0  0  0
  3  2  1  0  0  0  0
  4  9  1  0  0  0  0
  4  3  1  0  0  0  0
  5 11  1  6  0  0  0
  5  4  1  0  0  0  0
  5  6  1  0  0  0  0
  6 12  1  1  0  0  0
  6  1  1  0  0  0  0
 10  4  1  0  0  0  0
 13  1  1  0  0  0  0
 13 14  1  0  0  0  0
 15  5  1  0  0  0  0
 16 15  1  0  0  0  0
 17 18  1  0  0  0  0
 18 19  2  0  0  0  0
 18 23  1  0  0  0  0
 19 20  1  0  0  0  0
 20 26  1  0  0  0  0
 20 21  2  0  0  0  0
 22 21  1  0  0  0  0
 22 25  1  0  0  0  0
 23 22  2  0  0  0  0
 24 19  1  0  0  0  0
 26 29  1  0  0  0  0
 27 26  1  0  0  0  0
 27 31  1  0  0  0  0
 28 27  1  0  0  0  0
 28 26  1  0  0  0  0
 30 27  1  0  0  0  0
 32 28  1  0  0  0  0
 33 28  1  0  0  0  0
 34  6  1  0  0  0  0
 34 35  1  0  0  0  0
 35 36  2  0  0  0  0
 37 44  1  0  0  0  0
 37 38  1  0  0  0  0
 38 39  1  0  0  0  0
 39 40  1  0  0  0  0
 40 41  2  0  0  0  0
 42 35  1  6  0  0  0
 42 40  1  0  0  0  0
 43 44  1  6  0  0  0
 43 39  1  0  0  0  0
 43 42  1  0  0  0  0
 45 46  1  0  0  0  0
 45 37  1  0  0  0  0
 47 37  1  0  0  0  0
 48 47  1  0  0  0  0
M  END
>  <minimizedAffinity>
-6.6325078

$$$$

 OpenBabel03242523563D

 48 52  0  0  1  0  0  0  0  0999 V2000
   39.6820   32.5800   39.2880 C   0  0  1  0  0  0  0  0  0  0  0  0
   40.7410   33.6500   39.0540 C   0  0  1  0  0  0  0  0  0  0  0  0
   40.4910   34.7190   39.9350 O   0  0  0  0  0  0  0  0  0  0  0  0
   39.1280   34.9440   40.1300 C   0  0  0  0  0  0  0  0  0  0  0  0
   38.4780   33.8260   40.9220 C   0  0  2  0  0  0  0  0  0  0  0  0
   39.4090   32.5720   40.7570 C   0  0  1  0  0  0  0  0  0  0  0  0
   40.0710   31.5740   39.0220 H   0  0  0  0  0  0  0  0  0  0  0  0
   40.7960   33.9890   38.0180 H   0  0  0  0  0  0  0  0  0  0  0  0
   38.5820   35.1620   39.1900 H   0  0  0  0  0  0  0  0  0  0  0  0
   39.0650   35.8570   40.7360 H   0  0  0  0  0  0  0  0  0  0  0  0
   38.3620   34.0570   41.9940 H   0  0  0  0  0  0  0  0  0  0  0  0
   40.2760   32.9950   41.3590 H   0  0  0  0  0  0  0  0  0  0  0  0
   38.5160   32.8710   38.5690 O   0  0  0  0  0  0  0  0  0  0  0  0
   38.2460   32.1620   37.9510 H   0  0  0  0  0  0  0  0  0  0  0  0
   37.2780   33.4710   40.3210 O   0  0  0  0  0  0  0  0  0  0  0  0
   36.9210   34.1550   39.7310 H   0  0  0  0  0  0  0  0  0  0  0  0
   41.9390   33.0900   39.5360 O   0  0  0  0  0  0  0  0  0  0  0  0
   43.0420   32.9100   38.8010 C   0  0  0  0  0  0  0  0  0  0  0  0
   43.2200   31.7540   38.0270 C   0  0  0  0  0  0  0  0  0  0  0  0
   44.3830   31.6250   37.2850 C   0  0  0  0  0  0  0  0  0  0  0  0
   45.3300   32.6310   37.3290 N   0  0  0  0  0  0  0  0  0  0  0  0
   45.1260   33.7340   38.0880 C   0  0  0  0  0  0  0  0  0  0  0  0
   43.9900   33.8720   38.8190 N   0  0  0  0  0  0  0  0  0  0  0  0
   42.4880   30.9720   37.9900 H   0  0  0  0  0  0  0  0  0  0  0  0
   45.8670   34.5190   38.1210 H   0  0  0  0  0  0  0  0  0  0  0  0
   44.6530   30.4150   36.4510 C   0  0  0  0  0  0  0  0  0  0  0  0
   43.5970   30.0520   35.4070 C   0  0  0  0  0  0  0  0  0  0  0  0
   45.0290   30.5260   35.0800 C   0  0  0  0  0  0  0  0  0  0  0  0
   45.0170   29.5580   37.0740 H   0  0  0  0  0  0  0  0  0  0  0  0
   42.7710   30.7650   35.2820 H   0  0  0  0  0  0  0  0  0  0  0  0
   43.3820   28.9840   35.2200 H   0  0  0  0  0  0  0  0  0  0  0  0
   45.0520   31.4970   34.5440 H   0  0  0  0  0  0  0  0  0  0  0  0
   45.6550   29.7640   34.5740 H   0  0  0  0  0  0  0  0  0  0  0  0
   38.7420   31.5060   41.2440 O   0  0  0  0  0  0  0  0  0  0  0  0
   39.2430   30.4100   41.8580 C   0  0  0  0  0  0  0  0  0  0  0  0
   40.4530   30.3960   42.3580 O   0  0  0  0  0  0  0  0  0  0  0  0
   36.8950   28.8730   39.3370 C   0  0  0  0  0  0  0  0  0  0  0  0
   36.3310   28.2560   40.5820 C   0  0  0  0  0  2  0  0  0  0  0  0
   37.2820   28.4060   41.6330 N   0  0  0  0  0  0  0  0  0  0  0  0
   37.7780   28.7010   42.9300 C   0  0  0  0  0  0  0  0  0  0  0  0
   37.3340   28.7190   44.1150 O   0  0  0  0  0  0  0  0  0  0  0  0
   39.1010   29.0010   42.3300 C   0  0  1  0  0  3  0  0  0  0  0  0
   38.6120   28.0720   41.2470 C   0  0  2  0  0  3  0  0  0  0  0  0
   38.6930   28.8140   39.5740 S   0  0  0  0  0  0  0  0  0  0  0  0
   36.3770   30.2260   38.9990 C   0  0  0  0  0  2  0  0  0  0  0  0
   35.7240   30.6610   39.7840 H   0  0  0  0  0  0  0  0  0  0  0  0
   36.6000   27.8690   38.2150 C   0  0  0  0  0  2  0  0  0  0  0  0
   37.3820   27.9200   37.4150 H   0  0  0  0  0  0  0  0  0  0  0  0
  1  7  1  6  0  0  0
  1  6  1  0  0  0  0
  2  8  1  6  0  0  0
  2  1  1  0  0  0  0
  2 17  1  0  0  0  0
  2  3  1  0  0  0  0
  3  4  1  0  0  0  0
  4 10  1  0  0  0  0
  4  5  1  0  0  0  0
  5 11  1  1  0  0  0
  6  5  1  0  0  0  0
  6 34  1  0  0  0  0
  6 12  1  1  0  0  0
  9  4  1  0  0  0  0
 13  1  1  0  0  0  0
 14 13  1  0  0  0  0
 15  5  1  0  0  0  0
 16 15  1  0  0  0  0
 18 23  1  0  0  0  0
 18 17  1  0  0  0  0
 19 18  2  0  0  0  0
 20 21  2  0  0  0  0
 20 19  1  0  0  0  0
 21 22  1  0  0  0  0
 22 25  1  0  0  0  0
 22 23  2  0  0  0  0
 24 19  1  0  0  0  0
 26 29  1  0  0  0  0
 26 20  1  0  0  0  0
 27 26  1  0  0  0  0
 28 27  1  0  0  0  0
 28 26  1  0  0  0  0
 30 27  1  0  0  0  0
 31 27  1  0  0  0  0
 32 28  1  0  0  0  0
 33 28  1  0  0  0  0
 34 35  1  0  0  0  0
 35 36  2  0  0  0  0
 37 44  1  0  0  0  0
 37 38  1  0  0  0  0
 38 39  1  0  0  0  0
 39 40  1  0  0  0  0
 40 41  2  0  0  0  0
 42 35  1  6  0  0  0
 42 40  1  0  0  0  0
 43 44  1  6  0  0  0
 43 39  1  0  0  0  0
 43 42  1  0  0  0  0
 45 37  1  0  0  0  0
 45 46  1  0  0  0  0
 47 37  1  0  0  0  0
 48 47  1  0  0  0  0
M  END
>  <minimizedAffinity>
-6.47783279

$$$$

 OpenBabel03242523563D

 48 52  0  0  1  0  0  0  0  0999 V2000
   37.6680   29.3590   42.7420 C   0  0  1  0  0  0  0  0  0  0  0  0
   39.1630   29.4030   43.0310 C   0  0  1  0  0  0  0  0  0  0  0  0
   39.6470   28.0810   43.0580 O   0  0  0  0  0  0  0  0  0  0  0  0
   38.7320   27.1880   43.6150 C   0  0  0  0  0  0  0  0  0  0  0  0
   37.5270   26.9810   42.7180 C   0  0  2  0  0  0  0  0  0  0  0  0
   37.4580   28.2370   41.7770 C   0  0  1  0  0  0  0  0  0  0  0  0
   37.3350   30.2910   42.2370 H   0  0  0  0  0  0  0  0  0  0  0  0
   39.4140   29.9420   43.9470 H   0  0  0  0  0  0  0  0  0  0  0  0
   38.4400   27.4510   44.6520 H   0  0  0  0  0  0  0  0  0  0  0  0
   39.2610   26.2290   43.6820 H   0  0  0  0  0  0  0  0  0  0  0  0
   37.5880   26.0670   42.1040 H   0  0  0  0  0  0  0  0  0  0  0  0
   38.4010   27.9910   41.1910 H   0  0  0  0  0  0  0  0  0  0  0  0
   36.9420   29.1400   43.9200 O   0  0  0  0  0  0  0  0  0  0  0  0
   36.2830   29.8380   44.1120 H   0  0  0  0  0  0  0  0  0  0  0  0
   36.3680   27.0340   43.4810 O   0  0  0  0  0  0  0  0  0  0  0  0
   36.5190   26.8810   44.4280 H   0  0  0  0  0  0  0  0  0  0  0  0
   39.7430   29.9500   41.8700 O   0  0  0  0  0  0  0  0  0  0  0  0
   40.7050   30.8800   41.8680 C   0  0  0  0  0  0  0  0  0  0  0  0
   40.6730   31.9570   40.9700 C   0  0  0  0  0  0  0  0  0  0  0  0
   41.6980   32.8890   41.0170 C   0  0  0  0  0  0  0  0  0  0  0  0
   42.7150   32.7320   41.9390 N   0  0  0  0  0  0  0  0  0  0  0  0
   42.7140   31.6800   42.7910 C   0  0  0  0  0  0  0  0  0  0  0  0
   41.7160   30.7600   42.7560 N   0  0  0  0  0  0  0  0  0  0  0  0
   39.8860   32.0810   40.2530 H   0  0  0  0  0  0  0  0  0  0  0  0
   43.5090   31.5590   43.5120 H   0  0  0  0  0  0  0  0  0  0  0  0
   41.7440   34.0520   40.0800 C   0  0  0  0  0  0  0  0  0  0  0  0
   41.4240   33.7650   38.6130 C   0  0  0  0  0  0  0  0  0  0  0  0
   40.5520   34.6270   39.5500 C   0  0  0  0  0  0  0  0  0  0  0  0
   42.6540   34.6830   40.2520 H   0  0  0  0  0  0  0  0  0  0  0  0
   41.0880   32.7460   38.3790 H   0  0  0  0  0  0  0  0  0  0  0  0
   41.9870   34.3090   37.8320 H   0  0  0  0  0  0  0  0  0  0  0  0
   39.5480   34.1920   39.7290 H   0  0  0  0  0  0  0  0  0  0  0  0
   40.4890   35.6950   39.2560 H   0  0  0  0  0  0  0  0  0  0  0  0
   36.2710   28.2000   41.1380 O   0  0  0  0  0  0  0  0  0  0  0  0
   35.7080   29.1490   40.3560 C   0  0  0  0  0  0  0  0  0  0  0  0
   34.4230   29.1590   40.1070 O   0  0  0  0  0  0  0  0  0  0  0  0
   38.5600   28.3460   38.0210 C   0  0  0  0  0  0  0  0  0  0  0  0
   38.9010   29.7760   38.3160 C   0  0  0  0  0  2  0  0  0  0  0  0
   37.7600   30.4030   38.8960 N   0  0  0  0  0  0  0  0  0  0  0  0
   37.0110   31.2000   39.8020 C   0  0  0  0  0  0  0  0  0  0  0  0
   37.2180   32.1950   40.5560 O   0  0  0  0  0  0  0  0  0  0  0  0
   35.8170   30.3720   39.5070 C   0  0  1  0  0  3  0  0  0  0  0  0
   36.5440   30.1170   38.2100 C   0  0  2  0  0  3  0  0  0  0  0  0
   36.7550   28.3340   37.8440 S   0  0  0  0  0  0  0  0  0  0  0  0
   39.0760   27.3490   38.9980 C   0  0  0  0  0  2  0  0  0  0  0  0
   39.5460   27.8060   39.8940 H   0  0  0  0  0  0  0  0  0  0  0  0
   39.1090   28.0780   36.6130 C   0  0  0  0  0  2  0  0  0  0  0  0
   38.4940   27.3070   36.0840 H   0  0  0  0  0  0  0  0  0  0  0  0
  1  7  1  6  0  0  0
  1  2  1  0  0  0  0
  1 13  1  0  0  0  0
  2  3  1  0  0  0  0
  2  8  1  1  0  0  0
  3  4  1  0  0  0  0
  4 10  1  0  0  0  0
  4  9  1  0  0  0  0
  5 11  1  6  0  0  0
  5 15  1  0  0  0  0
  5  4  1  0  0  0  0
  6 12  1  6  0  0  0
  6  5  1  0  0  0  0
  6  1  1  0  0  0  0
 13 14  1  0  0  0  0
 15 16  1  0  0  0  0
 17  2  1  0  0  0  0
 18 17  1  0  0  0  0
 18 23  1  0  0  0  0
 19 20  1  0  0  0  0
 19 18  2  0  0  0  0
 20 21  2  0  0  0  0
 21 22  1  0  0  0  0
 22 25  1  0  0  0  0
 23 22  2  0  0  0  0
 24 19  1  0  0  0  0
 26 29  1  0  0  0  0
 26 20  1  0  0  0  0
 27 28  1  0  0  0  0
 27 26  1  0  0  0  0
 28 32  1  0  0  0  0
 28 26  1  0  0  0  0
 30 27  1  0  0  0  0
 31 27  1  0  0  0  0
 33 28  1  0  0  0  0
 34  6  1  0  0  0  0
 35 34  1  0  0  0  0
 36 35  2  0  0  0  0
 37 38  1  0  0  0  0
 37 45  1  0  0  0  0
 38 39  1  0  0  0  0
 39 40  1  0  0  0  0
 40 41  2  0  0  0  0
 42 40  1  0  0  0  0
 42 35  1  1  0  0  0
 43 44  1  1  0  0  0
 43 39  1  0  0  0  0
 43 42  1  0  0  0  0
 44 37  1  0  0  0  0
 45 46  1  0  0  0  0
 47 37  1  0  0  0  0
 48 47  1  0  0  0  0
M  END
>  <minimizedAffinity>
-6.24994469

$$$$

 OpenBabel03242523563D

 48 52  0  0  1  0  0  0  0  0999 V2000
   38.0780   29.5310   40.0730 C   0  0  1  0  0  0  0  0  0  0  0  0
   37.5210   30.9500   40.0690 C   0  0  1  0  0  0  0  0  0  0  0  0
   36.2950   30.9450   40.7610 O   0  0  0  0  0  0  0  0  0  0  0  0
   35.5630   29.7760   40.5450 C   0  0  0  0  0  0  0  0  0  0  0  0
   36.2130   28.5730   41.2030 C   0  0  2  0  0  0  0  0  0  0  0  0
   37.7260   28.9450   41.4020 C   0  0  1  0  0  0  0  0  0  0  0  0
   39.1870   29.5420   40.0040 H   0  0  0  0  0  0  0  0  0  0  0  0
   37.4150   31.3720   39.0680 H   0  0  0  0  0  0  0  0  0  0  0  0
   35.3350   29.5950   39.4760 H   0  0  0  0  0  0  0  0  0  0  0  0
   34.5970   29.9400   41.0390 H   0  0  0  0  0  0  0  0  0  0  0  0
   35.7680   28.3130   42.1780 H   0  0  0  0  0  0  0  0  0  0  0  0
   37.5430   29.7430   42.1910 H   0  0  0  0  0  0  0  0  0  0  0  0
   37.5190   28.7760   39.0340 O   0  0  0  0  0  0  0  0  0  0  0  0
   38.1810   28.4000   38.4200 H   0  0  0  0  0  0  0  0  0  0  0  0
   36.2130   27.5060   40.3150 O   0  0  0  0  0  0  0  0  0  0  0  0
   35.5620   27.5950   39.5990 H   0  0  0  0  0  0  0  0  0  0  0  0
   38.3800   31.6820   40.9100 O   0  0  0  0  0  0  0  0  0  0  0  0
   39.0810   32.7550   40.5290 C   0  0  0  0  0  0  0  0  0  0  0  0
   40.3090   32.6230   39.8650 C   0  0  0  0  0  0  0  0  0  0  0  0
   40.9890   33.7720   39.4940 C   0  0  0  0  0  0  0  0  0  0  0  0
   40.4430   35.0080   39.7880 N   0  0  0  0  0  0  0  0  0  0  0  0
   39.2550   35.0980   40.4310 C   0  0  0  0  0  0  0  0  0  0  0  0
   38.5790   33.9800   40.7990 N   0  0  0  0  0  0  0  0  0  0  0  0
   40.7360   31.6670   39.6360 H   0  0  0  0  0  0  0  0  0  0  0  0
   38.8290   36.0640   40.6600 H   0  0  0  0  0  0  0  0  0  0  0  0
   42.3110   33.7140   38.8010 C   0  0  0  0  0  0  0  0  0  0  0  0
   42.4150   32.7740   37.5990 C   0  0  0  0  0  0  0  0  0  0  0  0
   42.5070   34.3130   37.5210 C   0  0  0  0  0  0  0  0  0  0  0  0
   43.1580   33.6420   39.5320 H   0  0  0  0  0  0  0  0  0  0  0  0
   41.4820   32.2910   37.2780 H   0  0  0  0  0  0  0  0  0  0  0  0
   43.3580   32.2200   37.4400 H   0  0  0  0  0  0  0  0  0  0  0  0
   41.6780   34.7670   36.9420 H   0  0  0  0  0  0  0  0  0  0  0  0
   43.4950   34.6920   37.1900 H   0  0  0  0  0  0  0  0  0  0  0  0
   38.3750   27.8180   41.7590 O   0  0  0  0  0  0  0  0  0  0  0  0
   38.7100   27.3980   43.0000 C   0  0  0  0  0  0  0  0  0  0  0  0
   38.0340   27.7730   44.0570 O   0  0  0  0  0  0  0  0  0  0  0  0
   42.1460   27.7840   41.4920 C   0  0  0  0  0  0  0  0  0  0  0  0
   42.2140   26.3300   41.8480 C   0  0  0  0  0  2  0  0  0  0  0  0
   41.1600   26.0370   42.7620 N   0  0  0  0  0  0  0  0  0  0  0  0
   40.0670   25.3340   43.3340 C   0  0  0  0  0  0  0  0  0  0  0  0
   39.6410   24.1430   43.3640 O   0  0  0  0  0  0  0  0  0  0  0  0
   39.5820   26.6080   43.9170 C   0  0  1  0  0  3  0  0  0  0  0  0
   41.0370   26.9940   43.8120 C   0  0  2  0  0  3  0  0  0  0  0  0
   41.3000   28.5600   42.8970 S   0  0  0  0  0  0  0  0  0  0  0  0
   41.5290   28.0940   40.1730 C   0  0  0  0  0  2  0  0  0  0  0  0
   41.0830   27.2090   39.6720 H   0  0  0  0  0  0  0  0  0  0  0  0
   43.5930   28.2890   41.5600 C   0  0  0  0  0  2  0  0  0  0  0  0
   43.6270   29.3710   41.8470 H   0  0  0  0  0  0  0  0  0  0  0  0
  1  7  1  6  0  0  0
  1  6  1  0  0  0  0
  2  8  1  6  0  0  0
  2  1  1  0  0  0  0
  2  3  1  0  0  0  0
  2 17  1  0  0  0  0
  4  3  1  0  0  0  0
  4 10  1  0  0  0  0
  4  5  1  0  0  0  0
  5  6  1  0  0  0  0
  5 11  1  1  0  0  0
  6 34  1  0  0  0  0
  6 12  1  1  0  0  0
  9  4  1  0  0  0  0
 13  1  1  0  0  0  0
 14 13  1  0  0  0  0
 15  5  1  0  0  0  0
 16 15  1  0  0  0  0
 18 23  1  0  0  0  0
 18 17  1  0  0  0  0
 19 18  2  0  0  0  0
 20 21  2  0  0  0  0
 20 19  1  0  0  0  0
 21 22  1  0  0  0  0
 22 25  1  0  0  0  0
 22 23  2  0  0  0  0
 24 19  1  0  0  0  0
 26 20  1  0  0  0  0
 26 29  1  0  0  0  0
 27 26  1  0  0  0  0
 28 27  1  0  0  0  0
 28 26  1  0  0  0  0
 30 27  1  0  0  0  0
 31 27  1  0  0  0  0
 32 28  1  0  0  0  0
 33 28  1  0  0  0  0
 34 35  1  0  0  0  0
 35 36  2  0  0  0  0
 37 47  1  0  0  0  0
 37 38  1  0  0  0  0
 37 44  1  0  0  0  0
 38 39  1  0  0  0  0
 39 40  1  0  0  0  0
 39 43  1  0  0  0  0
 40 41  2  0  0  0  0
 40 42  1  0  0  0  0
 42 35  1  6  0  0  0
 43 44  1  6  0  0  0
 43 42  1  0  0  0  0
 45 37  1  0  0  0  0
 46 45  1  0  0  0  0
 47 48  1  0  0  0  0
M  END
>  <minimizedAffinity>
-6.18128347

$$$$

 OpenBabel03242523563D

 48 52  0  0  1  0  0  0  0  0999 V2000
   37.5860   29.1590   41.8770 C   0  0  1  0  0  0  0  0  0  0  0  0
   37.1460   27.7330   41.5680 C   0  0  1  0  0  0  0  0  0  0  0  0
   36.1740   27.7810   40.5510 O   0  0  0  0  0  0  0  0  0  0  0  0
   35.3360   28.8900   40.6630 C   0  0  0  0  0  0  0  0  0  0  0  0
   36.0660   30.1840   40.3560 C   0  0  2  0  0  0  0  0  0  0  0  0
   37.5930   29.8890   40.5730 C   0  0  1  0  0  0  0  0  0  0  0  0
   38.6260   29.1760   42.2680 H   0  0  0  0  0  0  0  0  0  0  0  0
   36.7840   27.1900   42.4430 H   0  0  0  0  0  0  0  0  0  0  0  0
   34.7970   28.9340   41.6310 H   0  0  0  0  0  0  0  0  0  0  0  0
   34.5660   28.7560   39.8930 H   0  0  0  0  0  0  0  0  0  0  0  0
   35.9050   30.5450   39.3270 H   0  0  0  0  0  0  0  0  0  0  0  0
   37.6990   29.1860   39.6860 H   0  0  0  0  0  0  0  0  0  0  0  0
   36.7020   29.7660   42.7790 O   0  0  0  0  0  0  0  0  0  0  0  0
   37.1330   30.0860   43.5970 H   0  0  0  0  0  0  0  0  0  0  0  0
   35.7390   31.1370   41.3120 O   0  0  0  0  0  0  0  0  0  0  0  0
   34.9170   30.9410   41.7910 H   0  0  0  0  0  0  0  0  0  0  0  0
   38.2580   27.1350   40.9450 O   0  0  0  0  0  0  0  0  0  0  0  0
   39.1800   26.4030   41.5780 C   0  0  0  0  0  0  0  0  0  0  0  0
   40.5190   26.8160   41.6400 C   0  0  0  0  0  0  0  0  0  0  0  0
   41.4290   26.0150   42.3120 C   0  0  0  0  0  0  0  0  0  0  0  0
   40.9960   24.8400   42.8970 N   0  0  0  0  0  0  0  0  0  0  0  0
   39.6950   24.4720   42.8170 C   0  0  0  0  0  0  0  0  0  0  0  0
   38.7940   25.2480   42.1620 N   0  0  0  0  0  0  0  0  0  0  0  0
   40.8590   27.7260   41.1880 H   0  0  0  0  0  0  0  0  0  0  0  0
   39.3580   23.5540   43.2750 H   0  0  0  0  0  0  0  0  0  0  0  0
   42.8750   26.3770   42.4060 C   0  0  0  0  0  0  0  0  0  0  0  0
   43.3130   27.1400   43.6560 C   0  0  0  0  0  0  0  0  0  0  0  0
   43.7540   25.7040   43.3050 C   0  0  0  0  0  0  0  0  0  0  0  0
   43.2590   26.7940   41.4380 H   0  0  0  0  0  0  0  0  0  0  0  0
   42.5490   27.2760   44.4350 H   0  0  0  0  0  0  0  0  0  0  0  0
   44.0830   27.9260   43.5550 H   0  0  0  0  0  0  0  0  0  0  0  0
   43.3970   24.9500   44.0360 H   0  0  0  0  0  0  0  0  0  0  0  0
   44.8400   25.5990   43.1050 H   0  0  0  0  0  0  0  0  0  0  0  0
   38.2420   31.0710   40.5440 O   0  0  0  0  0  0  0  0  0  0  0  0
   38.8540   31.6670   39.4960 C   0  0  0  0  0  0  0  0  0  0  0  0
   38.4780   31.4420   38.2620 O   0  0  0  0  0  0  0  0  0  0  0  0
   41.9240   30.8560   41.5330 C   0  0  0  0  0  0  0  0  0  0  0  0
   42.0600   32.3480   41.4970 C   0  0  0  0  0  2  0  0  0  0  0  0
   41.2080   32.8570   40.4750 N   0  0  0  0  0  0  0  0  0  0  0  0
   40.2480   33.7020   39.8560 C   0  0  0  0  0  0  0  0  0  0  0  0
   39.8360   34.8910   39.9840 O   0  0  0  0  0  0  0  0  0  0  0  0
   39.8910   32.5890   38.9440 C   0  0  1  0  0  3  0  0  0  0  0  0
   41.2960   32.1330   39.2500 C   0  0  2  0  0  3  0  0  0  0  0  0
   41.3740   30.4080   39.8630 S   0  0  0  0  0  0  0  0  0  0  0  0
   41.0590   30.3160   42.6160 C   0  0  0  0  0  2  0  0  0  0  0  0
   40.5210   31.1000   43.1890 H   0  0  0  0  0  0  0  0  0  0  0  0
   43.3560   30.3190   41.6470 C   0  0  0  0  0  2  0  0  0  0  0  0
   43.4480   29.3150   41.1590 H   0  0  0  0  0  0  0  0  0  0  0  0
  1  7  1  1  0  0  0
  1 13  1  0  0  0  0
  2  1  1  0  0  0  0
  2  8  1  1  0  0  0
  3  4  1  0  0  0  0
  3  2  1  0  0  0  0
  4  9  1  0  0  0  0
  5 11  1  6  0  0  0
  5  6  1  0  0  0  0
  5  4  1  0  0  0  0
  5 15  1  0  0  0  0
  6 12  1  6  0  0  0
  6  1  1  0  0  0  0
 10  4  1  0  0  0  0
 13 14  1  0  0  0  0
 15 16  1  0  0  0  0
 17  2  1  0  0  0  0
 17 18  1  0  0  0  0
 18 19  2  0  0  0  0
 18 23  1  0  0  0  0
 19 20  1  0  0  0  0
 20 26  1  0  0  0  0
 20 21  2  0  0  0  0
 22 21  1  0  0  0  0
 22 25  1  0  0  0  0
 23 22  2  0  0  0  0
 24 19  1  0  0  0  0
 26 28  1  0  0  0  0
 26 27  1  0  0  0  0
 27 30  1  0  0  0  0
 28 27  1  0  0  0  0
 28 32  1  0  0  0  0
 29 26  1  0  0  0  0
 31 27  1  0  0  0  0
 33 28  1  0  0  0  0
 34  6  1  0  0  0  0
 35 34  1  0  0  0  0
 36 35  2  0  0  0  0
 37 47  1  0  0  0  0
 37 45  1  0  0  0  0
 38 37  1  0  0  0  0
 39 38  1  0  0  0  0
 40 41  2  0  0  0  0
 40 39  1  0  0  0  0
 42 43  1  0  0  0  0
 42 35  1  1  0  0  0
 42 40  1  0  0  0  0
 43 44  1  1  0  0  0
 43 39  1  0  0  0  0
 44 37  1  0  0  0  0
 45 46  1  0  0  0  0
 48 47  1  0  0  0  0
M  END
>  <minimizedAffinity>
-6.11618614

$$$$

 OpenBabel03242523563D

 48 52  0  0  1  0  0  0  0  0999 V2000
   37.5210   29.7520   42.0170 C   0  0  1  0  0  0  0  0  0  0  0  0
   38.9650   30.1920   42.2270 C   0  0  1  0  0  0  0  0  0  0  0  0
   39.7700   29.0390   42.3020 O   0  0  0  0  0  0  0  0  0  0  0  0
   39.1330   27.9820   42.9510 C   0  0  0  0  0  0  0  0  0  0  0  0
   37.9890   27.4200   42.1280 C   0  0  2  0  0  0  0  0  0  0  0  0
   37.5710   28.5540   41.1250 C   0  0  1  0  0  0  0  0  0  0  0  0
   36.9440   30.5350   41.4790 H   0  0  0  0  0  0  0  0  0  0  0  0
   39.1010   30.8340   43.0990 H   0  0  0  0  0  0  0  0  0  0  0  0
   38.8200   28.2290   43.9850 H   0  0  0  0  0  0  0  0  0  0  0  0
   39.8910   27.1940   43.0430 H   0  0  0  0  0  0  0  0  0  0  0  0
   38.2610   26.5130   41.5620 H   0  0  0  0  0  0  0  0  0  0  0  0
   38.5250   28.5160   40.5070 H   0  0  0  0  0  0  0  0  0  0  0  0
   36.9160   29.4350   43.2390 O   0  0  0  0  0  0  0  0  0  0  0  0
   36.1080   29.9540   43.4260 H   0  0  0  0  0  0  0  0  0  0  0  0
   36.8830   27.2280   42.9440 O   0  0  0  0  0  0  0  0  0  0  0  0
   37.1010   27.1800   43.8890 H   0  0  0  0  0  0  0  0  0  0  0  0
   39.3450   30.7900   41.0110 O   0  0  0  0  0  0  0  0  0  0  0  0
   39.5710   32.0990   40.8470 C   0  0  0  0  0  0  0  0  0  0  0  0
   40.8760   32.6120   40.8090 C   0  0  0  0  0  0  0  0  0  0  0  0
   41.0470   33.9760   40.6360 C   0  0  0  0  0  0  0  0  0  0  0  0
   39.9350   34.7870   40.5060 N   0  0  0  0  0  0  0  0  0  0  0  0
   38.6900   34.2580   40.5490 C   0  0  0  0  0  0  0  0  0  0  0  0
   38.5090   32.9230   40.7180 N   0  0  0  0  0  0  0  0  0  0  0  0
   41.7400   31.9860   40.9090 H   0  0  0  0  0  0  0  0  0  0  0  0
   37.8220   34.8930   40.4470 H   0  0  0  0  0  0  0  0  0  0  0  0
   42.4040   34.6000   40.6040 C   0  0  0  0  0  0  0  0  0  0  0  0
   43.3070   34.3410   41.8110 C   0  0  0  0  0  0  0  0  0  0  0  0
   43.5760   33.8180   40.3840 C   0  0  0  0  0  0  0  0  0  0  0  0
   42.3590   35.6670   40.2660 H   0  0  0  0  0  0  0  0  0  0  0  0
   42.9250   33.6350   42.5620 H   0  0  0  0  0  0  0  0  0  0  0  0
   43.9640   35.1560   42.1640 H   0  0  0  0  0  0  0  0  0  0  0  0
   43.5520   32.7110   40.3170 H   0  0  0  0  0  0  0  0  0  0  0  0
   44.4880   34.2370   39.9120 H   0  0  0  0  0  0  0  0  0  0  0  0
   36.4110   28.1770   40.5500 O   0  0  0  0  0  0  0  0  0  0  0  0
   35.6700   28.8450   39.6370 C   0  0  0  0  0  0  0  0  0  0  0  0
   34.4000   29.0960   39.8340 O   0  0  0  0  0  0  0  0  0  0  0  0
   37.7660   26.7520   37.3020 C   0  0  0  0  0  0  0  0  0  0  0  0
   38.1740   28.1120   36.8190 C   0  0  0  0  0  2  0  0  0  0  0  0
   37.2380   29.0670   37.3110 N   0  0  0  0  0  0  0  0  0  0  0  0
   36.7680   30.2670   37.9080 C   0  0  0  0  0  0  0  0  0  0  0  0
   37.1750   31.4560   38.0510 O   0  0  0  0  0  0  0  0  0  0  0  0
   35.5390   29.5500   38.3280 C   0  0  1  0  0  3  0  0  0  0  0  0
   35.8800   28.6650   37.1550 C   0  0  2  0  0  3  0  0  0  0  0  0
   35.9820   26.8900   37.6000 S   0  0  0  0  0  0  0  0  0  0  0  0
   38.5320   26.2280   38.4640 C   0  0  0  0  0  2  0  0  0  0  0  0
   39.2310   26.9670   38.9070 H   0  0  0  0  0  0  0  0  0  0  0  0
   37.9050   25.8300   36.0830 C   0  0  0  0  0  2  0  0  0  0  0  0
   37.1680   24.9880   36.1330 H   0  0  0  0  0  0  0  0  0  0  0  0
  1  7  1  6  0  0  0
  1  2  1  0  0  0  0
  1 13  1  0  0  0  0
  2  3  1  0  0  0  0
  2  8  1  1  0  0  0
  3  4  1  0  0  0  0
  4 10  1  0  0  0  0
  4  9  1  0  0  0  0
  5 11  1  6  0  0  0
  5 15  1  0  0  0  0
  5  4  1  0  0  0  0
  6 12  1  6  0  0  0
  6  1  1  0  0  0  0
  6  5  1  0  0  0  0
 13 14  1  0  0  0  0
 15 16  1  0  0  0  0
 17  2  1  0  0  0  0
 18 17  1  0  0  0  0
 19 18  1  0  0  0  0
 19 24  1  0  0  0  0
 20 19  2  0  0  0  0
 21 22  2  0  0  0  0
 21 20  1  0  0  0  0
 22 23  1  0  0  0  0
 23 18  2  0  0  0  0
 25 22  1  0  0  0  0
 26 20  1  0  0  0  0
 26 27  1  0  0  0  0
 27 31  1  0  0  0  0
 27 30  1  0  0  0  0
 28 26  1  0  0  0  0
 28 27  1  0  0  0  0
 29 26  1  0  0  0  0
 32 28  1  0  0  0  0
 33 28  1  0  0  0  0
 34  6  1  0  0  0  0
 35 36  2  0  0  0  0
 35 34  1  0  0  0  0
 37 44  1  0  0  0  0
 37 45  1  0  0  0  0
 38 37  1  0  0  0  0
 38 39  1  0  0  0  0
 39 40  1  0  0  0  0
 40 41  2  0  0  0  0
 40 42  1  0  0  0  0
 42 35  1  1  0  0  0
 43 39  1  0  0  0  0
 43 44  1  1  0  0  0
 43 42  1  0  0  0  0
 45 46  1  0  0  0  0
 47 48  1  0  0  0  0
 47 37  1  0  0  0  0
M  END
>  <minimizedAffinity>
-6.11350393

$$$$

 OpenBabel03242523563D

 48 52  0  0  1  0  0  0  0  0999 V2000
   39.3650   32.1980   40.9700 C   0  0  1  0  0  0  0  0  0  0  0  0
   38.5820   30.9740   41.4300 C   0  0  1  0  0  0  0  0  0  0  0  0
   37.5050   30.7810   40.5450 O   0  0  0  0  0  0  0  0  0  0  0  0
   36.9560   31.9840   40.0990 C   0  0  0  0  0  0  0  0  0  0  0  0
   37.8990   32.7230   39.1680 C   0  0  2  0  0  0  0  0  0  0  0  0
   39.3390   32.1770   39.4760 C   0  0  1  0  0  0  0  0  0  0  0  0
   40.4300   32.1250   41.2790 H   0  0  0  0  0  0  0  0  0  0  0  0
   38.2450   31.0380   42.4660 H   0  0  0  0  0  0  0  0  0  0  0  0
   36.5910   32.6290   40.9220 H   0  0  0  0  0  0  0  0  0  0  0  0
   36.0700   31.7030   39.5160 H   0  0  0  0  0  0  0  0  0  0  0  0
   37.6700   32.5710   38.1000 H   0  0  0  0  0  0  0  0  0  0  0  0
   39.1550   31.1340   39.0630 H   0  0  0  0  0  0  0  0  0  0  0  0
   38.7810   33.3730   41.4590 O   0  0  0  0  0  0  0  0  0  0  0  0
   39.3880   33.9220   41.9960 H   0  0  0  0  0  0  0  0  0  0  0  0
   37.9350   34.0660   39.5190 O   0  0  0  0  0  0  0  0  0  0  0  0
   37.1710   34.3500   40.0470 H   0  0  0  0  0  0  0  0  0  0  0  0
   39.4300   29.8800   41.1730 O   0  0  0  0  0  0  0  0  0  0  0  0
   39.0130   28.6750   40.7710 C   0  0  0  0  0  0  0  0  0  0  0  0
   38.4200   27.7740   41.6680 C   0  0  0  0  0  0  0  0  0  0  0  0
   38.0060   26.5400   41.1920 C   0  0  0  0  0  0  0  0  0  0  0  0
   38.1890   26.2330   39.8570 N   0  0  0  0  0  0  0  0  0  0  0  0
   38.7660   27.1260   39.0190 C   0  0  0  0  0  0  0  0  0  0  0  0
   39.1760   28.3380   39.4730 N   0  0  0  0  0  0  0  0  0  0  0  0
   38.2770   28.0090   42.7030 H   0  0  0  0  0  0  0  0  0  0  0  0
   38.9080   26.8850   37.9760 H   0  0  0  0  0  0  0  0  0  0  0  0
   37.3840   25.5210   42.0890 C   0  0  0  0  0  0  0  0  0  0  0  0
   36.6660   24.3550   41.4090 C   0  0  0  0  0  0  0  0  0  0  0  0
   37.9540   24.2230   42.2480 C   0  0  0  0  0  0  0  0  0  0  0  0
   36.8170   26.0010   42.9280 H   0  0  0  0  0  0  0  0  0  0  0  0
   36.7490   24.3040   40.3140 H   0  0  0  0  0  0  0  0  0  0  0  0
   35.7410   23.9620   41.8690 H   0  0  0  0  0  0  0  0  0  0  0  0
   38.8240   23.8770   41.6540 H   0  0  0  0  0  0  0  0  0  0  0  0
   37.8310   23.6320   43.1790 H   0  0  0  0  0  0  0  0  0  0  0  0
   40.2190   32.9780   38.8430 O   0  0  0  0  0  0  0  0  0  0  0  0
   41.1000   33.8510   39.3830 C   0  0  0  0  0  0  0  0  0  0  0  0
   40.7770   35.0990   39.6140 O   0  0  0  0  0  0  0  0  0  0  0  0
   43.3870   31.5300   37.4810 C   0  0  0  0  0  0  0  0  0  0  0  0
   44.0010   31.3930   38.8410 C   0  0  0  0  0  2  0  0  0  0  0  0
   43.5290   32.4590   39.6610 N   0  0  0  0  0  0  0  0  0  0  0  0
   43.0020   33.1060   40.8110 C   0  0  0  0  0  0  0  0  0  0  0  0
   42.9810   32.9090   42.0610 O   0  0  0  0  0  0  0  0  0  0  0  0
   42.4510   34.1660   39.9330 C   0  0  1  0  0  3  0  0  0  0  0  0
   43.5680   33.7310   39.0180 C   0  0  2  0  0  3  0  0  0  0  0  0
   42.9890   33.2950   37.3350 S   0  0  0  0  0  0  0  0  0  0  0  0
   42.2360   30.6290   37.2020 C   0  0  0  0  0  2  0  0  0  0  0  0
   41.8980   30.0520   38.0880 H   0  0  0  0  0  0  0  0  0  0  0  0
   44.5330   31.2890   36.4900 C   0  0  0  0  0  2  0  0  0  0  0  0
   44.3700   31.8620   35.5420 H   0  0  0  0  0  0  0  0  0  0  0  0
  1  7  1  1  0  0  0
  1  2  1  0  0  0  0
  1 13  1  0  0  0  0
  2  8  1  1  0  0  0
  3  2  1  0  0  0  0
  4  3  1  0  0  0  0
  4  9  1  0  0  0  0
  5 11  1  6  0  0  0
  5  6  1  0  0  0  0
  5 15  1  0  0  0  0
  5  4  1  0  0  0  0
  6 12  1  6  0  0  0
  6  1  1  0  0  0  0
 10  4  1  0  0  0  0
 13 14  1  0  0  0  0
 15 16  1  0  0  0  0
 17  2  1  0  0  0  0
 18 17  1  0  0  0  0
 18 19  1  0  0  0  0
 19 24  1  0  0  0  0
 20 19  2  0  0  0  0
 20 26  1  0  0  0  0
 21 20  1  0  0  0  0
 22 23  1  0  0  0  0
 22 21  2  0  0  0  0
 23 18  2  0  0  0  0
 25 22  1  0  0  0  0
 26 28  1  0  0  0  0
 26 29  1  0  0  0  0
 27 31  1  0  0  0  0
 27 26  1  0  0  0  0
 27 28  1  0  0  0  0
 28 33  1  0  0  0  0
 30 27  1  0  0  0  0
 32 28  1  0  0  0  0
 34 35  1  0  0  0  0
 34  6  1  0  0  0  0
 35 36  2  0  0  0  0
 37 38  1  0  0  0  0
 38 39  1  0  0  0  0
 39 40  1  0  0  0  0
 40 41  2  0  0  0  0
 42 35  1  6  0  0  0
 42 40  1  0  0  0  0
 43 44  1  6  0  0  0
 43 39  1  0  0  0  0
 43 42  1  0  0  0  0
 44 37  1  0  0  0  0
 45 37  1  0  0  0  0
 45 46  1  0  0  0  0
 47 37  1  0  0  0  0
 48 47  1  0  0  0  0
M  END
>  <minimizedAffinity>
-6.05015612

$$$$

 OpenBabel03242523563D

 48 52  0  0  1  0  0  0  0  0999 V2000
   38.2280   30.3170   39.5450 C   0  0  1  0  0  0  0  0  0  0  0  0
   38.5670   30.9330   40.8970 C   0  0  1  0  0  0  0  0  0  0  0  0
   38.0860   32.2570   40.9130 O   0  0  0  0  0  0  0  0  0  0  0  0
   38.2070   32.8840   39.6730 C   0  0  0  0  0  0  0  0  0  0  0  0
   37.2560   32.2970   38.6470 C   0  0  2  0  0  0  0  0  0  0  0  0
   36.8890   30.8590   39.1600 C   0  0  1  0  0  0  0  0  0  0  0  0
   38.1220   29.2140   39.6290 H   0  0  0  0  0  0  0  0  0  0  0  0
   39.6310   30.8900   41.1400 H   0  0  0  0  0  0  0  0  0  0  0  0
   39.2510   32.9200   39.3010 H   0  0  0  0  0  0  0  0  0  0  0  0
   37.9080   33.9270   39.8410 H   0  0  0  0  0  0  0  0  0  0  0  0
   36.3330   32.8870   38.5180 H   0  0  0  0  0  0  0  0  0  0  0  0
   36.2910   31.2100   40.0610 H   0  0  0  0  0  0  0  0  0  0  0  0
   39.1930   30.6560   38.5890 O   0  0  0  0  0  0  0  0  0  0  0  0
   39.6210   29.8830   38.1690 H   0  0  0  0  0  0  0  0  0  0  0  0
   37.9320   32.0970   37.4510 O   0  0  0  0  0  0  0  0  0  0  0  0
   38.7460   32.6210   37.3720 H   0  0  0  0  0  0  0  0  0  0  0  0
   37.7430   30.2640   41.8210 O   0  0  0  0  0  0  0  0  0  0  0  0
   37.8610   28.9730   42.1480 C   0  0  0  0  0  0  0  0  0  0  0  0
   38.9260   28.5190   42.9410 C   0  0  0  0  0  0  0  0  0  0  0  0
   38.9950   27.1690   43.2480 C   0  0  0  0  0  0  0  0  0  0  0  0
   38.0200   26.3140   42.7680 N   0  0  0  0  0  0  0  0  0  0  0  0
   37.0070   26.7870   42.0040 C   0  0  0  0  0  0  0  0  0  0  0  0
   36.9280   28.1070   41.6970 N   0  0  0  0  0  0  0  0  0  0  0  0
   39.6830   29.1790   43.3150 H   0  0  0  0  0  0  0  0  0  0  0  0
   36.2460   26.1180   41.6300 H   0  0  0  0  0  0  0  0  0  0  0  0
   40.1080   26.6070   44.0700 C   0  0  0  0  0  0  0  0  0  0  0  0
   41.1000   25.6940   43.3490 C   0  0  0  0  0  0  0  0  0  0  0  0
   41.4460   27.0800   43.9330 C   0  0  0  0  0  0  0  0  0  0  0  0
   39.7380   26.2200   45.0550 H   0  0  0  0  0  0  0  0  0  0  0  0
   40.9750   25.6020   42.2610 H   0  0  0  0  0  0  0  0  0  0  0  0
   41.5070   24.8210   43.8910 H   0  0  0  0  0  0  0  0  0  0  0  0
   41.7430   27.8140   43.1570 H   0  0  0  0  0  0  0  0  0  0  0  0
   42.1740   27.0510   44.7700 H   0  0  0  0  0  0  0  0  0  0  0  0
   36.2430   30.2260   38.1610 O   0  0  0  0  0  0  0  0  0  0  0  0
   35.1810   29.3920   38.2410 C   0  0  0  0  0  0  0  0  0  0  0  0
   34.5600   29.1790   39.3750 O   0  0  0  0  0  0  0  0  0  0  0  0
   37.3840   27.0510   36.2670 C   0  0  0  0  0  0  0  0  0  0  0  0
   36.2850   27.2320   35.2650 C   0  0  0  0  0  2  0  0  0  0  0  0
   35.1550   27.7930   35.9270 N   0  0  0  0  0  0  0  0  0  0  0  0
   34.0480   28.6560   36.1470 C   0  0  0  0  0  0  0  0  0  0  0  0
   33.2410   29.3310   35.4440 O   0  0  0  0  0  0  0  0  0  0  0  0
   34.2100   28.4540   37.6070 C   0  0  1  0  0  3  0  0  0  0  0  0
   34.8520   27.1610   37.1680 C   0  0  2  0  0  3  0  0  0  0  0  0
   36.5300   26.9210   37.8630 S   0  0  0  0  0  0  0  0  0  0  0  0
   38.4540   28.0860   36.2390 C   0  0  0  0  0  2  0  0  0  0  0  0
   38.2350   28.9330   35.5570 H   0  0  0  0  0  0  0  0  0  0  0  0
   37.9570   25.6540   35.9970 C   0  0  0  0  0  2  0  0  0  0  0  0
   38.3610   25.1980   36.9370 H   0  0  0  0  0  0  0  0  0  0  0  0
  1  7  1  1  0  0  0
  1  2  1  0  0  0  0
  2  3  1  0  0  0  0
  2  8  1  1  0  0  0
  2 17  1  0  0  0  0
  4 10  1  0  0  0  0
  4  3  1  0  0  0  0
  5 11  1  6  0  0  0
  5  6  1  0  0  0  0
  5  4  1  0  0  0  0
  6  1  1  0  0  0  0
  6 12  1  1  0  0  0
  9  4  1  0  0  0  0
 13  1  1  0  0  0  0
 14 13  1  0  0  0  0
 15  5  1  0  0  0  0
 16 15  1  0  0  0  0
 17 18  1  0  0  0  0
 18 19  1  0  0  0  0
 19 20  2  0  0  0  0
 19 24  1  0  0  0  0
 20 26  1  0  0  0  0
 21 20  1  0  0  0  0
 22 21  2  0  0  0  0
 23 22  1  0  0  0  0
 23 18  2  0  0  0  0
 25 22  1  0  0  0  0
 26 29  1  0  0  0  0
 27 31  1  0  0  0  0
 27 28  1  0  0  0  0
 27 26  1  0  0  0  0
 28 26  1  0  0  0  0
 28 33  1  0  0  0  0
 30 27  1  0  0  0  0
 32 28  1  0  0  0  0
 34 35  1  0  0  0  0
 34  6  1  0  0  0  0
 35 36  2  0  0  0  0
 37 44  1  0  0  0  0
 38 39  1  0  0  0  0
 38 37  1  0  0  0  0
 39 40  1  0  0  0  0
 39 43  1  0  0  0  0
 40 42  1  0  0  0  0
 41 40  2  0  0  0  0
 42 35  1  6  0  0  0
 43 42  1  0  0  0  0
 43 44  1  1  0  0  0
 45 37  1  0  0  0  0
 46 45  1  0  0  0  0
 47 37  1  0  0  0  0
 47 48  1  0  0  0  0
M  END
>  <minimizedAffinity>
-6.0148344

$$$$

 OpenBabel03242523563D

 48 52  0  0  1  0  0  0  0  0999 V2000
   36.3030   28.9130   40.1940 C   0  0  1  0  0  0  0  0  0  0  0  0
   36.6390   29.8620   39.0500 C   0  0  1  0  0  0  0  0  0  0  0  0
   37.6430   30.7460   39.4890 O   0  0  0  0  0  0  0  0  0  0  0  0
   37.4960   31.0990   40.8310 C   0  0  0  0  0  0  0  0  0  0  0  0
   37.7830   29.9320   41.7570 C   0  0  2  0  0  0  0  0  0  0  0  0
   37.5910   28.6310   40.8980 C   0  0  1  0  0  0  0  0  0  0  0  0
   35.9250   27.9430   39.8040 H   0  0  0  0  0  0  0  0  0  0  0  0
   35.7720   30.4010   38.6630 H   0  0  0  0  0  0  0  0  0  0  0  0
   36.5200   31.5770   41.0520 H   0  0  0  0  0  0  0  0  0  0  0  0
   38.2590   31.8640   41.0190 H   0  0  0  0  0  0  0  0  0  0  0  0
   38.8020   29.9470   42.1780 H   0  0  0  0  0  0  0  0  0  0  0  0
   38.4950   28.8030   40.2300 H   0  0  0  0  0  0  0  0  0  0  0  0
   35.3780   29.4960   41.0670 O   0  0  0  0  0  0  0  0  0  0  0  0
   34.5580   28.9740   41.1800 H   0  0  0  0  0  0  0  0  0  0  0  0
   36.8020   29.8690   42.7380 O   0  0  0  0  0  0  0  0  0  0  0  0
   36.3180   30.7030   42.8570 H   0  0  0  0  0  0  0  0  0  0  0  0
   37.2890   29.0630   38.0900 O   0  0  0  0  0  0  0  0  0  0  0  0
   36.8550   28.8760   36.8390 C   0  0  0  0  0  0  0  0  0  0  0  0
   36.6130   29.9610   35.9840 C   0  0  0  0  0  0  0  0  0  0  0  0
   36.1650   29.7040   34.6970 C   0  0  0  0  0  0  0  0  0  0  0  0
   35.9710   28.3950   34.2960 N   0  0  0  0  0  0  0  0  0  0  0  0
   36.2150   27.3720   35.1490 C   0  0  0  0  0  0  0  0  0  0  0  0
   36.6530   27.6110   36.4110 N   0  0  0  0  0  0  0  0  0  0  0  0
   36.7620   30.9760   36.2910 H   0  0  0  0  0  0  0  0  0  0  0  0
   36.0630   26.3500   34.8340 H   0  0  0  0  0  0  0  0  0  0  0  0
   35.8670   30.8060   33.7350 C   0  0  0  0  0  0  0  0  0  0  0  0
   36.8460   31.9800   33.7100 C   0  0  0  0  0  0  0  0  0  0  0  0
   36.6380   30.9860   32.5490 C   0  0  0  0  0  0  0  0  0  0  0  0
   34.7840   31.0930   33.7590 H   0  0  0  0  0  0  0  0  0  0  0  0
   37.7460   31.8760   34.3310 H   0  0  0  0  0  0  0  0  0  0  0  0
   36.4470   33.0000   33.5580 H   0  0  0  0  0  0  0  0  0  0  0  0
   37.5420   30.3840   32.3270 H   0  0  0  0  0  0  0  0  0  0  0  0
   36.2150   31.4430   31.6310 H   0  0  0  0  0  0  0  0  0  0  0  0
   37.6020   27.5820   41.7450 O   0  0  0  0  0  0  0  0  0  0  0  0
   37.7340   26.2680   41.4540 C   0  0  0  0  0  0  0  0  0  0  0  0
   37.0630   25.7110   40.4770 O   0  0  0  0  0  0  0  0  0  0  0  0
   40.9740   27.1060   43.1940 C   0  0  0  0  0  0  0  0  0  0  0  0
   41.4710   26.0110   42.2990 C   0  0  0  0  0  2  0  0  0  0  0  0
   40.3490   25.2890   41.7990 N   0  0  0  0  0  0  0  0  0  0  0  0
   39.5170   24.6330   40.8530 C   0  0  0  0  0  0  0  0  0  0  0  0
   39.6580   24.0370   39.7460 O   0  0  0  0  0  0  0  0  0  0  0  0
   38.3450   24.9310   41.7110 C   0  0  1  0  0  3  0  0  0  0  0  0
   39.3880   24.9690   42.8010 C   0  0  2  0  0  3  0  0  0  0  0  0
   39.3560   26.5230   43.7720 S   0  0  0  0  0  0  0  0  0  0  0  0
   40.9440   28.4650   42.5910 C   0  0  0  0  0  2  0  0  0  0  0  0
   41.1790   28.4760   41.5060 H   0  0  0  0  0  0  0  0  0  0  0  0
   41.8850   27.0660   44.4290 C   0  0  0  0  0  2  0  0  0  0  0  0
   41.3360   27.4120   45.3420 H   0  0  0  0  0  0  0  0  0  0  0  0
  1  7  1  6  0  0  0
  1  6  1  0  0  0  0
  1 13  1  0  0  0  0
  2  8  1  6  0  0  0
  2  3  1  0  0  0  0
  2  1  1  0  0  0  0
  3  4  1  0  0  0  0
  4 10  1  0  0  0  0
  4  9  1  0  0  0  0
  4  5  1  0  0  0  0
  5 11  1  1  0  0  0
  5 15  1  0  0  0  0
  6 12  1  6  0  0  0
  6 34  1  0  0  0  0
  6  5  1  0  0  0  0
 13 14  1  0  0  0  0
 15 16  1  0  0  0  0
 17  2  1  0  0  0  0
 18 17  1  0  0  0  0
 19 24  1  0  0  0  0
 19 18  2  0  0  0  0
 20 19  1  0  0  0  0
 21 20  2  0  0  0  0
 21 22  1  0  0  0  0
 22 23  2  0  0  0  0
 23 18  1  0  0  0  0
 25 22  1  0  0  0  0
 26 29  1  0  0  0  0
 26 20  1  0  0  0  0
 27 26  1  0  0  0  0
 27 30  1  0  0  0  0
 28 27  1  0  0  0  0
 28 26  1  0  0  0  0
 31 27  1  0  0  0  0
 32 28  1  0  0  0  0
 33 28  1  0  0  0  0
 35 34  1  0  0  0  0
 36 35  2  0  0  0  0
 37 44  1  0  0  0  0
 37 47  1  0  0  0  0
 38 37  1  0  0  0  0
 39 38  1  0  0  0  0
 39 43  1  0  0  0  0
 40 42  1  0  0  0  0
 40 39  1  0  0  0  0
 41 40  2  0  0  0  0
 42 35  1  6  0  0  0
 42 43  1  0  0  0  0
 43 44  1  1  0  0  0
 45 37  1  0  0  0  0
 46 45  1  0  0  0  0
 47 48  1  0  0  0  0
M  END
>  <minimizedAffinity>
-5.98732758

$$$$
