
     RDKit          3D

 33 35  0  0  0  0  0  0  0  0999 V2000
   44.8865   35.0661   44.3504 C   0  0  0  0  0  0  0  0  0  0  0  0
   45.8066   35.0140   43.2837 C   0  0  0  0  0  0  0  0  0  0  0  0
   46.9325   34.1722   43.3803 C   0  0  0  0  0  0  0  0  0  0  0  0
   47.0651   33.4499   44.5143 N   0  0  0  0  0  0  0  0  0  0  0  0
   46.1723   33.5168   45.5199 C   0  0  0  0  0  0  0  0  0  0  0  0
   45.1008   34.3197   45.4248 N   0  0  0  0  0  0  0  0  0  0  0  0
   43.7602   35.9159   44.2401 N   0  0  0  0  0  0  0  0  0  0  0  0
   46.3241   32.7344   46.7382 C   0  0  0  0  0  0  0  0  0  0  0  0
   45.4270   32.6588   47.6113 O   0  0  0  0  0  0  0  0  0  0  0  0
   45.6737   35.6036   42.3893 H   0  0  0  0  0  0  0  0  0  0  0  0
   47.6238   34.1381   42.5702 H   0  0  0  0  0  0  0  0  0  0  0  0
   44.0571   36.8793   44.5502 H   0  0  0  0  0  0  0  0  0  0  0  0
   42.8262   35.5808   43.9024 H   0  0  0  0  0  0  0  0  0  0  0  0
   50.3928   27.9864   46.1908 C   0  0  0  0  0  0  0  0  0  0  0  0
   50.1431   27.6714   45.1649 H   0  0  0  0  0  0  0  0  0  0  0  0
   49.8056   29.3011   46.5617 C   0  0  0  0  0  0  0  0  0  0  0  0
   50.8311   30.3904   46.3291 C   0  0  0  0  0  0  0  0  0  0  0  0
   51.2788   30.7102   47.2929 H   0  0  0  0  0  0  0  0  0  0  0  0
   49.1997   29.3465   47.9216 C   0  0  0  0  0  0  0  0  0  0  0  0
   48.3190   30.4322   48.0358 N   0  0  0  0  0  0  0  0  0  0  0  0
   47.5904   31.5845   48.4518 C   0  0  0  0  0  0  0  0  0  0  0  0
   47.2161   31.9392   49.6083 O   0  0  0  0  0  0  0  0  0  0  0  0
   47.5767   31.9707   47.0122 C   0  0  1  0  0  0  0  0  0  0  0  0
   47.4590   30.4819   46.8709 C   0  0  1  0  0  0  0  0  0  0  0  0
   48.3470   29.7167   45.5322 S   0  0  0  0  0  0  0  0  0  0  0  0
   50.0389   27.2297   46.9448 H   0  0  0  0  0  0  0  0  0  0  0  0
   51.5037   27.9854   46.3310 H   0  0  0  0  0  0  0  0  0  0  0  0
   50.4317   31.2688   45.7992 H   0  0  0  0  0  0  0  0  0  0  0  0
   51.6890   29.9776   45.7284 H   0  0  0  0  0  0  0  0  0  0  0  0
   48.6199   28.4035   48.0333 H   0  0  0  0  0  0  0  0  0  0  0  0
   50.0175   29.2776   48.6401 H   0  0  0  0  0  0  0  0  0  0  0  0
   48.4906   32.4157   46.6214 H   0  0  0  0  0  0  0  0  0  0  0  0
   46.4165   30.1362   47.0424 H   0  0  0  0  0  0  0  0  0  0  0  0
  1  6  2  0
  2  3  2  0
  2  1  1  0
  3  4  1  0
  4  5  2  0
  5  8  1  0
  6  5  1  0
  7  1  1  0
  8  9  2  0
  2 10  1  0
  3 11  1  0
  7 12  1  0
  7 13  1  0
 14 15  1  0
 14 16  1  0
 16 17  1  0
 17 18  1  0
 16 19  1  0
 19 20  1  0
 20 21  1  0
 21 22  2  0
 21 23  1  0
 23 24  1  0
 24 25  1  0
 25 16  1  0
 24 20  1  0
 14 26  1  0
 14 27  1  0
 17 28  1  0
 17 29  1  0
 19 30  1  0
 19 31  1  0
 23 32  1  6
 24 33  1  1
  8 23  1  0
M  ISO  4  10  14  11  14  15   8  18   8
M  END
>  <DihAtoms>  (1) 
4,7,22,20

>  <DihDeg>  (1) 
-179.99673382696957

$$$$
