
     RDKit          3D

 40 43  0  0  0  0  0  0  0  0999 V2000
   45.2679   36.1613   43.1676 C   0  0  0  0  0  0  0  0  0  0  0  0
   45.8677   34.9088   42.9111 C   0  0  0  0  0  0  0  0  0  0  0  0
   45.8279   33.9426   43.9046 C   0  0  0  0  0  0  0  0  0  0  0  0
   45.2246   34.2261   45.0709 N   0  0  0  0  0  0  0  0  0  0  0  0
   44.6466   35.4435   45.3084 C   0  0  0  0  0  0  0  0  0  0  0  0
   44.6796   36.3744   44.3640 N   0  0  0  0  0  0  0  0  0  0  0  0
   46.4479   32.6537   43.6340 C   0  0  0  0  0  0  0  0  0  0  0  0
   45.6598   31.5800   43.2995 C   0  0  0  0  0  0  0  0  0  0  0  0
   46.2796   30.3728   43.0493 C   0  0  0  0  0  0  0  0  0  0  0  0
   47.6537   30.1858   43.1174 C   0  0  0  0  0  0  0  0  0  0  0  0
   48.3789   31.3045   43.4579 C   0  0  0  0  0  0  0  0  0  0  0  0
   47.7767   32.4885   43.7038 N   0  0  0  0  0  0  0  0  0  0  0  0
   46.4913   34.6813   41.6447 C   0  0  0  0  0  0  0  0  0  0  0  0
   47.6680   35.1348   41.4759 O   0  0  0  0  0  0  0  0  0  0  0  0
   45.2789   36.9448   42.4124 H   0  0  0  0  0  0  0  0  0  0  0  0
   44.1695   35.6390   46.2573 H   0  0  0  0  0  0  0  0  0  0  0  0
   44.5885   31.6719   43.2329 H   0  0  0  0  0  0  0  0  0  0  0  0
   45.6297   29.5514   42.7895 H   0  0  0  0  0  0  0  0  0  0  0  0
   48.0781   29.2099   42.9088 H   0  0  0  0  0  0  0  0  0  0  0  0
   49.4560   31.2055   43.5232 H   0  0  0  0  0  0  0  0  0  0  0  0
   41.6774   32.1508   38.3108 C   0  0  0  0  0  0  0  0  0  0  0  0
   42.1452   31.5751   37.4626 H   0  0  0  0  0  0  0  0  0  0  0  0
   42.6156   32.2080   39.4865 C   0  0  0  0  0  0  0  0  0  0  0  0
   42.0533   31.6042   40.7330 C   0  0  0  0  0  0  0  0  0  0  0  0
   41.2596   30.8524   40.5257 H   0  0  0  0  0  0  0  0  0  0  0  0
   43.9678   31.6984   39.1790 C   0  0  0  0  0  0  0  0  0  0  0  0
   44.9393   32.2495   40.0305 N   0  0  0  0  0  0  0  0  0  0  0  0
   46.1749   32.4775   40.6949 C   0  0  0  0  0  0  0  0  0  0  0  0
   47.0655   31.7270   41.1579 O   0  0  0  0  0  0  0  0  0  0  0  0
   45.8239   33.9438   40.5328 C   0  0  1  0  0  0  0  0  0  0  0  0
   44.4920   33.3916   40.8587 C   0  0  1  0  0  0  0  0  0  0  0  0
   43.0519   33.9474   39.9170 S   0  0  0  0  0  0  0  0  0  0  0  0
   40.7549   31.5853   38.5566 H   0  0  0  0  0  0  0  0  0  0  0  0
   41.4278   33.1822   37.9881 H   0  0  0  0  0  0  0  0  0  0  0  0
   41.5745   32.3817   41.3933 H   0  0  0  0  0  0  0  0  0  0  0  0
   42.8852   31.1780   41.3392 H   0  0  0  0  0  0  0  0  0  0  0  0
   43.9859   30.5730   39.2923 H   0  0  0  0  0  0  0  0  0  0  0  0
   44.1329   31.8510   38.0912 H   0  0  0  0  0  0  0  0  0  0  0  0
   45.9882   34.3416   39.5260 H   0  0  0  0  0  0  0  0  0  0  0  0
   44.3523   33.1795   41.9164 H   0  0  0  0  0  0  0  0  0  0  0  0
  1  6  2  0
  2  1  1  0
  2  3  2  0
  3  4  1  0
  4  5  2  0
  6  5  1  0
  7 12  1  0
  7  3  1  0
  8  7  2  0
  9 10  2  0
  9  8  1  0
 10 11  1  0
 11 12  2  0
 13  2  1  0
 14 13  2  0
  1 15  1  0
  5 16  1  0
  8 17  1  0
  9 18  1  0
 10 19  1  0
 11 20  1  0
 21 22  1  0
 21 23  1  0
 23 24  1  0
 24 25  1  0
 23 26  1  0
 26 27  1  0
 27 28  1  0
 28 29  2  0
 28 30  1  0
 30 31  1  0
 31 32  1  0
 32 23  1  0
 31 27  1  0
 21 33  1  0
 21 34  1  0
 24 35  1  0
 24 36  1  0
 26 37  1  0
 26 38  1  0
 30 39  1  6
 31 40  1  1
 13 30  1  0
M  ISO  8  15  14  16  14  17  14  18  14  19  14  20  14  22   8  25   8
M  END
>  <DihAtoms>  (1) 
1,12,29,27

>  <DihDeg>  (1) 
60.00911303127712

$$$$
