
     RDKit          3D

 53 56  0  0  0  0  0  0  0  0999 V2000
   45.8577   31.2482   46.3810 C   0  0  2  0  0  0  0  0  0  0  0  0
   45.5946   30.5691   47.6868 C   0  0  0  0  0  0  0  0  0  0  0  0
   44.9376   29.2684   47.3746 C   0  0  0  0  0  0  0  0  0  0  0  0
   44.6392   29.0202   45.9387 C   0  0  0  0  0  0  0  0  0  0  0  0
   45.8856   29.1613   45.1100 C   0  0  0  0  0  0  0  0  0  0  0  0
   46.6741   30.3202   45.5030 C   0  0  2  0  0  0  0  0  0  0  0  0
   46.4607   32.5977   46.5057 C   0  0  0  0  0  0  0  0  0  0  0  0
   47.2947   32.8903   47.3998 O   0  0  0  0  0  0  0  0  0  0  0  0
   44.6778   35.3727   44.9381 C   0  0  0  0  0  0  0  0  0  0  0  0
   45.2607   35.4795   43.6515 C   0  0  0  0  0  0  0  0  0  0  0  0
   46.2707   34.5807   43.3583 C   0  0  0  0  0  0  0  0  0  0  0  0
   46.5741   33.7178   44.3298 N   0  0  0  0  0  0  0  0  0  0  0  0
   46.0389   33.6098   45.5278 C   0  0  0  0  0  0  0  0  0  0  0  0
   45.0566   34.4698   45.8387 N   0  0  0  0  0  0  0  0  0  0  0  0
   46.8702   34.6798   42.0372 C   0  0  0  0  0  0  0  0  0  0  0  0
   47.6349   33.5467   41.7839 F   0  0  0  0  0  0  0  0  0  0  0  0
   47.6823   35.7668   42.0518 F   0  0  0  0  0  0  0  0  0  0  0  0
   45.9167   34.7185   41.0265 F   0  0  0  0  0  0  0  0  0  0  0  0
   47.8408   29.7845   46.2598 C   0  0  0  0  0  0  0  0  0  0  0  0
   44.8995   31.3637   45.8337 H   0  0  0  0  0  0  0  0  0  0  0  0
   46.4695   30.4589   48.3384 H   0  0  0  0  0  0  0  0  0  0  0  0
   44.9056   31.2590   48.2692 H   0  0  0  0  0  0  0  0  0  0  0  0
   45.4471   28.3701   47.8120 H   0  0  0  0  0  0  0  0  0  0  0  0
   43.9394   29.2664   47.8986 H   0  0  0  0  0  0  0  0  0  0  0  0
   44.2704   27.9678   45.8703 H   0  0  0  0  0  0  0  0  0  0  0  0
   43.7903   29.6467   45.5575 H   0  0  0  0  0  0  0  0  0  0  0  0
   46.3752   28.1713   45.0824 H   0  0  0  0  0  0  0  0  0  0  0  0
   45.5249   29.3168   44.0507 H   0  0  0  0  0  0  0  0  0  0  0  0
   47.0392   30.8921   44.6477 H   0  0  0  0  0  0  0  0  0  0  0  0
   43.8725   36.0674   45.2113 H   0  0  0  0  0  0  0  0  0  0  0  0
   44.9025   36.2376   42.9706 H   0  0  0  0  0  0  0  0  0  0  0  0
   47.5905   29.2449   47.1921 H   0  0  0  0  0  0  0  0  0  0  0  0
   48.4787   30.6536   46.5386 H   0  0  0  0  0  0  0  0  0  0  0  0
   47.1805   24.6594   43.0268 C   0  0  0  0  0  0  0  0  0  0  0  0
   46.8486   23.7467   43.5616 H   0  0  0  0  0  0  0  0  0  0  0  0
   48.3531   25.3505   43.6914 C   0  0  0  0  0  0  0  0  0  0  0  0
   49.6699   24.7649   43.2828 C   0  0  0  0  0  0  0  0  0  0  0  0
   49.9966   24.0767   44.1164 H   0  0  0  0  0  0  0  0  0  0  0  0
   48.1777   25.4337   45.1884 C   0  0  0  0  0  0  0  0  0  0  0  0
   48.6909   26.7124   45.6307 N   0  0  0  0  0  0  0  0  0  0  0  0
   49.3864   27.8056   46.2212 C   0  0  0  0  0  0  0  0  0  0  0  0
   50.2788   27.8100   47.1318 O   0  0  0  0  0  0  0  0  0  0  0  0
   48.7083   28.8493   45.4146 C   0  0  1  0  0  0  0  0  0  0  0  0
   47.8479   27.6998   44.9482 C   0  0  1  0  0  0  0  0  0  0  0  0
   48.2115   27.1270   43.2401 S   0  0  0  0  0  0  0  0  0  0  0  0
   46.3359   25.3787   42.9788 H   0  0  0  0  0  0  0  0  0  0  0  0
   47.4769   24.4486   41.9758 H   0  0  0  0  0  0  0  0  0  0  0  0
   50.4575   25.4870   43.0530 H   0  0  0  0  0  0  0  0  0  0  0  0
   49.4745   24.0692   42.4155 H   0  0  0  0  0  0  0  0  0  0  0  0
   47.0950   25.4139   45.4462 H   0  0  0  0  0  0  0  0  0  0  0  0
   48.7117   24.6291   45.6910 H   0  0  0  0  0  0  0  0  0  0  0  0
   49.2828   29.3252   44.6202 H   0  0  0  0  0  0  0  0  0  0  0  0
   46.7946   27.7109   45.2229 H   0  0  0  0  0  0  0  0  0  0  0  0
  1  7  1  0
  1  2  1  0
  3  2  1  0
  4  3  1  0
  5  6  1  0
  5  4  1  0
  6 19  1  0
  6  1  1  0
  7  8  2  0
  9 14  2  0
 10  9  1  0
 11 10  2  0
 11 12  1  0
 12 13  2  0
 13 14  1  0
 13  7  1  0
 15 17  1  0
 15 11  1  0
 16 15  1  0
 18 15  1  0
  1 20  1  6
  2 21  1  0
  2 22  1  0
  3 23  1  0
  3 24  1  0
  4 25  1  0
  4 26  1  0
  5 27  1  0
  5 28  1  0
  6 29  1  6
  9 30  1  0
 10 31  1  0
 19 32  1  0
 19 33  1  0
 34 35  1  0
 34 36  1  0
 36 37  1  0
 37 38  1  0
 36 39  1  0
 39 40  1  0
 40 41  1  0
 41 42  2  0
 41 43  1  0
 43 44  1  0
 44 45  1  0
 45 36  1  0
 44 40  1  0
 34 46  1  0
 34 47  1  0
 37 48  1  0
 37 49  1  0
 39 50  1  0
 39 51  1  0
 43 52  1  6
 44 53  1  1
 19 43  1  0
M  ISO  8  20  13  21  13  22  13  23  13  24  13  25  13  26  13  27  13
M  ISO  8  28  13  29  13  30  14  31  14  32   8  33   8  35   8  38   8
M  END
>  <DihAtoms>  (1) 
5,18,42,40

>  <DihDeg>  (1) 
59.85295825572929

$$$$
