
     RDKit          3D

 31 33  0  0  0  0  0  0  0  0999 V2000
   45.1984   35.9694   43.3698 C   0  0  0  0  0  0  0  0  0  0  0  0
   46.0835   34.9021   43.1555 C   0  0  0  0  0  0  0  0  0  0  0  0
   46.2535   33.9505   44.1673 C   0  0  0  0  0  0  0  0  0  0  0  0
   45.5461   34.1143   45.3104 N   0  0  0  0  0  0  0  0  0  0  0  0
   44.6998   35.1527   45.4903 C   0  0  0  0  0  0  0  0  0  0  0  0
   44.5290   36.0732   44.5239 N   0  0  0  0  0  0  0  0  0  0  0  0
   46.8010   34.7981   41.9080 C   0  0  0  0  0  0  0  0  0  0  0  0
   47.9177   35.3926   41.8477 O   0  0  0  0  0  0  0  0  0  0  0  0
   45.0420   36.7181   42.6179 H   0  0  0  0  0  0  0  0  0  0  0  0
   46.9360   33.1308   43.9971 H   0  0  0  0  0  0  0  0  0  0  0  0
   44.2506   35.0740   46.4739 H   0  0  0  0  0  0  0  0  0  0  0  0
   47.8977   32.5751   36.3015 C   0  0  0  0  0  0  0  0  0  0  0  0
   48.4307   31.5864   36.3516 H   0  0  0  0  0  0  0  0  0  0  0  0
   47.0151   32.6339   37.5451 C   0  0  0  0  0  0  0  0  0  0  0  0
   46.5216   31.2743   37.9208 C   0  0  0  0  0  0  0  0  0  0  0  0
   47.2668   30.5296   37.5145 H   0  0  0  0  0  0  0  0  0  0  0  0
   46.0003   33.7118   37.5131 C   0  0  0  0  0  0  0  0  0  0  0  0
   45.7557   34.2048   38.8211 N   0  0  0  0  0  0  0  0  0  0  0  0
   45.1417   34.6677   40.0185 C   0  0  0  0  0  0  0  0  0  0  0  0
   44.0772   35.3422   40.2244 O   0  0  0  0  0  0  0  0  0  0  0  0
   46.2485   34.0324   40.7652 C   0  0  1  0  0  0  0  0  0  0  0  0
   46.9938   34.4167   39.4916 C   0  0  1  0  0  0  0  0  0  0  0  0
   48.1403   33.1911   38.8849 S   0  0  0  0  0  0  0  0  0  0  0  0
   47.2837   32.5700   35.3832 H   0  0  0  0  0  0  0  0  0  0  0  0
   48.6068   33.4344   36.3290 H   0  0  0  0  0  0  0  0  0  0  0  0
   46.5603   31.1110   39.0225 H   0  0  0  0  0  0  0  0  0  0  0  0
   45.5352   30.9975   37.5073 H   0  0  0  0  0  0  0  0  0  0  0  0
   46.3813   34.5481   36.8885 H   0  0  0  0  0  0  0  0  0  0  0  0
   45.1073   33.3123   36.9892 H   0  0  0  0  0  0  0  0  0  0  0  0
   46.1766   32.9451   40.9129 H   0  0  0  0  0  0  0  0  0  0  0  0
   47.2993   35.4753   39.4741 H   0  0  0  0  0  0  0  0  0  0  0  0
  1  6  2  0
  2  1  1  0
  2  3  2  0
  3  4  1  0
  4  5  2  0
  6  5  1  0
  7  2  1  0
  8  7  2  0
  1  9  1  0
  3 10  1  0
  5 11  1  0
 12 13  1  0
 12 14  1  0
 14 15  1  0
 15 16  1  0
 14 17  1  0
 17 18  1  0
 18 19  1  0
 19 20  2  0
 19 21  1  0
 21 22  1  0
 22 23  1  0
 23 14  1  0
 22 18  1  0
 12 24  1  0
 12 25  1  0
 15 26  1  0
 15 27  1  0
 17 28  1  0
 17 29  1  0
 21 30  1  1
 22 31  1  1
  7 21  1  0
M  ISO  5   9  14  10  14  11  14  13   8  16   8
M  END
>  <DihAtoms>  (1) 
1,6,20,18

>  <DihDeg>  (1) 
60.00722590004805

$$$$
