
     RDKit          3D

 31 33  0  0  0  0  0  0  0  0999 V2000
   45.1984   35.9694   43.3698 C   0  0  0  0  0  0  0  0  0  0  0  0
   46.0835   34.9021   43.1555 C   0  0  0  0  0  0  0  0  0  0  0  0
   46.2535   33.9505   44.1673 C   0  0  0  0  0  0  0  0  0  0  0  0
   45.5461   34.1143   45.3104 N   0  0  0  0  0  0  0  0  0  0  0  0
   44.6998   35.1527   45.4903 C   0  0  0  0  0  0  0  0  0  0  0  0
   44.5290   36.0732   44.5239 N   0  0  0  0  0  0  0  0  0  0  0  0
   46.8010   34.7981   41.9080 C   0  0  0  0  0  0  0  0  0  0  0  0
   47.9177   35.3926   41.8477 O   0  0  0  0  0  0  0  0  0  0  0  0
   45.0420   36.7181   42.6179 H   0  0  0  0  0  0  0  0  0  0  0  0
   46.9360   33.1308   43.9971 H   0  0  0  0  0  0  0  0  0  0  0  0
   44.2506   35.0740   46.4739 H   0  0  0  0  0  0  0  0  0  0  0  0
   41.7400   33.3123   38.7847 C   0  0  0  0  0  0  0  0  0  0  0  0
   41.4822   34.1011   38.0261 H   0  0  0  0  0  0  0  0  0  0  0  0
   43.2619   33.3256   38.8962 C   0  0  0  0  0  0  0  0  0  0  0  0
   43.8955   33.6678   37.5867 C   0  0  0  0  0  0  0  0  0  0  0  0
   43.1401   34.2707   37.0029 H   0  0  0  0  0  0  0  0  0  0  0  0
   43.8240   32.1552   39.6082 C   0  0  0  0  0  0  0  0  0  0  0  0
   44.9986   32.5197   40.3162 N   0  0  0  0  0  0  0  0  0  0  0  0
   46.3102   32.5586   40.8667 C   0  0  0  0  0  0  0  0  0  0  0  0
   47.1021   31.6322   41.2477 O   0  0  0  0  0  0  0  0  0  0  0  0
   46.2485   34.0324   40.7652 C   0  0  1  0  0  0  0  0  0  0  0  0
   44.7744   33.7369   41.0200 C   0  0  1  0  0  0  0  0  0  0  0  0
   43.6289   34.7042   40.0522 S   0  0  0  0  0  0  0  0  0  0  0  0
   41.3832   32.3457   38.3862 H   0  0  0  0  0  0  0  0  0  0  0  0
   41.3090   33.5392   39.7870 H   0  0  0  0  0  0  0  0  0  0  0  0
   44.7515   34.3700   37.7134 H   0  0  0  0  0  0  0  0  0  0  0  0
   44.1728   32.8050   36.9548 H   0  0  0  0  0  0  0  0  0  0  0  0
   43.0747   31.7834   40.3396 H   0  0  0  0  0  0  0  0  0  0  0  0
   43.9602   31.3456   38.8614 H   0  0  0  0  0  0  0  0  0  0  0  0
   46.4379   34.4614   39.7706 H   0  0  0  0  0  0  0  0  0  0  0  0
   44.5473   33.5650   42.0845 H   0  0  0  0  0  0  0  0  0  0  0  0
  1  6  2  0
  2  1  1  0
  2  3  2  0
  3  4  1  0
  4  5  2  0
  6  5  1  0
  7  2  1  0
  8  7  2  0
  1  9  1  0
  3 10  1  0
  5 11  1  0
 12 13  1  0
 12 14  1  0
 14 15  1  0
 15 16  1  0
 14 17  1  0
 17 18  1  0
 18 19  1  0
 19 20  2  0
 19 21  1  0
 21 22  1  0
 22 23  1  0
 23 14  1  0
 22 18  1  0
 12 24  1  0
 12 25  1  0
 15 26  1  0
 15 27  1  0
 17 28  1  0
 17 29  1  0
 21 30  1  6
 22 31  1  1
  7 21  1  0
M  ISO  5   9  14  10  14  11  14  13   8  16   8
M  END
>  <DihAtoms>  (1) 
1,6,20,18

>  <DihDeg>  (1) 
60.00722590004805

$$$$
