REMARK  Name = 
REMARK  5 active torsions:
REMARK  status: ('A' for Active; 'I' for Inactive)
REMARK    1  A    between atoms: C_3  and  C_18
REMARK    2  A    between atoms: C_14  and  N_17
REMARK    3  A    between atoms: C_15  and  C_42
REMARK    4  A    between atoms: C_33  and  C_35
REMARK    5  A    between atoms: C_35  and  C_36
REMARK                            x       y       z     vdW  Elec       q    Type
REMARK                         _______ _______ _______ _____ _____    ______ ____
ROOT
ATOM      1  C   UNL     1      45.346  34.686  42.352  0.00  0.00    +0.000 A 
ATOM      2  C   UNL     1      46.470  35.215  41.650  0.00  0.00    +0.000 A 
ATOM      3  C   UNL     1      47.733  34.925  42.199  0.00  0.00    +0.000 A 
ATOM      4  N   UNL     1      47.782  34.186  43.321  0.00  0.00    +0.000 NA
ATOM      5  C   UNL     1      46.685  33.709  43.947  0.00  0.00    +0.000 A 
ATOM      6  N   UNL     1      45.458  33.966  43.450  0.00  0.00    +0.000 NA
ATOM      7  C   UNL     1      43.741  34.146  40.731  0.00  0.00    +0.000 C 
ATOM      8  O   UNL     1      44.648  33.373  40.269  0.00  0.00    +0.000 OA
ATOM      9  N   UNL     1      44.021  34.934  41.861  0.00  0.00    +0.000 N 
ATOM     10  N   UNL     1      42.492  34.149  40.056  0.00  0.00    +0.000 N 
ATOM     11  C   UNL     1      42.392  33.556  38.708  0.00  0.00    +0.000 C 
ATOM     12  C   UNL     1      41.317  34.385  38.074  0.00  0.00    +0.000 C 
ATOM     13  C   UNL     1      40.821  35.313  39.145  0.00  0.00    +0.000 C 
ATOM     14  C   UNL     1      41.195  34.621  40.433  0.00  0.00    +0.000 C 
ATOM     15  H   UNL     1      46.240  35.784  40.769  0.00  0.00    +0.000 HD
ATOM     16  H   UNL     1      46.795  33.110  44.862  0.00  0.00    +0.000 HD
ATOM     17  H   UNL     1      43.275  35.558  42.177  0.00  0.00    +0.000 HD
ATOM     18  H   UNL     1      42.091  32.502  38.902  0.00  0.00    +0.000 HD
ATOM     19  H   UNL     1      43.343  33.579  38.175  0.00  0.00    +0.000 HD
ATOM     20  H   UNL     1      41.730  34.926  37.197  0.00  0.00    +0.000 HD
ATOM     21  H   UNL     1      40.493  33.681  37.785  0.00  0.00    +0.000 HD
ATOM     22  H   UNL     1      39.949  35.864  39.017  0.00  0.00    +0.000 HD
ATOM     23  H   UNL     1      41.627  36.128  39.121  0.00  0.00    +0.000 HD
ATOM     24  H   UNL     1      41.200  35.341  41.247  0.00  0.00    +0.000 HD
ENDROOT
BRANCH  14  27
ATOM     25  C   UNL     1      38.898  33.506  40.740  0.00  0.00    +0.000 C 
ATOM     26  O   UNL     1      38.498  34.507  40.111  0.00  0.00    +0.000 OA
ATOM     27  N   UNL     1      40.347  33.496  40.796  0.00  0.00    +0.000 N 
ATOM     28  H   UNL     1      40.844  32.611  41.124  0.00  0.00    +0.000 HD
BRANCH  25  34
ATOM     29  C   UNL     1      38.722  28.687  42.487  0.00  0.00    +0.000 C 
ATOM     30  C   UNL     1      39.230  29.131  41.106  0.00  0.00    +0.000 C 
ATOM     31  N   UNL     1      38.522  30.374  40.809  0.00  0.00    +0.000 N 
ATOM     32  C   UNL     1      37.716  31.459  40.356  0.00  0.00    +0.000 C 
ATOM     33  O   UNL     1      36.912  31.423  39.365  0.00  0.00    +0.000 OA
ATOM     34  C   UNL     1      38.215  32.386  41.406  0.00  0.00    +0.000 C 
ATOM     35  C   UNL     1      39.142  31.286  41.763  0.00  0.00    +0.000 C 
ATOM     36  S   UNL     1      38.719  30.346  43.285  0.00  0.00    +0.000 S 
BRANCH  29  37
ATOM     37  C   UNL     1      39.678  27.766  43.156  0.00  0.00    +0.000 C 
ATOM     38  H   UNL     1      39.350  26.700  43.034  0.00  0.00    +0.000 HD
ENDBRANCH  29  37
BRANCH  29  39
ATOM     39  C   UNL     1      37.342  28.158  42.279  0.00  0.00    +0.000 C 
ATOM     40  H   UNL     1      36.632  28.911  42.724  0.00  0.00    +0.000 HD
ENDBRANCH  29  39
ENDBRANCH  25  34
ENDBRANCH  14  27
BRANCH   3  41
ATOM     41  C   UNL     1      48.863  35.476  41.463  0.00  0.00    +0.000 C 
ATOM     42  F   UNL     1      49.998  34.729  41.768  0.00  0.00    +0.000 F 
ATOM     43  F   UNL     1      49.112  36.752  41.987  0.00  0.00    +0.000 F 
ATOM     44  F   UNL     1      48.694  35.479  40.112  0.00  0.00    +0.000 F 
ENDBRANCH   3  41
TORSDOF 5
