
     RDKit          3D

 56 60  0  0  0  0  0  0  0  0999 V2000
   48.9685   34.7717   41.5279 C   0  0  1  0  0  0  0  0  0  0  0  0
   50.0769   34.7980   42.5359 C   0  0  0  0  0  0  0  0  0  0  0  0
   49.3394   33.5395   42.1966 C   0  0  2  0  0  0  0  0  0  0  0  0
   50.1321   32.6367   41.3596 N   0  0  0  0  0  0  0  0  0  0  0  0
   49.4749   32.1854   40.2014 C   0  0  0  0  0  0  0  0  0  0  0  0
   50.4470   31.2513   39.5060 C   0  0  0  0  0  0  0  0  0  0  0  0
   50.7472   30.1088   40.2926 N   0  0  0  0  0  0  0  0  0  0  0  0
   50.6320   30.3262   41.7219 C   0  0  0  0  0  0  0  0  0  0  0  0
   51.0067   31.7790   42.0446 C   0  0  0  0  0  0  0  0  0  0  0  0
   47.6670   35.3954   41.9034 C   0  0  0  0  0  0  0  0  0  0  0  0
   46.6967   34.2723   42.1506 C   0  0  0  0  0  0  0  0  0  0  0  0
   44.4966   35.8865   44.7211 C   0  0  0  0  0  0  0  0  0  0  0  0
   45.1648   35.6453   43.4878 C   0  0  0  0  0  0  0  0  0  0  0  0
   45.9774   34.5432   43.4313 C   0  0  0  0  0  0  0  0  0  0  0  0
   46.1080   33.7467   44.5274 N   0  0  0  0  0  0  0  0  0  0  0  0
   45.4838   33.9854   45.6564 C   0  0  0  0  0  0  0  0  0  0  0  0
   44.6730   35.0566   45.7636 N   0  0  0  0  0  0  0  0  0  0  0  0
   49.2775   34.9889   40.5064 H   0  0  0  0  0  0  0  0  0  0  0  0
   49.8342   35.3248   43.4990 H   0  0  0  0  0  0  0  0  0  0  0  0
   51.1167   34.9647   42.2158 H   0  0  0  0  0  0  0  0  0  0  0  0
   48.8434   33.0880   43.0455 H   0  0  0  0  0  0  0  0  0  0  0  0
   48.5362   31.6154   40.3913 H   0  0  0  0  0  0  0  0  0  0  0  0
   49.3172   33.0419   39.5066 H   0  0  0  0  0  0  0  0  0  0  0  0
   49.9775   30.9683   38.5421 H   0  0  0  0  0  0  0  0  0  0  0  0
   51.3850   31.8186   39.2400 H   0  0  0  0  0  0  0  0  0  0  0  0
   51.6332   29.6473   40.0057 H   0  0  0  0  0  0  0  0  0  0  0  0
   51.2975   29.5991   42.2233 H   0  0  0  0  0  0  0  0  0  0  0  0
   49.5675   30.2203   42.0232 H   0  0  0  0  0  0  0  0  0  0  0  0
   52.0538   31.9717   41.6780 H   0  0  0  0  0  0  0  0  0  0  0  0
   50.9971   31.9479   43.1236 H   0  0  0  0  0  0  0  0  0  0  0  0
   47.8005   35.9857   42.8387 H   0  0  0  0  0  0  0  0  0  0  0  0
   47.2931   36.1353   41.1423 H   0  0  0  0  0  0  0  0  0  0  0  0
   47.0752   33.2671   42.0461 H   0  0  0  0  0  0  0  0  0  0  0  0
   45.9043   34.3742   41.3504 H   0  0  0  0  0  0  0  0  0  0  0  0
   43.8520   36.7620   44.7670 H   0  0  0  0  0  0  0  0  0  0  0  0
   44.9813   36.3511   42.6867 H   0  0  0  0  0  0  0  0  0  0  0  0
   45.5702   33.1684   46.8812 C   0  0  0  0  0  0  0  0  0  0  0  0
   46.8529   32.4610   47.0757 C   0  0  1  0  0  0  0  0  0  0  0  0
   48.0647   33.3025   47.1632 C   0  0  0  0  0  0  0  0  0  0  0  0
   48.8765   32.9742   46.4473 H   0  0  0  0  0  0  0  0  0  0  0  0
   46.7381   31.6148   48.3559 C   0  0  0  0  0  0  0  0  0  0  0  0
   47.8470   30.6572   48.2726 N   0  0  0  0  0  0  0  0  0  0  0  0
   49.0018   29.7819   48.2834 C   0  0  0  0  0  0  0  0  0  0  0  0
   49.8921   29.8905   49.1668 O   0  0  0  0  0  0  0  0  0  0  0  0
   48.6011   29.0239   47.0950 C   0  0  1  0  0  0  0  0  0  0  0  0
   49.1996   29.2129   46.1817 H   0  0  0  0  0  0  0  0  0  0  0  0
   47.3174   29.7716   47.2112 C   0  0  2  0  0  0  0  0  0  0  0  0
   47.1010   31.0602   45.9075 S   0  0  0  0  0  0  0  0  0  0  0  0
   44.7644   32.3763   46.8557 H   0  0  0  0  0  0  0  0  0  0  0  0
   45.3471   33.7670   47.7821 H   0  0  0  0  0  0  0  0  0  0  0  0
   48.5271   33.1921   48.1663 H   0  0  0  0  0  0  0  0  0  0  0  0
   47.8433   34.3840   47.0645 H   0  0  0  0  0  0  0  0  0  0  0  0
   46.8807   32.2361   49.2473 H   0  0  0  0  0  0  0  0  0  0  0  0
   45.8052   31.0391   48.3660 H   0  0  0  0  0  0  0  0  0  0  0  0
   48.5429   27.9420   47.3373 H   0  0  0  0  0  0  0  0  0  0  0  0
   46.4092   29.2391   47.4827 H   0  0  0  0  0  0  0  0  0  0  0  0
  1 10  1  0
  1  3  1  0
  1  2  1  0
  3  2  1  0
  4  9  1  0
  4  3  1  0
  5  4  1  0
  6  5  1  0
  6  7  1  0
  7  8  1  0
  8  9  1  0
 10 11  1  0
 11 14  1  0
 12 17  2  0
 13 12  1  0
 14 13  2  0
 14 15  1  0
 15 16  2  0
 16 17  1  0
  1 18  1  6
  2 19  1  0
  2 20  1  0
  3 21  1  1
  5 22  1  0
  5 23  1  0
  6 24  1  0
  6 25  1  0
  7 26  1  0
  8 27  1  0
  8 28  1  0
  9 29  1  0
  9 30  1  0
 10 31  1  0
 10 32  1  0
 11 33  1  0
 11 34  1  0
 12 35  1  0
 13 36  1  0
 38 37  1  6
 38 39  1  0
 39 40  1  0
 38 41  1  0
 41 42  1  0
 42 43  1  0
 43 44  2  0
 43 45  1  0
 45 46  1  6
 45 47  1  0
 47 48  1  0
 48 38  1  0
 47 42  1  0
 37 49  1  0
 37 50  1  0
 39 51  1  0
 39 52  1  0
 41 53  1  0
 41 54  1  0
 45 55  1  0
 47 56  1  1
 16 37  1  0
M  ISO  8  18  13  19  13  20  13  21  13  22  13  23  13  24  13  25  13
M  ISO  8  26   5  27  13  28  13  29  13  30  13  31   8  32   8  33   8
M  ISO  5  34   8  35  14  36  14  40   8  46  15
M  END
>  <DihAtoms>  (1) 
14,15,36,37

>  <DihDeg>  (1) 
179.84641215372324

$$$$
