
 OpenBabel03252508513D

 31 34  0  0  1  0  0  0  0  0999 V2000
   46.1890   34.1980   41.0260 C   0  0  0  0  0  0  0  0  0  0  0  0
   46.6910   34.8900   42.1280 C   0  0  0  0  0  0  0  0  0  0  0  0
   47.9940   35.3870   42.0310 C   0  0  0  0  0  0  0  0  0  0  0  0
   48.6850   35.1660   40.8780 N   0  0  0  0  0  0  0  0  0  0  0  0
   48.1650   34.4960   39.8420 C   0  0  0  0  0  0  0  0  0  0  0  0
   46.9080   34.0100   39.9210 N   0  0  0  0  0  0  0  0  0  0  0  0
   48.3790   35.9150   42.8700 H   0  0  0  0  0  0  0  0  0  0  0  0
   48.6980   34.3110   38.9180 H   0  0  0  0  0  0  0  0  0  0  0  0
   45.8550   35.0670   43.3170 C   0  0  0  0  0  0  0  0  0  0  0  0
   45.0720   36.1930   43.5240 C   0  0  0  0  0  0  0  0  0  0  0  0
   44.4700   35.9430   44.7390 C   0  0  0  0  0  0  0  0  0  0  0  0
   44.8610   34.7450   45.2380 N   0  0  0  0  0  0  0  0  0  0  0  0
   45.6960   34.2400   44.3580 N   0  0  0  0  0  0  0  0  0  0  0  0
   44.9350   37.0850   42.9010 H   0  0  0  0  0  0  0  0  0  0  0  0
   43.7690   36.6040   45.2520 H   0  0  0  0  0  0  0  0  0  0  0  0
   44.5280   34.3540   46.1490 H   0  0  0  0  0  0  0  0  0  0  0  0
   44.9080   33.7020   41.1030 O   0  0  0  0  0  0  0  0  0  0  0  0
   43.7890   34.2150   40.5100 C   0  0  0  0  0  0  0  0  0  0  0  0
   43.3670   35.4160   40.5490 O   0  0  0  0  0  0  0  0  0  0  0  0
   39.3250   32.0760   39.1830 C   0  0  0  0  0  0  0  0  0  0  0  0
   39.3220   33.5910   39.1750 C   0  0  0  0  0  2  0  0  0  0  0  0
   40.7100   34.0160   39.1930 N   0  0  0  0  0  0  0  0  0  0  0  0
   41.9720   34.6330   38.8620 C   0  0  0  0  0  0  0  0  0  0  0  0
   42.1720   35.6720   38.1440 O   0  0  0  0  0  0  0  0  0  0  0  0
   42.7050   33.6100   39.6480 C   0  0  2  0  0  3  0  0  0  0  0  0
   41.3920   33.4580   40.3460 C   0  0  2  0  0  3  0  0  0  0  0  0
   40.7240   31.7590   40.3270 S   0  0  0  0  0  0  0  0  0  0  0  0
   38.0370   31.5430   39.7680 C   0  0  0  0  0  2  0  0  0  0  0  0
   37.1830   32.2070   39.5180 H   0  0  0  0  0  0  0  0  0  0  0  0
   39.5510   31.4750   37.8300 C   0  0  0  0  0  2  0  0  0  0  0  0
   40.6120   31.4280   37.5160 H   0  0  0  0  0  0  0  0  0  0  0  0
  1 17  1  0  0  0  0
  1  2  1  0  0  0  0
  2  9  1  0  0  0  0
  3  2  2  0  0  0  0
  3  7  1  0  0  0  0
  4  3  1  0  0  0  0
  5  6  1  0  0  0  0
  5  4  2  0  0  0  0
  6  1  2  0  0  0  0
  8  5  1  0  0  0  0
  9 10  1  0  0  0  0
  9 13  2  0  0  0  0
 10 11  2  0  0  0  0
 11 12  1  0  0  0  0
 11 15  1  0  0  0  0
 12 16  1  0  0  0  0
 13 12  1  0  0  0  0
 14 10  1  0  0  0  0
 18 19  2  0  0  0  0
 18 17  1  0  0  0  0
 20 28  1  0  0  0  0
 20 27  1  0  0  0  0
 21 20  1  0  0  0  0
 21 22  1  0  0  0  0
 22 26  1  0  0  0  0
 23 22  1  0  0  0  0
 23 25  1  0  0  0  0
 24 23  2  0  0  0  0
 25 26  1  0  0  0  0
 25 18  1  1  0  0  0
 26 27  1  6  0  0  0
 29 28  1  0  0  0  0
 30 20  1  0  0  0  0
 31 30  1  0  0  0  0
M  END
>  <minimizedAffinity>
-6.01876497

>  <minimizedRMSD>
0.311183453

$$$$
