
 OpenBabel03252503583D

 23 26  0  0  1  0  0  0  0  0999 V2000
   36.0670   29.3720   41.2570 C   0  0  0  0  0  2  0  0  0  0  0  0
   37.2150   28.6500   41.9160 C   0  0  2  0  0  0  0  0  0  0  0  0
   38.0000   27.8600   40.9190 C   0  0  0  0  0  2  0  0  0  0  0  0
   37.6430   26.4850   41.0100 N   0  0  2  0  0  0  0  0  0  0  0  0
   37.2530   25.1530   40.7070 C   0  0  2  0  0  0  0  0  0  0  0  0
   37.1790   24.3800   39.7180 O   0  0  0  0  0  1  0  0  0  0  0  0
   36.8820   24.8320   42.1100 C   0  0  0  0  0  3  0  0  0  0  0  0
   37.3030   23.9050   42.5230 H   0  0  0  0  0  0  0  0  0  0  0  0
   37.6880   26.0760   42.3880 C   0  0  1  0  0  0  0  0  0  0  0  0
   36.6880   27.4250   43.1370 S   0  0  0  0  0  0  0  0  0  0  0  0
   38.1830   29.5870   42.6050 C   0  0  0  0  0  2  0  0  0  0  0  0
   37.9200   29.7360   43.6570 H   0  0  0  0  0  0  0  0  0  0  0  0
   37.2630   32.3860   39.5560 C   0  0  0  0  0  0  0  0  0  0  0  0
   37.3810   32.0040   38.2190 C   0  0  0  0  0  0  0  0  0  0  0  0
   37.0400   30.6760   37.9090 C   0  0  0  0  0  0  0  0  0  0  0  0
   36.6220   29.8620   38.9170 N   0  0  0  0  0  0  0  0  0  0  0  0
   36.5240   30.2870   40.2010 C   0  0  0  0  0  0  0  0  0  0  0  0
   36.8470   31.5460   40.5000 N   0  0  0  0  0  0  0  0  0  0  0  0
   37.7110   32.6470   37.4260 H   0  0  0  0  0  0  0  0  0  0  0  0
   37.1070   30.3090   36.9000 H   0  0  0  0  0  0  0  0  0  0  0  0
   37.6230   33.7500   39.8140 C   0  0  0  0  0  0  0  0  0  0  0  0
   38.5260   34.1610   40.5940 O   0  0  0  0  0  0  0  0  0  0  0  0
   37.1060   34.5860   39.3190 H   0  0  0  0  0  0  0  0  0  0  0  0
  2  1  1  6  0  0  0
  2 11  1  0  0  0  0
  2 10  1  0  0  0  0
  3  2  1  0  0  0  0
  4  3  1  1  0  0  0
  4  9  1  0  0  0  0
  5  6  1  6  0  0  0
  5  4  1  0  0  0  0
  5  7  1  0  0  0  0
  5  9  1  0  0  0  0
  7  8  1  0  0  0  0
  9  7  1  1  0  0  0
  9 10  1  0  0  0  0
 11 12  1  0  0  0  0
 13 21  1  0  0  0  0
 13 18  1  0  0  0  0
 14 13  2  0  0  0  0
 15 14  1  0  0  0  0
 15 16  2  0  0  0  0
 16 17  1  0  0  0  0
 17 18  2  0  0  0  0
 17  1  1  0  0  0  0
 19 14  1  0  0  0  0
 20 15  1  0  0  0  0
 21 22  2  0  0  0  0
 23 21  1  0  0  0  0
M  END
>  <minimizedAffinity>
-4.86932945

$$$$

 OpenBabel03252503583D

 23 26  0  0  1  0  0  0  0  0999 V2000
   38.1610   28.5470   43.2860 C   0  0  0  0  0  2  0  0  0  0  0  0
   39.4170   27.9060   42.7520 C   0  0  2  0  0  0  0  0  0  0  0  0
   39.2240   27.4250   41.3500 C   0  0  0  0  0  2  0  0  0  0  0  0
   39.0170   26.0180   41.3510 N   0  0  1  0  0  0  0  0  0  0  0  0
   38.5040   24.7120   41.1210 C   0  0  2  0  0  0  0  0  0  0  0  0
   37.7240   24.1160   40.3360 O   0  0  0  0  0  1  0  0  0  0  0  0
   39.2570   24.1050   42.2500 C   0  0  0  0  0  3  0  0  0  0  0  0
   39.8290   23.1960   42.0190 H   0  0  0  0  0  0  0  0  0  0  0  0
   40.0370   25.3920   42.1500 C   0  0  1  0  0  0  0  0  0  0  0  0
   39.9130   26.4260   43.6650 S   0  0  0  0  0  0  0  0  0  0  0  0
   40.6010   28.8490   42.7420 C   0  0  0  0  0  2  0  0  0  0  0  0
   41.1820   28.7750   43.6660 H   0  0  0  0  0  0  0  0  0  0  0  0
   36.8720   30.8280   40.7270 C   0  0  0  0  0  0  0  0  0  0  0  0
   35.7660   30.1640   40.1990 C   0  0  0  0  0  0  0  0  0  0  0  0
   35.4660   28.9020   40.7430 C   0  0  0  0  0  0  0  0  0  0  0  0
   36.2630   28.4190   41.7350 N   0  0  0  0  0  0  0  0  0  0  0  0
   37.3280   29.1100   42.2130 C   0  0  0  0  0  0  0  0  0  0  0  0
   37.6160   30.3060   41.7000 N   0  0  0  0  0  0  0  0  0  0  0  0
   35.1380   30.5470   39.4160 H   0  0  0  0  0  0  0  0  0  0  0  0
   34.6270   28.3310   40.3860 H   0  0  0  0  0  0  0  0  0  0  0  0
   37.1300   32.1090   40.1360 C   0  0  0  0  0  0  0  0  0  0  0  0
   37.2300   32.3690   38.9050 O   0  0  0  0  0  0  0  0  0  0  0  0
   37.2680   33.0100   40.7510 H   0  0  0  0  0  0  0  0  0  0  0  0
  2 11  1  1  0  0  0
  2  1  1  0  0  0  0
  2 10  1  0  0  0  0
  3  2  1  0  0  0  0
  4  3  1  6  0  0  0
  4  9  1  0  0  0  0
  5  6  1  6  0  0  0
  5  4  1  0  0  0  0
  5  9  1  0  0  0  0
  5  7  1  0  0  0  0
  8  7  1  0  0  0  0
  9  7  1  6  0  0  0
  9 10  1  0  0  0  0
 11 12  1  0  0  0  0
 13 18  1  0  0  0  0
 14 13  2  0  0  0  0
 14 15  1  0  0  0  0
 15 16  2  0  0  0  0
 16 17  1  0  0  0  0
 17  1  1  0  0  0  0
 18 17  2  0  0  0  0
 19 14  1  0  0  0  0
 20 15  1  0  0  0  0
 21 13  1  0  0  0  0
 21 23  1  0  0  0  0
 22 21  2  0  0  0  0
M  END
>  <minimizedAffinity>
-4.6621809

$$$$

 OpenBabel03252503583D

 23 26  0  0  1  0  0  0  0  0999 V2000
   37.6970   28.2440   43.3350 C   0  0  0  0  0  2  0  0  0  0  0  0
   38.0210   29.1990   42.2150 C   0  0  2  0  0  0  0  0  0  0  0  0
   36.8500   30.0690   41.8900 C   0  0  0  0  0  2  0  0  0  0  0  0
   36.2050   29.5850   40.7180 N   0  0  2  0  0  0  0  0  0  0  0  0
   35.2400   29.1380   39.7760 C   0  0  2  0  0  0  0  0  0  0  0  0
   33.9960   29.1640   39.5960 O   0  0  0  0  0  1  0  0  0  0  0  0
   36.2490   28.5120   38.8820 C   0  0  0  0  0  3  0  0  0  0  0  0
   36.1850   28.7760   37.8170 H   0  0  0  0  0  0  0  0  0  0  0  0
   37.1920   29.3630   39.6940 C   0  0  1  0  0  0  0  0  0  0  0  0
   38.4070   28.3720   40.6540 S   0  0  0  0  0  0  0  0  0  0  0  0
   39.1820   30.1150   42.5390 C   0  0  0  0  0  2  0  0  0  0  0  0
   40.1340   29.6940   42.2030 H   0  0  0  0  0  0  0  0  0  0  0  0
   38.3020   24.7880   42.2860 C   0  0  0  0  0  0  0  0  0  0  0  0
   39.5600   24.4850   42.8070 C   0  0  0  0  0  0  0  0  0  0  0  0
   40.2050   25.5010   43.5330 C   0  0  0  0  0  0  0  0  0  0  0  0
   39.5700   26.6960   43.6800 N   0  0  0  0  0  0  0  0  0  0  0  0
   38.3440   26.9370   43.1510 C   0  0  0  0  0  0  0  0  0  0  0  0
   37.7290   25.9760   42.4620 N   0  0  0  0  0  0  0  0  0  0  0  0
   40.0590   23.5410   42.6900 H   0  0  0  0  0  0  0  0  0  0  0  0
   41.1780   25.3400   43.9640 H   0  0  0  0  0  0  0  0  0  0  0  0
   37.6910   23.7160   41.5550 C   0  0  0  0  0  0  0  0  0  0  0  0
   36.8030   23.8150   40.6640 O   0  0  0  0  0  0  0  0  0  0  0  0
   37.9710   22.6660   41.7310 H   0  0  0  0  0  0  0  0  0  0  0  0
  2 11  1  1  0  0  0
  2  1  1  0  0  0  0
  3  2  1  0  0  0  0
  4  3  1  1  0  0  0
  5  6  1  6  0  0  0
  5  4  1  0  0  0  0
  7  5  1  0  0  0  0
  8  7  1  0  0  0  0
  9  7  1  6  0  0  0
  9  5  1  0  0  0  0
  9 10  1  0  0  0  0
  9  4  1  0  0  0  0
 10  2  1  0  0  0  0
 12 11  1  0  0  0  0
 13 18  2  0  0  0  0
 13 14  1  0  0  0  0
 14 15  2  0  0  0  0
 15 16  1  0  0  0  0
 15 20  1  0  0  0  0
 17  1  1  0  0  0  0
 17 16  2  0  0  0  0
 18 17  1  0  0  0  0
 19 14  1  0  0  0  0
 21 23  1  0  0  0  0
 21 13  1  0  0  0  0
 22 21  2  0  0  0  0
M  END
>  <minimizedAffinity>
-4.65471411

$$$$

 OpenBabel03252503583D

 23 26  0  0  1  0  0  0  0  0999 V2000
   36.0540   29.3030   41.2750 C   0  0  0  0  0  2  0  0  0  0  0  0
   37.2110   28.5970   41.9360 C   0  0  2  0  0  0  0  0  0  0  0  0
   38.0090   27.8200   40.9410 C   0  0  0  0  0  2  0  0  0  0  0  0
   37.6720   26.4400   41.0280 N   0  0  2  0  0  0  0  0  0  0  0  0
   37.3020   25.1020   40.7230 C   0  0  2  0  0  0  0  0  0  0  0  0
   37.2420   24.3300   39.7340 O   0  0  0  0  0  1  0  0  0  0  0  0
   36.9330   24.7740   42.1250 C   0  0  0  0  0  3  0  0  0  0  0  0
   37.3660   23.8530   42.5380 H   0  0  0  0  0  0  0  0  0  0  0  0
   37.7190   26.0300   42.4070 C   0  0  1  0  0  0  0  0  0  0  0  0
   36.6980   27.3630   43.1550 S   0  0  0  0  0  0  0  0  0  0  0  0
   38.1630   29.5470   42.6290 C   0  0  0  0  0  2  0  0  0  0  0  0
   37.8950   29.6920   43.6800 H   0  0  0  0  0  0  0  0  0  0  0  0
   36.9910   30.6670   38.0080 C   0  0  0  0  0  0  0  0  0  0  0  0
   37.3390   31.9920   38.2750 C   0  0  0  0  0  0  0  0  0  0  0  0
   37.2430   32.4140   39.6120 C   0  0  0  0  0  0  0  0  0  0  0  0
   36.8260   31.5160   40.5470 N   0  0  0  0  0  0  0  0  0  0  0  0
   36.5010   30.2370   40.2320 C   0  0  0  0  0  0  0  0  0  0  0  0
   36.5890   29.8340   38.9640 N   0  0  0  0  0  0  0  0  0  0  0  0
   37.6680   32.6980   37.5360 H   0  0  0  0  0  0  0  0  0  0  0  0
   37.4950   33.4220   39.8940 H   0  0  0  0  0  0  0  0  0  0  0  0
   37.1070   30.2920   36.6290 C   0  0  0  0  0  0  0  0  0  0  0  0
   37.3770   29.1470   36.1750 O   0  0  0  0  0  0  0  0  0  0  0  0
   36.9600   31.0230   35.8190 H   0  0  0  0  0  0  0  0  0  0  0  0
  2  1  1  6  0  0  0
  2 11  1  0  0  0  0
  2 10  1  0  0  0  0
  3  2  1  0  0  0  0
  4  3  1  1  0  0  0
  4  9  1  0  0  0  0
  5  6  1  6  0  0  0
  5  4  1  0  0  0  0
  5  7  1  0  0  0  0
  5  9  1  0  0  0  0
  7  8  1  0  0  0  0
  9  7  1  1  0  0  0
  9 10  1  0  0  0  0
 11 12  1  0  0  0  0
 13 14  2  0  0  0  0
 13 18  1  0  0  0  0
 14 15  1  0  0  0  0
 15 20  1  0  0  0  0
 15 16  2  0  0  0  0
 17 16  1  0  0  0  0
 17  1  1  0  0  0  0
 18 17  2  0  0  0  0
 19 14  1  0  0  0  0
 21 13  1  0  0  0  0
 22 21  2  0  0  0  0
 23 21  1  0  0  0  0
M  END
>  <minimizedAffinity>
-4.61539221

$$$$

 OpenBabel03252503583D

 23 26  0  0  1  0  0  0  0  0999 V2000
   37.0170   26.1740   42.6760 C   0  0  0  0  0  2  0  0  0  0  0  0
   37.6710   25.2090   41.7200 C   0  0  2  0  0  0  0  0  0  0  0  0
   38.6390   24.3180   42.4280 C   0  0  0  0  0  2  0  0  0  0  0  0
   39.9670   24.7770   42.2010 N   0  0  2  0  0  0  0  0  0  0  0  0
   41.3140   25.1970   42.3690 C   0  0  2  0  0  0  0  0  0  0  0  0
   42.2300   25.1500   43.2280 O   0  0  0  0  0  1  0  0  0  0  0  0
   41.3940   25.8260   41.0240 C   0  0  0  0  0  3  0  0  0  0  0  0
   42.2600   25.5470   40.4080 H   0  0  0  0  0  0  0  0  0  0  0  0
   40.1540   25.0000   40.7920 C   0  0  1  0  0  0  0  0  0  0  0  0
   38.6660   26.0220   40.4460 S   0  0  0  0  0  0  0  0  0  0  0  0
   36.6760   24.3150   41.0130 C   0  0  0  0  0  2  0  0  0  0  0  0
   36.3520   24.7460   40.0600 H   0  0  0  0  0  0  0  0  0  0  0  0
   37.1830   29.6990   41.6940 C   0  0  0  0  0  0  0  0  0  0  0  0
   38.4280   30.1270   42.1550 C   0  0  0  0  0  0  0  0  0  0  0  0
   39.2190   29.1730   42.8190 C   0  0  0  0  0  0  0  0  0  0  0  0
   38.7270   27.9110   42.9650 N   0  0  0  0  0  0  0  0  0  0  0  0
   37.5080   27.5480   42.4940 C   0  0  0  0  0  0  0  0  0  0  0  0
   36.7540   28.4500   41.8650 N   0  0  0  0  0  0  0  0  0  0  0  0
   38.8140   31.1220   42.0390 H   0  0  0  0  0  0  0  0  0  0  0  0
   40.1910   29.4300   43.2020 H   0  0  0  0  0  0  0  0  0  0  0  0
   36.4200   30.7120   41.0260 C   0  0  0  0  0  0  0  0  0  0  0  0
   36.8490   31.8090   40.5730 O   0  0  0  0  0  0  0  0  0  0  0  0
   35.3400   30.5980   40.8500 H   0  0  0  0  0  0  0  0  0  0  0  0
  2 11  1  6  0  0  0
  2  3  1  0  0  0  0
  2  1  1  0  0  0  0
  4  5  1  0  0  0  0
  4  3  1  1  0  0  0
  5  6  1  1  0  0  0
  7  5  1  0  0  0  0
  8  7  1  0  0  0  0
  9 10  1  1  0  0  0
  9  7  1  0  0  0  0
  9  4  1  0  0  0  0
  9  5  1  0  0  0  0
 10  2  1  0  0  0  0
 12 11  1  0  0  0  0
 13 18  2  0  0  0  0
 13 14  1  0  0  0  0
 14 15  2  0  0  0  0
 15 16  1  0  0  0  0
 15 20  1  0  0  0  0
 17  1  1  0  0  0  0
 17 16  2  0  0  0  0
 18 17  1  0  0  0  0
 19 14  1  0  0  0  0
 21 13  1  0  0  0  0
 22 21  2  0  0  0  0
 23 21  1  0  0  0  0
M  END
>  <minimizedAffinity>
-4.61450481

$$$$

 OpenBabel03252503583D

 23 26  0  0  1  0  0  0  0  0999 V2000
   36.3110   30.5210   40.9170 C   0  0  0  0  0  2  0  0  0  0  0  0
   37.0970   30.8880   39.6840 C   0  0  2  0  0  0  0  0  0  0  0  0
   38.5060   30.3980   39.7760 C   0  0  0  0  0  2  0  0  0  0  0  0
   39.3660   31.4760   40.1250 N   0  0  1  0  0  0  0  0  0  0  0  0
   40.3540   32.2900   40.7420 C   0  0  2  0  0  0  0  0  0  0  0  0
   41.3570   32.1740   41.4910 O   0  0  0  0  0  1  0  0  0  0  0  0
   39.8120   33.5550   40.1800 C   0  0  0  0  0  3  0  0  0  0  0  0
   40.5360   34.2150   39.6830 H   0  0  0  0  0  0  0  0  0  0  0  0
   39.0910   32.5960   39.2650 C   0  0  1  0  0  0  0  0  0  0  0  0
   37.2630   32.6730   39.4430 S   0  0  0  0  0  0  0  0  0  0  0  0
   36.5050   30.3140   38.4150 C   0  0  0  0  0  2  0  0  0  0  0  0
   35.8040   31.0110   37.9460 H   0  0  0  0  0  0  0  0  0  0  0  0
   37.1580   27.0430   41.6930 C   0  0  0  0  0  0  0  0  0  0  0  0
   37.9090   27.1250   42.8660 C   0  0  0  0  0  0  0  0  0  0  0  0
   38.1230   28.4110   43.3920 C   0  0  0  0  0  0  0  0  0  0  0  0
   37.5900   29.4780   42.7330 N   0  0  0  0  0  0  0  0  0  0  0  0
   36.8660   29.3400   41.5950 C   0  0  0  0  0  0  0  0  0  0  0  0
   36.6610   28.1220   41.0930 N   0  0  0  0  0  0  0  0  0  0  0  0
   38.3270   26.2830   43.3840 H   0  0  0  0  0  0  0  0  0  0  0  0
   38.6920   28.5530   44.2940 H   0  0  0  0  0  0  0  0  0  0  0  0
   36.9710   25.7090   41.2030 C   0  0  0  0  0  0  0  0  0  0  0  0
   37.3350   24.6380   41.7630 O   0  0  0  0  0  0  0  0  0  0  0  0
   36.4670   25.5120   40.2450 H   0  0  0  0  0  0  0  0  0  0  0  0
  1 17  1  0  0  0  0
  2 11  1  6  0  0  0
  2  3  1  0  0  0  0
  2  1  1  0  0  0  0
  4  3  1  6  0  0  0
  4  5  1  0  0  0  0
  5  6  1  6  0  0  0
  7  5  1  0  0  0  0
  8  7  1  0  0  0  0
  9 10  1  1  0  0  0
  9  4  1  0  0  0  0
  9  7  1  0  0  0  0
  9  5  1  0  0  0  0
 10  2  1  0  0  0  0
 12 11  1  0  0  0  0
 13 14  1  0  0  0  0
 14 19  1  0  0  0  0
 14 15  2  0  0  0  0
 15 20  1  0  0  0  0
 16 15  1  0  0  0  0
 17 16  2  0  0  0  0
 18 17  1  0  0  0  0
 18 13  2  0  0  0  0
 21 13  1  0  0  0  0
 21 22  2  0  0  0  0
 23 21  1  0  0  0  0
M  END
>  <minimizedAffinity>
-4.58562899

$$$$

 OpenBabel03252503583D

 23 26  0  0  1  0  0  0  0  0999 V2000
   39.4750   29.1880   40.2880 C   0  0  0  0  0  2  0  0  0  0  0  0
   39.6250   28.8550   41.7510 C   0  0  2  0  0  0  0  0  0  0  0  0
   39.6880   27.3770   41.9650 C   0  0  0  0  0  2  0  0  0  0  0  0
   38.4270   26.9060   42.4250 N   0  0  1  0  0  0  0  0  0  0  0  0
   37.2240   26.1690   42.5960 C   0  0  2  0  0  0  0  0  0  0  0  0
   36.7280   25.0610   42.2740 O   0  0  0  0  0  1  0  0  0  0  0  0
   36.5670   27.2300   43.4050 C   0  0  0  0  0  3  0  0  0  0  0  0
   36.1130   26.9080   44.3510 H   0  0  0  0  0  0  0  0  0  0  0  0
   37.9850   27.7330   43.5170 C   0  0  1  0  0  0  0  0  0  0  0  0
   38.2200   29.3900   42.7560 S   0  0  0  0  0  0  0  0  0  0  0  0
   40.8730   29.4500   42.3650 C   0  0  0  0  0  2  0  0  0  0  0  0
   40.6780   30.4340   42.8030 H   0  0  0  0  0  0  0  0  0  0  0  0
   39.0720   32.8190   40.0320 C   0  0  0  0  0  0  0  0  0  0  0  0
   37.7300   32.9930   39.6940 C   0  0  0  0  0  0  0  0  0  0  0  0
   36.9560   31.8280   39.5530 C   0  0  0  0  0  0  0  0  0  0  0  0
   37.5570   30.6230   39.7530 N   0  0  0  0  0  0  0  0  0  0  0  0
   38.8690   30.5110   40.0820 C   0  0  0  0  0  0  0  0  0  0  0  0
   39.6060   31.6140   40.2160 N   0  0  0  0  0  0  0  0  0  0  0  0
   37.2570   33.9450   39.5370 H   0  0  0  0  0  0  0  0  0  0  0  0
   35.9130   31.8840   39.2950 H   0  0  0  0  0  0  0  0  0  0  0  0
   39.8120   34.0400   40.1620 C   0  0  0  0  0  0  0  0  0  0  0  0
   41.0580   34.1580   40.3210 O   0  0  0  0  0  0  0  0  0  0  0  0
   39.3140   35.0210   40.1310 H   0  0  0  0  0  0  0  0  0  0  0  0
  2  1  1  6  0  0  0
  2  3  1  0  0  0  0
  2 11  1  0  0  0  0
  2 10  1  0  0  0  0
  4  3  1  1  0  0  0
  4  5  1  0  0  0  0
  4  9  1  0  0  0  0
  5  6  1  1  0  0  0
  5  7  1  0  0  0  0
  5  9  1  0  0  0  0
  7  9  1  0  0  0  0
  7  8  1  0  0  0  0
  9 10  1  6  0  0  0
 11 12  1  0  0  0  0
 13 21  1  0  0  0  0
 13 18  1  0  0  0  0
 14 13  2  0  0  0  0
 15 14  1  0  0  0  0
 15 16  2  0  0  0  0
 16 17  1  0  0  0  0
 17 18  2  0  0  0  0
 17  1  1  0  0  0  0
 19 14  1  0  0  0  0
 20 15  1  0  0  0  0
 21 22  2  0  0  0  0
 23 21  1  0  0  0  0
M  END
>  <minimizedAffinity>
-4.53424978

$$$$

 OpenBabel03252503583D

 23 26  0  0  1  0  0  0  0  0999 V2000
   36.0440   29.6260   40.3660 C   0  0  0  0  0  2  0  0  0  0  0  0
   37.0040   30.4680   39.5650 C   0  0  2  0  0  0  0  0  0  0  0  0
   36.6300   30.4860   38.1180 C   0  0  0  0  0  2  0  0  0  0  0  0
   37.4740   29.5980   37.3940 N   0  0  2  0  0  0  0  0  0  0  0  0
   37.9690   28.5850   36.5290 C   0  0  2  0  0  0  0  0  0  0  0  0
   37.5860   27.8870   35.5570 O   0  0  0  0  0  1  0  0  0  0  0  0
   39.3080   28.5420   37.1760 C   0  0  0  0  0  3  0  0  0  0  0  0
   40.1730   28.6050   36.5030 H   0  0  0  0  0  0  0  0  0  0  0  0
   38.8450   29.8590   37.7460 C   0  0  1  0  0  0  0  0  0  0  0  0
   38.6980   29.8360   39.5780 S   0  0  0  0  0  0  0  0  0  0  0  0
   37.0560   31.9070   40.0310 C   0  0  0  0  0  2  0  0  0  0  0  0
   37.8400   32.0610   40.7790 H   0  0  0  0  0  0  0  0  0  0  0  0
   37.4610   26.8100   42.2300 C   0  0  0  0  0  0  0  0  0  0  0  0
   38.0140   27.3950   43.3690 C   0  0  0  0  0  0  0  0  0  0  0  0
   37.8910   28.7900   43.4870 C   0  0  0  0  0  0  0  0  0  0  0  0
   37.2490   29.4710   42.4980 N   0  0  0  0  0  0  0  0  0  0  0  0
   36.7290   28.8500   41.4100 C   0  0  0  0  0  0  0  0  0  0  0  0
   36.8440   27.5270   41.2940 N   0  0  0  0  0  0  0  0  0  0  0  0
   38.5200   26.8570   44.1490 H   0  0  0  0  0  0  0  0  0  0  0  0
   38.2930   29.3110   44.3390 H   0  0  0  0  0  0  0  0  0  0  0  0
   37.6160   25.3870   42.1620 C   0  0  0  0  0  0  0  0  0  0  0  0
   36.6950   24.5250   42.1140 O   0  0  0  0  0  0  0  0  0  0  0  0
   38.6100   24.9150   42.1470 H   0  0  0  0  0  0  0  0  0  0  0  0
  1 17  1  0  0  0  0
  2 10  1  0  0  0  0
  2 11  1  1  0  0  0
  2  1  1  0  0  0  0
  3  2  1  0  0  0  0
  4  9  1  0  0  0  0
  4  3  1  1  0  0  0
  5  6  1  6  0  0  0
  5  7  1  0  0  0  0
  5  4  1  0  0  0  0
  5  9  1  0  0  0  0
  8  7  1  0  0  0  0
  9  7  1  6  0  0  0
  9 10  1  0  0  0  0
 11 12  1  0  0  0  0
 13 14  1  0  0  0  0
 14 15  2  0  0  0  0
 14 19  1  0  0  0  0
 15 20  1  0  0  0  0
 16 15  1  0  0  0  0
 17 16  2  0  0  0  0
 18 17  1  0  0  0  0
 18 13  2  0  0  0  0
 21 13  1  0  0  0  0
 22 21  2  0  0  0  0
 23 21  1  0  0  0  0
M  END
>  <minimizedAffinity>
-4.49911594

$$$$

 OpenBabel03252503583D

 23 26  0  0  1  0  0  0  0  0999 V2000
   36.7600   28.0770   39.8080 C   0  0  0  0  0  2  0  0  0  0  0  0
   36.0520   29.3960   39.6320 C   0  0  2  0  0  0  0  0  0  0  0  0
   36.4970   30.0860   38.3830 C   0  0  0  0  0  2  0  0  0  0  0  0
   37.4250   31.1140   38.7090 N   0  0  1  0  0  0  0  0  0  0  0  0
   38.5610   31.9680   38.7450 C   0  0  2  0  0  0  0  0  0  0  0  0
   39.5520   32.2700   38.0340 O   0  0  0  0  0  1  0  0  0  0  0  0
   38.2300   32.5230   40.0840 C   0  0  0  0  0  3  0  0  0  0  0  0
   38.2380   33.6180   40.1710 H   0  0  0  0  0  0  0  0  0  0  0  0
   36.8850   31.9170   39.7730 C   0  0  1  0  0  0  0  0  0  0  0  0
   36.4100   30.5850   40.9470 S   0  0  0  0  0  0  0  0  0  0  0  0
   34.5480   29.2510   39.5510 C   0  0  0  0  0  2  0  0  0  0  0  0
   34.0800   29.3460   40.5350 H   0  0  0  0  0  0  0  0  0  0  0  0
   39.1710   28.0210   42.5640 C   0  0  0  0  0  0  0  0  0  0  0  0
   38.4110   27.6660   43.6790 C   0  0  0  0  0  0  0  0  0  0  0  0
   37.0400   27.4440   43.4660 C   0  0  0  0  0  0  0  0  0  0  0  0
   36.5490   27.5870   42.2040 N   0  0  0  0  0  0  0  0  0  0  0  0
   37.3350   27.9340   41.1540 C   0  0  0  0  0  0  0  0  0  0  0  0
   38.6360   28.1460   41.3520 N   0  0  0  0  0  0  0  0  0  0  0  0
   38.8010   27.5540   44.6740 H   0  0  0  0  0  0  0  0  0  0  0  0
   36.3910   27.1670   44.2780 H   0  0  0  0  0  0  0  0  0  0  0  0
   40.5620   28.2350   42.8410 C   0  0  0  0  0  0  0  0  0  0  0  0
   41.4190   27.3580   43.1380 O   0  0  0  0  0  0  0  0  0  0  0  0
   41.0070   29.2410   42.8110 H   0  0  0  0  0  0  0  0  0  0  0  0
  1 17  1  0  0  0  0
  2 11  1  6  0  0  0
  2  1  1  0  0  0  0
  2 10  1  0  0  0  0
  3  2  1  0  0  0  0
  4  3  1  6  0  0  0
  4  5  1  0  0  0  0
  4  9  1  0  0  0  0
  5  6  1  6  0  0  0
  5  9  1  0  0  0  0
  5  7  1  0  0  0  0
  7  8  1  0  0  0  0
  9  7  1  6  0  0  0
  9 10  1  0  0  0  0
 11 12  1  0  0  0  0
 13 21  1  0  0  0  0
 13 14  1  0  0  0  0
 14 19  1  0  0  0  0
 15 14  2  0  0  0  0
 15 20  1  0  0  0  0
 16 15  1  0  0  0  0
 17 18  1  0  0  0  0
 17 16  2  0  0  0  0
 18 13  2  0  0  0  0
 21 22  2  0  0  0  0
 23 21  1  0  0  0  0
M  END
>  <minimizedAffinity>
-4.43775702

$$$$
