
 OpenBabel03242511333D

 38 41  0  0  1  0  0  0  0  0999 V2000
   48.6740   32.3770   40.4740 C   0  0  0  0  0  0  0  0  0  0  0  0
   49.8990   31.7330   40.7420 C   0  0  0  0  0  0  0  0  0  0  0  0
   50.7670   31.4730   39.6750 C   0  0  0  0  0  0  0  0  0  0  0  0
   50.3790   31.8580   38.4260 N   0  0  0  0  0  0  0  0  0  0  0  0
   49.2040   32.4690   38.2060 C   0  0  0  0  0  0  0  0  0  0  0  0
   48.3660   32.7240   39.2180 N   0  0  0  0  0  0  0  0  0  0  0  0
   50.1930   31.4330   41.7390 H   0  0  0  0  0  0  0  0  0  0  0  0
   51.7090   30.9770   39.8820 H   0  0  0  0  0  0  0  0  0  0  0  0
   47.7900   32.6340   41.6040 C   0  0  0  0  0  0  0  0  0  0  0  0
   48.2420   33.3690   42.6100 C   0  0  0  0  0  0  0  0  0  0  0  0
   47.4090   33.6740   43.7900 C   0  0  0  0  0  0  0  0  0  0  0  0
   47.9140   34.4130   44.4370 H   0  0  0  0  0  0  0  0  0  0  0  0
   47.2430   32.7640   44.3720 H   0  0  0  0  0  0  0  0  0  0  0  0
   44.7690   36.1340   43.4510 C   0  0  1  0  0  0  0  0  0  0  0  0
   46.0500   35.5630   42.8240 C   0  0  0  0  0  0  0  0  0  0  0  0
   46.0280   34.1830   43.3750 C   0  0  2  0  0  0  0  0  0  0  0  0
   45.1340   34.1250   44.4060 O   0  0  0  0  0  0  0  0  0  0  0  0
   44.7550   35.3870   44.7680 C   0  0  0  0  0  0  0  0  0  0  0  0
   43.9030   35.8740   42.8170 H   0  0  0  0  0  0  0  0  0  0  0  0
   46.8860   36.1050   43.3170 H   0  0  0  0  0  0  0  0  0  0  0  0
   46.0460   35.6420   41.7220 H   0  0  0  0  0  0  0  0  0  0  0  0
   45.7020   33.4860   42.5520 H   0  0  0  0  0  0  0  0  0  0  0  0
   43.7140   35.3840   45.1750 H   0  0  0  0  0  0  0  0  0  0  0  0
   45.4660   35.8650   45.4480 H   0  0  0  0  0  0  0  0  0  0  0  0
   44.9120   37.5090   43.6230 O   0  0  0  0  0  0  0  0  0  0  0  0
   45.3210   37.7380   44.4810 H   0  0  0  0  0  0  0  0  0  0  0  0
   48.7630   32.8940   36.8750 C   0  0  0  0  0  0  0  0  0  0  0  0
   48.2330   31.7510   36.0420 C   0  0  1  0  0  0  0  0  0  0  0  0
   47.5610   32.2450   34.7800 C   0  0  0  0  0  0  0  0  0  0  0  0
   48.5730   32.4400   33.7750 N   0  0  0  0  0  0  0  0  0  0  0  0
   49.4350   33.0060   32.7780 C   0  0  0  0  0  0  0  0  0  0  0  0
   49.3920   34.0690   32.1060 O   0  0  0  0  0  0  0  0  0  0  0  0
   50.3860   31.8660   32.8430 C   0  0  0  0  0  0  0  0  0  0  0  0
   51.2640   32.0150   33.4980 H   0  0  0  0  0  0  0  0  0  0  0  0
   49.2760   31.1800   33.5690 C   0  0  1  0  0  0  0  0  0  0  0  0
   49.6220   30.7840   35.3280 S   0  0  0  0  0  0  0  0  0  0  0  0
   47.3780   30.7850   36.7950 C   0  0  0  0  0  0  0  0  0  0  0  0
   47.9990   30.1270   37.4190 H   0  0  0  0  0  0  0  0  0  0  0  0
  1  2  1  0  0  0  0
  1  9  1  0  0  0  0
  2  7  1  0  0  0  0
  3  8  1  0  0  0  0
  3  2  2  0  0  0  0
  4  3  1  0  0  0  0
  5  4  2  0  0  0  0
  5  6  1  0  0  0  0
  6  1  2  0  0  0  0
  9 10  2  0  0  0  0
 10 11  1  0  0  0  0
 11 13  1  0  0  0  0
 11 12  1  0  0  0  0
 14 19  1  6  0  0  0
 14 25  1  0  0  0  0
 14 18  1  0  0  0  0
 15 20  1  0  0  0  0
 15 16  1  0  0  0  0
 15 14  1  0  0  0  0
 16 22  1  6  0  0  0
 16 11  1  0  0  0  0
 16 17  1  0  0  0  0
 17 18  1  0  0  0  0
 18 23  1  0  0  0  0
 18 24  1  0  0  0  0
 21 15  1  0  0  0  0
 25 26  1  0  0  0  0
 27  5  1  0  0  0  0
 28 37  1  1  0  0  0
 28 27  1  0  0  0  0
 29 28  1  0  0  0  0
 30 29  1  0  0  0  0
 31 33  1  0  0  0  0
 31 30  1  0  0  0  0
 32 31  2  0  0  0  0
 33 34  1  0  0  0  0
 35 33  1  6  0  0  0
 35 30  1  0  0  0  0
 35 36  1  0  0  0  0
 36 28  1  0  0  0  0
 37 38  1  0  0  0  0
M  END
>  <minimizedAffinity>
-5.49112558

>  <minimizedRMSD>
1.98710883

$$$$
