
     RDKit          3D

 31 33  0  0  0  0  0  0  0  0999 V2000
   46.2189   34.8340   43.1857 C   0  0  0  0  0  0  0  0  0  0  0  0
   45.3183   35.9105   43.2799 C   0  0  0  0  0  0  0  0  0  0  0  0
   44.5589   36.0097   44.4570 C   0  0  0  0  0  0  0  0  0  0  0  0
   44.7443   35.0655   45.4182 N   0  0  0  0  0  0  0  0  0  0  0  0
   45.6178   34.0530   45.2838 C   0  0  0  0  0  0  0  0  0  0  0  0
   46.3515   33.9427   44.1664 N   0  0  0  0  0  0  0  0  0  0  0  0
   46.9603   34.7922   41.9621 C   0  0  0  0  0  0  0  0  0  0  0  0
   48.0570   35.3953   41.7410 O   0  0  0  0  0  0  0  0  0  0  0  0
   45.1441   36.6682   42.5525 H   0  0  0  0  0  0  0  0  0  0  0  0
   43.8476   36.7865   44.6311 H   0  0  0  0  0  0  0  0  0  0  0  0
   45.6917   33.3514   46.1084 H   0  0  0  0  0  0  0  0  0  0  0  0
   41.8247   33.8450   42.2437 C   0  0  0  0  0  0  0  0  0  0  0  0
   42.0228   33.2520   41.3319 H   0  0  0  0  0  0  0  0  0  0  0  0
   43.1329   34.0243   43.0265 C   0  0  0  0  0  0  0  0  0  0  0  0
   42.8469   34.5020   44.4278 C   0  0  0  0  0  0  0  0  0  0  0  0
   41.7693   34.7545   44.4856 H   0  0  0  0  0  0  0  0  0  0  0  0
   43.9063   32.7863   42.9394 C   0  0  0  0  0  0  0  0  0  0  0  0
   44.9576   32.8651   42.0258 N   0  0  0  0  0  0  0  0  0  0  0  0
   46.1690   32.5491   41.4200 C   0  0  0  0  0  0  0  0  0  0  0  0
   46.9705   31.5946   41.2433 O   0  0  0  0  0  0  0  0  0  0  0  0
   46.3006   33.9400   40.9256 C   0  0  1  0  0  0  0  0  0  0  0  0
   44.8074   33.8858   41.0243 C   0  0  2  0  0  0  0  0  0  0  0  0
   44.0929   35.2238   42.0604 S   0  0  0  0  0  0  0  0  0  0  0  0
   41.4826   34.8692   41.9903 H   0  0  0  0  0  0  0  0  0  0  0  0
   41.0454   33.3737   42.8744 H   0  0  0  0  0  0  0  0  0  0  0  0
   43.0963   33.6700   45.1386 H   0  0  0  0  0  0  0  0  0  0  0  0
   43.3929   35.4369   44.6735 H   0  0  0  0  0  0  0  0  0  0  0  0
   44.2165   32.5243   43.9947 H   0  0  0  0  0  0  0  0  0  0  0  0
   43.2338   31.9211   42.6651 H   0  0  0  0  0  0  0  0  0  0  0  0
   46.7308   34.0574   39.9084 H   0  0  0  0  0  0  0  0  0  0  0  0
   44.2651   33.6551   40.1148 H   0  0  0  0  0  0  0  0  0  0  0  0
  1  2  2  0
  1  6  1  0
  2  3  1  0
  3  4  2  0
  5  4  1  0
  6  5  2  0
  7  1  1  0
  8  7  2  0
  2  9  1  0
  3 10  1  0
  5 11  1  0
 12 13  1  0
 12 14  1  0
 14 15  1  0
 15 16  1  0
 14 17  1  0
 17 18  1  0
 18 19  1  0
 19 20  2  0
 19 21  1  0
 21 22  1  0
 22 23  1  0
 23 14  1  0
 22 18  1  0
 12 24  1  0
 12 25  1  0
 15 26  1  0
 15 27  1  0
 17 28  1  0
 17 29  1  0
 21 30  1  6
 22 31  1  6
  7 21  1  0
M  ISO  5   9  14  10  14  11  14  13   8  16   8
M  END
>  <DihAtoms>  (1) 
0,6,20,18

>  <DihDeg>  (1) 
59.99856609194603

$$$$
