
 OpenBabel03242523543D

 48 52  0  0  1  0  0  0  0  0999 V2000
   42.8740   34.5200   38.7930 C   0  0  1  0  0  0  0  0  0  0  0  0
   42.9280   35.1610   40.1750 C   0  0  1  0  0  0  0  0  0  0  0  0
   41.6090   35.2960   40.6500 O   0  0  0  0  0  0  0  0  0  0  0  0
   40.7040   35.6100   39.6360 C   0  0  0  0  0  0  0  0  0  0  0  0
   40.4960   34.4470   38.6840 C   0  0  2  0  0  0  0  0  0  0  0  0
   41.7590   33.5260   38.8330 C   0  0  1  0  0  0  0  0  0  0  0  0
   43.8080   33.9560   38.5830 H   0  0  0  0  0  0  0  0  0  0  0  0
   43.4600   36.1130   40.1930 H   0  0  0  0  0  0  0  0  0  0  0  0
   40.9560   36.5480   39.1010 H   0  0  0  0  0  0  0  0  0  0  0  0
   39.7490   35.7960   40.1430 H   0  0  0  0  0  0  0  0  0  0  0  0
   39.5870   33.8610   38.9000 H   0  0  0  0  0  0  0  0  0  0  0  0
   41.5250   33.1830   39.8920 H   0  0  0  0  0  0  0  0  0  0  0  0
   42.6410   35.4870   37.8070 O   0  0  0  0  0  0  0  0  0  0  0  0
   43.3320   35.5190   37.1150 H   0  0  0  0  0  0  0  0  0  0  0  0
   40.5340   34.9090   37.3750 O   0  0  0  0  0  0  0  0  0  0  0  0
   40.3740   35.8640   37.2960 H   0  0  0  0  0  0  0  0  0  0  0  0
   43.4890   34.1780   41.0120 O   0  0  0  0  0  0  0  0  0  0  0  0
   44.6060   34.3390   41.7290 C   0  0  0  0  0  0  0  0  0  0  0  0
   45.8600   34.4370   41.1080 C   0  0  0  0  0  0  0  0  0  0  0  0
   46.9820   34.6050   41.9030 C   0  0  0  0  0  0  0  0  0  0  0  0
   46.8370   34.6690   43.2760 N   0  0  0  0  0  0  0  0  0  0  0  0
   45.6100   34.5690   43.8420 C   0  0  0  0  0  0  0  0  0  0  0  0
   44.5030   34.4050   43.0730 N   0  0  0  0  0  0  0  0  0  0  0  0
   45.9770   34.3880   40.0440 H   0  0  0  0  0  0  0  0  0  0  0  0
   45.4980   34.6190   44.9150 H   0  0  0  0  0  0  0  0  0  0  0  0
   48.3530   34.6990   41.3170 C   0  0  0  0  0  0  0  0  0  0  0  0
   49.0830   36.0320   41.4880 C   0  0  0  0  0  0  0  0  0  0  0  0
   49.5160   34.7030   42.1430 C   0  0  0  0  0  0  0  0  0  0  0  0
   48.3910   34.2680   40.2830 H   0  0  0  0  0  0  0  0  0  0  0  0
   48.5830   36.7830   42.1150 H   0  0  0  0  0  0  0  0  0  0  0  0
   49.7180   36.3980   40.6610 H   0  0  0  0  0  0  0  0  0  0  0  0
   49.4620   34.7290   43.2510 H   0  0  0  0  0  0  0  0  0  0  0  0
   50.4950   34.3210   41.7900 H   0  0  0  0  0  0  0  0  0  0  0  0
   41.7190   32.6200   37.8350 O   0  0  0  0  0  0  0  0  0  0  0  0
   41.5480   31.2810   37.9220 C   0  0  0  0  0  0  0  0  0  0  0  0
   40.8880   30.7360   38.9130 O   0  0  0  0  0  0  0  0  0  0  0  0
   45.1620   31.2940   36.8360 C   0  0  0  0  0  0  0  0  0  0  0  0
   44.5770   30.5410   35.6790 C   0  0  0  0  0  2  0  0  0  0  0  0
   43.2720   30.0960   36.0410 N   0  0  0  0  0  0  0  0  0  0  0  0
   41.8800   29.8470   35.9090 C   0  0  0  0  0  0  0  0  0  0  0  0
   41.0530   29.6540   34.9710 O   0  0  0  0  0  0  0  0  0  0  0  0
   41.7560   29.9040   37.3860 C   0  0  1  0  0  3  0  0  0  0  0  0
   43.2120   29.5110   37.3380 C   0  0  2  0  0  3  0  0  0  0  0  0
   44.2920   30.6430   38.2900 S   0  0  0  0  0  0  0  0  0  0  0  0
   45.1200   32.7780   36.7250 C   0  0  0  0  0  2  0  0  0  0  0  0
   44.5470   33.1410   35.8480 H   0  0  0  0  0  0  0  0  0  0  0  0
   46.6040   30.7880   36.9650 C   0  0  0  0  0  2  0  0  0  0  0  0
   46.9520   30.8330   38.0290 H   0  0  0  0  0  0  0  0  0  0  0  0
  1  7  1  6  0  0  0
  1  6  1  0  0  0  0
  1  2  1  0  0  0  0
  2  8  1  1  0  0  0
  2  3  1  0  0  0  0
  2 17  1  0  0  0  0
  4 10  1  0  0  0  0
  4  3  1  0  0  0  0
  5  6  1  0  0  0  0
  5 11  1  1  0  0  0
  5  4  1  0  0  0  0
  6 12  1  1  0  0  0
  9  4  1  0  0  0  0
 13  1  1  0  0  0  0
 14 13  1  0  0  0  0
 15  5  1  0  0  0  0
 16 15  1  0  0  0  0
 17 18  1  0  0  0  0
 18 23  1  0  0  0  0
 19 18  2  0  0  0  0
 19 20  1  0  0  0  0
 20 21  2  0  0  0  0
 21 22  1  0  0  0  0
 22 25  1  0  0  0  0
 23 22  2  0  0  0  0
 24 19  1  0  0  0  0
 26 27  1  0  0  0  0
 26 20  1  0  0  0  0
 26 28  1  0  0  0  0
 27 30  1  0  0  0  0
 27 28  1  0  0  0  0
 28 32  1  0  0  0  0
 29 26  1  0  0  0  0
 31 27  1  0  0  0  0
 33 28  1  0  0  0  0
 34 35  1  0  0  0  0
 34  6  1  0  0  0  0
 35 36  2  0  0  0  0
 37 47  1  0  0  0  0
 37 44  1  0  0  0  0
 38 39  1  0  0  0  0
 38 37  1  0  0  0  0
 39 43  1  0  0  0  0
 40 39  1  0  0  0  0
 40 42  1  0  0  0  0
 41 40  2  0  0  0  0
 42 35  1  6  0  0  0
 43 42  1  0  0  0  0
 43 44  1  1  0  0  0
 45 37  1  0  0  0  0
 46 45  1  0  0  0  0
 47 48  1  0  0  0  0
M  END
>  <minimizedAffinity>
-6.19213629

>  <minimizedRMSD>
2.47175837

$$$$
