
 OpenBabel03252508513D

 31 34  0  0  1  0  0  0  0  0999 V2000
   45.6720   34.1670   41.0840 C   0  0  0  0  0  0  0  0  0  0  0  0
   46.3490   34.7160   42.1720 C   0  0  0  0  0  0  0  0  0  0  0  0
   47.7220   34.9370   42.0250 C   0  0  0  0  0  0  0  0  0  0  0  0
   48.3060   34.6050   40.8390 N   0  0  0  0  0  0  0  0  0  0  0  0
   47.6180   34.0790   39.8190 C   0  0  0  0  0  0  0  0  0  0  0  0
   46.2920   33.8610   39.9460 N   0  0  0  0  0  0  0  0  0  0  0  0
   48.2410   35.3560   42.8530 H   0  0  0  0  0  0  0  0  0  0  0  0
   48.0640   33.8090   38.8700 H   0  0  0  0  0  0  0  0  0  0  0  0
   45.6170   35.0350   43.3990 C   0  0  0  0  0  0  0  0  0  0  0  0
   45.0470   36.2780   43.6320 C   0  0  0  0  0  0  0  0  0  0  0  0
   44.4730   36.1360   44.8780 C   0  0  0  0  0  0  0  0  0  0  0  0
   44.6790   34.8900   45.3700 N   0  0  0  0  0  0  0  0  0  0  0  0
   45.3720   34.2480   44.4550 N   0  0  0  0  0  0  0  0  0  0  0  0
   45.0330   37.1790   43.0080 H   0  0  0  0  0  0  0  0  0  0  0  0
   43.9210   36.9070   45.4180 H   0  0  0  0  0  0  0  0  0  0  0  0
   44.3320   34.5620   46.3000 H   0  0  0  0  0  0  0  0  0  0  0  0
   44.3200   33.9430   41.2110 O   0  0  0  0  0  0  0  0  0  0  0  0
   43.3080   34.7120   40.7100 C   0  0  0  0  0  0  0  0  0  0  0  0
   43.2530   35.9830   40.6440 O   0  0  0  0  0  0  0  0  0  0  0  0
   38.9840   32.1740   39.6480 C   0  0  0  0  0  0  0  0  0  0  0  0
   38.8840   33.1170   40.8290 C   0  0  0  0  0  2  0  0  0  0  0  0
   40.0280   34.0080   40.7550 N   0  0  0  0  0  0  0  0  0  0  0  0
   40.8640   35.1820   40.6790 C   0  0  0  0  0  0  0  0  0  0  0  0
   40.5750   36.3750   41.0380 O   0  0  0  0  0  0  0  0  0  0  0  0
   41.9690   34.3850   40.0910 C   0  0  2  0  0  3  0  0  0  0  0  0
   41.2610   33.2430   40.7470 C   0  0  2  0  0  3  0  0  0  0  0  0
   40.7990   31.8930   39.6080 S   0  0  0  0  0  0  0  0  0  0  0  0
   38.2590   30.8790   39.9380 C   0  0  0  0  0  2  0  0  0  0  0  0
   37.3680   31.0560   40.5750 H   0  0  0  0  0  0  0  0  0  0  0  0
   38.4720   32.7630   38.3690 C   0  0  0  0  0  2  0  0  0  0  0  0
   39.1910   33.4210   37.8440 H   0  0  0  0  0  0  0  0  0  0  0  0
  1 17  1  0  0  0  0
  1  2  1  0  0  0  0
  2  9  1  0  0  0  0
  3  2  2  0  0  0  0
  3  7  1  0  0  0  0
  4  3  1  0  0  0  0
  5  6  1  0  0  0  0
  5  4  2  0  0  0  0
  6  1  2  0  0  0  0
  8  5  1  0  0  0  0
  9 10  1  0  0  0  0
  9 13  2  0  0  0  0
 10 11  2  0  0  0  0
 11 12  1  0  0  0  0
 11 15  1  0  0  0  0
 12 16  1  0  0  0  0
 13 12  1  0  0  0  0
 14 10  1  0  0  0  0
 18 17  1  0  0  0  0
 19 18  2  0  0  0  0
 20 28  1  0  0  0  0
 20 21  1  0  0  0  0
 22 21  1  0  0  0  0
 23 22  1  0  0  0  0
 23 24  2  0  0  0  0
 25 23  1  0  0  0  0
 25 18  1  1  0  0  0
 25 26  1  0  0  0  0
 26 27  1  6  0  0  0
 26 22  1  0  0  0  0
 27 20  1  0  0  0  0
 28 29  1  0  0  0  0
 30 20  1  0  0  0  0
 31 30  1  0  0  0  0
M  END
>  <minimizedAffinity>
-6.28186703

>  <minimizedRMSD>
1.4285773

$$$$
