
     RDKit          3D

 39 42  0  0  0  0  0  0  0  0999 V2000
   46.0790   34.1564   41.0064 C   0  0  0  0  0  0  0  0  0  0  0  0
   46.6209   34.8304   42.0992 C   0  0  0  0  0  0  0  0  0  0  0  0
   47.9411   35.2762   41.9850 C   0  0  0  0  0  0  0  0  0  0  0  0
   48.6090   35.0264   40.8239 N   0  0  0  0  0  0  0  0  0  0  0  0
   48.0507   34.3744   39.7966 C   0  0  0  0  0  0  0  0  0  0  0  0
   46.7768   33.9379   39.8920 N   0  0  0  0  0  0  0  0  0  0  0  0
   45.8081   35.0422   43.2979 C   0  0  0  0  0  0  0  0  0  0  0  0
   45.0471   36.1849   43.4968 C   0  0  0  0  0  0  0  0  0  0  0  0
   44.4599   35.9662   44.7263 C   0  0  0  0  0  0  0  0  0  0  0  0
   44.8387   34.7708   45.2400 N   0  0  0  0  0  0  0  0  0  0  0  0
   45.6521   34.2357   44.3563 N   0  0  0  0  0  0  0  0  0  0  0  0
   44.7812   33.7101   41.0997 O   0  0  0  0  0  0  0  0  0  0  0  0
   43.6944   34.1917   40.4274 C   0  0  0  0  0  0  0  0  0  0  0  0
   43.2510   35.3856   40.4154 O   0  0  0  0  0  0  0  0  0  0  0  0
   48.3567   35.7908   42.8178 H   0  0  0  0  0  0  0  0  0  0  0  0
   48.5651   34.1669   38.8673 H   0  0  0  0  0  0  0  0  0  0  0  0
   44.9154   37.0680   42.8611 H   0  0  0  0  0  0  0  0  0  0  0  0
   43.7785   36.6481   45.2381 H   0  0  0  0  0  0  0  0  0  0  0  0
   44.5146   34.4006   46.1625 H   0  0  0  0  0  0  0  0  0  0  0  0
   40.2533   29.1765   38.4819 C   0  0  0  0  0  0  0  0  0  0  0  0
   39.2307   29.0538   38.8949 H   0  0  0  0  0  0  0  0  0  0  0  0
   40.6233   30.6387   38.3752 C   0  0  0  0  0  0  0  0  0  0  0  0
   40.2597   31.1529   37.0163 C   0  0  0  0  0  0  0  0  0  0  0  0
   40.8591   32.0205   36.6759 H   0  0  0  0  0  0  0  0  0  0  0  0
   39.9988   31.4301   39.5059 C   0  0  0  0  0  0  0  0  0  0  0  0
   40.8268   32.6062   39.7047 N   0  0  0  0  0  0  0  0  0  0  0  0
   41.2880   33.9680   39.8320 C   0  0  0  0  0  0  0  0  0  0  0  0
   40.5982   35.0048   40.1205 O   0  0  0  0  0  0  0  0  0  0  0  0
   42.6763   33.5523   39.5118 C   0  0  2  0  0  0  0  0  0  0  0  0
   42.1975   32.2152   39.9789 C   0  0  2  0  0  0  0  0  0  0  0  0
   42.4035   30.8747   38.7565 S   0  0  0  0  0  0  0  0  0  0  0  0
   40.2599   28.6758   37.4913 H   0  0  0  0  0  0  0  0  0  0  0  0
   40.9404   28.6186   39.1508 H   0  0  0  0  0  0  0  0  0  0  0  0
   40.4533   30.3170   36.2848 H   0  0  0  0  0  0  0  0  0  0  0  0
   39.1784   31.3461   36.9810 H   0  0  0  0  0  0  0  0  0  0  0  0
   39.0037   31.7695   39.2110 H   0  0  0  0  0  0  0  0  0  0  0  0
   39.9414   30.8032   40.4176 H   0  0  0  0  0  0  0  0  0  0  0  0
   42.9132   33.5965   38.4550 H   0  0  0  0  0  0  0  0  0  0  0  0
   42.4307   31.9436   41.0238 H   0  0  0  0  0  0  0  0  0  0  0  0
  1 12  1  0
  1  2  1  0
  2  7  1  0
  3  2  2  0
  4  3  1  0
  5  6  1  0
  5  4  2  0
  6  1  2  0
  7  8  1  0
  7 11  2  0
  8  9  2  0
  9 10  1  0
 11 10  1  0
 13 14  2  0
 13 12  1  0
  3 15  1  0
  5 16  1  0
  8 17  1  0
  9 18  1  0
 10 19  1  0
 20 21  1  0
 20 22  1  0
 22 23  1  0
 23 24  1  0
 22 25  1  0
 25 26  1  0
 26 27  1  0
 27 28  2  0
 27 29  1  0
 29 30  1  0
 30 31  1  0
 31 22  1  0
 30 26  1  0
 20 32  1  0
 20 33  1  0
 23 34  1  0
 23 35  1  0
 25 36  1  0
 25 37  1  0
 29 38  1  6
 30 39  1  1
 13 29  1  0
M  ISO  7  15  14  16  14  17  14  18  14  19   9  21   8  24   8
M  END
>  <DihAtoms>  (1) 
13,12,28,26

>  <DihDeg>  (1) 
0.0019852218101720624

$$$$
