
 OpenBabel03242510213D

 39 44  0  0  1  0  0  0  0  0999 V2000
   37.7590   29.6420   39.9640 N   0  0  0  0  0  0  0  0  0  0  0  0
   37.0200   29.8100   41.1230 C   0  0  0  0  0  0  0  0  0  0  0  0
   36.1270   30.6500   41.4180 O   0  0  0  0  0  0  0  0  0  0  0  0
   38.7950   29.4810   40.1000 H   0  0  0  0  0  0  0  0  0  0  0  0
   37.3820   30.9400   37.8870 C   0  0  1  0  0  0  0  0  0  0  0  0
   38.1910   29.8360   37.5130 C   0  0  0  0  0  0  0  0  0  0  0  0
   37.1760   29.6810   38.6600 C   0  0  1  0  0  0  0  0  0  0  0  0
   36.5520   31.3020   37.2360 H   0  0  0  0  0  0  0  0  0  0  0  0
   39.2340   29.6320   37.8210 H   0  0  0  0  0  0  0  0  0  0  0  0
   37.9550   29.2660   36.5750 H   0  0  0  0  0  0  0  0  0  0  0  0
   36.4180   28.9180   38.3940 H   0  0  0  0  0  0  0  0  0  0  0  0
   39.4670   32.2200   38.7300 C   0  0  0  0  0  0  0  0  0  0  0  0
   38.0630   32.0960   38.6300 C   0  0  0  0  0  0  0  0  0  0  0  0
   37.2800   33.0450   39.2540 C   0  0  0  0  0  0  0  0  0  0  0  0
   37.8840   34.0490   39.9320 N   0  0  0  0  0  0  0  0  0  0  0  0
   39.2350   34.1600   40.0240 C   0  0  0  0  0  0  0  0  0  0  0  0
   40.0500   33.2090   39.3990 N   0  0  0  0  0  0  0  0  0  0  0  0
   40.0640   31.4890   38.2470 H   0  0  0  0  0  0  0  0  0  0  0  0
   36.2060   33.0040   39.2130 H   0  0  0  0  0  0  0  0  0  0  0  0
   39.7010   34.9680   40.5700 H   0  0  0  0  0  0  0  0  0  0  0  0
   37.2350   28.8630   42.3020 C   0  0  2  0  0  0  0  0  0  0  0  0
   38.3800   29.2520   43.2930 C   0  0  0  0  0  0  0  0  0  0  0  0
   38.4390   28.0470   42.4140 C   0  0  1  0  0  0  0  0  0  0  0  0
   36.3080   28.5810   42.8510 H   0  0  0  0  0  0  0  0  0  0  0  0
   38.0600   29.2190   44.3250 H   0  0  0  0  0  0  0  0  0  0  0  0
   38.9030   30.1990   43.0530 H   0  0  0  0  0  0  0  0  0  0  0  0
   39.2420   28.2130   41.6740 H   0  0  0  0  0  0  0  0  0  0  0  0
   38.4340   26.6630   42.9210 C   0  0  0  0  0  2  0  0  0  0  0  0
   38.6710   25.5140   42.0390 C   0  0  2  0  0  0  0  0  0  0  0  0
   38.7560   25.7770   40.5940 C   0  0  0  0  0  2  0  0  0  0  0  0
   38.1860   24.7480   39.8190 N   0  0  2  0  0  0  0  0  0  0  0  0
   37.8120   23.9350   38.7130 C   0  0  2  0  0  0  0  0  0  0  0  0
   38.3000   23.4650   37.6500 O   0  0  0  0  0  1  0  0  0  0  0  0
   36.4670   23.8600   39.4070 C   0  0  0  0  0  3  0  0  0  0  0  0
   35.8990   22.9530   39.1830 H   0  0  0  0  0  0  0  0  0  0  0  0
   37.3890   23.7570   40.5650 C   0  0  2  0  0  0  0  0  0  0  0  0
   37.0160   24.6690   42.0680 S   0  0  0  0  0  0  0  0  0  0  0  0
   39.6100   24.4490   42.5380 C   0  0  0  0  0  2  0  0  0  0  0  0
   40.6590   24.5750   42.2580 H   0  0  0  0  0  0  0  0  0  0  0  0
  1  4  1  0  0  0  0
  1  2  1  0  0  0  0
  2  3  2  0  0  0  0
  2 21  1  0  0  0  0
  5  8  1  6  0  0  0
  5 13  1  0  0  0  0
  5  7  1  0  0  0  0
  6  9  1  0  0  0  0
  6  5  1  0  0  0  0
  6  7  1  0  0  0  0
  7 11  1  6  0  0  0
  7  1  1  0  0  0  0
 10  6  1  0  0  0  0
 12 17  1  0  0  0  0
 13 12  2  0  0  0  0
 13 14  1  0  0  0  0
 14 15  2  0  0  0  0
 15 16  1  0  0  0  0
 16 20  1  0  0  0  0
 17 16  2  0  0  0  0
 18 12  1  0  0  0  0
 19 14  1  0  0  0  0
 21 23  1  0  0  0  0
 21 24  1  1  0  0  0
 21 22  1  0  0  0  0
 22 25  1  0  0  0  0
 23 27  1  6  0  0  0
 23 28  1  0  0  0  0
 23 22  1  0  0  0  0
 26 22  1  0  0  0  0
 29 37  1  0  0  0  0
 29 38  1  1  0  0  0
 29 28  1  0  0  0  0
 30 29  1  0  0  0  0
 31 36  1  0  0  0  0
 31 30  1  6  0  0  0
 32 33  1  6  0  0  0
 32 34  1  0  0  0  0
 32 31  1  0  0  0  0
 32 36  1  0  0  0  0
 35 34  1  0  0  0  0
 36 34  1  6  0  0  0
 36 37  1  0  0  0  0
 39 38  1  0  0  0  0
M  END
>  <minimizedAffinity>
-5.55153894

$$$$

 OpenBabel03242510213D

 39 44  0  0  1  0  0  0  0  0999 V2000
   39.3870   25.3750   41.0370 N   0  0  0  0  0  0  0  0  0  0  0  0
   38.1130   24.9020   40.7700 C   0  0  0  0  0  0  0  0  0  0  0  0
   37.6740   23.7230   40.6740 O   0  0  0  0  0  0  0  0  0  0  0  0
   39.7200   26.1670   40.4220 H   0  0  0  0  0  0  0  0  0  0  0  0
   40.3980   25.7070   43.2750 C   0  0  1  0  0  0  0  0  0  0  0  0
   39.4880   24.6280   43.4170 C   0  0  0  0  0  0  0  0  0  0  0  0
   40.2110   24.8410   42.0750 C   0  0  1  0  0  0  0  0  0  0  0  0
   41.3920   25.7020   43.7810 H   0  0  0  0  0  0  0  0  0  0  0  0
   38.3850   24.6620   43.3290 H   0  0  0  0  0  0  0  0  0  0  0  0
   39.7940   23.7140   43.9940 H   0  0  0  0  0  0  0  0  0  0  0  0
   40.8520   23.9670   41.8470 H   0  0  0  0  0  0  0  0  0  0  0  0
   38.4870   27.4240   43.5910 C   0  0  0  0  0  0  0  0  0  0  0  0
   39.8110   27.1210   43.1970 C   0  0  0  0  0  0  0  0  0  0  0  0
   40.5900   28.1440   42.6980 C   0  0  0  0  0  0  0  0  0  0  0  0
   40.0600   29.3860   42.6040 N   0  0  0  0  0  0  0  0  0  0  0  0
   38.7860   29.6670   42.9840 C   0  0  0  0  0  0  0  0  0  0  0  0
   37.9760   28.6460   43.4950 N   0  0  0  0  0  0  0  0  0  0  0  0
   37.8930   26.6340   43.9760 H   0  0  0  0  0  0  0  0  0  0  0  0
   41.6050   27.9760   42.3820 H   0  0  0  0  0  0  0  0  0  0  0  0
   38.3780   30.6650   42.9030 H   0  0  0  0  0  0  0  0  0  0  0  0
   36.9690   25.8880   40.5500 C   0  0  2  0  0  0  0  0  0  0  0  0
   36.4080   25.9740   39.0920 C   0  0  0  0  0  0  0  0  0  0  0  0
   37.1460   27.0940   39.7470 C   0  0  1  0  0  0  0  0  0  0  0  0
   36.1420   25.8220   41.2930 H   0  0  0  0  0  0  0  0  0  0  0  0
   35.3300   25.9110   39.0610 H   0  0  0  0  0  0  0  0  0  0  0  0
   36.8840   25.2820   38.3690 H   0  0  0  0  0  0  0  0  0  0  0  0
   38.1060   27.2190   39.2140 H   0  0  0  0  0  0  0  0  0  0  0  0
   36.5320   28.3900   40.0880 C   0  0  0  0  0  2  0  0  0  0  0  0
   36.9400   29.6370   39.4290 C   0  0  2  0  0  0  0  0  0  0  0  0
   38.3780   29.9430   39.3910 C   0  0  0  0  0  2  0  0  0  0  0  0
   38.6450   31.3200   39.5320 N   0  0  2  0  0  0  0  0  0  0  0  0
   39.3180   32.5720   39.5540 C   0  0  2  0  0  0  0  0  0  0  0  0
   40.1740   33.2220   38.8940 O   0  0  0  0  0  1  0  0  0  0  0  0
   38.5080   32.8240   40.8090 C   0  0  0  0  0  3  0  0  0  0  0  0
   38.3140   33.8800   41.0110 H   0  0  0  0  0  0  0  0  0  0  0  0
   37.5010   32.1490   39.9520 C   0  0  2  0  0  0  0  0  0  0  0  0
   36.4200   30.9120   40.6770 S   0  0  0  0  0  0  0  0  0  0  0  0
   36.1800   30.0380   38.1920 C   0  0  0  0  0  2  0  0  0  0  0  0
   36.5980   29.6820   37.2460 H   0  0  0  0  0  0  0  0  0  0  0  0
  1  7  1  0  0  0  0
  2  1  1  0  0  0  0
  3  2  2  0  0  0  0
  4  1  1  0  0  0  0
  5  6  1  0  0  0  0
  5  8  1  1  0  0  0
  6 10  1  0  0  0  0
  7 11  1  6  0  0  0
  7  5  1  0  0  0  0
  7  6  1  0  0  0  0
  9  6  1  0  0  0  0
 12 18  1  0  0  0  0
 13  5  1  0  0  0  0
 13 12  2  0  0  0  0
 14 13  1  0  0  0  0
 15 14  2  0  0  0  0
 15 16  1  0  0  0  0
 16 17  2  0  0  0  0
 17 12  1  0  0  0  0
 19 14  1  0  0  0  0
 20 16  1  0  0  0  0
 21  2  1  0  0  0  0
 21 24  1  1  0  0  0
 22 23  1  0  0  0  0
 22 21  1  0  0  0  0
 23 27  1  6  0  0  0
 23 28  1  0  0  0  0
 23 21  1  0  0  0  0
 25 22  1  0  0  0  0
 26 22  1  0  0  0  0
 29 38  1  6  0  0  0
 29 28  1  0  0  0  0
 29 37  1  0  0  0  0
 30 29  1  0  0  0  0
 31 30  1  1  0  0  0
 31 32  1  0  0  0  0
 31 36  1  0  0  0  0
 32 33  1  6  0  0  0
 32 36  1  0  0  0  0
 32 34  1  0  0  0  0
 34 35  1  0  0  0  0
 36 37  1  6  0  0  0
 36 34  1  0  0  0  0
 39 38  1  0  0  0  0
M  END
>  <minimizedAffinity>
-5.49728394

$$$$

 OpenBabel03242510213D

 39 44  0  0  1  0  0  0  0  0999 V2000
   39.4850   31.5920   39.7800 N   0  0  0  0  0  0  0  0  0  0  0  0
   40.1300   31.7740   40.9920 C   0  0  0  0  0  0  0  0  0  0  0  0
   40.8980   32.6930   41.3880 O   0  0  0  0  0  0  0  0  0  0  0  0
   39.5310   30.6160   39.3780 H   0  0  0  0  0  0  0  0  0  0  0  0
   37.3340   32.4410   38.8890 C   0  0  1  0  0  0  0  0  0  0  0  0
   37.6970   33.3270   39.9350 C   0  0  0  0  0  0  0  0  0  0  0  0
   38.7960   32.6450   39.1010 C   0  0  1  0  0  0  0  0  0  0  0  0
   36.8810   32.8120   37.9400 H   0  0  0  0  0  0  0  0  0  0  0  0
   37.7640   33.1000   41.0160 H   0  0  0  0  0  0  0  0  0  0  0  0
   37.5920   34.4350   39.7870 H   0  0  0  0  0  0  0  0  0  0  0  0
   39.3910   33.4070   38.5610 H   0  0  0  0  0  0  0  0  0  0  0  0
   36.3160   30.7800   40.5940 C   0  0  0  0  0  0  0  0  0  0  0  0
   36.7690   31.0710   39.2860 C   0  0  0  0  0  0  0  0  0  0  0  0
   36.7210   30.0660   38.3440 C   0  0  0  0  0  0  0  0  0  0  0  0
   36.2470   28.8510   38.7040 N   0  0  0  0  0  0  0  0  0  0  0  0
   35.8150   28.5800   39.9640 C   0  0  0  0  0  0  0  0  0  0  0  0
   35.8530   29.5840   40.9380 N   0  0  0  0  0  0  0  0  0  0  0  0
   36.3530   31.5580   41.3140 H   0  0  0  0  0  0  0  0  0  0  0  0
   37.0510   30.2270   37.3320 H   0  0  0  0  0  0  0  0  0  0  0  0
   35.4390   27.6030   40.2360 H   0  0  0  0  0  0  0  0  0  0  0  0
   39.9370   30.7560   42.1130 C   0  0  2  0  0  0  0  0  0  0  0  0
   41.0980   29.7270   42.3120 C   0  0  0  0  0  0  0  0  0  0  0  0
   39.7400   29.3380   41.8290 C   0  0  1  0  0  0  0  0  0  0  0  0
   39.6130   31.1870   43.0870 H   0  0  0  0  0  0  0  0  0  0  0  0
   41.4060   29.6480   43.3440 H   0  0  0  0  0  0  0  0  0  0  0  0
   41.9620   29.8630   41.6310 H   0  0  0  0  0  0  0  0  0  0  0  0
   39.8410   29.0070   40.7800 H   0  0  0  0  0  0  0  0  0  0  0  0
   38.8140   28.4810   42.5920 C   0  0  0  0  0  2  0  0  0  0  0  0
   38.9030   27.0170   42.5510 C   0  0  2  0  0  0  0  0  0  0  0  0
   39.0900   26.3870   41.2350 C   0  0  0  0  0  2  0  0  0  0  0  0
   38.3980   25.1660   41.1120 N   0  0  2  0  0  0  0  0  0  0  0  0
   37.9480   23.9090   40.6230 C   0  0  2  0  0  0  0  0  0  0  0  0
   38.4000   22.8630   40.0820 O   0  0  0  0  0  1  0  0  0  0  0  0
   36.5790   24.3900   41.0620 C   0  0  0  0  0  3  0  0  0  0  0  0
   35.8850   23.5850   41.3200 H   0  0  0  0  0  0  0  0  0  0  0  0
   37.4240   24.8780   42.1800 C   0  0  2  0  0  0  0  0  0  0  0  0
   37.1360   26.5220   42.8430 S   0  0  0  0  0  0  0  0  0  0  0  0
   39.6400   26.3430   43.6780 C   0  0  0  0  0  2  0  0  0  0  0  0
   40.7060   26.1740   43.5110 H   0  0  0  0  0  0  0  0  0  0  0  0
  1  2  1  0  0  0  0
  2  3  2  0  0  0  0
  2 21  1  0  0  0  0
  4  1  1  0  0  0  0
  5  8  1  6  0  0  0
  5  7  1  0  0  0  0
  5 13  1  0  0  0  0
  5  6  1  0  0  0  0
  6  9  1  0  0  0  0
  7 11  1  6  0  0  0
  7  1  1  0  0  0  0
  7  6  1  0  0  0  0
 10  6  1  0  0  0  0
 12 17  1  0  0  0  0
 12 18  1  0  0  0  0
 13 12  2  0  0  0  0
 14 15  2  0  0  0  0
 14 13  1  0  0  0  0
 15 16  1  0  0  0  0
 16 20  1  0  0  0  0
 16 17  2  0  0  0  0
 19 14  1  0  0  0  0
 21 22  1  0  0  0  0
 21 24  1  1  0  0  0
 22 25  1  0  0  0  0
 23 27  1  6  0  0  0
 23 21  1  0  0  0  0
 23 22  1  0  0  0  0
 23 28  1  0  0  0  0
 26 22  1  0  0  0  0
 29 28  1  6  0  0  0
 29 37  1  0  0  0  0
 29 38  1  0  0  0  0
 30 29  1  0  0  0  0
 31 30  1  6  0  0  0
 31 36  1  0  0  0  0
 32 33  1  6  0  0  0
 32 34  1  0  0  0  0
 32 31  1  0  0  0  0
 32 36  1  0  0  0  0
 34 35  1  0  0  0  0
 36 34  1  6  0  0  0
 36 37  1  0  0  0  0
 39 38  1  0  0  0  0
M  END
>  <minimizedAffinity>
-5.47413874

$$$$

 OpenBabel03242510213D

 39 44  0  0  1  0  0  0  0  0999 V2000
   37.0510   26.5100   40.9880 N   0  0  0  0  0  0  0  0  0  0  0  0
   37.4090   27.7150   40.4050 C   0  0  0  0  0  0  0  0  0  0  0  0
   38.2330   27.9740   39.4860 O   0  0  0  0  0  0  0  0  0  0  0  0
   36.9890   26.5110   42.0430 H   0  0  0  0  0  0  0  0  0  0  0  0
   37.7630   24.2200   40.3640 C   0  0  1  0  0  0  0  0  0  0  0  0
   36.5440   24.0670   41.0730 C   0  0  0  0  0  0  0  0  0  0  0  0
   36.7780   25.3310   40.2270 C   0  0  1  0  0  0  0  0  0  0  0  0
   37.9950   23.6060   39.4630 H   0  0  0  0  0  0  0  0  0  0  0  0
   36.3560   24.2850   42.1420 H   0  0  0  0  0  0  0  0  0  0  0  0
   35.7610   23.3620   40.6880 H   0  0  0  0  0  0  0  0  0  0  0  0
   36.0280   25.3870   39.4130 H   0  0  0  0  0  0  0  0  0  0  0  0
   39.0850   24.3560   42.5850 C   0  0  0  0  0  0  0  0  0  0  0  0
   39.0250   24.5210   41.1820 C   0  0  0  0  0  0  0  0  0  0  0  0
   40.1450   24.9990   40.5350 C   0  0  0  0  0  0  0  0  0  0  0  0
   41.2490   25.2890   41.2640 N   0  0  0  0  0  0  0  0  0  0  0  0
   41.2970   25.1280   42.6120 C   0  0  0  0  0  0  0  0  0  0  0  0
   40.1730   24.6440   43.2910 N   0  0  0  0  0  0  0  0  0  0  0  0
   38.2220   23.9860   43.0770 H   0  0  0  0  0  0  0  0  0  0  0  0
   40.1610   25.1450   39.4690 H   0  0  0  0  0  0  0  0  0  0  0  0
   42.1870   25.3650   43.1790 H   0  0  0  0  0  0  0  0  0  0  0  0
   36.7460   29.0080   40.8720 C   0  0  2  0  0  0  0  0  0  0  0  0
   35.3020   29.2720   40.3340 C   0  0  0  0  0  0  0  0  0  0  0  0
   36.4790   30.1050   39.9470 C   0  0  1  0  0  0  0  0  0  0  0  0
   36.8050   29.1970   41.9680 H   0  0  0  0  0  0  0  0  0  0  0  0
   34.6130   29.5460   41.1200 H   0  0  0  0  0  0  0  0  0  0  0  0
   34.8930   28.4720   39.6870 H   0  0  0  0  0  0  0  0  0  0  0  0
   36.6740   29.9290   38.8740 H   0  0  0  0  0  0  0  0  0  0  0  0
   36.6310   31.5260   40.3100 C   0  0  0  0  0  2  0  0  0  0  0  0
   37.6270   32.3880   39.6620 C   0  0  2  0  0  0  0  0  0  0  0  0
   38.4020   31.8110   38.5540 C   0  0  0  0  0  2  0  0  0  0  0  0
   39.7380   32.2610   38.5320 N   0  0  2  0  0  0  0  0  0  0  0  0
   41.0720   32.5180   38.1130 C   0  0  2  0  0  0  0  0  0  0  0  0
   41.7160   32.8470   37.0800 O   0  0  0  0  0  1  0  0  0  0  0  0
   41.4310   32.2050   39.5520 C   0  0  0  0  0  3  0  0  0  0  0  0
   42.3440   32.6960   39.9020 H   0  0  0  0  0  0  0  0  0  0  0  0
   40.1830   32.9880   39.7340 C   0  0  2  0  0  0  0  0  0  0  0  0
   38.9730   32.4390   40.9430 S   0  0  0  0  0  0  0  0  0  0  0  0
   37.2650   33.8390   39.4860 C   0  0  0  0  0  2  0  0  0  0  0  0
   36.7810   34.0930   38.5400 H   0  0  0  0  0  0  0  0  0  0  0  0
  1  4  1  0  0  0  0
  2 21  1  0  0  0  0
  2  1  1  0  0  0  0
  3  2  2  0  0  0  0
  5  8  1  6  0  0  0
  5  6  1  0  0  0  0
  5 13  1  0  0  0  0
  6  9  1  0  0  0  0
  7 11  1  6  0  0  0
  7  5  1  0  0  0  0
  7  1  1  0  0  0  0
  7  6  1  0  0  0  0
 10  6  1  0  0  0  0
 12 18  1  0  0  0  0
 12 17  1  0  0  0  0
 13 12  2  0  0  0  0
 14 13  1  0  0  0  0
 14 15  2  0  0  0  0
 15 16  1  0  0  0  0
 16 20  1  0  0  0  0
 16 17  2  0  0  0  0
 19 14  1  0  0  0  0
 21 24  1  1  0  0  0
 22 21  1  0  0  0  0
 22 25  1  0  0  0  0
 23 27  1  6  0  0  0
 23 28  1  0  0  0  0
 23 22  1  0  0  0  0
 23 21  1  0  0  0  0
 26 22  1  0  0  0  0
 29 38  1  6  0  0  0
 29 28  1  0  0  0  0
 29 37  1  0  0  0  0
 30 29  1  0  0  0  0
 31 30  1  1  0  0  0
 31 36  1  0  0  0  0
 32 33  1  6  0  0  0
 32 31  1  0  0  0  0
 32 34  1  0  0  0  0
 32 36  1  0  0  0  0
 34 35  1  0  0  0  0
 36 34  1  1  0  0  0
 36 37  1  0  0  0  0
 39 38  1  0  0  0  0
M  END
>  <minimizedAffinity>
-5.46917486

$$$$

 OpenBabel03242510213D

 39 44  0  0  1  0  0  0  0  0999 V2000
   38.3870   28.0150   42.1800 N   0  0  0  0  0  0  0  0  0  0  0  0
   37.0100   28.1170   42.2950 C   0  0  0  0  0  0  0  0  0  0  0  0
   36.1800   27.4070   42.9250 O   0  0  0  0  0  0  0  0  0  0  0  0
   38.7760   28.1290   41.2050 H   0  0  0  0  0  0  0  0  0  0  0  0
   39.9120   26.4390   43.3340 C   0  0  1  0  0  0  0  0  0  0  0  0
   40.7180   27.5360   42.9340 C   0  0  0  0  0  0  0  0  0  0  0  0
   39.2420   27.7710   43.2990 C   0  0  1  0  0  0  0  0  0  0  0  0
   40.0510   25.9440   44.3240 H   0  0  0  0  0  0  0  0  0  0  0  0
   40.9670   27.8440   41.9000 H   0  0  0  0  0  0  0  0  0  0  0  0
   41.4710   27.9640   43.6480 H   0  0  0  0  0  0  0  0  0  0  0  0
   39.1720   28.4440   44.1770 H   0  0  0  0  0  0  0  0  0  0  0  0
   38.3850   24.5710   42.3990 C   0  0  0  0  0  0  0  0  0  0  0  0
   39.4950   25.4350   42.2540 C   0  0  0  0  0  0  0  0  0  0  0  0
   40.2430   25.3420   41.0990 C   0  0  0  0  0  0  0  0  0  0  0  0
   39.8880   24.4350   40.1590 N   0  0  0  0  0  0  0  0  0  0  0  0
   38.8200   23.6080   40.3080 C   0  0  0  0  0  0  0  0  0  0  0  0
   38.0460   23.6840   41.4710 N   0  0  0  0  0  0  0  0  0  0  0  0
   37.8120   24.6480   43.2880 H   0  0  0  0  0  0  0  0  0  0  0  0
   41.0990   25.9730   40.9300 H   0  0  0  0  0  0  0  0  0  0  0  0
   38.5510   22.8890   39.5470 H   0  0  0  0  0  0  0  0  0  0  0  0
   36.2730   29.2500   41.5860 C   0  0  2  0  0  0  0  0  0  0  0  0
   35.9380   29.0120   40.0770 C   0  0  0  0  0  0  0  0  0  0  0  0
   36.9160   30.0410   40.5410 C   0  0  1  0  0  0  0  0  0  0  0  0
   35.3900   29.6510   42.1330 H   0  0  0  0  0  0  0  0  0  0  0  0
   34.9070   29.2360   39.8440 H   0  0  0  0  0  0  0  0  0  0  0  0
   36.2470   28.0250   39.6810 H   0  0  0  0  0  0  0  0  0  0  0  0
   37.9190   29.7250   40.2020 H   0  0  0  0  0  0  0  0  0  0  0  0
   36.7130   31.4930   40.3840 C   0  0  0  0  0  2  0  0  0  0  0  0
   37.7110   32.3480   39.7310 C   0  0  2  0  0  0  0  0  0  0  0  0
   38.4490   31.7790   38.5930 C   0  0  0  0  0  2  0  0  0  0  0  0
   39.7930   32.2020   38.5490 N   0  0  2  0  0  0  0  0  0  0  0  0
   41.1230   32.4400   38.1050 C   0  0  2  0  0  0  0  0  0  0  0  0
   41.7490   32.7770   37.0630 O   0  0  0  0  0  1  0  0  0  0  0  0
   41.5080   32.0890   39.5280 C   0  0  0  0  0  3  0  0  0  0  0  0
   42.4380   32.5540   39.8660 H   0  0  0  0  0  0  0  0  0  0  0  0
   40.2810   32.8930   39.7560 C   0  0  2  0  0  0  0  0  0  0  0  0
   39.0870   32.3440   40.9810 S   0  0  0  0  0  0  0  0  0  0  0  0
   37.3760   33.8090   39.5930 C   0  0  0  0  0  2  0  0  0  0  0  0
   36.8760   34.0930   38.6640 H   0  0  0  0  0  0  0  0  0  0  0  0
  1  2  1  0  0  0  0
  1  7  1  0  0  0  0
  2  3  2  0  0  0  0
  4  1  1  0  0  0  0
  5  8  1  1  0  0  0
  6  7  1  0  0  0  0
  6  5  1  0  0  0  0
  6 10  1  0  0  0  0
  7  5  1  0  0  0  0
  7 11  1  1  0  0  0
  9  6  1  0  0  0  0
 12 18  1  0  0  0  0
 13 12  1  0  0  0  0
 13  5  1  0  0  0  0
 14 13  2  0  0  0  0
 15 16  2  0  0  0  0
 15 14  1  0  0  0  0
 16 17  1  0  0  0  0
 17 12  2  0  0  0  0
 19 14  1  0  0  0  0
 20 16  1  0  0  0  0
 21 24  1  1  0  0  0
 21  2  1  0  0  0  0
 22 23  1  0  0  0  0
 22 21  1  0  0  0  0
 23 27  1  6  0  0  0
 23 21  1  0  0  0  0
 25 22  1  0  0  0  0
 26 22  1  0  0  0  0
 28 23  1  0  0  0  0
 29 38  1  6  0  0  0
 29 28  1  0  0  0  0
 29 37  1  0  0  0  0
 30 29  1  0  0  0  0
 31 30  1  1  0  0  0
 31 36  1  0  0  0  0
 32 33  1  6  0  0  0
 32 31  1  0  0  0  0
 32 34  1  0  0  0  0
 32 36  1  0  0  0  0
 34 35  1  0  0  0  0
 36 34  1  1  0  0  0
 36 37  1  0  0  0  0
 39 38  1  0  0  0  0
M  END
>  <minimizedAffinity>
-5.443645

$$$$

 OpenBabel03242510213D

 39 44  0  0  1  0  0  0  0  0999 V2000
   37.7440   26.6840   41.2100 N   0  0  0  0  0  0  0  0  0  0  0  0
   36.9320   26.3880   40.1280 C   0  0  0  0  0  0  0  0  0  0  0  0
   36.3120   25.3320   39.8260 O   0  0  0  0  0  0  0  0  0  0  0  0
   38.6470   27.1840   40.9840 H   0  0  0  0  0  0  0  0  0  0  0  0
   37.9430   27.2350   43.6180 C   0  0  1  0  0  0  0  0  0  0  0  0
   36.5740   27.4110   43.2920 C   0  0  0  0  0  0  0  0  0  0  0  0
   37.4000   26.3420   42.5550 C   0  0  1  0  0  0  0  0  0  0  0  0
   38.2600   26.7760   44.5840 H   0  0  0  0  0  0  0  0  0  0  0  0
   36.1360   28.1700   42.6150 H   0  0  0  0  0  0  0  0  0  0  0  0
   35.7820   27.0210   43.9860 H   0  0  0  0  0  0  0  0  0  0  0  0
   36.9830   25.3350   42.7570 H   0  0  0  0  0  0  0  0  0  0  0  0
   40.3080   28.0830   42.9960 C   0  0  0  0  0  0  0  0  0  0  0  0
   38.9250   28.3220   43.1630 C   0  0  0  0  0  0  0  0  0  0  0  0
   38.4530   29.5970   42.9290 C   0  0  0  0  0  0  0  0  0  0  0  0
   39.3260   30.5610   42.5540 N   0  0  0  0  0  0  0  0  0  0  0  0
   40.6550   30.3220   42.3970 C   0  0  0  0  0  0  0  0  0  0  0  0
   41.1580   29.0360   42.6280 N   0  0  0  0  0  0  0  0  0  0  0  0
   40.6650   27.1010   43.1750 H   0  0  0  0  0  0  0  0  0  0  0  0
   37.4100   29.8400   43.0390 H   0  0  0  0  0  0  0  0  0  0  0  0
   41.3390   31.1030   42.0970 H   0  0  0  0  0  0  0  0  0  0  0  0
   36.6670   27.4530   39.0670 C   0  0  2  0  0  0  0  0  0  0  0  0
   37.7630   27.6070   37.9620 C   0  0  0  0  0  0  0  0  0  0  0  0
   37.4810   28.6620   38.9800 C   0  0  1  0  0  0  0  0  0  0  0  0
   35.6480   27.4260   38.6190 H   0  0  0  0  0  0  0  0  0  0  0  0
   37.3450   27.6170   36.9650 H   0  0  0  0  0  0  0  0  0  0  0  0
   38.6120   26.9010   38.0460 H   0  0  0  0  0  0  0  0  0  0  0  0
   38.3640   28.7330   39.6400 H   0  0  0  0  0  0  0  0  0  0  0  0
   36.9280   29.9880   38.6530 C   0  0  0  0  0  2  0  0  0  0  0  0
   37.7910   31.1530   38.4290 C   0  0  2  0  0  0  0  0  0  0  0  0
   39.1450   31.1120   39.0020 C   0  0  0  0  0  2  0  0  0  0  0  0
   39.5770   32.3690   39.4710 N   0  0  2  0  0  0  0  0  0  0  0  0
   40.3960   33.4200   39.9670 C   0  0  2  0  0  0  0  0  0  0  0  0
   41.5510   33.9010   39.8120 O   0  0  0  0  0  1  0  0  0  0  0  0
   39.2000   33.7500   40.8370 C   0  0  0  0  0  3  0  0  0  0  0  0
   39.1360   34.8010   41.1280 H   0  0  0  0  0  0  0  0  0  0  0  0
   38.5340   33.4080   39.5550 C   0  0  2  0  0  0  0  0  0  0  0  0
   37.0430   32.4050   39.5810 S   0  0  0  0  0  0  0  0  0  0  0  0
   37.6990   31.8250   37.0850 C   0  0  0  0  0  2  0  0  0  0  0  0
   38.3980   31.4620   36.3270 H   0  0  0  0  0  0  0  0  0  0  0  0
  1  7  1  0  0  0  0
  2  1  1  0  0  0  0
  3  2  2  0  0  0  0
  4  1  1  0  0  0  0
  5  8  1  1  0  0  0
  6  5  1  0  0  0  0
  6 10  1  0  0  0  0
  7 11  1  1  0  0  0
  7  6  1  0  0  0  0
  7  5  1  0  0  0  0
  9  6  1  0  0  0  0
 12 13  1  0  0  0  0
 12 18  1  0  0  0  0
 13  5  1  0  0  0  0
 14 19  1  0  0  0  0
 14 13  2  0  0  0  0
 15 14  1  0  0  0  0
 16 15  2  0  0  0  0
 16 17  1  0  0  0  0
 17 12  2  0  0  0  0
 20 16  1  0  0  0  0
 21 24  1  6  0  0  0
 21  2  1  0  0  0  0
 22 26  1  0  0  0  0
 22 23  1  0  0  0  0
 22 21  1  0  0  0  0
 23 21  1  0  0  0  0
 23 27  1  1  0  0  0
 25 22  1  0  0  0  0
 28 23  1  0  0  0  0
 29 38  1  6  0  0  0
 29 28  1  0  0  0  0
 29 30  1  0  0  0  0
 29 37  1  0  0  0  0
 31 30  1  1  0  0  0
 31 36  1  0  0  0  0
 31 32  1  0  0  0  0
 32 33  1  6  0  0  0
 32 34  1  0  0  0  0
 34 35  1  0  0  0  0
 36 37  1  6  0  0  0
 36 32  1  0  0  0  0
 36 34  1  0  0  0  0
 39 38  1  0  0  0  0
M  END
>  <minimizedAffinity>
-5.33970451

$$$$

 OpenBabel03242510213D

 39 44  0  0  1  0  0  0  0  0999 V2000
   37.3220   29.3190   39.5990 N   0  0  0  0  0  0  0  0  0  0  0  0
   36.4260   29.3890   40.6530 C   0  0  0  0  0  0  0  0  0  0  0  0
   35.4780   30.1900   40.8780 O   0  0  0  0  0  0  0  0  0  0  0  0
   38.3330   29.1670   39.8660 H   0  0  0  0  0  0  0  0  0  0  0  0
   37.3030   30.7090   37.5480 C   0  0  1  0  0  0  0  0  0  0  0  0
   38.0890   29.5700   37.2370 C   0  0  0  0  0  0  0  0  0  0  0  0
   36.9230   29.4400   38.2320 C   0  0  1  0  0  0  0  0  0  0  0  0
   36.5900   31.1460   36.8100 H   0  0  0  0  0  0  0  0  0  0  0  0
   39.0680   29.2890   37.6710 H   0  0  0  0  0  0  0  0  0  0  0  0
   37.9480   29.0490   36.2520 H   0  0  0  0  0  0  0  0  0  0  0  0
   36.1640   28.7360   37.8370 H   0  0  0  0  0  0  0  0  0  0  0  0
   37.1830   32.7400   39.1470 C   0  0  0  0  0  0  0  0  0  0  0  0
   37.9440   31.7930   38.4230 C   0  0  0  0  0  0  0  0  0  0  0  0
   39.3190   31.8730   38.4940 C   0  0  0  0  0  0  0  0  0  0  0  0
   39.8810   32.8480   39.2460 N   0  0  0  0  0  0  0  0  0  0  0  0
   39.1420   33.7550   39.9370 C   0  0  0  0  0  0  0  0  0  0  0  0
   37.7450   33.6940   39.8820 N   0  0  0  0  0  0  0  0  0  0  0  0
   36.1270   32.6730   39.0910 H   0  0  0  0  0  0  0  0  0  0  0  0
   39.9510   31.1800   37.9660 H   0  0  0  0  0  0  0  0  0  0  0  0
   39.6070   34.5280   40.5330 H   0  0  0  0  0  0  0  0  0  0  0  0
   36.5040   28.3650   41.7830 C   0  0  2  0  0  0  0  0  0  0  0  0
   37.3720   28.7720   43.0180 C   0  0  0  0  0  0  0  0  0  0  0  0
   37.7450   27.6630   42.0910 C   0  0  1  0  0  0  0  0  0  0  0  0
   35.5240   27.9450   42.1030 H   0  0  0  0  0  0  0  0  0  0  0  0
   36.8560   28.6150   43.9540 H   0  0  0  0  0  0  0  0  0  0  0  0
   37.8220   29.7830   42.9590 H   0  0  0  0  0  0  0  0  0  0  0  0
   38.6570   27.9730   41.5500 H   0  0  0  0  0  0  0  0  0  0  0  0
   37.7960   26.2450   42.4890 C   0  0  0  0  0  2  0  0  0  0  0  0
   39.0440   25.4740   42.4550 C   0  0  2  0  0  0  0  0  0  0  0  0
   40.0250   25.7280   43.5210 C   0  0  0  0  0  2  0  0  0  0  0  0
   41.3570   25.6580   43.0630 N   0  0  2  0  0  0  0  0  0  0  0  0
   42.7770   25.5980   43.0380 C   0  0  2  0  0  0  0  0  0  0  0  0
   43.7340   25.0520   43.6520 O   0  0  0  0  0  1  0  0  0  0  0  0
   42.6530   26.5460   41.8610 C   0  0  0  0  0  3  0  0  0  0  0  0
   43.4800   26.4850   41.1490 H   0  0  0  0  0  0  0  0  0  0  0  0
   41.5240   25.6180   41.5990 C   0  0  2  0  0  0  0  0  0  0  0  0
   39.9500   26.2860   41.0490 S   0  0  0  0  0  0  0  0  0  0  0  0
   38.9500   24.0360   42.0180 C   0  0  0  0  0  2  0  0  0  0  0  0
   38.8040   23.3080   42.8200 H   0  0  0  0  0  0  0  0  0  0  0  0
  1  4  1  0  0  0  0
  1  2  1  0  0  0  0
  2  3  2  0  0  0  0
  2 21  1  0  0  0  0
  5  8  1  6  0  0  0
  5  7  1  0  0  0  0
  5 13  1  0  0  0  0
  6  5  1  0  0  0  0
  6  9  1  0  0  0  0
  6  7  1  0  0  0  0
  7 11  1  6  0  0  0
  7  1  1  0  0  0  0
 10  6  1  0  0  0  0
 12 17  1  0  0  0  0
 13 14  1  0  0  0  0
 13 12  2  0  0  0  0
 14 15  2  0  0  0  0
 15 16  1  0  0  0  0
 16 20  1  0  0  0  0
 17 16  2  0  0  0  0
 18 12  1  0  0  0  0
 19 14  1  0  0  0  0
 21 23  1  0  0  0  0
 21 24  1  1  0  0  0
 21 22  1  0  0  0  0
 22 25  1  0  0  0  0
 23 27  1  6  0  0  0
 23 28  1  0  0  0  0
 23 22  1  0  0  0  0
 26 22  1  0  0  0  0
 29 38  1  6  0  0  0
 29 28  1  0  0  0  0
 29 30  1  0  0  0  0
 31 30  1  6  0  0  0
 32 31  1  0  0  0  0
 32 33  1  1  0  0  0
 34 32  1  0  0  0  0
 35 34  1  0  0  0  0
 36 37  1  6  0  0  0
 36 34  1  0  0  0  0
 36 32  1  0  0  0  0
 36 31  1  0  0  0  0
 37 29  1  0  0  0  0
 38 39  1  0  0  0  0
M  END
>  <minimizedAffinity>
-5.29797173

$$$$

 OpenBabel03242510213D

 39 44  0  0  1  0  0  0  0  0999 V2000
   38.0160   29.8390   41.5270 N   0  0  0  0  0  0  0  0  0  0  0  0
   37.0910   30.7600   41.0640 C   0  0  0  0  0  0  0  0  0  0  0  0
   35.8310   30.7280   41.0510 O   0  0  0  0  0  0  0  0  0  0  0  0
   38.8370   29.6510   40.8880 H   0  0  0  0  0  0  0  0  0  0  0  0
   37.8810   27.6850   42.7450 C   0  0  1  0  0  0  0  0  0  0  0  0
   39.0890   28.2950   43.1690 C   0  0  0  0  0  0  0  0  0  0  0  0
   37.8870   29.1760   42.7860 C   0  0  1  0  0  0  0  0  0  0  0  0
   37.2200   27.1390   43.4590 H   0  0  0  0  0  0  0  0  0  0  0  0
   39.9910   28.4960   42.5590 H   0  0  0  0  0  0  0  0  0  0  0  0
   39.3620   28.2910   44.2580 H   0  0  0  0  0  0  0  0  0  0  0  0
   37.5530   29.7640   43.6640 H   0  0  0  0  0  0  0  0  0  0  0  0
   39.0280   26.5350   40.7300 C   0  0  0  0  0  0  0  0  0  0  0  0
   37.8640   27.0390   41.3540 C   0  0  0  0  0  0  0  0  0  0  0  0
   36.6730   26.9660   40.6630 C   0  0  0  0  0  0  0  0  0  0  0  0
   36.6660   26.4200   39.4240 N   0  0  0  0  0  0  0  0  0  0  0  0
   37.7910   25.9390   38.8320 C   0  0  0  0  0  0  0  0  0  0  0  0
   39.0120   26.0020   39.5130 N   0  0  0  0  0  0  0  0  0  0  0  0
   39.9410   26.5920   41.2670 H   0  0  0  0  0  0  0  0  0  0  0  0
   35.7530   27.3320   41.0850 H   0  0  0  0  0  0  0  0  0  0  0  0
   37.7680   25.5060   37.8410 H   0  0  0  0  0  0  0  0  0  0  0  0
   37.5720   32.0760   40.4570 C   0  0  2  0  0  0  0  0  0  0  0  0
   37.1750   32.3280   38.9650 C   0  0  0  0  0  0  0  0  0  0  0  0
   38.5840   32.1060   39.4060 C   0  0  1  0  0  0  0  0  0  0  0  0
   37.3790   32.9780   41.0800 H   0  0  0  0  0  0  0  0  0  0  0  0
   36.7480   33.3090   38.8120 H   0  0  0  0  0  0  0  0  0  0  0  0
   36.5550   31.5320   38.5070 H   0  0  0  0  0  0  0  0  0  0  0  0
   38.9160   31.1400   38.9870 H   0  0  0  0  0  0  0  0  0  0  0  0
   39.6380   33.1340   39.3270 C   0  0  0  0  0  2  0  0  0  0  0  0
   40.8600   32.9300   38.5400 C   0  0  2  0  0  0  0  0  0  0  0  0
   40.7500   32.1240   37.3150 C   0  0  0  0  0  2  0  0  0  0  0  0
   41.8860   31.3220   37.0860 N   0  0  2  0  0  0  0  0  0  0  0  0
   42.8320   30.4610   36.4640 C   0  0  2  0  0  0  0  0  0  0  0  0
   43.3860   30.2810   35.3460 O   0  0  0  0  0  1  0  0  0  0  0  0
   42.9040   29.7950   37.8230 C   0  0  0  0  0  3  0  0  0  0  0  0
   43.8590   29.3040   38.0300 H   0  0  0  0  0  0  0  0  0  0  0  0
   42.8320   31.2250   38.2120 C   0  0  2  0  0  0  0  0  0  0  0  0
   41.7860   31.7070   39.5910 S   0  0  0  0  0  0  0  0  0  0  0  0
   41.8140   34.0910   38.4430 C   0  0  0  0  0  2  0  0  0  0  0  0
   41.6620   34.7560   37.5900 H   0  0  0  0  0  0  0  0  0  0  0  0
  1  7  1  0  0  0  0
  2  1  1  0  0  0  0
  3  2  2  0  0  0  0
  4  1  1  0  0  0  0
  5  7  1  0  0  0  0
  5  6  1  0  0  0  0
  5  8  1  1  0  0  0
  6 10  1  0  0  0  0
  7  6  1  0  0  0  0
  7 11  1  1  0  0  0
  9  6  1  0  0  0  0
 12 18  1  0  0  0  0
 12 13  1  0  0  0  0
 13  5  1  0  0  0  0
 14 19  1  0  0  0  0
 14 13  2  0  0  0  0
 15 14  1  0  0  0  0
 16 15  2  0  0  0  0
 16 17  1  0  0  0  0
 17 12  2  0  0  0  0
 20 16  1  0  0  0  0
 21  2  1  0  0  0  0
 21 24  1  1  0  0  0
 22 23  1  0  0  0  0
 22 21  1  0  0  0  0
 23 27  1  6  0  0  0
 23 21  1  0  0  0  0
 25 22  1  0  0  0  0
 26 22  1  0  0  0  0
 28 23  1  0  0  0  0
 29 38  1  6  0  0  0
 29 28  1  0  0  0  0
 29 37  1  0  0  0  0
 30 29  1  0  0  0  0
 31 30  1  1  0  0  0
 31 36  1  0  0  0  0
 32 33  1  6  0  0  0
 32 31  1  0  0  0  0
 32 34  1  0  0  0  0
 32 36  1  0  0  0  0
 34 35  1  0  0  0  0
 36 34  1  1  0  0  0
 36 37  1  0  0  0  0
 39 38  1  0  0  0  0
M  END
>  <minimizedAffinity>
-5.28146124

$$$$

 OpenBabel03242510213D

 39 44  0  0  1  0  0  0  0  0999 V2000
   36.8870   25.9190   40.3530 N   0  0  0  0  0  0  0  0  0  0  0  0
   37.1080   25.6720   41.6970 C   0  0  0  0  0  0  0  0  0  0  0  0
   37.0120   24.6090   42.3680 O   0  0  0  0  0  0  0  0  0  0  0  0
   36.3290   26.7890   40.1310 H   0  0  0  0  0  0  0  0  0  0  0  0
   37.1580   25.5370   37.9190 C   0  0  1  0  0  0  0  0  0  0  0  0
   38.4700   25.6890   38.4360 C   0  0  0  0  0  0  0  0  0  0  0  0
   37.3740   25.0630   39.3160 C   0  0  1  0  0  0  0  0  0  0  0  0
   36.9230   24.7800   37.1340 H   0  0  0  0  0  0  0  0  0  0  0  0
   38.9170   26.6010   38.8770 H   0  0  0  0  0  0  0  0  0  0  0  0
   39.2840   24.9920   38.1030 H   0  0  0  0  0  0  0  0  0  0  0  0
   37.6440   24.0200   39.5730 H   0  0  0  0  0  0  0  0  0  0  0  0
   34.8980   26.7870   37.7440 C   0  0  0  0  0  0  0  0  0  0  0  0
   36.3120   26.8050   37.7490 C   0  0  0  0  0  0  0  0  0  0  0  0
   36.9470   28.0160   37.5680 C   0  0  0  0  0  0  0  0  0  0  0  0
   36.1980   29.1300   37.3910 N   0  0  0  0  0  0  0  0  0  0  0  0
   34.8390   29.1020   37.3860 C   0  0  0  0  0  0  0  0  0  0  0  0
   34.1720   27.8860   37.5690 N   0  0  0  0  0  0  0  0  0  0  0  0
   34.4150   25.8540   37.8860 H   0  0  0  0  0  0  0  0  0  0  0  0
   38.0210   28.0940   37.5630 H   0  0  0  0  0  0  0  0  0  0  0  0
   34.2560   30.0010   37.2430 H   0  0  0  0  0  0  0  0  0  0  0  0
   37.5590   26.8090   42.6110 C   0  0  2  0  0  0  0  0  0  0  0  0
   36.4680   27.3970   43.5640 C   0  0  0  0  0  0  0  0  0  0  0  0
   37.0650   28.1710   42.4360 C   0  0  1  0  0  0  0  0  0  0  0  0
   38.5100   26.6210   43.1600 H   0  0  0  0  0  0  0  0  0  0  0  0
   36.8120   27.4760   44.5860 H   0  0  0  0  0  0  0  0  0  0  0  0
   35.4780   26.9040   43.4990 H   0  0  0  0  0  0  0  0  0  0  0  0
   36.2700   28.3340   41.6860 H   0  0  0  0  0  0  0  0  0  0  0  0
   37.9060   29.3670   42.6180 C   0  0  0  0  0  2  0  0  0  0  0  0
   38.5220   30.0620   41.4800 C   0  0  2  0  0  0  0  0  0  0  0  0
   39.2740   31.2930   41.7660 C   0  0  0  0  0  2  0  0  0  0  0  0
   39.1270   32.2670   40.7580 N   0  0  2  0  0  0  0  0  0  0  0  0
   39.3100   33.4360   39.9690 C   0  0  2  0  0  0  0  0  0  0  0  0
   40.2360   34.1580   39.5100 O   0  0  0  0  0  1  0  0  0  0  0  0
   37.7960   33.4540   39.9030 C   0  0  0  0  0  3  0  0  0  0  0  0
   37.3940   33.9370   39.0090 H   0  0  0  0  0  0  0  0  0  0  0  0
   38.0690   32.0010   39.7680 C   0  0  2  0  0  0  0  0  0  0  0  0
   37.0410   30.8290   40.6600 S   0  0  0  0  0  0  0  0  0  0  0  0
   39.1120   29.2040   40.3930 C   0  0  0  0  0  2  0  0  0  0  0  0
   40.1700   28.9580   40.5070 H   0  0  0  0  0  0  0  0  0  0  0  0
  1  2  1  0  0  0  0
  2  3  2  0  0  0  0
  2 21  1  0  0  0  0
  4  1  1  0  0  0  0
  5  8  1  6  0  0  0
  5  6  1  0  0  0  0
  5  7  1  0  0  0  0
  6  9  1  0  0  0  0
  6  7  1  0  0  0  0
  7 11  1  1  0  0  0
  7  1  1  0  0  0  0
 10  6  1  0  0  0  0
 12 13  1  0  0  0  0
 12 18  1  0  0  0  0
 13  5  1  0  0  0  0
 14 13  2  0  0  0  0
 15 14  1  0  0  0  0
 16 15  2  0  0  0  0
 16 17  1  0  0  0  0
 17 12  2  0  0  0  0
 19 14  1  0  0  0  0
 20 16  1  0  0  0  0
 21 24  1  1  0  0  0
 21 22  1  0  0  0  0
 22 25  1  0  0  0  0
 23 27  1  6  0  0  0
 23 21  1  0  0  0  0
 23 28  1  0  0  0  0
 23 22  1  0  0  0  0
 26 22  1  0  0  0  0
 29 38  1  6  0  0  0
 29 30  1  0  0  0  0
 29 28  1  0  0  0  0
 31 30  1  1  0  0  0
 32 33  1  6  0  0  0
 32 31  1  0  0  0  0
 34 32  1  0  0  0  0
 35 34  1  0  0  0  0
 36 34  1  1  0  0  0
 36 32  1  0  0  0  0
 36 37  1  0  0  0  0
 36 31  1  0  0  0  0
 37 29  1  0  0  0  0
 38 39  1  0  0  0  0
M  END
>  <minimizedAffinity>
-5.25643492

$$$$
