
     RDKit          3D

 31 33  0  0  0  0  0  0  0  0999 V2000
   45.2043   35.9731   43.3731 C   0  0  0  0  0  0  0  0  0  0  0  0
   46.0873   34.9126   43.1511 C   0  0  0  0  0  0  0  0  0  0  0  0
   46.2463   33.9585   44.1669 C   0  0  0  0  0  0  0  0  0  0  0  0
   45.5335   34.1170   45.3111 N   0  0  0  0  0  0  0  0  0  0  0  0
   44.6878   35.1508   45.4986 C   0  0  0  0  0  0  0  0  0  0  0  0
   44.5362   36.0590   44.5322 N   0  0  0  0  0  0  0  0  0  0  0  0
   46.8248   34.7834   41.9192 C   0  0  0  0  0  0  0  0  0  0  0  0
   47.9087   35.3986   41.8208 O   0  0  0  0  0  0  0  0  0  0  0  0
   45.0488   36.7305   42.6229 H   0  0  0  0  0  0  0  0  0  0  0  0
   44.1411   35.2306   46.4339 H   0  0  0  0  0  0  0  0  0  0  0  0
   46.2777   34.1304   41.2404 H   0  0  0  0  0  0  0  0  0  0  0  0
   47.1692   32.8177   43.9797 C   0  0  0  0  0  0  0  0  0  0  0  0
   48.4083   33.0725   44.7956 C   0  0  2  0  0  0  0  0  0  0  0  0
   49.0950   34.3276   44.3727 C   0  0  0  0  0  0  0  0  0  0  0  0
   48.7517   34.6411   43.3678 H   0  0  0  0  0  0  0  0  0  0  0  0
   49.3944   31.9422   44.7531 C   0  0  0  0  0  0  0  0  0  0  0  0
   49.0792   31.0441   45.8349 N   0  0  0  0  0  0  0  0  0  0  0  0
   48.7596   29.8670   46.5859 C   0  0  0  0  0  0  0  0  0  0  0  0
   48.8937   28.6472   46.2937 O   0  0  0  0  0  0  0  0  0  0  0  0
   48.2472   30.6627   47.7543 C   0  0  1  0  0  0  0  0  0  0  0  0
   47.1504   30.7801   47.7526 H   0  0  0  0  0  0  0  0  0  0  0  0
   49.0340   31.7662   47.0951 C   0  0  2  0  0  0  0  0  0  0  0  0
   48.0330   33.1948   46.5709 S   0  0  0  0  0  0  0  0  0  0  0  0
   47.5048   32.8601   42.9105 H   0  0  0  0  0  0  0  0  0  0  0  0
   46.7289   31.8408   44.1658 H   0  0  0  0  0  0  0  0  0  0  0  0
   50.2032   34.1832   44.2649 H   0  0  0  0  0  0  0  0  0  0  0  0
   49.0044   35.1533   45.1372 H   0  0  0  0  0  0  0  0  0  0  0  0
   49.2820   31.4269   43.8024 H   0  0  0  0  0  0  0  0  0  0  0  0
   50.4427   32.3167   44.8651 H   0  0  0  0  0  0  0  0  0  0  0  0
   48.6961   30.3755   48.7318 H   0  0  0  0  0  0  0  0  0  0  0  0
   50.0011   32.0114   47.5376 H   0  0  0  0  0  0  0  0  0  0  0  0
  1  6  2  0
  2  1  1  0
  2  3  2  0
  3  4  1  0
  4  5  2  0
  6  5  1  0
  7  2  1  0
  8  7  2  0
  1  9  1  0
  5 10  1  0
  7 11  1  0
 13 12  1  6
 13 14  1  0
 14 15  1  0
 13 16  1  0
 16 17  1  0
 17 18  1  0
 18 19  2  0
 18 20  1  0
 20 21  1  1
 20 22  1  0
 22 23  1  0
 23 13  1  0
 22 17  1  0
 12 24  1  0
 12 25  1  0
 14 26  1  0
 14 27  1  0
 16 28  1  0
 16 29  1  0
 20 30  1  0
 22 31  1  1
  3 12  1  0
M  ISO  5   9  14  10  14  11   6  15   8  21  15
M  END
>  <DihAtoms>  (1) 
1,2,11,12

>  <DihDeg>  (1) 
-179.99274185765947

$$$$
