
 OpenBabel03252501403D

 48 53  0  0  1  0  0  0  0  0999 V2000
   44.2860   34.4860   41.7020 C   0  0  0  0  0  0  0  0  0  0  0  0
   43.9910   33.3840   42.3000 O   0  0  0  0  0  0  0  0  0  0  0  0
   45.3260   35.2010   42.3690 N   0  0  0  0  0  0  0  0  0  0  0  0
   45.7200   36.0760   42.0270 H   0  0  0  0  0  0  0  0  0  0  0  0
   45.7050   34.4900   43.5680 C   0  0  0  0  0  0  0  0  0  0  0  0
   45.1440   34.6240   44.7990 C   0  0  0  0  0  0  0  0  0  0  0  0
   45.6540   33.8510   45.8090 C   0  0  0  0  0  0  0  0  0  0  0  0
   46.6780   33.0100   45.5050 N   0  0  0  0  0  0  0  0  0  0  0  0
   47.2110   32.8990   44.2820 C   0  0  0  0  0  0  0  0  0  0  0  0
   46.7200   33.6560   43.2690 N   0  0  0  0  0  0  0  0  0  0  0  0
   45.2230   33.9410   46.7950 H   0  0  0  0  0  0  0  0  0  0  0  0
   44.0900   35.5440   44.9300 N   0  0  0  0  0  0  0  0  0  0  0  0
   43.3340   35.1040   45.4960 H   0  0  0  0  0  0  0  0  0  0  0  0
   44.0350   36.5050   44.5440 H   0  0  0  0  0  0  0  0  0  0  0  0
   48.3270   31.9330   44.1170 C   0  0  0  0  0  2  0  0  0  0  0  0
   48.2790   31.3330   42.7370 C   0  0  1  0  0  0  0  0  0  0  0  0
   48.5670   32.2740   41.6480 C   0  0  0  0  0  2  0  0  0  0  0  0
   49.2900   31.7060   40.5980 N   0  0  1  0  0  0  0  0  0  0  0  0
   49.9860   31.6210   39.3830 C   0  0  1  0  0  0  0  0  0  0  0  0
   49.9840   32.0770   38.2110 O   0  0  0  0  0  1  0  0  0  0  0  0
   50.8830   30.6320   40.0850 C   0  0  0  0  0  3  0  0  0  0  0  0
   51.5580   31.1090   40.8180 H   0  0  0  0  0  0  0  0  0  0  0  0
   49.5770   30.2910   40.7180 C   0  0  1  0  0  0  0  0  0  0  0  0
   49.5670   30.0710   42.5160 S   0  0  0  0  0  0  0  0  0  0  0  0
   46.9610   30.6560   42.4930 C   0  0  0  0  0  2  0  0  0  0  0  0
   46.1700   31.3490   42.1340 H   0  0  0  0  0  0  0  0  0  0  0  0
   43.7070   34.9950   40.5390 O   0  0  0  0  0  0  0  0  0  0  0  0
   42.9610   32.3870   39.3240 Cl  0  0  0  0  0  0  0  0  0  0  0  0
   41.8710   33.6680   39.8250 C   0  0  0  0  0  0  0  0  0  0  0  0
   42.3150   34.8630   40.3890 C   0  0  0  0  0  0  0  0  0  0  0  0
   41.4260   35.8250   40.7600 C   0  0  0  0  0  0  0  0  0  0  0  0
   40.0600   35.6930   40.6120 C   0  0  0  0  0  0  0  0  0  0  0  0
   39.5830   34.4920   40.0440 C   0  0  0  0  0  0  0  0  0  0  0  0
   37.8620   34.2320   39.8160 Cl  0  0  0  0  0  0  0  0  0  0  0  0
   40.5150   33.5390   39.6790 C   0  0  0  0  0  0  0  0  0  0  0  0
   41.8060   36.7410   41.1940 H   0  0  0  0  0  0  0  0  0  0  0  0
   39.3730   36.4670   40.9120 H   0  0  0  0  0  0  0  0  0  0  0  0
   39.9190   31.4230   41.2870 F   0  0  0  0  0  0  0  0  0  0  0  0
   39.7350   31.2370   39.9370 C   0  0  0  0  0  0  0  0  0  0  0  0
   40.0280   32.2940   39.0920 C   0  0  0  0  0  0  0  0  0  0  0  0
   39.8280   32.0660   37.7270 C   0  0  0  0  0  0  0  0  0  0  0  0
   39.3610   30.8330   37.3060 C   0  0  0  0  0  0  0  0  0  0  0  0
   39.0830   29.8020   38.2190 C   0  0  0  0  0  0  0  0  0  0  0  0
   39.2700   29.9950   39.5810 C   0  0  0  0  0  0  0  0  0  0  0  0
   40.0550   32.8840   37.0750 H   0  0  0  0  0  0  0  0  0  0  0  0
   39.2210   30.7020   36.2380 H   0  0  0  0  0  0  0  0  0  0  0  0
   38.7160   28.8440   37.8600 H   0  0  0  0  0  0  0  0  0  0  0  0
   39.0660   29.2310   40.2900 H   0  0  0  0  0  0  0  0  0  0  0  0
  1  2  2  0  0  0  0
  1  3  1  0  0  0  0
  3  5  1  0  0  0  0
  4  3  1  0  0  0  0
  5  6  1  0  0  0  0
  6 12  1  0  0  0  0
  6  7  2  0  0  0  0
  7 11  1  0  0  0  0
  8  7  1  0  0  0  0
  9  8  2  0  0  0  0
 10  5  2  0  0  0  0
 10  9  1  0  0  0  0
 12 13  1  0  0  0  0
 14 12  1  0  0  0  0
 15  9  1  0  0  0  0
 16 25  1  6  0  0  0
 16 15  1  0  0  0  0
 17 16  1  0  0  0  0
 18 23  1  0  0  0  0
 18 17  1  1  0  0  0
 19 20  1  6  0  0  0
 19 21  1  0  0  0  0
 19 18  1  0  0  0  0
 19 23  1  0  0  0  0
 21 22  1  0  0  0  0
 23 21  1  1  0  0  0
 23 24  1  0  0  0  0
 24 16  1  0  0  0  0
 26 25  1  0  0  0  0
 27  1  1  0  0  0  0
 28 29  1  0  0  0  0
 29 30  1  0  0  0  0
 30 27  1  0  0  0  0
 30 31  2  0  0  0  0
 31 36  1  0  0  0  0
 32 31  1  0  0  0  0
 32 37  1  0  0  0  0
 33 32  2  0  0  0  0
 34 33  1  0  0  0  0
 35 29  2  0  0  0  0
 35 33  1  0  0  0  0
 39 38  1  0  0  0  0
 40 35  1  0  0  0  0
 40 39  2  0  0  0  0
 41 40  1  0  0  0  0
 42 41  2  0  0  0  0
 42 43  1  0  0  0  0
 43 44  2  0  0  0  0
 44 39  1  0  0  0  0
 44 48  1  0  0  0  0
 45 41  1  0  0  0  0
 46 42  1  0  0  0  0
 47 43  1  0  0  0  0
M  END
>  <minimizedAffinity>
-6.36012363

>  <minimizedRMSD>
0.651089609

$$$$
