
 OpenBabel03242523543D

 48 52  0  0  1  0  0  0  0  0999 V2000
   42.6770   34.4460   38.9410 C   0  0  1  0  0  0  0  0  0  0  0  0
   42.9930   35.2420   40.2030 C   0  0  1  0  0  0  0  0  0  0  0  0
   41.7800   35.7100   40.7440 O   0  0  0  0  0  0  0  0  0  0  0  0
   40.8580   36.0670   39.7600 C   0  0  0  0  0  0  0  0  0  0  0  0
   40.3320   34.8560   39.0120 C   0  0  2  0  0  0  0  0  0  0  0  0
   41.3990   33.7200   39.2100 C   0  0  1  0  0  0  0  0  0  0  0  0
   43.4570   33.6770   38.7540 H   0  0  0  0  0  0  0  0  0  0  0  0
   43.7000   36.0560   40.0380 H   0  0  0  0  0  0  0  0  0  0  0  0
   41.2340   36.8510   39.0720 H   0  0  0  0  0  0  0  0  0  0  0  0
   40.0130   36.5140   40.2980 H   0  0  0  0  0  0  0  0  0  0  0  0
   39.3520   34.5060   39.3780 H   0  0  0  0  0  0  0  0  0  0  0  0
   41.2090   33.5790   40.3220 H   0  0  0  0  0  0  0  0  0  0  0  0
   42.5410   35.2990   37.8390 O   0  0  0  0  0  0  0  0  0  0  0  0
   43.1520   35.0940   37.1030 H   0  0  0  0  0  0  0  0  0  0  0  0
   40.3290   35.1200   37.6490 O   0  0  0  0  0  0  0  0  0  0  0  0
   40.3520   36.0680   37.4370 H   0  0  0  0  0  0  0  0  0  0  0  0
   43.4310   34.2840   41.1380 O   0  0  0  0  0  0  0  0  0  0  0  0
   44.5720   34.3670   41.8300 C   0  0  0  0  0  0  0  0  0  0  0  0
   45.8090   34.4890   41.1800 C   0  0  0  0  0  0  0  0  0  0  0  0
   46.9580   34.5710   41.9520 C   0  0  0  0  0  0  0  0  0  0  0  0
   46.8530   34.5310   43.3290 N   0  0  0  0  0  0  0  0  0  0  0  0
   45.6420   34.4120   43.9230 C   0  0  0  0  0  0  0  0  0  0  0  0
   44.5100   34.3310   43.1780 N   0  0  0  0  0  0  0  0  0  0  0  0
   45.8940   34.5200   40.1130 H   0  0  0  0  0  0  0  0  0  0  0  0
   45.5620   34.3820   45.0000 H   0  0  0  0  0  0  0  0  0  0  0  0
   48.3130   34.6830   41.3330 C   0  0  0  0  0  0  0  0  0  0  0  0
   49.0460   36.0120   41.5200 C   0  0  0  0  0  0  0  0  0  0  0  0
   49.4970   34.6670   42.1280 C   0  0  0  0  0  0  0  0  0  0  0  0
   48.3240   34.2800   40.2870 H   0  0  0  0  0  0  0  0  0  0  0  0
   48.5610   36.7460   42.1800 H   0  0  0  0  0  0  0  0  0  0  0  0
   49.6580   36.4010   40.6870 H   0  0  0  0  0  0  0  0  0  0  0  0
   49.4710   34.6630   43.2370 H   0  0  0  0  0  0  0  0  0  0  0  0
   50.4670   34.2960   41.7390 H   0  0  0  0  0  0  0  0  0  0  0  0
   41.0830   32.7170   38.3660 O   0  0  0  0  0  0  0  0  0  0  0  0
   41.4890   31.4280   38.4040 C   0  0  0  0  0  0  0  0  0  0  0  0
   41.7970   30.7730   37.3130 O   0  0  0  0  0  0  0  0  0  0  0  0
   38.5750   31.0530   40.7710 C   0  0  0  0  0  0  0  0  0  0  0  0
   39.6830   30.6850   41.7110 C   0  0  0  0  0  2  0  0  0  0  0  0
   40.8530   30.4040   40.9460 N   0  0  0  0  0  0  0  0  0  0  0  0
   42.2220   30.4350   40.5700 C   0  0  0  0  0  0  0  0  0  0  0  0
   43.3400   30.5980   41.1390 O   0  0  0  0  0  0  0  0  0  0  0  0
   41.8170   30.1870   39.1650 C   0  0  1  0  0  3  0  0  0  0  0  0
   40.6060   29.5680   39.8180 C   0  0  2  0  0  3  0  0  0  0  0  0
   39.0250   30.2600   39.2010 S   0  0  0  0  0  0  0  0  0  0  0  0
   38.2940   32.5100   40.6490 C   0  0  0  0  0  2  0  0  0  0  0  0
   39.0270   33.1500   41.1810 H   0  0  0  0  0  0  0  0  0  0  0  0
   37.3440   30.2900   41.2730 C   0  0  0  0  0  2  0  0  0  0  0  0
   36.6530   30.0400   40.4280 H   0  0  0  0  0  0  0  0  0  0  0  0
  1  7  1  6  0  0  0
  1  6  1  0  0  0  0
  1  2  1  0  0  0  0
  2  8  1  6  0  0  0
  2  3  1  0  0  0  0
  2 17  1  0  0  0  0
  4 10  1  0  0  0  0
  4  3  1  0  0  0  0
  5  6  1  0  0  0  0
  5 11  1  1  0  0  0
  5  4  1  0  0  0  0
  6 12  1  1  0  0  0
  9  4  1  0  0  0  0
 13  1  1  0  0  0  0
 14 13  1  0  0  0  0
 15  5  1  0  0  0  0
 16 15  1  0  0  0  0
 17 18  1  0  0  0  0
 18 23  1  0  0  0  0
 19 18  2  0  0  0  0
 19 20  1  0  0  0  0
 20 21  2  0  0  0  0
 21 22  1  0  0  0  0
 22 25  1  0  0  0  0
 23 22  2  0  0  0  0
 24 19  1  0  0  0  0
 26 27  1  0  0  0  0
 26 20  1  0  0  0  0
 26 28  1  0  0  0  0
 27 28  1  0  0  0  0
 27 30  1  0  0  0  0
 28 32  1  0  0  0  0
 29 26  1  0  0  0  0
 31 27  1  0  0  0  0
 33 28  1  0  0  0  0
 34 35  1  0  0  0  0
 34  6  1  0  0  0  0
 36 35  2  0  0  0  0
 37 47  1  0  0  0  0
 37 38  1  0  0  0  0
 39 38  1  0  0  0  0
 40 39  1  0  0  0  0
 40 41  2  0  0  0  0
 42 35  1  6  0  0  0
 42 43  1  0  0  0  0
 42 40  1  0  0  0  0
 43 44  1  6  0  0  0
 43 39  1  0  0  0  0
 44 37  1  0  0  0  0
 45 37  1  0  0  0  0
 45 46  1  0  0  0  0
 48 47  1  0  0  0  0
M  END
>  <minimizedAffinity>
-6.57226038

>  <minimizedRMSD>
0.933595002

$$$$
