
 OpenBabel03242519103D

 50 54  0  0  1  0  0  0  0  0999 V2000
   49.3220   32.3370   37.0650 C   0  0  0  0  0  0  0  0  0  0  0  0
   48.5040   32.7450   38.1410 C   0  0  0  0  0  0  0  0  0  0  0  0
   47.1950   32.9800   37.7790 C   0  0  0  0  0  0  0  0  0  0  0  0
   46.6750   32.8480   36.5230 C   0  0  0  0  0  0  0  0  0  0  0  0
   47.5120   32.4460   35.4990 C   0  0  0  0  0  0  0  0  0  0  0  0
   48.8240   32.1970   35.7940 C   0  0  0  0  0  0  0  0  0  0  0  0
   46.5370   33.2950   38.5790 H   0  0  0  0  0  0  0  0  0  0  0  0
   45.6340   33.0460   36.2910 H   0  0  0  0  0  0  0  0  0  0  0  0
   47.1310   32.3330   34.4930 H   0  0  0  0  0  0  0  0  0  0  0  0
   49.2860   32.1300   33.3840 C   0  0  0  0  0  0  0  0  0  0  0  0
   48.2210   32.7940   33.1690 O   0  0  0  0  0  0  0  0  0  0  0  0
   49.6600   31.7830   34.7120 N   0  0  0  0  0  0  0  0  0  0  0  0
   50.5090   31.2460   34.9510 H   0  0  0  0  0  0  0  0  0  0  0  0
   47.8740   28.7360   31.4080 C   0  0  0  0  0  0  0  0  0  0  0  0
   48.5830   29.4260   30.2820 C   0  0  0  0  0  2  0  0  0  0  0  0
   49.2260   30.6070   30.7760 N   0  0  0  0  0  0  0  0  0  0  0  0
   49.6670   31.9430   30.9970 C   0  0  0  0  0  0  0  0  0  0  0  0
   49.5970   33.0120   30.3020 O   0  0  0  0  0  0  0  0  0  0  0  0
   50.2450   31.6450   32.3340 C   0  0  2  0  0  3  0  0  0  0  0  0
   50.1040   30.2390   31.8980 C   0  0  1  0  0  3  0  0  0  0  0  0
   48.8770   29.2520   32.8400 S   0  0  0  0  0  0  0  0  0  0  0  0
   46.4330   29.0940   31.5590 C   0  0  0  0  0  2  0  0  0  0  0  0
   46.1230   30.0260   31.0810 H   0  0  0  0  0  0  0  0  0  0  0  0
   48.0210   27.2430   31.1660 C   0  0  0  0  0  2  0  0  0  0  0  0
   49.0790   26.9230   31.2240 H   0  0  0  0  0  0  0  0  0  0  0  0
   48.9530   32.9060   39.4630 N   0  0  0  0  0  0  0  0  0  0  0  0
   49.9960   32.9780   39.4340 H   0  0  0  0  0  0  0  0  0  0  0  0
   47.6460   34.1020   42.5470 N   0  0  0  0  0  0  0  0  0  0  0  0
   47.9230   34.3670   41.1360 C   0  0  0  0  0  0  0  0  0  0  0  0
   48.2700   32.9790   40.7100 C   0  0  2  0  0  0  0  0  0  0  0  0
   49.2240   32.5240   41.7970 C   0  0  0  0  0  0  0  0  0  0  0  0
   48.6980   33.2420   43.0170 C   0  0  0  0  0  0  0  0  0  0  0  0
   48.7980   35.0280   41.0060 H   0  0  0  0  0  0  0  0  0  0  0  0
   47.0140   34.7350   40.6170 H   0  0  0  0  0  0  0  0  0  0  0  0
   47.3350   32.3820   40.7140 H   0  0  0  0  0  0  0  0  0  0  0  0
   49.2010   31.4240   41.9330 H   0  0  0  0  0  0  0  0  0  0  0  0
   50.2240   32.9260   41.5660 H   0  0  0  0  0  0  0  0  0  0  0  0
   48.2790   32.5070   43.7560 H   0  0  0  0  0  0  0  0  0  0  0  0
   49.4710   33.8240   43.5390 H   0  0  0  0  0  0  0  0  0  0  0  0
   44.7480   35.9940   43.9540 C   0  0  0  0  0  0  0  0  0  0  0  0
   45.7630   35.6290   43.0770 C   0  0  0  0  0  0  0  0  0  0  0  0
   46.5970   34.5460   43.3660 C   0  0  0  0  0  0  0  0  0  0  0  0
   46.3470   33.8980   44.5270 N   0  0  0  0  0  0  0  0  0  0  0  0
   45.3750   34.2330   45.3840 C   0  0  0  0  0  0  0  0  0  0  0  0
   44.5710   35.2970   45.0820 N   0  0  0  0  0  0  0  0  0  0  0  0
   44.1560   36.8430   43.6470 H   0  0  0  0  0  0  0  0  0  0  0  0
   46.0070   36.1120   42.1350 H   0  0  0  0  0  0  0  0  0  0  0  0
   45.2050   33.6850   46.3120 H   0  0  0  0  0  0  0  0  0  0  0  0
   51.8200   31.8610   37.5920 N   0  0  0  0  0  0  0  0  0  0  0  0
   50.7100   32.0720   37.3680 C   0  0  0  0  0  0  0  0  0  0  0  0
  1 50  1  0  0  0  0
  1  2  1  0  0  0  0
  2 26  1  0  0  0  0
  3  2  2  0  0  0  0
  3  7  1  0  0  0  0
  4  3  1  0  0  0  0
  5  6  1  0  0  0  0
  5  4  2  0  0  0  0
  6  1  2  0  0  0  0
  8  4  1  0  0  0  0
  9  5  1  0  0  0  0
 10 12  1  0  0  0  0
 11 10  2  0  0  0  0
 12 13  1  0  0  0  0
 12  6  1  0  0  0  0
 14 22  1  0  0  0  0
 14 21  1  0  0  0  0
 15 16  1  0  0  0  0
 15 14  1  0  0  0  0
 16 17  1  0  0  0  0
 16 20  1  0  0  0  0
 17 19  1  0  0  0  0
 18 17  2  0  0  0  0
 19 10  1  1  0  0  0
 20 19  1  0  0  0  0
 20 21  1  1  0  0  0
 23 22  1  0  0  0  0
 24 25  1  0  0  0  0
 24 14  1  0  0  0  0
 26 30  1  0  0  0  0
 27 26  1  0  0  0  0
 28 32  1  0  0  0  0
 28 42  1  0  0  0  0
 29 28  1  0  0  0  0
 30 35  1  6  0  0  0
 30 29  1  0  0  0  0
 30 31  1  0  0  0  0
 31 36  1  0  0  0  0
 31 32  1  0  0  0  0
 32 39  1  0  0  0  0
 32 38  1  0  0  0  0
 33 29  1  0  0  0  0
 34 29  1  0  0  0  0
 37 31  1  0  0  0  0
 40 45  1  0  0  0  0
 41 42  1  0  0  0  0
 41 40  2  0  0  0  0
 42 43  2  0  0  0  0
 43 44  1  0  0  0  0
 44 48  1  0  0  0  0
 45 44  2  0  0  0  0
 46 40  1  0  0  0  0
 47 41  1  0  0  0  0
 50 49  3  0  0  0  0
M  END
>  <minimizedAffinity>
-6.67106962

>  <minimizedRMSD>
0.786987305

$$$$
