
 OpenBabel03252503063D

 23 25  0  0  1  0  0  0  0  0999 V2000
   47.2360   32.9040   43.9570 C   0  0  0  0  0  2  0  0  0  0  0  0
   46.4300   31.6750   43.6330 C   0  0  2  0  0  0  0  0  0  0  0  0
   47.0140   30.8540   42.5200 C   0  0  0  0  0  2  0  0  0  0  0  0
   46.4550   31.3320   41.2820 N   0  0  0  0  0  0  0  0  0  0  0  0
   46.3170   31.8410   39.9500 C   0  0  0  0  0  0  0  0  0  0  0  0
   47.1390   31.8660   38.9930 O   0  0  0  0  0  0  0  0  0  0  0  0
   44.9000   32.2840   40.1870 C   0  0  0  0  0  3  0  0  0  0  0  0
   44.8160   33.3530   40.4450 H   0  0  0  0  0  0  0  0  0  0  0  0
   45.0030   31.3260   41.3470 C   0  0  2  0  0  3  0  0  0  0  0  0
   44.7860   32.0990   42.9810 S   0  0  0  0  0  0  0  0  0  0  0  0
   46.2510   30.8050   44.8310 C   0  0  0  0  0  2  0  0  0  0  0  0
   46.9910   31.0620   45.6140 H   0  0  0  0  0  0  0  0  0  0  0  0
   45.3380   36.0740   43.2240 C   0  0  0  0  0  0  0  0  0  0  0  0
   46.2290   35.0090   43.0620 C   0  0  0  0  0  0  0  0  0  0  0  0
   46.3080   34.0500   44.0820 C   0  0  0  0  0  0  0  0  0  0  0  0
   45.5150   34.2070   45.1720 N   0  0  0  0  0  0  0  0  0  0  0  0
   44.6640   35.2450   45.3030 C   0  0  0  0  0  0  0  0  0  0  0  0
   44.5880   36.1580   44.3320 N   0  0  0  0  0  0  0  0  0  0  0  0
   45.2430   36.8350   42.4690 H   0  0  0  0  0  0  0  0  0  0  0  0
   44.0500   35.3240   46.1960 H   0  0  0  0  0  0  0  0  0  0  0  0
   47.0550   34.8810   41.8860 C   0  0  0  0  0  0  0  0  0  0  0  0
   48.0920   35.5760   41.8240 O   0  0  0  0  0  0  0  0  0  0  0  0
   46.6050   34.1550   41.2100 H   0  0  0  0  0  0  0  0  0  0  0  0
  1 15  1  0  0  0  0
  2  1  1  1  0  0  0
  2 11  1  0  0  0  0
  3  2  1  0  0  0  0
  4  9  1  0  0  0  0
  4  3  1  0  0  0  0
  5  7  1  0  0  0  0
  5  4  1  0  0  0  0
  6  5  2  0  0  0  0
  7  8  1  0  0  0  0
  9  7  1  6  0  0  0
  9 10  1  0  0  0  0
 10  2  1  0  0  0  0
 11 12  1  0  0  0  0
 13 18  1  0  0  0  0
 14 13  2  0  0  0  0
 14 15  1  0  0  0  0
 15 16  2  0  0  0  0
 16 17  1  0  0  0  0
 17 20  1  0  0  0  0
 18 17  2  0  0  0  0
 19 13  1  0  0  0  0
 21 14  1  0  0  0  0
 22 21  2  0  0  0  0
 23 21  1  0  0  0  0
M  END
>  <minimizedAffinity>
-3.88851094

>  <minimizedRMSD>
3.24907374

$$$$
