
 OpenBabel03242519123D

 50 54  0  0  1  0  0  0  0  0999 V2000
   38.0060   30.6240   39.8220 C   0  0  0  0  0  0  0  0  0  0  0  0
   38.2180   31.6450   38.8690 C   0  0  0  0  0  0  0  0  0  0  0  0
   37.6570   31.3740   37.6380 C   0  0  0  0  0  0  0  0  0  0  0  0
   36.9550   30.2490   37.3090 C   0  0  0  0  0  0  0  0  0  0  0  0
   36.7720   29.2770   38.2730 C   0  0  0  0  0  0  0  0  0  0  0  0
   37.3040   29.4860   39.5150 C   0  0  0  0  0  0  0  0  0  0  0  0
   37.7990   32.1340   36.8820 H   0  0  0  0  0  0  0  0  0  0  0  0
   36.5330   30.0850   36.3220 H   0  0  0  0  0  0  0  0  0  0  0  0
   36.2200   28.3740   38.0430 H   0  0  0  0  0  0  0  0  0  0  0  0
   37.7820   27.2230   40.3360 C   0  0  0  0  0  0  0  0  0  0  0  0
   38.5630   27.0380   39.3480 O   0  0  0  0  0  0  0  0  0  0  0  0
   37.0960   28.4600   40.4870 N   0  0  0  0  0  0  0  0  0  0  0  0
   36.4490   28.6700   41.2640 H   0  0  0  0  0  0  0  0  0  0  0  0
   40.8950   26.9410   43.1010 C   0  0  0  0  0  0  0  0  0  0  0  0
   39.7140   26.7370   44.0040 C   0  0  0  0  0  2  0  0  0  0  0  0
   38.5140   26.7170   43.2230 N   0  0  0  0  0  0  0  0  0  0  0  0
   37.2220   26.9670   42.6820 C   0  0  0  0  0  0  0  0  0  0  0  0
   36.1990   27.5980   43.1160 O   0  0  0  0  0  0  0  0  0  0  0  0
   37.4870   26.2260   41.4210 C   0  0  2  0  0  3  0  0  0  0  0  0
   38.6450   25.6960   42.1730 C   0  0  1  0  0  3  0  0  0  0  0  0
   40.2870   26.2180   41.5420 S   0  0  0  0  0  0  0  0  0  0  0  0
   41.3310   28.3580   42.9430 C   0  0  0  0  0  2  0  0  0  0  0  0
   40.5900   29.1170   43.2110 H   0  0  0  0  0  0  0  0  0  0  0  0
   42.0270   26.1040   43.6690 C   0  0  0  0  0  2  0  0  0  0  0  0
   41.7930   25.0210   43.6350 H   0  0  0  0  0  0  0  0  0  0  0  0
   38.9270   32.8310   39.1200 N   0  0  0  0  0  0  0  0  0  0  0  0
   38.2710   33.6300   38.9560 H   0  0  0  0  0  0  0  0  0  0  0  0
   41.9170   34.4930   40.0930 N   0  0  0  0  0  0  0  0  0  0  0  0
   40.4630   34.3950   40.2110 C   0  0  0  0  0  0  0  0  0  0  0  0
   40.2690   33.0850   39.5210 C   0  0  2  0  0  0  0  0  0  0  0  0
   41.1140   33.2370   38.2710 C   0  0  0  0  0  0  0  0  0  0  0  0
   42.2460   34.1180   38.7450 C   0  0  0  0  0  0  0  0  0  0  0  0
   39.9500   35.1940   39.6460 H   0  0  0  0  0  0  0  0  0  0  0  0
   40.1550   34.3420   41.2750 H   0  0  0  0  0  0  0  0  0  0  0  0
   40.6670   32.2920   40.1870 H   0  0  0  0  0  0  0  0  0  0  0  0
   41.4870   32.2600   37.9040 H   0  0  0  0  0  0  0  0  0  0  0  0
   40.5280   33.8010   37.5270 H   0  0  0  0  0  0  0  0  0  0  0  0
   43.2150   33.5490   38.7420 H   0  0  0  0  0  0  0  0  0  0  0  0
   42.3880   35.0090   38.1180 H   0  0  0  0  0  0  0  0  0  0  0  0
   45.0630   34.7820   42.0870 C   0  0  0  0  0  0  0  0  0  0  0  0
   44.1770   34.3480   41.1070 C   0  0  0  0  0  0  0  0  0  0  0  0
   42.8810   34.8660   41.0410 C   0  0  0  0  0  0  0  0  0  0  0  0
   42.5650   35.7930   41.9750 N   0  0  0  0  0  0  0  0  0  0  0  0
   43.4030   36.2240   42.9250 C   0  0  0  0  0  0  0  0  0  0  0  0
   44.6660   35.7040   42.9710 N   0  0  0  0  0  0  0  0  0  0  0  0
   46.0410   34.3260   42.0580 H   0  0  0  0  0  0  0  0  0  0  0  0
   44.3780   33.6090   40.3360 H   0  0  0  0  0  0  0  0  0  0  0  0
   43.1100   36.9740   43.6610 H   0  0  0  0  0  0  0  0  0  0  0  0
   39.0040   30.9940   42.1910 N   0  0  0  0  0  0  0  0  0  0  0  0
   38.5660   30.8380   41.1370 C   0  0  0  0  0  0  0  0  0  0  0  0
  1 50  1  0  0  0  0
  2 26  1  0  0  0  0
  2  1  2  0  0  0  0
  3  2  1  0  0  0  0
  4  3  2  0  0  0  0
  4  5  1  0  0  0  0
  5  6  2  0  0  0  0
  6  1  1  0  0  0  0
  6 12  1  0  0  0  0
  7  3  1  0  0  0  0
  8  4  1  0  0  0  0
  9  5  1  0  0  0  0
 10 12  1  0  0  0  0
 11 10  2  0  0  0  0
 12 13  1  0  0  0  0
 14 24  1  0  0  0  0
 14 15  1  0  0  0  0
 16 15  1  0  0  0  0
 17 18  2  0  0  0  0
 17 16  1  0  0  0  0
 19 10  1  6  0  0  0
 19 20  1  0  0  0  0
 19 17  1  0  0  0  0
 20 21  1  6  0  0  0
 20 16  1  0  0  0  0
 21 14  1  0  0  0  0
 22 14  1  0  0  0  0
 22 23  1  0  0  0  0
 25 24  1  0  0  0  0
 26 30  1  0  0  0  0
 27 26  1  0  0  0  0
 28 29  1  0  0  0  0
 28 42  1  0  0  0  0
 29 34  1  0  0  0  0
 30 35  1  1  0  0  0
 30 29  1  0  0  0  0
 31 32  1  0  0  0  0
 31 30  1  0  0  0  0
 32 28  1  0  0  0  0
 33 29  1  0  0  0  0
 36 31  1  0  0  0  0
 37 31  1  0  0  0  0
 38 32  1  0  0  0  0
 39 32  1  0  0  0  0
 40 45  1  0  0  0  0
 41 40  2  0  0  0  0
 42 41  1  0  0  0  0
 42 43  2  0  0  0  0
 43 44  1  0  0  0  0
 44 45  2  0  0  0  0
 44 48  1  0  0  0  0
 46 40  1  0  0  0  0
 47 41  1  0  0  0  0
 50 49  3  0  0  0  0
M  END
>  <minimizedAffinity>
-6.70650148

$$$$

 OpenBabel03242519123D

 50 54  0  0  1  0  0  0  0  0999 V2000
   39.0680   31.1880   39.2940 C   0  0  0  0  0  0  0  0  0  0  0  0
   39.2120   32.5880   39.1800 C   0  0  0  0  0  0  0  0  0  0  0  0
   38.0840   33.2890   39.5510 C   0  0  0  0  0  0  0  0  0  0  0  0
   36.9130   32.7450   39.9950 C   0  0  0  0  0  0  0  0  0  0  0  0
   36.8160   31.3700   40.0910 C   0  0  0  0  0  0  0  0  0  0  0  0
   37.9020   30.6170   39.7380 C   0  0  0  0  0  0  0  0  0  0  0  0
   38.1570   34.3660   39.4770 H   0  0  0  0  0  0  0  0  0  0  0  0
   36.0530   33.3440   40.2760 H   0  0  0  0  0  0  0  0  0  0  0  0
   35.9020   30.9080   40.4390 H   0  0  0  0  0  0  0  0  0  0  0  0
   37.8820   28.5980   41.1330 C   0  0  0  0  0  0  0  0  0  0  0  0
   38.1040   29.3150   42.1610 O   0  0  0  0  0  0  0  0  0  0  0  0
   37.7670   29.1990   39.8490 N   0  0  0  0  0  0  0  0  0  0  0  0
   37.5890   28.6720   38.9780 H   0  0  0  0  0  0  0  0  0  0  0  0
   41.1840   26.6390   42.7680 C   0  0  0  0  0  0  0  0  0  0  0  0
   40.0800   25.7340   43.2280 C   0  0  0  0  0  2  0  0  0  0  0  0
   38.8330   26.1930   42.6940 N   0  0  0  0  0  0  0  0  0  0  0  0
   37.4960   26.6460   42.5210 C   0  0  0  0  0  0  0  0  0  0  0  0
   36.4710   26.6600   43.2840 O   0  0  0  0  0  0  0  0  0  0  0  0
   37.7170   27.1040   41.1230 C   0  0  2  0  0  3  0  0  0  0  0  0
   38.9500   26.2950   41.2310 C   0  0  1  0  0  3  0  0  0  0  0  0
   40.5140   27.2530   41.1870 S   0  0  0  0  0  0  0  0  0  0  0  0
   41.5300   27.7420   43.7100 C   0  0  0  0  0  2  0  0  0  0  0  0
   40.7680   27.9870   44.4550 H   0  0  0  0  0  0  0  0  0  0  0  0
   42.3970   25.7580   42.5240 C   0  0  0  0  0  2  0  0  0  0  0  0
   42.2220   25.0380   41.6990 H   0  0  0  0  0  0  0  0  0  0  0  0
   40.3770   33.2330   38.7340 N   0  0  0  0  0  0  0  0  0  0  0  0
   40.5030   32.9920   37.7230 H   0  0  0  0  0  0  0  0  0  0  0  0
   42.3170   34.8510   41.2380 N   0  0  0  0  0  0  0  0  0  0  0  0
   41.7290   33.6080   40.7400 C   0  0  0  0  0  0  0  0  0  0  0  0
   41.3190   34.0790   39.3840 C   0  0  2  0  0  0  0  0  0  0  0  0
   40.6390   35.4020   39.6810 C   0  0  0  0  0  0  0  0  0  0  0  0
   41.4110   35.9070   40.8770 C   0  0  0  0  0  0  0  0  0  0  0  0
   40.8350   33.3160   41.3200 H   0  0  0  0  0  0  0  0  0  0  0  0
   42.4930   32.8070   40.6780 H   0  0  0  0  0  0  0  0  0  0  0  0
   42.2420   34.2230   38.7850 H   0  0  0  0  0  0  0  0  0  0  0  0
   40.7110   36.1040   38.8260 H   0  0  0  0  0  0  0  0  0  0  0  0
   39.6060   35.1910   40.0020 H   0  0  0  0  0  0  0  0  0  0  0  0
   41.9970   36.8270   40.6070 H   0  0  0  0  0  0  0  0  0  0  0  0
   40.7630   36.1700   41.7260 H   0  0  0  0  0  0  0  0  0  0  0  0
   44.9200   36.1860   43.5620 C   0  0  0  0  0  0  0  0  0  0  0  0
   43.6910   36.0410   42.9280 C   0  0  0  0  0  0  0  0  0  0  0  0
   43.5140   35.0740   41.9340 C   0  0  0  0  0  0  0  0  0  0  0  0
   44.5960   34.3150   41.6460 N   0  0  0  0  0  0  0  0  0  0  0  0
   45.7860   34.4400   42.2450 C   0  0  0  0  0  0  0  0  0  0  0  0
   45.9380   35.3910   43.2140 N   0  0  0  0  0  0  0  0  0  0  0  0
   44.9610   36.9580   44.3150 H   0  0  0  0  0  0  0  0  0  0  0  0
   42.7930   36.6210   43.1190 H   0  0  0  0  0  0  0  0  0  0  0  0
   46.6360   33.8070   41.9840 H   0  0  0  0  0  0  0  0  0  0  0  0
   41.1240   29.7560   38.6090 N   0  0  0  0  0  0  0  0  0  0  0  0
   40.2110   30.3860   38.9210 C   0  0  0  0  0  0  0  0  0  0  0  0
  1  6  1  0  0  0  0
  2  1  2  0  0  0  0
  2  3  1  0  0  0  0
  3  4  2  0  0  0  0
  4  5  1  0  0  0  0
  4  8  1  0  0  0  0
  5  9  1  0  0  0  0
  6 12  1  0  0  0  0
  6  5  2  0  0  0  0
  7  3  1  0  0  0  0
 10 11  2  0  0  0  0
 12 10  1  0  0  0  0
 13 12  1  0  0  0  0
 14 15  1  0  0  0  0
 14 22  1  0  0  0  0
 16 15  1  0  0  0  0
 17 16  1  0  0  0  0
 17 18  2  0  0  0  0
 19 10  1  1  0  0  0
 19 20  1  0  0  0  0
 19 17  1  0  0  0  0
 20 21  1  1  0  0  0
 20 16  1  0  0  0  0
 21 14  1  0  0  0  0
 22 23  1  0  0  0  0
 24 14  1  0  0  0  0
 25 24  1  0  0  0  0
 26  2  1  0  0  0  0
 26 30  1  0  0  0  0
 27 26  1  0  0  0  0
 28 42  1  0  0  0  0
 29 28  1  0  0  0  0
 29 33  1  0  0  0  0
 30 35  1  6  0  0  0
 30 31  1  0  0  0  0
 30 29  1  0  0  0  0
 31 37  1  0  0  0  0
 31 32  1  0  0  0  0
 32 28  1  0  0  0  0
 32 39  1  0  0  0  0
 34 29  1  0  0  0  0
 36 31  1  0  0  0  0
 38 32  1  0  0  0  0
 40 46  1  0  0  0  0
 41 47  1  0  0  0  0
 41 40  2  0  0  0  0
 42 41  1  0  0  0  0
 43 42  2  0  0  0  0
 43 44  1  0  0  0  0
 44 45  2  0  0  0  0
 45 40  1  0  0  0  0
 48 44  1  0  0  0  0
 49 50  3  0  0  0  0
 50  1  1  0  0  0  0
M  END
>  <minimizedAffinity>
-6.68321037

$$$$

 OpenBabel03242519123D

 50 54  0  0  1  0  0  0  0  0999 V2000
   39.1460   30.5290   40.5950 C   0  0  0  0  0  0  0  0  0  0  0  0
   39.2190   31.7260   39.8490 C   0  0  0  0  0  0  0  0  0  0  0  0
   38.0140   32.3890   39.7540 C   0  0  0  0  0  0  0  0  0  0  0  0
   36.8320   31.9840   40.3040 C   0  0  0  0  0  0  0  0  0  0  0  0
   36.8070   30.8070   41.0270 C   0  0  0  0  0  0  0  0  0  0  0  0
   37.9710   30.1010   41.1580 C   0  0  0  0  0  0  0  0  0  0  0  0
   38.0310   33.3120   39.1880 H   0  0  0  0  0  0  0  0  0  0  0  0
   35.9090   32.5460   40.1990 H   0  0  0  0  0  0  0  0  0  0  0  0
   35.8850   30.4590   41.4750 H   0  0  0  0  0  0  0  0  0  0  0  0
   36.9440   27.9080   41.5530 C   0  0  0  0  0  0  0  0  0  0  0  0
   36.1500   28.1120   40.5790 O   0  0  0  0  0  0  0  0  0  0  0  0
   37.9080   28.8890   41.9110 N   0  0  0  0  0  0  0  0  0  0  0  0
   38.5780   28.7830   42.6910 H   0  0  0  0  0  0  0  0  0  0  0  0
   39.3120   24.8970   39.8970 C   0  0  0  0  0  0  0  0  0  0  0  0
   39.5850   24.6810   41.3560 C   0  0  0  0  0  2  0  0  0  0  0  0
   38.7860   25.5840   42.1290 N   0  0  0  0  0  0  0  0  0  0  0  0
   38.3240   26.5760   43.0380 C   0  0  0  0  0  0  0  0  0  0  0  0
   38.8620   27.1700   44.0330 O   0  0  0  0  0  0  0  0  0  0  0  0
   36.9780   26.6760   42.4130 C   0  0  2  0  0  3  0  0  0  0  0  0
   37.3750   25.4120   41.7550 C   0  0  1  0  0  3  0  0  0  0  0  0
   37.5990   25.5200   39.9370 S   0  0  0  0  0  0  0  0  0  0  0  0
   40.2470   25.8360   39.2110 C   0  0  0  0  0  2  0  0  0  0  0  0
   40.8080   26.5090   39.8650 H   0  0  0  0  0  0  0  0  0  0  0  0
   39.3650   23.5300   39.2370 C   0  0  0  0  0  2  0  0  0  0  0  0
   38.5600   22.8650   39.6080 H   0  0  0  0  0  0  0  0  0  0  0  0
   40.3900   32.2170   39.2480 N   0  0  0  0  0  0  0  0  0  0  0  0
   40.5320   31.6890   38.3560 H   0  0  0  0  0  0  0  0  0  0  0  0
   42.2290   34.5770   41.1720 N   0  0  0  0  0  0  0  0  0  0  0  0
   41.6270   33.2460   41.0930 C   0  0  0  0  0  0  0  0  0  0  0  0
   41.3200   33.2240   39.6320 C   0  0  2  0  0  0  0  0  0  0  0  0
   40.6720   34.5760   39.4060 C   0  0  0  0  0  0  0  0  0  0  0  0
   41.3860   35.4540   40.4060 C   0  0  0  0  0  0  0  0  0  0  0  0
   40.6890   33.1840   41.6730 H   0  0  0  0  0  0  0  0  0  0  0  0
   42.3640   32.4630   41.3650 H   0  0  0  0  0  0  0  0  0  0  0  0
   42.2830   33.1390   39.0880 H   0  0  0  0  0  0  0  0  0  0  0  0
   40.8220   34.9380   38.3690 H   0  0  0  0  0  0  0  0  0  0  0  0
   39.6130   34.5030   39.7060 H   0  0  0  0  0  0  0  0  0  0  0  0
   42.0200   36.2160   39.8790 H   0  0  0  0  0  0  0  0  0  0  0  0
   40.6970   36.0030   41.0650 H   0  0  0  0  0  0  0  0  0  0  0  0
   45.7800   35.2110   42.1410 C   0  0  0  0  0  0  0  0  0  0  0  0
   44.6930   34.7350   41.4180 C   0  0  0  0  0  0  0  0  0  0  0  0
   43.3880   35.0120   41.8320 C   0  0  0  0  0  0  0  0  0  0  0  0
   43.2680   35.7550   42.9560 N   0  0  0  0  0  0  0  0  0  0  0  0
   44.3010   36.2230   43.6650 C   0  0  0  0  0  0  0  0  0  0  0  0
   45.5700   35.9410   43.2420 N   0  0  0  0  0  0  0  0  0  0  0  0
   46.7490   34.9470   41.7430 H   0  0  0  0  0  0  0  0  0  0  0  0
   44.7320   34.1360   40.5120 H   0  0  0  0  0  0  0  0  0  0  0  0
   44.1630   36.8210   44.5680 H   0  0  0  0  0  0  0  0  0  0  0  0
   41.3480   29.1710   40.8350 N   0  0  0  0  0  0  0  0  0  0  0  0
   40.3730   29.7780   40.7380 C   0  0  0  0  0  0  0  0  0  0  0  0
  1 50  1  0  0  0  0
  1  6  1  0  0  0  0
  2  1  2  0  0  0  0
  3  2  1  0  0  0  0
  3  4  2  0  0  0  0
  4  5  1  0  0  0  0
  5  6  2  0  0  0  0
  5  9  1  0  0  0  0
  6 12  1  0  0  0  0
  7  3  1  0  0  0  0
  8  4  1  0  0  0  0
 10 12  1  0  0  0  0
 11 10  2  0  0  0  0
 12 13  1  0  0  0  0
 14 21  1  0  0  0  0
 14 15  1  0  0  0  0
 15 16  1  0  0  0  0
 16 17  1  0  0  0  0
 17 18  2  0  0  0  0
 19 10  1  6  0  0  0
 19 17  1  0  0  0  0
 20 21  1  6  0  0  0
 20 16  1  0  0  0  0
 20 19  1  0  0  0  0
 22 23  1  0  0  0  0
 22 14  1  0  0  0  0
 24 25  1  0  0  0  0
 24 14  1  0  0  0  0
 26 30  1  0  0  0  0
 26  2  1  0  0  0  0
 27 26  1  0  0  0  0
 28 42  1  0  0  0  0
 29 28  1  0  0  0  0
 29 34  1  0  0  0  0
 29 33  1  0  0  0  0
 30 35  1  6  0  0  0
 30 29  1  0  0  0  0
 31 30  1  0  0  0  0
 31 37  1  0  0  0  0
 31 32  1  0  0  0  0
 32 39  1  0  0  0  0
 32 28  1  0  0  0  0
 36 31  1  0  0  0  0
 38 32  1  0  0  0  0
 40 45  1  0  0  0  0
 41 42  1  0  0  0  0
 41 40  2  0  0  0  0
 42 43  2  0  0  0  0
 43 44  1  0  0  0  0
 44 48  1  0  0  0  0
 45 44  2  0  0  0  0
 46 40  1  0  0  0  0
 47 41  1  0  0  0  0
 50 49  3  0  0  0  0
M  END
>  <minimizedAffinity>
-6.42851925

$$$$

 OpenBabel03242519123D

 50 54  0  0  1  0  0  0  0  0999 V2000
   38.7430   31.5090   41.0850 C   0  0  0  0  0  0  0  0  0  0  0  0
   39.0110   32.6250   40.2620 C   0  0  0  0  0  0  0  0  0  0  0  0
   38.0620   32.8270   39.2830 C   0  0  0  0  0  0  0  0  0  0  0  0
   36.9500   32.0610   39.0750 C   0  0  0  0  0  0  0  0  0  0  0  0
   36.7280   30.9790   39.9050 C   0  0  0  0  0  0  0  0  0  0  0  0
   37.6330   30.7250   40.8970 C   0  0  0  0  0  0  0  0  0  0  0  0
   38.2340   33.6740   38.6320 H   0  0  0  0  0  0  0  0  0  0  0  0
   36.2320   32.2650   38.2870 H   0  0  0  0  0  0  0  0  0  0  0  0
   35.8560   30.3520   39.7650 H   0  0  0  0  0  0  0  0  0  0  0  0
   37.5610   28.2910   41.2060 C   0  0  0  0  0  0  0  0  0  0  0  0
   37.9530   28.1350   40.0050 O   0  0  0  0  0  0  0  0  0  0  0  0
   37.3720   29.5980   41.7350 N   0  0  0  0  0  0  0  0  0  0  0  0
   37.0550   29.7900   42.6990 H   0  0  0  0  0  0  0  0  0  0  0  0
   41.0330   26.5300   42.7100 C   0  0  0  0  0  0  0  0  0  0  0  0
   40.1470   26.4530   43.9190 C   0  0  0  0  0  2  0  0  0  0  0  0
   38.8440   26.9460   43.5870 N   0  0  0  0  0  0  0  0  0  0  0  0
   37.6140   27.6590   43.5480 C   0  0  0  0  0  0  0  0  0  0  0  0
   37.0210   28.4270   44.3780 O   0  0  0  0  0  0  0  0  0  0  0  0
   37.2600   27.1890   42.1820 C   0  0  2  0  0  3  0  0  0  0  0  0
   38.3340   26.2020   42.4270 C   0  0  1  0  0  3  0  0  0  0  0  0
   39.8160   26.3850   41.3610 S   0  0  0  0  0  0  0  0  0  0  0  0
   41.8560   27.7700   42.6090 C   0  0  0  0  0  2  0  0  0  0  0  0
   41.5140   28.6180   43.2080 H   0  0  0  0  0  0  0  0  0  0  0  0
   41.9310   25.3060   42.7500 C   0  0  0  0  0  2  0  0  0  0  0  0
   41.3490   24.3680   42.6490 H   0  0  0  0  0  0  0  0  0  0  0  0
   40.1280   33.4660   40.4030 N   0  0  0  0  0  0  0  0  0  0  0  0
   39.8910   34.1860   41.1240 H   0  0  0  0  0  0  0  0  0  0  0  0
   43.2480   32.4440   39.0350 N   0  0  0  0  0  0  0  0  0  0  0  0
   41.8210   32.1720   39.1970 C   0  0  0  0  0  0  0  0  0  0  0  0
   41.4050   33.4850   39.7730 C   0  0  2  0  0  0  0  0  0  0  0  0
   42.4540   33.7290   40.8400 C   0  0  0  0  0  0  0  0  0  0  0  0
   43.6840   33.0850   40.2460 C   0  0  0  0  0  0  0  0  0  0  0  0
   41.6370   31.3660   39.9310 H   0  0  0  0  0  0  0  0  0  0  0  0
   41.3400   31.9880   38.2150 H   0  0  0  0  0  0  0  0  0  0  0  0
   41.4650   34.2410   38.9640 H   0  0  0  0  0  0  0  0  0  0  0  0
   42.6110   34.8110   41.0240 H   0  0  0  0  0  0  0  0  0  0  0  0
   42.1670   33.1590   41.7390 H   0  0  0  0  0  0  0  0  0  0  0  0
   44.4550   33.8630   40.0000 H   0  0  0  0  0  0  0  0  0  0  0  0
   44.1570   32.3580   40.9210 H   0  0  0  0  0  0  0  0  0  0  0  0
   44.9480   30.8570   36.1100 C   0  0  0  0  0  0  0  0  0  0  0  0
   44.0490   31.0330   37.1560 C   0  0  0  0  0  0  0  0  0  0  0  0
   44.1080   32.1760   37.9590 C   0  0  0  0  0  0  0  0  0  0  0  0
   45.0760   33.0690   37.6490 N   0  0  0  0  0  0  0  0  0  0  0  0
   45.9490   32.9170   36.6470 C   0  0  0  0  0  0  0  0  0  0  0  0
   45.8740   31.7920   35.8740 N   0  0  0  0  0  0  0  0  0  0  0  0
   44.8240   29.9450   35.5460 H   0  0  0  0  0  0  0  0  0  0  0  0
   43.2550   30.3510   37.4480 H   0  0  0  0  0  0  0  0  0  0  0  0
   46.7170   33.6610   36.4290 H   0  0  0  0  0  0  0  0  0  0  0  0
   40.4590   31.0320   42.9760 N   0  0  0  0  0  0  0  0  0  0  0  0
   39.6970   31.2330   42.1350 C   0  0  0  0  0  0  0  0  0  0  0  0
  1 50  1  0  0  0  0
  2 26  1  0  0  0  0
  2  1  2  0  0  0  0
  3  2  1  0  0  0  0
  4  3  2  0  0  0  0
  4  5  1  0  0  0  0
  5  6  2  0  0  0  0
  6  1  1  0  0  0  0
  6 12  1  0  0  0  0
  7  3  1  0  0  0  0
  8  4  1  0  0  0  0
  9  5  1  0  0  0  0
 10 12  1  0  0  0  0
 11 10  2  0  0  0  0
 12 13  1  0  0  0  0
 14 24  1  0  0  0  0
 14 15  1  0  0  0  0
 16 15  1  0  0  0  0
 17 16  1  0  0  0  0
 17 18  2  0  0  0  0
 19 10  1  6  0  0  0
 19 20  1  0  0  0  0
 19 17  1  0  0  0  0
 20 21  1  6  0  0  0
 20 16  1  0  0  0  0
 21 14  1  0  0  0  0
 22 14  1  0  0  0  0
 22 23  1  0  0  0  0
 25 24  1  0  0  0  0
 26 27  1  0  0  0  0
 28 29  1  0  0  0  0
 28 32  1  0  0  0  0
 29 30  1  0  0  0  0
 29 33  1  0  0  0  0
 30 35  1  6  0  0  0
 30 26  1  0  0  0  0
 30 31  1  0  0  0  0
 31 36  1  0  0  0  0
 31 37  1  0  0  0  0
 32 31  1  0  0  0  0
 32 39  1  0  0  0  0
 34 29  1  0  0  0  0
 38 32  1  0  0  0  0
 40 41  1  0  0  0  0
 41 47  1  0  0  0  0
 41 42  2  0  0  0  0
 42 28  1  0  0  0  0
 43 42  1  0  0  0  0
 44 43  2  0  0  0  0
 45 40  2  0  0  0  0
 45 44  1  0  0  0  0
 46 40  1  0  0  0  0
 48 44  1  0  0  0  0
 50 49  3  0  0  0  0
M  END
>  <minimizedAffinity>
-6.40374422

$$$$

 OpenBabel03242519123D

 50 54  0  0  1  0  0  0  0  0999 V2000
   37.6000   29.8690   41.5080 C   0  0  0  0  0  0  0  0  0  0  0  0
   37.0660   31.0030   40.8580 C   0  0  0  0  0  0  0  0  0  0  0  0
   35.9220   30.7350   40.1360 C   0  0  0  0  0  0  0  0  0  0  0  0
   35.3140   29.5170   40.0220 C   0  0  0  0  0  0  0  0  0  0  0  0
   35.8720   28.4350   40.6760 C   0  0  0  0  0  0  0  0  0  0  0  0
   37.0090   28.6350   41.4090 C   0  0  0  0  0  0  0  0  0  0  0  0
   35.4830   31.5810   39.6230 H   0  0  0  0  0  0  0  0  0  0  0  0
   34.4120   29.3600   39.4400 H   0  0  0  0  0  0  0  0  0  0  0  0
   35.4150   27.4570   40.6040 H   0  0  0  0  0  0  0  0  0  0  0  0
   38.1280   26.4550   41.2860 C   0  0  0  0  0  0  0  0  0  0  0  0
   38.1430   26.5420   40.0160 O   0  0  0  0  0  0  0  0  0  0  0  0
   37.5590   27.4950   42.0710 N   0  0  0  0  0  0  0  0  0  0  0  0
   37.5150   27.4830   43.1020 H   0  0  0  0  0  0  0  0  0  0  0  0
   42.1360   25.6910   40.4060 C   0  0  0  0  0  0  0  0  0  0  0  0
   42.1190   25.3800   41.8740 C   0  0  0  0  0  2  0  0  0  0  0  0
   40.7820   25.5050   42.3730 N   0  0  0  0  0  0  0  0  0  0  0  0
   39.6170   25.8620   43.1070 C   0  0  0  0  0  0  0  0  0  0  0  0
   39.4350   26.4440   44.2300 O   0  0  0  0  0  0  0  0  0  0  0  0
   38.6780   25.3130   42.0930 C   0  0  2  0  0  3  0  0  0  0  0  0
   39.8930   24.6500   41.5730 C   0  0  1  0  0  3  0  0  0  0  0  0
   40.4430   25.2240   39.9180 S   0  0  0  0  0  0  0  0  0  0  0  0
   42.4610   27.1060   40.0640 C   0  0  0  0  0  2  0  0  0  0  0  0
   42.3320   27.8320   40.8720 H   0  0  0  0  0  0  0  0  0  0  0  0
   43.1490   24.7520   39.7740 C   0  0  0  0  0  2  0  0  0  0  0  0
   42.8370   23.6930   39.8630 H   0  0  0  0  0  0  0  0  0  0  0  0
   37.6230   32.2910   40.9200 N   0  0  0  0  0  0  0  0  0  0  0  0
   37.1430   32.8050   41.6950 H   0  0  0  0  0  0  0  0  0  0  0  0
   40.6390   33.9410   40.0060 N   0  0  0  0  0  0  0  0  0  0  0  0
   39.9940   32.8840   40.7850 C   0  0  0  0  0  0  0  0  0  0  0  0
   38.6390   32.9390   40.1610 C   0  0  2  0  0  0  0  0  0  0  0  0
   38.3390   34.4250   40.1430 C   0  0  0  0  0  0  0  0  0  0  0  0
   39.7070   35.0340   39.9480 C   0  0  0  0  0  0  0  0  0  0  0  0
   39.9240   33.1480   41.8560 H   0  0  0  0  0  0  0  0  0  0  0  0
   40.4850   31.9060   40.6060 H   0  0  0  0  0  0  0  0  0  0  0  0
   38.7250   32.5290   39.1350 H   0  0  0  0  0  0  0  0  0  0  0  0
   37.6530   34.6970   39.3160 H   0  0  0  0  0  0  0  0  0  0  0  0
   37.9730   34.7130   41.1420 H   0  0  0  0  0  0  0  0  0  0  0  0
   39.7770   35.5320   38.9430 H   0  0  0  0  0  0  0  0  0  0  0  0
   39.9520   35.7930   40.7050 H   0  0  0  0  0  0  0  0  0  0  0  0
   44.3220   33.9580   39.3830 C   0  0  0  0  0  0  0  0  0  0  0  0
   43.1200   33.9140   40.0780 C   0  0  0  0  0  0  0  0  0  0  0  0
   41.9020   33.9780   39.3960 C   0  0  0  0  0  0  0  0  0  0  0  0
   41.9810   34.0830   38.0490 N   0  0  0  0  0  0  0  0  0  0  0  0
   43.1290   34.1270   37.3630 C   0  0  0  0  0  0  0  0  0  0  0  0
   44.3090   34.0630   38.0500 N   0  0  0  0  0  0  0  0  0  0  0  0
   45.2100   33.9020   39.9950 H   0  0  0  0  0  0  0  0  0  0  0  0
   42.9980   33.8300   41.1550 H   0  0  0  0  0  0  0  0  0  0  0  0
   43.1520   34.2120   36.2750 H   0  0  0  0  0  0  0  0  0  0  0  0
   39.7510   30.2440   42.9160 N   0  0  0  0  0  0  0  0  0  0  0  0
   38.8020   30.0730   42.2840 C   0  0  0  0  0  0  0  0  0  0  0  0
  1 50  1  0  0  0  0
  2 26  1  0  0  0  0
  2  1  2  0  0  0  0
  3  2  1  0  0  0  0
  4  3  2  0  0  0  0
  4  5  1  0  0  0  0
  5  6  2  0  0  0  0
  6  1  1  0  0  0  0
  6 12  1  0  0  0  0
  7  3  1  0  0  0  0
  8  4  1  0  0  0  0
  9  5  1  0  0  0  0
 10 12  1  0  0  0  0
 11 10  2  0  0  0  0
 12 13  1  0  0  0  0
 14 15  1  0  0  0  0
 15 16  1  0  0  0  0
 16 17  1  0  0  0  0
 17 18  2  0  0  0  0
 19 10  1  6  0  0  0
 19 17  1  0  0  0  0
 20 21  1  6  0  0  0
 20 19  1  0  0  0  0
 20 16  1  0  0  0  0
 21 14  1  0  0  0  0
 22 14  1  0  0  0  0
 22 23  1  0  0  0  0
 24 25  1  0  0  0  0
 24 14  1  0  0  0  0
 26 27  1  0  0  0  0
 28 29  1  0  0  0  0
 29 33  1  0  0  0  0
 30 35  1  6  0  0  0
 30 29  1  0  0  0  0
 30 26  1  0  0  0  0
 31 30  1  0  0  0  0
 31 37  1  0  0  0  0
 32 28  1  0  0  0  0
 32 31  1  0  0  0  0
 32 39  1  0  0  0  0
 34 29  1  0  0  0  0
 36 31  1  0  0  0  0
 38 32  1  0  0  0  0
 40 46  1  0  0  0  0
 40 41  1  0  0  0  0
 41 47  1  0  0  0  0
 42 28  1  0  0  0  0
 42 41  2  0  0  0  0
 43 42  1  0  0  0  0
 44 43  2  0  0  0  0
 44 45  1  0  0  0  0
 45 40  2  0  0  0  0
 48 44  1  0  0  0  0
 50 49  3  0  0  0  0
M  END
>  <minimizedAffinity>
-6.3914423

$$$$

 OpenBabel03242519123D

 50 54  0  0  1  0  0  0  0  0999 V2000
   37.1650   29.5980   41.0820 C   0  0  0  0  0  0  0  0  0  0  0  0
   36.9470   30.7570   40.3040 C   0  0  0  0  0  0  0  0  0  0  0  0
   36.1110   30.5480   39.2280 C   0  0  0  0  0  0  0  0  0  0  0  0
   35.5200   29.3630   38.8910 C   0  0  0  0  0  0  0  0  0  0  0  0
   35.7610   28.2550   39.6810 C   0  0  0  0  0  0  0  0  0  0  0  0
   36.5830   28.3970   40.7650 C   0  0  0  0  0  0  0  0  0  0  0  0
   35.9200   31.4140   38.6080 H   0  0  0  0  0  0  0  0  0  0  0  0
   34.8680   29.2530   38.0300 H   0  0  0  0  0  0  0  0  0  0  0  0
   35.3090   27.3020   39.4400 H   0  0  0  0  0  0  0  0  0  0  0  0
   37.8750   26.3570   41.2030 C   0  0  0  0  0  0  0  0  0  0  0  0
   38.6060   26.6130   40.1930 O   0  0  0  0  0  0  0  0  0  0  0  0
   36.8110   27.2310   41.5580 N   0  0  0  0  0  0  0  0  0  0  0  0
   36.1830   27.0780   42.3630 H   0  0  0  0  0  0  0  0  0  0  0  0
   37.2820   22.7490   39.1910 C   0  0  0  0  0  0  0  0  0  0  0  0
   38.3420   22.3400   40.1700 C   0  0  0  0  0  2  0  0  0  0  0  0
   38.6430   23.4400   41.0360 N   0  0  0  0  0  0  0  0  0  0  0  0
   39.2870   24.4700   41.7760 C   0  0  0  0  0  0  0  0  0  0  0  0
   40.5100   24.7130   42.0550 O   0  0  0  0  0  0  0  0  0  0  0  0
   38.0190   25.1700   42.1130 C   0  0  2  0  0  3  0  0  0  0  0  0
   37.3980   23.9050   41.6660 C   0  0  1  0  0  3  0  0  0  0  0  0
   36.3940   24.0320   40.1350 S   0  0  0  0  0  0  0  0  0  0  0  0
   37.7910   23.2500   37.8820 C   0  0  0  0  0  2  0  0  0  0  0  0
   38.8340   23.5780   37.8720 H   0  0  0  0  0  0  0  0  0  0  0  0
   36.3930   21.5360   38.9790 C   0  0  0  0  0  2  0  0  0  0  0  0
   35.8630   21.2480   39.9080 H   0  0  0  0  0  0  0  0  0  0  0  0
   37.5120   32.0140   40.5750 N   0  0  0  0  0  0  0  0  0  0  0  0
   37.0170   32.4090   41.4080 H   0  0  0  0  0  0  0  0  0  0  0  0
   40.5620   33.7510   39.9990 N   0  0  0  0  0  0  0  0  0  0  0  0
   39.8900   32.5970   40.5950 C   0  0  0  0  0  0  0  0  0  0  0  0
   38.5530   32.7570   39.9500 C   0  0  2  0  0  0  0  0  0  0  0  0
   38.2620   34.2320   40.1450 C   0  0  0  0  0  0  0  0  0  0  0  0
   39.6390   34.8500   40.0800 C   0  0  0  0  0  0  0  0  0  0  0  0
   39.7910   32.6990   41.6900 H   0  0  0  0  0  0  0  0  0  0  0  0
   40.3800   31.6510   40.2850 H   0  0  0  0  0  0  0  0  0  0  0  0
   38.6650   32.5040   38.8760 H   0  0  0  0  0  0  0  0  0  0  0  0
   37.6010   34.6310   39.3500 H   0  0  0  0  0  0  0  0  0  0  0  0
   37.8700   34.3720   41.1660 H   0  0  0  0  0  0  0  0  0  0  0  0
   39.7390   35.4910   39.1630 H   0  0  0  0  0  0  0  0  0  0  0  0
   39.8660   35.4850   40.9480 H   0  0  0  0  0  0  0  0  0  0  0  0
   43.4090   34.1250   37.6090 C   0  0  0  0  0  0  0  0  0  0  0  0
   42.1020   34.0210   38.0720 C   0  0  0  0  0  0  0  0  0  0  0  0
   41.8420   33.8660   39.4360 C   0  0  0  0  0  0  0  0  0  0  0  0
   42.9250   33.8280   40.2460 N   0  0  0  0  0  0  0  0  0  0  0  0
   44.1890   33.9270   39.8190 C   0  0  0  0  0  0  0  0  0  0  0  0
   44.4220   34.0780   38.4810 N   0  0  0  0  0  0  0  0  0  0  0  0
   43.5110   34.2430   36.5400 H   0  0  0  0  0  0  0  0  0  0  0  0
   41.1990   34.0450   37.4680 H   0  0  0  0  0  0  0  0  0  0  0  0
   45.0370   33.8920   40.5050 H   0  0  0  0  0  0  0  0  0  0  0  0
   38.7320   29.8690   43.1360 N   0  0  0  0  0  0  0  0  0  0  0  0
   38.0320   29.7410   42.2290 C   0  0  0  0  0  0  0  0  0  0  0  0
  1 50  1  0  0  0  0
  2 26  1  0  0  0  0
  2  1  2  0  0  0  0
  3  2  1  0  0  0  0
  4  3  2  0  0  0  0
  4  5  1  0  0  0  0
  5  6  2  0  0  0  0
  6  1  1  0  0  0  0
  6 12  1  0  0  0  0
  7  3  1  0  0  0  0
  8  4  1  0  0  0  0
  9  5  1  0  0  0  0
 10 12  1  0  0  0  0
 11 10  2  0  0  0  0
 12 13  1  0  0  0  0
 14 21  1  0  0  0  0
 14 15  1  0  0  0  0
 15 16  1  0  0  0  0
 16 20  1  0  0  0  0
 16 17  1  0  0  0  0
 17 18  2  0  0  0  0
 17 19  1  0  0  0  0
 19 10  1  6  0  0  0
 20 21  1  6  0  0  0
 20 19  1  0  0  0  0
 22 14  1  0  0  0  0
 23 22  1  0  0  0  0
 24 14  1  0  0  0  0
 24 25  1  0  0  0  0
 26 27  1  0  0  0  0
 28 32  1  0  0  0  0
 28 29  1  0  0  0  0
 29 33  1  0  0  0  0
 30 35  1  6  0  0  0
 30 31  1  0  0  0  0
 30 26  1  0  0  0  0
 30 29  1  0  0  0  0
 31 37  1  0  0  0  0
 32 31  1  0  0  0  0
 32 39  1  0  0  0  0
 34 29  1  0  0  0  0
 36 31  1  0  0  0  0
 38 32  1  0  0  0  0
 40 41  2  0  0  0  0
 40 45  1  0  0  0  0
 41 42  1  0  0  0  0
 42 28  1  0  0  0  0
 42 43  2  0  0  0  0
 44 43  1  0  0  0  0
 44 48  1  0  0  0  0
 45 44  2  0  0  0  0
 46 40  1  0  0  0  0
 47 41  1  0  0  0  0
 50 49  3  0  0  0  0
M  END
>  <minimizedAffinity>
-6.39100981

$$$$

 OpenBabel03242519123D

 50 54  0  0  1  0  0  0  0  0999 V2000
   40.4390   33.6540   40.3910 C   0  0  0  0  0  0  0  0  0  0  0  0
   39.0540   33.8980   40.5130 C   0  0  0  0  0  0  0  0  0  0  0  0
   38.7050   35.2120   40.2790 C   0  0  0  0  0  0  0  0  0  0  0  0
   39.5630   36.2230   39.9560 C   0  0  0  0  0  0  0  0  0  0  0  0
   40.9110   35.9380   39.8460 C   0  0  0  0  0  0  0  0  0  0  0  0
   41.3220   34.6530   40.0670 C   0  0  0  0  0  0  0  0  0  0  0  0
   37.6500   35.4380   40.3640 H   0  0  0  0  0  0  0  0  0  0  0  0
   39.2350   37.2430   39.7810 H   0  0  0  0  0  0  0  0  0  0  0  0
   41.6170   36.7180   39.5920 H   0  0  0  0  0  0  0  0  0  0  0  0
   43.5700   34.6750   41.0530 C   0  0  0  0  0  0  0  0  0  0  0  0
   43.0840   35.1510   42.1290 O   0  0  0  0  0  0  0  0  0  0  0  0
   42.7220   34.3940   39.9460 N   0  0  0  0  0  0  0  0  0  0  0  0
   43.0540   34.0090   39.0470 H   0  0  0  0  0  0  0  0  0  0  0  0
   44.9340   31.5750   43.4920 C   0  0  0  0  0  0  0  0  0  0  0  0
   45.7190   31.3010   42.2440 C   0  0  0  0  0  2  0  0  0  0  0  0
   45.4530   32.3240   41.2770 N   0  0  0  0  0  0  0  0  0  0  0  0
   45.1000   33.0490   40.1050 C   0  0  0  0  0  0  0  0  0  0  0  0
   44.9180   32.7080   38.8880 O   0  0  0  0  0  0  0  0  0  0  0  0
   45.0180   34.3560   40.8080 C   0  0  2  0  0  3  0  0  0  0  0  0
   45.7340   33.6340   41.8820 C   0  0  1  0  0  3  0  0  0  0  0  0
   44.7750   33.3900   43.4270 S   0  0  0  0  0  0  0  0  0  0  0  0
   43.6130   30.8870   43.5710 C   0  0  0  0  0  2  0  0  0  0  0  0
   43.2040   30.5330   42.6200 H   0  0  0  0  0  0  0  0  0  0  0  0
   45.8120   31.1600   44.6590 C   0  0  0  0  0  2  0  0  0  0  0  0
   46.7270   31.7820   44.7250 H   0  0  0  0  0  0  0  0  0  0  0  0
   38.1000   32.9210   40.8420 N   0  0  0  0  0  0  0  0  0  0  0  0
   37.6030   33.2440   41.7040 H   0  0  0  0  0  0  0  0  0  0  0  0
   36.5680   30.4810   38.7560 N   0  0  0  0  0  0  0  0  0  0  0  0
   37.1660   31.8110   38.8700 C   0  0  0  0  0  0  0  0  0  0  0  0
   37.7460   31.6800   40.2400 C   0  0  2  0  0  0  0  0  0  0  0  0
   36.6000   31.0820   41.0320 C   0  0  0  0  0  0  0  0  0  0  0  0
   35.9030   30.2220   40.0040 C   0  0  0  0  0  0  0  0  0  0  0  0
   36.4010   32.6080   38.8620 H   0  0  0  0  0  0  0  0  0  0  0  0
   37.9580   31.9540   38.1060 H   0  0  0  0  0  0  0  0  0  0  0  0
   38.6040   30.9810   40.1760 H   0  0  0  0  0  0  0  0  0  0  0  0
   36.9610   30.4780   41.8880 H   0  0  0  0  0  0  0  0  0  0  0  0
   35.9160   31.8990   41.3170 H   0  0  0  0  0  0  0  0  0  0  0  0
   36.0080   29.1350   40.2650 H   0  0  0  0  0  0  0  0  0  0  0  0
   34.8280   30.4360   39.9230 H   0  0  0  0  0  0  0  0  0  0  0  0
   36.7800   28.9240   35.3660 C   0  0  0  0  0  0  0  0  0  0  0  0
   36.7830   29.9050   36.3510 C   0  0  0  0  0  0  0  0  0  0  0  0
   36.5820   29.5660   37.6920 C   0  0  0  0  0  0  0  0  0  0  0  0
   36.3910   28.2520   37.9490 N   0  0  0  0  0  0  0  0  0  0  0  0
   36.3850   27.2940   37.0160 C   0  0  0  0  0  0  0  0  0  0  0  0
   36.5830   27.6470   35.7100 N   0  0  0  0  0  0  0  0  0  0  0  0
   36.9440   29.2810   34.3610 H   0  0  0  0  0  0  0  0  0  0  0  0
   36.9310   30.9710   36.2010 H   0  0  0  0  0  0  0  0  0  0  0  0
   36.2270   26.2430   37.2640 H   0  0  0  0  0  0  0  0  0  0  0  0
   41.2240   31.2110   40.7950 N   0  0  0  0  0  0  0  0  0  0  0  0
   40.8820   32.2980   40.6230 C   0  0  0  0  0  0  0  0  0  0  0  0
  1  2  1  0  0  0  0
  1 50  1  0  0  0  0
  2 26  1  0  0  0  0
  3  7  1  0  0  0  0
  3  2  2  0  0  0  0
  4  3  1  0  0  0  0
  5  4  2  0  0  0  0
  5  6  1  0  0  0  0
  6  1  2  0  0  0  0
  8  4  1  0  0  0  0
  9  5  1  0  0  0  0
 10 11  2  0  0  0  0
 12  6  1  0  0  0  0
 12 10  1  0  0  0  0
 13 12  1  0  0  0  0
 14 22  1  0  0  0  0
 14 24  1  0  0  0  0
 15 14  1  0  0  0  0
 16 20  1  0  0  0  0
 16 15  1  0  0  0  0
 17 19  1  0  0  0  0
 17 16  1  0  0  0  0
 18 17  2  0  0  0  0
 19 10  1  1  0  0  0
 19 20  1  0  0  0  0
 20 21  1  1  0  0  0
 21 14  1  0  0  0  0
 23 22  1  0  0  0  0
 24 25  1  0  0  0  0
 26 27  1  0  0  0  0
 28 29  1  0  0  0  0
 28 32  1  0  0  0  0
 29 30  1  0  0  0  0
 30 35  1  6  0  0  0
 30 26  1  0  0  0  0
 30 31  1  0  0  0  0
 31 37  1  0  0  0  0
 31 36  1  0  0  0  0
 32 38  1  0  0  0  0
 32 31  1  0  0  0  0
 33 29  1  0  0  0  0
 34 29  1  0  0  0  0
 39 32  1  0  0  0  0
 40 45  2  0  0  0  0
 40 41  1  0  0  0  0
 41 42  2  0  0  0  0
 42 43  1  0  0  0  0
 42 28  1  0  0  0  0
 44 48  1  0  0  0  0
 44 43  2  0  0  0  0
 45 44  1  0  0  0  0
 46 40  1  0  0  0  0
 47 41  1  0  0  0  0
 50 49  3  0  0  0  0
M  END
>  <minimizedAffinity>
-6.27863455

$$$$

 OpenBabel03242519123D

 50 54  0  0  1  0  0  0  0  0999 V2000
   39.7480   30.6440   39.8750 C   0  0  0  0  0  0  0  0  0  0  0  0
   39.2120   31.9280   39.6360 C   0  0  0  0  0  0  0  0  0  0  0  0
   37.9040   32.0650   40.0520 C   0  0  0  0  0  0  0  0  0  0  0  0
   37.1460   31.0940   40.6420 C   0  0  0  0  0  0  0  0  0  0  0  0
   37.7120   29.8510   40.8570 C   0  0  0  0  0  0  0  0  0  0  0  0
   39.0070   29.6520   40.4670 C   0  0  0  0  0  0  0  0  0  0  0  0
   37.4590   33.0370   39.8850 H   0  0  0  0  0  0  0  0  0  0  0  0
   36.1180   31.2540   40.9520 H   0  0  0  0  0  0  0  0  0  0  0  0
   37.1370   29.0610   41.3220 H   0  0  0  0  0  0  0  0  0  0  0  0
   40.0060   28.0290   42.0130 C   0  0  0  0  0  0  0  0  0  0  0  0
   39.9150   28.8810   42.9550 O   0  0  0  0  0  0  0  0  0  0  0  0
   39.5600   28.3560   40.7030 N   0  0  0  0  0  0  0  0  0  0  0  0
   39.6080   27.7100   39.8990 H   0  0  0  0  0  0  0  0  0  0  0  0
   37.3740   25.1440   40.5400 C   0  0  0  0  0  0  0  0  0  0  0  0
   38.6880   24.5330   40.1510 C   0  0  0  0  0  2  0  0  0  0  0  0
   39.7580   25.3460   40.6460 N   0  0  0  0  0  0  0  0  0  0  0  0
   40.9230   26.1510   40.7810 C   0  0  0  0  0  0  0  0  0  0  0  0
   41.9220   26.3790   40.0190 O   0  0  0  0  0  0  0  0  0  0  0  0
   40.5610   26.6380   42.1390 C   0  0  2  0  0  3  0  0  0  0  0  0
   39.5890   25.5240   42.0960 C   0  0  1  0  0  3  0  0  0  0  0  0
   37.8260   26.0320   42.0670 S   0  0  0  0  0  0  0  0  0  0  0  0
   36.7660   26.0410   39.5140 C   0  0  0  0  0  2  0  0  0  0  0  0
   37.4510   26.4230   38.7520 H   0  0  0  0  0  0  0  0  0  0  0  0
   36.4340   23.9930   40.8530 C   0  0  0  0  0  2  0  0  0  0  0  0
   36.7770   23.4110   41.7310 H   0  0  0  0  0  0  0  0  0  0  0  0
   39.9170   32.9850   39.0350 N   0  0  0  0  0  0  0  0  0  0  0  0
   39.6240   33.0270   38.0310 H   0  0  0  0  0  0  0  0  0  0  0  0
   42.0440   34.8110   41.2240 N   0  0  0  0  0  0  0  0  0  0  0  0
   41.4830   33.5160   40.8400 C   0  0  0  0  0  0  0  0  0  0  0  0
   40.8740   33.9120   39.5350 C   0  0  2  0  0  0  0  0  0  0  0  0
   40.1490   35.1980   39.8810 C   0  0  0  0  0  0  0  0  0  0  0  0
   41.0300   35.7930   40.9540 C   0  0  0  0  0  0  0  0  0  0  0  0
   40.6920   33.1880   41.5380 H   0  0  0  0  0  0  0  0  0  0  0  0
   42.2860   32.7630   40.7010 H   0  0  0  0  0  0  0  0  0  0  0  0
   41.7010   34.0920   38.8190 H   0  0  0  0  0  0  0  0  0  0  0  0
   40.0640   35.8720   39.0060 H   0  0  0  0  0  0  0  0  0  0  0  0
   39.1810   34.9330   40.3390 H   0  0  0  0  0  0  0  0  0  0  0  0
   41.5140   36.7380   40.5860 H   0  0  0  0  0  0  0  0  0  0  0  0
   40.4800   36.0450   41.8720 H   0  0  0  0  0  0  0  0  0  0  0  0
   44.8020   36.2230   43.3110 C   0  0  0  0  0  0  0  0  0  0  0  0
   43.5140   35.9600   42.8600 C   0  0  0  0  0  0  0  0  0  0  0  0
   43.3030   35.1340   41.7530 C   0  0  0  0  0  0  0  0  0  0  0  0
   44.4140   34.6260   41.1730 N   0  0  0  0  0  0  0  0  0  0  0  0
   45.6610   34.8660   41.5920 C   0  0  0  0  0  0  0  0  0  0  0  0
   45.8450   35.6770   42.6760 N   0  0  0  0  0  0  0  0  0  0  0  0
   44.8660   36.8710   44.1720 H   0  0  0  0  0  0  0  0  0  0  0  0
   42.5890   36.3410   43.2870 H   0  0  0  0  0  0  0  0  0  0  0  0
   46.5330   34.4360   41.0960 H   0  0  0  0  0  0  0  0  0  0  0  0
   42.2120   30.2670   39.1450 N   0  0  0  0  0  0  0  0  0  0  0  0
   41.1160   30.4260   39.4650 C   0  0  0  0  0  0  0  0  0  0  0  0
  1  6  1  0  0  0  0
  2  1  2  0  0  0  0
  2  3  1  0  0  0  0
  3  4  2  0  0  0  0
  4  5  1  0  0  0  0
  4  8  1  0  0  0  0
  5  9  1  0  0  0  0
  6 12  1  0  0  0  0
  6  5  2  0  0  0  0
  7  3  1  0  0  0  0
 10 11  2  0  0  0  0
 12 10  1  0  0  0  0
 13 12  1  0  0  0  0
 14 24  1  0  0  0  0
 14 21  1  0  0  0  0
 15 14  1  0  0  0  0
 15 16  1  0  0  0  0
 16 17  1  0  0  0  0
 16 20  1  0  0  0  0
 17 19  1  0  0  0  0
 18 17  2  0  0  0  0
 19 10  1  6  0  0  0
 20 21  1  6  0  0  0
 20 19  1  0  0  0  0
 22 14  1  0  0  0  0
 23 22  1  0  0  0  0
 24 25  1  0  0  0  0
 26 30  1  0  0  0  0
 26  2  1  0  0  0  0
 27 26  1  0  0  0  0
 28 42  1  0  0  0  0
 29 28  1  0  0  0  0
 29 33  1  0  0  0  0
 30 35  1  6  0  0  0
 30 31  1  0  0  0  0
 30 29  1  0  0  0  0
 31 37  1  0  0  0  0
 31 32  1  0  0  0  0
 32 28  1  0  0  0  0
 32 39  1  0  0  0  0
 34 29  1  0  0  0  0
 36 31  1  0  0  0  0
 38 32  1  0  0  0  0
 40 46  1  0  0  0  0
 41 47  1  0  0  0  0
 41 40  1  0  0  0  0
 42 41  2  0  0  0  0
 43 44  2  0  0  0  0
 43 42  1  0  0  0  0
 44 45  1  0  0  0  0
 45 40  2  0  0  0  0
 48 44  1  0  0  0  0
 49 50  3  0  0  0  0
 50  1  1  0  0  0  0
M  END
>  <minimizedAffinity>
-6.18991184

$$$$

 OpenBabel03242519123D

 50 54  0  0  1  0  0  0  0  0999 V2000
   37.9070   31.4100   40.9680 C   0  0  0  0  0  0  0  0  0  0  0  0
   37.0170   30.3590   41.2760 C   0  0  0  0  0  0  0  0  0  0  0  0
   37.4720   29.5270   42.2780 C   0  0  0  0  0  0  0  0  0  0  0  0
   38.6570   29.6530   42.9460 C   0  0  0  0  0  0  0  0  0  0  0  0
   39.4970   30.6980   42.6120 C   0  0  0  0  0  0  0  0  0  0  0  0
   39.1030   31.5590   41.6250 C   0  0  0  0  0  0  0  0  0  0  0  0
   36.8160   28.7080   42.5410 H   0  0  0  0  0  0  0  0  0  0  0  0
   38.9680   28.9690   43.7290 H   0  0  0  0  0  0  0  0  0  0  0  0
   40.4430   30.8250   43.1230 H   0  0  0  0  0  0  0  0  0  0  0  0
   41.3820   32.3410   41.1590 C   0  0  0  0  0  0  0  0  0  0  0  0
   41.8130   31.1530   41.3150 O   0  0  0  0  0  0  0  0  0  0  0  0
   39.9960   32.6260   41.3050 N   0  0  0  0  0  0  0  0  0  0  0  0
   39.5850   33.5670   41.1930 H   0  0  0  0  0  0  0  0  0  0  0  0
   43.2720   31.9400   37.4600 C   0  0  0  0  0  0  0  0  0  0  0  0
   42.9880   33.4120   37.4580 C   0  0  0  0  0  2  0  0  0  0  0  0
   42.3960   33.7860   38.7080 N   0  0  0  0  0  0  0  0  0  0  0  0
   41.5420   34.2920   39.7270 C   0  0  0  0  0  0  0  0  0  0  0  0
   40.5520   35.0990   39.7180 O   0  0  0  0  0  0  0  0  0  0  0  0
   42.2190   33.5410   40.8180 C   0  0  2  0  0  3  0  0  0  0  0  0
   43.2760   33.3500   39.8020 C   0  0  1  0  0  3  0  0  0  0  0  0
   43.5110   31.6200   39.2390 S   0  0  0  0  0  0  0  0  0  0  0  0
   42.2020   31.0890   36.8640 C   0  0  0  0  0  2  0  0  0  0  0  0
   41.2130   31.5520   36.7900 H   0  0  0  0  0  0  0  0  0  0  0  0
   44.5760   31.7470   36.7060 C   0  0  0  0  0  2  0  0  0  0  0  0
   45.4270   32.2270   37.2290 H   0  0  0  0  0  0  0  0  0  0  0  0
   35.7810   30.1520   40.6410 N   0  0  0  0  0  0  0  0  0  0  0  0
   35.1060   30.8510   41.0300 H   0  0  0  0  0  0  0  0  0  0  0  0
   35.6840   27.4100   38.3780 N   0  0  0  0  0  0  0  0  0  0  0  0
   36.0400   27.9040   39.7070 C   0  0  0  0  0  0  0  0  0  0  0  0
   35.3500   29.2270   39.6480 C   0  0  2  0  0  0  0  0  0  0  0  0
   35.7680   29.7620   38.2920 C   0  0  0  0  0  0  0  0  0  0  0  0
   35.8900   28.5030   37.4660 C   0  0  0  0  0  0  0  0  0  0  0  0
   37.1290   28.0540   39.8130 H   0  0  0  0  0  0  0  0  0  0  0  0
   35.6080   27.2560   40.4980 H   0  0  0  0  0  0  0  0  0  0  0  0
   34.2580   29.0390   39.6920 H   0  0  0  0  0  0  0  0  0  0  0  0
   35.0110   30.4520   37.8700 H   0  0  0  0  0  0  0  0  0  0  0  0
   36.7730   30.2050   38.3930 H   0  0  0  0  0  0  0  0  0  0  0  0
   35.0990   28.4780   36.6690 H   0  0  0  0  0  0  0  0  0  0  0  0
   36.8630   28.4110   36.9630 H   0  0  0  0  0  0  0  0  0  0  0  0
   35.2460   23.7280   37.9220 C   0  0  0  0  0  0  0  0  0  0  0  0
   35.7700   24.9300   38.3840 C   0  0  0  0  0  0  0  0  0  0  0  0
   35.2260   26.1480   37.9690 C   0  0  0  0  0  0  0  0  0  0  0  0
   34.1830   26.0710   37.1120 N   0  0  0  0  0  0  0  0  0  0  0  0
   33.6640   24.9250   36.6570 C   0  0  0  0  0  0  0  0  0  0  0  0
   34.2110   23.7440   37.0750 N   0  0  0  0  0  0  0  0  0  0  0  0
   35.7310   22.8400   38.2970 H   0  0  0  0  0  0  0  0  0  0  0  0
   36.6040   25.0500   39.0700 H   0  0  0  0  0  0  0  0  0  0  0  0
   32.8200   24.9040   35.9650 H   0  0  0  0  0  0  0  0  0  0  0  0
   37.1730   33.0660   39.1060 N   0  0  0  0  0  0  0  0  0  0  0  0
   37.4970   32.3230   39.9260 C   0  0  0  0  0  0  0  0  0  0  0  0
  1  2  2  0  0  0  0
  1  6  1  0  0  0  0
  2  3  1  0  0  0  0
  3  7  1  0  0  0  0
  3  4  2  0  0  0  0
  4  8  1  0  0  0  0
  5  4  1  0  0  0  0
  5  9  1  0  0  0  0
  6  5  2  0  0  0  0
 10 12  1  0  0  0  0
 10 11  2  0  0  0  0
 12  6  1  0  0  0  0
 13 12  1  0  0  0  0
 14 21  1  0  0  0  0
 15 14  1  0  0  0  0
 15 16  1  0  0  0  0
 16 17  1  0  0  0  0
 16 20  1  0  0  0  0
 17 19  1  0  0  0  0
 18 17  2  0  0  0  0
 19 10  1  6  0  0  0
 20 21  1  6  0  0  0
 20 19  1  0  0  0  0
 22 14  1  0  0  0  0
 23 22  1  0  0  0  0
 24 25  1  0  0  0  0
 24 14  1  0  0  0  0
 26 27  1  0  0  0  0
 26  2  1  0  0  0  0
 28 29  1  0  0  0  0
 29 33  1  0  0  0  0
 29 34  1  0  0  0  0
 30 35  1  1  0  0  0
 30 29  1  0  0  0  0
 30 26  1  0  0  0  0
 31 37  1  0  0  0  0
 31 30  1  0  0  0  0
 32 31  1  0  0  0  0
 32 28  1  0  0  0  0
 36 31  1  0  0  0  0
 38 32  1  0  0  0  0
 39 32  1  0  0  0  0
 40 46  1  0  0  0  0
 40 41  1  0  0  0  0
 41 47  1  0  0  0  0
 42 28  1  0  0  0  0
 42 41  2  0  0  0  0
 43 42  1  0  0  0  0
 44 45  1  0  0  0  0
 44 43  2  0  0  0  0
 45 40  2  0  0  0  0
 48 44  1  0  0  0  0
 49 50  3  0  0  0  0
 50  1  1  0  0  0  0
M  END
>  <minimizedAffinity>
-6.10199261

$$$$
