
 OpenBabel03242518553D

 45 48  0  0  1  0  0  0  0  0999 V2000
   45.6780   31.1160   46.4860 C   0  0  2  0  0  0  0  0  0  0  0  0
   45.8190   30.2730   47.7130 C   0  0  0  0  0  0  0  0  0  0  0  0
   45.0280   29.0320   47.4800 C   0  0  0  0  0  0  0  0  0  0  0  0
   44.2650   28.9780   46.2040 C   0  0  0  0  0  0  0  0  0  0  0  0
   45.1790   29.2150   45.0340 C   0  0  0  0  0  0  0  0  0  0  0  0
   46.1130   30.3040   45.2820 C   0  0  2  0  0  0  0  0  0  0  0  0
   44.6010   31.3130   46.3040 H   0  0  0  0  0  0  0  0  0  0  0  0
   46.8500   30.0700   48.0200 H   0  0  0  0  0  0  0  0  0  0  0  0
   45.3950   30.8870   48.5690 H   0  0  0  0  0  0  0  0  0  0  0  0
   45.6040   28.0790   47.6120 H   0  0  0  0  0  0  0  0  0  0  0  0
   44.2560   28.9700   48.3000 H   0  0  0  0  0  0  0  0  0  0  0  0
   43.8390   27.9480   46.1340 H   0  0  0  0  0  0  0  0  0  0  0  0
   43.3720   29.6590   46.2030 H   0  0  0  0  0  0  0  0  0  0  0  0
   45.5800   28.2320   44.7260 H   0  0  0  0  0  0  0  0  0  0  0  0
   44.5020   29.5130   44.1800 H   0  0  0  0  0  0  0  0  0  0  0  0
   46.2090   30.9800   44.4300 H   0  0  0  0  0  0  0  0  0  0  0  0
   47.4330   29.6620   45.5410 C   0  0  0  0  0  0  0  0  0  0  0  0
   47.4870   28.5840   45.2990 H   0  0  0  0  0  0  0  0  0  0  0  0
   47.6450   29.7710   46.6280 H   0  0  0  0  0  0  0  0  0  0  0  0
   49.3400   31.5280   41.1350 C   0  0  0  0  0  0  0  0  0  0  0  0
   49.0750   30.0610   41.3770 C   0  0  0  0  0  2  0  0  0  0  0  0
   49.1710   29.8150   42.7990 N   0  0  0  0  0  0  0  0  0  0  0  0
   49.4880   29.3940   44.1220 C   0  0  0  0  0  0  0  0  0  0  0  0
   50.2940   28.4900   44.5210 O   0  0  0  0  0  0  0  0  0  0  0  0
   48.5760   30.3510   44.7930 C   0  0  1  0  0  3  0  0  0  0  0  0
   48.1110   30.6420   43.3850 C   0  0  1  0  0  3  0  0  0  0  0  0
   48.7090   32.2430   42.7070 S   0  0  0  0  0  0  0  0  0  0  0  0
   48.4540   32.0850   40.0410 C   0  0  0  0  0  2  0  0  0  0  0  0
   48.3760   31.4200   39.1580 H   0  0  0  0  0  0  0  0  0  0  0  0
   50.7890   31.8370   40.9120 C   0  0  0  0  0  2  0  0  0  0  0  0
   51.2610   30.9070   40.4790 H   0  0  0  0  0  0  0  0  0  0  0  0
   46.3590   32.4320   46.5670 C   0  0  0  0  0  0  0  0  0  0  0  0
   47.3770   32.6270   47.2790 O   0  0  0  0  0  0  0  0  0  0  0  0
   44.4770   35.4150   45.6220 C   0  0  0  0  0  0  0  0  0  0  0  0
   44.7220   35.5580   44.2340 C   0  0  0  0  0  0  0  0  0  0  0  0
   45.5460   34.6090   43.6560 C   0  0  0  0  0  0  0  0  0  0  0  0
   46.0120   33.6690   44.4820 N   0  0  0  0  0  0  0  0  0  0  0  0
   45.7900   33.5280   45.7720 C   0  0  0  0  0  0  0  0  0  0  0  0
   44.9940   34.4350   46.3590 N   0  0  0  0  0  0  0  0  0  0  0  0
   43.8280   36.1470   46.1210 H   0  0  0  0  0  0  0  0  0  0  0  0
   44.2690   36.3790   43.7000 H   0  0  0  0  0  0  0  0  0  0  0  0
   45.7980   34.7440   42.2300 C   0  0  0  0  0  0  0  0  0  0  0  0
   45.8170   33.4870   41.6370 F   0  0  0  0  0  0  0  0  0  0  0  0
   47.0220   35.3140   42.0980 F   0  0  0  0  0  0  0  0  0  0  0  0
   44.7890   35.4460   41.5800 F   0  0  0  0  0  0  0  0  0  0  0  0
  1  7  1  6  0  0  0
  1 32  1  0  0  0  0
  1  2  1  0  0  0  0
  2  8  1  0  0  0  0
  2  9  1  0  0  0  0
  3 10  1  0  0  0  0
  3  2  1  0  0  0  0
  3 11  1  0  0  0  0
  4  3  1  0  0  0  0
  5  6  1  0  0  0  0
  5  4  1  0  0  0  0
  6 16  1  6  0  0  0
  6 17  1  0  0  0  0
  6  1  1  0  0  0  0
 12  4  1  0  0  0  0
 13  4  1  0  0  0  0
 14  5  1  0  0  0  0
 15  5  1  0  0  0  0
 17 19  1  0  0  0  0
 18 17  1  0  0  0  0
 20 21  1  0  0  0  0
 20 27  1  0  0  0  0
 21 22  1  0  0  0  0
 22 26  1  0  0  0  0
 22 23  1  0  0  0  0
 23 24  2  0  0  0  0
 23 25  1  0  0  0  0
 25 17  1  1  0  0  0
 26 27  1  6  0  0  0
 26 25  1  0  0  0  0
 28 20  1  0  0  0  0
 29 28  1  0  0  0  0
 30 20  1  0  0  0  0
 31 30  1  0  0  0  0
 32 33  2  0  0  0  0
 34 40  1  0  0  0  0
 34 39  1  0  0  0  0
 35 34  2  0  0  0  0
 36 35  1  0  0  0  0
 36 37  2  0  0  0  0
 37 38  1  0  0  0  0
 38 39  2  0  0  0  0
 38 32  1  0  0  0  0
 41 35  1  0  0  0  0
 42 36  1  0  0  0  0
 43 42  1  0  0  0  0
 44 42  1  0  0  0  0
 45 42  1  0  0  0  0
M  END
>  <minimizedAffinity>
-5.37490463

>  <minimizedRMSD>
1.88494289

$$$$
