REMARK  Name = 
REMARK  4 active torsions:
REMARK  status: ('A' for Active; 'I' for Inactive)
REMARK    1  A    between atoms: C_2  and  C_7
REMARK    2  A    between atoms: C_3  and  C_12
REMARK    3  A    between atoms: C_12  and  C_13
REMARK    4  A    between atoms: C_13  and  C_14
REMARK                            x       y       z     vdW  Elec       q    Type
REMARK                         _______ _______ _______ _____ _____    ______ ____
ROOT
ATOM      1  C   UNL     1      47.169  32.818  43.980  0.00  0.00    +0.000 C 
ENDROOT
BRANCH   1   2
ATOM      2  C   UNL     1      47.419  32.186  45.323  0.00  0.00    +0.000 C 
ATOM      3  C   UNL     1      48.282  30.960  45.255  0.00  0.00    +0.000 C 
ATOM      4  N   UNL     1      47.416  29.823  45.078  0.00  0.00    +0.000 N 
ATOM      5  C   UNL     1      46.817  28.627  44.565  0.00  0.00    +0.000 C 
ATOM      6  O   UNL     1      47.276  27.751  43.782  0.00  0.00    +0.000 OA
ATOM      7  C   UNL     1      45.530  28.867  45.305  0.00  0.00    +0.000 C 
ATOM      8  H   UNL     1      44.754  29.345  44.684  0.00  0.00    +0.000 HD
ATOM      9  C   UNL     1      46.399  29.795  46.115  0.00  0.00    +0.000 C 
ATOM     10  S   UNL     1      45.887  31.542  46.061  0.00  0.00    +0.000 S 
BRANCH   2  11
ATOM     11  C   UNL     1      48.031  33.154  46.279  0.00  0.00    +0.000 C 
ATOM     12  H   UNL     1      48.462  34.018  45.737  0.00  0.00    +0.000 HD
ENDBRANCH   2  11
ENDBRANCH   1   2
BRANCH   1  15
ATOM     13  C   UNL     1      45.204  35.973  43.373  0.00  0.00    +0.000 A 
ATOM     14  C   UNL     1      46.087  34.913  43.151  0.00  0.00    +0.000 A 
ATOM     15  C   UNL     1      46.246  33.959  44.167  0.00  0.00    +0.000 A 
ATOM     16  N   UNL     1      45.533  34.117  45.311  0.00  0.00    +0.000 NA
ATOM     17  C   UNL     1      44.688  35.151  45.499  0.00  0.00    +0.000 A 
ATOM     18  N   UNL     1      44.536  36.059  44.532  0.00  0.00    +0.000 NA
ATOM     19  H   UNL     1      45.049  36.730  42.623  0.00  0.00    +0.000 HD
ATOM     20  H   UNL     1      44.141  35.231  46.434  0.00  0.00    +0.000 HD
BRANCH  14  21
ATOM     21  C   UNL     1      46.825  34.783  41.919  0.00  0.00    +0.000 C 
ATOM     22  O   UNL     1      47.909  35.399  41.821  0.00  0.00    +0.000 OA
ATOM     23  H   UNL     1      46.278  34.130  41.240  0.00  0.00    +0.000 HD
ENDBRANCH  14  21
ENDBRANCH   1  15
TORSDOF 4
