
 OpenBabel03252501113D

 23 25  0  0  1  0  0  0  0  0999 V2000
   47.9190   33.1670   38.1980 C   0  0  0  0  0  0  0  0  0  0  0  0
   48.9170   32.3130   38.8580 C   0  0  0  0  0  0  0  0  0  0  0  0
   49.0800   32.6690   40.2240 N   0  0  0  0  0  0  0  0  0  0  0  0
   49.5110   33.0530   41.5210 C   0  0  0  0  0  0  0  0  0  0  0  0
   50.7140   33.1900   41.9250 O   0  0  0  0  0  0  0  0  0  0  0  0
   48.1300   33.1870   42.0530 C   0  0  2  0  0  0  0  0  0  0  0  0
   47.7610   32.5710   40.7520 C   0  0  1  0  0  0  0  0  0  0  0  0
   46.8630   33.6710   39.6010 S   0  0  0  0  0  0  0  0  0  0  0  0
   47.8150   34.6160   42.2610 C   0  0  0  0  0  0  0  0  0  0  0  0
   48.3350   35.6310   41.7040 O   0  0  0  0  0  0  0  0  0  0  0  0
   44.7760   35.7860   44.0000 C   0  0  0  0  0  0  0  0  0  0  0  0
   45.8120   35.6820   43.0560 C   0  0  0  0  0  0  0  0  0  0  0  0
   46.7730   34.6900   43.2460 C   0  0  0  0  0  0  0  0  0  0  0  0
   46.6700   33.8610   44.3330 N   0  0  0  0  0  0  0  0  0  0  0  0
   45.6480   34.0000   45.2210 C   0  0  0  0  0  0  0  0  0  0  0  0
   44.6940   34.9610   45.0630 N   0  0  0  0  0  0  0  0  0  0  0  0
   44.0500   36.5500   43.8400 H   0  0  0  0  0  0  0  0  0  0  0  0
   45.8590   36.3530   42.2130 H   0  0  0  0  0  0  0  0  0  0  0  0
   45.7040   33.2840   46.0130 H   0  0  0  0  0  0  0  0  0  0  0  0
   47.0450   32.3170   37.2990 C   0  0  0  0  0  0  0  0  0  0  0  0
   46.9430   31.3080   37.7700 H   0  0  0  0  0  0  0  0  0  0  0  0
   48.4830   34.3590   37.4760 C   0  0  0  0  0  0  0  0  0  0  0  0
   47.8550   34.4770   36.5590 H   0  0  0  0  0  0  0  0  0  0  0  0
  1  2  1  0  0  0  0
  1  8  1  0  0  0  0
  2  3  1  0  0  0  0
  3  7  1  0  0  0  0
  3  4  1  0  0  0  0
  4  5  2  0  0  0  0
  4  6  1  0  0  0  0
  6  9  1  6  0  0  0
  7  8  1  6  0  0  0
  7  6  1  0  0  0  0
  9 13  1  0  0  0  0
 10  9  2  0  0  0  0
 11 16  1  0  0  0  0
 12 13  1  0  0  0  0
 12 11  2  0  0  0  0
 13 14  2  0  0  0  0
 14 15  1  0  0  0  0
 15 19  1  0  0  0  0
 16 15  2  0  0  0  0
 17 11  1  0  0  0  0
 18 12  1  0  0  0  0
 20 21  1  0  0  0  0
 20  1  1  0  0  0  0
 22  1  1  0  0  0  0
 23 22  1  0  0  0  0
M  END
>  <minimizedAffinity>
-4.79339123

>  <minimizedRMSD>
1.81722581

$$$$
