
 OpenBabel03242518553D

 45 48  0  0  1  0  0  0  0  0999 V2000
   45.8790   31.3290   46.2900 C   0  0  2  0  0  0  0  0  0  0  0  0
   45.3130   30.7100   47.5270 C   0  0  0  0  0  0  0  0  0  0  0  0
   44.7960   29.3660   47.1430 C   0  0  0  0  0  0  0  0  0  0  0  0
   44.8800   29.0280   45.6960 C   0  0  0  0  0  0  0  0  0  0  0  0
   46.2920   29.1800   45.2020 C   0  0  0  0  0  0  0  0  0  0  0  0
   46.9190   30.3930   45.7070 C   0  0  2  0  0  0  0  0  0  0  0  0
   45.0890   31.3720   45.5120 H   0  0  0  0  0  0  0  0  0  0  0  0
   45.9950   30.6750   48.3830 H   0  0  0  0  0  0  0  0  0  0  0  0
   44.4780   31.3980   47.8710 H   0  0  0  0  0  0  0  0  0  0  0  0
   45.2040   28.5160   47.7500 H   0  0  0  0  0  0  0  0  0  0  0  0
   43.6970   29.3470   47.3970 H   0  0  0  0  0  0  0  0  0  0  0  0
   44.5730   27.9580   45.6030 H   0  0  0  0  0  0  0  0  0  0  0  0
   44.1380   29.5940   45.0740 H   0  0  0  0  0  0  0  0  0  0  0  0
   46.8020   28.2130   45.3610 H   0  0  0  0  0  0  0  0  0  0  0  0
   46.2080   29.2620   44.0780 H   0  0  0  0  0  0  0  0  0  0  0  0
   47.4730   30.9340   44.9370 H   0  0  0  0  0  0  0  0  0  0  0  0
   47.8710   29.9520   46.7660 C   0  0  0  0  0  0  0  0  0  0  0  0
   47.4570   29.9330   47.7920 H   0  0  0  0  0  0  0  0  0  0  0  0
   48.7230   30.6690   46.7630 H   0  0  0  0  0  0  0  0  0  0  0  0
   48.9420   25.1950   48.4240 C   0  0  0  0  0  0  0  0  0  0  0  0
   49.5970   26.4390   48.9740 C   0  0  0  0  0  2  0  0  0  0  0  0
   49.5810   27.4510   47.9390 N   0  0  0  0  0  0  0  0  0  0  0  0
   49.8600   28.4300   46.9430 C   0  0  0  0  0  0  0  0  0  0  0  0
   50.9690   28.9640   46.6110 O   0  0  0  0  0  0  0  0  0  0  0  0
   48.4540   28.5650   46.4890 C   0  0  1  0  0  3  0  0  0  0  0  0
   48.1570   27.6810   47.6750 C   0  0  1  0  0  3  0  0  0  0  0  0
   47.7510   25.9410   47.2390 S   0  0  0  0  0  0  0  0  0  0  0  0
   48.1020   24.4930   49.4700 C   0  0  0  0  0  2  0  0  0  0  0  0
   48.6000   24.4240   50.4590 H   0  0  0  0  0  0  0  0  0  0  0  0
   49.9070   24.2690   47.7490 C   0  0  0  0  0  2  0  0  0  0  0  0
   50.9150   24.4370   48.2300 H   0  0  0  0  0  0  0  0  0  0  0  0
   46.3900   32.7090   46.4770 C   0  0  0  0  0  0  0  0  0  0  0  0
   47.1160   33.0400   47.4480 O   0  0  0  0  0  0  0  0  0  0  0  0
   44.6820   35.4660   44.7980 C   0  0  0  0  0  0  0  0  0  0  0  0
   45.3060   35.5420   43.5280 C   0  0  0  0  0  0  0  0  0  0  0  0
   46.3170   34.6290   43.2850 C   0  0  0  0  0  0  0  0  0  0  0  0
   46.5810   33.7840   44.2830 N   0  0  0  0  0  0  0  0  0  0  0  0
   46.0080   33.7050   45.4660 C   0  0  0  0  0  0  0  0  0  0  0  0
   45.0240   34.5790   45.7280 N   0  0  0  0  0  0  0  0  0  0  0  0
   43.8750   36.1720   45.0310 H   0  0  0  0  0  0  0  0  0  0  0  0
   44.9760   36.2890   42.8220 H   0  0  0  0  0  0  0  0  0  0  0  0
   46.9580   34.6960   41.9820 C   0  0  0  0  0  0  0  0  0  0  0  0
   47.7500   33.5700   41.7920 F   0  0  0  0  0  0  0  0  0  0  0  0
   47.7500   35.7980   41.9880 F   0  0  0  0  0  0  0  0  0  0  0  0
   46.0390   34.6840   40.9390 F   0  0  0  0  0  0  0  0  0  0  0  0
  1  7  1  6  0  0  0
  1 32  1  0  0  0  0
  1  2  1  0  0  0  0
  2  9  1  0  0  0  0
  2  8  1  0  0  0  0
  3 11  1  0  0  0  0
  3  2  1  0  0  0  0
  3 10  1  0  0  0  0
  4  3  1  0  0  0  0
  5 14  1  0  0  0  0
  5  4  1  0  0  0  0
  5  6  1  0  0  0  0
  6 16  1  6  0  0  0
  6  1  1  0  0  0  0
  6 17  1  0  0  0  0
 12  4  1  0  0  0  0
 13  4  1  0  0  0  0
 15  5  1  0  0  0  0
 17 18  1  0  0  0  0
 19 17  1  0  0  0  0
 20 21  1  0  0  0  0
 20 28  1  0  0  0  0
 22 21  1  0  0  0  0
 23 22  1  0  0  0  0
 24 23  2  0  0  0  0
 25 17  1  1  0  0  0
 25 23  1  0  0  0  0
 25 26  1  0  0  0  0
 26 27  1  6  0  0  0
 26 22  1  0  0  0  0
 27 20  1  0  0  0  0
 28 29  1  0  0  0  0
 30 31  1  0  0  0  0
 30 20  1  0  0  0  0
 32 33  2  0  0  0  0
 34 40  1  0  0  0  0
 34 39  1  0  0  0  0
 35 34  2  0  0  0  0
 36 35  1  0  0  0  0
 36 37  2  0  0  0  0
 37 38  1  0  0  0  0
 38 39  2  0  0  0  0
 38 32  1  0  0  0  0
 41 35  1  0  0  0  0
 42 44  1  0  0  0  0
 42 36  1  0  0  0  0
 43 42  1  0  0  0  0
 45 42  1  0  0  0  0
M  END
>  <minimizedAffinity>
-5.69422483

>  <minimizedRMSD>
1.40195489

$$$$
