
 OpenBabel03242518253D

 48 53  0  0  1  0  0  0  0  0999 V2000
   46.6180   30.9160   43.9610 C   0  0  0  0  0  0  0  0  0  0  0  0
   45.9600   32.0320   44.3350 C   0  0  0  0  0  0  0  0  0  0  0  0
   46.1480   32.5110   45.6280 C   0  0  0  0  0  0  0  0  0  0  0  0
   46.9870   31.8500   46.4920 C   0  0  0  0  0  0  0  0  0  0  0  0
   47.6590   30.6920   46.0810 C   0  0  0  0  0  0  0  0  0  0  0  0
   47.4750   30.2120   44.7950 C   0  0  0  0  0  0  0  0  0  0  0  0
   48.4280   30.2520   47.1630 O   0  0  0  0  0  0  0  0  0  0  0  0
   48.0060   30.9470   48.3150 C   0  0  2  0  0  0  0  0  0  0  0  0
   47.3630   32.0900   47.8180 O   0  0  0  0  0  0  0  0  0  0  0  0
   46.4410   30.5800   42.9480 H   0  0  0  0  0  0  0  0  0  0  0  0
   45.6510   33.3940   45.9800 H   0  0  0  0  0  0  0  0  0  0  0  0
   47.9820   29.3160   44.4450 H   0  0  0  0  0  0  0  0  0  0  0  0
   47.2330   30.3230   48.8090 H   0  0  0  0  0  0  0  0  0  0  0  0
   44.2130   34.7080   42.4730 C   0  0  0  0  0  0  0  0  0  0  0  0
   43.3290   34.0000   41.6810 C   0  0  0  0  0  0  0  0  0  0  0  0
   43.3490   32.6030   41.8010 C   0  0  0  0  0  0  0  0  0  0  0  0
   44.2060   32.0010   42.6620 N   0  0  0  0  0  0  0  0  0  0  0  0
   45.0590   32.7470   43.4220 C   0  0  0  0  0  0  0  0  0  0  0  0
   45.0550   34.0800   43.3220 N   0  0  0  0  0  0  0  0  0  0  0  0
   44.2440   35.7880   42.4250 H   0  0  0  0  0  0  0  0  0  0  0  0
   42.6520   32.0580   41.1760 H   0  0  0  0  0  0  0  0  0  0  0  0
   42.4870   34.7300   40.8250 N   0  0  0  0  0  0  0  0  0  0  0  0
   42.6320   34.5470   39.4150 C   0  0  0  0  0  0  0  0  0  0  0  0
   41.7570   35.4450   38.6060 C   0  0  0  0  0  0  0  0  0  0  0  0
   40.4060   35.4590   39.0500 N   0  0  0  0  0  0  0  0  0  0  0  0
   40.1720   35.4090   40.4530 C   0  0  0  0  0  0  0  0  0  0  0  0
   41.4660   35.6660   41.2160 C   0  0  0  0  0  0  0  0  0  0  0  0
   43.6730   34.6460   39.0470 H   0  0  0  0  0  0  0  0  0  0  0  0
   42.3540   33.4840   39.1770 H   0  0  0  0  0  0  0  0  0  0  0  0
   41.7800   35.0730   37.5580 H   0  0  0  0  0  0  0  0  0  0  0  0
   42.1420   36.4900   38.5680 H   0  0  0  0  0  0  0  0  0  0  0  0
   39.7420   34.8920   38.4920 H   0  0  0  0  0  0  0  0  0  0  0  0
   39.7150   34.4730   40.8120 H   0  0  0  0  0  0  0  0  0  0  0  0
   39.4700   36.2190   40.7310 H   0  0  0  0  0  0  0  0  0  0  0  0
   41.3060   35.6580   42.2990 H   0  0  0  0  0  0  0  0  0  0  0  0
   41.8110   36.6890   40.9210 H   0  0  0  0  0  0  0  0  0  0  0  0
   49.1070   31.3270   49.2420 C   0  0  0  0  0  0  0  0  0  0  0  0
   50.0800   30.2460   49.5580 C   0  0  2  0  0  0  0  0  0  0  0  0
   50.4370   30.3890   51.0420 C   0  0  0  0  0  0  0  0  0  0  0  0
   51.2330   31.6220   51.1010 N   0  0  0  0  0  0  0  0  0  0  0  0
   51.7730   32.9400   51.3400 C   0  0  0  0  0  0  0  0  0  0  0  0
   51.5580   33.7550   52.2790 O   0  0  0  0  0  0  0  0  0  0  0  0
   52.6090   32.8750   50.0880 C   0  0  0  0  0  0  0  0  0  0  0  0
   51.9950   33.2290   49.2150 H   0  0  0  0  0  0  0  0  0  0  0  0
   52.4500   31.3910   50.3210 C   0  0  2  0  0  0  0  0  0  0  0  0
   51.7340   30.5360   48.8730 S   0  0  0  0  0  0  0  0  0  0  0  0
   49.5900   28.8720   49.2610 C   0  0  0  0  0  0  0  0  0  0  0  0
   49.1120   28.8760   48.2600 H   0  0  0  0  0  0  0  0  0  0  0  0
  1  2  2  0  0  0  0
  1  6  1  0  0  0  0
  2  3  1  0  0  0  0
  3 11  1  0  0  0  0
  3  4  2  0  0  0  0
  4  9  1  0  0  0  0
  5  4  1  0  0  0  0
  5  7  1  0  0  0  0
  6  5  2  0  0  0  0
  7  8  1  0  0  0  0
  8 13  1  1  0  0  0
  8 37  1  0  0  0  0
  9  8  1  0  0  0  0
 10  1  1  0  0  0  0
 12  6  1  0  0  0  0
 14 19  1  0  0  0  0
 15 16  1  0  0  0  0
 15 14  2  0  0  0  0
 16 17  2  0  0  0  0
 17 18  1  0  0  0  0
 18  2  1  0  0  0  0
 19 18  2  0  0  0  0
 20 14  1  0  0  0  0
 21 16  1  0  0  0  0
 22 27  1  0  0  0  0
 22 15  1  0  0  0  0
 23 22  1  0  0  0  0
 24 25  1  0  0  0  0
 24 23  1  0  0  0  0
 25 26  1  0  0  0  0
 26 34  1  0  0  0  0
 26 33  1  0  0  0  0
 26 27  1  0  0  0  0
 27 35  1  0  0  0  0
 28 23  1  0  0  0  0
 29 23  1  0  0  0  0
 30 24  1  0  0  0  0
 31 24  1  0  0  0  0
 32 25  1  0  0  0  0
 36 27  1  0  0  0  0
 38 37  1  6  0  0  0
 38 39  1  0  0  0  0
 39 40  1  0  0  0  0
 40 41  1  0  0  0  0
 41 42  2  0  0  0  0
 43 45  1  0  0  0  0
 43 41  1  0  0  0  0
 44 43  1  0  0  0  0
 45 46  1  6  0  0  0
 45 40  1  0  0  0  0
 46 38  1  0  0  0  0
 47 38  1  0  0  0  0
 48 47  1  0  0  0  0
M  END
>  <minimizedAffinity>
-6.27766943

>  <minimizedRMSD>
1.18489218

$$$$
