
 OpenBabel03242510193D

 39 44  0  0  1  0  0  0  0  0999 V2000
   48.2160   33.3810   43.4110 N   0  0  0  0  0  0  0  0  0  0  0  0
   49.3740   33.4630   42.6560 C   0  0  0  0  0  0  0  0  0  0  0  0
   50.5260   32.9890   42.8570 O   0  0  0  0  0  0  0  0  0  0  0  0
   47.6810   34.2840   43.5310 H   0  0  0  0  0  0  0  0  0  0  0  0
   46.3350   32.1430   44.4470 C   0  0  1  0  0  0  0  0  0  0  0  0
   46.6180   31.4720   43.2290 C   0  0  0  0  0  0  0  0  0  0  0  0
   47.7580   32.1610   43.9990 C   0  0  1  0  0  0  0  0  0  0  0  0
   46.0810   31.5820   45.3770 H   0  0  0  0  0  0  0  0  0  0  0  0
   46.4860   31.8610   42.2010 H   0  0  0  0  0  0  0  0  0  0  0  0
   46.6540   30.3500   43.2070 H   0  0  0  0  0  0  0  0  0  0  0  0
   48.5090   31.4100   44.3170 H   0  0  0  0  0  0  0  0  0  0  0  0
   45.1160   34.0150   43.1410 C   0  0  0  0  0  0  0  0  0  0  0  0
   45.5750   33.4710   44.3630 C   0  0  0  0  0  0  0  0  0  0  0  0
   45.3450   34.1870   45.5190 C   0  0  0  0  0  0  0  0  0  0  0  0
   44.6970   35.3730   45.4390 N   0  0  0  0  0  0  0  0  0  0  0  0
   44.2610   35.8890   44.2590 C   0  0  0  0  0  0  0  0  0  0  0  0
   44.4820   35.1810   43.0730 N   0  0  0  0  0  0  0  0  0  0  0  0
   45.2940   33.4600   42.2550 H   0  0  0  0  0  0  0  0  0  0  0  0
   45.6690   33.8240   46.4800 H   0  0  0  0  0  0  0  0  0  0  0  0
   43.7460   36.8370   44.2130 H   0  0  0  0  0  0  0  0  0  0  0  0
   49.3620   34.2220   41.3320 C   0  0  2  0  0  0  0  0  0  0  0  0
   48.6560   35.6180   41.3490 C   0  0  0  0  0  0  0  0  0  0  0  0
   48.1240   34.4460   40.5920 C   0  0  1  0  0  0  0  0  0  0  0  0
   50.3470   34.2780   40.8140 H   0  0  0  0  0  0  0  0  0  0  0  0
   49.2610   36.3910   40.8970 H   0  0  0  0  0  0  0  0  0  0  0  0
   48.2600   35.9270   42.3360 H   0  0  0  0  0  0  0  0  0  0  0  0
   47.1780   34.1400   41.0730 H   0  0  0  0  0  0  0  0  0  0  0  0
   48.0390   34.3910   39.1220 C   0  0  0  0  0  0  0  0  0  0  0  0
   48.1480   33.1250   38.3870 C   0  0  2  0  0  0  0  0  0  0  0  0
   49.2450   33.0000   37.4150 C   0  0  0  0  0  0  0  0  0  0  0  0
   48.8770   32.2640   36.2700 N   0  0  2  0  0  0  0  0  0  0  0  0
   48.9420   31.5410   35.0470 C   0  0  2  0  0  0  0  0  0  0  0  0
   49.6590   30.6790   34.4710 O   0  0  0  0  0  0  0  0  0  0  0  0
   47.6810   32.3040   34.6950 C   0  0  0  0  0  0  0  0  0  0  0  0
   47.0280   31.7860   33.9870 H   0  0  0  0  0  0  0  0  0  0  0  0
   47.4350   31.9940   36.1250 C   0  0  2  0  0  0  0  0  0  0  0  0
   46.7330   33.2600   37.1890 S   0  0  0  0  0  0  0  0  0  0  0  0
   47.8360   31.8630   39.1460 C   0  0  0  0  0  0  0  0  0  0  0  0
   48.6890   31.3790   39.6290 H   0  0  0  0  0  0  0  0  0  0  0  0
  1  4  1  0  0  0  0
  1  7  1  0  0  0  0
  2  3  2  0  0  0  0
  2  1  1  0  0  0  0
  5  8  1  1  0  0  0
  6  7  1  0  0  0  0
  6  5  1  0  0  0  0
  7 11  1  1  0  0  0
  7  5  1  0  0  0  0
  9  6  1  0  0  0  0
 10  6  1  0  0  0  0
 12 13  1  0  0  0  0
 13  5  1  0  0  0  0
 13 14  2  0  0  0  0
 14 19  1  0  0  0  0
 15 14  1  0  0  0  0
 16 15  2  0  0  0  0
 17 12  2  0  0  0  0
 17 16  1  0  0  0  0
 18 12  1  0  0  0  0
 20 16  1  0  0  0  0
 21 24  1  6  0  0  0
 21 22  1  0  0  0  0
 21  2  1  0  0  0  0
 22 26  1  0  0  0  0
 23 27  1  1  0  0  0
 23 21  1  0  0  0  0
 23 22  1  0  0  0  0
 25 22  1  0  0  0  0
 28 23  1  0  0  0  0
 29 28  1  1  0  0  0
 29 38  1  0  0  0  0
 30 29  1  0  0  0  0
 31 30  1  6  0  0  0
 32 33  1  6  0  0  0
 32 36  1  0  0  0  0
 32 31  1  0  0  0  0
 34 32  1  0  0  0  0
 35 34  1  0  0  0  0
 36 34  1  6  0  0  0
 36 31  1  0  0  0  0
 36 37  1  0  0  0  0
 37 29  1  0  0  0  0
 38 39  1  0  0  0  0
M  END
>  <minimizedAffinity>
-5.30876446

>  <minimizedRMSD>
1.25134587

$$$$
