
 OpenBabel03242523553D

 48 52  0  0  1  0  0  0  0  0999 V2000
   42.8130   34.3430   38.9700 C   0  0  1  0  0  0  0  0  0  0  0  0
   43.0610   35.1950   40.2090 C   0  0  1  0  0  0  0  0  0  0  0  0
   41.8230   35.6900   40.6590 O   0  0  0  0  0  0  0  0  0  0  0  0
   40.9580   36.0030   39.6100 C   0  0  0  0  0  0  0  0  0  0  0  0
   40.4690   34.7590   38.8920 C   0  0  2  0  0  0  0  0  0  0  0  0
   41.5180   33.6320   39.2000 C   0  0  1  0  0  0  0  0  0  0  0  0
   43.5980   33.5640   38.8610 H   0  0  0  0  0  0  0  0  0  0  0  0
   43.7800   35.9990   40.0460 H   0  0  0  0  0  0  0  0  0  0  0  0
   41.3740   36.7530   38.9090 H   0  0  0  0  0  0  0  0  0  0  0  0
   40.0860   36.4760   40.0800 H   0  0  0  0  0  0  0  0  0  0  0  0
   39.4690   34.4280   39.2180 H   0  0  0  0  0  0  0  0  0  0  0  0
   41.2660   33.5430   40.3050 H   0  0  0  0  0  0  0  0  0  0  0  0
   42.7410   35.1440   37.8230 O   0  0  0  0  0  0  0  0  0  0  0  0
   43.3900   34.9030   37.1320 H   0  0  0  0  0  0  0  0  0  0  0  0
   40.5420   34.9600   37.5200 O   0  0  0  0  0  0  0  0  0  0  0  0
   40.5810   35.8970   37.2660 H   0  0  0  0  0  0  0  0  0  0  0  0
   43.4430   34.2810   41.2100 O   0  0  0  0  0  0  0  0  0  0  0  0
   44.5910   34.3400   41.8930 C   0  0  0  0  0  0  0  0  0  0  0  0
   45.8220   34.4830   41.2350 C   0  0  0  0  0  0  0  0  0  0  0  0
   46.9780   34.5400   41.9960 C   0  0  0  0  0  0  0  0  0  0  0  0
   46.8880   34.4530   43.3730 N   0  0  0  0  0  0  0  0  0  0  0  0
   45.6830   34.3140   43.9750 C   0  0  0  0  0  0  0  0  0  0  0  0
   44.5430   34.2580   43.2390 N   0  0  0  0  0  0  0  0  0  0  0  0
   45.8960   34.5510   40.1680 H   0  0  0  0  0  0  0  0  0  0  0  0
   45.6130   34.2470   45.0510 H   0  0  0  0  0  0  0  0  0  0  0  0
   48.3270   34.6720   41.3680 C   0  0  0  0  0  0  0  0  0  0  0  0
   49.0370   36.0150   41.5430 C   0  0  0  0  0  0  0  0  0  0  0  0
   49.5160   34.6820   42.1560 C   0  0  0  0  0  0  0  0  0  0  0  0
   48.3380   34.2630   40.3250 H   0  0  0  0  0  0  0  0  0  0  0  0
   48.5440   36.7440   42.2010 H   0  0  0  0  0  0  0  0  0  0  0  0
   49.6370   36.4100   40.7030 H   0  0  0  0  0  0  0  0  0  0  0  0
   49.4980   34.6840   43.2640 H   0  0  0  0  0  0  0  0  0  0  0  0
   50.4900   34.3260   41.7620 H   0  0  0  0  0  0  0  0  0  0  0  0
   41.2440   32.5920   38.3880 O   0  0  0  0  0  0  0  0  0  0  0  0
   41.6390   31.3030   38.5100 C   0  0  0  0  0  0  0  0  0  0  0  0
   41.9650   30.5840   37.4660 O   0  0  0  0  0  0  0  0  0  0  0  0
   38.6370   31.0470   40.7800 C   0  0  0  0  0  0  0  0  0  0  0  0
   39.7090   30.7340   41.7800 C   0  0  0  0  0  0  0  0  0  0  0  0
   40.9070   30.4170   41.0770 N   0  0  0  0  0  0  0  0  0  0  0  0
   42.2890   30.4320   40.7530 C   0  0  0  0  0  0  0  0  0  0  0  0
   43.3840   30.6300   41.3550 O   0  0  0  0  0  0  0  0  0  0  0  0
   41.9400   30.1070   39.3490 C   0  0  1  0  0  0  0  0  0  0  0  0
   40.7060   29.5200   39.9880 C   0  0  2  0  0  0  0  0  0  0  0  0
   39.1490   30.1710   39.2750 S   0  0  0  0  0  0  0  0  0  0  0  0
   38.3570   32.4930   40.5690 C   0  0  0  0  0  0  0  0  0  0  0  0
   39.0680   33.1640   41.0930 H   0  0  0  0  0  0  0  0  0  0  0  0
   37.3880   30.3060   41.2760 C   0  0  0  0  0  0  0  0  0  0  0  0
   36.7310   30.0090   40.4190 H   0  0  0  0  0  0  0  0  0  0  0  0
  1  7  1  6  0  0  0
  1  6  1  0  0  0  0
  1  2  1  0  0  0  0
  2  8  1  6  0  0  0
  2  3  1  0  0  0  0
  2 17  1  0  0  0  0
  4 10  1  0  0  0  0
  4  3  1  0  0  0  0
  5  6  1  0  0  0  0
  5 11  1  1  0  0  0
  5  4  1  0  0  0  0
  6 12  1  1  0  0  0
  9  4  1  0  0  0  0
 13  1  1  0  0  0  0
 14 13  1  0  0  0  0
 15  5  1  0  0  0  0
 16 15  1  0  0  0  0
 17 18  1  0  0  0  0
 18 23  1  0  0  0  0
 19 18  2  0  0  0  0
 19 20  1  0  0  0  0
 20 21  2  0  0  0  0
 21 22  1  0  0  0  0
 22 25  1  0  0  0  0
 23 22  2  0  0  0  0
 24 19  1  0  0  0  0
 26 27  1  0  0  0  0
 26 20  1  0  0  0  0
 26 28  1  0  0  0  0
 27 28  1  0  0  0  0
 27 30  1  0  0  0  0
 28 32  1  0  0  0  0
 29 26  1  0  0  0  0
 31 27  1  0  0  0  0
 33 28  1  0  0  0  0
 34 35  1  0  0  0  0
 34  6  1  0  0  0  0
 36 35  2  0  0  0  0
 37 47  1  0  0  0  0
 37 38  1  0  0  0  0
 39 38  1  0  0  0  0
 40 39  1  0  0  0  0
 40 41  2  0  0  0  0
 42 35  1  6  0  0  0
 42 43  1  0  0  0  0
 42 40  1  0  0  0  0
 43 44  1  6  0  0  0
 43 39  1  0  0  0  0
 44 37  1  0  0  0  0
 45 37  1  0  0  0  0
 45 46  1  0  0  0  0
 48 47  1  0  0  0  0
M  END
>  <minimizedAffinity>
-6.60177183

>  <minimizedRMSD>
0.868385971

$$$$
