
     RDKit          3D

 54 57  0  0  0  0  0  0  0  0999 V2000
   46.4522   32.2207   47.6831 C   0  0  0  0  0  0  0  0  0  0  0  0
   46.4972   32.7886   45.4242 C   0  0  0  0  0  0  0  0  0  0  0  0
   45.8465   31.8262   44.9275 O   0  0  0  0  0  0  0  0  0  0  0  0
   46.8777   33.1624   46.7092 N   0  0  0  0  0  0  0  0  0  0  0  0
   44.8047   35.1497   44.5022 Cl  0  0  0  0  0  0  0  0  0  0  0  0
   46.1975   34.6028   43.6087 C   0  0  0  0  0  0  0  0  0  0  0  0
   46.8130   33.5304   44.1919 C   0  0  0  0  0  0  0  0  0  0  0  0
   47.9493   32.9606   43.5970 C   0  0  0  0  0  0  0  0  0  0  0  0
   48.4712   33.4614   42.4208 C   0  0  0  0  0  0  0  0  0  0  0  0
   47.8352   34.5480   41.8447 C   0  0  0  0  0  0  0  0  0  0  0  0
   48.4103   35.2719   40.3603 Cl  0  0  0  0  0  0  0  0  0  0  0  0
   46.7233   35.0986   42.4350 C   0  0  0  0  0  0  0  0  0  0  0  0
   48.5627   31.4348   48.6128 C   0  0  0  0  0  0  0  0  0  0  0  0
   47.4293   32.0866   48.8054 C   0  0  0  0  0  0  0  0  0  0  0  0
   51.2924   32.1364   50.9266 C   0  0  0  0  0  0  0  0  0  0  0  0
   51.3805   30.9720   51.6892 C   0  0  0  0  0  0  0  0  0  0  0  0
   50.4873   29.9223   51.3809 C   0  0  0  0  0  0  0  0  0  0  0  0
   49.6069   30.1185   50.3769 N   0  0  0  0  0  0  0  0  0  0  0  0
   49.5538   31.2633   49.6679 C   0  0  0  0  0  0  0  0  0  0  0  0
   50.4058   32.2914   49.9390 N   0  0  0  0  0  0  0  0  0  0  0  0
   50.4716   28.7205   52.0347 O   0  0  0  0  0  0  0  0  0  0  0  0
   51.4848   27.7680   51.6281 C   0  0  0  0  0  0  0  0  0  0  0  0
   51.9392   28.0834   50.3432 F   0  0  0  0  0  0  0  0  0  0  0  0
   52.5741   27.8969   52.4887 F   0  0  0  0  0  0  0  0  0  0  0  0
   51.0326   26.4544   51.6846 F   0  0  0  0  0  0  0  0  0  0  0  0
   45.4847   32.5502   48.1114 H   0  0  0  0  0  0  0  0  0  0  0  0
   46.2934   31.1913   47.3390 H   0  0  0  0  0  0  0  0  0  0  0  0
   47.3975   34.0288   46.8517 H   0  0  0  0  0  0  0  0  0  0  0  0
   48.5171   32.1127   43.9542 H   0  0  0  0  0  0  0  0  0  0  0  0
   49.3344   33.0749   41.9074 H   0  0  0  0  0  0  0  0  0  0  0  0
   46.1737   35.9568   42.0440 H   0  0  0  0  0  0  0  0  0  0  0  0
   48.7895   30.9954   47.6411 H   0  0  0  0  0  0  0  0  0  0  0  0
   47.2003   32.5263   49.7739 H   0  0  0  0  0  0  0  0  0  0  0  0
   51.9027   32.9775   51.0536 H   0  0  0  0  0  0  0  0  0  0  0  0
   52.2207   30.8582   52.8680 C   0  0  0  0  0  0  0  0  0  0  0  0
   53.7013   30.8363   52.7958 C   0  0  1  0  0  0  0  0  0  0  0  0
   54.1559   29.5815   52.0420 C   0  0  0  0  0  0  0  0  0  0  0  0
   55.1422   29.2189   52.5205 H   0  0  0  0  0  0  0  0  0  0  0  0
   54.4174   32.0425   52.3314 C   0  0  0  0  0  0  0  0  0  0  0  0
   54.9870   32.7666   53.4351 N   0  0  0  0  0  0  0  0  0  0  0  0
   55.3823   33.8250   54.3037 C   0  0  0  0  0  0  0  0  0  0  0  0
   55.4985   35.0805   54.2055 O   0  0  0  0  0  0  0  0  0  0  0  0
   55.6418   32.9286   55.4614 C   0  0  2  0  0  0  0  0  0  0  0  0
   54.7642   32.8943   56.1194 H   0  0  0  0  0  0  0  0  0  0  0  0
   55.6593   31.8716   54.3958 C   0  0  1  0  0  0  0  0  0  0  0  0
   54.3142   30.6252   54.5175 S   0  0  0  0  0  0  0  0  0  0  0  0
   51.8705   30.0323   53.5035 H   0  0  0  0  0  0  0  0  0  0  0  0
   52.0698   31.8448   53.4734 H   0  0  0  0  0  0  0  0  0  0  0  0
   54.4434   29.7611   51.0029 H   0  0  0  0  0  0  0  0  0  0  0  0
   53.4952   28.7155   52.2396 H   0  0  0  0  0  0  0  0  0  0  0  0
   53.9005   32.7354   51.6765 H   0  0  0  0  0  0  0  0  0  0  0  0
   55.2980   31.6659   51.7064 H   0  0  0  0  0  0  0  0  0  0  0  0
   56.6258   32.9987   55.9382 H   0  0  0  0  0  0  0  0  0  0  0  0
   56.6132   31.4631   54.0832 H   0  0  0  0  0  0  0  0  0  0  0  0
  1 14  1  0
  2  4  1  0
  3  2  2  0
  4  1  1  0
  6  7  2  0
  6  5  1  0
  7  2  1  0
  8  7  1  0
  9  8  2  0
 10  9  1  0
 10 12  2  0
 11 10  1  0
 12  6  1  0
 13 14  2  0
 13 19  1  0
 15 16  2  0
 17 16  1  0
 17 21  1  0
 18 17  2  0
 19 20  2  0
 19 18  1  0
 20 15  1  0
 22 25  1  0
 22 21  1  0
 22 24  1  0
 23 22  1  0
  1 26  1  0
  1 27  1  0
  4 28  1  0
  8 29  1  0
  9 30  1  0
 12 31  1  0
 13 32  1  0
 14 33  1  0
 15 34  1  0
 36 35  1  1
 36 37  1  0
 37 38  1  0
 36 39  1  0
 39 40  1  0
 40 41  1  0
 41 42  2  0
 41 43  1  0
 43 44  1  1
 43 45  1  0
 45 46  1  0
 46 36  1  0
 45 40  1  0
 35 47  1  0
 35 48  1  0
 37 49  1  0
 37 50  1  0
 39 51  1  0
 39 52  1  0
 43 53  1  0
 45 54  1  6
 16 35  1  0
M  ISO  8  26   8  27   8  29  14  30  14  31  14  34  14  38   8  44  15
M  END
>  <DihAtoms>  (1) 
14,15,34,35

>  <DihDeg>  (1) 
50.38444431514771

$$$$
