
 OpenBabel03252501413D

 48 53  0  0  1  0  0  0  0  0999 V2000
   44.5330   33.5300   42.2320 C   0  0  0  0  0  0  0  0  0  0  0  0
   44.1560   32.5030   42.9130 O   0  0  0  0  0  0  0  0  0  0  0  0
   45.4640   34.3410   42.9490 N   0  0  0  0  0  0  0  0  0  0  0  0
   45.9030   35.1740   42.5620 H   0  0  0  0  0  0  0  0  0  0  0  0
   45.6650   33.7890   44.2680 C   0  0  0  0  0  0  0  0  0  0  0  0
   45.1680   34.2810   45.4340 C   0  0  0  0  0  0  0  0  0  0  0  0
   45.4780   33.6040   46.5850 C   0  0  0  0  0  0  0  0  0  0  0  0
   46.2560   32.4940   46.4740 N   0  0  0  0  0  0  0  0  0  0  0  0
   46.7320   32.0330   45.3100 C   0  0  0  0  0  0  0  0  0  0  0  0
   46.4360   32.6900   44.1610 N   0  0  0  0  0  0  0  0  0  0  0  0
   45.0940   33.9760   47.5220 H   0  0  0  0  0  0  0  0  0  0  0  0
   44.3800   35.4410   45.3600 N   0  0  0  0  0  0  0  0  0  0  0  0
   43.5430   35.3140   45.9680 H   0  0  0  0  0  0  0  0  0  0  0  0
   44.5630   36.2980   44.8060 H   0  0  0  0  0  0  0  0  0  0  0  0
   47.5690   30.8070   45.3630 C   0  0  0  0  0  2  0  0  0  0  0  0
   46.7070   29.5940   45.1270 C   0  0  1  0  0  0  0  0  0  0  0  0
   45.3780   29.6570   45.7480 C   0  0  0  0  0  2  0  0  0  0  0  0
   44.3740   29.0730   44.9720 N   0  0  2  0  0  0  0  0  0  0  0  0
   43.0890   28.6630   44.5870 C   0  0  1  0  0  0  0  0  0  0  0  0
   42.0080   28.2310   45.0610 O   0  0  0  0  0  1  0  0  0  0  0  0
   43.5270   28.9740   43.1760 C   0  0  0  0  0  3  0  0  0  0  0  0
   43.6000   30.0560   42.9780 H   0  0  0  0  0  0  0  0  0  0  0  0
   44.8060   28.4530   43.7360 C   0  0  1  0  0  0  0  0  0  0  0  0
   46.3090   29.3950   43.3660 S   0  0  0  0  0  0  0  0  0  0  0  0
   47.4140   28.3420   45.5570 C   0  0  0  0  0  2  0  0  0  0  0  0
   47.2960   28.1180   46.6390 H   0  0  0  0  0  0  0  0  0  0  0  0
   44.1300   33.8810   40.9430 O   0  0  0  0  0  0  0  0  0  0  0  0
   42.7150   31.5130   39.8360 Cl  0  0  0  0  0  0  0  0  0  0  0  0
   42.0180   33.0790   40.2130 C   0  0  0  0  0  0  0  0  0  0  0  0
   42.7630   34.1350   40.7320 C   0  0  0  0  0  0  0  0  0  0  0  0
   42.1720   35.3310   41.0060 C   0  0  0  0  0  0  0  0  0  0  0  0
   40.8310   35.5780   40.7980 C   0  0  0  0  0  0  0  0  0  0  0  0
   40.0500   34.5250   40.2730 C   0  0  0  0  0  0  0  0  0  0  0  0
   38.3350   34.7450   39.9740 Cl  0  0  0  0  0  0  0  0  0  0  0  0
   40.6850   33.3270   40.0070 C   0  0  0  0  0  0  0  0  0  0  0  0
   42.7820   36.1300   41.4080 H   0  0  0  0  0  0  0  0  0  0  0  0
   40.3810   36.5330   41.0210 H   0  0  0  0  0  0  0  0  0  0  0  0
   39.4320   31.5970   41.6960 F   0  0  0  0  0  0  0  0  0  0  0  0
   39.2610   31.3710   40.3500 C   0  0  0  0  0  0  0  0  0  0  0  0
   39.8850   32.2330   39.4650 C   0  0  0  0  0  0  0  0  0  0  0  0
   39.6870   31.9700   38.1060 C   0  0  0  0  0  0  0  0  0  0  0  0
   38.9020   30.8940   37.7300 C   0  0  0  0  0  0  0  0  0  0  0  0
   38.2970   30.0580   38.6820 C   0  0  0  0  0  0  0  0  0  0  0  0
   38.4730   30.2900   40.0400 C   0  0  0  0  0  0  0  0  0  0  0  0
   40.1710   32.6370   37.4230 H   0  0  0  0  0  0  0  0  0  0  0  0
   38.7770   30.7280   36.6640 H   0  0  0  0  0  0  0  0  0  0  0  0
   37.6850   29.2200   38.3580 H   0  0  0  0  0  0  0  0  0  0  0  0
   38.0250   29.6720   40.7780 H   0  0  0  0  0  0  0  0  0  0  0  0
  1  2  2  0  0  0  0
  1  3  1  0  0  0  0
  3  5  1  0  0  0  0
  4  3  1  0  0  0  0
  5  6  1  0  0  0  0
  6  7  2  0  0  0  0
  7 11  1  0  0  0  0
  8  7  1  0  0  0  0
  9 15  1  0  0  0  0
  9  8  2  0  0  0  0
 10  5  2  0  0  0  0
 10  9  1  0  0  0  0
 12  6  1  0  0  0  0
 12 13  1  0  0  0  0
 14 12  1  0  0  0  0
 16 15  1  1  0  0  0
 16 25  1  0  0  0  0
 16 17  1  0  0  0  0
 18 17  1  1  0  0  0
 19 18  1  0  0  0  0
 19 20  1  1  0  0  0
 21 19  1  0  0  0  0
 22 21  1  0  0  0  0
 23 21  1  6  0  0  0
 23 19  1  0  0  0  0
 23 18  1  0  0  0  0
 24 23  1  0  0  0  0
 24 16  1  0  0  0  0
 25 26  1  0  0  0  0
 27  1  1  0  0  0  0
 28 29  1  0  0  0  0
 29 30  1  0  0  0  0
 30 27  1  0  0  0  0
 30 31  2  0  0  0  0
 31 36  1  0  0  0  0
 32 31  1  0  0  0  0
 32 37  1  0  0  0  0
 33 32  2  0  0  0  0
 34 33  1  0  0  0  0
 35 29  2  0  0  0  0
 35 33  1  0  0  0  0
 39 38  1  0  0  0  0
 40 35  1  0  0  0  0
 40 39  2  0  0  0  0
 41 40  1  0  0  0  0
 42 41  2  0  0  0  0
 42 43  1  0  0  0  0
 43 44  2  0  0  0  0
 44 39  1  0  0  0  0
 44 48  1  0  0  0  0
 45 41  1  0  0  0  0
 46 42  1  0  0  0  0
 47 43  1  0  0  0  0
M  END
>  <minimizedAffinity>
-6.25970316

>  <minimizedRMSD>
1.81236136

$$$$
