REMARK  Name = 
REMARK  6 active torsions:
REMARK  status: ('A' for Active; 'I' for Inactive)
REMARK    1  A    between atoms: C_1  and  O_12
REMARK    2  A    between atoms: C_2  and  C_7
REMARK    3  A    between atoms: O_12  and  C_13
REMARK    4  A    between atoms: C_13  and  C_29
REMARK    5  A    between atoms: C_20  and  C_22
REMARK    6  A    between atoms: C_22  and  C_23
REMARK                            x       y       z     vdW  Elec       q    Type
REMARK                         _______ _______ _______ _____ _____    ______ ____
ROOT
ATOM      1  C   UNL     1      46.079  34.156  41.006  0.00  0.00    +0.000 A 
ATOM      2  C   UNL     1      46.621  34.830  42.099  0.00  0.00    +0.000 A 
ATOM      3  C   UNL     1      47.941  35.276  41.985  0.00  0.00    +0.000 A 
ATOM      4  N   UNL     1      48.609  35.026  40.824  0.00  0.00    +0.000 NA
ATOM      5  C   UNL     1      48.051  34.374  39.797  0.00  0.00    +0.000 A 
ATOM      6  N   UNL     1      46.777  33.938  39.892  0.00  0.00    +0.000 NA
ATOM      7  H   UNL     1      48.357  35.791  42.818  0.00  0.00    +0.000 HD
ATOM      8  H   UNL     1      48.565  34.167  38.867  0.00  0.00    +0.000 HD
ENDROOT
BRANCH   2   9
ATOM      9  C   UNL     1      45.808  35.042  43.298  0.00  0.00    +0.000 A 
ATOM     10  C   UNL     1      45.047  36.185  43.497  0.00  0.00    +0.000 A 
ATOM     11  C   UNL     1      44.460  35.966  44.726  0.00  0.00    +0.000 A 
ATOM     12  N   UNL     1      44.839  34.771  45.240  0.00  0.00    +0.000 N 
ATOM     13  N   UNL     1      45.652  34.236  44.356  0.00  0.00    +0.000 NA
ATOM     14  H   UNL     1      44.915  37.068  42.861  0.00  0.00    +0.000 HD
ATOM     15  H   UNL     1      43.779  36.648  45.238  0.00  0.00    +0.000 HD
ATOM     16  H   UNL     1      44.515  34.401  46.163  0.00  0.00    +0.000 HD
ENDBRANCH   2   9
BRANCH   1  17
ATOM     17  O   UNL     1      44.781  33.710  41.100  0.00  0.00    +0.000 OA
BRANCH  17  18
ATOM     18  C   UNL     1      43.694  34.192  40.427  0.00  0.00    +0.000 C 
ATOM     19  O   UNL     1      43.251  35.386  40.415  0.00  0.00    +0.000 OA
BRANCH  18  25
ATOM     20  C   UNL     1      41.481  30.744  37.348  0.00  0.00    +0.000 C 
ATOM     21  C   UNL     1      41.157  30.572  38.818  0.00  0.00    +0.000 C 
ATOM     22  N   UNL     1      41.530  31.809  39.479  0.00  0.00    +0.000 N 
ATOM     23  C   UNL     1      41.501  33.029  40.251  0.00  0.00    +0.000 C 
ATOM     24  O   UNL     1      40.684  33.347  41.182  0.00  0.00    +0.000 OA
ATOM     25  C   UNL     1      42.676  33.552  39.512  0.00  0.00    +0.000 C 
ATOM     26  C   UNL     1      42.931  32.104  39.241  0.00  0.00    +0.000 C 
ATOM     27  S   UNL     1      43.054  31.682  37.469  0.00  0.00    +0.000 S 
BRANCH  20  28
ATOM     28  C   UNL     1      41.719  29.402  36.695  0.00  0.00    +0.000 C 
ATOM     29  H   UNL     1      41.075  28.619  37.147  0.00  0.00    +0.000 HD
ENDBRANCH  20  28
BRANCH  20  30
ATOM     30  C   UNL     1      40.429  31.494  36.590  0.00  0.00    +0.000 C 
ATOM     31  H   UNL     1      40.491  32.597  36.683  0.00  0.00    +0.000 HD
ENDBRANCH  20  30
ENDBRANCH  18  25
ENDBRANCH  17  18
ENDBRANCH   1  17
TORSDOF 6
