
     RDKit          3D

 31 33  0  0  0  0  0  0  0  0999 V2000
   46.2189   34.8340   43.1857 C   0  0  0  0  0  0  0  0  0  0  0  0
   45.3183   35.9105   43.2799 C   0  0  0  0  0  0  0  0  0  0  0  0
   44.5589   36.0097   44.4570 C   0  0  0  0  0  0  0  0  0  0  0  0
   44.7443   35.0655   45.4182 N   0  0  0  0  0  0  0  0  0  0  0  0
   45.6178   34.0530   45.2838 C   0  0  0  0  0  0  0  0  0  0  0  0
   46.3515   33.9427   44.1664 N   0  0  0  0  0  0  0  0  0  0  0  0
   46.9603   34.7922   41.9621 C   0  0  0  0  0  0  0  0  0  0  0  0
   48.0570   35.3953   41.7410 O   0  0  0  0  0  0  0  0  0  0  0  0
   45.1441   36.6682   42.5525 H   0  0  0  0  0  0  0  0  0  0  0  0
   43.8476   36.7865   44.6311 H   0  0  0  0  0  0  0  0  0  0  0  0
   45.6917   33.3514   46.1084 H   0  0  0  0  0  0  0  0  0  0  0  0
   45.5667   29.8857   43.1174 C   0  0  0  0  0  0  0  0  0  0  0  0
   45.2245   29.8806   42.0661 H   0  0  0  0  0  0  0  0  0  0  0  0
   46.6158   30.9906   43.3041 C   0  0  0  0  0  0  0  0  0  0  0  0
   47.3588   30.7976   44.6019 C   0  0  0  0  0  0  0  0  0  0  0  0
   46.8473   29.9937   45.1679 H   0  0  0  0  0  0  0  0  0  0  0  0
   47.4581   31.0457   42.1099 C   0  0  0  0  0  0  0  0  0  0  0  0
   47.1337   32.1068   41.2643 N   0  0  0  0  0  0  0  0  0  0  0  0
   47.3039   33.0665   40.2722 C   0  0  0  0  0  0  0  0  0  0  0  0
   47.9508   33.2994   39.2177 O   0  0  0  0  0  0  0  0  0  0  0  0
   46.3006   33.9400   40.9256 C   0  0  1  0  0  0  0  0  0  0  0  0
   45.8016   32.6217   41.4309 C   0  0  2  0  0  0  0  0  0  0  0  0
   45.6723   32.5403   43.2615 S   0  0  0  0  0  0  0  0  0  0  0  0
   44.7370   30.1382   43.8087 H   0  0  0  0  0  0  0  0  0  0  0  0
   45.9705   28.8991   43.4187 H   0  0  0  0  0  0  0  0  0  0  0  0
   48.4137   30.5007   44.3600 H   0  0  0  0  0  0  0  0  0  0  0  0
   47.3181   31.6992   45.2483 H   0  0  0  0  0  0  0  0  0  0  0  0
   48.5299   31.0397   42.4701 H   0  0  0  0  0  0  0  0  0  0  0  0
   47.3919   30.0745   41.5369 H   0  0  0  0  0  0  0  0  0  0  0  0
   45.6267   34.5025   40.2451 H   0  0  0  0  0  0  0  0  0  0  0  0
   44.9876   32.1635   40.8813 H   0  0  0  0  0  0  0  0  0  0  0  0
  1  2  2  0
  1  6  1  0
  2  3  1  0
  3  4  2  0
  5  4  1  0
  6  5  2  0
  7  1  1  0
  8  7  2  0
  2  9  1  0
  3 10  1  0
  5 11  1  0
 12 13  1  0
 12 14  1  0
 14 15  1  0
 15 16  1  0
 14 17  1  0
 17 18  1  0
 18 19  1  0
 19 20  2  0
 19 21  1  0
 21 22  1  0
 22 23  1  0
 23 14  1  0
 22 18  1  0
 12 24  1  0
 12 25  1  0
 15 26  1  0
 15 27  1  0
 17 28  1  0
 17 29  1  0
 21 30  1  6
 22 31  1  6
  7 21  1  0
M  ISO  5   9  14  10  14  11  14  13   8  16   8
M  END
>  <DihAtoms>  (1) 
0,6,20,18

>  <DihDeg>  (1) 
59.99856609194603

$$$$
