
 OpenBabel03252508513D

 31 34  0  0  1  0  0  0  0  0999 V2000
   46.0240   34.1500   41.0100 C   0  0  0  0  0  0  0  0  0  0  0  0
   46.5780   34.8150   42.1020 C   0  0  0  0  0  0  0  0  0  0  0  0
   47.9040   35.2420   41.9850 C   0  0  0  0  0  0  0  0  0  0  0  0
   48.5660   34.9820   40.8220 N   0  0  0  0  0  0  0  0  0  0  0  0
   47.9950   34.3390   39.7960 C   0  0  0  0  0  0  0  0  0  0  0  0
   46.7150   33.9210   39.8950 N   0  0  0  0  0  0  0  0  0  0  0  0
   48.3300   35.7500   42.8170 H   0  0  0  0  0  0  0  0  0  0  0  0
   48.5040   34.1240   38.8650 H   0  0  0  0  0  0  0  0  0  0  0  0
   45.7720   35.0390   43.3030 C   0  0  0  0  0  0  0  0  0  0  0  0
   45.0290   36.1930   43.5050 C   0  0  0  0  0  0  0  0  0  0  0  0
   44.4420   35.9830   44.7350 C   0  0  0  0  0  0  0  0  0  0  0  0
   44.8030   34.7820   45.2480 N   0  0  0  0  0  0  0  0  0  0  0  0
   45.6060   34.2350   44.3610 N   0  0  0  0  0  0  0  0  0  0  0  0
   44.9090   37.0790   42.8700 H   0  0  0  0  0  0  0  0  0  0  0  0
   43.7720   36.6750   45.2490 H   0  0  0  0  0  0  0  0  0  0  0  0
   44.4760   34.4160   46.1710 H   0  0  0  0  0  0  0  0  0  0  0  0
   44.7190   33.7230   41.1080 O   0  0  0  0  0  0  0  0  0  0  0  0
   43.6360   34.2300   40.4480 C   0  0  0  0  0  0  0  0  0  0  0  0
   43.2490   35.4430   40.4010 O   0  0  0  0  0  0  0  0  0  0  0  0
   39.3550   31.7270   39.1560 C   0  0  0  0  0  0  0  0  0  0  0  0
   39.1750   33.2180   39.3510 C   0  0  0  0  0  2  0  0  0  0  0  0
   40.5010   33.8090   39.3300 N   0  0  0  0  0  0  0  0  0  0  0  0
   41.6490   34.6170   39.0000 C   0  0  0  0  0  0  0  0  0  0  0  0
   41.6660   35.7530   38.4150 O   0  0  0  0  0  0  0  0  0  0  0  0
   42.5600   33.6050   39.5900 C   0  0  2  0  0  3  0  0  0  0  0  0
   41.3380   33.2020   40.3490 C   0  0  2  0  0  3  0  0  0  0  0  0
   40.8730   31.4480   40.1510 S   0  0  0  0  0  0  0  0  0  0  0  0
   38.1910   30.9680   39.7520 C   0  0  0  0  0  2  0  0  0  0  0  0
   37.2470   31.5430   39.6530 H   0  0  0  0  0  0  0  0  0  0  0  0
   39.5330   31.3300   37.7230 C   0  0  0  0  0  2  0  0  0  0  0  0
   40.5640   31.4570   37.3340 H   0  0  0  0  0  0  0  0  0  0  0  0
  1 17  1  0  0  0  0
  1  2  1  0  0  0  0
  2  9  1  0  0  0  0
  3  2  2  0  0  0  0
  3  7  1  0  0  0  0
  4  3  1  0  0  0  0
  5  6  1  0  0  0  0
  5  4  2  0  0  0  0
  6  1  2  0  0  0  0
  8  5  1  0  0  0  0
  9 10  1  0  0  0  0
  9 13  2  0  0  0  0
 10 11  2  0  0  0  0
 11 12  1  0  0  0  0
 11 15  1  0  0  0  0
 12 16  1  0  0  0  0
 13 12  1  0  0  0  0
 14 10  1  0  0  0  0
 18 17  1  0  0  0  0
 19 18  2  0  0  0  0
 20 21  1  0  0  0  0
 20 28  1  0  0  0  0
 20 27  1  0  0  0  0
 22 21  1  0  0  0  0
 22 26  1  0  0  0  0
 23 22  1  0  0  0  0
 23 25  1  0  0  0  0
 24 23  2  0  0  0  0
 25 26  1  0  0  0  0
 25 18  1  1  0  0  0
 26 27  1  6  0  0  0
 29 28  1  0  0  0  0
 30 20  1  0  0  0  0
 31 30  1  0  0  0  0
M  END
>  <minimizedAffinity>
-6.04435062

>  <minimizedRMSD>
0.263934374

$$$$
