REMARK  Name = 
REMARK  8 active torsions:
REMARK  status: ('A' for Active; 'I' for Inactive)
REMARK    1  A    between atoms: N_1  and  C_8
REMARK    2  A    between atoms: C_3  and  N_12
REMARK    3  A    between atoms: N_12  and  C_14
REMARK    4  A    between atoms: C_13  and  C_23
REMARK    5  A    between atoms: C_18  and  N_21
REMARK    6  A    between atoms: C_19  and  C_48
REMARK    7  A    between atoms: C_39  and  C_41
REMARK    8  A    between atoms: C_41  and  C_42
REMARK                            x       y       z     vdW  Elec       q    Type
REMARK                         _______ _______ _______ _____ _____    ______ ____
ROOT
ATOM      1  C   UNL     1      48.821  32.270  37.042  0.00  0.00    +0.000 A 
ATOM      2  C   UNL     1      48.090  33.024  37.986  0.00  0.00    +0.000 A 
ATOM      3  C   UNL     1      46.787  33.267  37.606  0.00  0.00    +0.000 A 
ATOM      4  C   UNL     1      46.200  32.848  36.446  0.00  0.00    +0.000 A 
ATOM      5  C   UNL     1      46.953  32.112  35.551  0.00  0.00    +0.000 A 
ATOM      6  C   UNL     1      48.254  31.837  35.870  0.00  0.00    +0.000 A 
ATOM      7  H   UNL     1      46.195  33.843  38.305  0.00  0.00    +0.000 HD
ATOM      8  H   UNL     1      45.167  33.067  36.195  0.00  0.00    +0.000 HD
ATOM      9  H   UNL     1      46.517  31.766  34.623  0.00  0.00    +0.000 HD
ENDROOT
BRANCH   6  12
ATOM     10  C   UNL     1      49.497  31.724  33.757  0.00  0.00    +0.000 C 
ATOM     11  O   UNL     1      49.270  32.962  33.566  0.00  0.00    +0.000 OA
ATOM     12  N   UNL     1      49.003  31.075  34.922  0.00  0.00    +0.000 N 
ATOM     13  H   UNL     1      49.152  30.075  35.133  0.00  0.00    +0.000 HD
BRANCH  10  19
ATOM     14  C   UNL     1      51.257  28.535  35.796  0.00  0.00    +0.000 C 
ATOM     15  C   UNL     1      50.914  27.867  34.497  0.00  0.00    +0.000 C 
ATOM     16  N   UNL     1      50.357  28.832  33.597  0.00  0.00    +0.000 N 
ATOM     17  C   UNL     1      49.524  29.546  32.690  0.00  0.00    +0.000 C 
ATOM     18  O   UNL     1      48.504  29.217  31.997  0.00  0.00    +0.000 OA
ATOM     19  C   UNL     1      50.273  30.822  32.839  0.00  0.00    +0.000 C 
ATOM     20  C   UNL     1      51.297  29.955  33.460  0.00  0.00    +0.000 C 
ATOM     21  S   UNL     1      51.577  30.245  35.250  0.00  0.00    +0.000 S 
BRANCH  14  22
ATOM     22  C   UNL     1      50.198  28.457  36.844  0.00  0.00    +0.000 C 
ATOM     23  H   UNL     1      49.190  28.231  36.485  0.00  0.00    +0.000 HD
ENDBRANCH  14  22
BRANCH  14  24
ATOM     24  C   UNL     1      52.537  27.888  36.294  0.00  0.00    +0.000 C 
ATOM     25  H   UNL     1      53.387  28.083  35.612  0.00  0.00    +0.000 HD
ENDBRANCH  14  24
ENDBRANCH  10  19
ENDBRANCH   6  12
BRANCH   2  26
ATOM     26  N   UNL     1      48.612  33.496  39.202  0.00  0.00    +0.000 N 
ATOM     27  H   UNL     1      49.537  33.940  38.996  0.00  0.00    +0.000 HD
BRANCH  26  30
ATOM     28  N   UNL     1      47.517  34.492  42.436  0.00  0.00    +0.000 N 
ATOM     29  C   UNL     1      47.511  34.746  40.996  0.00  0.00    +0.000 C 
ATOM     30  C   UNL     1      48.122  33.463  40.538  0.00  0.00    +0.000 C 
ATOM     31  C   UNL     1      49.307  33.305  41.471  0.00  0.00    +0.000 C 
ATOM     32  C   UNL     1      48.805  33.935  42.749  0.00  0.00    +0.000 C 
ATOM     33  H   UNL     1      48.169  35.591  40.725  0.00  0.00    +0.000 HD
ATOM     34  H   UNL     1      46.474  34.859  40.619  0.00  0.00    +0.000 HD
ATOM     35  H   UNL     1      47.373  32.660  40.693  0.00  0.00    +0.000 HD
ATOM     36  H   UNL     1      49.574  32.240  41.622  0.00  0.00    +0.000 HD
ATOM     37  H   UNL     1      50.133  33.924  41.084  0.00  0.00    +0.000 HD
ATOM     38  H   UNL     1      48.691  33.158  43.552  0.00  0.00    +0.000 HD
ATOM     39  H   UNL     1      49.479  34.711  43.139  0.00  0.00    +0.000 HD
BRANCH  28  42
ATOM     40  C   UNL     1      44.593  35.837  44.333  0.00  0.00    +0.000 A 
ATOM     41  C   UNL     1      45.538  35.699  43.323  0.00  0.00    +0.000 A 
ATOM     42  C   UNL     1      46.522  34.710  43.401  0.00  0.00    +0.000 A 
ATOM     43  N   UNL     1      46.485  33.922  44.500  0.00  0.00    +0.000 NA
ATOM     44  C   UNL     1      45.584  34.039  45.482  0.00  0.00    +0.000 A 
ATOM     45  N   UNL     1      44.630  35.013  45.386  0.00  0.00    +0.000 NA
ATOM     46  H   UNL     1      43.873  36.628  44.185  0.00  0.00    +0.000 HD
ATOM     47  H   UNL     1      45.614  36.302  42.422  0.00  0.00    +0.000 HD
ATOM     48  H   UNL     1      45.587  33.383  46.354  0.00  0.00    +0.000 HD
ENDBRANCH  28  42
ENDBRANCH  26  30
ENDBRANCH   2  26
BRANCH   1  50
ATOM     49  N   UNL     1      51.297  31.736  37.618  0.00  0.00    +0.000 NA
ATOM     50  C   UNL     1      50.197  31.976  37.372  0.00  0.00    +0.000 C 
ENDBRANCH   1  50
TORSDOF 8
