
 OpenBabel03252503053D

 23 25  0  0  1  0  0  0  0  0999 V2000
   47.2560   32.9380   44.0970 C   0  0  0  0  0  0  0  0  0  0  0  0
   46.4750   31.6840   43.8040 C   0  0  2  0  0  0  0  0  0  0  0  0
   47.1400   30.7860   42.8030 C   0  0  0  0  0  0  0  0  0  0  0  0
   46.6780   31.1690   41.4940 N   0  0  0  0  0  0  0  0  0  0  0  0
   46.6430   31.5780   40.1210 C   0  0  0  0  0  0  0  0  0  0  0  0
   47.5340   31.5350   39.2300 O   0  0  0  0  0  0  0  0  0  0  0  0
   45.2110   32.0310   40.2170 C   0  0  0  0  0  0  0  0  0  0  0  0
   45.1100   33.1160   40.3880 H   0  0  0  0  0  0  0  0  0  0  0  0
   45.2250   31.1620   41.4490 C   0  0  2  0  0  0  0  0  0  0  0  0
   44.8860   32.0520   43.0010 S   0  0  0  0  0  0  0  0  0  0  0  0
   46.2050   30.9040   45.0470 C   0  0  0  0  0  0  0  0  0  0  0  0
   46.8830   31.2210   45.8630 H   0  0  0  0  0  0  0  0  0  0  0  0
   45.3200   36.0400   43.1960 C   0  0  0  0  0  0  0  0  0  0  0  0
   46.2300   34.9840   43.0940 C   0  0  0  0  0  0  0  0  0  0  0  0
   46.3090   34.0720   44.1570 C   0  0  0  0  0  0  0  0  0  0  0  0
   45.4960   34.2650   45.2270 N   0  0  0  0  0  0  0  0  0  0  0  0
   44.6270   35.2940   45.2990 C   0  0  0  0  0  0  0  0  0  0  0  0
   44.5520   36.1620   44.2870 N   0  0  0  0  0  0  0  0  0  0  0  0
   45.2240   36.7650   42.4050 H   0  0  0  0  0  0  0  0  0  0  0  0
   43.9990   35.4020   46.1790 H   0  0  0  0  0  0  0  0  0  0  0  0
   47.0750   34.8170   41.9370 C   0  0  0  0  0  0  0  0  0  0  0  0
   48.0770   35.5580   41.8350 O   0  0  0  0  0  0  0  0  0  0  0  0
   46.6710   34.0240   41.3090 H   0  0  0  0  0  0  0  0  0  0  0  0
  1 15  1  0  0  0  0
  2  1  1  1  0  0  0
  2 11  1  0  0  0  0
  3  2  1  0  0  0  0
  4  3  1  0  0  0  0
  5  7  1  0  0  0  0
  5  4  1  0  0  0  0
  6  5  2  0  0  0  0
  7  8  1  0  0  0  0
  9  7  1  6  0  0  0
  9  4  1  0  0  0  0
  9 10  1  0  0  0  0
 10  2  1  0  0  0  0
 11 12  1  0  0  0  0
 13 18  1  0  0  0  0
 14 13  2  0  0  0  0
 14 15  1  0  0  0  0
 15 16  2  0  0  0  0
 16 17  1  0  0  0  0
 17 20  1  0  0  0  0
 18 17  2  0  0  0  0
 19 13  1  0  0  0  0
 21 14  1  0  0  0  0
 22 21  2  0  0  0  0
 23 21  1  0  0  0  0
M  END
>  <minimizedAffinity>
-3.90614748

>  <minimizedRMSD>
1.17089021

$$$$
