REMARK  Name = 
REMARK  8 active torsions:
REMARK  status: ('A' for Active; 'I' for Inactive)
REMARK    1  A    between atoms: C_3  and  O_7
REMARK    2  A    between atoms: O_7  and  P_9
REMARK    3  A    between atoms: P_9  and  O_10
REMARK    4  A    between atoms: P_9  and  O_11
REMARK    5  A    between atoms: O_11  and  C_12
REMARK    6  A    between atoms: C_12  and  C_27
REMARK    7  A    between atoms: C_18  and  C_20
REMARK    8  A    between atoms: C_20  and  C_21
REMARK                            x       y       z     vdW  Elec       q    Type
REMARK                         _______ _______ _______ _____ _____    ______ ____
ROOT
ATOM      1  O   UNL     1      47.450  32.199  48.114  0.00  0.00    +0.000 OA
ENDROOT
BRANCH   1   3
ATOM      2  O   UNL     1      45.330  30.858  47.459  0.00  0.00    +0.000 OA
ATOM      3  P   UNL     1      45.812  32.079  48.262  0.00  0.00    +0.000 P 
BRANCH   3   4
ATOM      4  O   UNL     1      45.320  31.847  49.855  0.00  0.00    +0.000 OA
ATOM      5  H   UNL     1      44.426  32.201  50.015  0.00  0.00    +0.000 HD
ENDBRANCH   3   4
BRANCH   3   6
ATOM      6  O   UNL     1      45.048  33.454  47.648  0.00  0.00    +0.000 OA
BRANCH   6   9
ATOM      7  C   UNL     1      46.528  33.618  44.333  0.00  0.00    +0.000 A 
ATOM      8  C   UNL     1      46.232  33.203  45.644  0.00  0.00    +0.000 A 
ATOM      9  C   UNL     1      45.298  33.902  46.368  0.00  0.00    +0.000 A 
ATOM     10  N   UNL     1      44.708  34.965  45.770  0.00  0.00    +0.000 NA
ATOM     11  C   UNL     1      44.982  35.367  44.524  0.00  0.00    +0.000 A 
ATOM     12  N   UNL     1      45.896  34.691  43.804  0.00  0.00    +0.000 NA
ATOM     13  H   UNL     1      47.244  33.138  43.685  0.00  0.00    +0.000 HD
ATOM     14  H   UNL     1      46.815  32.339  45.907  0.00  0.00    +0.000 HD
ATOM     15  H   UNL     1      44.473  36.215  44.124  0.00  0.00    +0.000 HD
ENDBRANCH   6   9
ENDBRANCH   3   6
ENDBRANCH   1   3
BRANCH   1  16
ATOM     16  C   UNL     1      48.469  31.438  48.561  0.00  0.00    +0.000 C 
ATOM     17  O   UNL     1      49.218  32.023  49.419  0.00  0.00    +0.000 OA
BRANCH  16  23
ATOM     18  C   UNL     1      51.010  30.782  52.115  0.00  0.00    +0.000 C 
ATOM     19  C   UNL     1      51.530  29.664  51.194  0.00  0.00    +0.000 C 
ATOM     20  N   UNL     1      51.049  30.019  49.848  0.00  0.00    +0.000 N 
ATOM     21  C   UNL     1      50.754  30.397  48.512  0.00  0.00    +0.000 C 
ATOM     22  O   UNL     1      51.643  30.732  47.680  0.00  0.00    +0.000 OA
ATOM     23  C   UNL     1      49.297  30.222  48.642  0.00  0.00    +0.000 C 
ATOM     24  C   UNL     1      49.599  29.765  50.009  0.00  0.00    +0.000 C 
ATOM     25  S   UNL     1      49.323  30.923  51.380  0.00  0.00    +0.000 S 
BRANCH  18  26
ATOM     26  C   UNL     1      50.965  30.319  53.530  0.00  0.00    +0.000 C 
ATOM     27  H   UNL     1      50.040  29.746  53.697  0.00  0.00    +0.000 HD
ENDBRANCH  18  26
BRANCH  18  28
ATOM     28  C   UNL     1      51.823  32.015  51.873  0.00  0.00    +0.000 C 
ATOM     29  H   UNL     1      52.477  32.279  52.740  0.00  0.00    +0.000 HD
ENDBRANCH  18  28
ENDBRANCH  16  23
ENDBRANCH   1  16
TORSDOF 8
