
 OpenBabel03252502463D

 48 52  0  0  1  0  0  0  0  0999 V2000
   46.5890   35.1230   42.0990 C   0  0  0  0  0  0  0  0  0  0  0  0
   46.7800   35.8430   42.9280 H   0  0  0  0  0  0  0  0  0  0  0  0
   45.8400   35.6360   41.4340 H   0  0  0  0  0  0  0  0  0  0  0  0
   47.8750   34.8180   41.4090 C   0  0  1  0  0  0  0  0  0  0  0  0
   49.0210   35.7640   41.6060 C   0  0  0  0  0  0  0  0  0  0  0  0
   48.9960   34.4030   42.2330 C   0  0  2  0  0  0  0  0  0  0  0  0
   47.7490   34.4640   40.3860 H   0  0  0  0  0  0  0  0  0  0  0  0
   48.7950   36.6590   42.2480 H   0  0  0  0  0  0  0  0  0  0  0  0
   49.6940   36.0050   40.7700 H   0  0  0  0  0  0  0  0  0  0  0  0
   49.0490   34.4230   43.3120 H   0  0  0  0  0  0  0  0  0  0  0  0
   49.8960   33.4640   41.5610 N   0  0  0  0  0  0  0  0  0  0  0  0
   49.2590   32.5640   40.6880 C   0  0  0  0  0  0  0  0  0  0  0  0
   50.3540   31.6740   40.1320 C   0  0  0  0  0  0  0  0  0  0  0  0
   50.9830   30.9040   41.1450 N   0  0  0  0  0  0  0  0  0  0  0  0
   50.9530   31.5160   42.4590 C   0  0  0  0  0  0  0  0  0  0  0  0
   51.0070   33.0420   42.3090 C   0  0  0  0  0  0  0  0  0  0  0  0
   48.5010   31.9050   41.1720 H   0  0  0  0  0  0  0  0  0  0  0  0
   48.8420   33.1230   39.8200 H   0  0  0  0  0  0  0  0  0  0  0  0
   49.8760   31.0260   39.3690 H   0  0  0  0  0  0  0  0  0  0  0  0
   51.1050   32.3070   39.5770 H   0  0  0  0  0  0  0  0  0  0  0  0
   51.9220   30.5610   40.8600 H   0  0  0  0  0  0  0  0  0  0  0  0
   51.8130   31.1190   43.0300 H   0  0  0  0  0  0  0  0  0  0  0  0
   49.9760   31.2990   42.9410 H   0  0  0  0  0  0  0  0  0  0  0  0
   51.9420   33.3170   41.7440 H   0  0  0  0  0  0  0  0  0  0  0  0
   51.0580   33.5240   43.2880 H   0  0  0  0  0  0  0  0  0  0  0  0
   46.0760   33.8270   42.6660 C   0  0  0  0  0  0  0  0  0  0  0  0
   46.7130   32.9630   42.5650 H   0  0  0  0  0  0  0  0  0  0  0  0
   45.1480   33.5810   42.0670 H   0  0  0  0  0  0  0  0  0  0  0  0
   44.5090   35.5070   45.6280 C   0  0  0  0  0  0  0  0  0  0  0  0
   44.9700   35.2850   44.3000 C   0  0  0  0  0  0  0  0  0  0  0  0
   45.5750   34.0820   44.0490 C   0  0  0  0  0  0  0  0  0  0  0  0
   45.7080   33.1740   45.0540 N   0  0  0  0  0  0  0  0  0  0  0  0
   45.2770   33.3950   46.2730 C   0  0  0  0  0  0  0  0  0  0  0  0
   44.6740   34.5640   46.5720 N   0  0  0  0  0  0  0  0  0  0  0  0
   44.0290   36.4630   45.8280 H   0  0  0  0  0  0  0  0  0  0  0  0
   44.8070   36.0850   43.5870 H   0  0  0  0  0  0  0  0  0  0  0  0
   45.3780   32.4610   47.4100 C   0  0  0  0  0  2  0  0  0  0  0  0
   46.6720   31.7570   47.5310 C   0  0  1  0  0  0  0  0  0  0  0  0
   46.4340   30.4650   48.3320 C   0  0  0  0  0  2  0  0  0  0  0  0
   47.6210   29.6410   48.0730 N   0  0  0  0  0  0  0  0  0  0  0  0
   48.8310   28.8550   47.9400 C   0  0  0  0  0  0  0  0  0  0  0  0
   49.5620   28.6130   48.9360 O   0  0  0  0  0  0  0  0  0  0  0  0
   48.6860   28.6350   46.4980 C   0  0  0  0  0  3  0  0  0  0  0  0
   49.3990   29.1860   45.8550 H   0  0  0  0  0  0  0  0  0  0  0  0
   47.3390   29.2500   46.6740 C   0  0  2  0  0  3  0  0  0  0  0  0
   47.2170   30.9520   45.9680 S   0  0  0  0  0  0  0  0  0  0  0  0
   47.7780   32.5120   48.1550 C   0  0  0  0  0  2  0  0  0  0  0  0
   48.7160   32.5140   47.5220 H   0  0  0  0  0  0  0  0  0  0  0  0
  1 26  1  0  0  0  0
  1  2  1  0  0  0  0
  3  1  1  0  0  0  0
  4  7  1  6  0  0  0
  4  5  1  0  0  0  0
  4  1  1  0  0  0  0
  4  6  1  0  0  0  0
  5  6  1  0  0  0  0
  5  8  1  0  0  0  0
  6 10  1  1  0  0  0
  9  5  1  0  0  0  0
 11  6  1  0  0  0  0
 11 16  1  0  0  0  0
 12 17  1  0  0  0  0
 12 11  1  0  0  0  0
 13 12  1  0  0  0  0
 13 14  1  0  0  0  0
 14 15  1  0  0  0  0
 15 23  1  0  0  0  0
 15 22  1  0  0  0  0
 16 15  1  0  0  0  0
 16 25  1  0  0  0  0
 18 12  1  0  0  0  0
 19 13  1  0  0  0  0
 20 13  1  0  0  0  0
 21 14  1  0  0  0  0
 24 16  1  0  0  0  0
 26 31  1  0  0  0  0
 27 26  1  0  0  0  0
 28 26  1  0  0  0  0
 29 35  1  0  0  0  0
 29 34  1  0  0  0  0
 30 29  2  0  0  0  0
 31 30  1  0  0  0  0
 31 32  2  0  0  0  0
 32 33  1  0  0  0  0
 33 34  2  0  0  0  0
 33 37  1  0  0  0  0
 36 30  1  0  0  0  0
 38 37  1  6  0  0  0
 38 47  1  0  0  0  0
 38 39  1  0  0  0  0
 40 39  1  0  0  0  0
 41 40  1  0  0  0  0
 41 42  2  0  0  0  0
 43 45  1  0  0  0  0
 43 41  1  0  0  0  0
 44 43  1  0  0  0  0
 45 46  1  6  0  0  0
 45 40  1  0  0  0  0
 46 38  1  0  0  0  0
 48 47  1  0  0  0  0
M  END
>  <minimizedAffinity>
-5.52511024

>  <minimizedRMSD>
1.59791517

$$$$
