
     RDKit          3D

 31 33  0  0  0  0  0  0  0  0999 V2000
   46.2164   34.8419   43.1920 C   0  0  0  0  0  0  0  0  0  0  0  0
   45.3248   35.9118   43.2772 C   0  0  0  0  0  0  0  0  0  0  0  0
   44.5613   36.0073   44.4531 C   0  0  0  0  0  0  0  0  0  0  0  0
   44.7379   35.0642   45.4189 N   0  0  0  0  0  0  0  0  0  0  0  0
   45.6206   34.0428   45.2839 C   0  0  0  0  0  0  0  0  0  0  0  0
   46.3467   33.9485   44.1703 N   0  0  0  0  0  0  0  0  0  0  0  0
   46.9675   34.7948   41.9724 C   0  0  0  0  0  0  0  0  0  0  0  0
   48.0519   35.3919   41.7263 O   0  0  0  0  0  0  0  0  0  0  0  0
   45.1867   36.6552   42.5138 H   0  0  0  0  0  0  0  0  0  0  0  0
   43.8529   36.8059   44.5896 H   0  0  0  0  0  0  0  0  0  0  0  0
   46.6319   34.1982   41.1106 H   0  0  0  0  0  0  0  0  0  0  0  0
   45.7776   33.0470   46.3543 C   0  0  0  0  0  0  0  0  0  0  0  0
   46.5139   31.8192   45.8813 C   0  0  2  0  0  0  0  0  0  0  0  0
   45.8102   31.1122   44.7429 C   0  0  0  0  0  0  0  0  0  0  0  0
   46.1609   31.4668   43.7688 H   0  0  0  0  0  0  0  0  0  0  0  0
   46.6737   30.8262   46.9859 C   0  0  0  0  0  0  0  0  0  0  0  0
   47.9971   30.8963   47.5055 N   0  0  0  0  0  0  0  0  0  0  0  0
   49.1231   30.9820   48.3684 C   0  0  0  0  0  0  0  0  0  0  0  0
   49.4097   30.8312   49.5820 O   0  0  0  0  0  0  0  0  0  0  0  0
   50.0589   31.3668   47.2785 C   0  0  2  0  0  0  0  0  0  0  0  0
   50.9915   30.7907   47.2153 H   0  0  0  0  0  0  0  0  0  0  0  0
   48.9345   30.8560   46.4137 C   0  0  2  0  0  0  0  0  0  0  0  0
   48.2061   32.1594   45.3409 S   0  0  0  0  0  0  0  0  0  0  0  0
   44.7658   32.6936   46.6350 H   0  0  0  0  0  0  0  0  0  0  0  0
   46.3049   33.4393   47.2259 H   0  0  0  0  0  0  0  0  0  0  0  0
   46.0298   30.0049   44.7801 H   0  0  0  0  0  0  0  0  0  0  0  0
   44.7204   31.1799   44.8939 H   0  0  0  0  0  0  0  0  0  0  0  0
   45.9130   31.0849   47.7680 H   0  0  0  0  0  0  0  0  0  0  0  0
   46.4663   29.7732   46.7001 H   0  0  0  0  0  0  0  0  0  0  0  0
   50.1728   32.4706   47.3048 H   0  0  0  0  0  0  0  0  0  0  0  0
   49.0953   29.9096   45.8984 H   0  0  0  0  0  0  0  0  0  0  0  0
  1  2  2  0
  1  6  1  0
  2  3  1  0
  3  4  2  0
  5  4  1  0
  6  5  2  0
  7  1  1  0
  8  7  2  0
  2  9  1  0
  3 10  1  0
  7 11  1  0
 13 12  1  1
 13 14  1  0
 14 15  1  0
 13 16  1  0
 16 17  1  0
 17 18  1  0
 18 19  2  0
 18 20  1  0
 20 21  1  1
 20 22  1  0
 22 23  1  0
 23 13  1  0
 22 17  1  0
 12 24  1  0
 12 25  1  0
 14 26  1  0
 14 27  1  0
 16 28  1  0
 16 29  1  0
 20 30  1  0
 22 31  1  6
  5 12  1  0
M  ISO  5   9  14  10  14  11   6  15   8  21  15
M  END
>  <DihAtoms>  (1) 
3,4,11,12

>  <DihDeg>  (1) 
89.99995369881678

$$$$
