
 OpenBabel03242518543D

 45 48  0  0  1  0  0  0  0  0999 V2000
   45.8150   31.3290   46.5110 C   0  0  2  0  0  0  0  0  0  0  0  0
   45.5260   30.7030   47.8380 C   0  0  0  0  0  0  0  0  0  0  0  0
   44.8660   29.3950   47.5660 C   0  0  0  0  0  0  0  0  0  0  0  0
   44.5900   29.0920   46.1360 C   0  0  0  0  0  0  0  0  0  0  0  0
   45.8520   29.1930   45.3240 C   0  0  0  0  0  0  0  0  0  0  0  0
   46.6400   30.3620   45.6840 C   0  0  2  0  0  0  0  0  0  0  0  0
   44.8670   31.4280   45.9430 H   0  0  0  0  0  0  0  0  0  0  0  0
   46.3880   30.6140   48.5080 H   0  0  0  0  0  0  0  0  0  0  0  0
   44.8310   31.4190   48.3800 H   0  0  0  0  0  0  0  0  0  0  0  0
   45.3620   28.5120   48.0470 H   0  0  0  0  0  0  0  0  0  0  0  0
   43.8590   29.4190   48.0730 H   0  0  0  0  0  0  0  0  0  0  0  0
   44.2160   28.0400   46.1020 H   0  0  0  0  0  0  0  0  0  0  0  0
   43.7520   29.7080   45.7150 H   0  0  0  0  0  0  0  0  0  0  0  0
   46.3350   28.2000   45.3430 H   0  0  0  0  0  0  0  0  0  0  0  0
   45.5100   29.3090   44.2530 H   0  0  0  0  0  0  0  0  0  0  0  0
   47.0230   30.8980   44.8140 H   0  0  0  0  0  0  0  0  0  0  0  0
   47.7910   29.8510   46.4820 C   0  0  0  0  0  0  0  0  0  0  0  0
   47.5240   29.3920   47.4510 H   0  0  0  0  0  0  0  0  0  0  0  0
   48.4550   30.7190   46.6950 H   0  0  0  0  0  0  0  0  0  0  0  0
   52.2070   27.2550   45.9540 C   0  0  0  0  0  0  0  0  0  0  0  0
   52.0910   28.7500   45.7840 C   0  0  0  0  0  2  0  0  0  0  0  0
   50.7370   29.0520   45.3700 N   0  0  0  0  0  0  0  0  0  0  0  0
   49.5370   29.4560   44.7200 C   0  0  0  0  0  0  0  0  0  0  0  0
   49.3740   30.1280   43.6500 O   0  0  0  0  0  0  0  0  0  0  0  0
   48.6280   28.8280   45.7120 C   0  0  1  0  0  3  0  0  0  0  0  0
   49.9030   28.5840   46.4830 C   0  0  1  0  0  3  0  0  0  0  0  0
   50.4860   26.8410   46.4510 S   0  0  0  0  0  0  0  0  0  0  0  0
   53.0780   26.8910   47.1370 C   0  0  0  0  0  2  0  0  0  0  0  0
   54.0070   27.4930   47.2000 H   0  0  0  0  0  0  0  0  0  0  0  0
   52.6200   26.5480   44.6990 C   0  0  0  0  0  2  0  0  0  0  0  0
   53.2230   27.2840   44.0910 H   0  0  0  0  0  0  0  0  0  0  0  0
   46.4240   32.6790   46.5930 C   0  0  0  0  0  0  0  0  0  0  0  0
   47.2670   32.9930   47.4710 O   0  0  0  0  0  0  0  0  0  0  0  0
   44.6240   35.4040   44.9570 C   0  0  0  0  0  0  0  0  0  0  0  0
   45.2100   35.4860   43.6700 C   0  0  0  0  0  0  0  0  0  0  0  0
   46.2280   34.5890   43.4000 C   0  0  0  0  0  0  0  0  0  0  0  0
   46.5350   33.7500   44.3920 N   0  0  0  0  0  0  0  0  0  0  0  0
   45.9970   33.6650   45.5910 C   0  0  0  0  0  0  0  0  0  0  0  0
   45.0080   34.5250   45.8800 N   0  0  0  0  0  0  0  0  0  0  0  0
   43.8130   36.0970   45.2120 H   0  0  0  0  0  0  0  0  0  0  0  0
   44.8480   36.2250   42.9710 H   0  0  0  0  0  0  0  0  0  0  0  0
   46.8300   34.6620   42.0790 C   0  0  0  0  0  0  0  0  0  0  0  0
   47.5780   33.5150   41.8410 F   0  0  0  0  0  0  0  0  0  0  0  0
   47.6590   35.7370   42.0820 F   0  0  0  0  0  0  0  0  0  0  0  0
   45.8790   34.7020   41.0660 F   0  0  0  0  0  0  0  0  0  0  0  0
  1  7  1  6  0  0  0
  1 32  1  0  0  0  0
  1  2  1  0  0  0  0
  2  9  1  0  0  0  0
  2  8  1  0  0  0  0
  3  2  1  0  0  0  0
  3 10  1  0  0  0  0
  3 11  1  0  0  0  0
  4  3  1  0  0  0  0
  5 14  1  0  0  0  0
  5  6  1  0  0  0  0
  5  4  1  0  0  0  0
  6 16  1  6  0  0  0
  6 17  1  0  0  0  0
  6  1  1  0  0  0  0
 12  4  1  0  0  0  0
 13  4  1  0  0  0  0
 15  5  1  0  0  0  0
 17 19  1  0  0  0  0
 17 18  1  0  0  0  0
 20 27  1  0  0  0  0
 20 28  1  0  0  0  0
 21 20  1  0  0  0  0
 22 21  1  0  0  0  0
 22 26  1  0  0  0  0
 23 22  1  0  0  0  0
 23 25  1  0  0  0  0
 24 23  2  0  0  0  0
 25 17  1  1  0  0  0
 25 26  1  0  0  0  0
 26 27  1  6  0  0  0
 28 29  1  0  0  0  0
 30 20  1  0  0  0  0
 31 30  1  0  0  0  0
 32 33  2  0  0  0  0
 34 40  1  0  0  0  0
 34 39  1  0  0  0  0
 35 34  2  0  0  0  0
 36 35  1  0  0  0  0
 36 37  2  0  0  0  0
 37 38  1  0  0  0  0
 38 39  2  0  0  0  0
 38 32  1  0  0  0  0
 41 35  1  0  0  0  0
 42 44  1  0  0  0  0
 42 36  1  0  0  0  0
 43 42  1  0  0  0  0
 45 42  1  0  0  0  0
M  END
>  <minimizedAffinity>
-5.32840252

>  <minimizedRMSD>
0.270250052

$$$$
