
     RDKit          3D

 37 39  0  0  0  0  0  0  0  0999 V2000
   46.5280   33.6177   44.3334 C   0  0  0  0  0  0  0  0  0  0  0  0
   46.2316   33.2033   45.6436 C   0  0  0  0  0  0  0  0  0  0  0  0
   45.2983   33.9017   46.3685 C   0  0  0  0  0  0  0  0  0  0  0  0
   44.7075   34.9649   45.7700 N   0  0  0  0  0  0  0  0  0  0  0  0
   44.9824   35.3666   44.5241 C   0  0  0  0  0  0  0  0  0  0  0  0
   45.8961   34.6905   43.8038 N   0  0  0  0  0  0  0  0  0  0  0  0
   45.0481   33.4538   47.6480 O   0  0  0  0  0  0  0  0  0  0  0  0
   45.3295   30.8582   47.4595 O   0  0  0  0  0  0  0  0  0  0  0  0
   45.8115   32.0789   48.2624 P   0  0  2  0  0  0  0  0  0  0  0  0
   45.3204   31.8468   49.8549 O   0  0  0  0  0  0  0  0  0  0  0  0
   47.4498   32.1986   48.1144 O   0  0  0  0  0  0  0  0  0  0  0  0
   48.4689   31.4382   48.5613 C   0  0  0  0  0  0  0  0  0  0  0  0
   49.2179   32.0227   49.4191 O   0  0  0  0  0  0  0  0  0  0  0  0
   47.2438   33.1378   43.6847 H   0  0  0  0  0  0  0  0  0  0  0  0
   46.8148   32.3390   45.9072 H   0  0  0  0  0  0  0  0  0  0  0  0
   44.4729   36.2151   44.1236 H   0  0  0  0  0  0  0  0  0  0  0  0
   44.4264   32.2011   50.0154 H   0  0  0  0  0  0  0  0  0  0  0  0
   47.8825   27.6157   44.4123 C   0  0  0  0  0  0  0  0  0  0  0  0
   48.7069   28.1935   43.9651 H   0  0  0  0  0  0  0  0  0  0  0  0
   47.6549   28.0799   45.8089 C   0  0  0  0  0  0  0  0  0  0  0  0
   46.2694   27.8669   46.3339 C   0  0  0  0  0  0  0  0  0  0  0  0
   45.6664   27.1762   45.6957 H   0  0  0  0  0  0  0  0  0  0  0  0
   48.6514   27.4115   46.7723 C   0  0  0  0  0  0  0  0  0  0  0  0
   48.6956   28.2911   47.9526 N   0  0  0  0  0  0  0  0  0  0  0  0
   48.6521   29.0100   49.1756 C   0  0  0  0  0  0  0  0  0  0  0  0
   48.1624   28.5315   50.2374 O   0  0  0  0  0  0  0  0  0  0  0  0
   49.2966   30.2224   48.6419 C   0  0  1  0  0  0  0  0  0  0  0  0
   49.4059   29.4595   47.3863 C   0  0  2  0  0  0  0  0  0  0  0  0
   48.2191   29.8188   46.0600 S   0  0  0  0  0  0  0  0  0  0  0  0
   48.2509   26.5604   44.4725 H   0  0  0  0  0  0  0  0  0  0  0  0
   46.9707   27.7060   43.8131 H   0  0  0  0  0  0  0  0  0  0  0  0
   46.3036   27.4106   47.3615 H   0  0  0  0  0  0  0  0  0  0  0  0
   45.7061   28.8277   46.4665 H   0  0  0  0  0  0  0  0  0  0  0  0
   49.6458   27.4638   46.3048 H   0  0  0  0  0  0  0  0  0  0  0  0
   48.3370   26.4075   47.0565 H   0  0  0  0  0  0  0  0  0  0  0  0
   50.2642   30.3304   49.1822 H   0  0  0  0  0  0  0  0  0  0  0  0
   50.4231   29.2006   47.0278 H   0  0  0  0  0  0  0  0  0  0  0  0
  1  2  2  0
  2  3  1  0
  3  7  1  0
  4  3  2  0
  5  4  1  0
  6  1  1  0
  6  5  2  0
  9  7  1  6
  9  8  2  0
  9 10  1  0
 11  9  1  0
 11 12  1  0
 12 13  2  0
  1 14  1  0
  2 15  1  0
  5 16  1  0
 10 17  1  0
 18 19  1  0
 18 20  1  0
 20 21  1  0
 21 22  1  0
 20 23  1  0
 23 24  1  0
 24 25  1  0
 25 26  2  0
 25 27  1  0
 27 28  1  0
 28 29  1  0
 29 20  1  0
 28 24  1  0
 18 30  1  0
 18 31  1  0
 21 32  1  0
 21 33  1  0
 23 34  1  0
 23 35  1  0
 27 36  1  1
 28 37  1  6
 12 27  1  0
M  ISO  6  14  14  15  14  16  14  17   3  19   8  22   8
M  END
>  <DihAtoms>  (1) 
10,11,26,24

>  <DihDeg>  (1) 
175.1679550824895

$$$$
