
 OpenBabel03242523543D

 48 52  0  0  1  0  0  0  0  0999 V2000
   42.7450   34.5330   38.7980 C   0  0  1  0  0  0  0  0  0  0  0  0
   42.9220   35.2630   40.1240 C   0  0  1  0  0  0  0  0  0  0  0  0
   41.6470   35.5960   40.6180 O   0  0  0  0  0  0  0  0  0  0  0  0
   40.7540   35.9440   39.6040 C   0  0  0  0  0  0  0  0  0  0  0  0
   40.3740   34.7480   38.7510 C   0  0  2  0  0  0  0  0  0  0  0  0
   41.5190   33.6910   38.9410 C   0  0  1  0  0  0  0  0  0  0  0  0
   43.5960   33.8430   38.6100 H   0  0  0  0  0  0  0  0  0  0  0  0
   43.5670   36.1410   40.0540 H   0  0  0  0  0  0  0  0  0  0  0  0
   41.1010   36.8000   38.9920 H   0  0  0  0  0  0  0  0  0  0  0  0
   39.8460   36.2850   40.1170 H   0  0  0  0  0  0  0  0  0  0  0  0
   39.4080   34.2970   39.0340 H   0  0  0  0  0  0  0  0  0  0  0  0
   41.2800   33.4600   40.0280 H   0  0  0  0  0  0  0  0  0  0  0  0
   42.5990   35.4450   37.7450 O   0  0  0  0  0  0  0  0  0  0  0  0
   43.2650   35.3400   37.0360 H   0  0  0  0  0  0  0  0  0  0  0  0
   40.4240   35.1040   37.4100 O   0  0  0  0  0  0  0  0  0  0  0  0
   40.3800   36.0620   37.2600 H   0  0  0  0  0  0  0  0  0  0  0  0
   43.3860   34.2830   41.0210 O   0  0  0  0  0  0  0  0  0  0  0  0
   44.5120   34.3810   41.7370 C   0  0  0  0  0  0  0  0  0  0  0  0
   45.7650   34.4680   41.1120 C   0  0  0  0  0  0  0  0  0  0  0  0
   46.8960   34.5690   41.9070 C   0  0  0  0  0  0  0  0  0  0  0  0
   46.7590   34.5810   43.2820 N   0  0  0  0  0  0  0  0  0  0  0  0
   45.5340   34.4940   43.8510 C   0  0  0  0  0  0  0  0  0  0  0  0
   44.4180   34.3950   43.0840 N   0  0  0  0  0  0  0  0  0  0  0  0
   45.8750   34.4590   40.0460 H   0  0  0  0  0  0  0  0  0  0  0  0
   45.4280   34.5030   44.9260 H   0  0  0  0  0  0  0  0  0  0  0  0
   48.2660   34.6470   41.3170 C   0  0  0  0  0  0  0  0  0  0  0  0
   49.0170   35.9670   41.4940 C   0  0  0  0  0  0  0  0  0  0  0  0
   49.4320   34.6270   42.1390 C   0  0  0  0  0  0  0  0  0  0  0  0
   48.2930   34.2230   40.2790 H   0  0  0  0  0  0  0  0  0  0  0  0
   48.5300   36.7210   42.1280 H   0  0  0  0  0  0  0  0  0  0  0  0
   49.6540   36.3290   40.6680 H   0  0  0  0  0  0  0  0  0  0  0  0
   49.3820   34.6460   43.2460 H   0  0  0  0  0  0  0  0  0  0  0  0
   50.4040   34.2330   41.7790 H   0  0  0  0  0  0  0  0  0  0  0  0
   41.3350   32.7250   38.0180 O   0  0  0  0  0  0  0  0  0  0  0  0
   40.2990   31.8650   37.8970 C   0  0  0  0  0  0  0  0  0  0  0  0
   39.0560   32.2790   37.9260 O   0  0  0  0  0  0  0  0  0  0  0  0
   42.4170   29.7980   40.2370 C   0  0  0  0  0  0  0  0  0  0  0  0
   42.3740   28.8540   39.0720 C   0  0  0  0  0  2  0  0  0  0  0  0
   41.3260   29.2640   38.1960 N   0  0  0  0  0  0  0  0  0  0  0  0
   40.6790   29.5810   36.9720 C   0  0  0  0  0  0  0  0  0  0  0  0
   40.7880   29.2650   35.7520 O   0  0  0  0  0  0  0  0  0  0  0  0
   39.7670   30.4820   37.7170 C   0  0  1  0  0  3  0  0  0  0  0  0
   40.1110   29.5730   38.8710 C   0  0  2  0  0  3  0  0  0  0  0  0
   40.7360   30.4770   40.3360 S   0  0  0  0  0  0  0  0  0  0  0  0
   43.4830   30.8350   40.1820 C   0  0  0  0  0  2  0  0  0  0  0  0
   44.0360   30.8550   39.2220 H   0  0  0  0  0  0  0  0  0  0  0  0
   42.5700   28.9080   41.4760 C   0  0  0  0  0  2  0  0  0  0  0  0
   42.0920   29.3830   42.3710 H   0  0  0  0  0  0  0  0  0  0  0  0
  1  7  1  6  0  0  0
  1  6  1  0  0  0  0
  1  2  1  0  0  0  0
  2  8  1  6  0  0  0
  2  3  1  0  0  0  0
  2 17  1  0  0  0  0
  4 10  1  0  0  0  0
  4  3  1  0  0  0  0
  5  6  1  0  0  0  0
  5 11  1  1  0  0  0
  5  4  1  0  0  0  0
  6 12  1  1  0  0  0
  9  4  1  0  0  0  0
 13  1  1  0  0  0  0
 14 13  1  0  0  0  0
 15  5  1  0  0  0  0
 16 15  1  0  0  0  0
 17 18  1  0  0  0  0
 18 23  1  0  0  0  0
 19 18  2  0  0  0  0
 19 20  1  0  0  0  0
 20 21  2  0  0  0  0
 21 22  1  0  0  0  0
 22 25  1  0  0  0  0
 23 22  2  0  0  0  0
 24 19  1  0  0  0  0
 26 27  1  0  0  0  0
 26 20  1  0  0  0  0
 26 28  1  0  0  0  0
 27 30  1  0  0  0  0
 27 28  1  0  0  0  0
 28 32  1  0  0  0  0
 29 26  1  0  0  0  0
 31 27  1  0  0  0  0
 33 28  1  0  0  0  0
 34  6  1  0  0  0  0
 35 36  2  0  0  0  0
 35 34  1  0  0  0  0
 37 44  1  0  0  0  0
 37 47  1  0  0  0  0
 38 37  1  0  0  0  0
 39 43  1  0  0  0  0
 39 38  1  0  0  0  0
 40 42  1  0  0  0  0
 40 39  1  0  0  0  0
 41 40  2  0  0  0  0
 42 35  1  1  0  0  0
 42 43  1  0  0  0  0
 43 44  1  1  0  0  0
 45 37  1  0  0  0  0
 46 45  1  0  0  0  0
 47 48  1  0  0  0  0
M  END
>  <minimizedAffinity>
-6.0331974

>  <minimizedRMSD>
1.07890499

$$$$
