REMARK  Name = 
REMARK  9 active torsions:
REMARK  status: ('A' for Active; 'I' for Inactive)
REMARK    1  A    between atoms: C_1  and  N_4
REMARK    2  A    between atoms: C_1  and  C_14
REMARK    3  A    between atoms: C_2  and  C_7
REMARK    4  A    between atoms: C_13  and  C_19
REMARK    5  A    between atoms: C_16  and  C_35
REMARK    6  A    between atoms: C_17  and  O_21
REMARK    7  A    between atoms: O_21  and  C_22
REMARK    8  A    between atoms: C_35  and  C_36
REMARK    9  A    between atoms: C_36  and  C_37
REMARK                            x       y       z     vdW  Elec       q    Type
REMARK                         _______ _______ _______ _____ _____    ______ ____
ROOT
ATOM      1  C   UNL     1      51.292  32.136  50.927  0.00  0.00    +0.000 A 
ATOM      2  C   UNL     1      51.380  30.972  51.689  0.00  0.00    +0.000 A 
ATOM      3  C   UNL     1      50.487  29.922  51.381  0.00  0.00    +0.000 A 
ATOM      4  N   UNL     1      49.607  30.119  50.377  0.00  0.00    +0.000 NA
ATOM      5  C   UNL     1      49.554  31.263  49.668  0.00  0.00    +0.000 A 
ATOM      6  N   UNL     1      50.406  32.291  49.939  0.00  0.00    +0.000 NA
ATOM      7  H   UNL     1      51.903  32.977  51.054  0.00  0.00    +0.000 HD
ENDROOT
BRANCH   5   8
ATOM      8  C   UNL     1      48.563  31.435  48.613  0.00  0.00    +0.000 C 
ATOM      9  C   UNL     1      47.429  32.087  48.805  0.00  0.00    +0.000 C 
BRANCH   9  10
ATOM     10  C   UNL     1      46.452  32.221  47.683  0.00  0.00    +0.000 C 
ATOM     11  H   UNL     1      45.485  32.550  48.111  0.00  0.00    +0.000 HD
ATOM     12  H   UNL     1      46.293  31.191  47.339  0.00  0.00    +0.000 HD
BRANCH  10  15
ATOM     13  C   UNL     1      46.497  32.789  45.424  0.00  0.00    +0.000 C 
ATOM     14  O   UNL     1      45.846  31.826  44.928  0.00  0.00    +0.000 OA
ATOM     15  N   UNL     1      46.878  33.162  46.709  0.00  0.00    +0.000 N 
ATOM     16  H   UNL     1      47.398  34.029  46.852  0.00  0.00    +0.000 HD
BRANCH  13  19
ATOM     17 CL   UNL     1      44.805  35.150  44.502  0.00  0.00    +0.000 Cl
ATOM     18  C   UNL     1      46.197  34.603  43.609  0.00  0.00    +0.000 A 
ATOM     19  C   UNL     1      46.813  33.530  44.192  0.00  0.00    +0.000 A 
ATOM     20  C   UNL     1      47.949  32.961  43.597  0.00  0.00    +0.000 A 
ATOM     21  C   UNL     1      48.471  33.461  42.421  0.00  0.00    +0.000 A 
ATOM     22  C   UNL     1      47.835  34.548  41.845  0.00  0.00    +0.000 A 
ATOM     23 CL   UNL     1      48.410  35.272  40.360  0.00  0.00    +0.000 Cl
ATOM     24  C   UNL     1      46.723  35.099  42.435  0.00  0.00    +0.000 A 
ATOM     25  H   UNL     1      48.517  32.113  43.954  0.00  0.00    +0.000 HD
ATOM     26  H   UNL     1      49.334  33.075  41.907  0.00  0.00    +0.000 HD
ATOM     27  H   UNL     1      46.174  35.957  42.044  0.00  0.00    +0.000 HD
ENDBRANCH  13  19
ENDBRANCH  10  15
ENDBRANCH   9  10
ENDBRANCH   5   8
BRANCH   3  28
ATOM     28  O   UNL     1      50.472  28.721  52.035  0.00  0.00    +0.000 OA
BRANCH  28  29
ATOM     29  C   UNL     1      51.485  27.768  51.628  0.00  0.00    +0.000 C 
ATOM     30  F   UNL     1      51.939  28.083  50.343  0.00  0.00    +0.000 F 
ATOM     31  F   UNL     1      52.574  27.897  52.489  0.00  0.00    +0.000 F 
ATOM     32  F   UNL     1      51.033  26.454  51.685  0.00  0.00    +0.000 F 
ENDBRANCH  28  29
ENDBRANCH   3  28
BRANCH   2  33
ATOM     33  C   UNL     1      52.221  30.858  52.868  0.00  0.00    +0.000 C 
BRANCH  33  34
ATOM     34  C   UNL     1      53.701  30.836  52.796  0.00  0.00    +0.000 C 
ATOM     35  C   UNL     1      54.417  32.042  52.331  0.00  0.00    +0.000 C 
ATOM     36  N   UNL     1      54.987  32.767  53.435  0.00  0.00    +0.000 N 
ATOM     37  C   UNL     1      55.382  33.825  54.304  0.00  0.00    +0.000 C 
ATOM     38  O   UNL     1      55.498  35.081  54.206  0.00  0.00    +0.000 OA
ATOM     39  C   UNL     1      55.642  32.929  55.461  0.00  0.00    +0.000 C 
ATOM     40  H   UNL     1      54.764  32.894  56.119  0.00  0.00    +0.000 HD
ATOM     41  C   UNL     1      55.659  31.872  54.396  0.00  0.00    +0.000 C 
ATOM     42  S   UNL     1      54.314  30.625  54.517  0.00  0.00    +0.000 S 
BRANCH  34  43
ATOM     43  C   UNL     1      54.156  29.581  52.042  0.00  0.00    +0.000 C 
ATOM     44  H   UNL     1      55.142  29.219  52.520  0.00  0.00    +0.000 HD
ENDBRANCH  34  43
ENDBRANCH  33  34
ENDBRANCH   2  33
TORSDOF 9
