
 OpenBabel03242516173D

 46 51  0  0  1  0  0  0  0  0999 V2000
   36.2540   26.4230   38.8050 C   0  0  0  0  0  0  0  0  0  0  0  0
   36.5300   27.1890   39.9280 C   0  0  0  0  0  0  0  0  0  0  0  0
   36.9180   26.5010   41.0730 C   0  0  0  0  0  0  0  0  0  0  0  0
   37.0160   25.1490   41.0740 N   0  0  0  0  0  0  0  0  0  0  0  0
   36.7320   24.4710   39.9480 C   0  0  0  0  0  0  0  0  0  0  0  0
   36.3600   25.0850   38.8390 N   0  0  0  0  0  0  0  0  0  0  0  0
   36.8190   23.0440   39.8870 N   0  0  0  0  0  0  0  0  0  0  0  0
   35.9480   26.9140   37.8890 H   0  0  0  0  0  0  0  0  0  0  0  0
   37.8390   22.7550   39.9270 H   0  0  0  0  0  0  0  0  0  0  0  0
   35.8520   22.6450   39.8160 H   0  0  0  0  0  0  0  0  0  0  0  0
   36.4040   28.6780   39.8890 C   0  0  0  0  0  0  0  0  0  0  0  0
   34.9890   29.2220   39.6900 C   0  0  0  0  0  0  0  0  0  0  0  0
   35.6990   29.3760   40.9430 C   0  0  0  0  0  0  0  0  0  0  0  0
   34.1980   28.4350   39.5270 H   0  0  0  0  0  0  0  0  0  0  0  0
   34.8270   30.0980   39.0440 H   0  0  0  0  0  0  0  0  0  0  0  0
   36.0620   30.3970   41.2060 H   0  0  0  0  0  0  0  0  0  0  0  0
   35.1360   28.9450   41.7760 H   0  0  0  0  0  0  0  0  0  0  0  0
   37.4380   29.4230   39.1110 C   0  0  0  0  0  0  0  0  0  0  0  0
   38.8560   28.8940   39.2690 C   0  0  0  0  0  0  0  0  0  0  0  0
   39.6830   29.7340   38.2770 C   0  0  0  0  0  0  0  0  0  0  0  0
   39.8420   30.9900   38.8770 O   0  0  0  0  0  0  0  0  0  0  0  0
   38.5590   31.5760   38.6950 C   0  0  0  0  0  0  0  0  0  0  0  0
   37.5480   30.8770   39.5860 C   0  0  0  0  0  0  0  0  0  0  0  0
   37.2150   29.4290   38.0330 H   0  0  0  0  0  0  0  0  0  0  0  0
   39.2250   28.9900   40.2940 H   0  0  0  0  0  0  0  0  0  0  0  0
   38.8950   27.8610   38.8700 H   0  0  0  0  0  0  0  0  0  0  0  0
   40.6480   29.2350   38.1010 H   0  0  0  0  0  0  0  0  0  0  0  0
   39.0800   29.8070   37.3440 H   0  0  0  0  0  0  0  0  0  0  0  0
   38.2470   31.5620   37.6500 H   0  0  0  0  0  0  0  0  0  0  0  0
   38.6560   32.6040   39.1190 H   0  0  0  0  0  0  0  0  0  0  0  0
   36.5650   31.3390   39.3580 H   0  0  0  0  0  0  0  0  0  0  0  0
   37.8480   30.9480   40.6290 H   0  0  0  0  0  0  0  0  0  0  0  0
   37.1870   27.1740   42.3270 C   0  0  2  0  0  3  0  0  0  0  0  0
   36.3760   27.5160   43.2450 O   0  0  0  0  0  0  0  0  0  0  0  0
   41.0400   25.9110   42.0380 C   0  0  0  0  0  0  0  0  0  0  0  0
   41.2140   27.3750   42.2270 C   0  0  0  0  0  2  0  0  0  0  0  0
   39.9860   27.9480   42.6680 N   0  0  0  0  0  0  0  0  0  0  0  0
   38.9130   28.8580   42.7590 C   0  0  0  0  0  0  0  0  0  0  0  0
   38.7090   30.0850   42.4750 O   0  0  0  0  0  0  0  0  0  0  0  0
   38.0280   27.8150   43.3470 C   0  0  2  0  0  0  0  0  0  0  0  0
   39.3540   27.1610   43.6800 C   0  0  1  0  0  3  0  0  0  0  0  0
   39.5280   25.4860   42.9490 S   0  0  0  0  0  0  0  0  0  0  0  0
   40.9950   25.4380   40.6190 C   0  0  0  0  0  2  0  0  0  0  0  0
   39.9850   25.0450   40.3130 H   0  0  0  0  0  0  0  0  0  0  0  0
   42.1980   25.2410   42.7890 C   0  0  0  0  0  2  0  0  0  0  0  0
   43.1060   25.1980   42.1470 H   0  0  0  0  0  0  0  0  0  0  0  0
  1  6  2  0  0  0  0
  1  2  1  0  0  0  0
  2  3  2  0  0  0  0
  3  4  1  0  0  0  0
  5  4  2  0  0  0  0
  6  5  1  0  0  0  0
  7  9  1  0  0  0  0
  7  5  1  0  0  0  0
  8  1  1  0  0  0  0
 10  7  1  0  0  0  0
 11  2  1  0  0  0  0
 11 13  1  0  0  0  0
 12 11  1  0  0  0  0
 12 13  1  0  0  0  0
 13 16  1  0  0  0  0
 13 17  1  0  0  0  0
 14 12  1  0  0  0  0
 15 12  1  0  0  0  0
 18 19  1  0  0  0  0
 18 23  1  0  0  0  0
 18 11  1  0  0  0  0
 19 25  1  0  0  0  0
 20 21  1  0  0  0  0
 20 19  1  0  0  0  0
 22 21  1  0  0  0  0
 22 30  1  0  0  0  0
 22 23  1  0  0  0  0
 23 32  1  0  0  0  0
 24 18  1  0  0  0  0
 26 19  1  0  0  0  0
 27 20  1  0  0  0  0
 28 20  1  0  0  0  0
 29 22  1  0  0  0  0
 31 23  1  0  0  0  0
 33  3  1  6  0  0  0
 33 34  1  0  0  0  0
 33 40  1  0  0  0  0
 34 40  1  0  0  0  0
 35 36  1  0  0  0  0
 35 45  1  0  0  0  0
 35 42  1  0  0  0  0
 36 37  1  0  0  0  0
 37 38  1  0  0  0  0
 37 41  1  0  0  0  0
 39 38  2  0  0  0  0
 40 38  1  6  0  0  0
 40 41  1  0  0  0  0
 41 42  1  6  0  0  0
 43 35  1  0  0  0  0
 44 43  1  0  0  0  0
 46 45  1  0  0  0  0
M  END
>  <minimizedAffinity>
-5.95530462

$$$$

 OpenBabel03242516173D

 46 51  0  0  1  0  0  0  0  0999 V2000
   38.1160   28.5790   38.4630 C   0  0  0  0  0  0  0  0  0  0  0  0
   38.2860   29.5260   39.4610 C   0  0  0  0  0  0  0  0  0  0  0  0
   39.4630   30.2660   39.4280 C   0  0  0  0  0  0  0  0  0  0  0  0
   40.3890   30.0590   38.4590 N   0  0  0  0  0  0  0  0  0  0  0  0
   40.1570   29.1230   37.5220 C   0  0  0  0  0  0  0  0  0  0  0  0
   39.0520   28.3980   37.5170 N   0  0  0  0  0  0  0  0  0  0  0  0
   41.0950   28.8590   36.4730 N   0  0  0  0  0  0  0  0  0  0  0  0
   37.2140   27.9780   38.4470 H   0  0  0  0  0  0  0  0  0  0  0  0
   41.1040   29.6790   35.8000 H   0  0  0  0  0  0  0  0  0  0  0  0
   41.5340   27.9210   36.6350 H   0  0  0  0  0  0  0  0  0  0  0  0
   37.2450   29.7210   40.5170 C   0  0  0  0  0  0  0  0  0  0  0  0
   36.7160   31.1470   40.6770 C   0  0  0  0  0  0  0  0  0  0  0  0
   35.8920   30.0790   40.1490 C   0  0  0  0  0  0  0  0  0  0  0  0
   37.2190   31.9140   40.0210 H   0  0  0  0  0  0  0  0  0  0  0  0
   36.5150   31.5440   41.6830 H   0  0  0  0  0  0  0  0  0  0  0  0
   35.0710   29.6950   40.7980 H   0  0  0  0  0  0  0  0  0  0  0  0
   35.5090   30.3260   39.1540 H   0  0  0  0  0  0  0  0  0  0  0  0
   37.4660   29.0230   41.8200 C   0  0  0  0  0  0  0  0  0  0  0  0
   38.7140   28.1540   41.8710 C   0  0  0  0  0  0  0  0  0  0  0  0
   38.7760   27.6730   43.3330 C   0  0  0  0  0  0  0  0  0  0  0  0
   37.8000   26.6750   43.4510 O   0  0  0  0  0  0  0  0  0  0  0  0
   36.5970   27.4330   43.4860 C   0  0  0  0  0  0  0  0  0  0  0  0
   36.3330   28.0350   42.1170 C   0  0  0  0  0  0  0  0  0  0  0  0
   37.5340   29.7330   42.6580 H   0  0  0  0  0  0  0  0  0  0  0  0
   38.6690   27.3190   41.1660 H   0  0  0  0  0  0  0  0  0  0  0  0
   39.6040   28.8030   41.7460 H   0  0  0  0  0  0  0  0  0  0  0  0
   39.7860   27.2900   43.5420 H   0  0  0  0  0  0  0  0  0  0  0  0
   38.5300   28.5550   43.9670 H   0  0  0  0  0  0  0  0  0  0  0  0
   36.6180   28.1990   44.2620 H   0  0  0  0  0  0  0  0  0  0  0  0
   35.7900   26.6740   43.6290 H   0  0  0  0  0  0  0  0  0  0  0  0
   35.4180   28.6540   42.2240 H   0  0  0  0  0  0  0  0  0  0  0  0
   36.2610   27.2510   41.3650 H   0  0  0  0  0  0  0  0  0  0  0  0
   39.7890   31.2500   40.4380 C   0  0  2  0  0  3  0  0  0  0  0  0
   40.0540   31.0800   41.6710 O   0  0  0  0  0  0  0  0  0  0  0  0
   42.7830   33.0710   38.3780 C   0  0  0  0  0  0  0  0  0  0  0  0
   41.7790   34.1610   38.4800 C   0  0  0  0  0  2  0  0  0  0  0  0
   40.7920   33.8120   39.4470 N   0  0  0  0  0  0  0  0  0  0  0  0
   39.5210   33.6520   40.0350 C   0  0  0  0  0  0  0  0  0  0  0  0
   38.3600   34.1610   39.8910 O   0  0  0  0  0  0  0  0  0  0  0  0
   40.0370   32.6030   40.9570 C   0  0  2  0  0  0  0  0  0  0  0  0
   41.3670   33.2510   40.6280 C   0  0  1  0  0  3  0  0  0  0  0  0
   42.5670   32.0780   39.8830 S   0  0  0  0  0  0  0  0  0  0  0  0
   42.7170   32.2360   37.1380 C   0  0  0  0  0  2  0  0  0  0  0  0
   42.3910   31.1750   37.3330 H   0  0  0  0  0  0  0  0  0  0  0  0
   44.1590   33.7410   38.4980 C   0  0  0  0  0  2  0  0  0  0  0  0
   44.4950   34.1190   37.5070 H   0  0  0  0  0  0  0  0  0  0  0  0
  1  2  1  0  0  0  0
  2 11  1  0  0  0  0
  3  2  2  0  0  0  0
  4  3  1  0  0  0  0
  5  4  2  0  0  0  0
  6  5  1  0  0  0  0
  6  1  2  0  0  0  0
  7 10  1  0  0  0  0
  7  5  1  0  0  0  0
  8  1  1  0  0  0  0
  9  7  1  0  0  0  0
 11 12  1  0  0  0  0
 11 18  1  0  0  0  0
 12 15  1  0  0  0  0
 13 11  1  0  0  0  0
 13 12  1  0  0  0  0
 13 16  1  0  0  0  0
 14 12  1  0  0  0  0
 17 13  1  0  0  0  0
 18 19  1  0  0  0  0
 18 23  1  0  0  0  0
 18 24  1  0  0  0  0
 19 20  1  0  0  0  0
 20 21  1  0  0  0  0
 20 27  1  0  0  0  0
 20 28  1  0  0  0  0
 21 22  1  0  0  0  0
 22 30  1  0  0  0  0
 22 29  1  0  0  0  0
 23 31  1  0  0  0  0
 23 22  1  0  0  0  0
 25 19  1  0  0  0  0
 26 19  1  0  0  0  0
 32 23  1  0  0  0  0
 33  3  1  1  0  0  0
 33 40  1  0  0  0  0
 33 34  1  0  0  0  0
 35 36  1  0  0  0  0
 35 45  1  0  0  0  0
 35 42  1  0  0  0  0
 36 37  1  0  0  0  0
 37 38  1  0  0  0  0
 37 41  1  0  0  0  0
 39 38  2  0  0  0  0
 40 38  1  1  0  0  0
 40 34  1  0  0  0  0
 41 42  1  6  0  0  0
 41 40  1  0  0  0  0
 43 44  1  0  0  0  0
 43 35  1  0  0  0  0
 46 45  1  0  0  0  0
M  END
>  <minimizedAffinity>
-5.86803484

$$$$

 OpenBabel03242516173D

 46 51  0  0  1  0  0  0  0  0999 V2000
   38.5340   29.8790   37.5280 C   0  0  0  0  0  0  0  0  0  0  0  0
   38.2490   30.1860   38.8500 C   0  0  0  0  0  0  0  0  0  0  0  0
   37.9330   29.1190   39.6850 C   0  0  0  0  0  0  0  0  0  0  0  0
   37.9110   27.8480   39.2140 N   0  0  0  0  0  0  0  0  0  0  0  0
   38.1970   27.6250   37.9190 C   0  0  0  0  0  0  0  0  0  0  0  0
   38.5020   28.6090   37.0920 N   0  0  0  0  0  0  0  0  0  0  0  0
   38.1910   26.3060   37.3630 N   0  0  0  0  0  0  0  0  0  0  0  0
   38.7860   30.6760   36.8390 H   0  0  0  0  0  0  0  0  0  0  0  0
   39.0180   25.7620   37.7480 H   0  0  0  0  0  0  0  0  0  0  0  0
   37.3720   26.2110   36.7160 H   0  0  0  0  0  0  0  0  0  0  0  0
   38.2770   31.6010   39.3310 C   0  0  0  0  0  0  0  0  0  0  0  0
   37.1800   32.5140   38.7830 C   0  0  0  0  0  0  0  0  0  0  0  0
   37.2130   32.1060   40.1720 C   0  0  0  0  0  0  0  0  0  0  0  0
   36.5020   32.0340   38.0200 H   0  0  0  0  0  0  0  0  0  0  0  0
   37.4180   33.5540   38.5150 H   0  0  0  0  0  0  0  0  0  0  0  0
   37.4870   32.8780   40.9280 H   0  0  0  0  0  0  0  0  0  0  0  0
   36.2870   31.6000   40.4620 H   0  0  0  0  0  0  0  0  0  0  0  0
   39.6150   32.2630   39.4020 C   0  0  0  0  0  0  0  0  0  0  0  0
   40.7670   31.3300   39.7470 C   0  0  0  0  0  0  0  0  0  0  0  0
   42.0190   32.2200   39.6210 C   0  0  0  0  0  0  0  0  0  0  0  0
   42.0320   33.0280   40.7660 O   0  0  0  0  0  0  0  0  0  0  0  0
   41.0160   33.9810   40.4740 C   0  0  0  0  0  0  0  0  0  0  0  0
   39.6560   33.3070   40.5230 C   0  0  0  0  0  0  0  0  0  0  0  0
   39.8760   32.7620   38.4570 H   0  0  0  0  0  0  0  0  0  0  0  0
   40.6690   30.8990   40.7460 H   0  0  0  0  0  0  0  0  0  0  0  0
   40.8690   30.5790   38.9390 H   0  0  0  0  0  0  0  0  0  0  0  0
   42.9100   31.5780   39.5600 H   0  0  0  0  0  0  0  0  0  0  0  0
   41.8840   32.8290   38.6990 H   0  0  0  0  0  0  0  0  0  0  0  0
   41.1820   34.4750   39.5160 H   0  0  0  0  0  0  0  0  0  0  0  0
   41.0260   34.6780   41.3450 H   0  0  0  0  0  0  0  0  0  0  0  0
   38.9180   34.0830   40.2350 H   0  0  0  0  0  0  0  0  0  0  0  0
   39.4860   32.8660   41.5040 H   0  0  0  0  0  0  0  0  0  0  0  0
   37.5670   29.3040   41.0730 C   0  0  2  0  0  3  0  0  0  0  0  0
   36.4150   29.4910   41.5830 O   0  0  0  0  0  0  0  0  0  0  0  0
   39.8250   26.2070   42.4260 C   0  0  0  0  0  0  0  0  0  0  0  0
   40.4600   27.3650   43.1060 C   0  0  0  0  0  2  0  0  0  0  0  0
   39.6080   28.5030   43.0080 N   0  0  0  0  0  0  0  0  0  0  0  0
   39.2130   29.8410   42.8060 C   0  0  0  0  0  0  0  0  0  0  0  0
   39.7690   30.9890   42.8410 O   0  0  0  0  0  0  0  0  0  0  0  0
   37.8130   29.4250   42.5170 C   0  0  2  0  0  0  0  0  0  0  0  0
   38.2410   28.1780   43.2660 C   0  0  1  0  0  3  0  0  0  0  0  0
   38.0710   26.6500   42.2620 S   0  0  0  0  0  0  0  0  0  0  0  0
   40.4290   25.8060   41.1170 C   0  0  0  0  0  2  0  0  0  0  0  0
   39.7510   25.9960   40.2380 H   0  0  0  0  0  0  0  0  0  0  0  0
   39.8820   25.0400   43.4210 C   0  0  0  0  0  2  0  0  0  0  0  0
   40.8630   24.5180   43.3530 H   0  0  0  0  0  0  0  0  0  0  0  0
  1  2  1  0  0  0  0
  2 11  1  0  0  0  0
  2  3  2  0  0  0  0
  4  3  1  0  0  0  0
  5  4  2  0  0  0  0
  6  1  2  0  0  0  0
  6  5  1  0  0  0  0
  7  9  1  0  0  0  0
  7  5  1  0  0  0  0
  8  1  1  0  0  0  0
 10  7  1  0  0  0  0
 11 18  1  0  0  0  0
 11 13  1  0  0  0  0
 12 11  1  0  0  0  0
 12 13  1  0  0  0  0
 13 17  1  0  0  0  0
 13 16  1  0  0  0  0
 14 12  1  0  0  0  0
 15 12  1  0  0  0  0
 18 19  1  0  0  0  0
 18 23  1  0  0  0  0
 19 25  1  0  0  0  0
 20 19  1  0  0  0  0
 20 21  1  0  0  0  0
 22 23  1  0  0  0  0
 22 21  1  0  0  0  0
 22 30  1  0  0  0  0
 23 32  1  0  0  0  0
 24 18  1  0  0  0  0
 26 19  1  0  0  0  0
 27 20  1  0  0  0  0
 28 20  1  0  0  0  0
 29 22  1  0  0  0  0
 31 23  1  0  0  0  0
 33  3  1  6  0  0  0
 33 34  1  0  0  0  0
 33 40  1  0  0  0  0
 35 36  1  0  0  0  0
 35 45  1  0  0  0  0
 37 36  1  0  0  0  0
 37 41  1  0  0  0  0
 38 39  2  0  0  0  0
 38 37  1  0  0  0  0
 40 34  1  1  0  0  0
 40 38  1  0  0  0  0
 40 41  1  0  0  0  0
 41 42  1  6  0  0  0
 42 35  1  0  0  0  0
 43 35  1  0  0  0  0
 44 43  1  0  0  0  0
 46 45  1  0  0  0  0
M  END
>  <minimizedAffinity>
-5.78230906

$$$$

 OpenBabel03242516173D

 46 51  0  0  1  0  0  0  0  0999 V2000
   36.4230   29.9400   41.6670 C   0  0  0  0  0  0  0  0  0  0  0  0
   37.6000   29.2190   41.5310 C   0  0  0  0  0  0  0  0  0  0  0  0
   38.5700   29.7590   40.6920 C   0  0  0  0  0  0  0  0  0  0  0  0
   38.3570   30.9320   40.0470 N   0  0  0  0  0  0  0  0  0  0  0  0
   37.1910   31.5760   40.2260 C   0  0  0  0  0  0  0  0  0  0  0  0
   36.2440   31.0990   41.0140 N   0  0  0  0  0  0  0  0  0  0  0  0
   36.9100   32.8190   39.5740 N   0  0  0  0  0  0  0  0  0  0  0  0
   35.6380   29.5600   42.3110 H   0  0  0  0  0  0  0  0  0  0  0  0
   37.5150   33.5800   39.9980 H   0  0  0  0  0  0  0  0  0  0  0  0
   36.1750   32.6620   38.8420 H   0  0  0  0  0  0  0  0  0  0  0  0
   37.7930   27.9250   42.2540 C   0  0  0  0  0  0  0  0  0  0  0  0
   38.9380   27.8920   43.2670 C   0  0  0  0  0  0  0  0  0  0  0  0
   37.5510   27.8430   43.6780 C   0  0  0  0  0  0  0  0  0  0  0  0
   39.5580   28.8340   43.3120 H   0  0  0  0  0  0  0  0  0  0  0  0
   39.5650   26.9920   43.3540 H   0  0  0  0  0  0  0  0  0  0  0  0
   37.1650   26.8740   44.0730 H   0  0  0  0  0  0  0  0  0  0  0  0
   37.3100   28.6580   44.3680 H   0  0  0  0  0  0  0  0  0  0  0  0
   37.6880   26.6760   41.4420 C   0  0  0  0  0  0  0  0  0  0  0  0
   36.7680   26.7800   40.2330 C   0  0  0  0  0  0  0  0  0  0  0  0
   36.9450   25.4300   39.5110 C   0  0  0  0  0  0  0  0  0  0  0  0
   36.2230   24.4950   40.2650 O   0  0  0  0  0  0  0  0  0  0  0  0
   37.0730   24.2920   41.3870 C   0  0  0  0  0  0  0  0  0  0  0  0
   37.0700   25.5350   42.2590 C   0  0  0  0  0  0  0  0  0  0  0  0
   38.6690   26.3430   41.0720 H   0  0  0  0  0  0  0  0  0  0  0  0
   35.7280   26.9610   40.5150 H   0  0  0  0  0  0  0  0  0  0  0  0
   37.1850   27.5330   39.5350 H   0  0  0  0  0  0  0  0  0  0  0  0
   36.5590   25.5200   38.4850 H   0  0  0  0  0  0  0  0  0  0  0  0
   38.0350   25.2040   39.5250 H   0  0  0  0  0  0  0  0  0  0  0  0
   38.0840   24.0150   41.0910 H   0  0  0  0  0  0  0  0  0  0  0  0
   36.5550   23.5110   41.9950 H   0  0  0  0  0  0  0  0  0  0  0  0
   37.7880   25.3360   43.0810 H   0  0  0  0  0  0  0  0  0  0  0  0
   36.0590   25.7650   42.5900 H   0  0  0  0  0  0  0  0  0  0  0  0
   39.8220   29.0850   40.4220 C   0  0  2  0  0  3  0  0  0  0  0  0
   40.0450   28.0610   39.6990 O   0  0  0  0  0  0  0  0  0  0  0  0
   41.8880   32.1550   38.7400 C   0  0  0  0  0  0  0  0  0  0  0  0
   42.6450   31.9330   39.9990 C   0  0  0  0  0  2  0  0  0  0  0  0
   42.2640   30.6850   40.5720 N   0  0  0  0  0  0  0  0  0  0  0  0
   41.8930   29.7440   41.5530 C   0  0  0  0  0  0  0  0  0  0  0  0
   42.0080   29.6250   42.8180 O   0  0  0  0  0  0  0  0  0  0  0  0
   41.2710   28.8620   40.5260 C   0  0  2  0  0  0  0  0  0  0  0  0
   42.1730   29.6470   39.5950 C   0  0  1  0  0  3  0  0  0  0  0  0
   41.2470   30.5210   38.2720 S   0  0  0  0  0  0  0  0  0  0  0  0
   40.8070   33.1880   38.8010 C   0  0  0  0  0  2  0  0  0  0  0  0
   39.7720   32.7540   38.7050 H   0  0  0  0  0  0  0  0  0  0  0  0
   42.9270   32.5300   37.6740 C   0  0  0  0  0  2  0  0  0  0  0  0
   43.1460   33.6200   37.7120 H   0  0  0  0  0  0  0  0  0  0  0  0
  1  8  1  0  0  0  0
  2  1  1  0  0  0  0
  2 11  1  0  0  0  0
  3  2  2  0  0  0  0
  4  5  2  0  0  0  0
  4  3  1  0  0  0  0
  5  6  1  0  0  0  0
  6  1  2  0  0  0  0
  7  9  1  0  0  0  0
  7  5  1  0  0  0  0
 10  7  1  0  0  0  0
 11 12  1  0  0  0  0
 11 13  1  0  0  0  0
 12 14  1  0  0  0  0
 12 15  1  0  0  0  0
 12 13  1  0  0  0  0
 13 16  1  0  0  0  0
 13 17  1  0  0  0  0
 18 11  1  0  0  0  0
 18 23  1  0  0  0  0
 19 25  1  0  0  0  0
 19 18  1  0  0  0  0
 20 28  1  0  0  0  0
 20 19  1  0  0  0  0
 20 21  1  0  0  0  0
 21 22  1  0  0  0  0
 22 30  1  0  0  0  0
 22 23  1  0  0  0  0
 23 32  1  0  0  0  0
 23 31  1  0  0  0  0
 24 18  1  0  0  0  0
 26 19  1  0  0  0  0
 27 20  1  0  0  0  0
 29 22  1  0  0  0  0
 33 40  1  0  0  0  0
 33  3  1  1  0  0  0
 34 33  1  0  0  0  0
 35 43  1  0  0  0  0
 35 36  1  0  0  0  0
 36 37  1  0  0  0  0
 37 38  1  0  0  0  0
 38 39  2  0  0  0  0
 40 34  1  1  0  0  0
 40 38  1  0  0  0  0
 41 42  1  6  0  0  0
 41 40  1  0  0  0  0
 41 37  1  0  0  0  0
 42 35  1  0  0  0  0
 44 43  1  0  0  0  0
 45 46  1  0  0  0  0
 45 35  1  0  0  0  0
M  END
>  <minimizedAffinity>
-5.75772667

$$$$

 OpenBabel03242516173D

 46 51  0  0  1  0  0  0  0  0999 V2000
   36.3560   29.6480   36.8890 C   0  0  0  0  0  0  0  0  0  0  0  0
   36.6080   29.8740   38.2340 C   0  0  0  0  0  0  0  0  0  0  0  0
   37.2920   31.0420   38.5550 C   0  0  0  0  0  0  0  0  0  0  0  0
   37.6860   31.9060   37.5870 N   0  0  0  0  0  0  0  0  0  0  0  0
   37.4080   31.6220   36.3030 C   0  0  0  0  0  0  0  0  0  0  0  0
   36.7600   30.5240   35.9550 N   0  0  0  0  0  0  0  0  0  0  0  0
   37.7960   32.4950   35.2370 N   0  0  0  0  0  0  0  0  0  0  0  0
   35.8260   28.7510   36.5900 H   0  0  0  0  0  0  0  0  0  0  0  0
   37.2070   33.3770   35.2780 H   0  0  0  0  0  0  0  0  0  0  0  0
   38.5630   32.0420   34.6850 H   0  0  0  0  0  0  0  0  0  0  0  0
   36.1640   28.8930   39.2720 C   0  0  0  0  0  0  0  0  0  0  0  0
   34.8960   29.2650   40.0400 C   0  0  0  0  0  0  0  0  0  0  0  0
   34.9260   28.1640   39.1010 C   0  0  0  0  0  0  0  0  0  0  0  0
   34.4670   30.2770   39.7850 H   0  0  0  0  0  0  0  0  0  0  0  0
   34.8320   29.0600   41.1190 H   0  0  0  0  0  0  0  0  0  0  0  0
   34.8840   27.1310   39.5190 H   0  0  0  0  0  0  0  0  0  0  0  0
   34.1740   28.2880   38.3160 H   0  0  0  0  0  0  0  0  0  0  0  0
   37.2260   28.2990   40.1370 C   0  0  0  0  0  0  0  0  0  0  0  0
   38.0340   27.1890   39.4790 C   0  0  0  0  0  0  0  0  0  0  0  0
   39.1250   26.8560   40.5150 C   0  0  0  0  0  0  0  0  0  0  0  0
   38.4880   26.1090   41.5160 O   0  0  0  0  0  0  0  0  0  0  0  0
   37.7660   27.1090   42.2250 C   0  0  0  0  0  0  0  0  0  0  0  0
   36.6190   27.6130   41.3670 C   0  0  0  0  0  0  0  0  0  0  0  0
   37.9440   29.0570   40.4850 H   0  0  0  0  0  0  0  0  0  0  0  0
   37.4220   26.3180   39.2330 H   0  0  0  0  0  0  0  0  0  0  0  0
   38.5830   27.6150   38.6160 H   0  0  0  0  0  0  0  0  0  0  0  0
   39.9260   26.2860   40.0220 H   0  0  0  0  0  0  0  0  0  0  0  0
   39.4940   27.8280   40.9120 H   0  0  0  0  0  0  0  0  0  0  0  0
   38.4100   27.9260   42.5500 H   0  0  0  0  0  0  0  0  0  0  0  0
   37.2780   26.5610   43.0660 H   0  0  0  0  0  0  0  0  0  0  0  0
   36.1320   28.4230   41.9480 H   0  0  0  0  0  0  0  0  0  0  0  0
   35.9570   26.7920   41.0960 H   0  0  0  0  0  0  0  0  0  0  0  0
   37.6630   31.3740   39.9140 C   0  0  2  0  0  3  0  0  0  0  0  0
   36.9160   31.6010   40.9190 O   0  0  0  0  0  0  0  0  0  0  0  0
   41.5100   31.3700   38.6010 C   0  0  0  0  0  0  0  0  0  0  0  0
   41.4880   32.5740   39.4720 C   0  0  0  0  0  2  0  0  0  0  0  0
   40.3110   32.5600   40.2750 N   0  0  0  0  0  0  0  0  0  0  0  0
   39.1540   33.0330   40.9270 C   0  0  0  0  0  0  0  0  0  0  0  0
   38.7020   34.1610   41.3160 O   0  0  0  0  0  0  0  0  0  0  0  0
   38.5940   31.6560   41.0150 C   0  0  2  0  0  0  0  0  0  0  0  0
   40.0480   31.2690   40.8260 C   0  0  1  0  0  3  0  0  0  0  0  0
   40.3190   30.2190   39.3440 S   0  0  0  0  0  0  0  0  0  0  0  0
   41.2320   31.6100   37.1500 C   0  0  0  0  0  2  0  0  0  0  0  0
   40.2550   31.1680   36.8060 H   0  0  0  0  0  0  0  0  0  0  0  0
   42.8950   30.7340   38.7830 C   0  0  0  0  0  2  0  0  0  0  0  0
   43.6360   31.2150   38.1060 H   0  0  0  0  0  0  0  0  0  0  0  0
  1  2  1  0  0  0  0
  2  3  2  0  0  0  0
  2 11  1  0  0  0  0
  4  3  1  0  0  0  0
  5  4  2  0  0  0  0
  6  5  1  0  0  0  0
  6  1  2  0  0  0  0
  7  9  1  0  0  0  0
  7  5  1  0  0  0  0
  8  1  1  0  0  0  0
 10  7  1  0  0  0  0
 11 12  1  0  0  0  0
 11 18  1  0  0  0  0
 12 15  1  0  0  0  0
 13 11  1  0  0  0  0
 13 16  1  0  0  0  0
 13 12  1  0  0  0  0
 14 12  1  0  0  0  0
 17 13  1  0  0  0  0
 18 24  1  0  0  0  0
 18 23  1  0  0  0  0
 19 18  1  0  0  0  0
 19 20  1  0  0  0  0
 20 28  1  0  0  0  0
 20 21  1  0  0  0  0
 21 22  1  0  0  0  0
 22 29  1  0  0  0  0
 22 30  1  0  0  0  0
 23 31  1  0  0  0  0
 23 22  1  0  0  0  0
 25 19  1  0  0  0  0
 26 19  1  0  0  0  0
 27 20  1  0  0  0  0
 32 23  1  0  0  0  0
 33  3  1  6  0  0  0
 33 34  1  0  0  0  0
 33 40  1  0  0  0  0
 35 45  1  0  0  0  0
 35 42  1  0  0  0  0
 35 36  1  0  0  0  0
 36 37  1  0  0  0  0
 37 41  1  0  0  0  0
 37 38  1  0  0  0  0
 38 40  1  0  0  0  0
 38 39  2  0  0  0  0
 40 34  1  1  0  0  0
 41 42  1  6  0  0  0
 41 40  1  0  0  0  0
 43 35  1  0  0  0  0
 44 43  1  0  0  0  0
 46 45  1  0  0  0  0
M  END
>  <minimizedAffinity>
-5.74854994

$$$$

 OpenBabel03242516173D

 46 51  0  0  1  0  0  0  0  0999 V2000
   36.8910   30.0450   38.0910 C   0  0  0  0  0  0  0  0  0  0  0  0
   37.2060   28.7010   38.2230 C   0  0  0  0  0  0  0  0  0  0  0  0
   36.9750   28.1240   39.4680 C   0  0  0  0  0  0  0  0  0  0  0  0
   36.4660   28.8550   40.4910 N   0  0  0  0  0  0  0  0  0  0  0  0
   36.1840   30.1540   40.2900 C   0  0  0  0  0  0  0  0  0  0  0  0
   36.3880   30.7410   39.1240 N   0  0  0  0  0  0  0  0  0  0  0  0
   35.6450   30.9770   41.3290 N   0  0  0  0  0  0  0  0  0  0  0  0
   37.0530   30.5380   37.1400 H   0  0  0  0  0  0  0  0  0  0  0  0
   34.6430   30.6820   41.5220 H   0  0  0  0  0  0  0  0  0  0  0  0
   36.3750   31.6640   41.6360 H   0  0  0  0  0  0  0  0  0  0  0  0
   37.7720   27.9300   37.0740 C   0  0  0  0  0  0  0  0  0  0  0  0
   36.7920   27.0160   36.3370 C   0  0  0  0  0  0  0  0  0  0  0  0
   37.3350   28.2100   35.7230 C   0  0  0  0  0  0  0  0  0  0  0  0
   35.7570   26.9740   36.7850 H   0  0  0  0  0  0  0  0  0  0  0  0
   37.1240   26.0260   35.9910 H   0  0  0  0  0  0  0  0  0  0  0  0
   38.0840   28.0740   34.9090 H   0  0  0  0  0  0  0  0  0  0  0  0
   36.5400   28.8900   35.4010 H   0  0  0  0  0  0  0  0  0  0  0  0
   39.1180   27.3140   37.2730 C   0  0  0  0  0  0  0  0  0  0  0  0
   40.2880   28.2100   36.8940 C   0  0  0  0  0  0  0  0  0  0  0  0
   41.5310   27.4020   37.3160 C   0  0  0  0  0  0  0  0  0  0  0  0
   41.6870   26.4030   36.3450 O   0  0  0  0  0  0  0  0  0  0  0  0
   40.6590   25.4830   36.6920 C   0  0  0  0  0  0  0  0  0  0  0  0
   39.3040   26.0880   36.3710 C   0  0  0  0  0  0  0  0  0  0  0  0
   39.2760   27.0010   38.3160 H   0  0  0  0  0  0  0  0  0  0  0  0
   40.3000   28.4520   35.8280 H   0  0  0  0  0  0  0  0  0  0  0  0
   40.2860   29.0970   37.5590 H   0  0  0  0  0  0  0  0  0  0  0  0
   42.3990   28.0760   37.3580 H   0  0  0  0  0  0  0  0  0  0  0  0
   41.2990   26.9630   38.3130 H   0  0  0  0  0  0  0  0  0  0  0  0
   40.7210   25.1740   37.7350 H   0  0  0  0  0  0  0  0  0  0  0  0
   40.7790   24.6420   35.9680 H   0  0  0  0  0  0  0  0  0  0  0  0
   38.5490   25.3510   36.7120 H   0  0  0  0  0  0  0  0  0  0  0  0
   39.2420   26.3410   35.3140 H   0  0  0  0  0  0  0  0  0  0  0  0
   37.3060   26.7450   39.7570 C   0  0  1  0  0  3  0  0  0  0  0  0
   36.7530   25.6800   39.3340 O   0  0  0  0  0  0  0  0  0  0  0  0
   39.8070   28.1800   42.6230 C   0  0  0  0  0  0  0  0  0  0  0  0
   39.2260   26.9880   43.2950 C   0  0  0  0  0  2  0  0  0  0  0  0
   38.5660   26.1710   42.3320 N   0  0  0  0  0  0  0  0  0  0  0  0
   37.5730   25.3540   41.7550 C   0  0  0  0  0  0  0  0  0  0  0  0
   36.6130   24.6240   42.1720 O   0  0  0  0  0  0  0  0  0  0  0  0
   38.0670   25.6550   40.3830 C   0  0  2  0  0  0  0  0  0  0  0  0
   39.3320   26.0200   41.1350 C   0  0  1  0  0  3  0  0  0  0  0  0
   39.8510   27.7590   40.8570 S   0  0  0  0  0  0  0  0  0  0  0  0
   39.1060   29.4780   42.8750 C   0  0  0  0  0  2  0  0  0  0  0  0
   38.5930   29.8910   41.9620 H   0  0  0  0  0  0  0  0  0  0  0  0
   41.2690   28.2620   43.0820 C   0  0  0  0  0  2  0  0  0  0  0  0
   41.3420   28.7980   44.0540 H   0  0  0  0  0  0  0  0  0  0  0  0
  1  2  2  0  0  0  0
  1  6  1  0  0  0  0
  2  3  1  0  0  0  0
  3  4  2  0  0  0  0
  5  4  1  0  0  0  0
  5  7  1  0  0  0  0
  6  5  2  0  0  0  0
  7  9  1  0  0  0  0
  7 10  1  0  0  0  0
  8  1  1  0  0  0  0
 11 18  1  0  0  0  0
 11  2  1  0  0  0  0
 12 14  1  0  0  0  0
 12 11  1  0  0  0  0
 13 12  1  0  0  0  0
 13 11  1  0  0  0  0
 15 12  1  0  0  0  0
 16 13  1  0  0  0  0
 17 13  1  0  0  0  0
 18 24  1  0  0  0  0
 19 18  1  0  0  0  0
 19 20  1  0  0  0  0
 19 26  1  0  0  0  0
 20 27  1  0  0  0  0
 20 28  1  0  0  0  0
 21 22  1  0  0  0  0
 21 20  1  0  0  0  0
 22 29  1  0  0  0  0
 23 22  1  0  0  0  0
 23 31  1  0  0  0  0
 23 18  1  0  0  0  0
 25 19  1  0  0  0  0
 30 22  1  0  0  0  0
 32 23  1  0  0  0  0
 33  3  1  6  0  0  0
 33 40  1  0  0  0  0
 34 33  1  0  0  0  0
 35 43  1  0  0  0  0
 35 45  1  0  0  0  0
 35 36  1  0  0  0  0
 37 36  1  0  0  0  0
 38 39  2  0  0  0  0
 38 37  1  0  0  0  0
 40 34  1  6  0  0  0
 40 41  1  0  0  0  0
 40 38  1  0  0  0  0
 41 42  1  6  0  0  0
 41 37  1  0  0  0  0
 42 35  1  0  0  0  0
 44 43  1  0  0  0  0
 45 46  1  0  0  0  0
M  END
>  <minimizedAffinity>
-5.65286875

$$$$

 OpenBabel03242516173D

 46 51  0  0  1  0  0  0  0  0999 V2000
   36.9040   30.4920   38.0370 C   0  0  0  0  0  0  0  0  0  0  0  0
   37.4140   29.6420   39.0070 C   0  0  0  0  0  0  0  0  0  0  0  0
   38.7790   29.7310   39.2620 C   0  0  0  0  0  0  0  0  0  0  0  0
   39.5580   30.6110   38.5850 N   0  0  0  0  0  0  0  0  0  0  0  0
   38.9950   31.4040   37.6580 C   0  0  0  0  0  0  0  0  0  0  0  0
   37.7030   31.3520   37.3860 N   0  0  0  0  0  0  0  0  0  0  0  0
   39.7640   32.3540   36.9120 N   0  0  0  0  0  0  0  0  0  0  0  0
   35.8470   30.4600   37.8050 H   0  0  0  0  0  0  0  0  0  0  0  0
   40.0620   33.1430   37.5570 H   0  0  0  0  0  0  0  0  0  0  0  0
   39.8370   32.0300   35.9180 H   0  0  0  0  0  0  0  0  0  0  0  0
   36.5240   28.6800   39.7270 C   0  0  0  0  0  0  0  0  0  0  0  0
   36.0230   29.1330   41.0980 C   0  0  0  0  0  0  0  0  0  0  0  0
   35.1350   29.0090   39.9620 C   0  0  0  0  0  0  0  0  0  0  0  0
   36.4350   30.1230   41.4490 H   0  0  0  0  0  0  0  0  0  0  0  0
   35.9580   28.4070   41.9230 H   0  0  0  0  0  0  0  0  0  0  0  0
   34.4070   28.1640   39.9680 H   0  0  0  0  0  0  0  0  0  0  0  0
   34.6220   29.9530   39.7510 H   0  0  0  0  0  0  0  0  0  0  0  0
   36.9170   27.2390   39.6880 C   0  0  0  0  0  0  0  0  0  0  0  0
   36.0680   26.3740   38.7680 C   0  0  0  0  0  0  0  0  0  0  0  0
   36.7560   24.9960   38.8090 C   0  0  0  0  0  0  0  0  0  0  0  0
   36.4060   24.4280   40.0410 O   0  0  0  0  0  0  0  0  0  0  0  0
   37.2300   25.1480   40.9500 C   0  0  0  0  0  0  0  0  0  0  0  0
   36.7370   26.5800   41.0600 C   0  0  0  0  0  0  0  0  0  0  0  0
   37.9640   27.1080   39.3770 H   0  0  0  0  0  0  0  0  0  0  0  0
   35.0250   26.3210   39.0910 H   0  0  0  0  0  0  0  0  0  0  0  0
   36.2000   26.7280   37.7260 H   0  0  0  0  0  0  0  0  0  0  0  0
   36.4010   24.3930   37.9600 H   0  0  0  0  0  0  0  0  0  0  0  0
   37.8520   25.1870   38.7500 H   0  0  0  0  0  0  0  0  0  0  0  0
   38.2820   25.1090   40.6680 H   0  0  0  0  0  0  0  0  0  0  0  0
   37.0160   24.6910   41.9460 H   0  0  0  0  0  0  0  0  0  0  0  0
   37.4480   27.0990   41.7350 H   0  0  0  0  0  0  0  0  0  0  0  0
   35.7010   26.6000   41.3950 H   0  0  0  0  0  0  0  0  0  0  0  0
   39.4470   28.8670   40.2120 C   0  0  1  0  0  3  0  0  0  0  0  0
   39.9730   27.7230   40.0270 O   0  0  0  0  0  0  0  0  0  0  0  0
   42.3040   31.4720   41.4680 C   0  0  0  0  0  0  0  0  0  0  0  0
   41.4980   31.2870   42.7030 C   0  0  0  0  0  2  0  0  0  0  0  0
   40.6390   30.1600   42.5480 N   0  0  0  0  0  0  0  0  0  0  0  0
   39.4700   29.3760   42.6080 C   0  0  0  0  0  0  0  0  0  0  0  0
   38.3870   29.3730   43.2830 O   0  0  0  0  0  0  0  0  0  0  0  0
   39.9700   28.4790   41.5300 C   0  0  2  0  0  0  0  0  0  0  0  0
   41.3090   29.0480   41.9530 C   0  0  1  0  0  3  0  0  0  0  0  0
   42.1910   29.8920   40.5810 S   0  0  0  0  0  0  0  0  0  0  0  0
   41.9180   32.6320   40.6040 C   0  0  0  0  0  2  0  0  0  0  0  0
   41.4780   32.3220   39.6150 H   0  0  0  0  0  0  0  0  0  0  0  0
   43.7630   31.6060   41.9240 C   0  0  0  0  0  2  0  0  0  0  0  0
   43.9870   32.6590   42.2060 H   0  0  0  0  0  0  0  0  0  0  0  0
  1  2  1  0  0  0  0
  2  3  2  0  0  0  0
  2 11  1  0  0  0  0
  4  3  1  0  0  0  0
  5  4  2  0  0  0  0
  6  5  1  0  0  0  0
  6  1  2  0  0  0  0
  7  9  1  0  0  0  0
  7  5  1  0  0  0  0
  8  1  1  0  0  0  0
 10  7  1  0  0  0  0
 11 13  1  0  0  0  0
 11 12  1  0  0  0  0
 12 14  1  0  0  0  0
 12 15  1  0  0  0  0
 13 16  1  0  0  0  0
 13 12  1  0  0  0  0
 17 13  1  0  0  0  0
 18 11  1  0  0  0  0
 18 23  1  0  0  0  0
 19 20  1  0  0  0  0
 19 25  1  0  0  0  0
 19 18  1  0  0  0  0
 20 21  1  0  0  0  0
 21 22  1  0  0  0  0
 22 23  1  0  0  0  0
 22 30  1  0  0  0  0
 23 32  1  0  0  0  0
 23 31  1  0  0  0  0
 24 18  1  0  0  0  0
 26 19  1  0  0  0  0
 27 20  1  0  0  0  0
 28 20  1  0  0  0  0
 29 22  1  0  0  0  0
 33  3  1  6  0  0  0
 33 40  1  0  0  0  0
 34 33  1  0  0  0  0
 35 45  1  0  0  0  0
 35 36  1  0  0  0  0
 37 38  1  0  0  0  0
 37 36  1  0  0  0  0
 38 39  2  0  0  0  0
 40 34  1  1  0  0  0
 40 41  1  0  0  0  0
 40 38  1  0  0  0  0
 41 42  1  6  0  0  0
 41 37  1  0  0  0  0
 42 35  1  0  0  0  0
 43 35  1  0  0  0  0
 44 43  1  0  0  0  0
 45 46  1  0  0  0  0
M  END
>  <minimizedAffinity>
-5.62455511

$$$$

 OpenBabel03242516173D

 46 51  0  0  1  0  0  0  0  0999 V2000
   40.4620   34.0860   40.0460 C   0  0  0  0  0  0  0  0  0  0  0  0
   41.0580   32.9880   40.6470 C   0  0  0  0  0  0  0  0  0  0  0  0
   40.2080   31.9830   41.0990 C   0  0  0  0  0  0  0  0  0  0  0  0
   38.8650   32.0890   40.9500 N   0  0  0  0  0  0  0  0  0  0  0  0
   38.3550   33.1820   40.3570 C   0  0  0  0  0  0  0  0  0  0  0  0
   39.1270   34.1590   39.9140 N   0  0  0  0  0  0  0  0  0  0  0  0
   36.9470   33.3510   40.1700 N   0  0  0  0  0  0  0  0  0  0  0  0
   41.0820   34.8930   39.6780 H   0  0  0  0  0  0  0  0  0  0  0  0
   36.6090   32.6660   39.4320 H   0  0  0  0  0  0  0  0  0  0  0  0
   36.6040   34.1080   40.8090 H   0  0  0  0  0  0  0  0  0  0  0  0
   42.5440   32.9110   40.7990 C   0  0  0  0  0  0  0  0  0  0  0  0
   43.2210   34.1600   41.3640 C   0  0  0  0  0  0  0  0  0  0  0  0
   43.1420   32.9260   42.1170 C   0  0  0  0  0  0  0  0  0  0  0  0
   42.5300   35.0330   41.5440 H   0  0  0  0  0  0  0  0  0  0  0  0
   44.1890   34.4880   40.9550 H   0  0  0  0  0  0  0  0  0  0  0  0
   44.0840   32.3450   42.2530 H   0  0  0  0  0  0  0  0  0  0  0  0
   42.6460   33.0770   43.0800 H   0  0  0  0  0  0  0  0  0  0  0  0
   43.3050   32.2810   39.6790 C   0  0  0  0  0  0  0  0  0  0  0  0
   42.4450   31.7920   38.5230 C   0  0  0  0  0  0  0  0  0  0  0  0
   43.4670   31.3230   37.4690 C   0  0  0  0  0  0  0  0  0  0  0  0
   43.9520   30.0910   37.9270 O   0  0  0  0  0  0  0  0  0  0  0  0
   44.8330   30.4830   38.9730 C   0  0  0  0  0  0  0  0  0  0  0  0
   44.0260   31.0110   40.1460 C   0  0  0  0  0  0  0  0  0  0  0  0
   44.0540   32.9670   39.2560 H   0  0  0  0  0  0  0  0  0  0  0  0
   41.7650   30.9900   38.8200 H   0  0  0  0  0  0  0  0  0  0  0  0
   41.9410   32.6650   38.0620 H   0  0  0  0  0  0  0  0  0  0  0  0
   42.9620   31.2320   36.4960 H   0  0  0  0  0  0  0  0  0  0  0  0
   44.2730   32.0900   37.4460 H   0  0  0  0  0  0  0  0  0  0  0  0
   45.5700   31.2120   38.6350 H   0  0  0  0  0  0  0  0  0  0  0  0
   45.2810   29.5280   39.3370 H   0  0  0  0  0  0  0  0  0  0  0  0
   44.7660   31.3490   40.9010 H   0  0  0  0  0  0  0  0  0  0  0  0
   43.3340   30.2520   40.5040 H   0  0  0  0  0  0  0  0  0  0  0  0
   40.6960   30.8080   41.7890 C   0  0  1  0  0  3  0  0  0  0  0  0
   41.1490   30.7020   42.9740 O   0  0  0  0  0  0  0  0  0  0  0  0
   37.3390   28.5170   41.8730 C   0  0  0  0  0  0  0  0  0  0  0  0
   38.2170   27.7360   40.9630 C   0  0  0  0  0  2  0  0  0  0  0  0
   39.5550   28.2150   41.0630 N   0  0  0  0  0  0  0  0  0  0  0  0
   40.8370   28.6390   40.6590 C   0  0  0  0  0  0  0  0  0  0  0  0
   41.5870   28.4860   39.6380 O   0  0  0  0  0  0  0  0  0  0  0  0
   41.0340   29.3850   41.9330 C   0  0  2  0  0  0  0  0  0  0  0  0
   39.9470   28.4470   42.4170 C   0  0  1  0  0  3  0  0  0  0  0  0
   38.4650   29.3340   43.0400 S   0  0  0  0  0  0  0  0  0  0  0  0
   36.4120   29.4870   41.2120 C   0  0  0  0  0  2  0  0  0  0  0  0
   36.6680   30.5630   41.4250 H   0  0  0  0  0  0  0  0  0  0  0  0
   36.5450   27.4890   42.6900 C   0  0  0  0  0  2  0  0  0  0  0  0
   35.6410   27.1610   42.1300 H   0  0  0  0  0  0  0  0  0  0  0  0
  1  2  1  0  0  0  0
  2 11  1  0  0  0  0
  2  3  2  0  0  0  0
  4  3  1  0  0  0  0
  5  4  2  0  0  0  0
  6  1  2  0  0  0  0
  6  5  1  0  0  0  0
  7  5  1  0  0  0  0
  7 10  1  0  0  0  0
  8  1  1  0  0  0  0
  9  7  1  0  0  0  0
 11 12  1  0  0  0  0
 11 13  1  0  0  0  0
 12 14  1  0  0  0  0
 12 13  1  0  0  0  0
 13 16  1  0  0  0  0
 13 17  1  0  0  0  0
 15 12  1  0  0  0  0
 18 23  1  0  0  0  0
 18 11  1  0  0  0  0
 19 25  1  0  0  0  0
 19 18  1  0  0  0  0
 20 21  1  0  0  0  0
 20 19  1  0  0  0  0
 21 22  1  0  0  0  0
 22 30  1  0  0  0  0
 22 23  1  0  0  0  0
 23 32  1  0  0  0  0
 23 31  1  0  0  0  0
 24 18  1  0  0  0  0
 26 19  1  0  0  0  0
 27 20  1  0  0  0  0
 28 20  1  0  0  0  0
 29 22  1  0  0  0  0
 33  3  1  1  0  0  0
 33 40  1  0  0  0  0
 33 34  1  0  0  0  0
 35 45  1  0  0  0  0
 35 42  1  0  0  0  0
 36 37  1  0  0  0  0
 36 35  1  0  0  0  0
 37 41  1  0  0  0  0
 38 37  1  0  0  0  0
 39 38  2  0  0  0  0
 40 38  1  6  0  0  0
 40 41  1  0  0  0  0
 40 34  1  0  0  0  0
 41 42  1  1  0  0  0
 43 44  1  0  0  0  0
 43 35  1  0  0  0  0
 46 45  1  0  0  0  0
M  END
>  <minimizedAffinity>
-5.59209776

$$$$

 OpenBabel03242516173D

 46 51  0  0  1  0  0  0  0  0999 V2000
   40.4990   28.5560   42.4460 C   0  0  0  0  0  0  0  0  0  0  0  0
   39.3470   28.2720   41.7290 C   0  0  0  0  0  0  0  0  0  0  0  0
   39.3370   28.6430   40.3880 C   0  0  0  0  0  0  0  0  0  0  0  0
   40.4110   29.2510   39.8260 N   0  0  0  0  0  0  0  0  0  0  0  0
   41.4950   29.4960   40.5830 C   0  0  0  0  0  0  0  0  0  0  0  0
   41.5450   29.1600   41.8600 N   0  0  0  0  0  0  0  0  0  0  0  0
   42.6590   30.1340   40.0470 N   0  0  0  0  0  0  0  0  0  0  0  0
   40.5540   28.2860   43.4940 H   0  0  0  0  0  0  0  0  0  0  0  0
   43.1460   29.4660   39.3810 H   0  0  0  0  0  0  0  0  0  0  0  0
   42.7360   31.0990   40.4490 H   0  0  0  0  0  0  0  0  0  0  0  0
   38.1810   27.6060   42.3860 C   0  0  0  0  0  0  0  0  0  0  0  0
   37.6820   28.2560   43.6770 C   0  0  0  0  0  0  0  0  0  0  0  0
   36.9020   28.2810   42.4580 C   0  0  0  0  0  0  0  0  0  0  0  0
   38.2940   29.1350   44.0320 H   0  0  0  0  0  0  0  0  0  0  0  0
   37.3600   27.6230   44.5170 H   0  0  0  0  0  0  0  0  0  0  0  0
   35.9890   27.6430   42.4180 H   0  0  0  0  0  0  0  0  0  0  0  0
   36.6640   29.3060   42.1570 H   0  0  0  0  0  0  0  0  0  0  0  0
   38.2010   26.1140   42.4450 C   0  0  0  0  0  0  0  0  0  0  0  0
   39.4150   25.4690   41.7920 C   0  0  0  0  0  0  0  0  0  0  0  0
   39.2590   23.9690   42.1090 C   0  0  0  0  0  0  0  0  0  0  0  0
   38.2600   23.4970   41.2470 O   0  0  0  0  0  0  0  0  0  0  0  0
   37.0760   24.0060   41.8500 C   0  0  0  0  0  0  0  0  0  0  0  0
   37.0210   25.5130   41.6730 C   0  0  0  0  0  0  0  0  0  0  0  0
   38.1590   25.7440   43.4810 H   0  0  0  0  0  0  0  0  0  0  0  0
   39.4580   25.6580   40.7160 H   0  0  0  0  0  0  0  0  0  0  0  0
   40.3230   25.7840   42.3430 H   0  0  0  0  0  0  0  0  0  0  0  0
   40.2210   23.4650   41.9400 H   0  0  0  0  0  0  0  0  0  0  0  0
   38.9380   23.9020   43.1730 H   0  0  0  0  0  0  0  0  0  0  0  0
   36.9980   23.7250   42.9000 H   0  0  0  0  0  0  0  0  0  0  0  0
   36.2450   23.6100   41.2180 H   0  0  0  0  0  0  0  0  0  0  0  0
   36.1110   25.8530   42.2070 H   0  0  0  0  0  0  0  0  0  0  0  0
   37.0460   25.7720   40.6160 H   0  0  0  0  0  0  0  0  0  0  0  0
   38.1810   28.4510   39.5390 C   0  0  1  0  0  3  0  0  0  0  0  0
   37.6910   27.3690   39.0800 O   0  0  0  0  0  0  0  0  0  0  0  0
   38.0560   32.4990   39.1920 C   0  0  0  0  0  0  0  0  0  0  0  0
   37.7440   32.0660   37.8050 C   0  0  0  0  0  2  0  0  0  0  0  0
   37.4270   30.6760   37.7990 N   0  0  0  0  0  0  0  0  0  0  0  0
   37.4120   29.3290   37.3850 C   0  0  0  0  0  0  0  0  0  0  0  0
   37.6340   28.6870   36.3050 O   0  0  0  0  0  0  0  0  0  0  0  0
   37.0180   28.8750   38.7470 C   0  0  2  0  0  0  0  0  0  0  0  0
   36.5630   30.3140   38.8780 C   0  0  1  0  0  3  0  0  0  0  0  0
   37.3800   31.1980   40.2640 S   0  0  0  0  0  0  0  0  0  0  0  0
   39.4980   32.7740   39.4810 C   0  0  0  0  0  2  0  0  0  0  0  0
   39.9590   32.0320   40.1920 H   0  0  0  0  0  0  0  0  0  0  0  0
   37.2100   33.7530   39.4520 C   0  0  0  0  0  2  0  0  0  0  0  0
   37.7300   34.6590   39.0710 H   0  0  0  0  0  0  0  0  0  0  0  0
  1  8  1  0  0  0  0
  2 11  1  0  0  0  0
  2  1  2  0  0  0  0
  3  2  1  0  0  0  0
  4  3  2  0  0  0  0
  4  5  1  0  0  0  0
  5  6  2  0  0  0  0
  6  1  1  0  0  0  0
  7 10  1  0  0  0  0
  7  5  1  0  0  0  0
  9  7  1  0  0  0  0
 11 18  1  0  0  0  0
 11 13  1  0  0  0  0
 11 12  1  0  0  0  0
 12 14  1  0  0  0  0
 12 15  1  0  0  0  0
 13 12  1  0  0  0  0
 16 13  1  0  0  0  0
 17 13  1  0  0  0  0
 18 24  1  0  0  0  0
 19 20  1  0  0  0  0
 19 26  1  0  0  0  0
 19 18  1  0  0  0  0
 20 28  1  0  0  0  0
 21 22  1  0  0  0  0
 21 20  1  0  0  0  0
 22 29  1  0  0  0  0
 23 22  1  0  0  0  0
 23 31  1  0  0  0  0
 23 18  1  0  0  0  0
 25 19  1  0  0  0  0
 27 20  1  0  0  0  0
 30 22  1  0  0  0  0
 32 23  1  0  0  0  0
 33  3  1  1  0  0  0
 34 33  1  0  0  0  0
 35 45  1  0  0  0  0
 35 43  1  0  0  0  0
 35 42  1  0  0  0  0
 36 35  1  0  0  0  0
 37 36  1  0  0  0  0
 37 41  1  0  0  0  0
 38 37  1  0  0  0  0
 39 38  2  0  0  0  0
 40 38  1  6  0  0  0
 40 41  1  0  0  0  0
 40 34  1  0  0  0  0
 40 33  1  0  0  0  0
 41 42  1  1  0  0  0
 43 44  1  0  0  0  0
 46 45  1  0  0  0  0
M  END
>  <minimizedAffinity>
-5.56042528

$$$$
