
     RDKit          3D

 56 60  0  0  0  0  0  0  0  0999 V2000
   48.9685   34.7717   41.5279 C   0  0  1  0  0  0  0  0  0  0  0  0
   50.0769   34.7980   42.5359 C   0  0  0  0  0  0  0  0  0  0  0  0
   49.3394   33.5395   42.1966 C   0  0  2  0  0  0  0  0  0  0  0  0
   50.1321   32.6367   41.3596 N   0  0  0  0  0  0  0  0  0  0  0  0
   49.4749   32.1854   40.2014 C   0  0  0  0  0  0  0  0  0  0  0  0
   50.4470   31.2513   39.5060 C   0  0  0  0  0  0  0  0  0  0  0  0
   50.7472   30.1088   40.2926 N   0  0  0  0  0  0  0  0  0  0  0  0
   50.6320   30.3262   41.7219 C   0  0  0  0  0  0  0  0  0  0  0  0
   51.0067   31.7790   42.0446 C   0  0  0  0  0  0  0  0  0  0  0  0
   47.6670   35.3954   41.9034 C   0  0  0  0  0  0  0  0  0  0  0  0
   46.6967   34.2723   42.1506 C   0  0  0  0  0  0  0  0  0  0  0  0
   44.4966   35.8865   44.7211 C   0  0  0  0  0  0  0  0  0  0  0  0
   45.1648   35.6453   43.4878 C   0  0  0  0  0  0  0  0  0  0  0  0
   45.9774   34.5432   43.4313 C   0  0  0  0  0  0  0  0  0  0  0  0
   46.1080   33.7467   44.5274 N   0  0  0  0  0  0  0  0  0  0  0  0
   45.4838   33.9854   45.6564 C   0  0  0  0  0  0  0  0  0  0  0  0
   44.6730   35.0566   45.7636 N   0  0  0  0  0  0  0  0  0  0  0  0
   49.2775   34.9889   40.5064 H   0  0  0  0  0  0  0  0  0  0  0  0
   49.8342   35.3248   43.4990 H   0  0  0  0  0  0  0  0  0  0  0  0
   51.1167   34.9647   42.2158 H   0  0  0  0  0  0  0  0  0  0  0  0
   48.8434   33.0880   43.0455 H   0  0  0  0  0  0  0  0  0  0  0  0
   48.5362   31.6154   40.3913 H   0  0  0  0  0  0  0  0  0  0  0  0
   49.3172   33.0419   39.5066 H   0  0  0  0  0  0  0  0  0  0  0  0
   49.9775   30.9683   38.5421 H   0  0  0  0  0  0  0  0  0  0  0  0
   51.3850   31.8186   39.2400 H   0  0  0  0  0  0  0  0  0  0  0  0
   51.6332   29.6473   40.0057 H   0  0  0  0  0  0  0  0  0  0  0  0
   51.2975   29.5991   42.2233 H   0  0  0  0  0  0  0  0  0  0  0  0
   49.5675   30.2203   42.0232 H   0  0  0  0  0  0  0  0  0  0  0  0
   52.0538   31.9717   41.6780 H   0  0  0  0  0  0  0  0  0  0  0  0
   50.9971   31.9479   43.1236 H   0  0  0  0  0  0  0  0  0  0  0  0
   47.8005   35.9857   42.8387 H   0  0  0  0  0  0  0  0  0  0  0  0
   47.2931   36.1353   41.1423 H   0  0  0  0  0  0  0  0  0  0  0  0
   47.0752   33.2671   42.0461 H   0  0  0  0  0  0  0  0  0  0  0  0
   45.9043   34.3742   41.3504 H   0  0  0  0  0  0  0  0  0  0  0  0
   43.8520   36.7620   44.7670 H   0  0  0  0  0  0  0  0  0  0  0  0
   44.9813   36.3511   42.6867 H   0  0  0  0  0  0  0  0  0  0  0  0
   45.5702   33.1684   46.8812 C   0  0  0  0  0  0  0  0  0  0  0  0
   46.1488   31.8210   46.6985 C   0  0  1  0  0  0  0  0  0  0  0  0
   47.5286   31.7604   46.1724 C   0  0  0  0  0  0  0  0  0  0  0  0
   47.6231   31.0811   45.2730 H   0  0  0  0  0  0  0  0  0  0  0  0
   46.0984   31.0957   48.0547 C   0  0  0  0  0  0  0  0  0  0  0  0
   46.2965   29.6785   47.7291 N   0  0  0  0  0  0  0  0  0  0  0  0
   46.6129   28.2908   47.4573 C   0  0  0  0  0  0  0  0  0  0  0  0
   47.6647   27.7635   47.9052 O   0  0  0  0  0  0  0  0  0  0  0  0
   45.4089   28.0367   46.6616 C   0  0  1  0  0  0  0  0  0  0  0  0
   45.5710   27.9153   45.5722 H   0  0  0  0  0  0  0  0  0  0  0  0
   44.9789   29.3878   47.1201 C   0  0  2  0  0  0  0  0  0  0  0  0
   45.0409   30.6655   45.7895 S   0  0  0  0  0  0  0  0  0  0  0  0
   44.5316   33.0204   47.3017 H   0  0  0  0  0  0  0  0  0  0  0  0
   46.1238   33.6945   47.6789 H   0  0  0  0  0  0  0  0  0  0  0  0
   48.1994   31.3028   46.9292 H   0  0  0  0  0  0  0  0  0  0  0  0
   47.9565   32.7636   45.9757 H   0  0  0  0  0  0  0  0  0  0  0  0
   46.9201   31.4225   48.7018 H   0  0  0  0  0  0  0  0  0  0  0  0
   45.1092   31.1925   48.5175 H   0  0  0  0  0  0  0  0  0  0  0  0
   44.8409   27.1865   47.0945 H   0  0  0  0  0  0  0  0  0  0  0  0
   44.1384   29.4800   47.8036 H   0  0  0  0  0  0  0  0  0  0  0  0
  1 10  1  0
  1  3  1  0
  1  2  1  0
  3  2  1  0
  4  9  1  0
  4  3  1  0
  5  4  1  0
  6  5  1  0
  6  7  1  0
  7  8  1  0
  8  9  1  0
 10 11  1  0
 11 14  1  0
 12 17  2  0
 13 12  1  0
 14 13  2  0
 14 15  1  0
 15 16  2  0
 16 17  1  0
  1 18  1  6
  2 19  1  0
  2 20  1  0
  3 21  1  1
  5 22  1  0
  5 23  1  0
  6 24  1  0
  6 25  1  0
  7 26  1  0
  8 27  1  0
  8 28  1  0
  9 29  1  0
  9 30  1  0
 10 31  1  0
 10 32  1  0
 11 33  1  0
 11 34  1  0
 12 35  1  0
 13 36  1  0
 38 37  1  1
 38 39  1  0
 39 40  1  0
 38 41  1  0
 41 42  1  0
 42 43  1  0
 43 44  2  0
 43 45  1  0
 45 46  1  6
 45 47  1  0
 47 48  1  0
 48 38  1  0
 47 42  1  0
 37 49  1  0
 37 50  1  0
 39 51  1  0
 39 52  1  0
 41 53  1  0
 41 54  1  0
 45 55  1  0
 47 56  1  1
 16 37  1  0
M  ISO  8  18  13  19  13  20  13  21  13  22  13  23  13  24  13  25  13
M  ISO  8  26   5  27  13  28  13  29  13  30  13  31   8  32   8  33   8
M  ISO  5  34   8  35  14  36  14  40   8  46  15
M  END
>  <DihAtoms>  (1) 
14,15,36,37

>  <DihDeg>  (1) 
179.84641215372324

$$$$
