
 OpenBabel03242512343D

 23 26  0  0  1  0  0  0  0  0999 V2000
   44.8180   34.2760   42.2690 C   0  0  0  0  0  0  0  0  0  0  0  0
   44.4180   32.8930   42.5230 C   0  0  0  0  0  2  0  0  0  0  0  0
   45.3210   32.2060   43.3350 N   0  0  1  0  0  0  0  0  0  0  0  0
   45.7890   31.2340   44.2130 C   0  0  2  0  0  0  0  0  0  0  0  0
   45.5890   30.0460   44.5760 O   0  0  0  0  0  1  0  0  0  0  0  0
   46.8130   32.1730   44.7280 C   0  0  1  0  0  3  0  0  0  0  0  0
   46.6470   32.7630   43.3620 C   0  0  1  0  0  0  0  0  0  0  0  0
   46.2250   34.5500   43.3830 S   0  0  0  0  0  0  0  0  0  0  0  0
   46.2420   33.0000   45.8350 C   0  0  0  0  0  0  0  0  0  0  0  0
   45.7010   34.1300   45.6210 O   0  0  0  0  0  0  0  0  0  0  0  0
   46.3820   32.3720   47.1130 C   0  0  0  0  0  0  0  0  0  0  0  0
   45.1750   32.2210   47.8190 C   0  0  0  0  0  0  0  0  0  0  0  0
   45.2420   31.6120   49.0820 C   0  0  0  0  0  0  0  0  0  0  0  0
   46.4610   31.2120   49.5340 N   0  0  0  0  0  0  0  0  0  0  0  0
   47.5900   31.3770   48.8230 C   0  0  0  0  0  0  0  0  0  0  0  0
   47.5440   31.9580   47.6140 N   0  0  0  0  0  0  0  0  0  0  0  0
   44.2040   32.5200   47.5020 H   0  0  0  0  0  0  0  0  0  0  0  0
   44.3880   31.4490   49.7000 H   0  0  0  0  0  0  0  0  0  0  0  0
   48.5130   31.0230   49.2710 H   0  0  0  0  0  0  0  0  0  0  0  0
   45.4100   34.3680   40.8570 C   0  0  0  0  0  2  0  0  0  0  0  0
   46.0050   33.4600   40.6500 H   0  0  0  0  0  0  0  0  0  0  0  0
   43.7250   35.3000   42.4500 C   0  0  0  0  0  2  0  0  0  0  0  0
   43.7370   35.9670   41.5640 H   0  0  0  0  0  0  0  0  0  0  0  0
  1 22  1  0  0  0  0
  1  2  1  0  0  0  0
  1  8  1  0  0  0  0
  3  2  1  6  0  0  0
  3  7  1  0  0  0  0
  3  4  1  0  0  0  0
  4  5  1  6  0  0  0
  4  6  1  0  0  0  0
  6  9  1  1  0  0  0
  7  8  1  1  0  0  0
  7  4  1  0  0  0  0
  7  6  1  0  0  0  0
  9 11  1  0  0  0  0
 10  9  2  0  0  0  0
 11 16  2  0  0  0  0
 11 12  1  0  0  0  0
 12 13  2  0  0  0  0
 13 14  1  0  0  0  0
 13 18  1  0  0  0  0
 15 19  1  0  0  0  0
 15 14  2  0  0  0  0
 16 15  1  0  0  0  0
 17 12  1  0  0  0  0
 20  1  1  0  0  0  0
 21 20  1  0  0  0  0
 23 22  1  0  0  0  0
M  END
>  <minimizedAffinity>
-4.52139711

>  <minimizedRMSD>
4.08127499

$$$$
