
     RDKit          3D

 31 33  0  0  0  0  0  0  0  0999 V2000
   46.2164   34.8419   43.1920 C   0  0  0  0  0  0  0  0  0  0  0  0
   45.3248   35.9118   43.2772 C   0  0  0  0  0  0  0  0  0  0  0  0
   44.5613   36.0073   44.4531 C   0  0  0  0  0  0  0  0  0  0  0  0
   44.7379   35.0642   45.4189 N   0  0  0  0  0  0  0  0  0  0  0  0
   45.6206   34.0428   45.2839 C   0  0  0  0  0  0  0  0  0  0  0  0
   46.3467   33.9485   44.1703 N   0  0  0  0  0  0  0  0  0  0  0  0
   46.9675   34.7948   41.9724 C   0  0  0  0  0  0  0  0  0  0  0  0
   48.0519   35.3919   41.7263 O   0  0  0  0  0  0  0  0  0  0  0  0
   45.1867   36.6552   42.5138 H   0  0  0  0  0  0  0  0  0  0  0  0
   43.8529   36.8059   44.5896 H   0  0  0  0  0  0  0  0  0  0  0  0
   46.6319   34.1982   41.1106 H   0  0  0  0  0  0  0  0  0  0  0  0
   45.7776   33.0470   46.3543 C   0  0  0  0  0  0  0  0  0  0  0  0
   46.8051   31.9998   46.0066 C   0  0  2  0  0  0  0  0  0  0  0  0
   46.4565   31.2256   44.7536 C   0  0  0  0  0  0  0  0  0  0  0  0
   46.8959   31.6821   43.8613 H   0  0  0  0  0  0  0  0  0  0  0  0
   46.9584   31.0058   47.1111 C   0  0  0  0  0  0  0  0  0  0  0  0
   48.1341   31.2975   47.8587 N   0  0  0  0  0  0  0  0  0  0  0  0
   49.0569   31.5527   48.9091 C   0  0  0  0  0  0  0  0  0  0  0  0
   49.1531   31.4040   50.1525 O   0  0  0  0  0  0  0  0  0  0  0  0
   50.0759   32.1528   48.0072 C   0  0  2  0  0  0  0  0  0  0  0  0
   51.0979   31.7636   48.1047 H   0  0  0  0  0  0  0  0  0  0  0  0
   49.2361   31.4809   46.9507 C   0  0  2  0  0  0  0  0  0  0  0  0
   48.4687   32.6724   45.7797 S   0  0  0  0  0  0  0  0  0  0  0  0
   44.8188   32.4995   46.4466 H   0  0  0  0  0  0  0  0  0  0  0  0
   46.0617   33.4914   47.3101 H   0  0  0  0  0  0  0  0  0  0  0  0
   46.8737   30.1779   44.8172 H   0  0  0  0  0  0  0  0  0  0  0  0
   45.3645   31.0826   44.7089 H   0  0  0  0  0  0  0  0  0  0  0  0
   46.0389   31.0835   47.7482 H   0  0  0  0  0  0  0  0  0  0  0  0
   47.0083   29.9463   46.7816 H   0  0  0  0  0  0  0  0  0  0  0  0
   49.9706   33.2563   48.0654 H   0  0  0  0  0  0  0  0  0  0  0  0
   49.6611   30.6046   46.4620 H   0  0  0  0  0  0  0  0  0  0  0  0
  1  2  2  0
  1  6  1  0
  2  3  1  0
  3  4  2  0
  5  4  1  0
  6  5  2  0
  7  1  1  0
  8  7  2  0
  2  9  1  0
  3 10  1  0
  7 11  1  0
 13 12  1  1
 13 14  1  0
 14 15  1  0
 13 16  1  0
 16 17  1  0
 17 18  1  0
 18 19  2  0
 18 20  1  0
 20 21  1  1
 20 22  1  0
 22 23  1  0
 23 13  1  0
 22 17  1  0
 12 24  1  0
 12 25  1  0
 14 26  1  0
 14 27  1  0
 16 28  1  0
 16 29  1  0
 20 30  1  0
 22 31  1  6
  5 12  1  0
M  ISO  5   9  14  10  14  11   6  15   8  21  15
M  END
>  <DihAtoms>  (1) 
3,4,11,12

>  <DihDeg>  (1) 
89.99995369881678

$$$$
