
 OpenBabel03252501443D

 48 53  0  0  1  0  0  0  0  0999 V2000
   38.9990   31.3540   40.8570 C   0  0  0  0  0  0  0  0  0  0  0  0
   39.4360   31.3230   39.6460 O   0  0  0  0  0  0  0  0  0  0  0  0
   39.5000   32.4760   41.5830 N   0  0  0  0  0  0  0  0  0  0  0  0
   39.2370   32.6900   42.5440 H   0  0  0  0  0  0  0  0  0  0  0  0
   40.4080   33.2240   40.7450 C   0  0  0  0  0  0  0  0  0  0  0  0
   40.0800   34.2460   39.9100 C   0  0  0  0  0  0  0  0  0  0  0  0
   41.0970   34.8270   39.1990 C   0  0  0  0  0  0  0  0  0  0  0  0
   42.3530   34.3390   39.3820 N   0  0  0  0  0  0  0  0  0  0  0  0
   42.6460   33.3310   40.2120 C   0  0  0  0  0  0  0  0  0  0  0  0
   41.6530   32.7430   40.9250 N   0  0  0  0  0  0  0  0  0  0  0  0
   40.8600   35.6400   38.5300 H   0  0  0  0  0  0  0  0  0  0  0  0
   38.7270   34.6180   39.8480 N   0  0  0  0  0  0  0  0  0  0  0  0
   38.6670   35.6590   39.8710 H   0  0  0  0  0  0  0  0  0  0  0  0
   37.8990   33.9960   39.7880 H   0  0  0  0  0  0  0  0  0  0  0  0
   44.0710   32.9180   40.2950 C   0  0  0  0  0  2  0  0  0  0  0  0
   44.2910   31.6850   39.4560 C   0  0  1  0  0  0  0  0  0  0  0  0
   43.3250   31.5050   38.3670 C   0  0  0  0  0  2  0  0  0  0  0  0
   43.8890   30.9690   37.2060 N   0  0  1  0  0  0  0  0  0  0  0  0
   43.9730   30.5080   35.8850 C   0  0  1  0  0  0  0  0  0  0  0  0
   43.3120   29.8930   35.0100 O   0  0  0  0  0  1  0  0  0  0  0  0
   45.3600   31.1040   35.8750 C   0  0  0  0  0  3  0  0  0  0  0  0
   45.3530   32.2070   35.8390 H   0  0  0  0  0  0  0  0  0  0  0  0
   45.2930   30.6240   37.2840 C   0  0  1  0  0  0  0  0  0  0  0  0
   45.8750   31.7620   38.5700 S   0  0  0  0  0  0  0  0  0  0  0  0
   44.3320   30.4540   40.3140 C   0  0  0  0  0  2  0  0  0  0  0  0
   43.3260   30.0330   40.5270 H   0  0  0  0  0  0  0  0  0  0  0  0
   38.1380   30.4400   41.4650 O   0  0  0  0  0  0  0  0  0  0  0  0
   36.9600   28.1700   39.9510 Cl  0  0  0  0  0  0  0  0  0  0  0  0
   38.1780   28.0800   41.2110 C   0  0  0  0  0  0  0  0  0  0  0  0
   38.6740   29.2030   41.8680 C   0  0  0  0  0  0  0  0  0  0  0  0
   39.6200   29.0770   42.8390 C   0  0  0  0  0  0  0  0  0  0  0  0
   40.1440   27.8620   43.2320 C   0  0  0  0  0  0  0  0  0  0  0  0
   39.6610   26.7060   42.5820 C   0  0  0  0  0  0  0  0  0  0  0  0
   40.2670   25.1170   43.0140 Cl  0  0  0  0  0  0  0  0  0  0  0  0
   38.7000   26.8740   41.6030 C   0  0  0  0  0  0  0  0  0  0  0  0
   39.9820   29.9720   43.3290 H   0  0  0  0  0  0  0  0  0  0  0  0
   40.8930   27.7830   44.0040 H   0  0  0  0  0  0  0  0  0  0  0  0
   36.5520   25.5440   42.6190 F   0  0  0  0  0  0  0  0  0  0  0  0
   37.1020   25.0300   41.4680 C   0  0  0  0  0  0  0  0  0  0  0  0
   38.1960   25.6840   40.9250 C   0  0  0  0  0  0  0  0  0  0  0  0
   38.7260   25.1310   39.7560 C   0  0  0  0  0  0  0  0  0  0  0  0
   38.1470   23.9940   39.2190 C   0  0  0  0  0  0  0  0  0  0  0  0
   37.0370   23.3800   39.8220 C   0  0  0  0  0  0  0  0  0  0  0  0
   36.4850   23.9030   40.9850 C   0  0  0  0  0  0  0  0  0  0  0  0
   39.5710   25.6370   39.3380 H   0  0  0  0  0  0  0  0  0  0  0  0
   38.5930   23.6000   38.3110 H   0  0  0  0  0  0  0  0  0  0  0  0
   36.6020   22.4890   39.3780 H   0  0  0  0  0  0  0  0  0  0  0  0
   35.6460   23.4570   41.4570 H   0  0  0  0  0  0  0  0  0  0  0  0
  1 27  1  0  0  0  0
  1  3  1  0  0  0  0
  2  1  2  0  0  0  0
  3  4  1  0  0  0  0
  5 10  1  0  0  0  0
  5  3  1  0  0  0  0
  6  5  2  0  0  0  0
  7  8  2  0  0  0  0
  7  6  1  0  0  0  0
  8  9  1  0  0  0  0
  9 15  1  0  0  0  0
  9 10  2  0  0  0  0
 11  7  1  0  0  0  0
 12 13  1  0  0  0  0
 12  6  1  0  0  0  0
 14 12  1  0  0  0  0
 16 15  1  1  0  0  0
 16 25  1  0  0  0  0
 17 16  1  0  0  0  0
 18 23  1  0  0  0  0
 18 17  1  6  0  0  0
 19 20  1  6  0  0  0
 19 18  1  0  0  0  0
 19 23  1  0  0  0  0
 21 19  1  0  0  0  0
 22 21  1  0  0  0  0
 23 21  1  6  0  0  0
 23 24  1  0  0  0  0
 24 16  1  0  0  0  0
 25 26  1  0  0  0  0
 27 30  1  0  0  0  0
 28 29  1  0  0  0  0
 29 35  2  0  0  0  0
 29 30  1  0  0  0  0
 30 31  2  0  0  0  0
 31 32  1  0  0  0  0
 31 36  1  0  0  0  0
 32 37  1  0  0  0  0
 33 34  1  0  0  0  0
 33 32  2  0  0  0  0
 35 33  1  0  0  0  0
 39 38  1  0  0  0  0
 40 39  2  0  0  0  0
 40 35  1  0  0  0  0
 41 40  1  0  0  0  0
 42 41  2  0  0  0  0
 42 43  1  0  0  0  0
 43 44  2  0  0  0  0
 44 48  1  0  0  0  0
 44 39  1  0  0  0  0
 45 41  1  0  0  0  0
 46 42  1  0  0  0  0
 47 43  1  0  0  0  0
M  END
>  <minimizedAffinity>
-6.8713212

$$$$

 OpenBabel03252501443D

 48 53  0  0  1  0  0  0  0  0999 V2000
   40.3070   33.3070   39.5110 C   0  0  0  0  0  0  0  0  0  0  0  0
   41.1080   32.3070   39.3800 O   0  0  0  0  0  0  0  0  0  0  0  0
   40.9760   34.5590   39.3670 N   0  0  0  0  0  0  0  0  0  0  0  0
   40.5040   35.4610   39.4020 H   0  0  0  0  0  0  0  0  0  0  0  0
   42.3890   34.3280   39.1700 C   0  0  0  0  0  0  0  0  0  0  0  0
   43.0020   34.0360   37.9920 C   0  0  0  0  0  0  0  0  0  0  0  0
   44.3600   33.8530   38.0200 C   0  0  0  0  0  0  0  0  0  0  0  0
   44.9890   33.9770   39.2190 N   0  0  0  0  0  0  0  0  0  0  0  0
   44.3580   34.2670   40.3640 C   0  0  0  0  0  0  0  0  0  0  0  0
   43.0140   34.4520   40.3560 N   0  0  0  0  0  0  0  0  0  0  0  0
   44.8690   33.6200   37.0970 H   0  0  0  0  0  0  0  0  0  0  0  0
   42.1920   33.9460   36.8480 N   0  0  0  0  0  0  0  0  0  0  0  0
   42.6640   34.4490   36.0670 H   0  0  0  0  0  0  0  0  0  0  0  0
   41.2750   33.4710   36.7560 H   0  0  0  0  0  0  0  0  0  0  0  0
   45.1930   34.3670   41.5880 C   0  0  0  0  0  2  0  0  0  0  0  0
   45.0500   33.1080   42.4040 C   0  0  1  0  0  0  0  0  0  0  0  0
   43.6690   32.6450   42.5780 C   0  0  0  0  0  2  0  0  0  0  0  0
   43.5420   31.2540   42.5640 N   0  0  1  0  0  0  0  0  0  0  0  0
   42.9240   29.9960   42.5920 C   0  0  1  0  0  0  0  0  0  0  0  0
   41.9650   29.3790   43.1220 O   0  0  0  0  0  1  0  0  0  0  0  0
   43.9820   29.5690   41.6040 C   0  0  0  0  0  3  0  0  0  0  0  0
   43.8250   29.9910   40.5970 H   0  0  0  0  0  0  0  0  0  0  0  0
   44.7770   30.5060   42.4480 C   0  0  1  0  0  0  0  0  0  0  0  0
   45.8390   31.6930   41.5830 S   0  0  0  0  0  0  0  0  0  0  0  0
   45.7120   33.2590   43.7430 C   0  0  0  0  0  2  0  0  0  0  0  0
   45.0590   33.7340   44.5060 H   0  0  0  0  0  0  0  0  0  0  0  0
   38.9360   33.2600   39.7650 O   0  0  0  0  0  0  0  0  0  0  0  0
   39.4730   31.5160   42.1110 Cl  0  0  0  0  0  0  0  0  0  0  0  0
   38.4890   31.1280   40.7110 C   0  0  0  0  0  0  0  0  0  0  0  0
   38.2920   32.0130   39.6530 C   0  0  0  0  0  0  0  0  0  0  0  0
   37.5180   31.6610   38.5900 C   0  0  0  0  0  0  0  0  0  0  0  0
   36.8890   30.4380   38.4830 C   0  0  0  0  0  0  0  0  0  0  0  0
   37.0690   29.5210   39.5410 C   0  0  0  0  0  0  0  0  0  0  0  0
   36.3080   27.9400   39.4950 Cl  0  0  0  0  0  0  0  0  0  0  0  0
   37.8620   29.9130   40.6030 C   0  0  0  0  0  0  0  0  0  0  0  0
   37.3880   32.3740   37.7860 H   0  0  0  0  0  0  0  0  0  0  0  0
   36.2790   30.1780   37.6320 H   0  0  0  0  0  0  0  0  0  0  0  0
   39.9120   28.1240   40.5120 F   0  0  0  0  0  0  0  0  0  0  0  0
   39.1060   28.0740   41.6230 C   0  0  0  0  0  0  0  0  0  0  0  0
   38.0530   28.9710   41.7010 C   0  0  0  0  0  0  0  0  0  0  0  0
   37.2570   28.8880   42.8460 C   0  0  0  0  0  0  0  0  0  0  0  0
   37.5520   27.9420   43.8130 C   0  0  0  0  0  0  0  0  0  0  0  0
   38.6370   27.0610   43.6710 C   0  0  0  0  0  0  0  0  0  0  0  0
   39.4490   27.1160   42.5450 C   0  0  0  0  0  0  0  0  0  0  0  0
   36.4440   29.5820   42.9050 H   0  0  0  0  0  0  0  0  0  0  0  0
   36.9060   27.9150   44.6850 H   0  0  0  0  0  0  0  0  0  0  0  0
   38.8460   26.3290   44.4460 H   0  0  0  0  0  0  0  0  0  0  0  0
   40.2740   26.4610   42.4170 H   0  0  0  0  0  0  0  0  0  0  0  0
  1 27  1  0  0  0  0
  2  1  2  0  0  0  0
  3  4  1  0  0  0  0
  3  1  1  0  0  0  0
  5  3  1  0  0  0  0
  5 10  1  0  0  0  0
  6  7  1  0  0  0  0
  6  5  2  0  0  0  0
  7  8  2  0  0  0  0
  8  9  1  0  0  0  0
  9 15  1  0  0  0  0
 10  9  2  0  0  0  0
 11  7  1  0  0  0  0
 12  6  1  0  0  0  0
 13 12  1  0  0  0  0
 14 12  1  0  0  0  0
 16 15  1  6  0  0  0
 16 17  1  0  0  0  0
 16 25  1  0  0  0  0
 18 17  1  6  0  0  0
 18 19  1  0  0  0  0
 19 20  1  1  0  0  0
 21 23  1  0  0  0  0
 21 19  1  0  0  0  0
 22 21  1  0  0  0  0
 23 24  1  1  0  0  0
 23 18  1  0  0  0  0
 23 19  1  0  0  0  0
 24 16  1  0  0  0  0
 25 26  1  0  0  0  0
 29 28  1  0  0  0  0
 30 27  1  0  0  0  0
 30 29  2  0  0  0  0
 31 30  1  0  0  0  0
 32 31  2  0  0  0  0
 32 33  1  0  0  0  0
 33 35  2  0  0  0  0
 34 33  1  0  0  0  0
 35 29  1  0  0  0  0
 35 40  1  0  0  0  0
 36 31  1  0  0  0  0
 37 32  1  0  0  0  0
 38 39  1  0  0  0  0
 39 40  2  0  0  0  0
 39 44  1  0  0  0  0
 40 41  1  0  0  0  0
 41 45  1  0  0  0  0
 41 42  2  0  0  0  0
 42 46  1  0  0  0  0
 43 42  1  0  0  0  0
 43 47  1  0  0  0  0
 44 43  2  0  0  0  0
 48 44  1  0  0  0  0
M  END
>  <minimizedAffinity>
-6.85620499

$$$$

 OpenBabel03252501443D

 48 53  0  0  1  0  0  0  0  0999 V2000
   38.4630   30.6790   41.2050 C   0  0  0  0  0  0  0  0  0  0  0  0
   39.7500   30.7090   41.2540 O   0  0  0  0  0  0  0  0  0  0  0  0
   37.9300   31.7130   40.3780 N   0  0  0  0  0  0  0  0  0  0  0  0
   36.9360   31.8290   40.1870 H   0  0  0  0  0  0  0  0  0  0  0  0
   39.0090   32.5330   39.8790 C   0  0  0  0  0  0  0  0  0  0  0  0
   39.4020   33.7380   40.3710 C   0  0  0  0  0  0  0  0  0  0  0  0
   40.4550   34.3570   39.7500 C   0  0  0  0  0  0  0  0  0  0  0  0
   41.0270   33.7210   38.6930 N   0  0  0  0  0  0  0  0  0  0  0  0
   40.6180   32.5330   38.2300 C   0  0  0  0  0  0  0  0  0  0  0  0
   39.5760   31.9050   38.8320 N   0  0  0  0  0  0  0  0  0  0  0  0
   40.7850   35.3150   40.1240 H   0  0  0  0  0  0  0  0  0  0  0  0
   38.6950   34.2460   41.4740 N   0  0  0  0  0  0  0  0  0  0  0  0
   39.3800   34.6230   42.1620 H   0  0  0  0  0  0  0  0  0  0  0  0
   37.6680   34.2620   41.6160 H   0  0  0  0  0  0  0  0  0  0  0  0
   41.3500   31.9750   37.0640 C   0  0  0  0  0  2  0  0  0  0  0  0
   42.0950   30.7320   37.4810 C   0  0  1  0  0  0  0  0  0  0  0  0
   42.5260   30.7180   38.8830 C   0  0  0  0  0  2  0  0  0  0  0  0
   42.4490   29.4560   39.4760 N   0  0  1  0  0  0  0  0  0  0  0  0
   42.5250   28.4700   40.4700 C   0  0  1  0  0  0  0  0  0  0  0  0
   43.2030   28.1290   41.4730 O   0  0  0  0  0  1  0  0  0  0  0  0
   41.3110   27.8600   39.8130 C   0  0  0  0  0  3  0  0  0  0  0  0
   40.3890   28.4390   39.9930 H   0  0  0  0  0  0  0  0  0  0  0  0
   42.0270   28.3730   38.6110 C   0  0  1  0  0  0  0  0  0  0  0  0
   41.0350   29.2600   37.3780 S   0  0  0  0  0  0  0  0  0  0  0  0
   43.2710   30.4860   36.5810 C   0  0  0  0  0  2  0  0  0  0  0  0
   44.1830   31.0410   36.8880 H   0  0  0  0  0  0  0  0  0  0  0  0
   37.6150   29.7790   41.8520 O   0  0  0  0  0  0  0  0  0  0  0  0
   37.0020   27.7010   39.8170 Cl  0  0  0  0  0  0  0  0  0  0  0  0
   37.9020   27.4850   41.3080 C   0  0  0  0  0  0  0  0  0  0  0  0
   38.1420   28.5230   42.2060 C   0  0  0  0  0  0  0  0  0  0  0  0
   38.8470   28.3010   43.3490 C   0  0  0  0  0  0  0  0  0  0  0  0
   39.3620   27.0690   43.6940 C   0  0  0  0  0  0  0  0  0  0  0  0
   39.1360   25.9980   42.8020 C   0  0  0  0  0  0  0  0  0  0  0  0
   39.7520   24.3940   43.1550 Cl  0  0  0  0  0  0  0  0  0  0  0  0
   38.4150   26.2620   41.6520 C   0  0  0  0  0  0  0  0  0  0  0  0
   39.0140   29.1310   44.0230 H   0  0  0  0  0  0  0  0  0  0  0  0
   39.9190   26.9130   44.6050 H   0  0  0  0  0  0  0  0  0  0  0  0
   36.2820   24.6110   42.0280 F   0  0  0  0  0  0  0  0  0  0  0  0
   37.0830   24.3390   40.9450 C   0  0  0  0  0  0  0  0  0  0  0  0
   38.1770   25.1600   40.7250 C   0  0  0  0  0  0  0  0  0  0  0  0
   38.9660   24.8510   39.6140 C   0  0  0  0  0  0  0  0  0  0  0  0
   38.6230   23.7730   38.8160 C   0  0  0  0  0  0  0  0  0  0  0  0
   37.4990   22.9800   39.0960 C   0  0  0  0  0  0  0  0  0  0  0  0
   36.6930   23.2590   40.1920 C   0  0  0  0  0  0  0  0  0  0  0  0
   39.8100   25.4870   39.4450 H   0  0  0  0  0  0  0  0  0  0  0  0
   39.2660   23.5710   37.9640 H   0  0  0  0  0  0  0  0  0  0  0  0
   37.2530   22.1400   38.4520 H   0  0  0  0  0  0  0  0  0  0  0  0
   35.8370   22.6740   40.4240 H   0  0  0  0  0  0  0  0  0  0  0  0
  1  2  2  0  0  0  0
  1 27  1  0  0  0  0
  3  1  1  0  0  0  0
  4  3  1  0  0  0  0
  5  6  1  0  0  0  0
  5  3  1  0  0  0  0
  6 12  1  0  0  0  0
  7 11  1  0  0  0  0
  7  6  2  0  0  0  0
  8  7  1  0  0  0  0
  9  8  2  0  0  0  0
  9 10  1  0  0  0  0
 10  5  2  0  0  0  0
 12 14  1  0  0  0  0
 12 13  1  0  0  0  0
 15 16  1  0  0  0  0
 15  9  1  0  0  0  0
 16 25  1  6  0  0  0
 16 17  1  0  0  0  0
 18 17  1  1  0  0  0
 18 19  1  0  0  0  0
 19 20  1  1  0  0  0
 21 22  1  0  0  0  0
 21 19  1  0  0  0  0
 23 24  1  6  0  0  0
 23 18  1  0  0  0  0
 23 21  1  0  0  0  0
 23 19  1  0  0  0  0
 24 16  1  0  0  0  0
 25 26  1  0  0  0  0
 27 30  1  0  0  0  0
 28 29  1  0  0  0  0
 29 35  2  0  0  0  0
 29 30  1  0  0  0  0
 30 31  2  0  0  0  0
 31 32  1  0  0  0  0
 31 36  1  0  0  0  0
 32 37  1  0  0  0  0
 33 34  1  0  0  0  0
 33 32  2  0  0  0  0
 35 33  1  0  0  0  0
 39 38  1  0  0  0  0
 40 39  1  0  0  0  0
 40 35  1  0  0  0  0
 41 40  2  0  0  0  0
 42 43  2  0  0  0  0
 42 41  1  0  0  0  0
 43 44  1  0  0  0  0
 44 48  1  0  0  0  0
 44 39  2  0  0  0  0
 45 41  1  0  0  0  0
 46 42  1  0  0  0  0
 47 43  1  0  0  0  0
M  END
>  <minimizedAffinity>
-6.80862856

$$$$

 OpenBabel03252501443D

 48 53  0  0  1  0  0  0  0  0999 V2000
   38.0120   31.6900   40.8900 C   0  0  0  0  0  0  0  0  0  0  0  0
   39.2010   31.6250   41.3820 O   0  0  0  0  0  0  0  0  0  0  0  0
   37.9140   32.6500   39.8380 N   0  0  0  0  0  0  0  0  0  0  0  0
   37.0640   32.8170   39.3030 H   0  0  0  0  0  0  0  0  0  0  0  0
   39.1860   33.3140   39.6750 C   0  0  0  0  0  0  0  0  0  0  0  0
   39.6530   34.3570   40.4110 C   0  0  0  0  0  0  0  0  0  0  0  0
   40.8940   34.8460   40.0930 C   0  0  0  0  0  0  0  0  0  0  0  0
   41.5620   34.2510   39.0680 N   0  0  0  0  0  0  0  0  0  0  0  0
   41.0760   33.2240   38.3600 C   0  0  0  0  0  0  0  0  0  0  0  0
   39.8500   32.7270   38.6610 N   0  0  0  0  0  0  0  0  0  0  0  0
   41.2850   35.6740   40.6640 H   0  0  0  0  0  0  0  0  0  0  0  0
   38.8240   34.8460   41.4340 N   0  0  0  0  0  0  0  0  0  0  0  0
   39.4050   35.0050   42.2850 H   0  0  0  0  0  0  0  0  0  0  0  0
   37.8050   35.0310   41.3910 H   0  0  0  0  0  0  0  0  0  0  0  0
   41.9340   32.6890   37.2720 C   0  0  0  0  0  2  0  0  0  0  0  0
   42.7580   31.5400   37.7940 C   0  0  1  0  0  0  0  0  0  0  0  0
   42.1650   30.8270   38.9310 C   0  0  0  0  0  2  0  0  0  0  0  0
   42.3940   29.4500   38.9040 N   0  0  1  0  0  0  0  0  0  0  0  0
   42.3280   28.1050   39.2940 C   0  0  1  0  0  0  0  0  0  0  0  0
   42.2960   27.3740   40.3170 O   0  0  0  0  0  1  0  0  0  0  0  0
   42.3080   27.7850   37.8190 C   0  0  0  0  0  3  0  0  0  0  0  0
   41.3470   28.0360   37.3390 H   0  0  0  0  0  0  0  0  0  0  0  0
   43.2190   28.9650   37.8170 C   0  0  1  0  0  0  0  0  0  0  0  0
   42.9280   30.2280   36.5500 S   0  0  0  0  0  0  0  0  0  0  0  0
   44.1470   31.9920   38.1420 C   0  0  0  0  0  2  0  0  0  0  0  0
   44.2290   32.4140   39.1670 H   0  0  0  0  0  0  0  0  0  0  0  0
   36.8970   30.9460   41.2790 O   0  0  0  0  0  0  0  0  0  0  0  0
   38.2240   28.5680   42.4710 Cl  0  0  0  0  0  0  0  0  0  0  0  0
   37.1950   28.6020   41.0500 C   0  0  0  0  0  0  0  0  0  0  0  0
   36.6130   29.7700   40.5630 C   0  0  0  0  0  0  0  0  0  0  0  0
   35.8220   29.7390   39.4550 C   0  0  0  0  0  0  0  0  0  0  0  0
   35.5440   28.5840   38.7540 C   0  0  0  0  0  0  0  0  0  0  0  0
   36.1200   27.3840   39.2260 C   0  0  0  0  0  0  0  0  0  0  0  0
   35.8240   25.8640   38.4000 Cl  0  0  0  0  0  0  0  0  0  0  0  0
   36.9180   27.4550   40.3520 C   0  0  0  0  0  0  0  0  0  0  0  0
   35.3860   30.6660   39.1040 H   0  0  0  0  0  0  0  0  0  0  0  0
   34.9150   28.5810   37.8780 H   0  0  0  0  0  0  0  0  0  0  0  0
   39.3380   26.6460   39.4030 F   0  0  0  0  0  0  0  0  0  0  0  0
   38.7480   25.8360   40.3430 C   0  0  0  0  0  0  0  0  0  0  0  0
   37.5160   26.2190   40.8470 C   0  0  0  0  0  0  0  0  0  0  0  0
   36.9490   25.3690   41.8010 C   0  0  0  0  0  0  0  0  0  0  0  0
   37.6290   24.2240   42.1800 C   0  0  0  0  0  0  0  0  0  0  0  0
   38.8770   23.8940   41.6280 C   0  0  0  0  0  0  0  0  0  0  0  0
   39.4700   24.7160   40.6780 C   0  0  0  0  0  0  0  0  0  0  0  0
   35.9970   25.6660   42.1890 H   0  0  0  0  0  0  0  0  0  0  0  0
   37.1490   23.5940   42.9230 H   0  0  0  0  0  0  0  0  0  0  0  0
   39.3880   22.9890   41.9450 H   0  0  0  0  0  0  0  0  0  0  0  0
   40.4130   24.4880   40.2480 H   0  0  0  0  0  0  0  0  0  0  0  0
  1 27  1  0  0  0  0
  1  2  2  0  0  0  0
  3  1  1  0  0  0  0
  4  3  1  0  0  0  0
  5  3  1  0  0  0  0
  5  6  1  0  0  0  0
  6 12  1  0  0  0  0
  7  6  2  0  0  0  0
  7 11  1  0  0  0  0
  8  7  1  0  0  0  0
  9 10  1  0  0  0  0
  9  8  2  0  0  0  0
 10  5  2  0  0  0  0
 12 13  1  0  0  0  0
 14 12  1  0  0  0  0
 15  9  1  0  0  0  0
 16 15  1  6  0  0  0
 16 25  1  0  0  0  0
 16 17  1  0  0  0  0
 18 17  1  6  0  0  0
 18 19  1  0  0  0  0
 19 20  1  1  0  0  0
 21 19  1  0  0  0  0
 22 21  1  0  0  0  0
 23 24  1  6  0  0  0
 23 21  1  0  0  0  0
 23 18  1  0  0  0  0
 23 19  1  0  0  0  0
 24 16  1  0  0  0  0
 25 26  1  0  0  0  0
 29 28  1  0  0  0  0
 30 29  1  0  0  0  0
 30 27  1  0  0  0  0
 31 30  2  0  0  0  0
 32 33  2  0  0  0  0
 32 31  1  0  0  0  0
 33 35  1  0  0  0  0
 34 33  1  0  0  0  0
 35 40  1  0  0  0  0
 35 29  2  0  0  0  0
 36 31  1  0  0  0  0
 37 32  1  0  0  0  0
 38 39  1  0  0  0  0
 39 44  2  0  0  0  0
 39 40  1  0  0  0  0
 40 41  2  0  0  0  0
 41 42  1  0  0  0  0
 41 45  1  0  0  0  0
 42 46  1  0  0  0  0
 43 47  1  0  0  0  0
 43 42  2  0  0  0  0
 44 43  1  0  0  0  0
 48 44  1  0  0  0  0
M  END
>  <minimizedAffinity>
-6.78205442

$$$$

 OpenBabel03252501443D

 48 53  0  0  1  0  0  0  0  0999 V2000
   38.7560   30.7370   38.5030 C   0  0  0  0  0  0  0  0  0  0  0  0
   38.7190   31.7450   37.7020 O   0  0  0  0  0  0  0  0  0  0  0  0
   39.0190   31.1270   39.8500 N   0  0  0  0  0  0  0  0  0  0  0  0
   39.0490   30.4750   40.6320 H   0  0  0  0  0  0  0  0  0  0  0  0
   39.2250   32.5550   39.9050 C   0  0  0  0  0  0  0  0  0  0  0  0
   38.2700   33.5030   40.1030 C   0  0  0  0  0  0  0  0  0  0  0  0
   38.6770   34.8110   40.1210 C   0  0  0  0  0  0  0  0  0  0  0  0
   40.0020   35.0620   39.9420 N   0  0  0  0  0  0  0  0  0  0  0  0
   40.9210   34.1080   39.7500 C   0  0  0  0  0  0  0  0  0  0  0  0
   40.5370   32.8070   39.7280 N   0  0  0  0  0  0  0  0  0  0  0  0
   37.9360   35.5800   40.2770 H   0  0  0  0  0  0  0  0  0  0  0  0
   36.9480   33.0590   40.2700 N   0  0  0  0  0  0  0  0  0  0  0  0
   36.5190   33.5840   41.0620 H   0  0  0  0  0  0  0  0  0  0  0  0
   36.4470   32.3360   39.7210 H   0  0  0  0  0  0  0  0  0  0  0  0
   42.3270   34.5520   39.5700 C   0  0  0  0  0  2  0  0  0  0  0  0
   43.1500   34.1220   40.7570 C   0  0  1  0  0  0  0  0  0  0  0  0
   42.8750   32.7620   41.2330 C   0  0  0  0  0  2  0  0  0  0  0  0
   44.0150   32.0880   41.6800 N   0  0  2  0  0  0  0  0  0  0  0  0
   44.8050   31.0450   42.1830 C   0  0  1  0  0  0  0  0  0  0  0  0
   44.7720   30.0830   42.9920 O   0  0  0  0  0  1  0  0  0  0  0  0
   45.8870   31.5630   41.2660 C   0  0  0  0  0  3  0  0  0  0  0  0
   45.6900   31.3430   40.2030 H   0  0  0  0  0  0  0  0  0  0  0  0
   45.2480   32.8480   41.6650 C   0  0  1  0  0  0  0  0  0  0  0  0
   44.9170   34.0470   40.3450 S   0  0  0  0  0  0  0  0  0  0  0  0
   43.0080   35.0990   41.8890 C   0  0  0  0  0  2  0  0  0  0  0  0
   42.1230   34.9020   42.5310 H   0  0  0  0  0  0  0  0  0  0  0  0
   38.5700   29.3940   38.1750 O   0  0  0  0  0  0  0  0  0  0  0  0
   40.8200   28.3780   39.8310 Cl  0  0  0  0  0  0  0  0  0  0  0  0
   39.1160   28.0010   40.0190 C   0  0  0  0  0  0  0  0  0  0  0  0
   38.1270   28.5270   39.1910 C   0  0  0  0  0  0  0  0  0  0  0  0
   36.8190   28.2020   39.3810 C   0  0  0  0  0  0  0  0  0  0  0  0
   36.3870   27.3520   40.3790 C   0  0  0  0  0  0  0  0  0  0  0  0
   37.3680   26.8040   41.2340 C   0  0  0  0  0  0  0  0  0  0  0  0
   36.9150   25.7130   42.5320 Cl  0  0  0  0  0  0  0  0  0  0  0  0
   38.6850   27.1570   41.0100 C   0  0  0  0  0  0  0  0  0  0  0  0
   36.0780   28.6290   38.7190 H   0  0  0  0  0  0  0  0  0  0  0  0
   35.3460   27.1060   40.5130 H   0  0  0  0  0  0  0  0  0  0  0  0
   39.3280   28.4320   43.3290 F   0  0  0  0  0  0  0  0  0  0  0  0
   40.0080   27.2680   43.0620 C   0  0  0  0  0  0  0  0  0  0  0  0
   39.7050   26.5950   41.8900 C   0  0  0  0  0  0  0  0  0  0  0  0
   40.4180   25.4160   41.6550 C   0  0  0  0  0  0  0  0  0  0  0  0
   41.3610   24.9960   42.5770 C   0  0  0  0  0  0  0  0  0  0  0  0
   41.6200   25.7290   43.7470 C   0  0  0  0  0  0  0  0  0  0  0  0
   40.9290   26.9050   44.0130 C   0  0  0  0  0  0  0  0  0  0  0  0
   40.1820   24.8960   40.7490 H   0  0  0  0  0  0  0  0  0  0  0  0
   41.8900   24.0750   42.3520 H   0  0  0  0  0  0  0  0  0  0  0  0
   42.3650   25.3760   44.4540 H   0  0  0  0  0  0  0  0  0  0  0  0
   41.1080   27.4740   44.8910 H   0  0  0  0  0  0  0  0  0  0  0  0
  1  3  1  0  0  0  0
  2  1  2  0  0  0  0
  3  5  1  0  0  0  0
  3  4  1  0  0  0  0
  5  6  1  0  0  0  0
  6  7  2  0  0  0  0
  6 12  1  0  0  0  0
  7 11  1  0  0  0  0
  8  7  1  0  0  0  0
  9  8  2  0  0  0  0
 10  9  1  0  0  0  0
 10  5  2  0  0  0  0
 12 13  1  0  0  0  0
 14 12  1  0  0  0  0
 15  9  1  0  0  0  0
 16 15  1  6  0  0  0
 16 17  1  0  0  0  0
 16 25  1  0  0  0  0
 18 17  1  1  0  0  0
 18 19  1  0  0  0  0
 19 20  1  1  0  0  0
 21 23  1  0  0  0  0
 21 19  1  0  0  0  0
 22 21  1  0  0  0  0
 23 24  1  1  0  0  0
 23 18  1  0  0  0  0
 23 19  1  0  0  0  0
 24 16  1  0  0  0  0
 25 26  1  0  0  0  0
 27  1  1  0  0  0  0
 27 30  1  0  0  0  0
 28 29  1  0  0  0  0
 29 35  1  0  0  0  0
 30 31  1  0  0  0  0
 30 29  2  0  0  0  0
 31 32  2  0  0  0  0
 32 37  1  0  0  0  0
 32 33  1  0  0  0  0
 33 34  1  0  0  0  0
 35 33  2  0  0  0  0
 35 40  1  0  0  0  0
 36 31  1  0  0  0  0
 39 38  1  0  0  0  0
 39 44  1  0  0  0  0
 40 39  2  0  0  0  0
 41 40  1  0  0  0  0
 41 42  2  0  0  0  0
 42 43  1  0  0  0  0
 43 44  2  0  0  0  0
 43 47  1  0  0  0  0
 44 48  1  0  0  0  0
 45 41  1  0  0  0  0
 46 42  1  0  0  0  0
M  END
>  <minimizedAffinity>
-6.78039598

$$$$

 OpenBabel03252501443D

 48 53  0  0  1  0  0  0  0  0999 V2000
   36.5890   30.9420   39.8280 C   0  0  0  0  0  0  0  0  0  0  0  0
   37.4760   31.0320   38.8980 O   0  0  0  0  0  0  0  0  0  0  0  0
   36.8340   31.8540   40.8980 N   0  0  0  0  0  0  0  0  0  0  0  0
   36.2220   31.9560   41.7060 H   0  0  0  0  0  0  0  0  0  0  0  0
   38.0560   32.5800   40.6410 C   0  0  0  0  0  0  0  0  0  0  0  0
   38.1730   33.7460   39.9510 C   0  0  0  0  0  0  0  0  0  0  0  0
   39.4310   34.2740   39.8190 C   0  0  0  0  0  0  0  0  0  0  0  0
   40.4630   33.5940   40.3860 N   0  0  0  0  0  0  0  0  0  0  0  0
   40.3170   32.4470   41.0610 C   0  0  0  0  0  0  0  0  0  0  0  0
   39.0800   31.9090   41.2020 N   0  0  0  0  0  0  0  0  0  0  0  0
   39.5480   35.1990   39.2760 H   0  0  0  0  0  0  0  0  0  0  0  0
   36.9950   34.3090   39.4330 N   0  0  0  0  0  0  0  0  0  0  0  0
   37.0040   35.3330   39.6250 H   0  0  0  0  0  0  0  0  0  0  0  0
   36.2240   33.8240   38.9380 H   0  0  0  0  0  0  0  0  0  0  0  0
   41.5480   31.8310   41.6180 C   0  0  0  0  0  2  0  0  0  0  0  0
   42.0990   30.8240   40.6420 C   0  0  1  0  0  0  0  0  0  0  0  0
   41.0820   30.0920   39.8790 C   0  0  0  0  0  2  0  0  0  0  0  0
   41.4570   29.8310   38.5580 N   0  0  1  0  0  0  0  0  0  0  0  0
   41.3590   29.3780   37.2360 C   0  0  1  0  0  0  0  0  0  0  0  0
   40.8740   28.4450   36.5450 O   0  0  0  0  0  1  0  0  0  0  0  0
   42.1720   30.5950   36.8670 C   0  0  0  0  0  3  0  0  0  0  0  0
   41.5950   31.5330   36.9370 H   0  0  0  0  0  0  0  0  0  0  0  0
   42.7890   30.2590   38.1820 C   0  0  1  0  0  0  0  0  0  0  0  0
   43.0690   31.6300   39.3340 S   0  0  0  0  0  0  0  0  0  0  0  0
   43.0170   29.8560   41.3300 C   0  0  0  0  0  2  0  0  0  0  0  0
   42.4840   28.9990   41.7950 H   0  0  0  0  0  0  0  0  0  0  0  0
   35.4900   30.0840   39.8640 O   0  0  0  0  0  0  0  0  0  0  0  0
   37.1520   28.4520   41.7110 Cl  0  0  0  0  0  0  0  0  0  0  0  0
   36.4380   27.9320   40.1940 C   0  0  0  0  0  0  0  0  0  0  0  0
   35.6690   28.7710   39.3910 C   0  0  0  0  0  0  0  0  0  0  0  0
   35.1390   28.3160   38.2220 C   0  0  0  0  0  0  0  0  0  0  0  0
   35.3170   27.0280   37.7610 C   0  0  0  0  0  0  0  0  0  0  0  0
   36.0910   26.1550   38.5550 C   0  0  0  0  0  0  0  0  0  0  0  0
   36.3720   24.4980   38.0510 Cl  0  0  0  0  0  0  0  0  0  0  0  0
   36.6130   26.6530   39.7340 C   0  0  0  0  0  0  0  0  0  0  0  0
   34.5470   28.9950   37.6230 H   0  0  0  0  0  0  0  0  0  0  0  0
   34.8880   26.6860   36.8320 H   0  0  0  0  0  0  0  0  0  0  0  0
   39.3070   26.5060   39.3580 F   0  0  0  0  0  0  0  0  0  0  0  0
   38.7820   25.7050   40.3440 C   0  0  0  0  0  0  0  0  0  0  0  0
   37.4150   25.7560   40.5610 C   0  0  0  0  0  0  0  0  0  0  0  0
   36.9200   24.9270   41.5720 C   0  0  0  0  0  0  0  0  0  0  0  0
   37.7960   24.1240   42.2820 C   0  0  0  0  0  0  0  0  0  0  0  0
   39.1740   24.1210   42.0090 C   0  0  0  0  0  0  0  0  0  0  0  0
   39.6990   24.9320   41.0120 C   0  0  0  0  0  0  0  0  0  0  0  0
   35.8640   24.9680   41.7380 H   0  0  0  0  0  0  0  0  0  0  0  0
   37.3660   23.4970   43.0570 H   0  0  0  0  0  0  0  0  0  0  0  0
   39.8390   23.4800   42.5830 H   0  0  0  0  0  0  0  0  0  0  0  0
   40.7370   24.9470   40.7900 H   0  0  0  0  0  0  0  0  0  0  0  0
  1 27  1  0  0  0  0
  1  3  1  0  0  0  0
  2  1  2  0  0  0  0
  3  4  1  0  0  0  0
  5  3  1  0  0  0  0
  5 10  1  0  0  0  0
  6  5  2  0  0  0  0
  7  6  1  0  0  0  0
  7  8  2  0  0  0  0
  8  9  1  0  0  0  0
  9 10  2  0  0  0  0
  9 15  1  0  0  0  0
 11  7  1  0  0  0  0
 12 13  1  0  0  0  0
 12  6  1  0  0  0  0
 14 12  1  0  0  0  0
 16 25  1  1  0  0  0
 16 15  1  0  0  0  0
 17 16  1  0  0  0  0
 18 17  1  6  0  0  0
 19 20  1  6  0  0  0
 19 23  1  0  0  0  0
 19 18  1  0  0  0  0
 21 22  1  0  0  0  0
 21 19  1  0  0  0  0
 23 21  1  6  0  0  0
 23 18  1  0  0  0  0
 23 24  1  0  0  0  0
 24 16  1  0  0  0  0
 25 26  1  0  0  0  0
 29 28  1  0  0  0  0
 30 27  1  0  0  0  0
 30 29  2  0  0  0  0
 31 30  1  0  0  0  0
 32 31  2  0  0  0  0
 32 33  1  0  0  0  0
 33 35  2  0  0  0  0
 34 33  1  0  0  0  0
 35 29  1  0  0  0  0
 35 40  1  0  0  0  0
 36 31  1  0  0  0  0
 37 32  1  0  0  0  0
 38 39  1  0  0  0  0
 39 40  2  0  0  0  0
 39 44  1  0  0  0  0
 40 41  1  0  0  0  0
 41 45  1  0  0  0  0
 41 42  2  0  0  0  0
 42 46  1  0  0  0  0
 43 42  1  0  0  0  0
 43 47  1  0  0  0  0
 44 43  2  0  0  0  0
 48 44  1  0  0  0  0
M  END
>  <minimizedAffinity>
-6.74113369

$$$$

 OpenBabel03252501443D

 48 53  0  0  1  0  0  0  0  0999 V2000
   36.6740   30.9550   39.0690 C   0  0  0  0  0  0  0  0  0  0  0  0
   36.7070   31.2190   40.3290 O   0  0  0  0  0  0  0  0  0  0  0  0
   37.6550   31.6890   38.3370 N   0  0  0  0  0  0  0  0  0  0  0  0
   37.8070   31.5870   37.3350 H   0  0  0  0  0  0  0  0  0  0  0  0
   38.3690   32.5660   39.2360 C   0  0  0  0  0  0  0  0  0  0  0  0
   37.9930   33.8170   39.6110 C   0  0  0  0  0  0  0  0  0  0  0  0
   38.8150   34.4870   40.4790 C   0  0  0  0  0  0  0  0  0  0  0  0
   39.9410   33.8500   40.8990 N   0  0  0  0  0  0  0  0  0  0  0  0
   40.2860   32.6160   40.5130 C   0  0  0  0  0  0  0  0  0  0  0  0
   39.4840   31.9370   39.6540 N   0  0  0  0  0  0  0  0  0  0  0  0
   38.5360   35.4820   40.7910 H   0  0  0  0  0  0  0  0  0  0  0  0
   36.7940   34.3180   39.0760 N   0  0  0  0  0  0  0  0  0  0  0  0
   36.2550   34.7760   39.8410 H   0  0  0  0  0  0  0  0  0  0  0  0
   36.4650   34.2620   38.0940 H   0  0  0  0  0  0  0  0  0  0  0  0
   41.5500   32.0650   41.0650 C   0  0  0  0  0  2  0  0  0  0  0  0
   41.2360   31.0300   42.1150 C   0  0  1  0  0  0  0  0  0  0  0  0
   39.8530   31.0530   42.6040 C   0  0  0  0  0  2  0  0  0  0  0  0
   39.3360   29.7830   42.8720 N   0  0  1  0  0  0  0  0  0  0  0  0
   38.4070   28.8000   43.2390 C   0  0  1  0  0  0  0  0  0  0  0  0
   37.4510   28.5900   44.0290 O   0  0  0  0  0  1  0  0  0  0  0  0
   39.0580   27.9380   42.1850 C   0  0  0  0  0  3  0  0  0  0  0  0
   38.8120   28.2570   41.1580 H   0  0  0  0  0  0  0  0  0  0  0  0
   40.2510   28.6750   42.6910 C   0  0  1  0  0  0  0  0  0  0  0  0
   41.3910   29.3460   41.4520 S   0  0  0  0  0  0  0  0  0  0  0  0
   42.1890   31.1320   43.2700 C   0  0  0  0  0  2  0  0  0  0  0  0
   41.8810   31.8820   44.0290 H   0  0  0  0  0  0  0  0  0  0  0  0
   35.8140   30.0710   38.4150 O   0  0  0  0  0  0  0  0  0  0  0  0
   36.0310   27.8480   40.3760 Cl  0  0  0  0  0  0  0  0  0  0  0  0
   36.5170   27.8200   38.6900 C   0  0  0  0  0  0  0  0  0  0  0  0
   36.3760   28.9160   37.8420 C   0  0  0  0  0  0  0  0  0  0  0  0
   36.7700   28.8400   36.5410 C   0  0  0  0  0  0  0  0  0  0  0  0
   37.3210   27.7050   35.9810 C   0  0  0  0  0  0  0  0  0  0  0  0
   37.4740   26.5780   36.8170 C   0  0  0  0  0  0  0  0  0  0  0  0
   38.1650   25.0900   36.1950 Cl  0  0  0  0  0  0  0  0  0  0  0  0
   37.0640   26.6940   38.1320 C   0  0  0  0  0  0  0  0  0  0  0  0
   36.6450   29.7110   35.9110 H   0  0  0  0  0  0  0  0  0  0  0  0
   37.6260   27.6650   34.9480 H   0  0  0  0  0  0  0  0  0  0  0  0
   39.4290   26.2660   39.4120 F   0  0  0  0  0  0  0  0  0  0  0  0
   38.4350   25.3440   39.6390 C   0  0  0  0  0  0  0  0  0  0  0  0
   37.2200   25.5330   39.0030 C   0  0  0  0  0  0  0  0  0  0  0  0
   36.2350   24.5740   39.2590 C   0  0  0  0  0  0  0  0  0  0  0  0
   36.5190   23.5190   40.1090 C   0  0  0  0  0  0  0  0  0  0  0  0
   37.7760   23.3880   40.7220 C   0  0  0  0  0  0  0  0  0  0  0  0
   38.7770   24.3220   40.4900 C   0  0  0  0  0  0  0  0  0  0  0  0
   35.2960   24.7210   38.7670 H   0  0  0  0  0  0  0  0  0  0  0  0
   35.7240   22.7990   40.2780 H   0  0  0  0  0  0  0  0  0  0  0  0
   37.9700   22.5490   41.3860 H   0  0  0  0  0  0  0  0  0  0  0  0
   39.7330   24.2440   40.9430 H   0  0  0  0  0  0  0  0  0  0  0  0
  1  2  2  0  0  0  0
  3  1  1  0  0  0  0
  3  5  1  0  0  0  0
  4  3  1  0  0  0  0
  5  6  2  0  0  0  0
  5 10  1  0  0  0  0
  6  7  1  0  0  0  0
  7 11  1  0  0  0  0
  7  8  2  0  0  0  0
  9  8  1  0  0  0  0
  9 15  1  0  0  0  0
 10  9  2  0  0  0  0
 12  6  1  0  0  0  0
 12 13  1  0  0  0  0
 14 12  1  0  0  0  0
 16 15  1  6  0  0  0
 16 17  1  0  0  0  0
 16 25  1  0  0  0  0
 18 17  1  6  0  0  0
 18 19  1  0  0  0  0
 19 20  1  1  0  0  0
 21 23  1  0  0  0  0
 21 19  1  0  0  0  0
 22 21  1  0  0  0  0
 23 24  1  1  0  0  0
 23 18  1  0  0  0  0
 23 19  1  0  0  0  0
 24 16  1  0  0  0  0
 25 26  1  0  0  0  0
 27  1  1  0  0  0  0
 29 28  1  0  0  0  0
 30 27  1  0  0  0  0
 30 29  2  0  0  0  0
 31 30  1  0  0  0  0
 32 31  2  0  0  0  0
 32 33  1  0  0  0  0
 33 35  2  0  0  0  0
 34 33  1  0  0  0  0
 35 29  1  0  0  0  0
 35 40  1  0  0  0  0
 36 31  1  0  0  0  0
 37 32  1  0  0  0  0
 38 39  1  0  0  0  0
 39 44  1  0  0  0  0
 40 41  1  0  0  0  0
 40 39  2  0  0  0  0
 41 42  2  0  0  0  0
 42 46  1  0  0  0  0
 42 43  1  0  0  0  0
 43 47  1  0  0  0  0
 44 43  2  0  0  0  0
 44 48  1  0  0  0  0
 45 41  1  0  0  0  0
M  END
>  <minimizedAffinity>
-6.67284822

$$$$

 OpenBabel03252501443D

 48 53  0  0  1  0  0  0  0  0999 V2000
   38.7520   30.4030   40.7870 C   0  0  0  0  0  0  0  0  0  0  0  0
   40.0240   30.2610   40.6380 O   0  0  0  0  0  0  0  0  0  0  0  0
   38.2270   31.4540   39.9780 N   0  0  0  0  0  0  0  0  0  0  0  0
   37.2380   31.6930   39.9320 H   0  0  0  0  0  0  0  0  0  0  0  0
   39.3060   32.0940   39.2620 C   0  0  0  0  0  0  0  0  0  0  0  0
   39.7120   31.8140   37.9940 C   0  0  0  0  0  0  0  0  0  0  0  0
   40.7620   32.5400   37.4970 C   0  0  0  0  0  0  0  0  0  0  0  0
   41.3170   33.4830   38.3050 N   0  0  0  0  0  0  0  0  0  0  0  0
   40.8960   33.7360   39.5510 C   0  0  0  0  0  0  0  0  0  0  0  0
   39.8570   33.0270   40.0600 N   0  0  0  0  0  0  0  0  0  0  0  0
   41.1010   32.3360   36.4920 H   0  0  0  0  0  0  0  0  0  0  0  0
   39.0200   30.8060   37.3040 N   0  0  0  0  0  0  0  0  0  0  0  0
   38.8340   31.1350   36.3330 H   0  0  0  0  0  0  0  0  0  0  0  0
   38.7270   29.8780   37.6620 H   0  0  0  0  0  0  0  0  0  0  0  0
   41.6120   34.7990   40.3010 C   0  0  0  0  0  2  0  0  0  0  0  0
   42.7990   34.2030   41.0150 C   0  0  1  0  0  0  0  0  0  0  0  0
   42.5910   32.8410   41.5180 C   0  0  0  0  0  2  0  0  0  0  0  0
   43.7260   32.0330   41.4200 N   0  0  1  0  0  0  0  0  0  0  0  0
   44.5260   30.8850   41.5080 C   0  0  1  0  0  0  0  0  0  0  0  0
   44.7210   29.8700   42.2230 O   0  0  0  0  0  1  0  0  0  0  0  0
   45.1800   31.3700   40.2360 C   0  0  0  0  0  3  0  0  0  0  0  0
   44.5330   31.2540   39.3500 H   0  0  0  0  0  0  0  0  0  0  0  0
   44.9190   32.6750   40.9090 C   0  0  1  0  0  0  0  0  0  0  0  0
   44.2110   33.9980   39.8920 S   0  0  0  0  0  0  0  0  0  0  0  0
   43.2560   35.0970   42.1310 C   0  0  0  0  0  2  0  0  0  0  0  0
   42.7020   34.9340   43.0800 H   0  0  0  0  0  0  0  0  0  0  0  0
   37.9130   29.6600   41.6190 O   0  0  0  0  0  0  0  0  0  0  0  0
   37.2930   27.5120   39.6610 Cl  0  0  0  0  0  0  0  0  0  0  0  0
   38.1220   27.3330   41.1970 C   0  0  0  0  0  0  0  0  0  0  0  0
   38.3700   28.4020   42.0540 C   0  0  0  0  0  0  0  0  0  0  0  0
   39.0170   28.2070   43.2360 C   0  0  0  0  0  0  0  0  0  0  0  0
   39.4640   26.9720   43.6600 C   0  0  0  0  0  0  0  0  0  0  0  0
   39.2270   25.8700   42.8100 C   0  0  0  0  0  0  0  0  0  0  0  0
   39.7580   24.2600   43.2640 Cl  0  0  0  0  0  0  0  0  0  0  0  0
   38.5660   26.1070   41.6200 C   0  0  0  0  0  0  0  0  0  0  0  0
   39.1930   29.0610   43.8770 H   0  0  0  0  0  0  0  0  0  0  0  0
   39.9750   26.8380   44.6000 H   0  0  0  0  0  0  0  0  0  0  0  0
   36.3320   24.5870   41.9610 F   0  0  0  0  0  0  0  0  0  0  0  0
   37.1720   24.2190   40.9370 C   0  0  0  0  0  0  0  0  0  0  0  0
   38.3170   24.9720   40.7360 C   0  0  0  0  0  0  0  0  0  0  0  0
   39.1450   24.5660   39.6850 C   0  0  0  0  0  0  0  0  0  0  0  0
   38.7870   23.4670   38.9240 C   0  0  0  0  0  0  0  0  0  0  0  0
   37.6090   22.7470   39.1820 C   0  0  0  0  0  0  0  0  0  0  0  0
   36.7640   23.1230   40.2180 C   0  0  0  0  0  0  0  0  0  0  0  0
   40.0300   25.1490   39.5320 H   0  0  0  0  0  0  0  0  0  0  0  0
   39.4610   23.1900   38.1190 H   0  0  0  0  0  0  0  0  0  0  0  0
   37.3530   21.8890   38.5670 H   0  0  0  0  0  0  0  0  0  0  0  0
   35.8680   22.5950   40.4310 H   0  0  0  0  0  0  0  0  0  0  0  0
  1 27  1  0  0  0  0
  2  1  2  0  0  0  0
  3  1  1  0  0  0  0
  4  3  1  0  0  0  0
  5  3  1  0  0  0  0
  5 10  1  0  0  0  0
  6  5  2  0  0  0  0
  7  6  1  0  0  0  0
  7  8  2  0  0  0  0
  8  9  1  0  0  0  0
  9 10  2  0  0  0  0
  9 15  1  0  0  0  0
 11  7  1  0  0  0  0
 12 14  1  0  0  0  0
 12  6  1  0  0  0  0
 13 12  1  0  0  0  0
 16 15  1  6  0  0  0
 16 17  1  0  0  0  0
 16 25  1  0  0  0  0
 18 19  1  0  0  0  0
 18 17  1  6  0  0  0
 19 20  1  1  0  0  0
 21 23  1  0  0  0  0
 21 19  1  0  0  0  0
 22 21  1  0  0  0  0
 23 24  1  1  0  0  0
 23 18  1  0  0  0  0
 23 19  1  0  0  0  0
 24 16  1  0  0  0  0
 25 26  1  0  0  0  0
 27 30  1  0  0  0  0
 28 29  1  0  0  0  0
 29 35  2  0  0  0  0
 29 30  1  0  0  0  0
 30 31  2  0  0  0  0
 31 32  1  0  0  0  0
 31 36  1  0  0  0  0
 32 37  1  0  0  0  0
 33 34  1  0  0  0  0
 33 32  2  0  0  0  0
 35 33  1  0  0  0  0
 39 38  1  0  0  0  0
 40 39  1  0  0  0  0
 40 35  1  0  0  0  0
 41 40  2  0  0  0  0
 42 43  2  0  0  0  0
 42 41  1  0  0  0  0
 43 44  1  0  0  0  0
 44 48  1  0  0  0  0
 44 39  2  0  0  0  0
 45 41  1  0  0  0  0
 46 42  1  0  0  0  0
 47 43  1  0  0  0  0
M  END
>  <minimizedAffinity>
-6.61408901

$$$$

 OpenBabel03252501443D

 48 53  0  0  1  0  0  0  0  0999 V2000
   41.6920   29.5540   37.2440 C   0  0  0  0  0  0  0  0  0  0  0  0
   42.6270   29.3520   38.1060 O   0  0  0  0  0  0  0  0  0  0  0  0
   42.0650   30.5160   36.2580 N   0  0  0  0  0  0  0  0  0  0  0  0
   41.4720   30.7810   35.4730 H   0  0  0  0  0  0  0  0  0  0  0  0
   43.3820   31.0270   36.5600 C   0  0  0  0  0  0  0  0  0  0  0  0
   44.5660   30.4970   36.1550 C   0  0  0  0  0  0  0  0  0  0  0  0
   45.7100   31.1380   36.5520 C   0  0  0  0  0  0  0  0  0  0  0  0
   45.5740   32.2540   37.3170 N   0  0  0  0  0  0  0  0  0  0  0  0
   44.3930   32.7550   37.7010 C   0  0  0  0  0  0  0  0  0  0  0  0
   43.2500   32.1330   37.3170 N   0  0  0  0  0  0  0  0  0  0  0  0
   46.6630   30.7350   36.2430 H   0  0  0  0  0  0  0  0  0  0  0  0
   44.5160   29.3360   35.3660 N   0  0  0  0  0  0  0  0  0  0  0  0
   45.1910   29.4400   34.5790 H   0  0  0  0  0  0  0  0  0  0  0  0
   43.9230   28.4970   35.5080 H   0  0  0  0  0  0  0  0  0  0  0  0
   44.4200   33.9820   38.5360 C   0  0  0  0  0  2  0  0  0  0  0  0
   43.7070   33.7240   39.8390 C   0  0  1  0  0  0  0  0  0  0  0  0
   42.2470   33.8530   39.7740 C   0  0  0  0  0  2  0  0  0  0  0  0
   41.5700   32.9250   40.5700 N   0  0  1  0  0  0  0  0  0  0  0  0
   40.4970   32.2320   41.1460 C   0  0  1  0  0  0  0  0  0  0  0  0
   39.3270   32.4040   41.5740 O   0  0  0  0  0  1  0  0  0  0  0  0
   41.3760   31.0080   41.0620 C   0  0  0  0  0  3  0  0  0  0  0  0
   41.4940   30.6340   40.0310 H   0  0  0  0  0  0  0  0  0  0  0  0
   42.4020   32.0450   41.3650 C   0  0  1  0  0  0  0  0  0  0  0  0
   43.9270   32.0050   40.3850 S   0  0  0  0  0  0  0  0  0  0  0  0
   44.2510   34.6000   40.9300 C   0  0  0  0  0  2  0  0  0  0  0  0
   43.7800   35.6060   40.9620 H   0  0  0  0  0  0  0  0  0  0  0  0
   40.4360   28.9470   37.2040 O   0  0  0  0  0  0  0  0  0  0  0  0
   40.0740   27.4770   39.7620 Cl  0  0  0  0  0  0  0  0  0  0  0  0
   39.1730   28.8800   39.2140 C   0  0  0  0  0  0  0  0  0  0  0  0
   39.4140   29.5060   37.9930 C   0  0  0  0  0  0  0  0  0  0  0  0
   38.6850   30.5920   37.6160 C   0  0  0  0  0  0  0  0  0  0  0  0
   37.6830   31.1390   38.3920 C   0  0  0  0  0  0  0  0  0  0  0  0
   37.4180   30.5250   39.6350 C   0  0  0  0  0  0  0  0  0  0  0  0
   36.1620   31.1480   40.6910 Cl  0  0  0  0  0  0  0  0  0  0  0  0
   38.1770   29.4240   39.9830 C   0  0  0  0  0  0  0  0  0  0  0  0
   38.9000   31.0540   36.6610 H   0  0  0  0  0  0  0  0  0  0  0  0
   37.1170   32.0000   38.0750 H   0  0  0  0  0  0  0  0  0  0  0  0
   36.3930   27.3730   40.1290 F   0  0  0  0  0  0  0  0  0  0  0  0
   36.9950   27.7440   41.3070 C   0  0  0  0  0  0  0  0  0  0  0  0
   37.9090   28.7840   41.2670 C   0  0  0  0  0  0  0  0  0  0  0  0
   38.5000   29.1310   42.4860 C   0  0  0  0  0  0  0  0  0  0  0  0
   38.1520   28.4380   43.6320 C   0  0  0  0  0  0  0  0  0  0  0  0
   37.2160   27.3910   43.6010 C   0  0  0  0  0  0  0  0  0  0  0  0
   36.6100   27.0200   42.4080 C   0  0  0  0  0  0  0  0  0  0  0  0
   39.2060   29.9360   42.4530 H   0  0  0  0  0  0  0  0  0  0  0  0
   38.6360   28.7430   44.5540 H   0  0  0  0  0  0  0  0  0  0  0  0
   36.9620   26.8640   44.5160 H   0  0  0  0  0  0  0  0  0  0  0  0
   35.9000   26.2310   42.3610 H   0  0  0  0  0  0  0  0  0  0  0  0
  1  2  2  0  0  0  0
  3  5  1  0  0  0  0
  3  1  1  0  0  0  0
  4  3  1  0  0  0  0
  5 10  1  0  0  0  0
  6  7  1  0  0  0  0
  6  5  2  0  0  0  0
  7  8  2  0  0  0  0
  8  9  1  0  0  0  0
  9 15  1  0  0  0  0
 10  9  2  0  0  0  0
 11  7  1  0  0  0  0
 12 14  1  0  0  0  0
 12  6  1  0  0  0  0
 13 12  1  0  0  0  0
 16 15  1  6  0  0  0
 16 24  1  0  0  0  0
 16 25  1  0  0  0  0
 17 16  1  0  0  0  0
 18 17  1  6  0  0  0
 18 19  1  0  0  0  0
 18 23  1  0  0  0  0
 19 23  1  0  0  0  0
 19 20  1  1  0  0  0
 21 19  1  0  0  0  0
 21 23  1  0  0  0  0
 22 21  1  0  0  0  0
 23 24  1  1  0  0  0
 25 26  1  0  0  0  0
 27  1  1  0  0  0  0
 27 30  1  0  0  0  0
 29 28  1  0  0  0  0
 29 35  1  0  0  0  0
 30 29  2  0  0  0  0
 31 30  1  0  0  0  0
 31 32  2  0  0  0  0
 32 33  1  0  0  0  0
 33 35  2  0  0  0  0
 33 34  1  0  0  0  0
 35 40  1  0  0  0  0
 36 31  1  0  0  0  0
 37 32  1  0  0  0  0
 38 39  1  0  0  0  0
 39 44  1  0  0  0  0
 40 39  2  0  0  0  0
 40 41  1  0  0  0  0
 41 42  2  0  0  0  0
 42 46  1  0  0  0  0
 43 42  1  0  0  0  0
 43 47  1  0  0  0  0
 44 43  2  0  0  0  0
 45 41  1  0  0  0  0
 48 44  1  0  0  0  0
M  END
>  <minimizedAffinity>
-6.53091526

$$$$
