
     RDKit          3D

 47 50  0  0  0  0  0  0  0  0999 V2000
   45.4032   31.3295   47.7223 C   0  0  0  0  0  0  0  0  0  0  0  0
   46.5878   30.4902   47.8582 C   0  0  0  0  0  0  0  0  0  0  0  0
   46.8303   29.2163   47.3715 C   0  0  0  0  0  0  0  0  0  0  0  0
   48.0365   28.6463   47.6372 C   0  0  0  0  0  0  0  0  0  0  0  0
   48.9757   29.2711   48.3424 N   0  0  0  0  0  0  0  0  0  0  0  0
   48.7337   30.5019   48.8098 C   0  0  0  0  0  0  0  0  0  0  0  0
   47.5503   31.1290   48.5803 N   0  0  0  0  0  0  0  0  0  0  0  0
   49.8503   31.1115   49.5838 C   0  0  0  0  0  0  0  0  0  0  0  0
   49.8337   32.4789   49.4892 F   0  0  0  0  0  0  0  0  0  0  0  0
   51.0843   30.6412   49.1072 F   0  0  0  0  0  0  0  0  0  0  0  0
   49.7904   30.7927   50.9246 F   0  0  0  0  0  0  0  0  0  0  0  0
   45.8225   32.6531   47.6143 O   0  0  0  0  0  0  0  0  0  0  0  0
   44.9141   35.0045   45.0994 C   0  0  0  0  0  0  0  0  0  0  0  0
   45.7886   34.6962   44.0387 C   0  0  0  0  0  0  0  0  0  0  0  0
   46.7104   33.6404   44.2183 C   0  0  0  0  0  0  0  0  0  0  0  0
   46.6809   32.9974   45.4093 N   0  0  0  0  0  0  0  0  0  0  0  0
   45.8442   33.3128   46.3924 C   0  0  0  0  0  0  0  0  0  0  0  0
   44.9580   34.3134   46.2475 N   0  0  0  0  0  0  0  0  0  0  0  0
   45.7002   35.4478   42.7687 C   0  0  0  0  0  0  0  0  0  0  0  0
   45.3053   36.7149   43.1536 F   0  0  0  0  0  0  0  0  0  0  0  0
   44.6286   34.8925   42.0395 F   0  0  0  0  0  0  0  0  0  0  0  0
   46.8334   35.4386   42.0979 F   0  0  0  0  0  0  0  0  0  0  0  0
   44.8478   31.0413   46.7817 H   0  0  0  0  0  0  0  0  0  0  0  0
   44.7200   31.1651   48.5932 H   0  0  0  0  0  0  0  0  0  0  0  0
   46.0004   28.8027   46.8111 H   0  0  0  0  0  0  0  0  0  0  0  0
   48.1965   27.6375   47.2393 H   0  0  0  0  0  0  0  0  0  0  0  0
   44.1950   35.7991   45.0142 H   0  0  0  0  0  0  0  0  0  0  0  0
   47.7554   33.2482   43.3167 C   0  0  0  0  0  0  0  0  0  0  0  0
   48.1956   31.8427   43.4930 C   0  0  1  0  0  0  0  0  0  0  0  0
   48.6868   31.4240   44.8528 C   0  0  0  0  0  0  0  0  0  0  0  0
   49.7675   31.6087   45.0002 H   0  0  0  0  0  0  0  0  0  0  0  0
   47.1981   30.7918   43.0583 C   0  0  0  0  0  0  0  0  0  0  0  0
   47.5049   30.3245   41.7471 N   0  0  0  0  0  0  0  0  0  0  0  0
   47.4766   29.9516   40.3764 C   0  0  0  0  0  0  0  0  0  0  0  0
   46.6788   29.8455   39.4100 O   0  0  0  0  0  0  0  0  0  0  0  0
   48.9272   29.6363   40.2973 C   0  0  1  0  0  0  0  0  0  0  0  0
   49.1875   28.5926   40.0576 H   0  0  0  0  0  0  0  0  0  0  0  0
   48.9033   29.8627   41.7671 C   0  0  1  0  0  0  0  0  0  0  0  0
   49.5880   31.4899   42.2876 S   0  0  0  0  0  0  0  0  0  0  0  0
   48.5704   33.9779   43.1476 H   0  0  0  0  0  0  0  0  0  0  0  0
   47.3132   33.2575   42.2648 H   0  0  0  0  0  0  0  0  0  0  0  0
   48.1070   31.8487   45.6742 H   0  0  0  0  0  0  0  0  0  0  0  0
   48.6043   30.3054   44.9004 H   0  0  0  0  0  0  0  0  0  0  0  0
   47.1938   29.8941   43.7376 H   0  0  0  0  0  0  0  0  0  0  0  0
   46.1653   31.2174   43.0153 H   0  0  0  0  0  0  0  0  0  0  0  0
   49.5281   30.3563   39.7000 H   0  0  0  0  0  0  0  0  0  0  0  0
   49.1288   29.0498   42.4499 H   0  0  0  0  0  0  0  0  0  0  0  0
  1  2  1  0
  2  7  2  0
  3  4  2  0
  3  2  1  0
  4  5  1  0
  5  6  2  0
  6  8  1  0
  7  6  1  0
  8 11  1  0
  9  8  1  0
 10  8  1  0
 12  1  1  0
 13 18  2  0
 14 15  2  0
 14 13  1  0
 15 16  1  0
 16 17  2  0
 17 12  1  0
 18 17  1  0
 19 20  1  0
 19 14  1  0
 21 19  1  0
 22 19  1  0
  1 23  1  0
  1 24  1  0
  3 25  1  0
  4 26  1  0
 13 27  1  0
 29 28  1  1
 29 30  1  0
 30 31  1  0
 29 32  1  0
 32 33  1  0
 33 34  1  0
 34 35  2  0
 34 36  1  0
 36 37  1  1
 36 38  1  0
 38 39  1  0
 39 29  1  0
 38 33  1  0
 28 40  1  0
 28 41  1  0
 30 42  1  0
 30 43  1  0
 32 44  1  0
 32 45  1  0
 36 46  1  0
 38 47  1  1
 15 28  1  0
M  ISO  7  23   8  24   8  25  14  26  14  27  14  31   8  37  15
M  END
>  <DihAtoms>  (1) 
13,14,27,28

>  <DihDeg>  (1) 
97.69516448224746

$$$$
