REMARK  Name = 
REMARK  4 active torsions:
REMARK  status: ('A' for Active; 'I' for Inactive)
REMARK    1  A    between atoms: C_2  and  C_7
REMARK    2  A    between atoms: C_7  and  C_21
REMARK    3  A    between atoms: C_12  and  C_14
REMARK    4  A    between atoms: C_14  and  C_15
REMARK                            x       y       z     vdW  Elec       q    Type
REMARK                         _______ _______ _______ _____ _____    ______ ____
ROOT
ATOM      1  C   UNL     1      46.800  33.094  37.341  0.00  0.00    +0.000 C 
ATOM      2  C   UNL     1      45.603  33.938  37.553  0.00  0.00    +0.000 C 
ATOM      3  N   UNL     1      45.458  34.260  38.928  0.00  0.00    +0.000 N 
ATOM      4  C   UNL     1      44.944  34.486  40.236  0.00  0.00    +0.000 C 
ATOM      5  O   UNL     1      43.811  34.907  40.645  0.00  0.00    +0.000 OA
ATOM      6  C   UNL     1      46.248  34.032  40.765  0.00  0.00    +0.000 C 
ATOM      7  C   UNL     1      46.715  34.666  39.459  0.00  0.00    +0.000 C 
ATOM      8  S   UNL     1      47.977  33.758  38.584  0.00  0.00    +0.000 S 
ENDROOT
BRANCH   6   9
ATOM      9  C   UNL     1      46.801  34.798  41.908  0.00  0.00    +0.000 C 
ATOM     10  O   UNL     1      47.918  35.393  41.848  0.00  0.00    +0.000 OA
BRANCH   9  12
ATOM     11  C   UNL     1      45.198  35.969  43.370  0.00  0.00    +0.000 A 
ATOM     12  C   UNL     1      46.084  34.902  43.156  0.00  0.00    +0.000 A 
ATOM     13  C   UNL     1      46.254  33.950  44.167  0.00  0.00    +0.000 A 
ATOM     14  N   UNL     1      45.546  34.114  45.310  0.00  0.00    +0.000 NA
ATOM     15  C   UNL     1      44.700  35.153  45.490  0.00  0.00    +0.000 A 
ATOM     16  N   UNL     1      44.529  36.073  44.524  0.00  0.00    +0.000 NA
ATOM     17  H   UNL     1      45.042  36.718  42.618  0.00  0.00    +0.000 HD
ATOM     18  H   UNL     1      46.936  33.131  43.997  0.00  0.00    +0.000 HD
ATOM     19  H   UNL     1      44.251  35.074  46.474  0.00  0.00    +0.000 HD
ENDBRANCH   9  12
ENDBRANCH   6   9
BRANCH   1  20
ATOM     20  C   UNL     1      47.490  33.321  35.999  0.00  0.00    +0.000 C 
ATOM     21  H   UNL     1      48.205  32.463  35.873  0.00  0.00    +0.000 HD
ENDBRANCH   1  20
BRANCH   1  22
ATOM     22  C   UNL     1      46.638  31.635  37.623  0.00  0.00    +0.000 C 
ATOM     23  H   UNL     1      47.446  31.096  37.048  0.00  0.00    +0.000 HD
ENDBRANCH   1  22
TORSDOF 4
