REMARK  Name = 
REMARK  7 active torsions:
REMARK  status: ('A' for Active; 'I' for Inactive)
REMARK    1  A    between atoms: C_2  and  C_12
REMARK    2  A    between atoms: C_3  and  C_7
REMARK    3  A    between atoms: C_12  and  C_14
REMARK    4  A    between atoms: N_16  and  C_20
REMARK    5  A    between atoms: C_20  and  C_40
REMARK    6  A    between atoms: C_31  and  C_33
REMARK    7  A    between atoms: C_33  and  C_34
REMARK                            x       y       z     vdW  Elec       q    Type
REMARK                         _______ _______ _______ _____ _____    ______ ____
ROOT
ATOM      1  C   UNL     1      45.780  34.144  40.737  0.00  0.00    +0.000 A 
ATOM      2  C   UNL     1      44.423  34.128  40.543  0.00  0.00    +0.000 A 
ATOM      3  N   UNL     1      44.218  33.437  39.406  0.00  0.00    +0.000 N 
ATOM      4  C   UNL     1      45.411  33.047  38.927  0.00  0.00    +0.000 A 
ATOM      5  N   UNL     1      46.381  33.478  39.742  0.00  0.00    +0.000 NA
ATOM      6  N   UNL     1      45.739  32.297  37.764  0.00  0.00    +0.000 N 
ATOM      7  H   UNL     1      43.671  34.564  41.151  0.00  0.00    +0.000 HD
ATOM      8  H   UNL     1      46.493  32.524  37.097  0.00  0.00    +0.000 HD
ATOM      9  H   UNL     1      45.282  31.422  37.407  0.00  0.00    +0.000 HD
ENDROOT
BRANCH   3  10
ATOM     10  C   UNL     1      42.967  33.120  38.738  0.00  0.00    +0.000 C 
ATOM     11  H   UNL     1      43.058  32.140  38.207  0.00  0.00    +0.000 HD
ATOM     12  H   UNL     1      42.175  33.001  39.505  0.00  0.00    +0.000 HD
BRANCH  10  18
ATOM     13  C   UNL     1      39.383  36.096  36.551  0.00  0.00    +0.000 C 
ATOM     14  C   UNL     1      39.628  35.969  38.038  0.00  0.00    +0.000 C 
ATOM     15  N   UNL     1      41.029  35.613  38.195  0.00  0.00    +0.000 N 
ATOM     16  C   UNL     1      42.431  35.491  38.459  0.00  0.00    +0.000 C 
ATOM     17  O   UNL     1      43.096  36.351  39.130  0.00  0.00    +0.000 OA
ATOM     18  C   UNL     1      42.583  34.211  37.732  0.00  0.00    +0.000 C 
ATOM     19  C   UNL     1      41.104  34.268  37.602  0.00  0.00    +0.000 C 
ATOM     20  S   UNL     1      40.468  34.742  35.944  0.00  0.00    +0.000 S 
BRANCH  13  21
ATOM     21  C   UNL     1      39.782  37.431  36.010  0.00  0.00    +0.000 C 
ATOM     22  H   UNL     1      39.745  38.239  36.794  0.00  0.00    +0.000 HD
ENDBRANCH  13  21
BRANCH  13  23
ATOM     23  C   UNL     1      37.960  35.705  36.260  0.00  0.00    +0.000 C 
ATOM     24  H   UNL     1      37.868  34.796  35.626  0.00  0.00    +0.000 HD
ENDBRANCH  13  23
ENDBRANCH  10  18
ENDBRANCH   3  10
BRANCH   1  25
ATOM     25  C   UNL     1      46.503  34.794  41.873  0.00  0.00    +0.000 C 
ATOM     26  O   UNL     1      47.685  35.235  41.800  0.00  0.00    +0.000 OA
BRANCH  25  28
ATOM     27  C   UNL     1      45.209  36.154  43.456  0.00  0.00    +0.000 A 
ATOM     28  C   UNL     1      45.864  34.948  43.132  0.00  0.00    +0.000 A 
ATOM     29  C   UNL     1      45.812  33.991  44.129  0.00  0.00    +0.000 A 
ATOM     30  N   UNL     1      45.200  34.186  45.291  0.00  0.00    +0.000 NA
ATOM     31  C   UNL     1      44.581  35.374  45.553  0.00  0.00    +0.000 A 
ATOM     32  N   UNL     1      44.593  36.341  44.633  0.00  0.00    +0.000 NA
ATOM     33  H   UNL     1      45.236  36.928  42.682  0.00  0.00    +0.000 HD
ATOM     34  H   UNL     1      44.078  35.545  46.497  0.00  0.00    +0.000 HD
BRANCH  29  35
ATOM     35  C   UNL     1      46.452  32.739  43.885  0.00  0.00    +0.000 A 
ATOM     36  C   UNL     1      47.721  32.268  43.984  0.00  0.00    +0.000 A 
ATOM     37  C   UNL     1      48.024  31.020  43.679  0.00  0.00    +0.000 A 
ATOM     38  C   UNL     1      47.025  30.227  43.264  0.00  0.00    +0.000 A 
ATOM     39  S   UNL     1      45.562  31.306  43.304  0.00  0.00    +0.000 S 
ATOM     40  H   UNL     1      48.452  33.024  44.340  0.00  0.00    +0.000 HD
ATOM     41  H   UNL     1      49.013  30.579  43.735  0.00  0.00    +0.000 HD
ATOM     42  H   UNL     1      46.991  29.171  42.951  0.00  0.00    +0.000 HD
ENDBRANCH  29  35
ENDBRANCH  25  28
ENDBRANCH   1  25
TORSDOF 7
