
 OpenBabel03242522203D

 48 52  0  0  1  0  0  0  0  0999 V2000
   41.7940   34.8880   39.8650 C   0  0  0  0  0  0  0  0  0  0  0  0
   41.2910   34.8970   38.5890 C   0  0  0  0  0  0  0  0  0  0  0  0
   40.2780   34.0910   38.1080 C   0  0  0  0  0  0  0  0  0  0  0  0
   39.7370   33.2100   38.9890 C   0  0  0  0  0  0  0  0  0  0  0  0
   40.2450   33.2030   40.2700 C   0  0  0  0  0  0  0  0  0  0  0  0
   41.2310   33.9980   40.7170 N   0  0  0  0  0  0  0  0  0  0  0  0
   41.7760   35.6330   37.9320 H   0  0  0  0  0  0  0  0  0  0  0  0
   39.9800   34.2040   37.0900 H   0  0  0  0  0  0  0  0  0  0  0  0
   39.6040   32.2070   41.1970 C   0  0  0  0  0  0  0  0  0  0  0  0
   38.2200   32.3580   41.1390 F   0  0  0  0  0  0  0  0  0  0  0  0
   40.0930   32.2370   42.4650 F   0  0  0  0  0  0  0  0  0  0  0  0
   39.8430   30.9170   40.7130 F   0  0  0  0  0  0  0  0  0  0  0  0
   42.8430   35.6910   40.4450 C   0  0  0  0  0  0  0  0  0  0  0  0
   43.7690   35.5850   39.8240 H   0  0  0  0  0  0  0  0  0  0  0  0
   42.5710   36.7790   40.3400 H   0  0  0  0  0  0  0  0  0  0  0  0
   43.2080   35.3900   41.8560 C   0  0  0  0  0  0  0  0  0  0  0  0
   43.0970   36.2270   42.5510 H   0  0  0  0  0  0  0  0  0  0  0  0
   42.5310   34.5790   42.2310 H   0  0  0  0  0  0  0  0  0  0  0  0
   46.5320   33.8080   41.4320 C   0  0  0  0  0  0  0  0  0  0  0  0
   47.0710   34.1150   42.6350 C   0  0  0  0  0  0  0  0  0  0  0  0
   45.6920   35.0490   43.4390 S   0  0  0  0  0  0  0  0  0  0  0  0
   44.5950   34.8530   41.9560 C   0  0  0  0  0  0  0  0  0  0  0  0
   45.3230   34.2540   41.2940 N   0  0  0  0  0  0  0  0  0  0  0  0
   48.0330   33.9040   43.0680 H   0  0  0  0  0  0  0  0  0  0  0  0
   48.8010   32.8400   38.5930 C   0  0  0  0  0  0  0  0  0  0  0  0
   48.1730   33.6330   39.5660 C   0  0  0  0  0  0  0  0  0  0  0  0
   47.2400   33.0480   40.3870 C   0  0  0  0  0  0  0  0  0  0  0  0
   46.9780   31.6980   40.1960 N   0  0  0  0  0  0  0  0  0  0  0  0
   47.6070   30.9810   39.2510 C   0  0  0  0  0  0  0  0  0  0  0  0
   48.5240   31.5480   38.4410 N   0  0  0  0  0  0  0  0  0  0  0  0
   49.5330   33.2920   37.9450 H   0  0  0  0  0  0  0  0  0  0  0  0
   47.3790   29.9350   39.1290 H   0  0  0  0  0  0  0  0  0  0  0  0
   48.5520   34.9960   39.6310 N   0  0  0  0  0  0  0  0  0  0  0  0
   48.9740   35.2900   40.5340 H   0  0  0  0  0  0  0  0  0  0  0  0
   48.4490   35.7190   38.8750 H   0  0  0  0  0  0  0  0  0  0  0  0
   38.4350   32.1110   38.4770 S   0  0  0  0  0  0  0  0  0  0  0  0
   38.7640   31.1630   37.0030 C   0  0  0  0  0  2  0  0  0  0  0  0
   39.9040   30.2120   37.0390 C   0  0  2  0  0  0  0  0  0  0  0  0
   41.2670   30.6560   37.2990 C   0  0  0  0  0  2  0  0  0  0  0  0
   42.1530   30.3670   36.1640 N   0  0  0  0  0  0  0  0  0  0  0  0
   43.1960   30.5210   35.2090 C   0  0  0  0  0  0  0  0  0  0  0  0
   44.2370   31.2520   35.1930 O   0  0  0  0  0  0  0  0  0  0  0  0
   42.6120   29.5260   34.2730 C   0  0  0  0  0  3  0  0  0  0  0  0
   42.0310   29.9490   33.4440 H   0  0  0  0  0  0  0  0  0  0  0  0
   41.8490   29.0920   35.4980 C   0  0  2  0  0  3  0  0  0  0  0  0
   40.0420   29.3430   35.4100 S   0  0  0  0  0  0  0  0  0  0  0  0
   39.5170   29.0290   37.9960 C   0  0  0  0  0  2  0  0  0  0  0  0
   38.6230   28.6070   37.4940 H   0  0  0  0  0  0  0  0  0  0  0  0
  1 13  1  0  0  0  0
  1  6  1  0  0  0  0
  2  1  2  0  0  0  0
  3  2  1  0  0  0  0
  3  4  2  0  0  0  0
  4  5  1  0  0  0  0
  5  6  2  0  0  0  0
  5  9  1  0  0  0  0
  7  2  1  0  0  0  0
  8  3  1  0  0  0  0
  9 11  1  0  0  0  0
 10  9  1  0  0  0  0
 12  9  1  0  0  0  0
 13 16  1  0  0  0  0
 14 13  1  0  0  0  0
 15 13  1  0  0  0  0
 16 22  1  0  0  0  0
 16 18  1  0  0  0  0
 16 17  1  0  0  0  0
 19 20  2  0  0  0  0
 20 24  1  0  0  0  0
 20 21  1  0  0  0  0
 22 21  1  0  0  0  0
 23 19  1  0  0  0  0
 23 22  2  0  0  0  0
 25 26  1  0  0  0  0
 26 33  1  0  0  0  0
 26 27  2  0  0  0  0
 27 19  1  0  0  0  0
 28 27  1  0  0  0  0
 29 28  2  0  0  0  0
 30 25  2  0  0  0  0
 30 29  1  0  0  0  0
 31 25  1  0  0  0  0
 32 29  1  0  0  0  0
 33 34  1  0  0  0  0
 35 33  1  0  0  0  0
 36  4  1  0  0  0  0
 37 36  1  0  0  0  0
 38 37  1  6  0  0  0
 38 39  1  0  0  0  0
 38 47  1  0  0  0  0
 40 39  1  0  0  0  0
 41 40  1  0  0  0  0
 42 41  2  0  0  0  0
 43 41  1  0  0  0  0
 44 43  1  0  0  0  0
 45 43  1  6  0  0  0
 45 40  1  0  0  0  0
 46 45  1  0  0  0  0
 46 38  1  0  0  0  0
 48 47  1  0  0  0  0
M  END
>  <minimizedAffinity>
-5.65341473

>  <minimizedRMSD>
2.56233215

$$$$
