
 OpenBabel03242522213D

 48 52  0  0  1  0  0  0  0  0999 V2000
   36.9750   30.3450   39.8820 C   0  0  0  0  0  0  0  0  0  0  0  0
   36.2630   29.2030   39.6140 C   0  0  0  0  0  0  0  0  0  0  0  0
   36.2280   28.0630   40.3930 C   0  0  0  0  0  0  0  0  0  0  0  0
   36.9730   28.0850   41.5280 C   0  0  0  0  0  0  0  0  0  0  0  0
   37.6870   29.2330   41.7950 C   0  0  0  0  0  0  0  0  0  0  0  0
   37.7060   30.3310   41.0220 N   0  0  0  0  0  0  0  0  0  0  0  0
   35.6850   29.2570   38.6800 H   0  0  0  0  0  0  0  0  0  0  0  0
   35.6270   27.2450   40.0680 H   0  0  0  0  0  0  0  0  0  0  0  0
   38.4910   29.1940   43.0660 C   0  0  0  0  0  0  0  0  0  0  0  0
   39.0910   30.4360   43.2610 F   0  0  0  0  0  0  0  0  0  0  0  0
   39.3690   28.1580   43.1350 F   0  0  0  0  0  0  0  0  0  0  0  0
   37.6190   29.0440   44.1500 F   0  0  0  0  0  0  0  0  0  0  0  0
   37.0660   31.5700   39.1270 C   0  0  0  0  0  0  0  0  0  0  0  0
   37.9470   31.5100   38.4380 H   0  0  0  0  0  0  0  0  0  0  0  0
   36.1830   31.6360   38.4310 H   0  0  0  0  0  0  0  0  0  0  0  0
   37.1910   32.8270   39.9120 C   0  0  0  0  0  0  0  0  0  0  0  0
   36.4440   33.5930   39.6830 H   0  0  0  0  0  0  0  0  0  0  0  0
   37.0650   32.5800   40.9980 H   0  0  0  0  0  0  0  0  0  0  0  0
   40.7340   33.6780   39.2330 C   0  0  0  0  0  0  0  0  0  0  0  0
   40.7730   34.9050   39.8040 C   0  0  0  0  0  0  0  0  0  0  0  0
   39.0400   35.0900   40.4230 S   0  0  0  0  0  0  0  0  0  0  0  0
   38.5530   33.4200   39.7780 C   0  0  0  0  0  0  0  0  0  0  0  0
   39.5680   33.1180   39.3240 N   0  0  0  0  0  0  0  0  0  0  0  0
   41.5640   35.6270   39.9040 H   0  0  0  0  0  0  0  0  0  0  0  0
   42.9090   31.7250   36.8670 C   0  0  0  0  0  0  0  0  0  0  0  0
   41.7580   32.3000   37.4280 C   0  0  0  0  0  0  0  0  0  0  0  0
   41.8890   33.0420   38.5770 C   0  0  0  0  0  0  0  0  0  0  0  0
   43.1640   33.1750   39.1100 N   0  0  0  0  0  0  0  0  0  0  0  0
   44.2360   32.6050   38.5340 C   0  0  0  0  0  0  0  0  0  0  0  0
   44.1150   31.8740   37.4080 N   0  0  0  0  0  0  0  0  0  0  0  0
   42.8130   31.1400   35.9670 H   0  0  0  0  0  0  0  0  0  0  0  0
   45.2110   32.7270   38.9750 H   0  0  0  0  0  0  0  0  0  0  0  0
   40.5300   32.0690   36.7630 N   0  0  0  0  0  0  0  0  0  0  0  0
   40.0530   32.9250   36.4160 H   0  0  0  0  0  0  0  0  0  0  0  0
   40.0670   31.1410   36.5900 H   0  0  0  0  0  0  0  0  0  0  0  0
   37.0160   26.6680   42.6030 S   0  0  0  0  0  0  0  0  0  0  0  0
   37.2140   25.0930   41.7910 C   0  0  0  0  0  2  0  0  0  0  0  0
   38.5880   24.5400   41.6920 C   0  0  2  0  0  0  0  0  0  0  0  0
   39.4130   24.3160   42.8720 C   0  0  0  0  0  2  0  0  0  0  0  0
   40.6400   25.1220   42.8320 N   0  0  0  0  0  0  0  0  0  0  0  0
   41.7270   25.9240   43.2770 C   0  0  0  0  0  0  0  0  0  0  0  0
   42.2400   26.1050   44.4270 O   0  0  0  0  0  0  0  0  0  0  0  0
   42.0190   26.4450   41.9170 C   0  0  0  0  0  3  0  0  0  0  0  0
   41.6070   27.4380   41.6980 H   0  0  0  0  0  0  0  0  0  0  0  0
   41.2080   25.2520   41.4830 C   0  0  2  0  0  3  0  0  0  0  0  0
   39.6330   25.6530   40.6460 S   0  0  0  0  0  0  0  0  0  0  0  0
   38.5260   23.2440   40.8080 C   0  0  0  0  0  2  0  0  0  0  0  0
   38.1520   23.6380   39.8420 H   0  0  0  0  0  0  0  0  0  0  0  0
  1  6  1  0  0  0  0
  2  1  2  0  0  0  0
  2  3  1  0  0  0  0
  3  4  2  0  0  0  0
  4  5  1  0  0  0  0
  4 36  1  0  0  0  0
  5  9  1  0  0  0  0
  6  5  2  0  0  0  0
  7  2  1  0  0  0  0
  8  3  1  0  0  0  0
  9 11  1  0  0  0  0
  9 10  1  0  0  0  0
  9 12  1  0  0  0  0
 13  1  1  0  0  0  0
 13 16  1  0  0  0  0
 14 13  1  0  0  0  0
 15 13  1  0  0  0  0
 16 18  1  0  0  0  0
 17 16  1  0  0  0  0
 19 23  1  0  0  0  0
 19 20  2  0  0  0  0
 20 24  1  0  0  0  0
 20 21  1  0  0  0  0
 22 16  1  0  0  0  0
 22 21  1  0  0  0  0
 23 22  2  0  0  0  0
 25 30  2  0  0  0  0
 25 26  1  0  0  0  0
 26 27  2  0  0  0  0
 27 28  1  0  0  0  0
 27 19  1  0  0  0  0
 29 32  1  0  0  0  0
 29 28  2  0  0  0  0
 30 29  1  0  0  0  0
 31 25  1  0  0  0  0
 33 26  1  0  0  0  0
 34 33  1  0  0  0  0
 35 33  1  0  0  0  0
 37 36  1  0  0  0  0
 38 47  1  6  0  0  0
 38 37  1  0  0  0  0
 38 39  1  0  0  0  0
 40 39  1  0  0  0  0
 40 41  1  0  0  0  0
 41 42  2  0  0  0  0
 43 41  1  0  0  0  0
 44 43  1  0  0  0  0
 45 46  1  6  0  0  0
 45 43  1  0  0  0  0
 45 40  1  0  0  0  0
 46 38  1  0  0  0  0
 48 47  1  0  0  0  0
M  END
>  <minimizedAffinity>
-7.10478926

$$$$

 OpenBabel03242522213D

 48 52  0  0  1  0  0  0  0  0999 V2000
   37.2590   29.9510   40.5340 C   0  0  0  0  0  0  0  0  0  0  0  0
   37.1590   28.9000   39.6570 C   0  0  0  0  0  0  0  0  0  0  0  0
   37.0850   27.5630   39.9930 C   0  0  0  0  0  0  0  0  0  0  0  0
   37.1150   27.2710   41.3190 C   0  0  0  0  0  0  0  0  0  0  0  0
   37.2160   28.3280   42.1980 C   0  0  0  0  0  0  0  0  0  0  0  0
   37.2860   29.6230   41.8480 N   0  0  0  0  0  0  0  0  0  0  0  0
   37.1410   29.2110   38.6020 H   0  0  0  0  0  0  0  0  0  0  0  0
   37.0070   26.8460   39.2080 H   0  0  0  0  0  0  0  0  0  0  0  0
   37.2440   27.9400   43.6510 C   0  0  0  0  0  0  0  0  0  0  0  0
   38.4250   27.2510   43.9130 F   0  0  0  0  0  0  0  0  0  0  0  0
   36.1330   27.2760   44.0680 F   0  0  0  0  0  0  0  0  0  0  0  0
   37.3260   29.0990   44.4300 F   0  0  0  0  0  0  0  0  0  0  0  0
   37.3410   31.3660   40.2680 C   0  0  0  0  0  0  0  0  0  0  0  0
   36.3060   31.7720   40.1290 H   0  0  0  0  0  0  0  0  0  0  0  0
   37.7140   31.8900   41.1920 H   0  0  0  0  0  0  0  0  0  0  0  0
   38.1490   31.7750   39.0880 C   0  0  0  0  0  0  0  0  0  0  0  0
   38.6820   30.9610   38.5870 H   0  0  0  0  0  0  0  0  0  0  0  0
   37.4600   32.2170   38.3230 H   0  0  0  0  0  0  0  0  0  0  0  0
   41.0550   34.0050   39.6550 C   0  0  0  0  0  0  0  0  0  0  0  0
   40.4220   35.0280   40.2770 C   0  0  0  0  0  0  0  0  0  0  0  0
   38.6720   34.4290   40.3040 S   0  0  0  0  0  0  0  0  0  0  0  0
   39.1210   32.8500   39.4410 C   0  0  0  0  0  0  0  0  0  0  0  0
   40.2510   33.0420   39.3270 N   0  0  0  0  0  0  0  0  0  0  0  0
   40.7800   35.9620   40.6710 H   0  0  0  0  0  0  0  0  0  0  0  0
   44.3900   33.9460   37.9180 C   0  0  0  0  0  0  0  0  0  0  0  0
   42.9980   33.9690   38.0970 C   0  0  0  0  0  0  0  0  0  0  0  0
   42.5010   33.9830   39.3780 C   0  0  0  0  0  0  0  0  0  0  0  0
   43.4190   33.9750   40.4200 N   0  0  0  0  0  0  0  0  0  0  0  0
   44.7430   33.9550   40.1970 C   0  0  0  0  0  0  0  0  0  0  0  0
   45.2390   33.9390   38.9430 N   0  0  0  0  0  0  0  0  0  0  0  0
   44.7860   33.9330   36.9170 H   0  0  0  0  0  0  0  0  0  0  0  0
   45.4280   33.9470   41.0290 H   0  0  0  0  0  0  0  0  0  0  0  0
   42.1970   33.9730   36.9300 N   0  0  0  0  0  0  0  0  0  0  0  0
   41.5880   34.8090   36.8200 H   0  0  0  0  0  0  0  0  0  0  0  0
   42.1600   33.2340   36.1840 H   0  0  0  0  0  0  0  0  0  0  0  0
   37.0400   25.5820   41.8710 S   0  0  0  0  0  0  0  0  0  0  0  0
   38.2830   24.4960   41.1940 C   0  0  0  0  0  2  0  0  0  0  0  0
   37.9340   23.7350   39.9680 C   0  0  2  0  0  0  0  0  0  0  0  0
   38.5130   24.0600   38.6710 C   0  0  0  0  0  2  0  0  0  0  0  0
   37.4820   24.4550   37.7030 N   0  0  0  0  0  0  0  0  0  0  0  0
   36.8470   25.1450   36.6350 C   0  0  0  0  0  0  0  0  0  0  0  0
   37.3080   25.8390   35.6720 O   0  0  0  0  0  0  0  0  0  0  0  0
   35.4820   24.7490   37.0680 C   0  0  0  0  0  3  0  0  0  0  0  0
   34.9360   25.5060   37.6450 H   0  0  0  0  0  0  0  0  0  0  0  0
   36.2300   23.6970   37.8440 C   0  0  2  0  0  3  0  0  0  0  0  0
   36.1120   23.8490   39.6610 S   0  0  0  0  0  0  0  0  0  0  0  0
   38.1050   22.2070   40.2830 C   0  0  0  0  0  2  0  0  0  0  0  0
   37.3760   22.0540   41.1040 H   0  0  0  0  0  0  0  0  0  0  0  0
  1  6  1  0  0  0  0
  2  3  1  0  0  0  0
  2  1  2  0  0  0  0
  3  4  2  0  0  0  0
  4 36  1  0  0  0  0
  4  5  1  0  0  0  0
  5  9  1  0  0  0  0
  6  5  2  0  0  0  0
  7  2  1  0  0  0  0
  8  3  1  0  0  0  0
  9 10  1  0  0  0  0
  9 11  1  0  0  0  0
  9 12  1  0  0  0  0
 13  1  1  0  0  0  0
 13 15  1  0  0  0  0
 14 13  1  0  0  0  0
 16 22  1  0  0  0  0
 16 13  1  0  0  0  0
 17 16  1  0  0  0  0
 18 16  1  0  0  0  0
 19 20  2  0  0  0  0
 20 21  1  0  0  0  0
 20 24  1  0  0  0  0
 22 21  1  0  0  0  0
 23 22  2  0  0  0  0
 23 19  1  0  0  0  0
 25 26  2  0  0  0  0
 25 30  1  0  0  0  0
 26 27  1  0  0  0  0
 27 19  1  0  0  0  0
 27 28  2  0  0  0  0
 29 28  1  0  0  0  0
 29 32  1  0  0  0  0
 30 29  2  0  0  0  0
 31 25  1  0  0  0  0
 33 26  1  0  0  0  0
 34 33  1  0  0  0  0
 35 33  1  0  0  0  0
 37 36  1  0  0  0  0
 38 47  1  1  0  0  0
 38 37  1  0  0  0  0
 39 38  1  0  0  0  0
 40 45  1  0  0  0  0
 40 39  1  0  0  0  0
 41 43  1  0  0  0  0
 41 40  1  0  0  0  0
 42 41  2  0  0  0  0
 43 44  1  0  0  0  0
 45 43  1  6  0  0  0
 45 46  1  0  0  0  0
 46 38  1  0  0  0  0
 47 48  1  0  0  0  0
M  END
>  <minimizedAffinity>
-6.7560277

$$$$

 OpenBabel03242522213D

 48 52  0  0  1  0  0  0  0  0999 V2000
   36.8640   30.6560   40.2050 C   0  0  0  0  0  0  0  0  0  0  0  0
   36.1470   29.5660   39.7790 C   0  0  0  0  0  0  0  0  0  0  0  0
   36.0870   28.3370   40.4040 C   0  0  0  0  0  0  0  0  0  0  0  0
   36.8110   28.2030   41.5460 C   0  0  0  0  0  0  0  0  0  0  0  0
   37.5300   29.2990   41.9710 C   0  0  0  0  0  0  0  0  0  0  0  0
   37.5730   30.4880   41.3460 N   0  0  0  0  0  0  0  0  0  0  0  0
   35.5870   29.7470   38.8500 H   0  0  0  0  0  0  0  0  0  0  0  0
   35.4860   27.5730   39.9660 H   0  0  0  0  0  0  0  0  0  0  0  0
   38.3100   29.0890   43.2400 C   0  0  0  0  0  0  0  0  0  0  0  0
   39.2880   28.1220   43.0160 F   0  0  0  0  0  0  0  0  0  0  0  0
   37.5370   28.8270   44.3270 F   0  0  0  0  0  0  0  0  0  0  0  0
   39.0220   30.2550   43.5350 F   0  0  0  0  0  0  0  0  0  0  0  0
   36.9790   31.9680   39.6160 C   0  0  0  0  0  0  0  0  0  0  0  0
   36.0170   32.2240   39.1030 H   0  0  0  0  0  0  0  0  0  0  0  0
   37.0570   32.7320   40.4390 H   0  0  0  0  0  0  0  0  0  0  0  0
   38.0800   32.1610   38.6350 C   0  0  0  0  0  0  0  0  0  0  0  0
   38.5550   31.2400   38.2840 H   0  0  0  0  0  0  0  0  0  0  0  0
   37.6590   32.6640   37.7250 H   0  0  0  0  0  0  0  0  0  0  0  0
   41.1460   34.0140   39.5870 C   0  0  0  0  0  0  0  0  0  0  0  0
   40.5840   34.9750   40.3580 C   0  0  0  0  0  0  0  0  0  0  0  0
   38.7910   34.5330   40.2680 S   0  0  0  0  0  0  0  0  0  0  0  0
   39.1290   33.0780   39.1670 C   0  0  0  0  0  0  0  0  0  0  0  0
   40.2730   33.1880   39.0990 N   0  0  0  0  0  0  0  0  0  0  0  0
   41.0090   35.8000   40.9020 H   0  0  0  0  0  0  0  0  0  0  0  0
   44.4980   33.8440   37.8920 C   0  0  0  0  0  0  0  0  0  0  0  0
   43.1080   33.9490   38.0550 C   0  0  0  0  0  0  0  0  0  0  0  0
   42.5920   33.9130   39.3270 C   0  0  0  0  0  0  0  0  0  0  0  0
   43.4890   33.7730   40.3770 N   0  0  0  0  0  0  0  0  0  0  0  0
   44.8130   33.6780   40.1700 C   0  0  0  0  0  0  0  0  0  0  0  0
   45.3270   33.7110   38.9240 N   0  0  0  0  0  0  0  0  0  0  0  0
   44.9100   33.8700   36.8970 H   0  0  0  0  0  0  0  0  0  0  0  0
   45.4820   33.5690   41.0080 H   0  0  0  0  0  0  0  0  0  0  0  0
   42.3290   34.0850   36.8800 N   0  0  0  0  0  0  0  0  0  0  0  0
   41.7790   34.9660   36.8190 H   0  0  0  0  0  0  0  0  0  0  0  0
   42.2550   33.4000   36.0860 H   0  0  0  0  0  0  0  0  0  0  0  0
   36.8220   26.6600   42.4290 S   0  0  0  0  0  0  0  0  0  0  0  0
   37.1460   25.2100   41.4410 C   0  0  0  0  0  2  0  0  0  0  0  0
   38.2730   25.2750   40.4770 C   0  0  2  0  0  0  0  0  0  0  0  0
   39.3670   26.2250   40.6370 C   0  0  0  0  0  2  0  0  0  0  0  0
   39.4460   27.1520   39.5000 N   0  0  0  0  0  0  0  0  0  0  0  0
   39.6440   28.3550   38.7690 C   0  0  0  0  0  0  0  0  0  0  0  0
   40.2580   29.4350   39.0500 O   0  0  0  0  0  0  0  0  0  0  0  0
   38.8820   27.8720   37.5890 C   0  0  0  0  0  3  0  0  0  0  0  0
   37.8420   28.2170   37.5310 H   0  0  0  0  0  0  0  0  0  0  0  0
   39.1260   26.5220   38.2120 C   0  0  2  0  0  3  0  0  0  0  0  0
   37.6240   25.6540   38.7850 S   0  0  0  0  0  0  0  0  0  0  0  0
   38.8290   23.8210   40.2840 C   0  0  0  0  0  2  0  0  0  0  0  0
   37.9470   23.2860   39.8760 H   0  0  0  0  0  0  0  0  0  0  0  0
  1  6  1  0  0  0  0
  2  1  2  0  0  0  0
  2  3  1  0  0  0  0
  3  4  2  0  0  0  0
  4  5  1  0  0  0  0
  4 36  1  0  0  0  0
  5  9  1  0  0  0  0
  6  5  2  0  0  0  0
  7  2  1  0  0  0  0
  8  3  1  0  0  0  0
  9 12  1  0  0  0  0
  9 11  1  0  0  0  0
 10  9  1  0  0  0  0
 13  1  1  0  0  0  0
 13 15  1  0  0  0  0
 14 13  1  0  0  0  0
 16 22  1  0  0  0  0
 16 13  1  0  0  0  0
 17 16  1  0  0  0  0
 18 16  1  0  0  0  0
 19 20  2  0  0  0  0
 20 24  1  0  0  0  0
 21 20  1  0  0  0  0
 22 21  1  0  0  0  0
 23 22  2  0  0  0  0
 23 19  1  0  0  0  0
 25 26  2  0  0  0  0
 25 30  1  0  0  0  0
 26 27  1  0  0  0  0
 27 19  1  0  0  0  0
 27 28  2  0  0  0  0
 29 28  1  0  0  0  0
 29 32  1  0  0  0  0
 30 29  2  0  0  0  0
 31 25  1  0  0  0  0
 33 26  1  0  0  0  0
 34 33  1  0  0  0  0
 35 33  1  0  0  0  0
 37 36  1  0  0  0  0
 38 47  1  6  0  0  0
 38 39  1  0  0  0  0
 38 37  1  0  0  0  0
 40 39  1  0  0  0  0
 41 42  2  0  0  0  0
 41 40  1  0  0  0  0
 43 41  1  0  0  0  0
 44 43  1  0  0  0  0
 45 43  1  6  0  0  0
 45 46  1  0  0  0  0
 45 40  1  0  0  0  0
 46 38  1  0  0  0  0
 48 47  1  0  0  0  0
M  END
>  <minimizedAffinity>
-6.62213326

$$$$

 OpenBabel03242522213D

 48 52  0  0  1  0  0  0  0  0999 V2000
   36.5620   28.2420   39.8670 C   0  0  0  0  0  0  0  0  0  0  0  0
   37.1220   27.0650   39.4360 C   0  0  0  0  0  0  0  0  0  0  0  0
   37.6780   26.0870   40.2360 C   0  0  0  0  0  0  0  0  0  0  0  0
   37.6660   26.3220   41.5740 C   0  0  0  0  0  0  0  0  0  0  0  0
   37.1030   27.5040   42.0040 C   0  0  0  0  0  0  0  0  0  0  0  0
   36.5670   28.4430   41.2070 N   0  0  0  0  0  0  0  0  0  0  0  0
   37.0980   26.9440   38.3430 H   0  0  0  0  0  0  0  0  0  0  0  0
   38.0770   25.2160   39.7690 H   0  0  0  0  0  0  0  0  0  0  0  0
   37.1200   27.7050   43.4950 C   0  0  0  0  0  0  0  0  0  0  0  0
   37.0620   29.0690   43.7700 F   0  0  0  0  0  0  0  0  0  0  0  0
   38.1460   27.0740   44.1270 F   0  0  0  0  0  0  0  0  0  0  0  0
   35.9420   27.1800   44.0370 F   0  0  0  0  0  0  0  0  0  0  0  0
   35.9640   29.3100   39.1040 C   0  0  0  0  0  0  0  0  0  0  0  0
   35.1170   28.8960   38.5000 H   0  0  0  0  0  0  0  0  0  0  0  0
   35.4650   30.0290   39.8120 H   0  0  0  0  0  0  0  0  0  0  0  0
   36.8630   30.0480   38.1770 C   0  0  0  0  0  0  0  0  0  0  0  0
   37.5670   29.4240   37.6190 H   0  0  0  0  0  0  0  0  0  0  0  0
   36.2300   30.5680   37.4110 H   0  0  0  0  0  0  0  0  0  0  0  0
   39.2610   32.5660   39.4580 C   0  0  0  0  0  0  0  0  0  0  0  0
   38.5220   33.0700   40.4740 C   0  0  0  0  0  0  0  0  0  0  0  0
   36.9700   32.0720   40.3420 S   0  0  0  0  0  0  0  0  0  0  0  0
   37.6180   31.1190   38.8880 C   0  0  0  0  0  0  0  0  0  0  0  0
   38.6480   31.6280   38.8060 N   0  0  0  0  0  0  0  0  0  0  0  0
   38.7220   33.8400   41.1970 H   0  0  0  0  0  0  0  0  0  0  0  0
   42.4140   33.4470   37.6060 C   0  0  0  0  0  0  0  0  0  0  0  0
   41.1090   32.9870   37.8410 C   0  0  0  0  0  0  0  0  0  0  0  0
   40.6190   33.0310   39.1230 C   0  0  0  0  0  0  0  0  0  0  0  0
   41.4550   33.5330   40.1110 N   0  0  0  0  0  0  0  0  0  0  0  0
   42.6980   33.9630   39.8350 C   0  0  0  0  0  0  0  0  0  0  0  0
   43.1870   33.9220   38.5800 N   0  0  0  0  0  0  0  0  0  0  0  0
   42.8060   33.4140   36.6040 H   0  0  0  0  0  0  0  0  0  0  0  0
   43.3210   34.3460   40.6260 H   0  0  0  0  0  0  0  0  0  0  0  0
   40.3850   32.5030   36.7250 N   0  0  0  0  0  0  0  0  0  0  0  0
   39.5120   33.0270   36.5090 H   0  0  0  0  0  0  0  0  0  0  0  0
   40.6360   31.6890   36.1110 H   0  0  0  0  0  0  0  0  0  0  0  0
   38.3670   25.1380   42.7010 S   0  0  0  0  0  0  0  0  0  0  0  0
   40.0970   24.7790   42.4610 C   0  0  0  0  0  2  0  0  0  0  0  0
   41.0460   25.9200   42.4980 C   0  0  2  0  0  0  0  0  0  0  0  0
   40.7940   27.1030   43.3100 C   0  0  0  0  0  2  0  0  0  0  0  0
   40.6850   28.3120   42.4830 N   0  0  0  0  0  0  0  0  0  0  0  0
   40.2370   29.5810   42.0240 C   0  0  0  0  0  0  0  0  0  0  0  0
   39.6010   30.5220   42.6000 O   0  0  0  0  0  0  0  0  0  0  0  0
   40.7860   29.3840   40.6580 C   0  0  0  0  0  3  0  0  0  0  0  0
   40.0600   29.0540   39.9050 H   0  0  0  0  0  0  0  0  0  0  0  0
   41.6060   28.3190   41.3380 C   0  0  2  0  0  3  0  0  0  0  0  0
   41.2560   26.6100   40.7930 S   0  0  0  0  0  0  0  0  0  0  0  0
   42.4790   25.3480   42.7840 C   0  0  0  0  0  2  0  0  0  0  0  0
   42.6430   24.6820   41.9140 H   0  0  0  0  0  0  0  0  0  0  0  0
  1  6  1  0  0  0  0
  2  1  2  0  0  0  0
  2  3  1  0  0  0  0
  3  4  2  0  0  0  0
  4  5  1  0  0  0  0
  4 36  1  0  0  0  0
  5  9  1  0  0  0  0
  6  5  2  0  0  0  0
  7  2  1  0  0  0  0
  8  3  1  0  0  0  0
  9 10  1  0  0  0  0
  9 12  1  0  0  0  0
  9 11  1  0  0  0  0
 13 15  1  0  0  0  0
 13  1  1  0  0  0  0
 14 13  1  0  0  0  0
 16 22  1  0  0  0  0
 16 13  1  0  0  0  0
 17 16  1  0  0  0  0
 18 16  1  0  0  0  0
 19 20  2  0  0  0  0
 20 24  1  0  0  0  0
 21 20  1  0  0  0  0
 22 21  1  0  0  0  0
 23 22  2  0  0  0  0
 23 19  1  0  0  0  0
 25 26  2  0  0  0  0
 25 30  1  0  0  0  0
 26 27  1  0  0  0  0
 27 19  1  0  0  0  0
 27 28  2  0  0  0  0
 29 28  1  0  0  0  0
 29 32  1  0  0  0  0
 30 29  2  0  0  0  0
 31 25  1  0  0  0  0
 33 26  1  0  0  0  0
 34 33  1  0  0  0  0
 35 33  1  0  0  0  0
 37 36  1  0  0  0  0
 38 37  1  1  0  0  0
 38 47  1  0  0  0  0
 38 39  1  0  0  0  0
 40 39  1  0  0  0  0
 41 40  1  0  0  0  0
 41 42  2  0  0  0  0
 43 41  1  0  0  0  0
 44 43  1  0  0  0  0
 45 43  1  6  0  0  0
 45 40  1  0  0  0  0
 46 45  1  0  0  0  0
 46 38  1  0  0  0  0
 48 47  1  0  0  0  0
M  END
>  <minimizedAffinity>
-6.57590055

$$$$

 OpenBabel03242522213D

 48 52  0  0  1  0  0  0  0  0999 V2000
   37.3010   32.2890   39.6380 C   0  0  0  0  0  0  0  0  0  0  0  0
   36.9770   31.4050   40.6360 C   0  0  0  0  0  0  0  0  0  0  0  0
   36.6220   30.0810   40.4680 C   0  0  0  0  0  0  0  0  0  0  0  0
   36.5920   29.6220   39.1900 C   0  0  0  0  0  0  0  0  0  0  0  0
   36.9180   30.5120   38.1890 C   0  0  0  0  0  0  0  0  0  0  0  0
   37.2610   31.7970   38.3770 N   0  0  0  0  0  0  0  0  0  0  0  0
   37.0210   31.8460   41.6430 H   0  0  0  0  0  0  0  0  0  0  0  0
   36.3970   29.5020   41.3340 H   0  0  0  0  0  0  0  0  0  0  0  0
   36.8670   29.9430   36.7980 C   0  0  0  0  0  0  0  0  0  0  0  0
   35.5930   29.4310   36.5640 F   0  0  0  0  0  0  0  0  0  0  0  0
   37.8600   29.0540   36.5270 F   0  0  0  0  0  0  0  0  0  0  0  0
   37.0090   30.9850   35.8760 F   0  0  0  0  0  0  0  0  0  0  0  0
   37.6800   33.6780   39.7280 C   0  0  0  0  0  0  0  0  0  0  0  0
   38.0910   34.0090   38.7400 H   0  0  0  0  0  0  0  0  0  0  0  0
   36.7510   34.3020   39.8570 H   0  0  0  0  0  0  0  0  0  0  0  0
   38.6790   34.0280   40.7730 C   0  0  0  0  0  0  0  0  0  0  0  0
   38.5480   35.0150   41.2260 H   0  0  0  0  0  0  0  0  0  0  0  0
   38.5930   33.2850   41.6080 H   0  0  0  0  0  0  0  0  0  0  0  0
   41.8910   33.1390   39.1510 C   0  0  0  0  0  0  0  0  0  0  0  0
   42.6540   34.1560   39.6150 C   0  0  0  0  0  0  0  0  0  0  0  0
   41.4420   35.0980   40.6480 S   0  0  0  0  0  0  0  0  0  0  0  0
   40.0720   33.9100   40.2550 C   0  0  0  0  0  0  0  0  0  0  0  0
   40.6670   33.1960   39.5740 N   0  0  0  0  0  0  0  0  0  0  0  0
   43.6900   34.4070   39.4630 H   0  0  0  0  0  0  0  0  0  0  0  0
   42.1960   30.5800   36.4120 C   0  0  0  0  0  0  0  0  0  0  0  0
   41.6460   31.5930   37.2140 C   0  0  0  0  0  0  0  0  0  0  0  0
   42.3920   32.0790   38.2600 C   0  0  0  0  0  0  0  0  0  0  0  0
   43.6520   31.5300   38.4560 N   0  0  0  0  0  0  0  0  0  0  0  0
   44.1350   30.5620   37.6600 C   0  0  0  0  0  0  0  0  0  0  0  0
   43.4090   30.0790   36.6320 N   0  0  0  0  0  0  0  0  0  0  0  0
   41.6160   30.1930   35.5920 H   0  0  0  0  0  0  0  0  0  0  0  0
   45.1170   30.1570   37.8410 H   0  0  0  0  0  0  0  0  0  0  0  0
   40.3460   32.0440   36.8820 N   0  0  0  0  0  0  0  0  0  0  0  0
   40.2840   33.0500   36.6250 H   0  0  0  0  0  0  0  0  0  0  0  0
   39.4620   31.4770   36.8710 H   0  0  0  0  0  0  0  0  0  0  0  0
   36.1350   27.9370   38.8500 S   0  0  0  0  0  0  0  0  0  0  0  0
   37.4880   26.7800   38.7410 C   0  0  0  0  0  2  0  0  0  0  0  0
   38.0710   26.2860   40.0140 C   0  0  2  0  0  0  0  0  0  0  0  0
   37.2630   26.1180   41.2150 C   0  0  0  0  0  2  0  0  0  0  0  0
   37.7380   26.9750   42.3090 N   0  0  0  0  0  0  0  0  0  0  0  0
   37.7110   27.8300   43.4440 C   0  0  0  0  0  0  0  0  0  0  0  0
   36.8190   28.0520   44.3250 O   0  0  0  0  0  0  0  0  0  0  0  0
   39.0850   28.3420   43.2070 C   0  0  0  0  0  3  0  0  0  0  0  0
   39.1410   29.3130   42.6990 H   0  0  0  0  0  0  0  0  0  0  0  0
   39.2020   27.1080   42.3510 C   0  0  2  0  0  3  0  0  0  0  0  0
   39.4210   27.4270   40.5650 S   0  0  0  0  0  0  0  0  0  0  0  0
   38.8750   24.9750   39.7010 C   0  0  0  0  0  2  0  0  0  0  0  0
   39.6440   25.3370   38.9890 H   0  0  0  0  0  0  0  0  0  0  0  0
  1 13  1  0  0  0  0
  1  2  1  0  0  0  0
  2  7  1  0  0  0  0
  3  2  2  0  0  0  0
  3  8  1  0  0  0  0
  4  3  1  0  0  0  0
  5  6  1  0  0  0  0
  5  4  2  0  0  0  0
  6  1  2  0  0  0  0
  9  5  1  0  0  0  0
 10  9  1  0  0  0  0
 11  9  1  0  0  0  0
 12  9  1  0  0  0  0
 13 15  1  0  0  0  0
 13 16  1  0  0  0  0
 14 13  1  0  0  0  0
 16 17  1  0  0  0  0
 16 18  1  0  0  0  0
 19 23  1  0  0  0  0
 19 20  2  0  0  0  0
 20 21  1  0  0  0  0
 22 21  1  0  0  0  0
 22 16  1  0  0  0  0
 23 22  2  0  0  0  0
 24 20  1  0  0  0  0
 25 30  2  0  0  0  0
 25 26  1  0  0  0  0
 26 27  2  0  0  0  0
 27 28  1  0  0  0  0
 27 19  1  0  0  0  0
 29 32  1  0  0  0  0
 29 28  2  0  0  0  0
 30 29  1  0  0  0  0
 31 25  1  0  0  0  0
 33 26  1  0  0  0  0
 34 33  1  0  0  0  0
 35 33  1  0  0  0  0
 36  4  1  0  0  0  0
 37 36  1  0  0  0  0
 38 37  1  6  0  0  0
 38 46  1  0  0  0  0
 38 39  1  0  0  0  0
 39 40  1  0  0  0  0
 40 45  1  0  0  0  0
 40 41  1  0  0  0  0
 41 42  2  0  0  0  0
 43 41  1  0  0  0  0
 44 43  1  0  0  0  0
 45 46  1  6  0  0  0
 45 43  1  0  0  0  0
 47 38  1  0  0  0  0
 48 47  1  0  0  0  0
M  END
>  <minimizedAffinity>
-6.51701212

$$$$

 OpenBabel03242522213D

 48 52  0  0  1  0  0  0  0  0999 V2000
   36.7810   30.4770   40.1240 C   0  0  0  0  0  0  0  0  0  0  0  0
   36.0990   29.3370   39.7800 C   0  0  0  0  0  0  0  0  0  0  0  0
   36.1020   28.1450   40.4770 C   0  0  0  0  0  0  0  0  0  0  0  0
   36.8540   28.1080   41.6070 C   0  0  0  0  0  0  0  0  0  0  0  0
   37.5380   29.2550   41.9500 C   0  0  0  0  0  0  0  0  0  0  0  0
   37.5200   30.4050   41.2560 N   0  0  0  0  0  0  0  0  0  0  0  0
   35.5120   29.4400   38.8550 H   0  0  0  0  0  0  0  0  0  0  0  0
   35.5220   27.3350   40.0980 H   0  0  0  0  0  0  0  0  0  0  0  0
   38.3520   29.1500   43.2100 C   0  0  0  0  0  0  0  0  0  0  0  0
   39.0080   30.3600   43.4290 F   0  0  0  0  0  0  0  0  0  0  0  0
   39.1860   28.0760   43.2440 F   0  0  0  0  0  0  0  0  0  0  0  0
   37.4870   29.0100   44.3000 F   0  0  0  0  0  0  0  0  0  0  0  0
   36.8310   31.7550   39.4560 C   0  0  0  0  0  0  0  0  0  0  0  0
   35.7860   32.1130   39.2730 H   0  0  0  0  0  0  0  0  0  0  0  0
   37.2580   32.5200   40.1640 H   0  0  0  0  0  0  0  0  0  0  0  0
   37.5580   31.7990   38.1590 C   0  0  0  0  0  0  0  0  0  0  0  0
   37.1490   31.1530   37.3770 H   0  0  0  0  0  0  0  0  0  0  0  0
   37.5070   32.8460   37.7610 H   0  0  0  0  0  0  0  0  0  0  0  0
   41.1900   31.7040   38.8920 C   0  0  0  0  0  0  0  0  0  0  0  0
   41.4710   30.4660   38.4230 C   0  0  0  0  0  0  0  0  0  0  0  0
   39.8130   29.9010   37.8280 S   0  0  0  0  0  0  0  0  0  0  0  0
   39.0070   31.4930   38.3370 C   0  0  0  0  0  0  0  0  0  0  0  0
   39.9390   32.0200   38.7610 N   0  0  0  0  0  0  0  0  0  0  0  0
   42.3870   29.9040   38.3790 H   0  0  0  0  0  0  0  0  0  0  0  0
   42.9150   34.2370   41.0720 C   0  0  0  0  0  0  0  0  0  0  0  0
   41.9030   33.4090   40.5630 C   0  0  0  0  0  0  0  0  0  0  0  0
   42.1930   32.6020   39.4900 C   0  0  0  0  0  0  0  0  0  0  0  0
   43.4820   32.6590   38.9770 N   0  0  0  0  0  0  0  0  0  0  0  0
   44.4180   33.4690   39.5020 C   0  0  0  0  0  0  0  0  0  0  0  0
   44.1400   34.2650   40.5530 N   0  0  0  0  0  0  0  0  0  0  0  0
   42.6940   34.8740   41.9120 H   0  0  0  0  0  0  0  0  0  0  0  0
   45.4080   33.4900   39.0780 H   0  0  0  0  0  0  0  0  0  0  0  0
   40.6390   33.4680   41.1980 N   0  0  0  0  0  0  0  0  0  0  0  0
   40.3200   32.5740   41.6230 H   0  0  0  0  0  0  0  0  0  0  0  0
   40.0090   34.3060   41.2800 H   0  0  0  0  0  0  0  0  0  0  0  0
   36.9460   26.6210   42.5790 S   0  0  0  0  0  0  0  0  0  0  0  0
   37.1960   25.1150   41.6580 C   0  0  0  0  0  2  0  0  0  0  0  0
   38.5730   24.5620   41.6090 C   0  0  2  0  0  0  0  0  0  0  0  0
   39.3620   24.3570   42.8170 C   0  0  0  0  0  2  0  0  0  0  0  0
   40.5900   25.1630   42.8020 N   0  0  0  0  0  0  0  0  0  0  0  0
   41.6620   25.9730   43.2670 C   0  0  0  0  0  0  0  0  0  0  0  0
   42.1400   26.1720   44.4290 O   0  0  0  0  0  0  0  0  0  0  0  0
   41.9940   26.4740   41.9080 C   0  0  0  0  0  3  0  0  0  0  0  0
   41.5890   27.4640   41.6630 H   0  0  0  0  0  0  0  0  0  0  0  0
   41.1970   25.2740   41.4680 C   0  0  2  0  0  3  0  0  0  0  0  0
   39.6490   25.6610   40.5780 S   0  0  0  0  0  0  0  0  0  0  0  0
   38.5380   23.2530   40.7430 C   0  0  0  0  0  2  0  0  0  0  0  0
   38.1930   23.6320   39.7600 H   0  0  0  0  0  0  0  0  0  0  0  0
  1  6  1  0  0  0  0
  2  1  2  0  0  0  0
  2  3  1  0  0  0  0
  3  4  2  0  0  0  0
  4  5  1  0  0  0  0
  4 36  1  0  0  0  0
  5  9  1  0  0  0  0
  6  5  2  0  0  0  0
  7  2  1  0  0  0  0
  8  3  1  0  0  0  0
  9 11  1  0  0  0  0
  9 10  1  0  0  0  0
  9 12  1  0  0  0  0
 13  1  1  0  0  0  0
 13 15  1  0  0  0  0
 14 13  1  0  0  0  0
 16 22  1  0  0  0  0
 16 13  1  0  0  0  0
 17 16  1  0  0  0  0
 18 16  1  0  0  0  0
 19 27  1  0  0  0  0
 20 19  2  0  0  0  0
 21 22  1  0  0  0  0
 21 20  1  0  0  0  0
 22 23  2  0  0  0  0
 23 19  1  0  0  0  0
 24 20  1  0  0  0  0
 25 31  1  0  0  0  0
 26 25  1  0  0  0  0
 26 33  1  0  0  0  0
 27 26  2  0  0  0  0
 28 27  1  0  0  0  0
 28 29  2  0  0  0  0
 29 30  1  0  0  0  0
 30 25  2  0  0  0  0
 32 29  1  0  0  0  0
 33 35  1  0  0  0  0
 33 34  1  0  0  0  0
 37 36  1  0  0  0  0
 38 47  1  6  0  0  0
 38 37  1  0  0  0  0
 38 39  1  0  0  0  0
 40 39  1  0  0  0  0
 40 41  1  0  0  0  0
 41 42  2  0  0  0  0
 43 41  1  0  0  0  0
 44 43  1  0  0  0  0
 45 46  1  6  0  0  0
 45 43  1  0  0  0  0
 45 40  1  0  0  0  0
 46 38  1  0  0  0  0
 48 47  1  0  0  0  0
M  END
>  <minimizedAffinity>
-6.38516188

$$$$

 OpenBabel03242522213D

 48 52  0  0  1  0  0  0  0  0999 V2000
   37.2170   30.3630   40.5830 C   0  0  0  0  0  0  0  0  0  0  0  0
   37.4430   29.4640   39.5710 C   0  0  0  0  0  0  0  0  0  0  0  0
   37.6450   28.1060   39.7180 C   0  0  0  0  0  0  0  0  0  0  0  0
   37.6160   27.6260   40.9880 C   0  0  0  0  0  0  0  0  0  0  0  0
   37.3900   28.5310   42.0030 C   0  0  0  0  0  0  0  0  0  0  0  0
   37.1950   29.8490   41.8360 N   0  0  0  0  0  0  0  0  0  0  0  0
   37.4530   29.9240   38.5720 H   0  0  0  0  0  0  0  0  0  0  0  0
   37.8060   27.5200   38.8430 H   0  0  0  0  0  0  0  0  0  0  0  0
   37.3700   27.9370   43.3850 C   0  0  0  0  0  0  0  0  0  0  0  0
   37.1790   28.9570   44.3140 F   0  0  0  0  0  0  0  0  0  0  0  0
   38.4430   27.1520   43.6660 F   0  0  0  0  0  0  0  0  0  0  0  0
   36.2410   27.1220   43.5120 F   0  0  0  0  0  0  0  0  0  0  0  0
   36.9980   31.7870   40.5160 C   0  0  0  0  0  0  0  0  0  0  0  0
   35.9000   31.9920   40.5980 H   0  0  0  0  0  0  0  0  0  0  0  0
   37.4320   32.2670   41.4380 H   0  0  0  0  0  0  0  0  0  0  0  0
   37.4980   32.4800   39.2980 C   0  0  0  0  0  0  0  0  0  0  0  0
   37.6150   31.8420   38.4170 H   0  0  0  0  0  0  0  0  0  0  0  0
   36.7580   33.2740   39.0140 H   0  0  0  0  0  0  0  0  0  0  0  0
   40.9930   33.6700   39.6160 C   0  0  0  0  0  0  0  0  0  0  0  0
   40.7660   34.8310   40.2720 C   0  0  0  0  0  0  0  0  0  0  0  0
   38.9240   34.8160   40.4400 S   0  0  0  0  0  0  0  0  0  0  0  0
   38.7830   33.1880   39.5630 C   0  0  0  0  0  0  0  0  0  0  0  0
   39.9040   33.0140   39.3610 N   0  0  0  0  0  0  0  0  0  0  0  0
   41.4300   35.5990   40.6280 H   0  0  0  0  0  0  0  0  0  0  0  0
   44.1060   32.8650   37.6650 C   0  0  0  0  0  0  0  0  0  0  0  0
   42.8200   33.3470   37.9530 C   0  0  0  0  0  0  0  0  0  0  0  0
   42.3330   33.1960   39.2290 C   0  0  0  0  0  0  0  0  0  0  0  0
   43.1560   32.5710   40.1570 N   0  0  0  0  0  0  0  0  0  0  0  0
   44.3810   32.1280   39.8320 C   0  0  0  0  0  0  0  0  0  0  0  0
   44.8650   32.2710   38.5820 N   0  0  0  0  0  0  0  0  0  0  0  0
   44.4940   32.9790   36.6670 H   0  0  0  0  0  0  0  0  0  0  0  0
   44.9930   31.6460   40.5770 H   0  0  0  0  0  0  0  0  0  0  0  0
   42.1070   33.9600   36.8940 N   0  0  0  0  0  0  0  0  0  0  0  0
   41.8580   34.9570   37.0540 H   0  0  0  0  0  0  0  0  0  0  0  0
   41.8150   33.5160   35.9870 H   0  0  0  0  0  0  0  0  0  0  0  0
   37.8780   25.8950   41.3020 S   0  0  0  0  0  0  0  0  0  0  0  0
   39.3190   25.1830   40.5300 C   0  0  0  0  0  2  0  0  0  0  0  0
   40.5800   25.9660   40.5760 C   0  0  2  0  0  0  0  0  0  0  0  0
   40.8180   26.9770   41.5980 C   0  0  0  0  0  2  0  0  0  0  0  0
   41.0000   28.3090   41.0070 N   0  0  0  0  0  0  0  0  0  0  0  0
   40.9280   29.7200   40.8450 C   0  0  0  0  0  0  0  0  0  0  0  0
   40.7000   30.6640   41.6670 O   0  0  0  0  0  0  0  0  0  0  0  0
   41.2160   29.6590   39.3890 C   0  0  0  0  0  3  0  0  0  0  0  0
   40.3360   29.7170   38.7350 H   0  0  0  0  0  0  0  0  0  0  0  0
   41.7300   28.2850   39.7320 C   0  0  2  0  0  3  0  0  0  0  0  0
   40.7890   26.9030   38.9940 S   0  0  0  0  0  0  0  0  0  0  0  0
   41.7800   24.9570   40.5060 C   0  0  0  0  0  2  0  0  0  0  0  0
   41.6160   24.4670   39.5260 H   0  0  0  0  0  0  0  0  0  0  0  0
  1  6  1  0  0  0  0
  2  3  1  0  0  0  0
  2  1  2  0  0  0  0
  3  4  2  0  0  0  0
  4 36  1  0  0  0  0
  4  5  1  0  0  0  0
  5  9  1  0  0  0  0
  6  5  2  0  0  0  0
  7  2  1  0  0  0  0
  8  3  1  0  0  0  0
  9 12  1  0  0  0  0
  9 11  1  0  0  0  0
  9 10  1  0  0  0  0
 13  1  1  0  0  0  0
 13 14  1  0  0  0  0
 13 15  1  0  0  0  0
 16 22  1  0  0  0  0
 16 13  1  0  0  0  0
 17 16  1  0  0  0  0
 18 16  1  0  0  0  0
 19 20  2  0  0  0  0
 20 21  1  0  0  0  0
 20 24  1  0  0  0  0
 22 21  1  0  0  0  0
 23 22  2  0  0  0  0
 23 19  1  0  0  0  0
 25 26  2  0  0  0  0
 25 30  1  0  0  0  0
 26 27  1  0  0  0  0
 27 19  1  0  0  0  0
 27 28  2  0  0  0  0
 29 28  1  0  0  0  0
 29 32  1  0  0  0  0
 30 29  2  0  0  0  0
 31 25  1  0  0  0  0
 33 34  1  0  0  0  0
 33 26  1  0  0  0  0
 35 33  1  0  0  0  0
 37 38  1  0  0  0  0
 37 36  1  0  0  0  0
 38 47  1  1  0  0  0
 38 39  1  0  0  0  0
 40 39  1  0  0  0  0
 41 40  1  0  0  0  0
 41 42  2  0  0  0  0
 43 45  1  0  0  0  0
 43 41  1  0  0  0  0
 44 43  1  0  0  0  0
 45 46  1  6  0  0  0
 45 40  1  0  0  0  0
 46 38  1  0  0  0  0
 48 47  1  0  0  0  0
M  END
>  <minimizedAffinity>
-6.30399323

$$$$

 OpenBabel03242522213D

 48 52  0  0  1  0  0  0  0  0999 V2000
   36.8680   28.4050   41.6850 C   0  0  0  0  0  0  0  0  0  0  0  0
   37.7530   28.7910   42.6600 C   0  0  0  0  0  0  0  0  0  0  0  0
   38.7030   27.9890   43.2610 C   0  0  0  0  0  0  0  0  0  0  0  0
   38.7580   26.6980   42.8400 C   0  0  0  0  0  0  0  0  0  0  0  0
   37.8680   26.3130   41.8610 C   0  0  0  0  0  0  0  0  0  0  0  0
   36.9510   27.1120   41.2890 N   0  0  0  0  0  0  0  0  0  0  0  0
   37.6510   29.8460   42.9510 H   0  0  0  0  0  0  0  0  0  0  0  0
   39.3320   28.4190   44.0060 H   0  0  0  0  0  0  0  0  0  0  0  0
   37.9790   24.8740   41.4390 C   0  0  0  0  0  0  0  0  0  0  0  0
   37.5900   24.0590   42.5000 F   0  0  0  0  0  0  0  0  0  0  0  0
   39.1920   24.5400   40.9230 F   0  0  0  0  0  0  0  0  0  0  0  0
   37.0410   24.6220   40.4330 F   0  0  0  0  0  0  0  0  0  0  0  0
   35.8520   29.1730   41.0090 C   0  0  0  0  0  0  0  0  0  0  0  0
   35.8210   28.8720   39.9310 H   0  0  0  0  0  0  0  0  0  0  0  0
   34.8410   28.8680   41.4030 H   0  0  0  0  0  0  0  0  0  0  0  0
   35.9930   30.6530   41.0600 C   0  0  0  0  0  0  0  0  0  0  0  0
   35.0580   31.2120   40.9550 H   0  0  0  0  0  0  0  0  0  0  0  0
   36.4150   30.9340   42.0610 H   0  0  0  0  0  0  0  0  0  0  0  0
   38.7200   32.2220   39.1010 C   0  0  0  0  0  0  0  0  0  0  0  0
   38.4260   31.7150   37.8810 C   0  0  0  0  0  0  0  0  0  0  0  0
   36.9310   30.6890   38.2470 S   0  0  0  0  0  0  0  0  0  0  0  0
   36.9700   31.1420   40.0460 C   0  0  0  0  0  0  0  0  0  0  0  0
   37.8970   31.8260   40.0210 N   0  0  0  0  0  0  0  0  0  0  0  0
   38.8940   31.8360   36.9190 H   0  0  0  0  0  0  0  0  0  0  0  0
   40.9290   34.9140   40.5220 C   0  0  0  0  0  0  0  0  0  0  0  0
   39.8060   34.0900   40.3380 C   0  0  0  0  0  0  0  0  0  0  0  0
   39.8530   33.1260   39.3620 C   0  0  0  0  0  0  0  0  0  0  0  0
   41.0200   33.0280   38.6150 N   0  0  0  0  0  0  0  0  0  0  0  0
   42.0680   33.8400   38.8300 C   0  0  0  0  0  0  0  0  0  0  0  0
   42.0300   34.7900   39.7850 N   0  0  0  0  0  0  0  0  0  0  0  0
   40.8980   35.6730   41.2840 H   0  0  0  0  0  0  0  0  0  0  0  0
   42.9580   33.7380   38.2310 H   0  0  0  0  0  0  0  0  0  0  0  0
   38.6930   34.3190   41.1830 N   0  0  0  0  0  0  0  0  0  0  0  0
   38.4300   33.5150   41.7870 H   0  0  0  0  0  0  0  0  0  0  0  0
   38.1230   35.1990   41.2560 H   0  0  0  0  0  0  0  0  0  0  0  0
   39.9320   25.5690   43.5530 S   0  0  0  0  0  0  0  0  0  0  0  0
   41.4560   26.3010   44.1220 C   0  0  0  0  0  2  0  0  0  0  0  0
   42.4050   26.7960   43.0930 C   0  0  2  0  0  0  0  0  0  0  0  0
   42.3080   28.1420   42.5430 C   0  0  0  0  0  2  0  0  0  0  0  0
   42.0630   28.1170   41.0950 N   0  0  0  0  0  0  0  0  0  0  0  0
   41.5510   28.4820   39.8200 C   0  0  0  0  0  0  0  0  0  0  0  0
   41.0330   29.5600   39.3840 O   0  0  0  0  0  0  0  0  0  0  0  0
   41.8500   27.1570   39.2180 C   0  0  0  0  0  3  0  0  0  0  0  0
   40.9990   26.4660   39.1640 H   0  0  0  0  0  0  0  0  0  0  0  0
   42.7690   27.0280   40.4040 C   0  0  2  0  0  3  0  0  0  0  0  0
   42.3160   25.7160   41.5920 S   0  0  0  0  0  0  0  0  0  0  0  0
   43.8620   26.5100   43.6000 C   0  0  0  0  0  2  0  0  0  0  0  0
   43.8650   25.4050   43.6900 H   0  0  0  0  0  0  0  0  0  0  0  0
  1  2  1  0  0  0  0
  2  7  1  0  0  0  0
  2  3  2  0  0  0  0
  3  8  1  0  0  0  0
  4  3  1  0  0  0  0
  4 36  1  0  0  0  0
  5  4  2  0  0  0  0
  6  1  2  0  0  0  0
  6  5  1  0  0  0  0
  9  5  1  0  0  0  0
  9 10  1  0  0  0  0
 11  9  1  0  0  0  0
 12  9  1  0  0  0  0
 13 16  1  0  0  0  0
 13 15  1  0  0  0  0
 13  1  1  0  0  0  0
 14 13  1  0  0  0  0
 16 18  1  0  0  0  0
 17 16  1  0  0  0  0
 19 27  1  0  0  0  0
 19 23  1  0  0  0  0
 20 21  1  0  0  0  0
 20 19  2  0  0  0  0
 21 22  1  0  0  0  0
 22 16  1  0  0  0  0
 23 22  2  0  0  0  0
 24 20  1  0  0  0  0
 25 31  1  0  0  0  0
 26 25  1  0  0  0  0
 26 33  1  0  0  0  0
 27 26  2  0  0  0  0
 28 29  2  0  0  0  0
 28 27  1  0  0  0  0
 29 30  1  0  0  0  0
 30 25  2  0  0  0  0
 32 29  1  0  0  0  0
 33 35  1  0  0  0  0
 33 34  1  0  0  0  0
 36 37  1  0  0  0  0
 38 47  1  1  0  0  0
 38 37  1  0  0  0  0
 39 38  1  0  0  0  0
 40 39  1  0  0  0  0
 41 40  1  0  0  0  0
 42 41  2  0  0  0  0
 43 41  1  0  0  0  0
 44 43  1  0  0  0  0
 45 43  1  6  0  0  0
 45 40  1  0  0  0  0
 45 46  1  0  0  0  0
 46 38  1  0  0  0  0
 47 48  1  0  0  0  0
M  END
>  <minimizedAffinity>
-6.29422283

$$$$

 OpenBabel03242522213D

 48 52  0  0  1  0  0  0  0  0999 V2000
   37.4410   25.6200   40.2490 C   0  0  0  0  0  0  0  0  0  0  0  0
   38.7830   25.7220   39.9790 C   0  0  0  0  0  0  0  0  0  0  0  0
   39.7160   26.4040   40.7340 C   0  0  0  0  0  0  0  0  0  0  0  0
   39.2520   27.0310   41.8460 C   0  0  0  0  0  0  0  0  0  0  0  0
   37.9040   26.9280   42.1140 C   0  0  0  0  0  0  0  0  0  0  0  0
   37.0130   26.2570   41.3650 N   0  0  0  0  0  0  0  0  0  0  0  0
   39.0870   25.1910   39.0650 H   0  0  0  0  0  0  0  0  0  0  0  0
   40.7320   26.3990   40.4110 H   0  0  0  0  0  0  0  0  0  0  0  0
   37.4520   27.6430   43.3580 C   0  0  0  0  0  0  0  0  0  0  0  0
   36.1730   27.2040   43.6950 F   0  0  0  0  0  0  0  0  0  0  0  0
   37.5510   28.9970   43.2850 F   0  0  0  0  0  0  0  0  0  0  0  0
   38.2590   27.2460   44.4290 F   0  0  0  0  0  0  0  0  0  0  0  0
   36.4060   24.9320   39.5170 C   0  0  0  0  0  0  0  0  0  0  0  0
   36.5920   23.8290   39.5720 H   0  0  0  0  0  0  0  0  0  0  0  0
   35.4260   25.0680   40.0570 H   0  0  0  0  0  0  0  0  0  0  0  0
   36.2530   25.2940   38.0830 C   0  0  0  0  0  0  0  0  0  0  0  0
   37.1490   25.1510   37.4710 H   0  0  0  0  0  0  0  0  0  0  0  0
   35.4600   24.6390   37.6360 H   0  0  0  0  0  0  0  0  0  0  0  0
   35.6060   28.9420   38.1360 C   0  0  0  0  0  0  0  0  0  0  0  0
   34.5330   28.9820   37.3110 C   0  0  0  0  0  0  0  0  0  0  0  0
   34.3230   27.1960   36.8780 S   0  0  0  0  0  0  0  0  0  0  0  0
   35.7720   26.6960   37.9230 C   0  0  0  0  0  0  0  0  0  0  0  0
   36.0640   27.7410   38.3080 N   0  0  0  0  0  0  0  0  0  0  0  0
   33.9240   29.7970   36.9610 H   0  0  0  0  0  0  0  0  0  0  0  0
   36.6560   31.5390   40.6450 C   0  0  0  0  0  0  0  0  0  0  0  0
   36.0670   30.3790   40.1170 C   0  0  0  0  0  0  0  0  0  0  0  0
   36.1950   30.1330   38.7720 C   0  0  0  0  0  0  0  0  0  0  0  0
   36.9070   31.0560   38.0180 N   0  0  0  0  0  0  0  0  0  0  0  0
   37.4540   32.1520   38.5710 C   0  0  0  0  0  0  0  0  0  0  0  0
   37.3320   32.4010   39.8890 N   0  0  0  0  0  0  0  0  0  0  0  0
   36.5590   31.7400   41.6990 H   0  0  0  0  0  0  0  0  0  0  0  0
   37.9990   32.8490   37.9550 H   0  0  0  0  0  0  0  0  0  0  0  0
   35.3730   29.5390   41.0210 N   0  0  0  0  0  0  0  0  0  0  0  0
   35.7560   28.5760   41.1040 H   0  0  0  0  0  0  0  0  0  0  0  0
   34.5310   29.7880   41.5990 H   0  0  0  0  0  0  0  0  0  0  0  0
   40.3590   27.9530   42.8880 S   0  0  0  0  0  0  0  0  0  0  0  0
   41.4400   29.0920   42.0440 C   0  0  0  0  0  2  0  0  0  0  0  0
   40.8420   30.3470   41.5230 C   0  0  2  0  0  0  0  0  0  0  0  0
   40.2570   30.4240   40.1900 C   0  0  0  0  0  2  0  0  0  0  0  0
   40.9590   31.4010   39.3480 N   0  0  0  0  0  0  0  0  0  0  0  0
   41.5380   32.0010   38.1960 C   0  0  0  0  0  0  0  0  0  0  0  0
   41.3700   31.7950   36.9510 O   0  0  0  0  0  0  0  0  0  0  0  0
   42.3830   32.9290   38.9900 C   0  0  0  0  0  3  0  0  0  0  0  0
   43.4240   32.6120   39.1290 H   0  0  0  0  0  0  0  0  0  0  0  0
   41.4060   32.5910   40.0870 C   0  0  2  0  0  3  0  0  0  0  0  0
   42.1220   31.6860   41.5030 S   0  0  0  0  0  0  0  0  0  0  0  0
   39.8370   30.8880   42.6000 C   0  0  0  0  0  2  0  0  0  0  0  0
   40.5000   31.0590   43.4730 H   0  0  0  0  0  0  0  0  0  0  0  0
  1  6  1  0  0  0  0
  2  1  2  0  0  0  0
  2  3  1  0  0  0  0
  3  4  2  0  0  0  0
  4  5  1  0  0  0  0
  4 36  1  0  0  0  0
  5  9  1  0  0  0  0
  6  5  2  0  0  0  0
  7  2  1  0  0  0  0
  8  3  1  0  0  0  0
  9 10  1  0  0  0  0
  9 12  1  0  0  0  0
 11  9  1  0  0  0  0
 13 14  1  0  0  0  0
 13 15  1  0  0  0  0
 13  1  1  0  0  0  0
 16 13  1  0  0  0  0
 17 16  1  0  0  0  0
 18 16  1  0  0  0  0
 19 23  1  0  0  0  0
 19 27  1  0  0  0  0
 20 19  2  0  0  0  0
 21 20  1  0  0  0  0
 21 22  1  0  0  0  0
 22 16  1  0  0  0  0
 22 23  2  0  0  0  0
 24 20  1  0  0  0  0
 25 31  1  0  0  0  0
 26 25  1  0  0  0  0
 26 33  1  0  0  0  0
 27 26  2  0  0  0  0
 28 29  2  0  0  0  0
 28 27  1  0  0  0  0
 29 30  1  0  0  0  0
 30 25  2  0  0  0  0
 32 29  1  0  0  0  0
 33 34  1  0  0  0  0
 33 35  1  0  0  0  0
 37 36  1  0  0  0  0
 38 37  1  1  0  0  0
 38 47  1  0  0  0  0
 39 38  1  0  0  0  0
 40 45  1  0  0  0  0
 40 39  1  0  0  0  0
 41 43  1  0  0  0  0
 41 40  1  0  0  0  0
 42 41  2  0  0  0  0
 43 44  1  0  0  0  0
 45 43  1  6  0  0  0
 45 46  1  0  0  0  0
 46 38  1  0  0  0  0
 47 48  1  0  0  0  0
M  END
>  <minimizedAffinity>
-6.27851629

$$$$
