
 OpenBabel03242522203D

 48 52  0  0  1  0  0  0  0  0999 V2000
   42.3560   35.0210   40.0290 C   0  0  0  0  0  0  0  0  0  0  0  0
   41.8520   35.3010   38.7830 C   0  0  0  0  0  0  0  0  0  0  0  0
   40.6400   34.8740   38.2800 C   0  0  0  0  0  0  0  0  0  0  0  0
   39.8820   34.1040   39.1030 C   0  0  0  0  0  0  0  0  0  0  0  0
   40.3900   33.8240   40.3540 C   0  0  0  0  0  0  0  0  0  0  0  0
   41.5740   34.2510   40.8230 N   0  0  0  0  0  0  0  0  0  0  0  0
   42.5190   35.9280   38.1730 H   0  0  0  0  0  0  0  0  0  0  0  0
   40.3680   35.1680   37.2920 H   0  0  0  0  0  0  0  0  0  0  0  0
   39.5040   32.9670   41.2170 C   0  0  0  0  0  0  0  0  0  0  0  0
   38.1750   33.1890   40.8630 F   0  0  0  0  0  0  0  0  0  0  0  0
   39.7330   33.1030   42.5510 F   0  0  0  0  0  0  0  0  0  0  0  0
   39.7360   31.6220   40.9120 F   0  0  0  0  0  0  0  0  0  0  0  0
   43.6040   35.4250   40.6280 C   0  0  0  0  0  0  0  0  0  0  0  0
   44.4210   34.7550   40.2570 H   0  0  0  0  0  0  0  0  0  0  0  0
   43.8880   36.4410   40.2310 H   0  0  0  0  0  0  0  0  0  0  0  0
   43.6590   35.4250   42.1140 C   0  0  0  0  0  0  0  0  0  0  0  0
   43.5980   36.4130   42.5800 H   0  0  0  0  0  0  0  0  0  0  0  0
   42.7830   34.8410   42.5010 H   0  0  0  0  0  0  0  0  0  0  0  0
   46.7910   33.5180   42.6550 C   0  0  0  0  0  0  0  0  0  0  0  0
   46.8920   33.6490   43.9990 C   0  0  0  0  0  0  0  0  0  0  0  0
   45.3920   34.6560   44.3950 S   0  0  0  0  0  0  0  0  0  0  0  0
   44.8770   34.7250   42.6140 C   0  0  0  0  0  0  0  0  0  0  0  0
   45.7450   34.1110   42.1700 N   0  0  0  0  0  0  0  0  0  0  0  0
   47.6210   33.2900   44.7040 H   0  0  0  0  0  0  0  0  0  0  0  0
   49.4120   32.6300   40.1080 C   0  0  0  0  0  0  0  0  0  0  0  0
   48.5090   33.4030   40.8560 C   0  0  0  0  0  0  0  0  0  0  0  0
   47.7620   32.7830   41.8270 C   0  0  0  0  0  0  0  0  0  0  0  0
   47.9530   31.4190   42.0080 N   0  0  0  0  0  0  0  0  0  0  0  0
   48.8320   30.7230   41.2670 C   0  0  0  0  0  0  0  0  0  0  0  0
   49.5670   31.3240   40.3110 N   0  0  0  0  0  0  0  0  0  0  0  0
   49.9990   33.1090   39.3440 H   0  0  0  0  0  0  0  0  0  0  0  0
   48.9540   29.6660   41.4320 H   0  0  0  0  0  0  0  0  0  0  0  0
   48.4310   34.7830   40.5480 N   0  0  0  0  0  0  0  0  0  0  0  0
   48.6850   35.4200   41.3290 H   0  0  0  0  0  0  0  0  0  0  0  0
   48.1490   35.2130   39.6310 H   0  0  0  0  0  0  0  0  0  0  0  0
   38.3070   33.4830   38.5580 S   0  0  0  0  0  0  0  0  0  0  0  0
   38.3640   32.3290   37.2000 C   0  0  0  0  0  0  0  0  0  0  0  0
   39.0800   31.0470   37.4180 C   0  0  2  0  0  0  0  0  0  0  0  0
   40.5120   31.0040   37.6900 C   0  0  0  0  0  0  0  0  0  0  0  0
   41.2360   30.2610   36.6510 N   0  0  0  0  0  0  0  0  0  0  0  0
   42.2650   29.8960   35.7410 C   0  0  0  0  0  0  0  0  0  0  0  0
   43.5020   30.1950   35.6850 O   0  0  0  0  0  0  0  0  0  0  0  0
   41.3630   29.0570   34.9120 C   0  0  0  0  0  0  0  0  0  0  0  0
   40.9770   29.5400   34.0050 H   0  0  0  0  0  0  0  0  0  0  0  0
   40.4910   29.1010   36.1400 C   0  0  2  0  0  0  0  0  0  0  0  0
   38.8980   29.9690   35.9240 S   0  0  0  0  0  0  0  0  0  0  0  0
   38.2880   30.2280   38.4970 C   0  0  0  0  0  0  0  0  0  0  0  0
   37.3030   30.0900   38.0080 H   0  0  0  0  0  0  0  0  0  0  0  0
  1 13  1  0  0  0  0
  1  6  1  0  0  0  0
  2  1  2  0  0  0  0
  3  2  1  0  0  0  0
  3  4  2  0  0  0  0
  4  5  1  0  0  0  0
  5  6  2  0  0  0  0
  5  9  1  0  0  0  0
  7  2  1  0  0  0  0
  8  3  1  0  0  0  0
  9 11  1  0  0  0  0
 10  9  1  0  0  0  0
 12  9  1  0  0  0  0
 13 16  1  0  0  0  0
 14 13  1  0  0  0  0
 15 13  1  0  0  0  0
 16 18  1  0  0  0  0
 16 17  1  0  0  0  0
 16 22  1  0  0  0  0
 19 20  2  0  0  0  0
 20 21  1  0  0  0  0
 20 24  1  0  0  0  0
 22 21  1  0  0  0  0
 23 22  2  0  0  0  0
 23 19  1  0  0  0  0
 25 30  2  0  0  0  0
 25 26  1  0  0  0  0
 26 27  2  0  0  0  0
 27 28  1  0  0  0  0
 27 19  1  0  0  0  0
 29 32  1  0  0  0  0
 29 28  2  0  0  0  0
 30 29  1  0  0  0  0
 31 25  1  0  0  0  0
 33 26  1  0  0  0  0
 33 34  1  0  0  0  0
 35 33  1  0  0  0  0
 36  4  1  0  0  0  0
 37 36  1  0  0  0  0
 38 37  1  6  0  0  0
 38 39  1  0  0  0  0
 38 47  1  0  0  0  0
 40 39  1  0  0  0  0
 41 40  1  0  0  0  0
 42 41  2  0  0  0  0
 43 41  1  0  0  0  0
 44 43  1  0  0  0  0
 45 43  1  6  0  0  0
 45 40  1  0  0  0  0
 46 45  1  0  0  0  0
 46 38  1  0  0  0  0
 48 47  1  0  0  0  0
M  END
>  <minimizedAffinity>
-5.95263815

>  <minimizedRMSD>
1.66966105

$$$$
