
 OpenBabel03242522203D

 48 52  0  0  1  0  0  0  0  0999 V2000
   42.6670   34.9760   40.3820 C   0  0  0  0  0  0  0  0  0  0  0  0
   42.5490   34.8410   39.0210 C   0  0  0  0  0  0  0  0  0  0  0  0
   41.5400   34.1760   38.3530 C   0  0  0  0  0  0  0  0  0  0  0  0
   40.5790   33.6040   39.1240 C   0  0  0  0  0  0  0  0  0  0  0  0
   40.7000   33.7400   40.4910 C   0  0  0  0  0  0  0  0  0  0  0  0
   41.6910   34.3930   41.1200 N   0  0  0  0  0  0  0  0  0  0  0  0
   43.3610   35.3280   38.4620 H   0  0  0  0  0  0  0  0  0  0  0  0
   41.5680   34.1510   37.2880 H   0  0  0  0  0  0  0  0  0  0  0  0
   39.6060   33.0850   41.2890 C   0  0  0  0  0  0  0  0  0  0  0  0
   38.3750   33.4160   40.7270 F   0  0  0  0  0  0  0  0  0  0  0  0
   39.6700   33.3350   42.6240 F   0  0  0  0  0  0  0  0  0  0  0  0
   39.7050   31.6980   41.1420 F   0  0  0  0  0  0  0  0  0  0  0  0
   43.6810   35.6490   41.1550 C   0  0  0  0  0  0  0  0  0  0  0  0
   44.6910   35.3410   40.7790 H   0  0  0  0  0  0  0  0  0  0  0  0
   43.6360   36.7520   40.9340 H   0  0  0  0  0  0  0  0  0  0  0  0
   43.6580   35.4210   42.6240 C   0  0  0  0  0  0  0  0  0  0  0  0
   43.5540   36.3250   43.2310 H   0  0  0  0  0  0  0  0  0  0  0  0
   42.7740   34.7760   42.8680 H   0  0  0  0  0  0  0  0  0  0  0  0
   46.7710   33.4540   43.0380 C   0  0  0  0  0  0  0  0  0  0  0  0
   46.8350   33.4350   44.3900 C   0  0  0  0  0  0  0  0  0  0  0  0
   45.3260   34.3990   44.8540 S   0  0  0  0  0  0  0  0  0  0  0  0
   44.8610   34.6650   43.0770 C   0  0  0  0  0  0  0  0  0  0  0  0
   45.7400   34.1010   42.5930 N   0  0  0  0  0  0  0  0  0  0  0  0
   47.5440   32.9980   45.0720 H   0  0  0  0  0  0  0  0  0  0  0  0
   49.0990   32.6840   40.1860 C   0  0  0  0  0  0  0  0  0  0  0  0
   48.1470   33.3630   40.9640 C   0  0  0  0  0  0  0  0  0  0  0  0
   47.7650   32.8100   42.1620 C   0  0  0  0  0  0  0  0  0  0  0  0
   48.3520   31.6060   42.5270 N   0  0  0  0  0  0  0  0  0  0  0  0
   49.2600   30.9950   41.7470 C   0  0  0  0  0  0  0  0  0  0  0  0
   49.6390   31.5310   40.5700 N   0  0  0  0  0  0  0  0  0  0  0  0
   49.4020   33.1110   39.2450 H   0  0  0  0  0  0  0  0  0  0  0  0
   49.6950   30.0600   42.0600 H   0  0  0  0  0  0  0  0  0  0  0  0
   47.6430   34.5820   40.4500 N   0  0  0  0  0  0  0  0  0  0  0  0
   47.8310   35.4170   41.0410 H   0  0  0  0  0  0  0  0  0  0  0  0
   47.1120   34.7200   39.5540 H   0  0  0  0  0  0  0  0  0  0  0  0
   39.2380   32.7090   38.3740 S   0  0  0  0  0  0  0  0  0  0  0  0
   39.6750   31.1470   37.6320 C   0  0  0  0  0  2  0  0  0  0  0  0
   38.8960   29.9530   38.0410 C   0  0  2  0  0  0  0  0  0  0  0  0
   37.8120   30.0350   39.0120 C   0  0  0  0  0  2  0  0  0  0  0  0
   38.0900   29.2220   40.2020 N   0  0  0  0  0  0  0  0  0  0  0  0
   38.1310   28.8180   41.5650 C   0  0  0  0  0  0  0  0  0  0  0  0
   37.4690   29.1890   42.5860 O   0  0  0  0  0  0  0  0  0  0  0  0
   39.2150   27.8270   41.3340 C   0  0  0  0  0  3  0  0  0  0  0  0
   40.2250   28.1710   41.5890 H   0  0  0  0  0  0  0  0  0  0  0  0
   38.7830   27.9620   39.8970 C   0  0  2  0  0  3  0  0  0  0  0  0
   40.0320   28.6910   38.7820 S   0  0  0  0  0  0  0  0  0  0  0  0
   38.4160   29.2180   36.7390 C   0  0  0  0  0  2  0  0  0  0  0  0
   39.3770   28.9580   36.2520 H   0  0  0  0  0  0  0  0  0  0  0  0
  1  6  1  0  0  0  0
  1 13  1  0  0  0  0
  2  1  2  0  0  0  0
  3  2  1  0  0  0  0
  3  4  2  0  0  0  0
  4  5  1  0  0  0  0
  5  6  2  0  0  0  0
  5  9  1  0  0  0  0
  7  2  1  0  0  0  0
  8  3  1  0  0  0  0
  9 11  1  0  0  0  0
 10  9  1  0  0  0  0
 12  9  1  0  0  0  0
 13 16  1  0  0  0  0
 14 13  1  0  0  0  0
 15 13  1  0  0  0  0
 16 18  1  0  0  0  0
 16 22  1  0  0  0  0
 16 17  1  0  0  0  0
 19 20  2  0  0  0  0
 20 21  1  0  0  0  0
 20 24  1  0  0  0  0
 22 21  1  0  0  0  0
 23 19  1  0  0  0  0
 23 22  2  0  0  0  0
 25 30  2  0  0  0  0
 25 26  1  0  0  0  0
 26 27  2  0  0  0  0
 27 28  1  0  0  0  0
 27 19  1  0  0  0  0
 29 32  1  0  0  0  0
 29 28  2  0  0  0  0
 30 29  1  0  0  0  0
 31 25  1  0  0  0  0
 33 26  1  0  0  0  0
 33 34  1  0  0  0  0
 35 33  1  0  0  0  0
 36  4  1  0  0  0  0
 37 38  1  0  0  0  0
 37 36  1  0  0  0  0
 38 47  1  6  0  0  0
 38 46  1  0  0  0  0
 38 39  1  0  0  0  0
 39 40  1  0  0  0  0
 40 41  1  0  0  0  0
 41 42  2  0  0  0  0
 43 41  1  0  0  0  0
 43 44  1  0  0  0  0
 45 46  1  6  0  0  0
 45 40  1  0  0  0  0
 45 43  1  0  0  0  0
 48 47  1  0  0  0  0
M  END
>  <minimizedAffinity>
-5.78626156

>  <minimizedRMSD>
4.05244637

$$$$
