
 OpenBabel03242511163D

 22 24  0  0  1  0  0  0  0  0999 V2000
   48.6330   33.9690   41.8100 C   0  0  0  0  0  2  0  0  0  0  0  0
   48.6570   32.8690   40.7790 C   0  0  1  0  0  0  0  0  0  0  0  0
   49.9850   32.1720   40.7080 C   0  0  0  0  0  2  0  0  0  0  0  0
   49.9680   31.1020   41.6930 N   0  0  0  0  0  0  0  0  0  0  0  0
   50.1830   30.2070   42.7820 C   0  0  0  0  0  0  0  0  0  0  0  0
   51.0890   30.1150   43.6570 O   0  0  0  0  0  0  0  0  0  0  0  0
   48.9570   29.4100   42.5290 C   0  0  0  0  0  3  0  0  0  0  0  0
   49.1590   28.3280   42.2840 H   0  0  0  0  0  0  0  0  0  0  0  0
   48.8800   30.2040   41.2770 C   0  0  1  0  0  3  0  0  0  0  0  0
   47.5660   31.4890   41.2350 S   0  0  0  0  0  0  0  0  0  0  0  0
   48.2720   33.3370   39.4160 C   0  0  0  0  0  2  0  0  0  0  0  0
   48.3620   32.4280   38.7500 H   0  0  0  0  0  0  0  0  0  0  0  0
   47.0760   34.8640   41.6200 S   0  0  0  0  0  0  0  0  0  0  0  0
   44.5530   35.8170   44.6680 C   0  0  0  0  0  0  0  0  0  0  0  0
   45.2230   35.8590   43.4250 C   0  0  0  0  0  0  0  0  0  0  0  0
   46.1940   34.8600   43.1820 C   0  0  0  0  0  0  0  0  0  0  0  0
   46.4210   33.9330   44.1450 N   0  0  0  0  0  0  0  0  0  0  0  0
   45.7620   33.9300   45.3150 C   0  0  0  0  0  0  0  0  0  0  0  0
   44.8270   34.8690   45.5810 N   0  0  0  0  0  0  0  0  0  0  0  0
   43.8340   36.6100   44.7710 H   0  0  0  0  0  0  0  0  0  0  0  0
   45.0170   36.6150   42.6770 H   0  0  0  0  0  0  0  0  0  0  0  0
   45.9370   33.1950   46.0870 H   0  0  0  0  0  0  0  0  0  0  0  0
  2 11  1  6  0  0  0
  2 10  1  0  0  0  0
  2  1  1  0  0  0  0
  3  2  1  0  0  0  0
  3  4  1  0  0  0  0
  4  5  1  0  0  0  0
  5  6  2  0  0  0  0
  7  5  1  0  0  0  0
  8  7  1  0  0  0  0
  9 10  1  1  0  0  0
  9  4  1  0  0  0  0
  9  7  1  0  0  0  0
 12 11  1  0  0  0  0
 13  1  1  0  0  0  0
 13 16  1  0  0  0  0
 14 20  1  0  0  0  0
 14 19  1  0  0  0  0
 15 14  2  0  0  0  0
 16 15  1  0  0  0  0
 16 17  2  0  0  0  0
 17 18  1  0  0  0  0
 18 19  2  0  0  0  0
 18 22  1  0  0  0  0
 21 15  1  0  0  0  0
M  END
>  <minimizedAffinity>
-3.73397756

>  <minimizedRMSD>
2.04694343

$$$$
