
     RDKit          3D

 30 32  0  0  0  0  0  0  0  0999 V2000
   44.5422   36.0278   44.5277 C   0  0  0  0  0  0  0  0  0  0  0  0
   45.2604   35.8936   43.3185 C   0  0  0  0  0  0  0  0  0  0  0  0
   46.1344   34.7880   43.2093 C   0  0  0  0  0  0  0  0  0  0  0  0
   46.2305   33.9337   44.2566 N   0  0  0  0  0  0  0  0  0  0  0  0
   45.5285   34.0987   45.3899 C   0  0  0  0  0  0  0  0  0  0  0  0
   44.6827   35.1440   45.5311 N   0  0  0  0  0  0  0  0  0  0  0  0
   47.0723   34.5672   41.6959 S   0  0  0  0  0  0  0  0  0  0  0  0
   43.9017   36.8926   44.5289 H   0  0  0  0  0  0  0  0  0  0  0  0
   45.1595   36.5962   42.4998 H   0  0  0  0  0  0  0  0  0  0  0  0
   45.5985   33.4229   46.2300 H   0  0  0  0  0  0  0  0  0  0  0  0
   48.0964   33.0857   41.8367 C   0  0  0  0  0  0  0  0  0  0  0  0
   48.2633   32.5115   40.4523 C   0  0  1  0  0  0  0  0  0  0  0  0
   48.9205   33.4570   39.5031 C   0  0  0  0  0  0  0  0  0  0  0  0
   49.0063   32.8918   38.5288 H   0  0  0  0  0  0  0  0  0  0  0  0
   49.0114   31.2095   40.4532 C   0  0  0  0  0  0  0  0  0  0  0  0
   48.0385   30.1492   40.6585 N   0  0  0  0  0  0  0  0  0  0  0  0
   47.2448   29.0546   41.1125 C   0  0  0  0  0  0  0  0  0  0  0  0
   47.3873   28.2115   42.0416 O   0  0  0  0  0  0  0  0  0  0  0  0
   46.1767   29.2507   40.1003 C   0  0  1  0  0  0  0  0  0  0  0  0
   46.0444   28.3753   39.4017 H   0  0  0  0  0  0  0  0  0  0  0  0
   47.1232   30.2288   39.5094 C   0  0  1  0  0  0  0  0  0  0  0  0
   46.6748   31.9977   39.7349 S   0  0  0  0  0  0  0  0  0  0  0  0
   49.1238   33.3307   42.1891 H   0  0  0  0  0  0  0  0  0  0  0  0
   47.6754   32.3782   42.5476 H   0  0  0  0  0  0  0  0  0  0  0  0
   48.2887   34.3332   39.2423 H   0  0  0  0  0  0  0  0  0  0  0  0
   49.9519   33.7054   39.7872 H   0  0  0  0  0  0  0  0  0  0  0  0
   49.7214   31.2304   41.3056 H   0  0  0  0  0  0  0  0  0  0  0  0
   49.5011   31.0145   39.4853 H   0  0  0  0  0  0  0  0  0  0  0  0
   45.2259   29.6691   40.4873 H   0  0  0  0  0  0  0  0  0  0  0  0
   47.5763   30.0144   38.5410 H   0  0  0  0  0  0  0  0  0  0  0  0
  1  6  2  0
  2  1  1  0
  3  2  2  0
  3  4  1  0
  4  5  2  0
  5  6  1  0
  7  3  1  0
  1  8  1  0
  2  9  1  0
  5 10  1  0
 12 11  1  1
 12 13  1  0
 13 14  1  0
 12 15  1  0
 15 16  1  0
 16 17  1  0
 17 18  2  0
 17 19  1  0
 19 20  1  6
 19 21  1  0
 21 22  1  0
 22 12  1  0
 21 16  1  0
 11 23  1  0
 11 24  1  0
 13 25  1  0
 13 26  1  0
 15 27  1  0
 15 28  1  0
 19 29  1  0
 21 30  1  6
  7 11  1  0
M  ISO  5   8  14   9  14  10  14  14   8  20  15
M  END
>  <DihAtoms>  (1) 
2,6,10,11

>  <DihDeg>  (1) 
179.99985870743572

$$$$
