
     RDKit          3D

 30 32  0  0  0  0  0  0  0  0999 V2000
   44.5422   36.0278   44.5277 C   0  0  0  0  0  0  0  0  0  0  0  0
   45.2604   35.8936   43.3185 C   0  0  0  0  0  0  0  0  0  0  0  0
   46.1344   34.7880   43.2093 C   0  0  0  0  0  0  0  0  0  0  0  0
   46.2305   33.9337   44.2566 N   0  0  0  0  0  0  0  0  0  0  0  0
   45.5285   34.0987   45.3899 C   0  0  0  0  0  0  0  0  0  0  0  0
   44.6827   35.1440   45.5311 N   0  0  0  0  0  0  0  0  0  0  0  0
   47.0723   34.5672   41.6959 S   0  0  0  0  0  0  0  0  0  0  0  0
   43.9017   36.8926   44.5289 H   0  0  0  0  0  0  0  0  0  0  0  0
   45.1595   36.5962   42.4998 H   0  0  0  0  0  0  0  0  0  0  0  0
   45.5985   33.4229   46.2300 H   0  0  0  0  0  0  0  0  0  0  0  0
   48.0964   33.0857   41.8367 C   0  0  0  0  0  0  0  0  0  0  0  0
   47.6857   32.1393   40.7369 C   0  0  1  0  0  0  0  0  0  0  0  0
   47.8662   32.7158   39.3724 C   0  0  0  0  0  0  0  0  0  0  0  0
   47.5522   31.8989   38.6582 H   0  0  0  0  0  0  0  0  0  0  0  0
   48.3964   30.8189   40.8155 C   0  0  0  0  0  0  0  0  0  0  0  0
   47.6221   29.9601   41.6963 N   0  0  0  0  0  0  0  0  0  0  0  0
   47.1150   29.1186   42.7302 C   0  0  0  0  0  0  0  0  0  0  0  0
   47.6507   28.5535   43.7242 O   0  0  0  0  0  0  0  0  0  0  0  0
   45.7184   29.1360   42.2272 C   0  0  1  0  0  0  0  0  0  0  0  0
   45.3279   28.1203   41.9307 H   0  0  0  0  0  0  0  0  0  0  0  0
   46.3102   29.8129   41.0468 C   0  0  1  0  0  0  0  0  0  0  0  0
   45.9552   31.6117   40.9070 S   0  0  0  0  0  0  0  0  0  0  0  0
   49.1713   33.3128   41.6554 H   0  0  0  0  0  0  0  0  0  0  0  0
   48.0259   32.6473   42.8297 H   0  0  0  0  0  0  0  0  0  0  0  0
   47.1629   33.5458   39.1458 H   0  0  0  0  0  0  0  0  0  0  0  0
   48.9162   32.9269   39.1294 H   0  0  0  0  0  0  0  0  0  0  0  0
   49.3960   31.0012   41.2614 H   0  0  0  0  0  0  0  0  0  0  0  0
   48.4436   30.3167   39.8355 H   0  0  0  0  0  0  0  0  0  0  0  0
   45.0053   29.7387   42.8247 H   0  0  0  0  0  0  0  0  0  0  0  0
   46.3243   29.2958   40.0869 H   0  0  0  0  0  0  0  0  0  0  0  0
  1  6  2  0
  2  1  1  0
  3  2  2  0
  3  4  1  0
  4  5  2  0
  5  6  1  0
  7  3  1  0
  1  8  1  0
  2  9  1  0
  5 10  1  0
 12 11  1  1
 12 13  1  0
 13 14  1  0
 12 15  1  0
 15 16  1  0
 16 17  1  0
 17 18  2  0
 17 19  1  0
 19 20  1  6
 19 21  1  0
 21 22  1  0
 22 12  1  0
 21 16  1  0
 11 23  1  0
 11 24  1  0
 13 25  1  0
 13 26  1  0
 15 27  1  0
 15 28  1  0
 19 29  1  0
 21 30  1  6
  7 11  1  0
M  ISO  5   8  14   9  14  10  14  14   8  20  15
M  END
>  <DihAtoms>  (1) 
2,6,10,11

>  <DihDeg>  (1) 
179.99985870743572

$$$$
