
 OpenBabel03242511163D

 22 24  0  0  1  0  0  0  0  0999 V2000
   48.4300   33.9800   41.8070 C   0  0  0  0  0  2  0  0  0  0  0  0
   48.5060   32.9130   40.7450 C   0  0  1  0  0  0  0  0  0  0  0  0
   49.8100   32.1680   40.7650 C   0  0  0  0  0  2  0  0  0  0  0  0
   49.6680   31.0700   41.7060 N   0  0  0  0  0  0  0  0  0  0  0  0
   49.7530   30.1330   42.7770 C   0  0  0  0  0  0  0  0  0  0  0  0
   50.5740   29.9770   43.7240 O   0  0  0  0  0  0  0  0  0  0  0  0
   48.5270   29.3910   42.3900 C   0  0  0  0  0  3  0  0  0  0  0  0
   48.7110   28.3100   42.1250 H   0  0  0  0  0  0  0  0  0  0  0  0
   48.5900   30.2270   41.1650 C   0  0  1  0  0  3  0  0  0  0  0  0
   47.3300   31.5630   41.0550 S   0  0  0  0  0  0  0  0  0  0  0  0
   48.2610   33.4400   39.3700 C   0  0  0  0  0  2  0  0  0  0  0  0
   48.3760   32.5500   38.6830 H   0  0  0  0  0  0  0  0  0  0  0  0
   46.8300   34.8030   41.6450 S   0  0  0  0  0  0  0  0  0  0  0  0
   44.5060   35.9000   44.7990 C   0  0  0  0  0  0  0  0  0  0  0  0
   45.1200   35.9030   43.5270 C   0  0  0  0  0  0  0  0  0  0  0  0
   46.0200   34.8500   43.2440 C   0  0  0  0  0  0  0  0  0  0  0  0
   46.2370   33.9120   44.1990 N   0  0  0  0  0  0  0  0  0  0  0  0
   45.6310   33.9470   45.3960 C   0  0  0  0  0  0  0  0  0  0  0  0
   44.7650   34.9380   45.7020 N   0  0  0  0  0  0  0  0  0  0  0  0
   43.8380   36.7330   44.9320 H   0  0  0  0  0  0  0  0  0  0  0  0
   44.9250   36.6700   42.7870 H   0  0  0  0  0  0  0  0  0  0  0  0
   45.7980   33.2030   46.1630 H   0  0  0  0  0  0  0  0  0  0  0  0
  2 11  1  6  0  0  0
  2  3  1  0  0  0  0
  2 10  1  0  0  0  0
  2  1  1  0  0  0  0
  3  4  1  0  0  0  0
  4  5  1  0  0  0  0
  5  6  2  0  0  0  0
  7  5  1  0  0  0  0
  8  7  1  0  0  0  0
  9 10  1  1  0  0  0
  9  4  1  0  0  0  0
  9  7  1  0  0  0  0
 12 11  1  0  0  0  0
 13  1  1  0  0  0  0
 13 16  1  0  0  0  0
 14 20  1  0  0  0  0
 14 19  1  0  0  0  0
 15 14  2  0  0  0  0
 16 15  1  0  0  0  0
 16 17  2  0  0  0  0
 17 18  1  0  0  0  0
 18 19  2  0  0  0  0
 18 22  1  0  0  0  0
 21 15  1  0  0  0  0
M  END
>  <minimizedAffinity>
-3.71587467

>  <minimizedRMSD>
1.79315424

$$$$
