REMARK  Name = 
REMARK  4 active torsions:
REMARK  status: ('A' for Active; 'I' for Inactive)
REMARK    1  A    between atoms: C_3  and  S_7
REMARK    2  A    between atoms: S_7  and  C_11
REMARK    3  A    between atoms: C_11  and  C_12
REMARK    4  A    between atoms: C_12  and  C_13
REMARK                            x       y       z     vdW  Elec       q    Type
REMARK                         _______ _______ _______ _____ _____    ______ ____
ROOT
ATOM      1  C   UNL     1      48.096  33.086  41.837  0.00  0.00    +0.000 C 
ENDROOT
BRANCH   1   2
ATOM      2  C   UNL     1      47.456  32.006  41.002  0.00  0.00    +0.000 C 
ATOM      3  C   UNL     1      48.161  30.686  41.124  0.00  0.00    +0.000 C 
ATOM      4  N   UNL     1      47.590  29.992  42.266  0.00  0.00    +0.000 N 
ATOM      5  C   UNL     1      47.312  29.327  43.498  0.00  0.00    +0.000 C 
ATOM      6  O   UNL     1      48.045  28.893  44.429  0.00  0.00    +0.000 OA
ATOM      7  C   UNL     1      45.840  29.322  43.303  0.00  0.00    +0.000 C 
ATOM      8  H   UNL     1      45.391  28.289  43.250  0.00  0.00    +0.000 HD
ATOM      9  C   UNL     1      46.169  29.800  41.937  0.00  0.00    +0.000 C 
ATOM     10  S   UNL     1      45.800  31.571  41.609  0.00  0.00    +0.000 S 
BRANCH   2  11
ATOM     11  C   UNL     1      47.343  32.372  39.559  0.00  0.00    +0.000 C 
ATOM     12  H   UNL     1      46.880  31.472  39.057  0.00  0.00    +0.000 HD
ENDBRANCH   2  11
ENDBRANCH   1   2
BRANCH   1  13
ATOM     13  S   UNL     1      47.072  34.567  41.696  0.00  0.00    +0.000 S 
BRANCH  13  16
ATOM     14  C   UNL     1      44.542  36.028  44.528  0.00  0.00    +0.000 A 
ATOM     15  C   UNL     1      45.260  35.894  43.319  0.00  0.00    +0.000 A 
ATOM     16  C   UNL     1      46.134  34.788  43.209  0.00  0.00    +0.000 A 
ATOM     17  N   UNL     1      46.230  33.934  44.257  0.00  0.00    +0.000 NA
ATOM     18  C   UNL     1      45.529  34.099  45.390  0.00  0.00    +0.000 A 
ATOM     19  N   UNL     1      44.683  35.144  45.531  0.00  0.00    +0.000 NA
ATOM     20  H   UNL     1      43.902  36.893  44.529  0.00  0.00    +0.000 HD
ATOM     21  H   UNL     1      45.160  36.596  42.500  0.00  0.00    +0.000 HD
ATOM     22  H   UNL     1      45.599  33.423  46.230  0.00  0.00    +0.000 HD
ENDBRANCH  13  16
ENDBRANCH   1  13
TORSDOF 4
