
     RDKit          3D

 44 47  0  0  0  0  0  0  0  0999 V2000
   44.4875   35.7567   45.0066 C   0  0  0  0  0  0  0  0  0  0  0  0
   45.1250   35.7102   43.7392 C   0  0  0  0  0  0  0  0  0  0  0  0
   46.0162   34.7038   43.4775 C   0  0  0  0  0  0  0  0  0  0  0  0
   46.2198   33.8136   44.4762 N   0  0  0  0  0  0  0  0  0  0  0  0
   45.6291   33.8505   45.6607 C   0  0  0  0  0  0  0  0  0  0  0  0
   44.7519   34.8215   45.9501 N   0  0  0  0  0  0  0  0  0  0  0  0
   45.9510   32.8409   46.5999 N   0  0  0  0  0  0  0  0  0  0  0  0
   45.1589   32.5586   47.8074 C   0  0  0  0  0  0  0  0  0  0  0  0
   46.2389   32.2236   48.8083 C   0  0  0  0  0  0  0  0  0  0  0  0
   47.5197   32.0759   48.0436 C   0  0  0  0  0  0  0  0  0  0  0  0
   47.0497   31.9034   46.6144 C   0  0  1  0  0  0  0  0  0  0  0  0
   44.7532   36.7622   42.8347 N   0  0  0  0  0  0  0  0  0  0  0  0
   46.4811   30.2031   46.3924 S   0  0  0  0  0  0  0  0  0  0  0  0
   43.7710   36.5164   45.2982 H   0  0  0  0  0  0  0  0  0  0  0  0
   46.4761   34.6965   42.5204 H   0  0  0  0  0  0  0  0  0  0  0  0
   44.4680   31.7172   47.5971 H   0  0  0  0  0  0  0  0  0  0  0  0
   44.6174   33.4701   48.1022 H   0  0  0  0  0  0  0  0  0  0  0  0
   46.3023   33.0294   49.5711 H   0  0  0  0  0  0  0  0  0  0  0  0
   45.9501   31.2416   49.2654 H   0  0  0  0  0  0  0  0  0  0  0  0
   48.0390   31.1429   48.3292 H   0  0  0  0  0  0  0  0  0  0  0  0
   48.1842   32.9649   48.1337 H   0  0  0  0  0  0  0  0  0  0  0  0
   47.8358   32.1847   45.8840 H   0  0  0  0  0  0  0  0  0  0  0  0
   43.7411   37.0625   42.7912 H   0  0  0  0  0  0  0  0  0  0  0  0
   45.5497   37.1617   42.2687 H   0  0  0  0  0  0  0  0  0  0  0  0
   45.8030   30.0584   44.7167 C   0  0  0  0  0  0  0  0  0  0  0  0
   46.2742   28.8019   44.0286 C   0  0  2  0  0  0  0  0  0  0  0  0
   45.8771   27.5576   44.7530 C   0  0  0  0  0  0  0  0  0  0  0  0
   45.7190   26.6737   44.1236 H   0  0  0  0  0  0  0  0  0  0  0  0
   47.7592   28.9073   43.7804 C   0  0  0  0  0  0  0  0  0  0  0  0
   48.0348   28.2110   42.5431 N   0  0  0  0  0  0  0  0  0  0  0  0
   48.4911   27.3343   41.5183 C   0  0  0  0  0  0  0  0  0  0  0  0
   49.3594   26.4382   41.4154 O   0  0  0  0  0  0  0  0  0  0  0  0
   47.5357   27.8487   40.5053 C   0  0  2  0  0  0  0  0  0  0  0  0
   46.7014   27.1879   40.2382 H   0  0  0  0  0  0  0  0  0  0  0  0
   47.2793   28.9240   41.5013 C   0  0  1  0  0  0  0  0  0  0  0  0
   45.6336   28.8604   42.3191 S   0  0  0  0  0  0  0  0  0  0  0  0
   44.6895   30.0565   44.7186 H   0  0  0  0  0  0  0  0  0  0  0  0
   46.1389   30.9450   44.1347 H   0  0  0  0  0  0  0  0  0  0  0  0
   46.5847   27.3666   45.5850 H   0  0  0  0  0  0  0  0  0  0  0  0
   44.8871   27.7793   45.2450 H   0  0  0  0  0  0  0  0  0  0  0  0
   48.0970   29.9537   43.7119 H   0  0  0  0  0  0  0  0  0  0  0  0
   48.2711   28.3909   44.5947 H   0  0  0  0  0  0  0  0  0  0  0  0
   48.0583   28.2686   39.5980 H   0  0  0  0  0  0  0  0  0  0  0  0
   47.6222   29.9335   41.2758 H   0  0  0  0  0  0  0  0  0  0  0  0
  1  6  2  0
  2  1  1  0
  3  2  2  0
  3  4  1  0
  4  5  2  0
  5  6  1  0
  5  7  1  0
  7 11  1  0
  7  8  1  0
  8  9  1  0
 10  9  1  0
 11 10  1  0
 12  2  1  0
 13 11  1  0
  1 14  1  0
  3 15  1  0
  8 16  1  0
  8 17  1  0
  9 18  1  0
  9 19  1  0
 10 20  1  0
 10 21  1  0
 11 22  1  6
 12 23  1  0
 12 24  1  0
 26 25  1  1
 26 27  1  0
 27 28  1  0
 26 29  1  0
 29 30  1  0
 30 31  1  0
 31 32  2  0
 31 33  1  0
 33 34  1  6
 33 35  1  0
 35 36  1  0
 36 26  1  0
 35 30  1  0
 25 37  1  0
 25 38  1  0
 27 39  1  0
 27 40  1  0
 29 41  1  0
 29 42  1  0
 33 43  1  0
 35 44  1  6
 13 25  1  0
M  ISO  8  14  14  15  14  16  13  17  13  18  13  19  13  20  13  21  13
M  ISO  3  22  13  28   8  34  15
M  END
>  <DihAtoms>  (1) 
10,12,24,25

>  <DihDeg>  (1) 
-179.7067622155192

$$$$
