REMARK  Name = 
REMARK  5 active torsions:
REMARK  status: ('A' for Active; 'I' for Inactive)
REMARK    1  A    between atoms: C_2  and  N_12
REMARK    2  A    between atoms: C_11  and  S_13
REMARK    3  A    between atoms: S_13  and  C_25
REMARK    4  A    between atoms: C_25  and  C_26
REMARK    5  A    between atoms: C_26  and  C_27
REMARK                            x       y       z     vdW  Elec       q    Type
REMARK                         _______ _______ _______ _____ _____    ______ ____
ROOT
ATOM      1  C   UNL     1      44.487  35.757  45.007  0.00  0.00    +0.000 A 
ATOM      2  C   UNL     1      45.125  35.710  43.739  0.00  0.00    +0.000 A 
ATOM      3  C   UNL     1      46.016  34.704  43.477  0.00  0.00    +0.000 A 
ATOM      4  N   UNL     1      46.220  33.814  44.476  0.00  0.00    +0.000 NA
ATOM      5  C   UNL     1      45.629  33.850  45.661  0.00  0.00    +0.000 A 
ATOM      6  N   UNL     1      44.752  34.822  45.950  0.00  0.00    +0.000 NA
ATOM      7  N   UNL     1      45.951  32.841  46.600  0.00  0.00    +0.000 N 
ATOM      8  C   UNL     1      45.159  32.559  47.807  0.00  0.00    +0.000 C 
ATOM      9  C   UNL     1      46.239  32.224  48.808  0.00  0.00    +0.000 C 
ATOM     10  C   UNL     1      47.520  32.076  48.044  0.00  0.00    +0.000 C 
ATOM     11  C   UNL     1      47.050  31.903  46.614  0.00  0.00    +0.000 C 
ATOM     12  H   UNL     1      43.771  36.516  45.298  0.00  0.00    +0.000 HD
ATOM     13  H   UNL     1      46.476  34.697  42.520  0.00  0.00    +0.000 HD
ATOM     14  H   UNL     1      44.468  31.717  47.597  0.00  0.00    +0.000 HD
ATOM     15  H   UNL     1      44.617  33.470  48.102  0.00  0.00    +0.000 HD
ATOM     16  H   UNL     1      46.302  33.029  49.571  0.00  0.00    +0.000 HD
ATOM     17  H   UNL     1      45.950  31.242  49.265  0.00  0.00    +0.000 HD
ATOM     18  H   UNL     1      48.039  31.143  48.329  0.00  0.00    +0.000 HD
ATOM     19  H   UNL     1      48.184  32.965  48.134  0.00  0.00    +0.000 HD
ATOM     20  H   UNL     1      47.836  32.185  45.884  0.00  0.00    +0.000 HD
ENDROOT
BRANCH   2  21
ATOM     21  N   UNL     1      44.753  36.762  42.835  0.00  0.00    +0.000 N 
ATOM     22  H   UNL     1      43.741  37.062  42.791  0.00  0.00    +0.000 HD
ATOM     23  H   UNL     1      45.550  37.162  42.269  0.00  0.00    +0.000 HD
ENDBRANCH   2  21
BRANCH  11  24
ATOM     24  S   UNL     1      46.481  30.203  46.392  0.00  0.00    +0.000 S 
BRANCH  24  25
ATOM     25  C   UNL     1      45.803  30.058  44.717  0.00  0.00    +0.000 C 
BRANCH  25  26
ATOM     26  C   UNL     1      45.965  28.664  44.166  0.00  0.00    +0.000 C 
ATOM     27  C   UNL     1      47.434  28.387  43.957  0.00  0.00    +0.000 C 
ATOM     28  N   UNL     1      47.545  27.526  42.800  0.00  0.00    +0.000 N 
ATOM     29  C   UNL     1      47.786  26.469  41.878  0.00  0.00    +0.000 C 
ATOM     30  O   UNL     1      48.415  25.386  41.889  0.00  0.00    +0.000 OA
ATOM     31  C   UNL     1      46.992  27.093  40.791  0.00  0.00    +0.000 C 
ATOM     32  H   UNL     1      46.025  26.627  40.560  0.00  0.00    +0.000 HD
ATOM     33  C   UNL     1      46.992  28.292  41.672  0.00  0.00    +0.000 C 
ATOM     34  S   UNL     1      45.372  28.703  42.438  0.00  0.00    +0.000 S 
BRANCH  26  35
ATOM     35  C   UNL     1      45.274  27.628  44.991  0.00  0.00    +0.000 C 
ATOM     36  H   UNL     1      44.914  26.749  44.443  0.00  0.00    +0.000 HD
ENDBRANCH  26  35
ENDBRANCH  25  26
ENDBRANCH  24  25
ENDBRANCH  11  24
TORSDOF 5
