
 OpenBabel03252506343D

 36 39  0  0  1  0  0  0  0  0999 V2000
   44.4420   35.7230   44.9650 C   0  0  0  0  0  0  0  0  0  0  0  0
   45.1330   35.7110   43.7250 C   0  0  0  0  0  0  0  0  0  0  0  0
   46.0850   34.7530   43.5000 C   0  0  0  0  0  0  0  0  0  0  0  0
   46.2940   33.8740   44.5080 N   0  0  0  0  0  0  0  0  0  0  0  0
   45.6540   33.8780   45.6680 C   0  0  0  0  0  0  0  0  0  0  0  0
   44.7170   34.8030   45.9200 N   0  0  0  0  0  0  0  0  0  0  0  0
   45.9900   32.8860   46.6210 N   0  0  0  0  0  0  0  0  0  0  0  0
   45.1650   32.5620   47.7950 C   0  0  0  0  0  0  0  0  0  0  0  0
   46.2190   32.2830   48.8390 C   0  0  0  0  0  0  0  0  0  0  0  0
   47.5360   32.2030   48.1280 C   0  0  0  0  0  0  0  0  0  0  0  0
   47.1350   32.0070   46.6810 C   0  0  1  0  0  0  0  0  0  0  0  0
   43.6760   36.4440   45.2260 H   0  0  0  0  0  0  0  0  0  0  0  0
   46.5830   34.7700   42.5630 H   0  0  0  0  0  0  0  0  0  0  0  0
   44.5280   31.6860   47.5580 H   0  0  0  0  0  0  0  0  0  0  0  0
   44.5650   33.4440   48.0660 H   0  0  0  0  0  0  0  0  0  0  0  0
   46.2090   33.0900   49.6030 H   0  0  0  0  0  0  0  0  0  0  0  0
   45.9630   31.2870   49.2850 H   0  0  0  0  0  0  0  0  0  0  0  0
   48.0910   31.2980   48.4350 H   0  0  0  0  0  0  0  0  0  0  0  0
   48.1490   33.1250   48.2440 H   0  0  0  0  0  0  0  0  0  0  0  0
   47.9340   32.3300   45.9830 H   0  0  0  0  0  0  0  0  0  0  0  0
   44.7440   36.7420   42.8050 N   0  0  0  0  0  0  0  0  0  0  0  0
   43.7200   36.9890   42.7190 H   0  0  0  0  0  0  0  0  0  0  0  0
   45.5410   37.1840   42.2710 H   0  0  0  0  0  0  0  0  0  0  0  0
   46.6650   30.2800   46.4380 S   0  0  0  0  0  0  0  0  0  0  0  0
   48.0680   29.4240   45.6740 C   0  0  0  0  0  2  0  0  0  0  0  0
   48.7860   28.5360   46.6590 C   0  0  2  0  0  0  0  0  0  0  0  0
   49.7060   29.3840   47.5020 C   0  0  0  0  0  2  0  0  0  0  0  0
   50.8640   28.5760   47.8140 N   0  0  0  0  0  0  0  0  0  0  0  0
   51.9040   27.8240   48.4310 C   0  0  0  0  0  0  0  0  0  0  0  0
   52.3240   27.6490   49.5980 O   0  0  0  0  0  0  0  0  0  0  0  0
   52.3950   27.2520   47.1520 C   0  0  0  0  0  3  0  0  0  0  0  0
   52.1850   26.1900   46.9790 H   0  0  0  0  0  0  0  0  0  0  0  0
   51.4910   28.2520   46.5230 C   0  0  1  0  0  3  0  0  0  0  0  0
   49.9980   27.5550   45.7070 S   0  0  0  0  0  0  0  0  0  0  0  0
   47.8570   27.6850   47.4610 C   0  0  0  0  0  2  0  0  0  0  0  0
   48.2610   26.7190   47.7870 H   0  0  0  0  0  0  0  0  0  0  0  0
  1 12  1  0  0  0  0
  1  6  1  0  0  0  0
  2  1  2  0  0  0  0
  3  2  1  0  0  0  0
  3  4  2  0  0  0  0
  4  5  1  0  0  0  0
  5  6  2  0  0  0  0
  5  7  1  0  0  0  0
  7 11  1  0  0  0  0
  7  8  1  0  0  0  0
  8 15  1  0  0  0  0
  8  9  1  0  0  0  0
  9 17  1  0  0  0  0
  9 16  1  0  0  0  0
 10 19  1  0  0  0  0
 10 18  1  0  0  0  0
 10  9  1  0  0  0  0
 11 20  1  6  0  0  0
 11 10  1  0  0  0  0
 13  3  1  0  0  0  0
 14  8  1  0  0  0  0
 21  2  1  0  0  0  0
 22 21  1  0  0  0  0
 23 21  1  0  0  0  0
 24 11  1  0  0  0  0
 25 24  1  0  0  0  0
 26 25  1  6  0  0  0
 26 35  1  0  0  0  0
 26 27  1  0  0  0  0
 27 28  1  0  0  0  0
 28 29  1  0  0  0  0
 29 30  2  0  0  0  0
 31 29  1  0  0  0  0
 32 31  1  0  0  0  0
 33 34  1  6  0  0  0
 33 31  1  0  0  0  0
 33 28  1  0  0  0  0
 34 26  1  0  0  0  0
 35 36  1  0  0  0  0
M  END
>  <minimizedAffinity>
-5.06311226

>  <minimizedRMSD>
4.82340002

$$$$
