
 OpenBabel03252506333D

 36 39  0  0  1  0  0  0  0  0999 V2000
   44.4010   35.7800   45.0290 C   0  0  0  0  0  0  0  0  0  0  0  0
   45.0810   35.8190   43.7820 C   0  0  0  0  0  0  0  0  0  0  0  0
   46.0420   34.8800   43.5160 C   0  0  0  0  0  0  0  0  0  0  0  0
   46.2690   33.9680   44.4890 N   0  0  0  0  0  0  0  0  0  0  0  0
   45.6390   33.9230   45.6540 C   0  0  0  0  0  0  0  0  0  0  0  0
   44.6940   34.8280   45.9460 N   0  0  0  0  0  0  0  0  0  0  0  0
   45.9930   32.9010   46.5670 N   0  0  0  0  0  0  0  0  0  0  0  0
   45.1820   32.5260   47.7350 C   0  0  0  0  0  0  0  0  0  0  0  0
   46.2480   32.2210   48.7600 C   0  0  0  0  0  0  0  0  0  0  0  0
   47.5590   32.1800   48.0360 C   0  0  0  0  0  0  0  0  0  0  0  0
   47.1470   32.0330   46.5850 C   0  0  1  0  0  0  0  0  0  0  0  0
   43.6300   36.4820   45.3210 H   0  0  0  0  0  0  0  0  0  0  0  0
   46.5320   34.9370   42.5760 H   0  0  0  0  0  0  0  0  0  0  0  0
   44.5520   31.6520   47.4720 H   0  0  0  0  0  0  0  0  0  0  0  0
   44.5740   33.3910   48.0430 H   0  0  0  0  0  0  0  0  0  0  0  0
   46.2360   32.9990   49.5530 H   0  0  0  0  0  0  0  0  0  0  0  0
   46.0060   31.2070   49.1720 H   0  0  0  0  0  0  0  0  0  0  0  0
   48.1260   31.2710   48.3060 H   0  0  0  0  0  0  0  0  0  0  0  0
   48.1630   33.1040   48.1800 H   0  0  0  0  0  0  0  0  0  0  0  0
   47.9370   32.3890   45.8930 H   0  0  0  0  0  0  0  0  0  0  0  0
   44.6740   36.8800   42.9040 N   0  0  0  0  0  0  0  0  0  0  0  0
   43.6470   37.1180   42.8360 H   0  0  0  0  0  0  0  0  0  0  0  0
   45.4620   37.3490   42.3800 H   0  0  0  0  0  0  0  0  0  0  0  0
   46.6930   30.3100   46.2840 S   0  0  0  0  0  0  0  0  0  0  0  0
   45.7630   30.2450   44.7300 C   0  0  0  0  0  2  0  0  0  0  0  0
   46.6650   29.9990   43.5470 C   0  0  2  0  0  0  0  0  0  0  0  0
   47.7260   31.0710   43.5090 C   0  0  0  0  0  2  0  0  0  0  0  0
   48.0280   31.3230   42.1170 N   0  0  0  0  0  0  0  0  0  0  0  0
   48.6250   31.4700   40.8330 C   0  0  0  0  0  0  0  0  0  0  0  0
   49.7870   31.4410   40.3680 O   0  0  0  0  0  0  0  0  0  0  0  0
   47.3320   31.6880   40.1390 C   0  0  0  0  0  3  0  0  0  0  0  0
   46.9700   30.8670   39.5090 H   0  0  0  0  0  0  0  0  0  0  0  0
   46.7770   31.8060   41.5130 C   0  0  1  0  0  3  0  0  0  0  0  0
   45.7030   30.4130   42.0500 S   0  0  0  0  0  0  0  0  0  0  0  0
   47.2170   28.6110   43.5150 C   0  0  0  0  0  2  0  0  0  0  0  0
   47.4270   28.2080   42.5160 H   0  0  0  0  0  0  0  0  0  0  0  0
  1 12  1  0  0  0  0
  1  6  1  0  0  0  0
  2  1  2  0  0  0  0
  3  2  1  0  0  0  0
  3  4  2  0  0  0  0
  4  5  1  0  0  0  0
  5  6  2  0  0  0  0
  5  7  1  0  0  0  0
  7 11  1  0  0  0  0
  7  8  1  0  0  0  0
  8 15  1  0  0  0  0
  8  9  1  0  0  0  0
  9 17  1  0  0  0  0
  9 16  1  0  0  0  0
 10 19  1  0  0  0  0
 10 18  1  0  0  0  0
 10  9  1  0  0  0  0
 11 20  1  6  0  0  0
 11 10  1  0  0  0  0
 13  3  1  0  0  0  0
 14  8  1  0  0  0  0
 21  2  1  0  0  0  0
 22 21  1  0  0  0  0
 23 21  1  0  0  0  0
 24 11  1  0  0  0  0
 25 24  1  0  0  0  0
 26 35  1  6  0  0  0
 26 25  1  0  0  0  0
 27 26  1  0  0  0  0
 28 27  1  0  0  0  0
 29 28  1  0  0  0  0
 30 29  2  0  0  0  0
 31 29  1  0  0  0  0
 32 31  1  0  0  0  0
 33 31  1  6  0  0  0
 33 34  1  0  0  0  0
 33 28  1  0  0  0  0
 34 26  1  0  0  0  0
 36 35  1  0  0  0  0
M  END
>  <minimizedAffinity>
-5.11034393

>  <minimizedRMSD>
1.0003587

$$$$
