
 OpenBabel03252506343D

 36 39  0  0  1  0  0  0  0  0999 V2000
   44.3970   35.7620   45.0170 C   0  0  0  0  0  0  0  0  0  0  0  0
   45.0840   35.7960   43.7750 C   0  0  0  0  0  0  0  0  0  0  0  0
   46.0520   34.8610   43.5210 C   0  0  0  0  0  0  0  0  0  0  0  0
   46.2780   33.9570   44.5020 N   0  0  0  0  0  0  0  0  0  0  0  0
   45.6420   33.9170   45.6640 C   0  0  0  0  0  0  0  0  0  0  0  0
   44.6900   34.8190   45.9440 N   0  0  0  0  0  0  0  0  0  0  0  0
   45.9970   32.9050   46.5870 N   0  0  0  0  0  0  0  0  0  0  0  0
   45.1810   32.5340   47.7530 C   0  0  0  0  0  0  0  0  0  0  0  0
   46.2430   32.2430   48.7870 C   0  0  0  0  0  0  0  0  0  0  0  0
   47.5590   32.2040   48.0700 C   0  0  0  0  0  0  0  0  0  0  0  0
   47.1560   32.0430   46.6190 C   0  0  1  0  0  0  0  0  0  0  0  0
   43.6210   36.4620   45.3000 H   0  0  0  0  0  0  0  0  0  0  0  0
   46.5470   34.9140   42.5830 H   0  0  0  0  0  0  0  0  0  0  0  0
   44.5580   31.6540   47.4930 H   0  0  0  0  0  0  0  0  0  0  0  0
   44.5670   33.3970   48.0510 H   0  0  0  0  0  0  0  0  0  0  0  0
   46.2220   33.0270   49.5730 H   0  0  0  0  0  0  0  0  0  0  0  0
   46.0050   31.2300   49.2050 H   0  0  0  0  0  0  0  0  0  0  0  0
   48.1300   31.3000   48.3500 H   0  0  0  0  0  0  0  0  0  0  0  0
   48.1570   33.1330   48.2110 H   0  0  0  0  0  0  0  0  0  0  0  0
   47.9480   32.3990   45.9280 H   0  0  0  0  0  0  0  0  0  0  0  0
   44.6760   36.8470   42.8860 N   0  0  0  0  0  0  0  0  0  0  0  0
   43.6480   37.0790   42.8100 H   0  0  0  0  0  0  0  0  0  0  0  0
   45.4640   37.3170   42.3630 H   0  0  0  0  0  0  0  0  0  0  0  0
   46.7140   30.3160   46.3280 S   0  0  0  0  0  0  0  0  0  0  0  0
   45.9120   30.2130   44.7050 C   0  0  0  0  0  2  0  0  0  0  0  0
   46.9090   29.9600   43.6030 C   0  0  2  0  0  0  0  0  0  0  0  0
   48.0310   30.9610   43.7170 C   0  0  0  0  0  2  0  0  0  0  0  0
   48.4820   31.2530   42.3740 N   0  0  0  0  0  0  0  0  0  0  0  0
   49.2100   31.4140   41.1610 C   0  0  0  0  0  0  0  0  0  0  0  0
   50.4070   31.3300   40.8080 O   0  0  0  0  0  0  0  0  0  0  0  0
   48.0050   31.7440   40.3580 C   0  0  0  0  0  3  0  0  0  0  0  0
   47.6570   30.9750   39.6570 H   0  0  0  0  0  0  0  0  0  0  0  0
   47.3270   31.8400   41.6790 C   0  0  1  0  0  3  0  0  0  0  0  0
   46.1250   30.4970   42.0430 S   0  0  0  0  0  0  0  0  0  0  0  0
   47.3770   28.5420   43.5560 C   0  0  0  0  0  2  0  0  0  0  0  0
   47.6590   28.1690   42.5640 H   0  0  0  0  0  0  0  0  0  0  0  0
  1 12  1  0  0  0  0
  1  6  1  0  0  0  0
  2  1  2  0  0  0  0
  3  2  1  0  0  0  0
  3  4  2  0  0  0  0
  4  5  1  0  0  0  0
  5  6  2  0  0  0  0
  5  7  1  0  0  0  0
  7 11  1  0  0  0  0
  7  8  1  0  0  0  0
  8 15  1  0  0  0  0
  8  9  1  0  0  0  0
  9 17  1  0  0  0  0
  9 16  1  0  0  0  0
 10 19  1  0  0  0  0
 10 18  1  0  0  0  0
 10  9  1  0  0  0  0
 11 20  1  6  0  0  0
 11 10  1  0  0  0  0
 13  3  1  0  0  0  0
 14  8  1  0  0  0  0
 21  2  1  0  0  0  0
 22 21  1  0  0  0  0
 23 21  1  0  0  0  0
 24 11  1  0  0  0  0
 25 24  1  0  0  0  0
 26 35  1  6  0  0  0
 26 27  1  0  0  0  0
 26 25  1  0  0  0  0
 28 27  1  0  0  0  0
 29 28  1  0  0  0  0
 30 29  2  0  0  0  0
 31 29  1  0  0  0  0
 32 31  1  0  0  0  0
 33 31  1  6  0  0  0
 33 34  1  0  0  0  0
 33 28  1  0  0  0  0
 34 26  1  0  0  0  0
 36 35  1  0  0  0  0
M  END
>  <minimizedAffinity>
-5.1525054

>  <minimizedRMSD>
0.394532979

$$$$
