
     RDKit          3D

 44 47  0  0  0  0  0  0  0  0999 V2000
   44.4875   35.7567   45.0066 C   0  0  0  0  0  0  0  0  0  0  0  0
   45.1250   35.7102   43.7392 C   0  0  0  0  0  0  0  0  0  0  0  0
   46.0162   34.7038   43.4775 C   0  0  0  0  0  0  0  0  0  0  0  0
   46.2198   33.8136   44.4762 N   0  0  0  0  0  0  0  0  0  0  0  0
   45.6291   33.8505   45.6607 C   0  0  0  0  0  0  0  0  0  0  0  0
   44.7519   34.8215   45.9501 N   0  0  0  0  0  0  0  0  0  0  0  0
   45.9510   32.8409   46.5999 N   0  0  0  0  0  0  0  0  0  0  0  0
   45.1589   32.5586   47.8074 C   0  0  0  0  0  0  0  0  0  0  0  0
   46.2389   32.2236   48.8083 C   0  0  0  0  0  0  0  0  0  0  0  0
   47.5197   32.0759   48.0436 C   0  0  0  0  0  0  0  0  0  0  0  0
   47.0497   31.9034   46.6144 C   0  0  1  0  0  0  0  0  0  0  0  0
   44.7532   36.7622   42.8347 N   0  0  0  0  0  0  0  0  0  0  0  0
   46.4811   30.2031   46.3924 S   0  0  0  0  0  0  0  0  0  0  0  0
   43.7710   36.5164   45.2982 H   0  0  0  0  0  0  0  0  0  0  0  0
   46.4761   34.6965   42.5204 H   0  0  0  0  0  0  0  0  0  0  0  0
   44.4680   31.7172   47.5971 H   0  0  0  0  0  0  0  0  0  0  0  0
   44.6174   33.4701   48.1022 H   0  0  0  0  0  0  0  0  0  0  0  0
   46.3023   33.0294   49.5711 H   0  0  0  0  0  0  0  0  0  0  0  0
   45.9501   31.2416   49.2654 H   0  0  0  0  0  0  0  0  0  0  0  0
   48.0390   31.1429   48.3292 H   0  0  0  0  0  0  0  0  0  0  0  0
   48.1842   32.9649   48.1337 H   0  0  0  0  0  0  0  0  0  0  0  0
   47.8358   32.1847   45.8840 H   0  0  0  0  0  0  0  0  0  0  0  0
   43.7411   37.0625   42.7912 H   0  0  0  0  0  0  0  0  0  0  0  0
   45.5497   37.1617   42.2687 H   0  0  0  0  0  0  0  0  0  0  0  0
   45.8030   30.0584   44.7167 C   0  0  0  0  0  0  0  0  0  0  0  0
   45.5574   31.4096   44.0935 C   0  0  2  0  0  0  0  0  0  0  0  0
   46.7992   32.2310   43.9763 C   0  0  0  0  0  0  0  0  0  0  0  0
   46.8231   32.9352   43.1361 H   0  0  0  0  0  0  0  0  0  0  0  0
   44.4460   32.1005   44.8454 C   0  0  0  0  0  0  0  0  0  0  0  0
   43.7150   32.8991   43.8864 N   0  0  0  0  0  0  0  0  0  0  0  0
   43.0936   33.9347   43.1325 C   0  0  0  0  0  0  0  0  0  0  0  0
   42.8618   35.1547   43.2921 O   0  0  0  0  0  0  0  0  0  0  0  0
   42.7691   33.0507   41.9850 C   0  0  2  0  0  0  0  0  0  0  0  0
   43.3596   33.1965   41.0717 H   0  0  0  0  0  0  0  0  0  0  0  0
   43.1692   31.9504   42.9032 C   0  0  1  0  0  0  0  0  0  0  0  0
   44.7508   31.1124   42.4818 S   0  0  0  0  0  0  0  0  0  0  0  0
   46.4789   29.4835   44.0440 H   0  0  0  0  0  0  0  0  0  0  0  0
   44.8411   29.5038   44.7843 H   0  0  0  0  0  0  0  0  0  0  0  0
   47.0182   32.7194   44.9473 H   0  0  0  0  0  0  0  0  0  0  0  0
   47.6450   31.5048   43.8073 H   0  0  0  0  0  0  0  0  0  0  0  0
   43.7694   31.3850   45.3395 H   0  0  0  0  0  0  0  0  0  0  0  0
   44.9036   32.7664   45.5796 H   0  0  0  0  0  0  0  0  0  0  0  0
   41.6611   33.0075   41.7775 H   0  0  0  0  0  0  0  0  0  0  0  0
   42.3972   31.2768   43.2743 H   0  0  0  0  0  0  0  0  0  0  0  0
  1  6  2  0
  2  1  1  0
  3  2  2  0
  3  4  1  0
  4  5  2  0
  5  6  1  0
  5  7  1  0
  7 11  1  0
  7  8  1  0
  8  9  1  0
 10  9  1  0
 11 10  1  0
 12  2  1  0
 13 11  1  0
  1 14  1  0
  3 15  1  0
  8 16  1  0
  8 17  1  0
  9 18  1  0
  9 19  1  0
 10 20  1  0
 10 21  1  0
 11 22  1  6
 12 23  1  0
 12 24  1  0
 26 25  1  1
 26 27  1  0
 27 28  1  0
 26 29  1  0
 29 30  1  0
 30 31  1  0
 31 32  2  0
 31 33  1  0
 33 34  1  6
 33 35  1  0
 35 36  1  0
 36 26  1  0
 35 30  1  0
 25 37  1  0
 25 38  1  0
 27 39  1  0
 27 40  1  0
 29 41  1  0
 29 42  1  0
 33 43  1  0
 35 44  1  1
 13 25  1  0
M  ISO  8  14  14  15  14  16  13  17  13  18  13  19  13  20  13  21  13
M  ISO  3  22  13  28   8  34  15
M  END
>  <DihAtoms>  (1) 
10,12,24,25

>  <DihDeg>  (1) 
-179.7067622155192

$$$$
