
 OpenBabel03252508073D

 47 51  0  0  1  0  0  0  0  0999 V2000
   45.2270   35.5630   43.1060 C   0  0  0  0  0  0  0  0  0  0  0  0
   45.5810   34.2260   43.1940 C   0  0  0  0  0  0  0  0  0  0  0  0
   45.4460   33.5580   44.3860 C   0  0  0  0  0  0  0  0  0  0  0  0
   44.9490   34.2780   45.4550 N   0  0  0  0  0  0  0  0  0  0  0  0
   44.6100   35.5640   45.3630 C   0  0  0  0  0  0  0  0  0  0  0  0
   44.7560   36.1940   44.1790 N   0  0  0  0  0  0  0  0  0  0  0  0
   45.3210   36.1230   42.1870 H   0  0  0  0  0  0  0  0  0  0  0  0
   44.2250   36.1290   46.1880 H   0  0  0  0  0  0  0  0  0  0  0  0
   45.7580   32.2030   44.6400 C   0  0  0  0  0  0  0  0  0  0  0  0
   45.3980   31.1450   43.8000 C   0  0  0  0  0  0  0  0  0  0  0  0
   45.6410   29.8250   44.0780 C   0  0  0  0  0  0  0  0  0  0  0  0
   46.2760   29.4800   45.2460 C   0  0  0  0  0  0  0  0  0  0  0  0
   46.6540   30.5440   46.1200 C   0  0  0  0  0  0  0  0  0  0  0  0
   47.2860   30.2070   47.2870 C   0  0  0  0  0  0  0  0  0  0  0  0
   47.6790   31.1880   48.1730 C   0  0  0  0  0  0  0  0  0  0  0  0
   47.4280   32.5350   47.8680 C   0  0  0  0  0  0  0  0  0  0  0  0
   46.7750   32.8270   46.6570 C   0  0  0  0  0  0  0  0  0  0  0  0
   46.3920   31.8330   45.7980 C   0  0  0  0  0  0  0  0  0  0  0  0
   44.8970   31.3960   42.8760 H   0  0  0  0  0  0  0  0  0  0  0  0
   45.3430   29.0450   43.3940 H   0  0  0  0  0  0  0  0  0  0  0  0
   46.4890   28.4730   45.5130 H   0  0  0  0  0  0  0  0  0  0  0  0
   47.4810   29.1730   47.5230 H   0  0  0  0  0  0  0  0  0  0  0  0
   48.1770   30.8640   49.0870 H   0  0  0  0  0  0  0  0  0  0  0  0
   47.7730   33.2060   48.6150 H   0  0  0  0  0  0  0  0  0  0  0  0
   46.6970   33.8910   46.5970 H   0  0  0  0  0  0  0  0  0  0  0  0
   46.0560   33.6280   42.0600 O   0  0  0  0  0  0  0  0  0  0  0  0
   48.2290   32.1890   41.8150 O   0  0  0  0  0  0  0  0  0  0  0  0
   47.6890   33.5600   41.6180 P   0  0  1  0  0  0  0  0  0  0  0  0
   47.8800   33.9440   39.9810 O   0  0  0  0  0  0  0  0  0  0  0  0
   47.6720   32.8670   39.1430 C   0  0  0  0  0  0  0  0  0  0  0  0
   48.1350   33.3170   37.7580 C   0  0  2  0  0  0  0  0  0  0  0  0
   47.1470   32.9440   36.6920 C   0  0  0  0  0  0  0  0  0  0  0  0
   47.8710   32.5380   35.5110 N   0  0  0  0  0  0  0  0  0  0  0  0
   48.3980   32.4130   34.1930 C   0  0  0  0  0  0  0  0  0  0  0  0
   48.1050   32.8700   33.0390 O   0  0  0  0  0  0  0  0  0  0  0  0
   49.4990   31.5000   34.6170 C   0  0  0  0  0  0  0  0  0  0  0  0
   49.5920   30.5570   34.0710 H   0  0  0  0  0  0  0  0  0  0  0  0
   48.7190   31.4000   35.8990 C   0  0  1  0  0  0  0  0  0  0  0  0
   49.5220   32.1850   37.3470 S   0  0  0  0  0  0  0  0  0  0  0  0
   48.5580   34.7460   37.7530 C   0  0  0  0  0  0  0  0  0  0  0  0
   47.9320   35.3000   38.4930 H   0  0  0  0  0  0  0  0  0  0  0  0
   48.5300   34.6860   42.5370 O   0  0  0  0  0  0  0  0  0  0  0  0
   49.7040   35.3330   42.1860 C   0  0  0  0  0  0  0  0  0  0  0  0
   49.3320   36.3830   41.6330 O   0  0  0  0  0  0  0  0  0  0  0  0
   50.8540   34.5610   42.5860 N   0  0  0  0  0  0  0  0  0  0  0  0
   51.0680   34.4830   43.6210 H   0  0  0  0  0  0  0  0  0  0  0  0
   51.5460   34.0400   41.9960 H   0  0  0  0  0  0  0  0  0  0  0  0
  1  2  2  0  0  0  0
  1  6  1  0  0  0  0
  2  3  1  0  0  0  0
  3  9  1  0  0  0  0
  3  4  2  0  0  0  0
  5  4  1  0  0  0  0
  5  8  1  0  0  0  0
  6  5  2  0  0  0  0
  7  1  1  0  0  0  0
  9 18  1  0  0  0  0
 10 11  1  0  0  0  0
 10  9  2  0  0  0  0
 11 12  2  0  0  0  0
 12 21  1  0  0  0  0
 12 13  1  0  0  0  0
 13 14  1  0  0  0  0
 14 22  1  0  0  0  0
 14 15  2  0  0  0  0
 15 23  1  0  0  0  0
 16 15  1  0  0  0  0
 16 24  1  0  0  0  0
 17 16  2  0  0  0  0
 18 13  2  0  0  0  0
 18 17  1  0  0  0  0
 19 10  1  0  0  0  0
 20 11  1  0  0  0  0
 25 17  1  0  0  0  0
 26  2  1  0  0  0  0
 28 27  2  1  0  0  0
 28 26  1  0  0  0  0
 28 42  1  0  0  0  0
 29 28  1  0  0  0  0
 30 29  1  0  0  0  0
 31 40  1  6  0  0  0
 31 30  1  0  0  0  0
 32 31  1  0  0  0  0
 33 38  1  0  0  0  0
 33 32  1  0  0  0  0
 34 36  1  0  0  0  0
 34 33  1  0  0  0  0
 35 34  2  0  0  0  0
 37 36  1  0  0  0  0
 38 36  1  6  0  0  0
 38 39  1  0  0  0  0
 39 31  1  0  0  0  0
 40 41  1  0  0  0  0
 43 42  1  0  0  0  0
 43 45  1  0  0  0  0
 44 43  2  0  0  0  0
 45 46  1  0  0  0  0
 47 45  1  0  0  0  0
M  END
>  <minimizedAffinity>
-6.69611835

>  <minimizedRMSD>
1.12396145

$$$$
