
 OpenBabel03252508073D

 47 51  0  0  1  0  0  0  0  0999 V2000
   45.2270   35.5650   43.1070 C   0  0  0  0  0  0  0  0  0  0  0  0
   45.5810   34.2280   43.1940 C   0  0  0  0  0  0  0  0  0  0  0  0
   45.4450   33.5590   44.3850 C   0  0  0  0  0  0  0  0  0  0  0  0
   44.9480   34.2790   45.4550 N   0  0  0  0  0  0  0  0  0  0  0  0
   44.6100   35.5640   45.3640 C   0  0  0  0  0  0  0  0  0  0  0  0
   44.7550   36.1960   44.1800 N   0  0  0  0  0  0  0  0  0  0  0  0
   45.3210   36.1250   42.1880 H   0  0  0  0  0  0  0  0  0  0  0  0
   44.2240   36.1300   46.1900 H   0  0  0  0  0  0  0  0  0  0  0  0
   45.7570   32.2040   44.6390 C   0  0  0  0  0  0  0  0  0  0  0  0
   45.3970   31.1460   43.7980 C   0  0  0  0  0  0  0  0  0  0  0  0
   45.6410   29.8270   44.0750 C   0  0  0  0  0  0  0  0  0  0  0  0
   46.2750   29.4800   45.2430 C   0  0  0  0  0  0  0  0  0  0  0  0
   46.6540   30.5440   46.1180 C   0  0  0  0  0  0  0  0  0  0  0  0
   47.2860   30.2070   47.2840 C   0  0  0  0  0  0  0  0  0  0  0  0
   47.6790   31.1870   48.1710 C   0  0  0  0  0  0  0  0  0  0  0  0
   47.4280   32.5340   47.8670 C   0  0  0  0  0  0  0  0  0  0  0  0
   46.7740   32.8270   46.6560 C   0  0  0  0  0  0  0  0  0  0  0  0
   46.3920   31.8330   45.7960 C   0  0  0  0  0  0  0  0  0  0  0  0
   44.8970   31.3980   42.8740 H   0  0  0  0  0  0  0  0  0  0  0  0
   45.3430   29.0460   43.3910 H   0  0  0  0  0  0  0  0  0  0  0  0
   46.4880   28.4740   45.5100 H   0  0  0  0  0  0  0  0  0  0  0  0
   47.4810   29.1720   47.5200 H   0  0  0  0  0  0  0  0  0  0  0  0
   48.1770   30.8620   49.0850 H   0  0  0  0  0  0  0  0  0  0  0  0
   47.7720   33.2050   48.6140 H   0  0  0  0  0  0  0  0  0  0  0  0
   46.6970   33.8910   46.5960 H   0  0  0  0  0  0  0  0  0  0  0  0
   46.0550   33.6310   42.0600 O   0  0  0  0  0  0  0  0  0  0  0  0
   48.2270   32.1900   41.8160 O   0  0  0  0  0  0  0  0  0  0  0  0
   47.6880   33.5610   41.6180 P   0  0  1  0  0  0  0  0  0  0  0  0
   47.8800   33.9450   39.9810 O   0  0  0  0  0  0  0  0  0  0  0  0
   47.6730   32.8670   39.1440 C   0  0  0  0  0  2  0  0  0  0  0  0
   48.1350   33.3170   37.7590 C   0  0  2  0  0  0  0  0  0  0  0  0
   47.1470   32.9430   36.6920 C   0  0  0  0  0  2  0  0  0  0  0  0
   47.8690   32.5370   35.5110 N   0  0  0  0  0  0  0  0  0  0  0  0
   48.3960   32.4130   34.1940 C   0  0  0  0  0  0  0  0  0  0  0  0
   48.1020   32.8690   33.0400 O   0  0  0  0  0  0  0  0  0  0  0  0
   49.4970   31.4990   34.6160 C   0  0  0  0  0  3  0  0  0  0  0  0
   49.5900   30.5560   34.0720 H   0  0  0  0  0  0  0  0  0  0  0  0
   48.7180   31.4000   35.8990 C   0  0  1  0  0  3  0  0  0  0  0  0
   49.5230   32.1850   37.3460 S   0  0  0  0  0  0  0  0  0  0  0  0
   48.5580   34.7460   37.7530 C   0  0  0  0  0  2  0  0  0  0  0  0
   47.9320   35.3000   38.4930 H   0  0  0  0  0  0  0  0  0  0  0  0
   48.5300   34.6870   42.5370 O   0  0  0  0  0  0  0  0  0  0  0  0
   49.7040   35.3340   42.1870 C   0  0  0  0  0  0  0  0  0  0  0  0
   49.3320   36.3840   41.6330 O   0  0  0  0  0  0  0  0  0  0  0  0
   50.8540   34.5610   42.5870 N   0  0  0  0  0  0  0  0  0  0  0  0
   51.0670   34.4830   43.6210 H   0  0  0  0  0  0  0  0  0  0  0  0
   51.5450   34.0400   41.9970 H   0  0  0  0  0  0  0  0  0  0  0  0
  1  2  2  0  0  0  0
  1  6  1  0  0  0  0
  2  3  1  0  0  0  0
  3  9  1  0  0  0  0
  3  4  2  0  0  0  0
  5  4  1  0  0  0  0
  5  8  1  0  0  0  0
  6  5  2  0  0  0  0
  7  1  1  0  0  0  0
  9 18  1  0  0  0  0
 10 11  1  0  0  0  0
 10  9  2  0  0  0  0
 11 12  2  0  0  0  0
 12 21  1  0  0  0  0
 12 13  1  0  0  0  0
 13 14  1  0  0  0  0
 14 22  1  0  0  0  0
 14 15  2  0  0  0  0
 15 23  1  0  0  0  0
 16 15  1  0  0  0  0
 16 24  1  0  0  0  0
 17 16  2  0  0  0  0
 18 13  2  0  0  0  0
 18 17  1  0  0  0  0
 19 10  1  0  0  0  0
 20 11  1  0  0  0  0
 25 17  1  0  0  0  0
 26  2  1  0  0  0  0
 28 27  2  1  0  0  0
 28 26  1  0  0  0  0
 28 42  1  0  0  0  0
 29 28  1  0  0  0  0
 30 29  1  0  0  0  0
 31 40  1  6  0  0  0
 31 30  1  0  0  0  0
 32 31  1  0  0  0  0
 33 38  1  0  0  0  0
 33 32  1  0  0  0  0
 34 36  1  0  0  0  0
 34 33  1  0  0  0  0
 35 34  2  0  0  0  0
 37 36  1  0  0  0  0
 38 36  1  6  0  0  0
 38 39  1  0  0  0  0
 39 31  1  0  0  0  0
 40 41  1  0  0  0  0
 43 42  1  0  0  0  0
 43 45  1  0  0  0  0
 44 43  2  0  0  0  0
 45 46  1  0  0  0  0
 47 45  1  0  0  0  0
M  END
>  <minimizedAffinity>
-6.69403982

>  <minimizedRMSD>
1.63759851

$$$$
