REMARK  Name = 
REMARK  9 active torsions:
REMARK  status: ('A' for Active; 'I' for Inactive)
REMARK    1  A    between atoms: C_2  and  O_17
REMARK    2  A    between atoms: C_3  and  C_7
REMARK    3  A    between atoms: O_17  and  P_19
REMARK    4  A    between atoms: P_19  and  O_20
REMARK    5  A    between atoms: P_19  and  O_21
REMARK    6  A    between atoms: O_20  and  C_36
REMARK    7  A    between atoms: O_21  and  C_22
REMARK    8  A    between atoms: C_36  and  C_37
REMARK    9  A    between atoms: C_37  and  C_38
REMARK                            x       y       z     vdW  Elec       q    Type
REMARK                         _______ _______ _______ _____ _____    ______ ____
ROOT
ATOM      1  C   UNL     1      45.130  36.015  42.916  0.00  0.00    +0.000 A 
ATOM      2  C   UNL     1      45.372  34.650  42.908  0.00  0.00    +0.000 A 
ATOM      3  C   UNL     1      45.215  33.920  44.060  0.00  0.00    +0.000 A 
ATOM      4  N   UNL     1      44.812  34.608  45.188  0.00  0.00    +0.000 NA
ATOM      5  C   UNL     1      44.581  35.920  45.188  0.00  0.00    +0.000 A 
ATOM      6  N   UNL     1      44.745  36.612  44.041  0.00  0.00    +0.000 NA
ATOM      7  H   UNL     1      45.244  36.623  42.030  0.00  0.00    +0.000 HD
ATOM      8  H   UNL     1      44.269  36.461  46.060  0.00  0.00    +0.000 HD
ENDROOT
BRANCH   3   9
ATOM      9  C   UNL     1      45.419  32.530  44.219  0.00  0.00    +0.000 A 
ATOM     10  C   UNL     1      44.940  31.561  43.332  0.00  0.00    +0.000 A 
ATOM     11  C   UNL     1      45.079  30.211  43.519  0.00  0.00    +0.000 A 
ATOM     12  C   UNL     1      45.723  29.740  44.637  0.00  0.00    +0.000 A 
ATOM     13  C   UNL     1      46.222  30.711  45.558  0.00  0.00    +0.000 A 
ATOM     14  C   UNL     1      46.864  30.249  46.675  0.00  0.00    +0.000 A 
ATOM     15  C   UNL     1      47.371  31.135  47.602  0.00  0.00    +0.000 A 
ATOM     16  C   UNL     1      47.226  32.515  47.390  0.00  0.00    +0.000 A 
ATOM     17  C   UNL     1      46.557  32.937  46.226  0.00  0.00    +0.000 A 
ATOM     18  C   UNL     1      46.060  32.035  45.325  0.00  0.00    +0.000 A 
ATOM     19  H   UNL     1      44.430  31.912  42.446  0.00  0.00    +0.000 HD
ATOM     20  H   UNL     1      44.691  29.503  42.802  0.00  0.00    +0.000 HD
ATOM     21  H   UNL     1      45.858  28.704  44.834  0.00  0.00    +0.000 HD
ATOM     22  H   UNL     1      46.978  29.189  46.840  0.00  0.00    +0.000 HD
ATOM     23  H   UNL     1      47.872  30.713  48.474  0.00  0.00    +0.000 HD
ATOM     24  H   UNL     1      47.653  33.106  48.161  0.00  0.00    +0.000 HD
ATOM     25  H   UNL     1      46.569  34.006  46.234  0.00  0.00    +0.000 HD
ENDBRANCH   3   9
BRANCH   2  26
ATOM     26  O   UNL     1      45.761  34.090  41.724  0.00  0.00    +0.000 OA
BRANCH  26  28
ATOM     27  O   UNL     1      47.682  32.429  41.088  0.00  0.00    +0.000 OA
ATOM     28  P   UNL     1      47.370  33.874  41.242  0.00  0.00    +0.000 P 
BRANCH  28  29
ATOM     29  O   UNL     1      47.648  34.610  39.744  0.00  0.00    +0.000 OA
BRANCH  29  30
ATOM     30  C   UNL     1      47.258  33.829  38.675  0.00  0.00    +0.000 C 
BRANCH  30  31
ATOM     31  C   UNL     1      48.546  33.281  38.063  0.00  0.00    +0.000 C 
ATOM     32  C   UNL     1      48.270  32.211  37.047  0.00  0.00    +0.000 C 
ATOM     33  N   UNL     1      49.278  31.186  37.167  0.00  0.00    +0.000 N 
ATOM     34  C   UNL     1      50.337  30.262  36.935  0.00  0.00    +0.000 C 
ATOM     35  O   UNL     1      50.955  29.809  35.916  0.00  0.00    +0.000 OA
ATOM     36  C   UNL     1      50.518  29.958  38.385  0.00  0.00    +0.000 C 
ATOM     37  H   UNL     1      50.496  28.904  38.673  0.00  0.00    +0.000 HD
ATOM     38  C   UNL     1      49.203  30.671  38.543  0.00  0.00    +0.000 C 
ATOM     39  S   UNL     1      49.306  32.284  39.407  0.00  0.00    +0.000 S 
BRANCH  31  40
ATOM     40  C   UNL     1      49.447  34.374  37.599  0.00  0.00    +0.000 C 
ATOM     41  H   UNL     1      48.815  35.224  37.247  0.00  0.00    +0.000 HD
ENDBRANCH  31  40
ENDBRANCH  30  31
ENDBRANCH  29  30
ENDBRANCH  28  29
BRANCH  28  42
ATOM     42  O   UNL     1      48.363  34.594  42.389  0.00  0.00    +0.000 OA
BRANCH  42  43
ATOM     43  C   UNL     1      49.536  35.292  42.150  0.00  0.00    +0.000 C 
ATOM     44  O   UNL     1      49.205  36.211  41.379  0.00  0.00    +0.000 OA
ATOM     45  N   UNL     1      50.640  34.699  42.863  0.00  0.00    +0.000 N 
ATOM     46  H   UNL     1      50.660  34.792  43.918  0.00  0.00    +0.000 HD
ATOM     47  H   UNL     1      51.463  34.166  42.494  0.00  0.00    +0.000 HD
ENDBRANCH  42  43
ENDBRANCH  28  42
ENDBRANCH  26  28
ENDBRANCH   2  26
TORSDOF 9
