
 OpenBabel03252508073D

 47 51  0  0  1  0  0  0  0  0999 V2000
   45.2270   35.5660   43.1080 C   0  0  0  0  0  0  0  0  0  0  0  0
   45.5810   34.2280   43.1940 C   0  0  0  0  0  0  0  0  0  0  0  0
   45.4450   33.5600   44.3860 C   0  0  0  0  0  0  0  0  0  0  0  0
   44.9480   34.2790   45.4550 N   0  0  0  0  0  0  0  0  0  0  0  0
   44.6100   35.5650   45.3640 C   0  0  0  0  0  0  0  0  0  0  0  0
   44.7550   36.1960   44.1810 N   0  0  0  0  0  0  0  0  0  0  0  0
   45.3210   36.1260   42.1880 H   0  0  0  0  0  0  0  0  0  0  0  0
   44.2240   36.1300   46.1900 H   0  0  0  0  0  0  0  0  0  0  0  0
   45.7570   32.2040   44.6390 C   0  0  0  0  0  0  0  0  0  0  0  0
   45.3970   31.1470   43.7980 C   0  0  0  0  0  0  0  0  0  0  0  0
   45.6400   29.8270   44.0750 C   0  0  0  0  0  0  0  0  0  0  0  0
   46.2750   29.4810   45.2430 C   0  0  0  0  0  0  0  0  0  0  0  0
   46.6540   30.5440   46.1180 C   0  0  0  0  0  0  0  0  0  0  0  0
   47.2860   30.2070   47.2840 C   0  0  0  0  0  0  0  0  0  0  0  0
   47.6790   31.1870   48.1710 C   0  0  0  0  0  0  0  0  0  0  0  0
   47.4280   32.5340   47.8670 C   0  0  0  0  0  0  0  0  0  0  0  0
   46.7740   32.8270   46.6560 C   0  0  0  0  0  0  0  0  0  0  0  0
   46.3920   31.8330   45.7960 C   0  0  0  0  0  0  0  0  0  0  0  0
   44.8960   31.3990   42.8740 H   0  0  0  0  0  0  0  0  0  0  0  0
   45.3420   29.0470   43.3910 H   0  0  0  0  0  0  0  0  0  0  0  0
   46.4880   28.4740   45.5090 H   0  0  0  0  0  0  0  0  0  0  0  0
   47.4810   29.1720   47.5190 H   0  0  0  0  0  0  0  0  0  0  0  0
   48.1770   30.8620   49.0850 H   0  0  0  0  0  0  0  0  0  0  0  0
   47.7730   33.2040   48.6140 H   0  0  0  0  0  0  0  0  0  0  0  0
   46.6970   33.8910   46.5970 H   0  0  0  0  0  0  0  0  0  0  0  0
   46.0550   33.6320   42.0600 O   0  0  0  0  0  0  0  0  0  0  0  0
   48.2270   32.1910   41.8170 O   0  0  0  0  0  0  0  0  0  0  0  0
   47.6880   33.5620   41.6190 P   0  0  1  0  0  0  0  0  0  0  0  0
   47.8810   33.9440   39.9820 O   0  0  0  0  0  0  0  0  0  0  0  0
   47.6730   32.8660   39.1450 C   0  0  0  0  0  2  0  0  0  0  0  0
   48.1340   33.3160   37.7590 C   0  0  2  0  0  0  0  0  0  0  0  0
   47.1450   32.9420   36.6940 C   0  0  0  0  0  2  0  0  0  0  0  0
   47.8670   32.5370   35.5130 N   0  0  0  0  0  0  0  0  0  0  0  0
   48.3920   32.4120   34.1950 C   0  0  0  0  0  0  0  0  0  0  0  0
   48.0990   32.8680   33.0410 O   0  0  0  0  0  0  0  0  0  0  0  0
   49.4950   31.4980   34.6160 C   0  0  0  0  0  3  0  0  0  0  0  0
   49.5880   30.5560   34.0710 H   0  0  0  0  0  0  0  0  0  0  0  0
   48.7160   31.3990   35.8990 C   0  0  1  0  0  3  0  0  0  0  0  0
   49.5220   32.1840   37.3460 S   0  0  0  0  0  0  0  0  0  0  0  0
   48.5570   34.7450   37.7530 C   0  0  0  0  0  2  0  0  0  0  0  0
   47.9310   35.2990   38.4940 H   0  0  0  0  0  0  0  0  0  0  0  0
   48.5300   34.6870   42.5380 O   0  0  0  0  0  0  0  0  0  0  0  0
   49.7040   35.3340   42.1860 C   0  0  0  0  0  0  0  0  0  0  0  0
   49.3320   36.3840   41.6320 O   0  0  0  0  0  0  0  0  0  0  0  0
   50.8540   34.5620   42.5860 N   0  0  0  0  0  0  0  0  0  0  0  0
   51.0670   34.4840   43.6210 H   0  0  0  0  0  0  0  0  0  0  0  0
   51.5450   34.0400   41.9960 H   0  0  0  0  0  0  0  0  0  0  0  0
  1  2  2  0  0  0  0
  1  6  1  0  0  0  0
  2  3  1  0  0  0  0
  3  9  1  0  0  0  0
  3  4  2  0  0  0  0
  5  4  1  0  0  0  0
  5  8  1  0  0  0  0
  6  5  2  0  0  0  0
  7  1  1  0  0  0  0
  9 18  1  0  0  0  0
 10 11  1  0  0  0  0
 10  9  2  0  0  0  0
 11 12  2  0  0  0  0
 12 21  1  0  0  0  0
 12 13  1  0  0  0  0
 13 14  1  0  0  0  0
 14 22  1  0  0  0  0
 14 15  2  0  0  0  0
 15 23  1  0  0  0  0
 16 15  1  0  0  0  0
 16 24  1  0  0  0  0
 17 16  2  0  0  0  0
 18 13  2  0  0  0  0
 18 17  1  0  0  0  0
 19 10  1  0  0  0  0
 20 11  1  0  0  0  0
 25 17  1  0  0  0  0
 26  2  1  0  0  0  0
 28 27  2  1  0  0  0
 28 26  1  0  0  0  0
 28 42  1  0  0  0  0
 29 28  1  0  0  0  0
 30 29  1  0  0  0  0
 31 40  1  6  0  0  0
 31 30  1  0  0  0  0
 32 31  1  0  0  0  0
 33 38  1  0  0  0  0
 33 32  1  0  0  0  0
 34 36  1  0  0  0  0
 34 33  1  0  0  0  0
 35 34  2  0  0  0  0
 37 36  1  0  0  0  0
 38 36  1  6  0  0  0
 38 39  1  0  0  0  0
 39 31  1  0  0  0  0
 40 41  1  0  0  0  0
 43 42  1  0  0  0  0
 43 45  1  0  0  0  0
 44 43  2  0  0  0  0
 45 46  1  0  0  0  0
 47 45  1  0  0  0  0
M  END
>  <minimizedAffinity>
-6.69158649

>  <minimizedRMSD>
1.89755166

$$$$
