
 OpenBabel03242522203D

 48 52  0  0  0  0  0  0  0  0999 V2000
   42.2750   34.9160   40.0640 C   0  0  0  0  0  0  0  0  0  0  0  0
   41.8150   35.0900   38.7900 C   0  0  0  0  0  0  0  0  0  0  0  0
   40.6710   34.5360   38.2380 C   0  0  0  0  0  0  0  0  0  0  0  0
   39.9530   33.7370   39.0910 C   0  0  0  0  0  0  0  0  0  0  0  0
   40.4050   33.5550   40.3740 C   0  0  0  0  0  0  0  0  0  0  0  0
   41.5140   34.1070   40.8660 N   0  0  0  0  0  0  0  0  0  0  0  0
   42.4450   35.7400   38.1780 H   0  0  0  0  0  0  0  0  0  0  0  0
   40.3980   34.7350   37.2310 H   0  0  0  0  0  0  0  0  0  0  0  0
   39.5460   32.6700   41.2040 C   0  0  0  0  0  0  0  0  0  0  0  0
   38.1890   32.9830   40.9650 F   0  0  0  0  0  0  0  0  0  0  0  0
   39.8580   32.6940   42.5350 F   0  0  0  0  0  0  0  0  0  0  0  0
   39.6730   31.3530   40.7960 F   0  0  0  0  0  0  0  0  0  0  0  0
   43.4490   35.4530   40.7160 C   0  0  0  0  0  0  0  0  0  0  0  0
   44.3630   34.9780   40.2960 H   0  0  0  0  0  0  0  0  0  0  0  0
   43.5290   36.5300   40.4490 H   0  0  0  0  0  0  0  0  0  0  0  0
   43.5110   35.3270   42.2050 C   0  0  0  0  0  0  0  0  0  0  0  0
   43.3930   36.3010   42.7150 H   0  0  0  0  0  0  0  0  0  0  0  0
   42.6500   34.6960   42.5180 H   0  0  0  0  0  0  0  0  0  0  0  0
   46.7100   33.5000   42.5980 C   0  0  0  0  0  0  0  0  0  0  0  0
   46.8910   33.6760   43.9310 C   0  0  0  0  0  0  0  0  0  0  0  0
   45.4050   34.6620   44.3850 S   0  0  0  0  0  0  0  0  0  0  0  0
   44.7740   34.6640   42.6360 C   0  0  0  0  0  0  0  0  0  0  0  0
   45.6230   34.0530   42.1490 N   0  0  0  0  0  0  0  0  0  0  0  0
   47.7030   33.3190   44.5290 H   0  0  0  0  0  0  0  0  0  0  0  0
   49.2630   32.5720   39.9920 C   0  0  0  0  0  0  0  0  0  0  0  0
   48.4000   33.3570   40.7770 C   0  0  0  0  0  0  0  0  0  0  0  0
   47.6400   32.7590   41.7310 C   0  0  0  0  0  0  0  0  0  0  0  0
   47.7760   31.3690   41.8650 N   0  0  0  0  0  0  0  0  0  0  0  0
   48.6150   30.6680   41.0880 C   0  0  0  0  0  0  0  0  0  0  0  0
   49.3590   31.2620   40.1550 N   0  0  0  0  0  0  0  0  0  0  0  0
   49.8910   33.0030   39.2180 H   0  0  0  0  0  0  0  0  0  0  0  0
   48.5710   29.6170   41.3510 H   0  0  0  0  0  0  0  0  0  0  0  0
   48.3820   34.7590   40.5120 N   0  0  0  0  0  0  0  0  0  0  0  0
   47.6840   34.8170   39.7300 H   0  0  0  0  0  0  0  0  0  0  0  0
   48.9740   35.4050   41.0510 H   0  0  0  0  0  0  0  0  0  0  0  0
   38.4530   32.9760   38.4590 S   0  0  0  0  0  0  0  0  0  0  0  0
   39.9670   30.9560   37.5780 C   0  0  0  0  0  3  0  0  0  0  0  0
   38.7840   31.6580   37.3160 C   0  0  0  0  0  0  0  0  0  0  0  0
   38.0100   31.2770   36.2330 C   0  0  0  0  0  0  0  0  0  0  0  0
   37.1260   31.8830   36.1270 H   0  0  0  0  0  0  0  0  0  0  0  0
   38.3920   30.2260   35.4240 C   0  0  0  0  0  0  0  0  0  0  0  0
   37.7730   29.7200   34.3420 N   0  0  0  0  0  0  0  0  0  0  0  0
   36.8700   30.0740   33.9420 H   0  0  0  0  0  0  0  0  0  0  0  0
   38.4920   28.7120   33.8700 N   0  0  0  0  0  0  0  0  0  0  0  0
   39.5880   28.5690   34.6650 C   0  0  0  0  0  0  0  0  0  0  0  0
   40.3940   27.8440   34.5760 H   0  0  0  0  0  0  0  0  0  0  0  0
   39.5510   29.5130   35.6550 C   0  0  0  0  0  0  0  0  0  0  0  0
   40.3010   29.9080   36.7330 C   0  0  0  0  0  3  0  0  0  0  0  0
  1 13  1  0  0  0  0
  1  6  1  0  0  0  0
  2  1  2  0  0  0  0
  3  2  1  0  0  0  0
  3  4  2  0  0  0  0
  4  5  1  0  0  0  0
  5  6  2  0  0  0  0
  5  9  1  0  0  0  0
  7  2  1  0  0  0  0
  8  3  1  0  0  0  0
  9 11  1  0  0  0  0
 10  9  1  0  0  0  0
 12  9  1  0  0  0  0
 13 16  1  0  0  0  0
 14 13  1  0  0  0  0
 15 13  1  0  0  0  0
 16 18  1  0  0  0  0
 16 22  1  0  0  0  0
 16 17  1  0  0  0  0
 19 20  2  0  0  0  0
 20 21  1  0  0  0  0
 20 24  1  0  0  0  0
 22 21  1  0  0  0  0
 23 19  1  0  0  0  0
 23 22  2  0  0  0  0
 25 30  2  0  0  0  0
 25 26  1  0  0  0  0
 26 27  2  0  0  0  0
 27 28  1  0  0  0  0
 27 19  1  0  0  0  0
 29 32  1  0  0  0  0
 29 28  2  0  0  0  0
 30 29  1  0  0  0  0
 31 25  1  0  0  0  0
 33 26  1  0  0  0  0
 33 35  1  0  0  0  0
 34 33  1  0  0  0  0
 36  4  1  0  0  0  0
 38 37  1  0  0  0  0
 38 36  1  0  0  0  0
 39 38  2  0  0  0  0
 40 39  1  0  0  0  0
 41 47  2  0  0  0  0
 41 39  1  0  0  0  0
 42 41  1  0  0  0  0
 43 42  1  0  0  0  0
 44 42  1  0  0  0  0
 44 45  2  0  0  0  0
 45 47  1  0  0  0  0
 46 45  1  0  0  0  0
 47 48  1  0  0  0  0
 48 37  2  0  0  0  0
M  END
>  <minimizedAffinity>
-5.92060184

>  <minimizedRMSD>
0.507985353

$$$$
