
 OpenBabel03252509123D

 35 39  0  0  0  0  0  0  0  0999 V2000
   47.7400   30.9470   44.7730 C   0  0  0  0  0  0  0  0  0  0  0  0
   47.4030   32.0670   44.0250 C   0  0  0  0  0  0  0  0  0  0  0  0
   46.5790   33.0530   44.5040 C   0  0  0  0  0  0  0  0  0  0  0  0
   46.0390   32.9570   45.7900 C   0  0  0  0  0  0  0  0  0  0  0  0
   45.2200   33.7110   46.5610 N   0  0  0  0  0  0  0  0  0  0  0  0
   45.0450   33.0860   47.7590 C   0  0  0  0  0  0  0  0  0  0  0  0
   45.7670   31.9550   47.6910 N   0  0  0  0  0  0  0  0  0  0  0  0
   46.3870   31.8380   46.5110 C   0  0  0  0  0  0  0  0  0  0  0  0
   47.2090   30.8330   46.0650 C   0  0  0  0  0  0  0  0  0  0  0  0
   48.3950   30.1680   44.3870 H   0  0  0  0  0  0  0  0  0  0  0  0
   44.8570   34.6080   46.1650 H   0  0  0  0  0  0  0  0  0  0  0  0
   44.4150   33.5870   48.4540 H   0  0  0  0  0  0  0  0  0  0  0  0
   47.4460   29.9710   46.6870 H   0  0  0  0  0  0  0  0  0  0  0  0
   47.7780   31.7670   40.3860 C   0  0  0  0  0  0  0  0  0  0  0  0
   48.9630   32.4680   40.1410 C   0  0  0  0  0  0  0  0  0  0  0  0
   49.6240   33.0400   41.2310 C   0  0  0  0  0  0  0  0  0  0  0  0
   49.0870   32.8890   42.4810 N   0  0  0  0  0  0  0  0  0  0  0  0
   47.9440   32.2070   42.6780 C   0  0  0  0  0  0  0  0  0  0  0  0
   47.2920   31.6480   41.6420 N   0  0  0  0  0  0  0  0  0  0  0  0
   47.2890   31.3350   39.5230 H   0  0  0  0  0  0  0  0  0  0  0  0
   49.4310   32.6220   39.1940 H   0  0  0  0  0  0  0  0  0  0  0  0
   50.5410   33.6070   41.2030 H   0  0  0  0  0  0  0  0  0  0  0  0
   46.1490   34.4970   43.5390 S   0  0  0  0  0  0  0  0  0  0  0  0
   44.1840   33.0620   42.1590 C   0  0  0  0  0  3  0  0  0  0  0  0
   44.6140   34.2710   42.6680 C   0  0  0  0  0  0  0  0  0  0  0  0
   43.8200   35.3870   42.5050 C   0  0  0  0  0  0  0  0  0  0  0  0
   44.1230   36.3500   42.8900 H   0  0  0  0  0  0  0  0  0  0  0  0
   42.6280   35.2190   41.8310 C   0  0  0  0  0  0  0  0  0  0  0  0
   41.6760   36.1480   41.5400 N   0  0  0  0  0  0  0  0  0  0  0  0
   41.6080   37.1760   41.7430 H   0  0  0  0  0  0  0  0  0  0  0  0
   40.6770   35.5700   40.8740 N   0  0  0  0  0  0  0  0  0  0  0  0
   40.9680   34.2650   40.7260 C   0  0  0  0  0  0  0  0  0  0  0  0
   40.3760   33.5130   40.2350 H   0  0  0  0  0  0  0  0  0  0  0  0
   42.2050   33.9980   41.3220 C   0  0  0  0  0  0  0  0  0  0  0  0
   42.9950   32.8780   41.4820 C   0  0  0  0  0  3  0  0  0  0  0  0
  1  9  1  0  0  0  0
  2  3  1  0  0  0  0
  2  1  2  0  0  0  0
  3  4  2  0  0  0  0
  4  8  1  0  0  0  0
  4  5  1  0  0  0  0
  5  6  1  0  0  0  0
  6 12  1  0  0  0  0
  7  6  2  0  0  0  0
  8  7  1  0  0  0  0
  9  8  2  0  0  0  0
  9 13  1  0  0  0  0
 10  1  1  0  0  0  0
 11  5  1  0  0  0  0
 14 19  1  0  0  0  0
 15 14  2  0  0  0  0
 15 16  1  0  0  0  0
 16 17  2  0  0  0  0
 17 18  1  0  0  0  0
 18  2  1  0  0  0  0
 19 18  2  0  0  0  0
 20 14  1  0  0  0  0
 21 15  1  0  0  0  0
 22 16  1  0  0  0  0
 23  3  1  0  0  0  0
 24 25  1  0  0  0  0
 25 23  1  0  0  0  0
 26 25  2  0  0  0  0
 26 27  1  0  0  0  0
 28 26  1  0  0  0  0
 29 30  1  0  0  0  0
 29 28  1  0  0  0  0
 31 29  1  0  0  0  0
 32 31  2  0  0  0  0
 32 34  1  0  0  0  0
 33 32  1  0  0  0  0
 34 35  1  0  0  0  0
 34 28  2  0  0  0  0
 35 24  2  0  0  0  0
M  END
>  <minimizedAffinity>
-5.77433491

>  <minimizedRMSD>
1.83655691

$$$$
