REMARK  Name = 
REMARK  4 active torsions:
REMARK  status: ('A' for Active; 'I' for Inactive)
REMARK    1  A    between atoms: C_2  and  C_14
REMARK    2  A    between atoms: C_11  and  O_20
REMARK    3  A    between atoms: C_12  and  C_16
REMARK    4  A    between atoms: O_20  and  C_28
REMARK                            x       y       z     vdW  Elec       q    Type
REMARK                         _______ _______ _______ _____ _____    ______ ____
ROOT
ATOM      1  C   UNL     1      45.914  33.258  41.644  0.00  0.00    +0.000 A 
ATOM      2  C   UNL     1      47.054  33.983  41.317  0.00  0.00    +0.000 A 
ATOM      3  C   UNL     1      48.041  34.088  42.289  0.00  0.00    +0.000 A 
ATOM      4  N   UNL     1      47.823  33.476  43.490  0.00  0.00    +0.000 NA
ATOM      5  C   UNL     1      46.714  32.787  43.772  0.00  0.00    +0.000 A 
ATOM      6  N   UNL     1      45.744  32.668  42.853  0.00  0.00    +0.000 NA
ATOM      7  H   UNL     1      45.085  33.113  40.964  0.00  0.00    +0.000 HD
ENDROOT
BRANCH   5   9
ATOM      8  C   UNL     1      46.953  30.856  45.279  0.00  0.00    +0.000 A 
ATOM      9  C   UNL     1      46.580  32.174  45.079  0.00  0.00    +0.000 A 
ATOM     10  C   UNL     1      46.066  32.965  46.104  0.00  0.00    +0.000 A 
ATOM     11  C   UNL     1      45.918  32.423  47.377  0.00  0.00    +0.000 A 
ATOM     12  N   UNL     1      45.464  32.890  48.578  0.00  0.00    +0.000 N 
ATOM     13  C   UNL     1      45.571  31.842  49.484  0.00  0.00    +0.000 A 
ATOM     14  N   UNL     1      46.083  30.779  48.813  0.00  0.00    +0.000 NA
ATOM     15  C   UNL     1      46.298  31.113  47.537  0.00  0.00    +0.000 A 
ATOM     16  C   UNL     1      46.810  30.303  46.546  0.00  0.00    +0.000 A 
ATOM     17  H   UNL     1      47.354  30.262  44.453  0.00  0.00    +0.000 HD
ATOM     18  H   UNL     1      45.767  33.997  45.975  0.00  0.00    +0.000 HD
ATOM     19  H   UNL     1      45.109  33.866  48.736  0.00  0.00    +0.000 HD
ATOM     20  H   UNL     1      45.258  32.017  50.498  0.00  0.00    +0.000 HD
ATOM     21  H   UNL     1      47.099  29.276  46.709  0.00  0.00    +0.000 HD
ENDBRANCH   5   9
BRANCH   3  22
ATOM     22  C   UNL     1      49.279  34.851  41.993  0.00  0.00    +0.000 C 
ATOM     23  F   UNL     1      48.981  36.005  41.268  0.00  0.00    +0.000 F 
ATOM     24  F   UNL     1      49.869  35.272  43.154  0.00  0.00    +0.000 F 
ATOM     25  F   UNL     1      50.119  34.047  41.261  0.00  0.00    +0.000 F 
ENDBRANCH   3  22
BRANCH   2  26
ATOM     26  O   UNL     1      47.163  34.554  40.079  0.00  0.00    +0.000 OA
BRANCH  26  28
ATOM     27  C   UNL     1      44.968  35.123  39.427  0.00  0.00    +0.000 A 
ATOM     28  C   UNL     1      46.108  34.379  39.190  0.00  0.00    +0.000 A 
ATOM     29  C   UNL     1      46.122  33.526  38.105  0.00  0.00    +0.000 A 
ATOM     30  H   UNL     1      47.023  32.960  37.947  0.00  0.00    +0.000 HD
ATOM     31  C   UNL     1      45.007  33.468  37.328  0.00  0.00    +0.000 A 
ATOM     32  N   UNL     1      44.780  32.722  36.227  0.00  0.00    +0.000 N 
ATOM     33  H   UNL     1      45.443  32.049  35.783  0.00  0.00    +0.000 HD
ATOM     34  N   UNL     1      43.561  32.956  35.760  0.00  0.00    +0.000 NA
ATOM     35  C   UNL     1      42.954  33.864  36.542  0.00  0.00    +0.000 A 
ATOM     36  H   UNL     1      41.988  34.335  36.538  0.00  0.00    +0.000 HD
ATOM     37  C   UNL     1      43.853  34.198  37.537  0.00  0.00    +0.000 A 
ATOM     38  C   UNL     1      43.843  35.051  38.625  0.00  0.00    +0.000 A 
ENDBRANCH  26  28
ENDBRANCH   2  26
TORSDOF 4
