REMARK  Name = 
REMARK  3 active torsions:
REMARK  status: ('A' for Active; 'I' for Inactive)
REMARK    1  A    between atoms: C_2  and  C_14
REMARK    2  A    between atoms: C_3  and  S_16
REMARK    3  A    between atoms: S_16  and  C_25
REMARK                            x       y       z     vdW  Elec       q    Type
REMARK                         _______ _______ _______ _____ _____    ______ ____
ROOT
ATOM      1  C   UNL     1      47.463  31.679  44.823  0.00  0.00    +0.000 A 
ATOM      2  C   UNL     1      46.788  32.858  44.538  0.00  0.00    +0.000 A 
ATOM      3  C   UNL     1      45.921  33.443  45.424  0.00  0.00    +0.000 A 
ATOM      4  C   UNL     1      45.683  32.856  46.671  0.00  0.00    +0.000 A 
ATOM      5  N   UNL     1      44.922  33.142  47.753  0.00  0.00    +0.000 N 
ATOM      6  C   UNL     1      45.111  32.174  48.692  0.00  0.00    +0.000 A 
ATOM      7  N   UNL     1      45.990  31.311  48.157  0.00  0.00    +0.000 NA
ATOM      8  C   UNL     1      46.364  31.688  46.929  0.00  0.00    +0.000 A 
ATOM      9  C   UNL     1      47.239  31.075  46.068  0.00  0.00    +0.000 A 
ATOM     10  H   UNL     1      48.151  31.219  44.115  0.00  0.00    +0.000 HD
ATOM     11  H   UNL     1      44.333  34.006  47.728  0.00  0.00    +0.000 HD
ATOM     12  H   UNL     1      44.560  32.291  49.595  0.00  0.00    +0.000 HD
ATOM     13  H   UNL     1      47.747  30.149  46.333  0.00  0.00    +0.000 HD
ENDROOT
BRANCH   2  18
ATOM     14  C   UNL     1      46.371  33.811  41.018  0.00  0.00    +0.000 A 
ATOM     15  C   UNL     1      47.416  34.719  40.820  0.00  0.00    +0.000 A 
ATOM     16  C   UNL     1      48.257  34.997  41.901  0.00  0.00    +0.000 A 
ATOM     17  N   UNL     1      48.022  34.372  43.097  0.00  0.00    +0.000 NA
ATOM     18  C   UNL     1      47.006  33.504  43.249  0.00  0.00    +0.000 A 
ATOM     19  N   UNL     1      46.185  33.222  42.221  0.00  0.00    +0.000 NA
ATOM     20  H   UNL     1      45.737  33.616  40.163  0.00  0.00    +0.000 HD
ATOM     21  H   UNL     1      47.651  35.238  39.917  0.00  0.00    +0.000 HD
ATOM     22  H   UNL     1      49.100  35.670  41.906  0.00  0.00    +0.000 HD
ENDBRANCH   2  18
BRANCH   3  23
ATOM     23  S   UNL     1      45.054  34.965  45.056  0.00  0.00    +0.000 S 
BRANCH  23  25
ATOM     24  C   UNL     1      43.240  33.569  43.447  0.00  0.00    +0.000 A 
ATOM     25  C   UNL     1      43.492  34.654  44.261  0.00  0.00    +0.000 A 
ATOM     26  C   UNL     1      42.485  35.569  44.488  0.00  0.00    +0.000 A 
ATOM     27  H   UNL     1      42.645  36.431  45.120  0.00  0.00    +0.000 HD
ATOM     28  C   UNL     1      41.272  35.335  43.876  0.00  0.00    +0.000 A 
ATOM     29  N   UNL     1      40.130  36.074  43.936  0.00  0.00    +0.000 N 
ATOM     30  H   UNL     1      39.894  36.966  44.438  0.00  0.00    +0.000 HD
ATOM     31  N   UNL     1      39.184  35.497  43.198  0.00  0.00    +0.000 NA
ATOM     32  C   UNL     1      39.699  34.380  42.651  0.00  0.00    +0.000 A 
ATOM     33  H   UNL     1      39.203  33.681  42.001  0.00  0.00    +0.000 HD
ATOM     34  C   UNL     1      41.029  34.239  43.058  0.00  0.00    +0.000 A 
ATOM     35  C   UNL     1      42.032  33.321  42.828  0.00  0.00    +0.000 A 
ENDBRANCH  23  25
ENDBRANCH   3  23
TORSDOF 3
