
     RDKit          3D

 45 49  0  0  0  0  0  0  0  0999 V2000
   46.4503   33.8656   43.2447 C   0  0  0  0  0  0  0  0  0  0  0  0
   45.7508   34.8623   42.4353 C   0  0  0  0  0  0  0  0  0  0  0  0
   45.3299   36.0767   43.1786 C   0  0  0  0  0  0  0  0  0  0  0  0
   44.5529   35.7729   44.4480 C   0  0  0  0  0  0  0  0  0  0  0  0
   44.9822   34.5048   45.1459 C   0  0  0  0  0  0  0  0  0  0  0  0
   46.4030   34.1566   44.7559 C   0  0  0  0  0  0  0  0  0  0  0  0
   47.8745   33.7050   42.8941 C   0  0  0  0  0  0  0  0  0  0  0  0
   48.5811   34.8972   42.7164 C   0  0  0  0  0  0  0  0  0  0  0  0
   49.9460   34.8716   42.3848 C   0  0  0  0  0  0  0  0  0  0  0  0
   50.5055   33.6191   42.2555 N   0  0  0  0  0  0  0  0  0  0  0  0
   49.7811   32.4738   42.4376 C   0  0  0  0  0  0  0  0  0  0  0  0
   48.4902   32.5290   42.7506 N   0  0  0  0  0  0  0  0  0  0  0  0
   50.5249   31.2307   42.2693 C   0  0  0  0  0  0  0  0  0  0  0  0
   51.5701   31.2479   41.4080 N   0  0  0  0  0  0  0  0  0  0  0  0
   52.1442   30.0344   41.3704 C   0  0  0  0  0  0  0  0  0  0  0  0
   51.4303   29.2447   42.2357 N   0  0  0  0  0  0  0  0  0  0  0  0
   50.4529   29.9779   42.7742 N   0  0  0  0  0  0  0  0  0  0  0  0
   45.9935   32.8366   43.1472 H   0  0  0  0  0  0  0  0  0  0  0  0
   44.8165   34.4155   41.9907 H   0  0  0  0  0  0  0  0  0  0  0  0
   46.4115   35.1919   41.6131 H   0  0  0  0  0  0  0  0  0  0  0  0
   46.0937   36.8367   43.3598 H   0  0  0  0  0  0  0  0  0  0  0  0
   44.5703   36.5944   42.5190 H   0  0  0  0  0  0  0  0  0  0  0  0
   44.7624   36.6092   45.1705 H   0  0  0  0  0  0  0  0  0  0  0  0
   43.4559   35.7877   44.3033 H   0  0  0  0  0  0  0  0  0  0  0  0
   44.8873   34.5522   46.2299 H   0  0  0  0  0  0  0  0  0  0  0  0
   44.3542   33.6859   44.7111 H   0  0  0  0  0  0  0  0  0  0  0  0
   47.0593   35.0623   44.8882 H   0  0  0  0  0  0  0  0  0  0  0  0
   46.7442   33.2840   45.3244 H   0  0  0  0  0  0  0  0  0  0  0  0
   48.2279   35.9159   42.7970 H   0  0  0  0  0  0  0  0  0  0  0  0
   50.5525   35.7481   42.2327 H   0  0  0  0  0  0  0  0  0  0  0  0
   52.9885   29.6629   40.8119 H   0  0  0  0  0  0  0  0  0  0  0  0
   51.1881   26.8280   41.7662 C   0  0  0  0  0  0  0  0  0  0  0  0
   51.5865   27.8764   42.5950 C   0  0  0  0  0  0  0  0  0  0  0  0
   52.1512   27.5211   43.8049 C   0  0  0  0  0  0  0  0  0  0  0  0
   52.4610   28.3306   44.4494 H   0  0  0  0  0  0  0  0  0  0  0  0
   52.3306   26.2144   44.2125 C   0  0  0  0  0  0  0  0  0  0  0  0
   52.8583   25.7080   45.3467 N   0  0  0  0  0  0  0  0  0  0  0  0
   53.2269   26.2948   46.1208 H   0  0  0  0  0  0  0  0  0  0  0  0
   52.8003   24.3866   45.2485 N   0  0  0  0  0  0  0  0  0  0  0  0
   52.2390   24.0295   44.0594 C   0  0  0  0  0  0  0  0  0  0  0  0
   52.0539   23.0396   43.6842 H   0  0  0  0  0  0  0  0  0  0  0  0
   51.9266   25.1800   43.3717 C   0  0  0  0  0  0  0  0  0  0  0  0
   51.3650   25.5217   42.1682 C   0  0  0  0  0  0  0  0  0  0  0  0
   50.7427   27.0824   40.8123 H   0  0  0  0  0  0  0  0  0  0  0  0
   51.0494   24.7212   41.5112 H   0  0  0  0  0  0  0  0  0  0  0  0
  1  6  1  0
  2  3  1  0
  2  1  1  0
  3  4  1  0
  4  5  1  0
  6  5  1  0
  7  1  1  0
  8  7  2  0
  9  8  1  0
 10  9  2  0
 10 11  1  0
 11 12  2  0
 12  7  1  0
 13 11  1  0
 13 17  2  0
 14 13  1  0
 15 14  2  0
 15 16  1  0
 16 17  1  0
  1 18  1  0
  2 19  1  0
  2 20  1  0
  3 21  1  0
  3 22  1  0
  4 23  1  0
  4 24  1  0
  5 25  1  0
  5 26  1  0
  6 27  1  0
  6 28  1  0
  8 29  1  0
  9 30  1  0
 15 31  1  0
 32 33  2  0
 33 34  1  0
 34 35  1  0
 34 36  2  0
 36 37  1  0
 37 38  1  0
 37 39  1  0
 39 40  2  0
 40 41  1  0
 40 42  1  0
 42 43  2  0
 43 32  1  0
 42 36  1  0
 32 44  1  0
 43 45  1  0
 16 33  1  0
M  ISO  8  18  13  19  13  20  13  21  13  22  13  23  13  24  13  25  13
M  ISO  8  26  13  27  13  28  13  29  14  30  14  31  14  35  16  38   5
M  ISO  1  41  15
M  END
>  <DihAtoms>  (1) 
14,15,32,31

>  <DihDeg>  (1) 
43.50749451453178

$$$$
