
 OpenBabel03252508313D

 35 38  0  0  1  0  0  0  0  0999 V2000
   44.3520   34.5180   41.9260 N   0  0  0  0  0  0  0  0  0  0  0  0
   44.7070   33.4740   41.0430 C   0  0  1  0  0  0  0  0  0  0  0  0
   44.2570   33.6320   39.6380 C   0  0  0  0  0  0  0  0  0  0  0  0
   42.9840   34.1920   39.4650 N   0  0  0  0  0  0  0  0  0  0  0  0
   42.5760   35.1800   40.3810 C   0  0  0  0  0  0  0  0  0  0  0  0
   43.7020   35.6230   41.2760 C   0  0  0  0  0  0  0  0  0  0  0  0
   44.2290   32.5340   41.4290 H   0  0  0  0  0  0  0  0  0  0  0  0
   44.3160   32.6570   39.1100 H   0  0  0  0  0  0  0  0  0  0  0  0
   45.0030   34.3160   39.1370 H   0  0  0  0  0  0  0  0  0  0  0  0
   42.6130   34.1990   38.5190 H   0  0  0  0  0  0  0  0  0  0  0  0
   41.7310   34.8590   41.0530 H   0  0  0  0  0  0  0  0  0  0  0  0
   42.1890   36.0660   39.8440 H   0  0  0  0  0  0  0  0  0  0  0  0
   44.4690   36.2160   40.7130 H   0  0  0  0  0  0  0  0  0  0  0  0
   43.2360   36.3370   41.9860 H   0  0  0  0  0  0  0  0  0  0  0  0
   46.9660   34.2730   40.7090 C   0  0  0  0  0  3  0  0  0  0  0  0
   46.1840   33.1670   41.0170 C   0  0  0  0  0  0  0  0  0  0  0  0
   46.8350   31.9750   41.2370 C   0  0  0  0  0  0  0  0  0  0  0  0
   46.1330   31.1650   41.4710 H   0  0  0  0  0  0  0  0  0  0  0  0
   48.1820   31.8890   41.1540 C   0  0  0  0  0  0  0  0  0  0  0  0
   48.9320   30.7990   41.3430 N   0  0  0  0  0  0  0  0  0  0  0  0
   48.6780   29.8030   41.5870 H   0  0  0  0  0  0  0  0  0  0  0  0
   50.1910   31.1390   41.1720 N   0  0  0  0  0  0  0  0  0  0  0  0
   50.2620   32.4350   40.8760 C   0  0  0  0  0  0  0  0  0  0  0  0
   51.1450   33.0480   40.6710 H   0  0  0  0  0  0  0  0  0  0  0  0
   48.9840   32.9690   40.8510 C   0  0  0  0  0  0  0  0  0  0  0  0
   48.3590   34.1620   40.6290 C   0  0  0  0  0  3  0  0  0  0  0  0
   44.3580   35.5170   44.0960 C   0  0  0  0  0  0  0  0  0  0  0  0
   44.6600   34.3910   43.3000 C   0  0  0  0  0  0  0  0  0  0  0  0
   45.2220   33.2860   43.9110 C   0  0  0  0  0  0  0  0  0  0  0  0
   45.4770   33.2900   45.2460 N   0  0  0  0  0  0  0  0  0  0  0  0
   45.1760   34.3910   45.9980 C   0  0  0  0  0  0  0  0  0  0  0  0
   44.6270   35.4820   45.4260 N   0  0  0  0  0  0  0  0  0  0  0  0
   43.9260   36.4630   43.8160 H   0  0  0  0  0  0  0  0  0  0  0  0
   45.4440   32.4320   43.3070 H   0  0  0  0  0  0  0  0  0  0  0  0
   45.3880   34.3720   47.0670 H   0  0  0  0  0  0  0  0  0  0  0  0
  1 28  1  0  0  0  0
  2  7  1  1  0  0  0
  2  1  1  0  0  0  0
  3  2  1  0  0  0  0
  4  3  1  0  0  0  0
  4  5  1  0  0  0  0
  5 11  1  0  0  0  0
  5  6  1  0  0  0  0
  6  1  1  0  0  0  0
  6 14  1  0  0  0  0
  8  3  1  0  0  0  0
  9  3  1  0  0  0  0
 10  4  1  0  0  0  0
 12  5  1  0  0  0  0
 13  6  1  0  0  0  0
 15 16  1  0  0  0  0
 16  2  1  0  0  0  0
 16 17  2  0  0  0  0
 17 18  1  0  0  0  0
 19 17  1  0  0  0  0
 19 20  1  0  0  0  0
 20 21  1  0  0  0  0
 22 20  1  0  0  0  0
 23 22  2  0  0  0  0
 24 23  1  0  0  0  0
 25 23  1  0  0  0  0
 25 19  2  0  0  0  0
 26 15  2  0  0  0  0
 26 25  1  0  0  0  0
 27 32  1  0  0  0  0
 28 29  1  0  0  0  0
 28 27  2  0  0  0  0
 29 30  2  0  0  0  0
 30 31  1  0  0  0  0
 31 35  1  0  0  0  0
 32 31  2  0  0  0  0
 33 27  1  0  0  0  0
 34 29  1  0  0  0  0
M  END
>  <minimizedAffinity>
-4.69258356

>  <minimizedRMSD>
0.613456666

$$$$
