
 OpenBabel03252509123D

 35 39  0  0  0  0  0  0  0  0999 V2000
   47.7110   30.7620   44.7380 C   0  0  0  0  0  0  0  0  0  0  0  0
   47.5210   31.9060   43.9760 C   0  0  0  0  0  0  0  0  0  0  0  0
   46.7660   32.9640   44.4110 C   0  0  0  0  0  0  0  0  0  0  0  0
   46.1490   32.9220   45.6660 C   0  0  0  0  0  0  0  0  0  0  0  0
   45.3620   33.7490   46.3920 N   0  0  0  0  0  0  0  0  0  0  0  0
   45.0650   33.1460   47.5770 C   0  0  0  0  0  0  0  0  0  0  0  0
   45.6820   31.9530   47.5450 N   0  0  0  0  0  0  0  0  0  0  0  0
   46.3530   31.7770   46.4010 C   0  0  0  0  0  0  0  0  0  0  0  0
   47.1020   30.7000   45.9990 C   0  0  0  0  0  0  0  0  0  0  0  0
   48.3120   29.9240   44.3860 H   0  0  0  0  0  0  0  0  0  0  0  0
   45.1060   34.6750   45.9800 H   0  0  0  0  0  0  0  0  0  0  0  0
   44.4460   33.7040   48.2380 H   0  0  0  0  0  0  0  0  0  0  0  0
   47.2240   29.8210   46.6300 H   0  0  0  0  0  0  0  0  0  0  0  0
   48.0220   31.6660   40.3480 C   0  0  0  0  0  0  0  0  0  0  0  0
   49.3220   32.1530   40.1840 C   0  0  0  0  0  0  0  0  0  0  0  0
   50.0180   32.5620   41.3260 C   0  0  0  0  0  0  0  0  0  0  0  0
   49.3990   32.4670   42.5440 N   0  0  0  0  0  0  0  0  0  0  0  0
   48.1460   31.9920   42.6610 C   0  0  0  0  0  0  0  0  0  0  0  0
   47.4590   31.5930   41.5750 N   0  0  0  0  0  0  0  0  0  0  0  0
   47.5090   31.3570   39.4460 H   0  0  0  0  0  0  0  0  0  0  0  0
   49.8590   32.2530   39.2660 H   0  0  0  0  0  0  0  0  0  0  0  0
   51.0210   32.9570   41.3630 H   0  0  0  0  0  0  0  0  0  0  0  0
   46.5250   34.4400   43.4290 S   0  0  0  0  0  0  0  0  0  0  0  0
   44.3420   35.5310   42.0620 C   0  0  0  0  0  3  0  0  0  0  0  0
   44.9650   34.4100   42.5720 C   0  0  0  0  0  0  0  0  0  0  0  0
   44.3590   33.1800   42.4230 C   0  0  0  0  0  0  0  0  0  0  0  0
   44.8180   32.2810   42.8100 H   0  0  0  0  0  0  0  0  0  0  0  0
   43.1510   33.1490   41.7610 C   0  0  0  0  0  0  0  0  0  0  0  0
   42.3570   32.0780   41.4830 N   0  0  0  0  0  0  0  0  0  0  0  0
   42.4600   31.0540   41.6920 H   0  0  0  0  0  0  0  0  0  0  0  0
   41.2740   32.4820   40.8240 N   0  0  0  0  0  0  0  0  0  0  0  0
   41.3490   33.8170   40.6670 C   0  0  0  0  0  0  0  0  0  0  0  0
   40.6380   34.4600   40.1780 H   0  0  0  0  0  0  0  0  0  0  0  0
   42.5320   34.2830   41.2490 C   0  0  0  0  0  0  0  0  0  0  0  0
   43.1320   35.5170   41.3970 C   0  0  0  0  0  3  0  0  0  0  0  0
  1  9  1  0  0  0  0
  2  3  1  0  0  0  0
  2  1  2  0  0  0  0
  3  4  2  0  0  0  0
  4  5  1  0  0  0  0
  4  8  1  0  0  0  0
  5  6  1  0  0  0  0
  6 12  1  0  0  0  0
  7  6  2  0  0  0  0
  8  7  1  0  0  0  0
  9  8  2  0  0  0  0
  9 13  1  0  0  0  0
 10  1  1  0  0  0  0
 11  5  1  0  0  0  0
 14 19  1  0  0  0  0
 15 14  2  0  0  0  0
 15 16  1  0  0  0  0
 16 22  1  0  0  0  0
 16 17  2  0  0  0  0
 17 18  1  0  0  0  0
 18  2  1  0  0  0  0
 19 18  2  0  0  0  0
 20 14  1  0  0  0  0
 21 15  1  0  0  0  0
 23  3  1  0  0  0  0
 24 25  1  0  0  0  0
 25 23  1  0  0  0  0
 26 25  2  0  0  0  0
 26 27  1  0  0  0  0
 28 26  1  0  0  0  0
 29 30  1  0  0  0  0
 29 28  1  0  0  0  0
 31 29  1  0  0  0  0
 32 31  2  0  0  0  0
 32 34  1  0  0  0  0
 33 32  1  0  0  0  0
 34 35  1  0  0  0  0
 34 28  2  0  0  0  0
 35 24  2  0  0  0  0
M  END
>  <minimizedAffinity>
-5.52687216

>  <minimizedRMSD>
1.99713421

$$$$
