
 OpenBabel03242519183D

 45 49  0  0  1  0  0  0  0  0999 V2000
   41.2600   34.6900   39.7610 C   0  0  0  0  0  0  0  0  0  0  0  0
   40.5650   35.8530   40.0060 C   0  0  0  0  0  0  0  0  0  0  0  0
   39.1770   35.8870   40.1540 C   0  0  0  0  0  0  0  0  0  0  0  0
   38.5470   34.6840   40.0400 N   0  0  0  0  0  0  0  0  0  0  0  0
   39.2300   33.5540   39.8010 C   0  0  0  0  0  0  0  0  0  0  0  0
   40.5600   33.5610   39.6650 N   0  0  0  0  0  0  0  0  0  0  0  0
   41.1330   36.7640   40.0840 H   0  0  0  0  0  0  0  0  0  0  0  0
   38.6620   36.8190   40.3460 H   0  0  0  0  0  0  0  0  0  0  0  0
   38.5520   32.2280   39.7030 C   0  0  2  0  0  0  0  0  0  0  0  0
   37.2030   32.1560   39.0580 C   0  0  0  0  0  0  0  0  0  0  0  0
   37.3640   32.0190   40.5780 C   0  0  1  0  0  0  0  0  0  0  0  0
   39.2320   31.3740   39.5170 H   0  0  0  0  0  0  0  0  0  0  0  0
   36.6950   33.0970   38.7610 H   0  0  0  0  0  0  0  0  0  0  0  0
   36.9080   31.2860   38.4590 H   0  0  0  0  0  0  0  0  0  0  0  0
   37.0160   32.8370   41.2130 H   0  0  0  0  0  0  0  0  0  0  0  0
   35.9830   29.9760   40.7460 C   0  0  0  0  0  3  0  0  0  0  0  0
   37.1630   30.6180   41.0350 C   0  0  0  0  0  0  0  0  0  0  0  0
   38.1810   30.0000   41.7430 C   0  0  0  0  0  0  0  0  0  0  0  0
   39.1220   30.4760   41.9880 H   0  0  0  0  0  0  0  0  0  0  0  0
   37.9170   28.6980   42.1320 C   0  0  0  0  0  0  0  0  0  0  0  0
   38.6660   27.8230   42.8170 N   0  0  0  0  0  0  0  0  0  0  0  0
   39.6300   27.9120   43.2240 H   0  0  0  0  0  0  0  0  0  0  0  0
   38.0580   26.6670   42.9920 N   0  0  0  0  0  0  0  0  0  0  0  0
   36.8330   26.7350   42.4050 C   0  0  0  0  0  0  0  0  0  0  0  0
   36.0280   26.0130   42.3190 H   0  0  0  0  0  0  0  0  0  0  0  0
   36.7510   28.0190   41.8640 C   0  0  0  0  0  0  0  0  0  0  0  0
   35.7610   28.6790   41.1520 C   0  0  0  0  0  3  0  0  0  0  0  0
   42.7010   34.6710   39.6220 C   0  0  0  0  0  0  0  0  0  0  0  0
   43.0290   34.6470   38.5710 H   0  0  0  0  0  0  0  0  0  0  0  0
   43.1030   35.6250   40.0520 H   0  0  0  0  0  0  0  0  0  0  0  0
   43.2800   33.5410   40.4130 C   0  0  0  0  0  0  0  0  0  0  0  0
   42.4920   32.8630   40.8300 H   0  0  0  0  0  0  0  0  0  0  0  0
   43.9160   32.9120   39.7770 H   0  0  0  0  0  0  0  0  0  0  0  0
   43.0710   31.9700   42.9410 Cl  0  0  0  0  0  0  0  0  0  0  0  0
   44.1130   33.3730   42.7750 C   0  0  0  0  0  0  0  0  0  0  0  0
   44.1190   33.9980   41.5530 C   0  0  0  0  0  0  0  0  0  0  0  0
   44.9510   35.0990   41.4140 C   0  0  0  0  0  0  0  0  0  0  0  0
   45.7380   35.5420   42.4670 C   0  0  0  0  0  0  0  0  0  0  0  0
   45.7050   34.8800   43.6960 C   0  0  0  0  0  0  0  0  0  0  0  0
   44.8840   33.7960   43.8270 C   0  0  0  0  0  0  0  0  0  0  0  0
   45.0090   35.6460   40.4760 H   0  0  0  0  0  0  0  0  0  0  0  0
   46.3760   36.4050   42.3240 H   0  0  0  0  0  0  0  0  0  0  0  0
   46.3160   35.2160   44.5280 H   0  0  0  0  0  0  0  0  0  0  0  0
   44.7840   33.0700   45.0200 O   0  0  0  0  0  0  0  0  0  0  0  0
   45.6070   32.6450   45.4470 H   0  0  0  0  0  0  0  0  0  0  0  0
  1  2  1  0  0  0  0
  2  7  1  0  0  0  0
  2  3  2  0  0  0  0
  3  8  1  0  0  0  0
  4  3  1  0  0  0  0
  5  4  2  0  0  0  0
  6  1  2  0  0  0  0
  6  5  1  0  0  0  0
  9 12  1  6  0  0  0
  9  5  1  0  0  0  0
  9 11  1  0  0  0  0
 10  9  1  0  0  0  0
 10 11  1  0  0  0  0
 11 17  1  0  0  0  0
 11 15  1  1  0  0  0
 13 10  1  0  0  0  0
 14 10  1  0  0  0  0
 16 17  2  0  0  0  0
 16 27  1  0  0  0  0
 17 18  1  0  0  0  0
 18 19  1  0  0  0  0
 18 20  2  0  0  0  0
 20 21  1  0  0  0  0
 21 23  1  0  0  0  0
 21 22  1  0  0  0  0
 24 23  2  0  0  0  0
 25 24  1  0  0  0  0
 26 20  1  0  0  0  0
 26 24  1  0  0  0  0
 27 26  2  0  0  0  0
 28  1  1  0  0  0  0
 28 30  1  0  0  0  0
 28 31  1  0  0  0  0
 29 28  1  0  0  0  0
 31 32  1  0  0  0  0
 31 36  1  0  0  0  0
 33 31  1  0  0  0  0
 35 34  1  0  0  0  0
 35 40  1  0  0  0  0
 36 35  2  0  0  0  0
 37 36  1  0  0  0  0
 37 38  2  0  0  0  0
 38 39  1  0  0  0  0
 39 40  2  0  0  0  0
 39 43  1  0  0  0  0
 40 44  1  0  0  0  0
 41 37  1  0  0  0  0
 42 38  1  0  0  0  0
 44 45  1  0  0  0  0
M  END
>  <minimizedAffinity>
-6.95526075

$$$$

 OpenBabel03242519183D

 45 49  0  0  1  0  0  0  0  0999 V2000
   36.4660   26.7580   37.5350 C   0  0  0  0  0  0  0  0  0  0  0  0
   35.4150   25.9580   37.1450 C   0  0  0  0  0  0  0  0  0  0  0  0
   35.0460   24.8040   37.8380 C   0  0  0  0  0  0  0  0  0  0  0  0
   35.7990   24.5160   38.9370 N   0  0  0  0  0  0  0  0  0  0  0  0
   36.8220   25.3000   39.3120 C   0  0  0  0  0  0  0  0  0  0  0  0
   37.1450   26.3980   38.6210 N   0  0  0  0  0  0  0  0  0  0  0  0
   34.8680   26.2510   36.2660 H   0  0  0  0  0  0  0  0  0  0  0  0
   34.2140   24.1980   37.5040 H   0  0  0  0  0  0  0  0  0  0  0  0
   37.6340   25.0080   40.5300 C   0  0  2  0  0  0  0  0  0  0  0  0
   36.9250   24.7670   41.8260 C   0  0  0  0  0  0  0  0  0  0  0  0
   37.6840   26.0750   41.5690 C   0  0  1  0  0  0  0  0  0  0  0  0
   38.5430   24.4020   40.3450 H   0  0  0  0  0  0  0  0  0  0  0  0
   35.8260   24.9080   41.8760 H   0  0  0  0  0  0  0  0  0  0  0  0
   37.3120   24.0450   42.5560 H   0  0  0  0  0  0  0  0  0  0  0  0
   37.1070   26.9910   41.4250 H   0  0  0  0  0  0  0  0  0  0  0  0
   39.0500   26.9770   43.4220 C   0  0  0  0  0  3  0  0  0  0  0  0
   38.9570   26.1400   42.3370 C   0  0  0  0  0  0  0  0  0  0  0  0
   40.0170   25.3470   41.9280 C   0  0  0  0  0  0  0  0  0  0  0  0
   39.9790   24.6770   41.0780 H   0  0  0  0  0  0  0  0  0  0  0  0
   41.1660   25.4640   42.6930 C   0  0  0  0  0  0  0  0  0  0  0  0
   42.3540   24.8550   42.5830 N   0  0  0  0  0  0  0  0  0  0  0  0
   42.7020   24.1460   41.8920 H   0  0  0  0  0  0  0  0  0  0  0  0
   43.2050   25.2370   43.5130 N   0  0  0  0  0  0  0  0  0  0  0  0
   42.5860   26.1500   44.3100 C   0  0  0  0  0  0  0  0  0  0  0  0
   42.9260   26.7050   45.1780 H   0  0  0  0  0  0  0  0  0  0  0  0
   41.3000   26.2890   43.7860 C   0  0  0  0  0  0  0  0  0  0  0  0
   40.2110   27.0640   44.1570 C   0  0  0  0  0  3  0  0  0  0  0  0
   36.8270   27.9580   36.8090 C   0  0  0  0  0  0  0  0  0  0  0  0
   37.8580   28.2880   37.0140 H   0  0  0  0  0  0  0  0  0  0  0  0
   36.7860   27.7270   35.7130 H   0  0  0  0  0  0  0  0  0  0  0  0
   35.8320   29.0420   37.0800 C   0  0  0  0  0  0  0  0  0  0  0  0
   35.5470   29.6030   36.1530 H   0  0  0  0  0  0  0  0  0  0  0  0
   34.9010   28.6200   37.4780 H   0  0  0  0  0  0  0  0  0  0  0  0
   34.5970   28.9420   39.7940 Cl  0  0  0  0  0  0  0  0  0  0  0  0
   35.8280   30.1130   39.3510 C   0  0  0  0  0  0  0  0  0  0  0  0
   36.3160   30.0420   38.0700 C   0  0  0  0  0  0  0  0  0  0  0  0
   37.2990   30.9560   37.7200 C   0  0  0  0  0  0  0  0  0  0  0  0
   37.7600   31.8960   38.6290 C   0  0  0  0  0  0  0  0  0  0  0  0
   37.2390   31.9390   39.9230 C   0  0  0  0  0  0  0  0  0  0  0  0
   36.2720   31.0350   40.2630 C   0  0  0  0  0  0  0  0  0  0  0  0
   37.7330   30.9610   36.7230 H   0  0  0  0  0  0  0  0  0  0  0  0
   38.5280   32.5960   38.3220 H   0  0  0  0  0  0  0  0  0  0  0  0
   37.5920   32.6690   40.6440 H   0  0  0  0  0  0  0  0  0  0  0  0
   35.6900   31.0010   41.5360 O   0  0  0  0  0  0  0  0  0  0  0  0
   36.2630   30.8790   42.3720 H   0  0  0  0  0  0  0  0  0  0  0  0
  1  6  1  0  0  0  0
  2  1  2  0  0  0  0
  2  3  1  0  0  0  0
  3  4  2  0  0  0  0
  4  5  1  0  0  0  0
  5  9  1  0  0  0  0
  6  5  2  0  0  0  0
  7  2  1  0  0  0  0
  8  3  1  0  0  0  0
  9 12  1  6  0  0  0
  9 11  1  0  0  0  0
  9 10  1  0  0  0  0
 10 13  1  0  0  0  0
 10 14  1  0  0  0  0
 11 15  1  6  0  0  0
 11 10  1  0  0  0  0
 11 17  1  0  0  0  0
 16 27  1  0  0  0  0
 17 16  2  0  0  0  0
 18 17  1  0  0  0  0
 18 20  2  0  0  0  0
 19 18  1  0  0  0  0
 20 26  1  0  0  0  0
 21 20  1  0  0  0  0
 21 23  1  0  0  0  0
 22 21  1  0  0  0  0
 23 24  2  0  0  0  0
 24 25  1  0  0  0  0
 26 27  2  0  0  0  0
 26 24  1  0  0  0  0
 28 29  1  0  0  0  0
 28 31  1  0  0  0  0
 28  1  1  0  0  0  0
 30 28  1  0  0  0  0
 31 33  1  0  0  0  0
 31 36  1  0  0  0  0
 32 31  1  0  0  0  0
 35 34  1  0  0  0  0
 35 40  1  0  0  0  0
 36 35  2  0  0  0  0
 37 36  1  0  0  0  0
 37 38  2  0  0  0  0
 38 39  1  0  0  0  0
 39 40  2  0  0  0  0
 39 43  1  0  0  0  0
 40 44  1  0  0  0  0
 41 37  1  0  0  0  0
 42 38  1  0  0  0  0
 44 45  1  0  0  0  0
M  END
>  <minimizedAffinity>
-6.76231337

$$$$

 OpenBabel03242519183D

 45 49  0  0  1  0  0  0  0  0999 V2000
   38.4590   30.1500   41.8590 C   0  0  0  0  0  0  0  0  0  0  0  0
   38.4610   29.5250   43.0850 C   0  0  0  0  0  0  0  0  0  0  0  0
   37.6460   28.4310   43.3770 C   0  0  0  0  0  0  0  0  0  0  0  0
   36.8390   28.0150   42.3600 N   0  0  0  0  0  0  0  0  0  0  0  0
   36.8410   28.6290   41.1670 C   0  0  0  0  0  0  0  0  0  0  0  0
   37.6370   29.6760   40.9260 N   0  0  0  0  0  0  0  0  0  0  0  0
   39.1270   29.9110   43.8380 H   0  0  0  0  0  0  0  0  0  0  0  0
   37.6720   27.9630   44.3520 H   0  0  0  0  0  0  0  0  0  0  0  0
   35.9820   28.1640   40.0390 C   0  0  2  0  0  0  0  0  0  0  0  0
   36.5350   27.1540   39.0830 C   0  0  0  0  0  0  0  0  0  0  0  0
   36.3670   28.6230   38.6740 C   0  0  1  0  0  0  0  0  0  0  0  0
   34.9060   28.0720   40.2850 H   0  0  0  0  0  0  0  0  0  0  0  0
   37.5980   26.8490   39.1720 H   0  0  0  0  0  0  0  0  0  0  0  0
   35.8910   26.3850   38.6370 H   0  0  0  0  0  0  0  0  0  0  0  0
   37.2640   29.2330   38.5470 H   0  0  0  0  0  0  0  0  0  0  0  0
   35.4760   28.9170   36.3870 C   0  0  0  0  0  3  0  0  0  0  0  0
   35.2290   28.8130   37.7340 C   0  0  0  0  0  0  0  0  0  0  0  0
   33.9460   28.8780   38.2530 C   0  0  0  0  0  0  0  0  0  0  0  0
   33.7160   28.8000   39.3090 H   0  0  0  0  0  0  0  0  0  0  0  0
   32.9430   29.0560   37.3160 C   0  0  0  0  0  0  0  0  0  0  0  0
   31.6150   29.1590   37.4670 N   0  0  0  0  0  0  0  0  0  0  0  0
   31.0170   29.1310   38.3280 H   0  0  0  0  0  0  0  0  0  0  0  0
   30.9890   29.3230   36.3190 N   0  0  0  0  0  0  0  0  0  0  0  0
   31.9160   29.3340   35.3240 C   0  0  0  0  0  0  0  0  0  0  0  0
   31.8250   29.4440   34.2480 H   0  0  0  0  0  0  0  0  0  0  0  0
   33.1470   29.1650   35.9600 C   0  0  0  0  0  0  0  0  0  0  0  0
   34.4490   29.0930   35.4880 C   0  0  0  0  0  3  0  0  0  0  0  0
   39.3220   31.2780   41.5700 C   0  0  0  0  0  0  0  0  0  0  0  0
   39.3360   32.0230   42.3810 H   0  0  0  0  0  0  0  0  0  0  0  0
   40.3720   30.8970   41.4790 H   0  0  0  0  0  0  0  0  0  0  0  0
   38.9480   31.8900   40.2570 C   0  0  0  0  0  0  0  0  0  0  0  0
   39.2990   31.2800   39.3860 H   0  0  0  0  0  0  0  0  0  0  0  0
   37.8570   31.9570   40.1600 H   0  0  0  0  0  0  0  0  0  0  0  0
   41.6410   32.1170   38.9930 Cl  0  0  0  0  0  0  0  0  0  0  0  0
   40.7170   33.5120   39.5230 C   0  0  0  0  0  0  0  0  0  0  0  0
   39.4880   33.2650   40.0820 C   0  0  0  0  0  0  0  0  0  0  0  0
   38.7480   34.3660   40.4890 C   0  0  0  0  0  0  0  0  0  0  0  0
   39.2370   35.6540   40.3360 C   0  0  0  0  0  0  0  0  0  0  0  0
   40.4930   35.8680   39.7640 C   0  0  0  0  0  0  0  0  0  0  0  0
   41.2160   34.7790   39.3640 C   0  0  0  0  0  0  0  0  0  0  0  0
   37.7660   34.2480   40.9400 H   0  0  0  0  0  0  0  0  0  0  0  0
   38.6340   36.4910   40.6660 H   0  0  0  0  0  0  0  0  0  0  0  0
   40.8860   36.8710   39.6390 H   0  0  0  0  0  0  0  0  0  0  0  0
   42.4840   34.8940   38.7810 O   0  0  0  0  0  0  0  0  0  0  0  0
   42.6240   35.4450   37.9340 H   0  0  0  0  0  0  0  0  0  0  0  0
  1  2  1  0  0  0  0
  2  3  2  0  0  0  0
  2  7  1  0  0  0  0
  3  8  1  0  0  0  0
  4  3  1  0  0  0  0
  5  4  2  0  0  0  0
  6  5  1  0  0  0  0
  6  1  2  0  0  0  0
  9 12  1  1  0  0  0
  9  5  1  0  0  0  0
 10 13  1  0  0  0  0
 10  9  1  0  0  0  0
 11 15  1  6  0  0  0
 11 10  1  0  0  0  0
 11  9  1  0  0  0  0
 14 10  1  0  0  0  0
 16 17  1  0  0  0  0
 17 18  2  0  0  0  0
 17 11  1  0  0  0  0
 18 19  1  0  0  0  0
 20 21  1  0  0  0  0
 20 18  1  0  0  0  0
 21 22  1  0  0  0  0
 23 21  1  0  0  0  0
 24 26  1  0  0  0  0
 24 23  2  0  0  0  0
 25 24  1  0  0  0  0
 26 20  2  0  0  0  0
 27 26  1  0  0  0  0
 27 16  2  0  0  0  0
 28  1  1  0  0  0  0
 28 29  1  0  0  0  0
 30 28  1  0  0  0  0
 31 28  1  0  0  0  0
 32 31  1  0  0  0  0
 33 31  1  0  0  0  0
 34 35  1  0  0  0  0
 35 36  1  0  0  0  0
 36 31  1  0  0  0  0
 36 37  2  0  0  0  0
 37 41  1  0  0  0  0
 38 37  1  0  0  0  0
 38 42  1  0  0  0  0
 39 38  2  0  0  0  0
 40 35  2  0  0  0  0
 40 39  1  0  0  0  0
 43 39  1  0  0  0  0
 44 40  1  0  0  0  0
 45 44  1  0  0  0  0
M  END
>  <minimizedAffinity>
-6.73364115

$$$$

 OpenBabel03242519183D

 45 49  0  0  1  0  0  0  0  0999 V2000
   36.9770   26.9490   41.3000 C   0  0  0  0  0  0  0  0  0  0  0  0
   36.9730   25.9010   40.4060 C   0  0  0  0  0  0  0  0  0  0  0  0
   37.0690   26.0860   39.0250 C   0  0  0  0  0  0  0  0  0  0  0  0
   37.1680   27.3820   38.6140 N   0  0  0  0  0  0  0  0  0  0  0  0
   37.1710   28.3980   39.4900 C   0  0  0  0  0  0  0  0  0  0  0  0
   37.0770   28.1810   40.8060 N   0  0  0  0  0  0  0  0  0  0  0  0
   36.8920   24.9060   40.8070 H   0  0  0  0  0  0  0  0  0  0  0  0
   37.0630   25.2400   38.3500 H   0  0  0  0  0  0  0  0  0  0  0  0
   37.3070   29.8180   39.0510 C   0  0  2  0  0  0  0  0  0  0  0  0
   37.9560   30.1040   37.7330 C   0  0  0  0  0  0  0  0  0  0  0  0
   38.6840   30.3880   39.0530 C   0  0  1  0  0  0  0  0  0  0  0  0
   36.4600   30.4730   39.3360 H   0  0  0  0  0  0  0  0  0  0  0  0
   38.4090   29.2690   37.1610 H   0  0  0  0  0  0  0  0  0  0  0  0
   37.6170   30.9380   37.1060 H   0  0  0  0  0  0  0  0  0  0  0  0
   39.5280   29.7500   39.3290 H   0  0  0  0  0  0  0  0  0  0  0  0
   37.6040   32.5340   39.6330 C   0  0  0  0  0  3  0  0  0  0  0  0
   38.7570   31.8440   39.3470 C   0  0  0  0  0  0  0  0  0  0  0  0
   39.9970   32.4630   39.3220 C   0  0  0  0  0  0  0  0  0  0  0  0
   40.9240   31.9500   39.1000 H   0  0  0  0  0  0  0  0  0  0  0  0
   39.9810   33.8180   39.6060 C   0  0  0  0  0  0  0  0  0  0  0  0
   40.9800   34.7090   39.6670 N   0  0  0  0  0  0  0  0  0  0  0  0
   42.0120   34.5960   39.5160 H   0  0  0  0  0  0  0  0  0  0  0  0
   40.5580   35.9200   39.9710 N   0  0  0  0  0  0  0  0  0  0  0  0
   39.2080   35.8750   40.1290 C   0  0  0  0  0  0  0  0  0  0  0  0
   38.4810   36.6400   40.3770 H   0  0  0  0  0  0  0  0  0  0  0  0
   38.8500   34.5460   39.8970 C   0  0  0  0  0  0  0  0  0  0  0  0
   37.6320   33.8830   39.9100 C   0  0  0  0  0  3  0  0  0  0  0  0
   36.8890   26.7370   42.7300 C   0  0  0  0  0  0  0  0  0  0  0  0
   35.8500   26.6570   43.0870 H   0  0  0  0  0  0  0  0  0  0  0  0
   37.3760   25.7560   42.9660 H   0  0  0  0  0  0  0  0  0  0  0  0
   37.6460   27.8040   43.4550 C   0  0  0  0  0  0  0  0  0  0  0  0
   37.4640   28.8240   43.0280 H   0  0  0  0  0  0  0  0  0  0  0  0
   37.3320   27.8540   44.5050 H   0  0  0  0  0  0  0  0  0  0  0  0
   39.3470   30.0880   42.5660 Cl  0  0  0  0  0  0  0  0  0  0  0  0
   40.0130   28.5400   43.0560 C   0  0  0  0  0  0  0  0  0  0  0  0
   39.1170   27.5780   43.4500 C   0  0  0  0  0  0  0  0  0  0  0  0
   39.6400   26.3570   43.8520 C   0  0  0  0  0  0  0  0  0  0  0  0
   41.0080   26.1280   43.8510 C   0  0  0  0  0  0  0  0  0  0  0  0
   41.8890   27.1310   43.4420 C   0  0  0  0  0  0  0  0  0  0  0  0
   41.3680   28.3310   43.0490 C   0  0  0  0  0  0  0  0  0  0  0  0
   38.9920   25.5470   44.1770 H   0  0  0  0  0  0  0  0  0  0  0  0
   41.3820   25.1630   44.1700 H   0  0  0  0  0  0  0  0  0  0  0  0
   42.9610   26.9640   43.4370 H   0  0  0  0  0  0  0  0  0  0  0  0
   42.1720   29.3950   42.6230 O   0  0  0  0  0  0  0  0  0  0  0  0
   42.9010   29.7760   43.2260 H   0  0  0  0  0  0  0  0  0  0  0  0
  1 28  1  0  0  0  0
  2  7  1  0  0  0  0
  2  1  2  0  0  0  0
  3  2  1  0  0  0  0
  4  3  2  0  0  0  0
  4  5  1  0  0  0  0
  5  6  2  0  0  0  0
  6  1  1  0  0  0  0
  8  3  1  0  0  0  0
  9 11  1  0  0  0  0
  9 12  1  1  0  0  0
  9  5  1  0  0  0  0
 10  9  1  0  0  0  0
 10 11  1  0  0  0  0
 11 15  1  1  0  0  0
 11 17  1  0  0  0  0
 13 10  1  0  0  0  0
 14 10  1  0  0  0  0
 16 27  1  0  0  0  0
 17 16  2  0  0  0  0
 18 17  1  0  0  0  0
 18 20  2  0  0  0  0
 19 18  1  0  0  0  0
 20 21  1  0  0  0  0
 20 26  1  0  0  0  0
 21 23  1  0  0  0  0
 22 21  1  0  0  0  0
 23 24  2  0  0  0  0
 24 25  1  0  0  0  0
 26 27  2  0  0  0  0
 26 24  1  0  0  0  0
 28 30  1  0  0  0  0
 28 29  1  0  0  0  0
 28 31  1  0  0  0  0
 31 33  1  0  0  0  0
 32 31  1  0  0  0  0
 34 35  1  0  0  0  0
 35 36  1  0  0  0  0
 36 31  1  0  0  0  0
 36 37  2  0  0  0  0
 37 41  1  0  0  0  0
 38 37  1  0  0  0  0
 38 42  1  0  0  0  0
 39 38  2  0  0  0  0
 40 35  2  0  0  0  0
 40 39  1  0  0  0  0
 43 39  1  0  0  0  0
 44 40  1  0  0  0  0
 44 45  1  0  0  0  0
M  END
>  <minimizedAffinity>
-6.68590403

$$$$

 OpenBabel03242519183D

 45 49  0  0  1  0  0  0  0  0999 V2000
   43.2450   33.6530   40.5180 C   0  0  0  0  0  0  0  0  0  0  0  0
   44.2990   34.3280   41.0920 C   0  0  0  0  0  0  0  0  0  0  0  0
   44.7570   34.0570   42.3830 C   0  0  0  0  0  0  0  0  0  0  0  0
   44.0870   33.0720   43.0460 N   0  0  0  0  0  0  0  0  0  0  0  0
   43.0610   32.4180   42.4810 C   0  0  0  0  0  0  0  0  0  0  0  0
   42.6510   32.7070   41.2420 N   0  0  0  0  0  0  0  0  0  0  0  0
   44.7780   35.0920   40.5060 H   0  0  0  0  0  0  0  0  0  0  0  0
   45.5880   34.6060   42.8040 H   0  0  0  0  0  0  0  0  0  0  0  0
   42.3400   31.3190   43.1880 C   0  0  2  0  0  0  0  0  0  0  0  0
   43.1300   30.1590   43.7090 C   0  0  0  0  0  0  0  0  0  0  0  0
   42.2370   30.0180   42.4700 C   0  0  1  0  0  0  0  0  0  0  0  0
   41.4850   31.6520   43.8110 H   0  0  0  0  0  0  0  0  0  0  0  0
   44.2110   30.0920   43.4720 H   0  0  0  0  0  0  0  0  0  0  0  0
   42.8500   29.6590   44.6440 H   0  0  0  0  0  0  0  0  0  0  0  0
   42.7160   29.9050   41.4940 H   0  0  0  0  0  0  0  0  0  0  0  0
   41.1050   27.9220   43.1310 C   0  0  0  0  0  3  0  0  0  0  0  0
   41.0020   29.2400   42.7590 C   0  0  0  0  0  0  0  0  0  0  0  0
   39.7770   29.8760   42.6430 C   0  0  0  0  0  0  0  0  0  0  0  0
   39.6590   30.9130   42.3520 H   0  0  0  0  0  0  0  0  0  0  0  0
   38.6760   29.0860   42.9290 C   0  0  0  0  0  0  0  0  0  0  0  0
   37.3680   29.3740   42.9170 N   0  0  0  0  0  0  0  0  0  0  0  0
   36.8620   30.2650   42.6900 H   0  0  0  0  0  0  0  0  0  0  0  0
   36.6210   28.3420   43.2530 N   0  0  0  0  0  0  0  0  0  0  0  0
   37.4410   27.2870   43.5110 C   0  0  0  0  0  0  0  0  0  0  0  0
   37.2360   26.2660   43.8140 H   0  0  0  0  0  0  0  0  0  0  0  0
   38.7360   27.7640   43.3040 C   0  0  0  0  0  0  0  0  0  0  0  0
   39.9850   27.1700   43.4060 C   0  0  0  0  0  3  0  0  0  0  0  0
   42.7920   33.9400   39.1730 C   0  0  0  0  0  0  0  0  0  0  0  0
   43.5130   34.5430   38.5990 H   0  0  0  0  0  0  0  0  0  0  0  0
   42.6940   32.9660   38.6250 H   0  0  0  0  0  0  0  0  0  0  0  0
   41.4390   34.5760   39.2100 C   0  0  0  0  0  0  0  0  0  0  0  0
   41.2660   35.1610   40.1500 H   0  0  0  0  0  0  0  0  0  0  0  0
   41.3250   35.2890   38.3840 H   0  0  0  0  0  0  0  0  0  0  0  0
   38.9970   35.1100   40.8390 Cl  0  0  0  0  0  0  0  0  0  0  0  0
   39.1550   33.7100   39.7930 C   0  0  0  0  0  0  0  0  0  0  0  0
   40.3300   33.5900   39.0930 C   0  0  0  0  0  0  0  0  0  0  0  0
   40.4540   32.4920   38.2540 C   0  0  0  0  0  0  0  0  0  0  0  0
   39.4320   31.5620   38.1340 C   0  0  0  0  0  0  0  0  0  0  0  0
   38.2510   31.7170   38.8620 C   0  0  0  0  0  0  0  0  0  0  0  0
   38.1340   32.8010   39.6860 C   0  0  0  0  0  0  0  0  0  0  0  0
   41.3550   32.3310   37.6680 H   0  0  0  0  0  0  0  0  0  0  0  0
   39.5620   30.7170   37.4710 H   0  0  0  0  0  0  0  0  0  0  0  0
   37.4440   30.9970   38.7780 H   0  0  0  0  0  0  0  0  0  0  0  0
   36.9890   33.0400   40.4550 O   0  0  0  0  0  0  0  0  0  0  0  0
   36.0710   33.1270   40.0180 H   0  0  0  0  0  0  0  0  0  0  0  0
  1  2  2  0  0  0  0
  1  6  1  0  0  0  0
  2  3  1  0  0  0  0
  3  8  1  0  0  0  0
  3  4  2  0  0  0  0
  5  4  1  0  0  0  0
  5  9  1  0  0  0  0
  6  5  2  0  0  0  0
  7  2  1  0  0  0  0
  9 10  1  0  0  0  0
  9 12  1  1  0  0  0
 10 14  1  0  0  0  0
 11 15  1  6  0  0  0
 11 17  1  0  0  0  0
 11  9  1  0  0  0  0
 11 10  1  0  0  0  0
 13 10  1  0  0  0  0
 16 27  1  0  0  0  0
 17 16  2  0  0  0  0
 18 17  1  0  0  0  0
 18 20  2  0  0  0  0
 19 18  1  0  0  0  0
 20 26  1  0  0  0  0
 21 20  1  0  0  0  0
 21 23  1  0  0  0  0
 22 21  1  0  0  0  0
 23 24  2  0  0  0  0
 24 25  1  0  0  0  0
 26 27  2  0  0  0  0
 26 24  1  0  0  0  0
 28 31  1  0  0  0  0
 28  1  1  0  0  0  0
 29 28  1  0  0  0  0
 30 28  1  0  0  0  0
 31 32  1  0  0  0  0
 33 31  1  0  0  0  0
 35 34  1  0  0  0  0
 36 31  1  0  0  0  0
 36 35  2  0  0  0  0
 37 36  1  0  0  0  0
 38 37  2  0  0  0  0
 38 39  1  0  0  0  0
 39 40  2  0  0  0  0
 40 35  1  0  0  0  0
 40 44  1  0  0  0  0
 41 37  1  0  0  0  0
 42 38  1  0  0  0  0
 43 39  1  0  0  0  0
 45 44  1  0  0  0  0
M  END
>  <minimizedAffinity>
-6.67734814

$$$$

 OpenBabel03242519183D

 45 49  0  0  1  0  0  0  0  0999 V2000
   36.5670   25.8140   38.8870 C   0  0  0  0  0  0  0  0  0  0  0  0
   35.6060   25.2200   38.1000 C   0  0  0  0  0  0  0  0  0  0  0  0
   34.8130   25.9390   37.2040 C   0  0  0  0  0  0  0  0  0  0  0  0
   35.0520   27.2800   37.1580 N   0  0  0  0  0  0  0  0  0  0  0  0
   35.9900   27.8530   37.9270 C   0  0  0  0  0  0  0  0  0  0  0  0
   36.7300   27.1300   38.7750 N   0  0  0  0  0  0  0  0  0  0  0  0
   35.4760   24.1560   38.1930 H   0  0  0  0  0  0  0  0  0  0  0  0
   34.0660   25.4410   36.6000 H   0  0  0  0  0  0  0  0  0  0  0  0
   36.2780   29.3160   37.8630 C   0  0  2  0  0  0  0  0  0  0  0  0
   36.9400   29.8650   36.6380 C   0  0  0  0  0  0  0  0  0  0  0  0
   37.7100   29.7190   37.9570 C   0  0  1  0  0  0  0  0  0  0  0  0
   35.5120   29.9600   38.3400 H   0  0  0  0  0  0  0  0  0  0  0  0
   37.2910   29.1650   35.8530 H   0  0  0  0  0  0  0  0  0  0  0  0
   36.6900   30.8640   36.2600 H   0  0  0  0  0  0  0  0  0  0  0  0
   38.4800   28.9470   38.0260 H   0  0  0  0  0  0  0  0  0  0  0  0
   36.9590   31.5900   39.3870 C   0  0  0  0  0  3  0  0  0  0  0  0
   37.9480   31.0330   38.6120 C   0  0  0  0  0  0  0  0  0  0  0  0
   39.1690   31.6580   38.4180 C   0  0  0  0  0  0  0  0  0  0  0  0
   39.9680   31.2480   37.8130 H   0  0  0  0  0  0  0  0  0  0  0  0
   39.3120   32.8770   39.0600 C   0  0  0  0  0  0  0  0  0  0  0  0
   40.3430   33.7330   39.0870 N   0  0  0  0  0  0  0  0  0  0  0  0
   41.2860   33.6880   38.6300 H   0  0  0  0  0  0  0  0  0  0  0  0
   40.0930   34.7990   39.8200 N   0  0  0  0  0  0  0  0  0  0  0  0
   38.8360   34.6840   40.3270 C   0  0  0  0  0  0  0  0  0  0  0  0
   38.2510   35.3330   40.9700 H   0  0  0  0  0  0  0  0  0  0  0  0
   38.3490   33.4690   39.8430 C   0  0  0  0  0  0  0  0  0  0  0  0
   37.1430   32.8050   40.0090 C   0  0  0  0  0  3  0  0  0  0  0  0
   37.3890   25.0500   39.8030 C   0  0  0  0  0  0  0  0  0  0  0  0
   37.5050   23.9980   39.4970 H   0  0  0  0  0  0  0  0  0  0  0  0
   38.4190   25.4920   39.7950 H   0  0  0  0  0  0  0  0  0  0  0  0
   36.8560   25.1690   41.1950 C   0  0  0  0  0  0  0  0  0  0  0  0
   35.8680   25.6960   41.2320 H   0  0  0  0  0  0  0  0  0  0  0  0
   36.6860   24.1760   41.6300 H   0  0  0  0  0  0  0  0  0  0  0  0
   36.1420   27.9900   41.8550 Cl  0  0  0  0  0  0  0  0  0  0  0  0
   37.5740   27.1980   42.4890 C   0  0  0  0  0  0  0  0  0  0  0  0
   37.7790   25.8940   42.1100 C   0  0  0  0  0  0  0  0  0  0  0  0
   38.9020   25.2600   42.6200 C   0  0  0  0  0  0  0  0  0  0  0  0
   39.7750   25.9210   43.4720 C   0  0  0  0  0  0  0  0  0  0  0  0
   39.5340   27.2470   43.8350 C   0  0  0  0  0  0  0  0  0  0  0  0
   38.4250   27.8670   43.3300 C   0  0  0  0  0  0  0  0  0  0  0  0
   39.1300   24.2280   42.3650 H   0  0  0  0  0  0  0  0  0  0  0  0
   40.6420   25.3960   43.8510 H   0  0  0  0  0  0  0  0  0  0  0  0
   40.2090   27.7760   44.5000 H   0  0  0  0  0  0  0  0  0  0  0  0
   38.1020   29.1940   43.6360 O   0  0  0  0  0  0  0  0  0  0  0  0
   37.9740   29.4940   44.6030 H   0  0  0  0  0  0  0  0  0  0  0  0
  1 28  1  0  0  0  0
  2  7  1  0  0  0  0
  2  1  2  0  0  0  0
  3  2  1  0  0  0  0
  4  3  2  0  0  0  0
  4  5  1  0  0  0  0
  5  6  2  0  0  0  0
  6  1  1  0  0  0  0
  8  3  1  0  0  0  0
  9  5  1  0  0  0  0
  9 11  1  0  0  0  0
  9 12  1  1  0  0  0
 10  9  1  0  0  0  0
 10 11  1  0  0  0  0
 11 15  1  1  0  0  0
 11 17  1  0  0  0  0
 13 10  1  0  0  0  0
 14 10  1  0  0  0  0
 16 27  1  0  0  0  0
 17 16  2  0  0  0  0
 18 17  1  0  0  0  0
 18 20  2  0  0  0  0
 19 18  1  0  0  0  0
 20 21  1  0  0  0  0
 20 26  1  0  0  0  0
 21 23  1  0  0  0  0
 22 21  1  0  0  0  0
 23 24  2  0  0  0  0
 24 25  1  0  0  0  0
 26 27  2  0  0  0  0
 26 24  1  0  0  0  0
 28 31  1  0  0  0  0
 29 28  1  0  0  0  0
 30 28  1  0  0  0  0
 31 32  1  0  0  0  0
 31 33  1  0  0  0  0
 31 36  1  0  0  0  0
 34 35  1  0  0  0  0
 35 40  1  0  0  0  0
 36 35  2  0  0  0  0
 36 37  1  0  0  0  0
 37 38  2  0  0  0  0
 38 39  1  0  0  0  0
 38 42  1  0  0  0  0
 39 43  1  0  0  0  0
 40 44  1  0  0  0  0
 40 39  2  0  0  0  0
 41 37  1  0  0  0  0
 44 45  1  0  0  0  0
M  END
>  <minimizedAffinity>
-6.66979361

$$$$

 OpenBabel03242519183D

 45 49  0  0  1  0  0  0  0  0999 V2000
   38.9380   30.3440   39.1800 C   0  0  0  0  0  0  0  0  0  0  0  0
   37.6450   30.7620   38.9660 C   0  0  0  0  0  0  0  0  0  0  0  0
   37.2840   32.1100   38.9250 C   0  0  0  0  0  0  0  0  0  0  0  0
   38.3040   32.9950   39.1110 N   0  0  0  0  0  0  0  0  0  0  0  0
   39.5630   32.5800   39.3180 C   0  0  0  0  0  0  0  0  0  0  0  0
   39.8700   31.2790   39.3520 N   0  0  0  0  0  0  0  0  0  0  0  0
   36.8940   30.0040   38.8270 H   0  0  0  0  0  0  0  0  0  0  0  0
   36.2570   32.4050   38.7550 H   0  0  0  0  0  0  0  0  0  0  0  0
   40.6920   33.5410   39.4950 C   0  0  2  0  0  0  0  0  0  0  0  0
   41.5210   33.9030   38.3030 C   0  0  0  0  0  0  0  0  0  0  0  0
   42.0680   32.9790   39.3980 C   0  0  1  0  0  0  0  0  0  0  0  0
   40.4980   34.3520   40.2260 H   0  0  0  0  0  0  0  0  0  0  0  0
   41.3450   33.3780   37.3420 H   0  0  0  0  0  0  0  0  0  0  0  0
   41.9310   34.9140   38.1850 H   0  0  0  0  0  0  0  0  0  0  0  0
   42.1990   31.9190   39.1660 H   0  0  0  0  0  0  0  0  0  0  0  0
   44.4030   33.6430   39.8660 C   0  0  0  0  0  3  0  0  0  0  0  0
   43.0830   33.6600   40.2460 C   0  0  0  0  0  0  0  0  0  0  0  0
   42.6600   34.2960   41.4020 C   0  0  0  0  0  0  0  0  0  0  0  0
   41.6290   34.3280   41.7310 H   0  0  0  0  0  0  0  0  0  0  0  0
   43.6630   34.9060   42.1360 C   0  0  0  0  0  0  0  0  0  0  0  0
   43.6090   35.5960   43.2830 N   0  0  0  0  0  0  0  0  0  0  0  0
   42.7970   35.8410   43.9010 H   0  0  0  0  0  0  0  0  0  0  0  0
   44.7930   36.0240   43.6700 N   0  0  0  0  0  0  0  0  0  0  0  0
   45.7150   35.6170   42.7560 C   0  0  0  0  0  0  0  0  0  0  0  0
   46.7890   35.7550   42.6980 H   0  0  0  0  0  0  0  0  0  0  0  0
   44.9950   34.9120   41.7910 C   0  0  0  0  0  0  0  0  0  0  0  0
   45.3700   34.2620   40.6250 C   0  0  0  0  0  3  0  0  0  0  0  0
   39.2960   28.9400   39.2070 C   0  0  0  0  0  0  0  0  0  0  0  0
   38.4670   28.2820   38.9050 H   0  0  0  0  0  0  0  0  0  0  0  0
   40.1140   28.7760   38.4580 H   0  0  0  0  0  0  0  0  0  0  0  0
   39.8360   28.5730   40.5530 C   0  0  0  0  0  0  0  0  0  0  0  0
   40.6560   27.8120   40.4930 H   0  0  0  0  0  0  0  0  0  0  0  0
   40.2730   29.4510   41.0460 H   0  0  0  0  0  0  0  0  0  0  0  0
   39.0790   30.2840   42.8780 Cl  0  0  0  0  0  0  0  0  0  0  0  0
   38.3610   28.7100   42.5800 C   0  0  0  0  0  0  0  0  0  0  0  0
   38.7960   28.0310   41.4690 C   0  0  0  0  0  0  0  0  0  0  0  0
   38.2210   26.7930   41.2220 C   0  0  0  0  0  0  0  0  0  0  0  0
   37.2520   26.2710   42.0670 C   0  0  0  0  0  0  0  0  0  0  0  0
   36.8350   26.9900   43.1880 C   0  0  0  0  0  0  0  0  0  0  0  0
   37.4050   28.2100   43.4250 C   0  0  0  0  0  0  0  0  0  0  0  0
   38.5150   26.1980   40.3610 H   0  0  0  0  0  0  0  0  0  0  0  0
   36.8250   25.3020   41.8450 H   0  0  0  0  0  0  0  0  0  0  0  0
   36.0780   26.5930   43.8560 H   0  0  0  0  0  0  0  0  0  0  0  0
   37.0510   29.0020   44.5240 O   0  0  0  0  0  0  0  0  0  0  0  0
   36.0840   29.2940   44.6720 H   0  0  0  0  0  0  0  0  0  0  0  0
  1 28  1  0  0  0  0
  1  6  1  0  0  0  0
  2  1  2  0  0  0  0
  3  2  1  0  0  0  0
  3  4  2  0  0  0  0
  4  5  1  0  0  0  0
  5  6  2  0  0  0  0
  5  9  1  0  0  0  0
  7  2  1  0  0  0  0
  8  3  1  0  0  0  0
  9 12  1  1  0  0  0
 10 11  1  0  0  0  0
 10  9  1  0  0  0  0
 11 15  1  6  0  0  0
 11  9  1  0  0  0  0
 11 17  1  0  0  0  0
 13 10  1  0  0  0  0
 14 10  1  0  0  0  0
 16 17  2  0  0  0  0
 16 27  1  0  0  0  0
 17 18  1  0  0  0  0
 18 19  1  0  0  0  0
 18 20  2  0  0  0  0
 20 21  1  0  0  0  0
 21 23  1  0  0  0  0
 21 22  1  0  0  0  0
 24 23  2  0  0  0  0
 25 24  1  0  0  0  0
 26 20  1  0  0  0  0
 26 24  1  0  0  0  0
 27 26  2  0  0  0  0
 28 31  1  0  0  0  0
 29 28  1  0  0  0  0
 30 28  1  0  0  0  0
 31 33  1  0  0  0  0
 31 36  1  0  0  0  0
 32 31  1  0  0  0  0
 35 34  1  0  0  0  0
 35 40  1  0  0  0  0
 36 35  2  0  0  0  0
 37 36  1  0  0  0  0
 37 38  2  0  0  0  0
 38 39  1  0  0  0  0
 39 40  2  0  0  0  0
 39 43  1  0  0  0  0
 40 44  1  0  0  0  0
 41 37  1  0  0  0  0
 42 38  1  0  0  0  0
 44 45  1  0  0  0  0
M  END
>  <minimizedAffinity>
-6.64785242

$$$$

 OpenBabel03242519183D

 45 49  0  0  1  0  0  0  0  0999 V2000
   37.0470   26.2040   39.6120 C   0  0  0  0  0  0  0  0  0  0  0  0
   36.4950   25.0070   40.0120 C   0  0  0  0  0  0  0  0  0  0  0  0
   36.6970   24.4700   41.2850 C   0  0  0  0  0  0  0  0  0  0  0  0
   37.4830   25.2130   42.1150 N   0  0  0  0  0  0  0  0  0  0  0  0
   38.0170   26.3780   41.7190 C   0  0  0  0  0  0  0  0  0  0  0  0
   37.8010   26.8600   40.4910 N   0  0  0  0  0  0  0  0  0  0  0  0
   35.8860   24.4780   39.3010 H   0  0  0  0  0  0  0  0  0  0  0  0
   36.2490   23.5270   41.5670 H   0  0  0  0  0  0  0  0  0  0  0  0
   38.8550   27.2120   42.6300 C   0  0  2  0  0  0  0  0  0  0  0  0
   38.2120   28.3510   43.3570 C   0  0  0  0  0  0  0  0  0  0  0  0
   39.1590   28.5980   42.1750 C   0  0  1  0  0  0  0  0  0  0  0  0
   39.6350   26.6510   43.1840 H   0  0  0  0  0  0  0  0  0  0  0  0
   37.1590   28.6130   43.1290 H   0  0  0  0  0  0  0  0  0  0  0  0
   38.5240   28.6220   44.3730 H   0  0  0  0  0  0  0  0  0  0  0  0
   38.7340   28.9590   41.2350 H   0  0  0  0  0  0  0  0  0  0  0  0
   41.4220   28.2600   43.1100 C   0  0  0  0  0  3  0  0  0  0  0  0
   40.4770   29.1270   42.6190 C   0  0  0  0  0  0  0  0  0  0  0  0
   40.7100   30.4890   42.5200 C   0  0  0  0  0  0  0  0  0  0  0  0
   39.9880   31.2000   42.1380 H   0  0  0  0  0  0  0  0  0  0  0  0
   41.9590   30.9030   42.9530 C   0  0  0  0  0  0  0  0  0  0  0  0
   42.5070   32.1250   42.9970 N   0  0  0  0  0  0  0  0  0  0  0  0
   42.1250   33.0610   42.7160 H   0  0  0  0  0  0  0  0  0  0  0  0
   43.7330   32.1100   43.4800 N   0  0  0  0  0  0  0  0  0  0  0  0
   44.0570   30.8250   43.7860 C   0  0  0  0  0  0  0  0  0  0  0  0
   44.9560   30.3820   44.2010 H   0  0  0  0  0  0  0  0  0  0  0  0
   42.9330   30.0680   43.4510 C   0  0  0  0  0  0  0  0  0  0  0  0
   42.6520   28.7120   43.5300 C   0  0  0  0  0  3  0  0  0  0  0  0
   36.8160   26.7510   38.2910 C   0  0  0  0  0  0  0  0  0  0  0  0
   37.7360   27.1280   37.8180 H   0  0  0  0  0  0  0  0  0  0  0  0
   36.4430   25.9240   37.6330 H   0  0  0  0  0  0  0  0  0  0  0  0
   35.7490   27.7990   38.3470 C   0  0  0  0  0  0  0  0  0  0  0  0
   35.0450   27.7400   37.4780 H   0  0  0  0  0  0  0  0  0  0  0  0
   35.1330   27.6740   39.2470 H   0  0  0  0  0  0  0  0  0  0  0  0
   35.4010   29.3120   40.8960 Cl  0  0  0  0  0  0  0  0  0  0  0  0
   36.1960   29.9910   39.4860 C   0  0  0  0  0  0  0  0  0  0  0  0
   36.2960   29.1830   38.3820 C   0  0  0  0  0  0  0  0  0  0  0  0
   36.9360   29.7110   37.2700 C   0  0  0  0  0  0  0  0  0  0  0  0
   37.4480   31.0000   37.2830 C   0  0  0  0  0  0  0  0  0  0  0  0
   37.3280   31.7940   38.4250 C   0  0  0  0  0  0  0  0  0  0  0  0
   36.6970   31.2670   39.5170 C   0  0  0  0  0  0  0  0  0  0  0  0
   37.0520   29.1300   36.3590 H   0  0  0  0  0  0  0  0  0  0  0  0
   37.9420   31.3810   36.3980 H   0  0  0  0  0  0  0  0  0  0  0  0
   37.7250   32.8030   38.4480 H   0  0  0  0  0  0  0  0  0  0  0  0
   36.5290   31.9870   40.7060 O   0  0  0  0  0  0  0  0  0  0  0  0
   37.3320   32.3680   41.2080 H   0  0  0  0  0  0  0  0  0  0  0  0
  1  2  2  0  0  0  0
  1  6  1  0  0  0  0
  2  3  1  0  0  0  0
  3  8  1  0  0  0  0
  3  4  2  0  0  0  0
  5  4  1  0  0  0  0
  5  9  1  0  0  0  0
  6  5  2  0  0  0  0
  7  2  1  0  0  0  0
  9 12  1  1  0  0  0
  9 10  1  0  0  0  0
 10 14  1  0  0  0  0
 11 15  1  6  0  0  0
 11 17  1  0  0  0  0
 11  9  1  0  0  0  0
 11 10  1  0  0  0  0
 13 10  1  0  0  0  0
 16 27  1  0  0  0  0
 17 16  2  0  0  0  0
 18 17  1  0  0  0  0
 18 20  2  0  0  0  0
 19 18  1  0  0  0  0
 20 21  1  0  0  0  0
 20 26  1  0  0  0  0
 21 23  1  0  0  0  0
 22 21  1  0  0  0  0
 23 24  2  0  0  0  0
 24 25  1  0  0  0  0
 26 27  2  0  0  0  0
 26 24  1  0  0  0  0
 28 31  1  0  0  0  0
 28  1  1  0  0  0  0
 29 28  1  0  0  0  0
 30 28  1  0  0  0  0
 31 36  1  0  0  0  0
 31 33  1  0  0  0  0
 32 31  1  0  0  0  0
 35 40  1  0  0  0  0
 35 34  1  0  0  0  0
 36 35  2  0  0  0  0
 37 38  2  0  0  0  0
 37 36  1  0  0  0  0
 38 39  1  0  0  0  0
 39 43  1  0  0  0  0
 39 40  2  0  0  0  0
 40 44  1  0  0  0  0
 41 37  1  0  0  0  0
 42 38  1  0  0  0  0
 44 45  1  0  0  0  0
M  END
>  <minimizedAffinity>
-6.60104704

$$$$

 OpenBabel03242519183D

 45 49  0  0  1  0  0  0  0  0999 V2000
   37.0740   30.7770   40.6650 C   0  0  0  0  0  0  0  0  0  0  0  0
   35.7950   30.3850   40.3410 C   0  0  0  0  0  0  0  0  0  0  0  0
   35.3330   29.0810   40.5290 C   0  0  0  0  0  0  0  0  0  0  0  0
   36.2390   28.2120   41.0600 N   0  0  0  0  0  0  0  0  0  0  0  0
   37.4840   28.6000   41.3750 C   0  0  0  0  0  0  0  0  0  0  0  0
   37.8900   29.8590   41.1790 N   0  0  0  0  0  0  0  0  0  0  0  0
   35.1380   31.1290   39.9260 H   0  0  0  0  0  0  0  0  0  0  0  0
   34.3210   28.8060   40.2630 H   0  0  0  0  0  0  0  0  0  0  0  0
   38.4730   27.6620   41.9830 C   0  0  2  0  0  0  0  0  0  0  0  0
   38.2570   27.2030   43.3910 C   0  0  0  0  0  0  0  0  0  0  0  0
   39.3540   28.2200   43.0480 C   0  0  1  0  0  0  0  0  0  0  0  0
   38.8950   26.9160   41.2810 H   0  0  0  0  0  0  0  0  0  0  0  0
   37.4290   27.6440   43.9830 H   0  0  0  0  0  0  0  0  0  0  0  0
   38.5310   26.1880   43.7030 H   0  0  0  0  0  0  0  0  0  0  0  0
   39.2190   29.2560   43.3660 H   0  0  0  0  0  0  0  0  0  0  0  0
   41.1070   26.9670   44.2590 C   0  0  0  0  0  3  0  0  0  0  0  0
   40.7120   27.6170   43.1150 C   0  0  0  0  0  0  0  0  0  0  0  0
   41.5420   27.7320   42.0110 C   0  0  0  0  0  0  0  0  0  0  0  0
   41.2630   28.2370   41.0950 H   0  0  0  0  0  0  0  0  0  0  0  0
   42.7890   27.1450   42.1520 C   0  0  0  0  0  0  0  0  0  0  0  0
   43.8190   27.0690   41.2980 N   0  0  0  0  0  0  0  0  0  0  0  0
   43.9310   27.4350   40.3210 H   0  0  0  0  0  0  0  0  0  0  0  0
   44.8470   26.4210   41.8060 N   0  0  0  0  0  0  0  0  0  0  0  0
   44.5230   26.0250   43.0670 C   0  0  0  0  0  0  0  0  0  0  0  0
   45.0770   25.4730   43.8190 H   0  0  0  0  0  0  0  0  0  0  0  0
   43.2230   26.4860   43.2780 C   0  0  0  0  0  0  0  0  0  0  0  0
   42.3560   26.3970   44.3570 C   0  0  0  0  0  3  0  0  0  0  0  0
   37.5320   32.1380   40.4740 C   0  0  0  0  0  0  0  0  0  0  0  0
   37.3530   32.5090   39.4530 H   0  0  0  0  0  0  0  0  0  0  0  0
   36.9390   32.8020   41.1550 H   0  0  0  0  0  0  0  0  0  0  0  0
   38.9710   32.2570   40.8660 C   0  0  0  0  0  0  0  0  0  0  0  0
   39.1260   32.1310   41.9690 H   0  0  0  0  0  0  0  0  0  0  0  0
   39.5680   31.4730   40.3840 H   0  0  0  0  0  0  0  0  0  0  0  0
   41.8910   32.2560   40.2550 Cl  0  0  0  0  0  0  0  0  0  0  0  0
   40.9040   33.7050   40.1830 C   0  0  0  0  0  0  0  0  0  0  0  0
   39.5720   33.5620   40.4810 C   0  0  0  0  0  0  0  0  0  0  0  0
   38.7860   34.7030   40.4120 C   0  0  0  0  0  0  0  0  0  0  0  0
   39.3300   35.9290   40.0580 C   0  0  0  0  0  0  0  0  0  0  0  0
   40.6900   36.0360   39.7620 C   0  0  0  0  0  0  0  0  0  0  0  0
   41.4590   34.9080   39.8310 C   0  0  0  0  0  0  0  0  0  0  0  0
   37.7220   34.6680   40.6350 H   0  0  0  0  0  0  0  0  0  0  0  0
   38.6870   36.7990   40.0140 H   0  0  0  0  0  0  0  0  0  0  0  0
   41.1270   36.9890   39.4830 H   0  0  0  0  0  0  0  0  0  0  0  0
   42.8310   34.9180   39.5520 O   0  0  0  0  0  0  0  0  0  0  0  0
   43.1820   35.2440   38.6510 H   0  0  0  0  0  0  0  0  0  0  0  0
  1  6  1  0  0  0  0
  2  3  1  0  0  0  0
  2  1  2  0  0  0  0
  3  4  2  0  0  0  0
  4  5  1  0  0  0  0
  5  9  1  0  0  0  0
  6  5  2  0  0  0  0
  7  2  1  0  0  0  0
  8  3  1  0  0  0  0
  9 12  1  6  0  0  0
  9 11  1  0  0  0  0
  9 10  1  0  0  0  0
 10 14  1  0  0  0  0
 10 13  1  0  0  0  0
 11 17  1  0  0  0  0
 11 15  1  1  0  0  0
 11 10  1  0  0  0  0
 16 27  1  0  0  0  0
 17 16  2  0  0  0  0
 18 20  2  0  0  0  0
 18 17  1  0  0  0  0
 19 18  1  0  0  0  0
 20 26  1  0  0  0  0
 21 23  1  0  0  0  0
 21 20  1  0  0  0  0
 22 21  1  0  0  0  0
 23 24  2  0  0  0  0
 24 26  1  0  0  0  0
 24 25  1  0  0  0  0
 26 27  2  0  0  0  0
 28  1  1  0  0  0  0
 28 31  1  0  0  0  0
 28 30  1  0  0  0  0
 29 28  1  0  0  0  0
 31 32  1  0  0  0  0
 33 31  1  0  0  0  0
 35 34  1  0  0  0  0
 35 36  1  0  0  0  0
 36 31  1  0  0  0  0
 37 36  2  0  0  0  0
 37 41  1  0  0  0  0
 38 37  1  0  0  0  0
 39 40  1  0  0  0  0
 39 38  2  0  0  0  0
 40 35  2  0  0  0  0
 42 38  1  0  0  0  0
 43 39  1  0  0  0  0
 44 40  1  0  0  0  0
 45 44  1  0  0  0  0
M  END
>  <minimizedAffinity>
-6.56675053

$$$$
