
 OpenBabel03242519253D

 43 47  0  0  0  0  0  0  0  0999 V2000
   47.8980   33.8070   42.9040 C   0  0  0  0  0  0  0  0  0  0  0  0
   48.5590   35.0110   42.6470 C   0  0  0  0  0  0  0  0  0  0  0  0
   49.9250   35.0160   42.3200 C   0  0  0  0  0  0  0  0  0  0  0  0
   50.5320   33.7800   42.2740 N   0  0  0  0  0  0  0  0  0  0  0  0
   49.8520   32.6230   42.5320 C   0  0  0  0  0  0  0  0  0  0  0  0
   48.5590   32.6490   42.8400 N   0  0  0  0  0  0  0  0  0  0  0  0
   48.1670   36.0190   42.6600 H   0  0  0  0  0  0  0  0  0  0  0  0
   50.4990   35.9030   42.1110 H   0  0  0  0  0  0  0  0  0  0  0  0
   46.4680   33.9360   43.2420 C   0  0  0  0  0  0  0  0  0  0  0  0
   45.7630   34.9460   42.4540 C   0  0  0  0  0  0  0  0  0  0  0  0
   45.3150   36.1310   43.2290 C   0  0  0  0  0  0  0  0  0  0  0  0
   44.5280   35.7770   44.4790 C   0  0  0  0  0  0  0  0  0  0  0  0
   44.9680   34.4950   45.1430 C   0  0  0  0  0  0  0  0  0  0  0  0
   46.3980   34.1800   44.7600 C   0  0  0  0  0  0  0  0  0  0  0  0
   46.0270   32.9040   43.1080 H   0  0  0  0  0  0  0  0  0  0  0  0
   44.8400   34.4990   41.9850 H   0  0  0  0  0  0  0  0  0  0  0  0
   46.4270   35.3100   41.6500 H   0  0  0  0  0  0  0  0  0  0  0  0
   46.0650   36.8970   43.4420 H   0  0  0  0  0  0  0  0  0  0  0  0
   44.5550   36.6560   42.5760 H   0  0  0  0  0  0  0  0  0  0  0  0
   44.7150   36.5940   45.2280 H   0  0  0  0  0  0  0  0  0  0  0  0
   43.4320   35.7800   44.3210 H   0  0  0  0  0  0  0  0  0  0  0  0
   44.8590   34.5080   46.2270 H   0  0  0  0  0  0  0  0  0  0  0  0
   44.3570   33.6810   44.6760 H   0  0  0  0  0  0  0  0  0  0  0  0
   47.0390   35.0910   44.9280 H   0  0  0  0  0  0  0  0  0  0  0  0
   46.7460   33.2960   45.3060 H   0  0  0  0  0  0  0  0  0  0  0  0
   50.6440   31.4010   42.4470 C   0  0  0  0  0  0  0  0  0  0  0  0
   51.4880   31.2830   41.3950 N   0  0  0  0  0  0  0  0  0  0  0  0
   52.1380   30.1090   41.4660 C   0  0  0  0  0  0  0  0  0  0  0  0
   51.6800   29.4860   42.5990 N   0  0  0  0  0  0  0  0  0  0  0  0
   50.7770   30.2740   43.1850 N   0  0  0  0  0  0  0  0  0  0  0  0
   52.8800   29.6660   40.8210 H   0  0  0  0  0  0  0  0  0  0  0  0
   51.4980   27.7870   44.3890 C   0  0  0  0  0  3  0  0  0  0  0  0
   52.0160   28.2250   43.1700 C   0  0  0  0  0  0  0  0  0  0  0  0
   52.8850   27.3650   42.5270 C   0  0  0  0  0  0  0  0  0  0  0  0
   53.2890   27.7010   41.5830 H   0  0  0  0  0  0  0  0  0  0  0  0
   53.2500   26.1310   43.0270 C   0  0  0  0  0  0  0  0  0  0  0  0
   54.0770   25.1870   42.5300 N   0  0  0  0  0  0  0  0  0  0  0  0
   54.5840   25.2840   41.6290 H   0  0  0  0  0  0  0  0  0  0  0  0
   54.0880   24.1820   43.3960 N   0  0  0  0  0  0  0  0  0  0  0  0
   53.2760   24.4650   44.4530 C   0  0  0  0  0  0  0  0  0  0  0  0
   53.0730   23.8580   45.3150 H   0  0  0  0  0  0  0  0  0  0  0  0
   52.7240   25.7090   44.2460 C   0  0  0  0  0  0  0  0  0  0  0  0
   51.8590   26.5560   44.8910 C   0  0  0  0  0  3  0  0  0  0  0  0
  1  9  1  0  0  0  0
  2  7  1  0  0  0  0
  2  1  2  0  0  0  0
  3  2  1  0  0  0  0
  4  3  2  0  0  0  0
  4  5  1  0  0  0  0
  5  6  2  0  0  0  0
  6  1  1  0  0  0  0
  8  3  1  0  0  0  0
  9 14  1  0  0  0  0
 10 11  1  0  0  0  0
 10  9  1  0  0  0  0
 11 18  1  0  0  0  0
 11 12  1  0  0  0  0
 12 13  1  0  0  0  0
 12 20  1  0  0  0  0
 13 22  1  0  0  0  0
 14 24  1  0  0  0  0
 14 13  1  0  0  0  0
 14 25  1  0  0  0  0
 15  9  1  0  0  0  0
 16 10  1  0  0  0  0
 17 10  1  0  0  0  0
 19 11  1  0  0  0  0
 21 12  1  0  0  0  0
 23 13  1  0  0  0  0
 26  5  1  0  0  0  0
 26 30  2  0  0  0  0
 27 28  2  0  0  0  0
 27 26  1  0  0  0  0
 28 29  1  0  0  0  0
 29 33  1  0  0  0  0
 29 30  1  0  0  0  0
 31 28  1  0  0  0  0
 32 43  1  0  0  0  0
 33 32  2  0  0  0  0
 34 36  2  0  0  0  0
 34 33  1  0  0  0  0
 35 34  1  0  0  0  0
 36 42  1  0  0  0  0
 37 36  1  0  0  0  0
 37 39  1  0  0  0  0
 38 37  1  0  0  0  0
 39 40  2  0  0  0  0
 40 41  1  0  0  0  0
 42 40  1  0  0  0  0
 42 43  2  0  0  0  0
M  END
>  <minimizedAffinity>
-4.19809914

>  <minimizedRMSD>
0.708224416

$$$$
