
 OpenBabel03252508313D

 35 38  0  0  1  0  0  0  0  0999 V2000
   44.3510   34.4990   41.8250 N   0  0  0  0  0  0  0  0  0  0  0  0
   44.7270   33.4350   40.9750 C   0  0  1  0  0  0  0  0  0  0  0  0
   44.2890   33.5490   39.5620 C   0  0  0  0  0  0  0  0  0  0  0  0
   43.0110   34.0890   39.3610 N   0  0  0  0  0  0  0  0  0  0  0  0
   42.5820   35.0970   40.2460 C   0  0  0  0  0  0  0  0  0  0  0  0
   43.6940   35.5770   41.1390 C   0  0  0  0  0  0  0  0  0  0  0  0
   44.2560   32.5010   41.3810 H   0  0  0  0  0  0  0  0  0  0  0  0
   44.3640   32.5610   39.0610 H   0  0  0  0  0  0  0  0  0  0  0  0
   45.0310   34.2280   39.0490 H   0  0  0  0  0  0  0  0  0  0  0  0
   42.6490   34.0650   38.4120 H   0  0  0  0  0  0  0  0  0  0  0  0
   41.7340   34.7840   40.9180 H   0  0  0  0  0  0  0  0  0  0  0  0
   42.1900   35.9630   39.6810 H   0  0  0  0  0  0  0  0  0  0  0  0
   44.4590   36.1640   40.5670 H   0  0  0  0  0  0  0  0  0  0  0  0
   43.2120   36.3050   41.8240 H   0  0  0  0  0  0  0  0  0  0  0  0
   46.9810   34.2600   40.6720 C   0  0  0  0  0  3  0  0  0  0  0  0
   46.2070   33.1460   40.9720 C   0  0  0  0  0  0  0  0  0  0  0  0
   46.8680   31.9620   41.2050 C   0  0  0  0  0  0  0  0  0  0  0  0
   46.1740   31.1440   41.4310 H   0  0  0  0  0  0  0  0  0  0  0  0
   48.2180   31.8910   41.1430 C   0  0  0  0  0  0  0  0  0  0  0  0
   48.9780   30.8100   41.3460 N   0  0  0  0  0  0  0  0  0  0  0  0
   48.7310   29.8130   41.5880 H   0  0  0  0  0  0  0  0  0  0  0  0
   50.2340   31.1650   41.1930 N   0  0  0  0  0  0  0  0  0  0  0  0
   50.2950   32.4610   40.8930 C   0  0  0  0  0  0  0  0  0  0  0  0
   51.1740   33.0830   40.7000 H   0  0  0  0  0  0  0  0  0  0  0  0
   49.0110   32.9800   40.8480 C   0  0  0  0  0  0  0  0  0  0  0  0
   48.3760   34.1650   40.6140 C   0  0  0  0  0  3  0  0  0  0  0  0
   44.3510   35.5680   43.9620 C   0  0  0  0  0  0  0  0  0  0  0  0
   44.6460   34.4130   43.2050 C   0  0  0  0  0  0  0  0  0  0  0  0
   45.1900   33.3230   43.8560 C   0  0  0  0  0  0  0  0  0  0  0  0
   45.4350   33.3680   45.1920 N   0  0  0  0  0  0  0  0  0  0  0  0
   45.1400   34.4960   45.9060 C   0  0  0  0  0  0  0  0  0  0  0  0
   44.6090   35.5730   45.2940 N   0  0  0  0  0  0  0  0  0  0  0  0
   43.9320   36.5090   43.6480 H   0  0  0  0  0  0  0  0  0  0  0  0
   45.4070   32.4470   43.2820 H   0  0  0  0  0  0  0  0  0  0  0  0
   45.3450   34.5090   46.9760 H   0  0  0  0  0  0  0  0  0  0  0  0
  1 28  1  0  0  0  0
  2  7  1  1  0  0  0
  2  1  1  0  0  0  0
  3  2  1  0  0  0  0
  4  3  1  0  0  0  0
  4  5  1  0  0  0  0
  5 11  1  0  0  0  0
  5  6  1  0  0  0  0
  6 14  1  0  0  0  0
  6  1  1  0  0  0  0
  8  3  1  0  0  0  0
  9  3  1  0  0  0  0
 10  4  1  0  0  0  0
 12  5  1  0  0  0  0
 13  6  1  0  0  0  0
 15 16  1  0  0  0  0
 16  2  1  0  0  0  0
 16 17  2  0  0  0  0
 17 18  1  0  0  0  0
 19 17  1  0  0  0  0
 19 20  1  0  0  0  0
 20 21  1  0  0  0  0
 22 20  1  0  0  0  0
 23 22  2  0  0  0  0
 24 23  1  0  0  0  0
 25 23  1  0  0  0  0
 25 19  2  0  0  0  0
 26 15  2  0  0  0  0
 26 25  1  0  0  0  0
 27 32  1  0  0  0  0
 28 29  1  0  0  0  0
 28 27  2  0  0  0  0
 29 30  2  0  0  0  0
 30 31  1  0  0  0  0
 31 35  1  0  0  0  0
 32 31  2  0  0  0  0
 33 27  1  0  0  0  0
 34 29  1  0  0  0  0
M  END
>  <minimizedAffinity>
-4.7103467

>  <minimizedRMSD>
0.969113529

$$$$
