
 OpenBabel03252509083D

 44 48  0  0  0  0  0  0  0  0999 V2000
   47.6060   31.7200   38.9250 C   0  0  0  0  0  0  0  0  0  0  0  0
   47.1380   32.9910   38.7640 C   0  0  0  0  0  0  0  0  0  0  0  0
   47.8080   33.8700   37.9280 C   0  0  0  0  0  0  0  0  0  0  0  0
   48.9420   33.4710   37.2610 C   0  0  0  0  0  0  0  0  0  0  0  0
   49.4530   32.1820   37.3980 C   0  0  0  0  0  0  0  0  0  0  0  0
   48.7580   31.3150   38.2460 C   0  0  0  0  0  0  0  0  0  0  0  0
   47.4670   34.8710   37.7820 H   0  0  0  0  0  0  0  0  0  0  0  0
   49.5040   34.0900   36.6080 H   0  0  0  0  0  0  0  0  0  0  0  0
   50.3180   31.8070   36.9150 H   0  0  0  0  0  0  0  0  0  0  0  0
   49.1330   30.3070   38.3690 H   0  0  0  0  0  0  0  0  0  0  0  0
   44.9400   35.3500   42.7940 Cl  0  0  0  0  0  0  0  0  0  0  0  0
   44.9140   34.5650   41.2360 C   0  0  0  0  0  0  0  0  0  0  0  0
   46.0550   34.1140   40.6570 C   0  0  0  0  0  0  0  0  0  0  0  0
   45.9430   33.5070   39.4160 C   0  0  0  0  0  0  0  0  0  0  0  0
   44.7300   33.3640   38.7890 C   0  0  0  0  0  0  0  0  0  0  0  0
   43.5960   33.8190   39.3790 C   0  0  0  0  0  0  0  0  0  0  0  0
   43.6910   34.4260   40.6190 C   0  0  0  0  0  0  0  0  0  0  0  0
   44.7080   32.8840   37.8190 H   0  0  0  0  0  0  0  0  0  0  0  0
   42.6670   33.6850   38.8530 H   0  0  0  0  0  0  0  0  0  0  0  0
   42.7680   34.7760   41.0620 H   0  0  0  0  0  0  0  0  0  0  0  0
   49.3740   35.5370   41.8010 C   0  0  0  0  0  0  0  0  0  0  0  0
   48.1580   35.3750   41.1300 C   0  0  0  0  0  0  0  0  0  0  0  0
   47.3230   34.2910   41.3470 C   0  0  0  0  0  0  0  0  0  0  0  0
   47.7970   33.4280   42.2520 N   0  0  0  0  0  0  0  0  0  0  0  0
   48.9510   33.5620   42.9030 C   0  0  0  0  0  0  0  0  0  0  0  0
   49.7350   34.6080   42.6800 N   0  0  0  0  0  0  0  0  0  0  0  0
   49.9730   36.4150   41.5760 H   0  0  0  0  0  0  0  0  0  0  0  0
   47.8430   36.1340   40.4000 H   0  0  0  0  0  0  0  0  0  0  0  0
   49.1370   32.7330   43.5990 H   0  0  0  0  0  0  0  0  0  0  0  0
   46.8470   30.6120   39.9450 S   0  0  0  0  0  0  0  0  0  0  0  0
   47.1510   29.1740   39.4540 O   0  0  0  0  0  0  0  0  0  0  0  0
   47.5940   30.6860   41.2790 O   0  0  0  0  0  0  0  0  0  0  0  0
   44.1660   30.0840   39.3090 C   0  0  0  0  0  3  0  0  0  0  0  0
   45.1600   30.4830   40.1900 C   0  0  0  0  0  0  0  0  0  0  0  0
   44.5350   30.8510   41.4130 C   0  0  0  0  0  0  0  0  0  0  0  0
   45.2250   31.1940   42.2100 H   0  0  0  0  0  0  0  0  0  0  0  0
   43.1950   30.8370   41.7290 C   0  0  0  0  0  0  0  0  0  0  0  0
   42.5190   31.1610   42.8380 N   0  0  0  0  0  0  0  0  0  0  0  0
   42.9540   31.5080   43.7200 H   0  0  0  0  0  0  0  0  0  0  0  0
   41.2510   30.9480   42.5660 N   0  0  0  0  0  0  0  0  0  0  0  0
   41.1020   30.4970   41.3100 C   0  0  0  0  0  0  0  0  0  0  0  0
   40.1720   30.2340   40.8040 H   0  0  0  0  0  0  0  0  0  0  0  0
   42.3710   30.4170   40.7420 C   0  0  0  0  0  0  0  0  0  0  0  0
   42.8090   30.0250   39.4980 C   0  0  0  0  0  3  0  0  0  0  0  0
  1 30  1  0  0  0  0
  2  1  1  0  0  0  0
  2 14  1  0  0  0  0
  3  2  2  0  0  0  0
  4  5  2  0  0  0  0
  4  3  1  0  0  0  0
  5  6  1  0  0  0  0
  6 10  1  0  0  0  0
  6  1  2  0  0  0  0
  7  3  1  0  0  0  0
  8  4  1  0  0  0  0
  9  5  1  0  0  0  0
 12 11  1  0  0  0  0
 13 12  1  0  0  0  0
 13 23  1  0  0  0  0
 14 13  2  0  0  0  0
 15 16  2  0  0  0  0
 15 14  1  0  0  0  0
 16 17  1  0  0  0  0
 17 20  1  0  0  0  0
 17 12  2  0  0  0  0
 18 15  1  0  0  0  0
 19 16  1  0  0  0  0
 21 26  1  0  0  0  0
 22 23  1  0  0  0  0
 22 21  2  0  0  0  0
 23 24  2  0  0  0  0
 24 25  1  0  0  0  0
 25 29  1  0  0  0  0
 26 25  2  0  0  0  0
 27 21  1  0  0  0  0
 28 22  1  0  0  0  0
 30 34  1  0  0  0  0
 30 32  2  0  0  0  0
 31 30  2  0  0  0  0
 33 44  2  0  0  0  0
 33 34  1  0  0  0  0
 34 35  2  0  0  0  0
 35 37  1  0  0  0  0
 35 36  1  0  0  0  0
 37 38  1  0  0  0  0
 38 39  1  0  0  0  0
 40 38  1  0  0  0  0
 41 40  2  0  0  0  0
 42 41  1  0  0  0  0
 43 41  1  0  0  0  0
 43 37  2  0  0  0  0
 44 43  1  0  0  0  0
M  END
>  <minimizedAffinity>
-5.26682186

>  <minimizedRMSD>
1.33125734

$$$$
