
 OpenBabel03242522203D

 48 52  0  0  0  0  0  0  0  0999 V2000
   42.2780   34.8580   39.8350 C   0  0  0  0  0  0  0  0  0  0  0  0
   41.8260   35.0250   38.5570 C   0  0  0  0  0  0  0  0  0  0  0  0
   40.6450   34.5340   38.0240 C   0  0  0  0  0  0  0  0  0  0  0  0
   39.8770   33.8110   38.9020 C   0  0  0  0  0  0  0  0  0  0  0  0
   40.3210   33.6380   40.1890 C   0  0  0  0  0  0  0  0  0  0  0  0
   41.4670   34.1270   40.6620 N   0  0  0  0  0  0  0  0  0  0  0  0
   42.4960   35.6120   37.9240 H   0  0  0  0  0  0  0  0  0  0  0  0
   40.3830   34.7210   37.0120 H   0  0  0  0  0  0  0  0  0  0  0  0
   39.4070   32.8380   41.0470 C   0  0  0  0  0  0  0  0  0  0  0  0
   38.0750   33.2400   40.8060 F   0  0  0  0  0  0  0  0  0  0  0  0
   39.7290   32.8770   42.3750 F   0  0  0  0  0  0  0  0  0  0  0  0
   39.4390   31.5050   40.6740 F   0  0  0  0  0  0  0  0  0  0  0  0
   43.4890   35.3330   40.4680 C   0  0  0  0  0  0  0  0  0  0  0  0
   44.3590   34.7420   40.1070 H   0  0  0  0  0  0  0  0  0  0  0  0
   43.6760   36.3720   40.1170 H   0  0  0  0  0  0  0  0  0  0  0  0
   43.5170   35.3230   41.9630 C   0  0  0  0  0  0  0  0  0  0  0  0
   43.3830   36.3330   42.3930 H   0  0  0  0  0  0  0  0  0  0  0  0
   42.6520   34.7140   42.3050 H   0  0  0  0  0  0  0  0  0  0  0  0
   46.7310   33.5830   42.5630 C   0  0  0  0  0  0  0  0  0  0  0  0
   46.8480   33.8070   43.8950 C   0  0  0  0  0  0  0  0  0  0  0  0
   45.3210   34.7740   44.2480 S   0  0  0  0  0  0  0  0  0  0  0  0
   44.7720   34.7040   42.4730 C   0  0  0  0  0  0  0  0  0  0  0  0
   45.6550   34.0960   42.0460 N   0  0  0  0  0  0  0  0  0  0  0  0
   47.6390   33.4880   44.5410 H   0  0  0  0  0  0  0  0  0  0  0  0
   49.3770   32.6140   40.0650 C   0  0  0  0  0  0  0  0  0  0  0  0
   48.4590   33.4030   40.7800 C   0  0  0  0  0  0  0  0  0  0  0  0
   47.7150   32.8340   41.7640 C   0  0  0  0  0  0  0  0  0  0  0  0
   47.9240   31.4670   42.0000 N   0  0  0  0  0  0  0  0  0  0  0  0
   48.8140   30.7600   41.2880 C   0  0  0  0  0  0  0  0  0  0  0  0
   49.5410   31.3260   40.3240 N   0  0  0  0  0  0  0  0  0  0  0  0
   49.9940   33.0230   39.2710 H   0  0  0  0  0  0  0  0  0  0  0  0
   48.8220   29.7300   41.6240 H   0  0  0  0  0  0  0  0  0  0  0  0
   48.3700   34.7800   40.4140 N   0  0  0  0  0  0  0  0  0  0  0  0
   47.6830   34.7440   39.6210 H   0  0  0  0  0  0  0  0  0  0  0  0
   48.9160   35.4940   40.9130 H   0  0  0  0  0  0  0  0  0  0  0  0
   38.3270   33.1360   38.2950 S   0  0  0  0  0  0  0  0  0  0  0  0
   39.5930   30.9270   37.4790 C   0  0  0  0  0  3  0  0  0  0  0  0
   38.5640   31.8130   37.1360 C   0  0  0  0  0  0  0  0  0  0  0  0
   37.8530   31.5860   35.9690 C   0  0  0  0  0  0  0  0  0  0  0  0
   37.0880   32.3270   35.8060 H   0  0  0  0  0  0  0  0  0  0  0  0
   38.1470   30.5100   35.1580 C   0  0  0  0  0  0  0  0  0  0  0  0
   37.5690   30.1370   34.0010 N   0  0  0  0  0  0  0  0  0  0  0  0
   36.7750   30.6370   33.5330 H   0  0  0  0  0  0  0  0  0  0  0  0
   38.1690   29.0410   33.5590 N   0  0  0  0  0  0  0  0  0  0  0  0
   39.1450   28.7080   34.4470 C   0  0  0  0  0  0  0  0  0  0  0  0
   39.8360   27.8670   34.4040 H   0  0  0  0  0  0  0  0  0  0  0  0
   39.1550   29.6200   35.4670 C   0  0  0  0  0  0  0  0  0  0  0  0
   39.8460   29.8640   36.6270 C   0  0  0  0  0  3  0  0  0  0  0  0
  1 13  1  0  0  0  0
  1  6  1  0  0  0  0
  2  1  2  0  0  0  0
  3  2  1  0  0  0  0
  3  4  2  0  0  0  0
  4  5  1  0  0  0  0
  5  6  2  0  0  0  0
  5  9  1  0  0  0  0
  7  2  1  0  0  0  0
  8  3  1  0  0  0  0
  9 11  1  0  0  0  0
 10  9  1  0  0  0  0
 12  9  1  0  0  0  0
 13 16  1  0  0  0  0
 14 13  1  0  0  0  0
 15 13  1  0  0  0  0
 16 18  1  0  0  0  0
 16 17  1  0  0  0  0
 16 22  1  0  0  0  0
 19 20  2  0  0  0  0
 20 21  1  0  0  0  0
 20 24  1  0  0  0  0
 22 21  1  0  0  0  0
 23 22  2  0  0  0  0
 23 19  1  0  0  0  0
 25 30  2  0  0  0  0
 25 26  1  0  0  0  0
 26 27  2  0  0  0  0
 27 28  1  0  0  0  0
 27 19  1  0  0  0  0
 29 32  1  0  0  0  0
 29 28  2  0  0  0  0
 30 29  1  0  0  0  0
 31 25  1  0  0  0  0
 33 26  1  0  0  0  0
 33 35  1  0  0  0  0
 34 33  1  0  0  0  0
 36  4  1  0  0  0  0
 38 37  1  0  0  0  0
 38 36  1  0  0  0  0
 39 38  2  0  0  0  0
 40 39  1  0  0  0  0
 41 47  2  0  0  0  0
 41 39  1  0  0  0  0
 42 41  1  0  0  0  0
 43 42  1  0  0  0  0
 44 42  1  0  0  0  0
 44 45  2  0  0  0  0
 45 47  1  0  0  0  0
 46 45  1  0  0  0  0
 47 48  1  0  0  0  0
 48 37  2  0  0  0  0
M  END
>  <minimizedAffinity>
-5.96421576

>  <minimizedRMSD>
0.507272303

$$$$
