
 OpenBabel03242514233D

 37 41  0  0  0  0  0  0  0  0999 V2000
   45.2610   33.3130   41.0280 Cl  0  0  0  0  0  0  0  0  0  0  0  0
   46.7430   34.2450   41.0210 C   0  0  0  0  0  0  0  0  0  0  0  0
   47.1210   34.9150   42.1480 C   0  0  0  0  0  0  0  0  0  0  0  0
   48.3050   35.6670   42.1660 C   0  0  0  0  0  0  0  0  0  0  0  0
   49.0360   35.6870   41.0140 C   0  0  0  0  0  0  0  0  0  0  0  0
   48.6390   35.0020   39.8800 C   0  0  0  0  0  0  0  0  0  0  0  0
   47.4910   34.2810   39.8850 C   0  0  0  0  0  0  0  0  0  0  0  0
   48.5350   36.1700   43.1000 H   0  0  0  0  0  0  0  0  0  0  0  0
   49.9440   36.2790   41.0660 H   0  0  0  0  0  0  0  0  0  0  0  0
   49.2630   35.0570   38.9970 H   0  0  0  0  0  0  0  0  0  0  0  0
   45.7580   33.8150   45.3900 C   0  0  0  0  0  0  0  0  0  0  0  0
   44.7440   34.7720   45.6220 C   0  0  0  0  0  0  0  0  0  0  0  0
   44.5470   35.7730   44.6710 C   0  0  0  0  0  0  0  0  0  0  0  0
   45.3380   35.7750   43.5700 N   0  0  0  0  0  0  0  0  0  0  0  0
   46.2930   34.8600   43.3650 C   0  0  0  0  0  0  0  0  0  0  0  0
   46.4990   33.8880   44.2710 N   0  0  0  0  0  0  0  0  0  0  0  0
   45.8610   33.0740   46.1550 H   0  0  0  0  0  0  0  0  0  0  0  0
   44.1430   34.7140   46.5280 H   0  0  0  0  0  0  0  0  0  0  0  0
   43.7760   36.5190   44.8240 H   0  0  0  0  0  0  0  0  0  0  0  0
   47.0470   33.5460   38.7000 C   0  0  0  0  0  0  0  0  0  0  0  0
   45.8330   32.9770   38.5100 N   0  0  0  0  0  0  0  0  0  0  0  0
   45.8320   32.4030   37.2960 C   0  0  0  0  0  0  0  0  0  0  0  0
   47.0480   32.6080   36.7120 N   0  0  0  0  0  0  0  0  0  0  0  0
   47.7680   33.3090   37.5960 N   0  0  0  0  0  0  0  0  0  0  0  0
   45.0000   31.8650   36.8520 H   0  0  0  0  0  0  0  0  0  0  0  0
   48.6340   32.6300   34.8800 C   0  0  0  0  0  0  0  0  0  0  0  0
   47.4530   32.1500   35.4070 C   0  0  0  0  0  0  0  0  0  0  0  0
   46.6210   31.2530   34.7670 C   0  0  0  0  0  0  0  0  0  0  0  0
   45.6970   30.8860   35.1930 H   0  0  0  0  0  0  0  0  0  0  0  0
   46.9770   30.7870   33.5030 C   0  0  0  0  0  0  0  0  0  0  0  0
   46.4600   29.9400   32.5820 N   0  0  0  0  0  0  0  0  0  0  0  0
   45.5480   29.4320   32.7410 H   0  0  0  0  0  0  0  0  0  0  0  0
   47.2700   29.8940   31.5430 N   0  0  0  0  0  0  0  0  0  0  0  0
   48.3380   30.6830   31.7080 C   0  0  0  0  0  0  0  0  0  0  0  0
   49.1130   30.7760   30.9620 H   0  0  0  0  0  0  0  0  0  0  0  0
   48.1580   31.2620   32.9690 C   0  0  0  0  0  0  0  0  0  0  0  0
   48.9990   32.1670   33.6110 C   0  0  0  0  0  0  0  0  0  0  0  0
  2  1  1  0  0  0  0
  2  3  1  0  0  0  0
  3  4  2  0  0  0  0
  3 15  1  0  0  0  0
  4  8  1  0  0  0  0
  5  9  1  0  0  0  0
  5  4  1  0  0  0  0
  6  7  1  0  0  0  0
  6  5  2  0  0  0  0
  7  2  2  0  0  0  0
 10  6  1  0  0  0  0
 11 12  1  0  0  0  0
 11 17  1  0  0  0  0
 12 18  1  0  0  0  0
 13 19  1  0  0  0  0
 13 12  2  0  0  0  0
 14 13  1  0  0  0  0
 15 14  2  0  0  0  0
 15 16  1  0  0  0  0
 16 11  2  0  0  0  0
 20  7  1  0  0  0  0
 21 20  1  0  0  0  0
 22 21  2  0  0  0  0
 23 22  1  0  0  0  0
 23 24  1  0  0  0  0
 24 20  2  0  0  0  0
 25 22  1  0  0  0  0
 26 27  1  0  0  0  0
 27 23  1  0  0  0  0
 28 29  1  0  0  0  0
 28 27  2  0  0  0  0
 30 28  1  0  0  0  0
 31 32  1  0  0  0  0
 31 30  1  0  0  0  0
 33 34  2  0  0  0  0
 33 31  1  0  0  0  0
 34 36  1  0  0  0  0
 35 34  1  0  0  0  0
 36 30  2  0  0  0  0
 36 37  1  0  0  0  0
 37 26  2  0  0  0  0
M  END
>  <minimizedAffinity>
-7.01565504

>  <minimizedRMSD>
2.7701993

$$$$
