
 OpenBabel03252509083D

 44 48  0  0  0  0  0  0  0  0999 V2000
   47.3700   31.7450   39.2490 C   0  0  0  0  0  0  0  0  0  0  0  0
   46.9510   33.0310   39.0760 C   0  0  0  0  0  0  0  0  0  0  0  0
   47.5920   33.8460   38.1570 C   0  0  0  0  0  0  0  0  0  0  0  0
   48.6490   33.3680   37.4190 C   0  0  0  0  0  0  0  0  0  0  0  0
   49.1090   32.0610   37.5660 C   0  0  0  0  0  0  0  0  0  0  0  0
   48.4440   31.2600   38.4990 C   0  0  0  0  0  0  0  0  0  0  0  0
   47.2870   34.8570   37.9990 H   0  0  0  0  0  0  0  0  0  0  0  0
   49.1860   33.9350   36.7010 H   0  0  0  0  0  0  0  0  0  0  0  0
   49.9150   31.6280   37.0320 H   0  0  0  0  0  0  0  0  0  0  0  0
   48.7810   30.2390   38.6320 H   0  0  0  0  0  0  0  0  0  0  0  0
   45.1930   35.6420   43.1670 Cl  0  0  0  0  0  0  0  0  0  0  0  0
   45.0060   34.8010   41.6490 C   0  0  0  0  0  0  0  0  0  0  0  0
   46.0760   34.2750   41.0000 C   0  0  0  0  0  0  0  0  0  0  0  0
   45.8370   33.6290   39.7980 C   0  0  0  0  0  0  0  0  0  0  0  0
   44.5710   33.5210   39.2750 C   0  0  0  0  0  0  0  0  0  0  0  0
   43.5100   34.0520   39.9340 C   0  0  0  0  0  0  0  0  0  0  0  0
   43.7330   34.6990   41.1370 C   0  0  0  0  0  0  0  0  0  0  0  0
   44.4500   33.0060   38.3300 H   0  0  0  0  0  0  0  0  0  0  0  0
   42.5380   33.9430   39.4890 H   0  0  0  0  0  0  0  0  0  0  0  0
   42.8650   35.1090   41.6360 H   0  0  0  0  0  0  0  0  0  0  0  0
   49.5040   35.6220   41.8850 C   0  0  0  0  0  0  0  0  0  0  0  0
   48.2310   35.4950   41.3190 C   0  0  0  0  0  0  0  0  0  0  0  0
   47.4020   34.4160   41.5800 C   0  0  0  0  0  0  0  0  0  0  0  0
   47.9400   33.5220   42.4170 N   0  0  0  0  0  0  0  0  0  0  0  0
   49.1490   33.6220   42.9670 C   0  0  0  0  0  0  0  0  0  0  0  0
   49.9260   34.6640   42.7040 N   0  0  0  0  0  0  0  0  0  0  0  0
   50.0950   36.4970   41.6320 H   0  0  0  0  0  0  0  0  0  0  0  0
   47.8660   36.2780   40.6410 H   0  0  0  0  0  0  0  0  0  0  0  0
   49.3810   32.7720   43.6220 H   0  0  0  0  0  0  0  0  0  0  0  0
   46.6440   30.7130   40.3680 S   0  0  0  0  0  0  0  0  0  0  0  0
   46.7340   29.2550   39.8500 O   0  0  0  0  0  0  0  0  0  0  0  0
   47.5640   30.7010   41.5900 O   0  0  0  0  0  0  0  0  0  0  0  0
   44.4300   31.1340   42.0400 C   0  0  0  0  0  3  0  0  0  0  0  0
   45.0000   30.7530   40.8340 C   0  0  0  0  0  0  0  0  0  0  0  0
   43.9530   30.3100   39.9790 C   0  0  0  0  0  0  0  0  0  0  0  0
   44.2760   29.9740   38.9750 H   0  0  0  0  0  0  0  0  0  0  0  0
   42.6020   30.2490   40.2400 C   0  0  0  0  0  0  0  0  0  0  0  0
   41.5530   29.8530   39.5090 N   0  0  0  0  0  0  0  0  0  0  0  0
   41.6090   29.4960   38.5320 H   0  0  0  0  0  0  0  0  0  0  0  0
   40.4960   30.0140   40.2750 N   0  0  0  0  0  0  0  0  0  0  0  0
   40.8470   30.5020   41.4740 C   0  0  0  0  0  0  0  0  0  0  0  0
   40.1900   30.7390   42.3150 H   0  0  0  0  0  0  0  0  0  0  0  0
   42.2300   30.6650   41.4730 C   0  0  0  0  0  0  0  0  0  0  0  0
   43.1140   31.1220   42.4230 C   0  0  0  0  0  3  0  0  0  0  0  0
  1 30  1  0  0  0  0
  2  1  1  0  0  0  0
  2 14  1  0  0  0  0
  3  2  2  0  0  0  0
  4  5  2  0  0  0  0
  4  3  1  0  0  0  0
  5  6  1  0  0  0  0
  6 10  1  0  0  0  0
  6  1  2  0  0  0  0
  7  3  1  0  0  0  0
  8  4  1  0  0  0  0
  9  5  1  0  0  0  0
 12 11  1  0  0  0  0
 13 23  1  0  0  0  0
 13 12  2  0  0  0  0
 14 13  1  0  0  0  0
 15 14  2  0  0  0  0
 15 16  1  0  0  0  0
 16 17  2  0  0  0  0
 17 20  1  0  0  0  0
 17 12  1  0  0  0  0
 18 15  1  0  0  0  0
 19 16  1  0  0  0  0
 21 26  1  0  0  0  0
 22 23  1  0  0  0  0
 22 21  2  0  0  0  0
 23 24  2  0  0  0  0
 24 25  1  0  0  0  0
 25 29  1  0  0  0  0
 26 25  2  0  0  0  0
 27 21  1  0  0  0  0
 28 22  1  0  0  0  0
 30 34  1  0  0  0  0
 30 32  2  0  0  0  0
 31 30  2  0  0  0  0
 33 44  1  0  0  0  0
 34 33  2  0  0  0  0
 35 37  2  0  0  0  0
 35 34  1  0  0  0  0
 36 35  1  0  0  0  0
 37 43  1  0  0  0  0
 38 37  1  0  0  0  0
 38 40  1  0  0  0  0
 39 38  1  0  0  0  0
 40 41  2  0  0  0  0
 41 42  1  0  0  0  0
 43 41  1  0  0  0  0
 43 44  2  0  0  0  0
M  END
>  <minimizedAffinity>
-4.97002697

>  <minimizedRMSD>
0.884877026

$$$$
