
 OpenBabel03242522203D

 48 52  0  0  0  0  0  0  0  0999 V2000
   42.4590   34.7290   39.8280 C   0  0  0  0  0  0  0  0  0  0  0  0
   41.9640   34.7560   38.5560 C   0  0  0  0  0  0  0  0  0  0  0  0
   40.7370   34.2710   38.1320 C   0  0  0  0  0  0  0  0  0  0  0  0
   39.9690   33.7130   39.1230 C   0  0  0  0  0  0  0  0  0  0  0  0
   40.4560   33.6810   40.4050 C   0  0  0  0  0  0  0  0  0  0  0  0
   41.6450   34.1590   40.7710 N   0  0  0  0  0  0  0  0  0  0  0  0
   42.6380   35.2160   37.8290 H   0  0  0  0  0  0  0  0  0  0  0  0
   40.4430   34.3410   37.1140 H   0  0  0  0  0  0  0  0  0  0  0  0
   39.5360   33.0530   41.3910 C   0  0  0  0  0  0  0  0  0  0  0  0
   38.2030   33.2390   40.9650 F   0  0  0  0  0  0  0  0  0  0  0  0
   39.7350   33.4800   42.6740 F   0  0  0  0  0  0  0  0  0  0  0  0
   39.7070   31.6790   41.4040 F   0  0  0  0  0  0  0  0  0  0  0  0
   43.7190   35.2090   40.3520 C   0  0  0  0  0  0  0  0  0  0  0  0
   44.5140   34.4530   40.1730 H   0  0  0  0  0  0  0  0  0  0  0  0
   44.0210   36.1000   39.7570 H   0  0  0  0  0  0  0  0  0  0  0  0
   43.7510   35.5720   41.8020 C   0  0  0  0  0  0  0  0  0  0  0  0
   43.8130   36.6650   41.9610 H   0  0  0  0  0  0  0  0  0  0  0  0
   42.7890   35.2390   42.2470 H   0  0  0  0  0  0  0  0  0  0  0  0
   46.7280   33.6590   42.9000 C   0  0  0  0  0  0  0  0  0  0  0  0
   46.6250   33.8580   44.2380 C   0  0  0  0  0  0  0  0  0  0  0  0
   45.1100   34.8970   44.3480 S   0  0  0  0  0  0  0  0  0  0  0  0
   44.8690   34.8820   42.5040 C   0  0  0  0  0  0  0  0  0  0  0  0
   45.7820   34.2350   42.2200 N   0  0  0  0  0  0  0  0  0  0  0  0
   47.2780   33.4890   45.0010 H   0  0  0  0  0  0  0  0  0  0  0  0
   49.6630   32.5740   40.8060 C   0  0  0  0  0  0  0  0  0  0  0  0
   48.6710   33.3980   41.3670 C   0  0  0  0  0  0  0  0  0  0  0  0
   47.7960   32.8720   42.2630 C   0  0  0  0  0  0  0  0  0  0  0  0
   47.9510   31.5120   42.5700 N   0  0  0  0  0  0  0  0  0  0  0  0
   48.9160   30.7700   42.0050 C   0  0  0  0  0  0  0  0  0  0  0  0
   49.7710   31.2950   41.1270 N   0  0  0  0  0  0  0  0  0  0  0  0
   50.3840   32.9480   40.0870 H   0  0  0  0  0  0  0  0  0  0  0  0
   48.8640   29.7530   42.3750 H   0  0  0  0  0  0  0  0  0  0  0  0
   48.6520   34.7610   40.9460 N   0  0  0  0  0  0  0  0  0  0  0  0
   48.0740   34.7040   40.0710 H   0  0  0  0  0  0  0  0  0  0  0  0
   49.1380   35.4870   41.4870 H   0  0  0  0  0  0  0  0  0  0  0  0
   38.3600   33.0570   38.6630 S   0  0  0  0  0  0  0  0  0  0  0  0
   38.8890   31.0330   36.9980 C   0  0  0  0  0  3  0  0  0  0  0  0
   38.4120   31.3240   38.2820 C   0  0  0  0  0  0  0  0  0  0  0  0
   38.0370   30.2760   39.1060 C   0  0  0  0  0  0  0  0  0  0  0  0
   37.6880   30.6160   40.0670 H   0  0  0  0  0  0  0  0  0  0  0  0
   38.1320   28.9680   38.6770 C   0  0  0  0  0  0  0  0  0  0  0  0
   37.8170   27.8370   39.3330 N   0  0  0  0  0  0  0  0  0  0  0  0
   37.4390   27.7880   40.3100 H   0  0  0  0  0  0  0  0  0  0  0  0
   38.0650   26.8030   38.5420 N   0  0  0  0  0  0  0  0  0  0  0  0
   38.5450   27.2810   37.3620 C   0  0  0  0  0  0  0  0  0  0  0  0
   38.8530   26.7190   36.4810 H   0  0  0  0  0  0  0  0  0  0  0  0
   38.5980   28.6470   37.4190 C   0  0  0  0  0  0  0  0  0  0  0  0
   38.9620   29.7010   36.6200 C   0  0  0  0  0  3  0  0  0  0  0  0
  1 13  1  0  0  0  0
  1  6  1  0  0  0  0
  2  1  2  0  0  0  0
  3  2  1  0  0  0  0
  3  4  2  0  0  0  0
  4  5  1  0  0  0  0
  5  6  2  0  0  0  0
  5  9  1  0  0  0  0
  7  2  1  0  0  0  0
  8  3  1  0  0  0  0
  9 12  1  0  0  0  0
  9 11  1  0  0  0  0
 10  9  1  0  0  0  0
 13 16  1  0  0  0  0
 14 13  1  0  0  0  0
 15 13  1  0  0  0  0
 16 17  1  0  0  0  0
 16 18  1  0  0  0  0
 16 22  1  0  0  0  0
 19 20  2  0  0  0  0
 20 21  1  0  0  0  0
 20 24  1  0  0  0  0
 22 21  1  0  0  0  0
 23 22  2  0  0  0  0
 23 19  1  0  0  0  0
 25 30  2  0  0  0  0
 25 26  1  0  0  0  0
 26 27  2  0  0  0  0
 27 28  1  0  0  0  0
 27 19  1  0  0  0  0
 29 32  1  0  0  0  0
 29 28  2  0  0  0  0
 30 29  1  0  0  0  0
 31 25  1  0  0  0  0
 33 26  1  0  0  0  0
 33 35  1  0  0  0  0
 34 33  1  0  0  0  0
 36  4  1  0  0  0  0
 37 38  1  0  0  0  0
 38 36  1  0  0  0  0
 38 39  2  0  0  0  0
 39 40  1  0  0  0  0
 41 39  1  0  0  0  0
 41 42  1  0  0  0  0
 42 43  1  0  0  0  0
 44 42  1  0  0  0  0
 45 47  1  0  0  0  0
 45 44  2  0  0  0  0
 46 45  1  0  0  0  0
 47 41  2  0  0  0  0
 48 37  2  0  0  0  0
 48 47  1  0  0  0  0
M  END
>  <minimizedAffinity>
-5.954813

>  <minimizedRMSD>
1.14228308

$$$$
