
 OpenBabel03252509083D

 44 48  0  0  0  0  0  0  0  0999 V2000
   47.3670   31.7460   39.2500 C   0  0  0  0  0  0  0  0  0  0  0  0
   46.9480   33.0320   39.0760 C   0  0  0  0  0  0  0  0  0  0  0  0
   47.5890   33.8470   38.1570 C   0  0  0  0  0  0  0  0  0  0  0  0
   48.6460   33.3690   37.4190 C   0  0  0  0  0  0  0  0  0  0  0  0
   49.1060   32.0620   37.5660 C   0  0  0  0  0  0  0  0  0  0  0  0
   48.4420   31.2610   38.5000 C   0  0  0  0  0  0  0  0  0  0  0  0
   47.2830   34.8580   37.9980 H   0  0  0  0  0  0  0  0  0  0  0  0
   49.1820   33.9360   36.7000 H   0  0  0  0  0  0  0  0  0  0  0  0
   49.9120   31.6290   37.0330 H   0  0  0  0  0  0  0  0  0  0  0  0
   48.7790   30.2410   38.6330 H   0  0  0  0  0  0  0  0  0  0  0  0
   45.1900   35.6420   43.1670 Cl  0  0  0  0  0  0  0  0  0  0  0  0
   45.0030   34.8020   41.6500 C   0  0  0  0  0  0  0  0  0  0  0  0
   46.0720   34.2760   41.0010 C   0  0  0  0  0  0  0  0  0  0  0  0
   45.8340   33.6300   39.7980 C   0  0  0  0  0  0  0  0  0  0  0  0
   44.5690   33.5230   39.2750 C   0  0  0  0  0  0  0  0  0  0  0  0
   43.5070   34.0530   39.9330 C   0  0  0  0  0  0  0  0  0  0  0  0
   43.7300   34.7000   41.1360 C   0  0  0  0  0  0  0  0  0  0  0  0
   44.4470   33.0080   38.3300 H   0  0  0  0  0  0  0  0  0  0  0  0
   42.5350   33.9450   39.4880 H   0  0  0  0  0  0  0  0  0  0  0  0
   42.8620   35.1100   41.6360 H   0  0  0  0  0  0  0  0  0  0  0  0
   49.5020   35.6190   41.8830 C   0  0  0  0  0  0  0  0  0  0  0  0
   48.2300   35.4920   41.3170 C   0  0  0  0  0  0  0  0  0  0  0  0
   47.3990   34.4160   41.5810 C   0  0  0  0  0  0  0  0  0  0  0  0
   47.9340   33.5240   42.4220 N   0  0  0  0  0  0  0  0  0  0  0  0
   49.1430   33.6250   42.9730 C   0  0  0  0  0  0  0  0  0  0  0  0
   49.9220   34.6640   42.7060 N   0  0  0  0  0  0  0  0  0  0  0  0
   50.0950   36.4920   41.6270 H   0  0  0  0  0  0  0  0  0  0  0  0
   47.8670   36.2730   40.6350 H   0  0  0  0  0  0  0  0  0  0  0  0
   49.3730   32.7770   43.6300 H   0  0  0  0  0  0  0  0  0  0  0  0
   46.6420   30.7140   40.3690 S   0  0  0  0  0  0  0  0  0  0  0  0
   46.7330   29.2560   39.8530 O   0  0  0  0  0  0  0  0  0  0  0  0
   47.5620   30.7040   41.5920 O   0  0  0  0  0  0  0  0  0  0  0  0
   44.4280   31.1360   42.0410 C   0  0  0  0  0  3  0  0  0  0  0  0
   44.9980   30.7540   40.8350 C   0  0  0  0  0  0  0  0  0  0  0  0
   43.9520   30.3100   39.9800 C   0  0  0  0  0  0  0  0  0  0  0  0
   44.2750   29.9720   38.9760 H   0  0  0  0  0  0  0  0  0  0  0  0
   42.6010   30.2470   40.2410 C   0  0  0  0  0  0  0  0  0  0  0  0
   41.5520   29.8500   39.5100 N   0  0  0  0  0  0  0  0  0  0  0  0
   41.6090   29.4930   38.5330 H   0  0  0  0  0  0  0  0  0  0  0  0
   40.4940   30.0130   40.2760 N   0  0  0  0  0  0  0  0  0  0  0  0
   40.8460   30.5020   41.4750 C   0  0  0  0  0  0  0  0  0  0  0  0
   40.1880   30.7390   42.3150 H   0  0  0  0  0  0  0  0  0  0  0  0
   42.2280   30.6640   41.4730 C   0  0  0  0  0  0  0  0  0  0  0  0
   43.1110   31.1230   42.4230 C   0  0  0  0  0  3  0  0  0  0  0  0
  1 30  1  0  0  0  0
  2  1  1  0  0  0  0
  2 14  1  0  0  0  0
  3  2  2  0  0  0  0
  4  5  2  0  0  0  0
  4  3  1  0  0  0  0
  5  6  1  0  0  0  0
  6 10  1  0  0  0  0
  6  1  2  0  0  0  0
  7  3  1  0  0  0  0
  8  4  1  0  0  0  0
  9  5  1  0  0  0  0
 12 11  1  0  0  0  0
 13 23  1  0  0  0  0
 13 12  2  0  0  0  0
 14 13  1  0  0  0  0
 15 14  2  0  0  0  0
 15 16  1  0  0  0  0
 16 17  2  0  0  0  0
 17 20  1  0  0  0  0
 17 12  1  0  0  0  0
 18 15  1  0  0  0  0
 19 16  1  0  0  0  0
 21 26  1  0  0  0  0
 22 23  1  0  0  0  0
 22 21  2  0  0  0  0
 23 24  2  0  0  0  0
 24 25  1  0  0  0  0
 25 29  1  0  0  0  0
 26 25  2  0  0  0  0
 27 21  1  0  0  0  0
 28 22  1  0  0  0  0
 30 34  1  0  0  0  0
 30 32  2  0  0  0  0
 31 30  2  0  0  0  0
 33 44  1  0  0  0  0
 34 33  2  0  0  0  0
 35 37  2  0  0  0  0
 35 34  1  0  0  0  0
 36 35  1  0  0  0  0
 37 43  1  0  0  0  0
 38 37  1  0  0  0  0
 38 40  1  0  0  0  0
 39 38  1  0  0  0  0
 40 41  2  0  0  0  0
 41 42  1  0  0  0  0
 43 41  1  0  0  0  0
 43 44  2  0  0  0  0
M  END
>  <minimizedAffinity>
-4.96397352

>  <minimizedRMSD>
1.26753557

$$$$
