
 OpenBabel03242519253D

 43 47  0  0  0  0  0  0  0  0999 V2000
   47.8980   33.7380   42.8780 C   0  0  0  0  0  0  0  0  0  0  0  0
   48.5930   34.9390   42.7120 C   0  0  0  0  0  0  0  0  0  0  0  0
   49.9590   34.9320   42.3870 C   0  0  0  0  0  0  0  0  0  0  0  0
   50.5330   33.6860   42.2500 N   0  0  0  0  0  0  0  0  0  0  0  0
   49.8210   32.5320   42.4220 C   0  0  0  0  0  0  0  0  0  0  0  0
   48.5280   32.5700   42.7290 N   0  0  0  0  0  0  0  0  0  0  0  0
   48.2280   35.9530   42.7990 H   0  0  0  0  0  0  0  0  0  0  0  0
   50.5570   35.8150   42.2440 H   0  0  0  0  0  0  0  0  0  0  0  0
   46.4710   33.8800   43.2240 C   0  0  0  0  0  0  0  0  0  0  0  0
   45.7660   34.8780   42.4220 C   0  0  0  0  0  0  0  0  0  0  0  0
   45.3290   36.0800   43.1780 C   0  0  0  0  0  0  0  0  0  0  0  0
   44.5490   35.7540   44.4390 C   0  0  0  0  0  0  0  0  0  0  0  0
   44.9870   34.4820   45.1250 C   0  0  0  0  0  0  0  0  0  0  0  0
   46.4140   34.1530   44.7380 C   0  0  0  0  0  0  0  0  0  0  0  0
   46.0250   32.8480   43.1110 H   0  0  0  0  0  0  0  0  0  0  0  0
   44.8380   34.4280   41.9680 H   0  0  0  0  0  0  0  0  0  0  0  0
   46.4270   35.2250   41.6070 H   0  0  0  0  0  0  0  0  0  0  0  0
   46.0840   36.8460   43.3710 H   0  0  0  0  0  0  0  0  0  0  0  0
   44.5670   36.5970   42.5200 H   0  0  0  0  0  0  0  0  0  0  0  0
   44.7460   36.5830   45.1720 H   0  0  0  0  0  0  0  0  0  0  0  0
   43.4530   35.7590   44.2890 H   0  0  0  0  0  0  0  0  0  0  0  0
   44.8870   34.5150   46.2090 H   0  0  0  0  0  0  0  0  0  0  0  0
   44.3700   33.6620   44.6770 H   0  0  0  0  0  0  0  0  0  0  0  0
   47.0600   35.0630   44.8840 H   0  0  0  0  0  0  0  0  0  0  0  0
   46.7610   33.2770   45.2970 H   0  0  0  0  0  0  0  0  0  0  0  0
   50.5800   31.2980   42.2470 C   0  0  0  0  0  0  0  0  0  0  0  0
   51.5770   31.3100   41.3310 N   0  0  0  0  0  0  0  0  0  0  0  0
   52.1720   30.1060   41.2950 C   0  0  0  0  0  0  0  0  0  0  0  0
   51.5210   29.3290   42.2200 N   0  0  0  0  0  0  0  0  0  0  0  0
   50.5600   30.0590   42.7890 N   0  0  0  0  0  0  0  0  0  0  0  0
   52.9930   29.7350   40.7030 H   0  0  0  0  0  0  0  0  0  0  0  0
   50.7280   27.2020   43.2030 C   0  0  0  0  0  3  0  0  0  0  0  0
   51.7250   27.9740   42.6070 C   0  0  0  0  0  0  0  0  0  0  0  0
   52.9420   27.3540   42.4060 C   0  0  0  0  0  0  0  0  0  0  0  0
   53.7170   27.9490   41.9450 H   0  0  0  0  0  0  0  0  0  0  0  0
   53.2030   26.0450   42.7580 C   0  0  0  0  0  0  0  0  0  0  0  0
   54.3230   25.3030   42.6310 N   0  0  0  0  0  0  0  0  0  0  0  0
   55.2040   25.6600   42.2140 H   0  0  0  0  0  0  0  0  0  0  0  0
   54.0540   24.1020   43.1270 N   0  0  0  0  0  0  0  0  0  0  0  0
   52.7680   24.0570   43.5740 C   0  0  0  0  0  0  0  0  0  0  0  0
   52.2520   23.2300   44.0270 H   0  0  0  0  0  0  0  0  0  0  0  0
   52.1950   25.2900   43.3530 C   0  0  0  0  0  0  0  0  0  0  0  0
   50.9820   25.8960   43.5580 C   0  0  0  0  0  3  0  0  0  0  0  0
  1  9  1  0  0  0  0
  2  7  1  0  0  0  0
  2  1  2  0  0  0  0
  3  2  1  0  0  0  0
  4  3  2  0  0  0  0
  4  5  1  0  0  0  0
  5  6  2  0  0  0  0
  6  1  1  0  0  0  0
  8  3  1  0  0  0  0
  9 14  1  0  0  0  0
 10 11  1  0  0  0  0
 10  9  1  0  0  0  0
 11 18  1  0  0  0  0
 11 12  1  0  0  0  0
 12 13  1  0  0  0  0
 12 20  1  0  0  0  0
 13 22  1  0  0  0  0
 14 24  1  0  0  0  0
 14 13  1  0  0  0  0
 14 25  1  0  0  0  0
 15  9  1  0  0  0  0
 16 10  1  0  0  0  0
 17 10  1  0  0  0  0
 19 11  1  0  0  0  0
 21 12  1  0  0  0  0
 23 13  1  0  0  0  0
 26  5  1  0  0  0  0
 26 30  2  0  0  0  0
 27 26  1  0  0  0  0
 28 27  2  0  0  0  0
 28 29  1  0  0  0  0
 29 33  1  0  0  0  0
 29 30  1  0  0  0  0
 31 28  1  0  0  0  0
 32 43  1  0  0  0  0
 33 32  2  0  0  0  0
 34 33  1  0  0  0  0
 34 36  2  0  0  0  0
 35 34  1  0  0  0  0
 36 42  1  0  0  0  0
 37 36  1  0  0  0  0
 37 39  1  0  0  0  0
 38 37  1  0  0  0  0
 39 40  2  0  0  0  0
 40 41  1  0  0  0  0
 42 43  2  0  0  0  0
 42 40  1  0  0  0  0
M  END
>  <minimizedAffinity>
-4.15212297

>  <minimizedRMSD>
0.172830641

$$$$
