
 OpenBabel03252502453D

 34 37  0  0  1  0  0  0  0  0999 V2000
   37.1630   27.6140   40.4700 C   0  0  1  0  0  0  0  0  0  0  0  0
   35.9860   28.2970   39.8530 C   0  0  0  0  0  0  0  0  0  0  0  0
   36.5310   28.7800   41.1350 C   0  0  2  0  0  0  0  0  0  0  0  0
   38.1740   27.7180   40.0240 H   0  0  0  0  0  0  0  0  0  0  0  0
   36.2420   28.8440   38.9250 H   0  0  0  0  0  0  0  0  0  0  0  0
   35.0100   27.8070   39.7100 H   0  0  0  0  0  0  0  0  0  0  0  0
   36.1910   28.7330   42.1440 H   0  0  0  0  0  0  0  0  0  0  0  0
   38.5080   30.2100   41.5330 C   0  0  0  0  0  3  0  0  0  0  0  0
   37.2300   30.1100   41.0170 C   0  0  0  0  0  0  0  0  0  0  0  0
   36.7090   31.2680   40.4250 C   0  0  0  0  0  0  0  0  0  0  0  0
   35.6920   31.1470   40.0290 H   0  0  0  0  0  0  0  0  0  0  0  0
   37.4200   32.4310   40.3610 C   0  0  0  0  0  0  0  0  0  0  0  0
   37.0930   33.6280   39.8410 N   0  0  0  0  0  0  0  0  0  0  0  0
   36.1720   33.8440   39.3780 H   0  0  0  0  0  0  0  0  0  0  0  0
   38.1160   34.4550   40.0170 N   0  0  0  0  0  0  0  0  0  0  0  0
   39.0970   33.7820   40.6510 C   0  0  0  0  0  0  0  0  0  0  0  0
   40.0700   34.1580   40.9490 H   0  0  0  0  0  0  0  0  0  0  0  0
   38.6790   32.4880   40.8830 C   0  0  0  0  0  0  0  0  0  0  0  0
   39.2440   31.3770   41.4780 C   0  0  0  0  0  3  0  0  0  0  0  0
   36.9230   26.2820   41.1080 C   0  0  0  0  0  0  0  0  0  0  0  0
   35.8430   26.0520   40.8710 H   0  0  0  0  0  0  0  0  0  0  0  0
   37.5540   25.4780   40.7310 H   0  0  0  0  0  0  0  0  0  0  0  0
   37.1000   26.4960   42.6030 C   0  0  0  0  0  0  0  0  0  0  0  0
   36.6790   25.5660   43.1040 H   0  0  0  0  0  0  0  0  0  0  0  0
   36.7060   27.4260   42.9840 H   0  0  0  0  0  0  0  0  0  0  0  0
   40.6110   26.8500   43.8650 C   0  0  0  0  0  0  0  0  0  0  0  0
   39.2600   27.1550   43.5990 C   0  0  0  0  0  0  0  0  0  0  0  0
   38.5130   26.2010   42.9610 C   0  0  0  0  0  0  0  0  0  0  0  0
   39.0930   25.0170   42.6190 N   0  0  0  0  0  0  0  0  0  0  0  0
   40.3620   24.7470   42.8770 C   0  0  0  0  0  0  0  0  0  0  0  0
   41.1250   25.6510   43.4960 N   0  0  0  0  0  0  0  0  0  0  0  0
   41.3030   27.5110   44.3570 H   0  0  0  0  0  0  0  0  0  0  0  0
   39.0190   28.1340   43.9710 H   0  0  0  0  0  0  0  0  0  0  0  0
   40.6620   23.7650   42.5400 H   0  0  0  0  0  0  0  0  0  0  0  0
  1  4  1  6  0  0  0
  1 20  1  0  0  0  0
  1  3  1  0  0  0  0
  2  1  1  0  0  0  0
  2  3  1  0  0  0  0
  3  7  1  1  0  0  0
  5  2  1  0  0  0  0
  6  2  1  0  0  0  0
  9  3  1  0  0  0  0
  9  8  2  0  0  0  0
 10  9  1  0  0  0  0
 11 10  1  0  0  0  0
 12 10  2  0  0  0  0
 12 18  1  0  0  0  0
 13 15  1  0  0  0  0
 13 12  1  0  0  0  0
 14 13  1  0  0  0  0
 15 16  2  0  0  0  0
 16 18  1  0  0  0  0
 16 17  1  0  0  0  0
 18 19  2  0  0  0  0
 19  8  1  0  0  0  0
 20 23  1  0  0  0  0
 21 20  1  0  0  0  0
 22 20  1  0  0  0  0
 23 28  1  0  0  0  0
 23 25  1  0  0  0  0
 23 24  1  0  0  0  0
 26 32  1  0  0  0  0
 27 26  1  0  0  0  0
 27 33  1  0  0  0  0
 28 27  2  0  0  0  0
 29 30  2  0  0  0  0
 29 28  1  0  0  0  0
 30 31  1  0  0  0  0
 31 26  2  0  0  0  0
 34 30  1  0  0  0  0
M  END
>  <minimizedAffinity>
-5.78434134

$$$$

 OpenBabel03252502453D

 34 37  0  0  1  0  0  0  0  0999 V2000
   36.9230   28.9610   40.8400 C   0  0  1  0  0  0  0  0  0  0  0  0
   35.8790   29.7170   40.0860 C   0  0  0  0  0  0  0  0  0  0  0  0
   36.5410   30.3350   41.2490 C   0  0  2  0  0  0  0  0  0  0  0  0
   37.9230   28.7800   40.3930 H   0  0  0  0  0  0  0  0  0  0  0  0
   36.2060   30.0080   39.0690 H   0  0  0  0  0  0  0  0  0  0  0  0
   34.8240   29.4030   40.0340 H   0  0  0  0  0  0  0  0  0  0  0  0
   36.2270   30.5570   42.2430 H   0  0  0  0  0  0  0  0  0  0  0  0
   36.9860   32.4420   40.0340 C   0  0  0  0  0  3  0  0  0  0  0  0
   37.4740   31.4580   40.8720 C   0  0  0  0  0  0  0  0  0  0  0  0
   38.8010   31.6060   41.2950 C   0  0  0  0  0  0  0  0  0  0  0  0
   39.1500   30.8040   41.9580 H   0  0  0  0  0  0  0  0  0  0  0  0
   39.5710   32.6630   40.9030 C   0  0  0  0  0  0  0  0  0  0  0  0
   40.8460   32.9710   41.2000 N   0  0  0  0  0  0  0  0  0  0  0  0
   41.4700   32.3940   41.8230 H   0  0  0  0  0  0  0  0  0  0  0  0
   41.1590   34.1020   40.5800 N   0  0  0  0  0  0  0  0  0  0  0  0
   40.0780   34.5140   39.8860 C   0  0  0  0  0  0  0  0  0  0  0  0
   39.9900   35.4010   39.2680 H   0  0  0  0  0  0  0  0  0  0  0  0
   39.0510   33.6130   40.0750 C   0  0  0  0  0  0  0  0  0  0  0  0
   37.7480   33.5180   39.6260 C   0  0  0  0  0  3  0  0  0  0  0  0
   36.4560   27.8540   41.7320 C   0  0  0  0  0  0  0  0  0  0  0  0
   35.3770   28.1100   41.9490 H   0  0  0  0  0  0  0  0  0  0  0  0
   36.5080   26.8610   41.2890 H   0  0  0  0  0  0  0  0  0  0  0  0
   37.2870   27.9600   43.0010 C   0  0  0  0  0  0  0  0  0  0  0  0
   36.6150   27.6000   43.8460 H   0  0  0  0  0  0  0  0  0  0  0  0
   37.7440   28.9230   43.1720 H   0  0  0  0  0  0  0  0  0  0  0  0
   40.2430   25.7780   43.7450 C   0  0  0  0  0  0  0  0  0  0  0  0
   39.3800   26.8940   43.7610 C   0  0  0  0  0  0  0  0  0  0  0  0
   38.2050   26.7910   43.0660 C   0  0  0  0  0  0  0  0  0  0  0  0
   37.9200   25.6360   42.4030 N   0  0  0  0  0  0  0  0  0  0  0  0
   38.7410   24.5990   42.3990 C   0  0  0  0  0  0  0  0  0  0  0  0
   39.8980   24.6590   43.0630 N   0  0  0  0  0  0  0  0  0  0  0  0
   41.1930   25.7320   44.2480 H   0  0  0  0  0  0  0  0  0  0  0  0
   39.8000   27.6820   44.3580 H   0  0  0  0  0  0  0  0  0  0  0  0
   38.3640   23.7630   41.8250 H   0  0  0  0  0  0  0  0  0  0  0  0
  1  4  1  6  0  0  0
  1  3  1  0  0  0  0
  1 20  1  0  0  0  0
  2  1  1  0  0  0  0
  2  3  1  0  0  0  0
  3  7  1  1  0  0  0
  5  2  1  0  0  0  0
  6  2  1  0  0  0  0
  8  9  1  0  0  0  0
  9  3  1  0  0  0  0
  9 10  2  0  0  0  0
 10 11  1  0  0  0  0
 12 13  1  0  0  0  0
 12 10  1  0  0  0  0
 13 14  1  0  0  0  0
 15 13  1  0  0  0  0
 16 18  1  0  0  0  0
 16 15  2  0  0  0  0
 17 16  1  0  0  0  0
 18 12  2  0  0  0  0
 19  8  2  0  0  0  0
 19 18  1  0  0  0  0
 20 21  1  0  0  0  0
 20 23  1  0  0  0  0
 22 20  1  0  0  0  0
 23 28  1  0  0  0  0
 23 25  1  0  0  0  0
 23 24  1  0  0  0  0
 26 27  1  0  0  0  0
 26 32  1  0  0  0  0
 27 33  1  0  0  0  0
 28 27  2  0  0  0  0
 29 28  1  0  0  0  0
 30 29  2  0  0  0  0
 30 31  1  0  0  0  0
 31 26  2  0  0  0  0
 34 30  1  0  0  0  0
M  END
>  <minimizedAffinity>
-5.76759481

$$$$

 OpenBabel03252502453D

 34 37  0  0  1  0  0  0  0  0999 V2000
   37.9170   27.8360   43.0110 C   0  0  1  0  0  0  0  0  0  0  0  0
   36.5950   27.2970   43.4510 C   0  0  0  0  0  0  0  0  0  0  0  0
   36.8690   27.4980   42.0170 C   0  0  2  0  0  0  0  0  0  0  0  0
   38.8320   27.2120   43.0760 H   0  0  0  0  0  0  0  0  0  0  0  0
   36.6640   26.2740   43.8690 H   0  0  0  0  0  0  0  0  0  0  0  0
   35.8800   27.8730   44.0600 H   0  0  0  0  0  0  0  0  0  0  0  0
   36.5310   28.2070   41.2960 H   0  0  0  0  0  0  0  0  0  0  0  0
   36.5960   26.1810   39.9430 C   0  0  0  0  0  3  0  0  0  0  0  0
   37.0220   26.2060   41.2570 C   0  0  0  0  0  0  0  0  0  0  0  0
   37.5660   25.0140   41.7550 C   0  0  0  0  0  0  0  0  0  0  0  0
   37.8910   25.0750   42.8010 H   0  0  0  0  0  0  0  0  0  0  0  0
   37.6690   23.8900   40.9870 C   0  0  0  0  0  0  0  0  0  0  0  0
   38.1530   22.6710   41.2850 N   0  0  0  0  0  0  0  0  0  0  0  0
   38.5490   22.4000   42.2220 H   0  0  0  0  0  0  0  0  0  0  0  0
   38.0420   21.9020   40.2090 N   0  0  0  0  0  0  0  0  0  0  0  0
   37.4840   22.6350   39.2240 C   0  0  0  0  0  0  0  0  0  0  0  0
   37.2520   22.3140   38.2140 H   0  0  0  0  0  0  0  0  0  0  0  0
   37.2360   23.9070   39.6940 C   0  0  0  0  0  0  0  0  0  0  0  0
   36.6920   25.0550   39.1500 C   0  0  0  0  0  3  0  0  0  0  0  0
   38.1690   29.2950   43.2320 C   0  0  0  0  0  0  0  0  0  0  0  0
   37.1810   29.7860   42.9900 H   0  0  0  0  0  0  0  0  0  0  0  0
   38.4610   29.5560   44.2480 H   0  0  0  0  0  0  0  0  0  0  0  0
   39.2210   29.6980   42.2120 C   0  0  0  0  0  0  0  0  0  0  0  0
   39.0640   29.0150   41.3150 H   0  0  0  0  0  0  0  0  0  0  0  0
   40.2350   29.7240   42.5820 H   0  0  0  0  0  0  0  0  0  0  0  0
   37.1740   32.0980   40.1880 C   0  0  0  0  0  0  0  0  0  0  0  0
   37.5410   30.9290   40.8860 C   0  0  0  0  0  0  0  0  0  0  0  0
   38.7590   30.9270   41.5130 C   0  0  0  0  0  0  0  0  0  0  0  0
   39.5490   32.0340   41.4420 N   0  0  0  0  0  0  0  0  0  0  0  0
   39.1880   33.1230   40.7830 C   0  0  0  0  0  0  0  0  0  0  0  0
   38.0090   33.1650   40.1560 N   0  0  0  0  0  0  0  0  0  0  0  0
   36.2480   32.2270   39.6540 H   0  0  0  0  0  0  0  0  0  0  0  0
   36.7610   30.1940   40.8200 H   0  0  0  0  0  0  0  0  0  0  0  0
   39.9290   33.9090   40.8260 H   0  0  0  0  0  0  0  0  0  0  0  0
  1  4  1  1  0  0  0
  1 20  1  0  0  0  0
  1  2  1  0  0  0  0
  2  5  1  0  0  0  0
  2  6  1  0  0  0  0
  3  7  1  6  0  0  0
  3  1  1  0  0  0  0
  3  2  1  0  0  0  0
  8  9  1  0  0  0  0
  9 10  2  0  0  0  0
  9  3  1  0  0  0  0
 10 11  1  0  0  0  0
 12 13  1  0  0  0  0
 12 10  1  0  0  0  0
 13 14  1  0  0  0  0
 15 13  1  0  0  0  0
 16 18  1  0  0  0  0
 16 15  2  0  0  0  0
 17 16  1  0  0  0  0
 18 12  2  0  0  0  0
 19 18  1  0  0  0  0
 19  8  2  0  0  0  0
 20 22  1  0  0  0  0
 21 20  1  0  0  0  0
 23 25  1  0  0  0  0
 23 20  1  0  0  0  0
 24 23  1  0  0  0  0
 26 27  1  0  0  0  0
 27 28  2  0  0  0  0
 28 23  1  0  0  0  0
 29 28  1  0  0  0  0
 30 34  1  0  0  0  0
 30 29  2  0  0  0  0
 31 26  2  0  0  0  0
 31 30  1  0  0  0  0
 32 26  1  0  0  0  0
 33 27  1  0  0  0  0
M  END
>  <minimizedAffinity>
-5.50707436

$$$$

 OpenBabel03252502453D

 34 37  0  0  1  0  0  0  0  0999 V2000
   37.3170   27.4440   41.4760 C   0  0  1  0  0  0  0  0  0  0  0  0
   36.2720   27.8860   40.5040 C   0  0  0  0  0  0  0  0  0  0  0  0
   36.5440   28.6880   41.7100 C   0  0  2  0  0  0  0  0  0  0  0  0
   38.3940   27.5080   41.2150 H   0  0  0  0  0  0  0  0  0  0  0  0
   36.6950   28.2170   39.5360 H   0  0  0  0  0  0  0  0  0  0  0  0
   35.3520   27.3130   40.3030 H   0  0  0  0  0  0  0  0  0  0  0  0
   36.0130   28.8550   42.6190 H   0  0  0  0  0  0  0  0  0  0  0  0
   38.5430   30.1410   41.8070 C   0  0  0  0  0  3  0  0  0  0  0  0
   37.2280   29.9980   41.4080 C   0  0  0  0  0  0  0  0  0  0  0  0
   36.6560   31.0950   40.7510 C   0  0  0  0  0  0  0  0  0  0  0  0
   35.6120   30.9410   40.4510 H   0  0  0  0  0  0  0  0  0  0  0  0
   37.3570   32.2430   40.5170 C   0  0  0  0  0  0  0  0  0  0  0  0
   36.9850   33.3850   39.9110 N   0  0  0  0  0  0  0  0  0  0  0  0
   36.0290   33.5600   39.5050 H   0  0  0  0  0  0  0  0  0  0  0  0
   38.0160   34.2210   39.9230 N   0  0  0  0  0  0  0  0  0  0  0  0
   39.0470   33.6080   40.5390 C   0  0  0  0  0  0  0  0  0  0  0  0
   40.0400   34.0070   40.7190 H   0  0  0  0  0  0  0  0  0  0  0  0
   38.6540   32.3440   40.9280 C   0  0  0  0  0  0  0  0  0  0  0  0
   39.2680   31.2930   41.5800 C   0  0  0  0  0  3  0  0  0  0  0  0
   36.9810   26.2840   42.3600 C   0  0  0  0  0  0  0  0  0  0  0  0
   36.9230   26.7330   43.3950 H   0  0  0  0  0  0  0  0  0  0  0  0
   36.0380   25.7920   42.1260 H   0  0  0  0  0  0  0  0  0  0  0  0
   38.1630   25.3310   42.2660 C   0  0  0  0  0  0  0  0  0  0  0  0
   38.0200   24.5720   43.1020 H   0  0  0  0  0  0  0  0  0  0  0  0
   39.1340   25.8030   42.2520 H   0  0  0  0  0  0  0  0  0  0  0  0
   36.4200   23.0550   39.8520 C   0  0  0  0  0  0  0  0  0  0  0  0
   36.6120   24.0240   40.8580 C   0  0  0  0  0  0  0  0  0  0  0  0
   37.9030   24.3590   41.1700 C   0  0  0  0  0  0  0  0  0  0  0  0
   38.9290   23.7560   40.5080 N   0  0  0  0  0  0  0  0  0  0  0  0
   38.7300   22.8490   39.5660 C   0  0  0  0  0  0  0  0  0  0  0  0
   37.4870   22.4930   39.2330 N   0  0  0  0  0  0  0  0  0  0  0  0
   35.4600   22.7040   39.5150 H   0  0  0  0  0  0  0  0  0  0  0  0
   35.6660   24.3710   41.2280 H   0  0  0  0  0  0  0  0  0  0  0  0
   39.6500   22.4720   39.1410 H   0  0  0  0  0  0  0  0  0  0  0  0
  1  4  1  6  0  0  0
  1  3  1  0  0  0  0
  1 20  1  0  0  0  0
  2  1  1  0  0  0  0
  2  3  1  0  0  0  0
  3  7  1  1  0  0  0
  5  2  1  0  0  0  0
  6  2  1  0  0  0  0
  9  3  1  0  0  0  0
  9  8  2  0  0  0  0
 10  9  1  0  0  0  0
 11 10  1  0  0  0  0
 12 10  2  0  0  0  0
 12 18  1  0  0  0  0
 13 15  1  0  0  0  0
 13 12  1  0  0  0  0
 14 13  1  0  0  0  0
 15 16  2  0  0  0  0
 16 17  1  0  0  0  0
 16 18  1  0  0  0  0
 18 19  2  0  0  0  0
 19  8  1  0  0  0  0
 20 21  1  0  0  0  0
 22 20  1  0  0  0  0
 23 20  1  0  0  0  0
 23 24  1  0  0  0  0
 25 23  1  0  0  0  0
 26 27  1  0  0  0  0
 27 28  2  0  0  0  0
 27 33  1  0  0  0  0
 28 23  1  0  0  0  0
 29 28  1  0  0  0  0
 30 29  2  0  0  0  0
 31 30  1  0  0  0  0
 31 26  2  0  0  0  0
 32 26  1  0  0  0  0
 34 30  1  0  0  0  0
M  END
>  <minimizedAffinity>
-5.46215534

$$$$

 OpenBabel03252502453D

 34 37  0  0  1  0  0  0  0  0999 V2000
   38.8070   33.5760   40.6120 C   0  0  1  0  0  0  0  0  0  0  0  0
   37.5530   33.1340   39.9310 C   0  0  0  0  0  0  0  0  0  0  0  0
   38.6910   32.2060   40.0560 C   0  0  2  0  0  0  0  0  0  0  0  0
   38.8310   33.7210   41.7130 H   0  0  0  0  0  0  0  0  0  0  0  0
   36.6980   33.0270   40.6270 H   0  0  0  0  0  0  0  0  0  0  0  0
   37.1840   33.5820   38.9950 H   0  0  0  0  0  0  0  0  0  0  0  0
   39.4050   31.8190   39.3650 H   0  0  0  0  0  0  0  0  0  0  0  0
   39.3940   30.8330   41.9880 C   0  0  0  0  0  3  0  0  0  0  0  0
   38.4340   31.0810   41.0260 C   0  0  0  0  0  0  0  0  0  0  0  0
   37.3020   30.2550   41.0530 C   0  0  0  0  0  0  0  0  0  0  0  0
   36.5640   30.4840   40.2730 H   0  0  0  0  0  0  0  0  0  0  0  0
   37.1540   29.2610   41.9750 C   0  0  0  0  0  0  0  0  0  0  0  0
   36.1540   28.3790   42.1560 N   0  0  0  0  0  0  0  0  0  0  0  0
   35.2850   28.3340   41.5630 H   0  0  0  0  0  0  0  0  0  0  0  0
   36.4620   27.6020   43.1870 N   0  0  0  0  0  0  0  0  0  0  0  0
   37.6620   27.9910   43.6640 C   0  0  0  0  0  0  0  0  0  0  0  0
   38.2080   27.5700   44.5010 H   0  0  0  0  0  0  0  0  0  0  0  0
   38.1260   29.0480   42.9080 C   0  0  0  0  0  0  0  0  0  0  0  0
   39.2630   29.8320   42.9300 C   0  0  0  0  0  3  0  0  0  0  0  0
   39.6970   34.5180   39.8640 C   0  0  0  0  0  0  0  0  0  0  0  0
   39.8300   34.0290   38.8540 H   0  0  0  0  0  0  0  0  0  0  0  0
   39.2870   35.5180   39.7280 H   0  0  0  0  0  0  0  0  0  0  0  0
   41.0170   34.5360   40.6180 C   0  0  0  0  0  0  0  0  0  0  0  0
   41.1180   33.5080   41.0950 H   0  0  0  0  0  0  0  0  0  0  0  0
   41.1440   35.3610   41.3020 H   0  0  0  0  0  0  0  0  0  0  0  0
   42.9200   34.0690   37.4230 C   0  0  0  0  0  0  0  0  0  0  0  0
   41.8480   34.3260   38.3030 C   0  0  0  0  0  0  0  0  0  0  0  0
   42.1230   34.3300   39.6440 C   0  0  0  0  0  0  0  0  0  0  0  0
   43.3960   34.0930   40.0670 N   0  0  0  0  0  0  0  0  0  0  0  0
   44.3890   33.8530   39.2270 C   0  0  0  0  0  0  0  0  0  0  0  0
   44.1630   33.8390   37.9110 N   0  0  0  0  0  0  0  0  0  0  0  0
   42.8370   34.0360   36.3500 H   0  0  0  0  0  0  0  0  0  0  0  0
   40.9440   34.4990   37.7490 H   0  0  0  0  0  0  0  0  0  0  0  0
   45.3340   33.6870   39.7260 H   0  0  0  0  0  0  0  0  0  0  0  0
  1  4  1  1  0  0  0
  2  3  1  0  0  0  0
  2  1  1  0  0  0  0
  2  5  1  0  0  0  0
  3  7  1  6  0  0  0
  3  1  1  0  0  0  0
  3  9  1  0  0  0  0
  6  2  1  0  0  0  0
  8 19  1  0  0  0  0
  9 10  1  0  0  0  0
  9  8  2  0  0  0  0
 10 12  2  0  0  0  0
 11 10  1  0  0  0  0
 12 13  1  0  0  0  0
 12 18  1  0  0  0  0
 13 15  1  0  0  0  0
 14 13  1  0  0  0  0
 15 16  2  0  0  0  0
 16 17  1  0  0  0  0
 18 19  2  0  0  0  0
 18 16  1  0  0  0  0
 20  1  1  0  0  0  0
 20 23  1  0  0  0  0
 21 20  1  0  0  0  0
 22 20  1  0  0  0  0
 23 24  1  0  0  0  0
 23 25  1  0  0  0  0
 26 31  2  0  0  0  0
 26 27  1  0  0  0  0
 27 28  2  0  0  0  0
 28 29  1  0  0  0  0
 28 23  1  0  0  0  0
 30 34  1  0  0  0  0
 30 29  2  0  0  0  0
 31 30  1  0  0  0  0
 32 26  1  0  0  0  0
 33 27  1  0  0  0  0
M  END
>  <minimizedAffinity>
-5.45971584

$$$$

 OpenBabel03252502453D

 34 37  0  0  1  0  0  0  0  0999 V2000
   36.5960   29.3540   41.2710 C   0  0  1  0  0  0  0  0  0  0  0  0
   36.2290   30.7770   41.0070 C   0  0  0  0  0  0  0  0  0  0  0  0
   37.1600   30.0770   40.1050 C   0  0  2  0  0  0  0  0  0  0  0  0
   35.8580   28.5400   41.1080 H   0  0  0  0  0  0  0  0  0  0  0  0
   35.1740   30.9000   40.6940 H   0  0  0  0  0  0  0  0  0  0  0  0
   36.4870   31.6050   41.6880 H   0  0  0  0  0  0  0  0  0  0  0  0
   38.2110   30.1390   39.9400 H   0  0  0  0  0  0  0  0  0  0  0  0
   35.3080   29.2100   38.7140 C   0  0  0  0  0  3  0  0  0  0  0  0
   36.5650   29.7840   38.7510 C   0  0  0  0  0  0  0  0  0  0  0  0
   37.1650   30.0420   37.5120 C   0  0  0  0  0  0  0  0  0  0  0  0
   38.1610   30.4970   37.5850 H   0  0  0  0  0  0  0  0  0  0  0  0
   36.5450   29.7450   36.3330 C   0  0  0  0  0  0  0  0  0  0  0  0
   36.9560   29.9160   35.0630 N   0  0  0  0  0  0  0  0  0  0  0  0
   37.8830   30.3350   34.7880 H   0  0  0  0  0  0  0  0  0  0  0  0
   36.0050   29.4720   34.2520 N   0  0  0  0  0  0  0  0  0  0  0  0
   34.9850   29.0170   35.0080 C   0  0  0  0  0  0  0  0  0  0  0  0
   34.0510   28.5860   34.6650 H   0  0  0  0  0  0  0  0  0  0  0  0
   35.3050   29.1790   36.3400 C   0  0  0  0  0  0  0  0  0  0  0  0
   34.6650   28.9020   37.5320 C   0  0  0  0  0  3  0  0  0  0  0  0
   37.5390   29.0890   42.4020 C   0  0  0  0  0  0  0  0  0  0  0  0
   38.5080   28.8060   41.8940 H   0  0  0  0  0  0  0  0  0  0  0  0
   37.7130   29.9420   43.0580 H   0  0  0  0  0  0  0  0  0  0  0  0
   36.9700   27.8960   43.1520 C   0  0  0  0  0  0  0  0  0  0  0  0
   36.2490   27.3890   42.4320 H   0  0  0  0  0  0  0  0  0  0  0  0
   36.5500   28.1190   44.1210 H   0  0  0  0  0  0  0  0  0  0  0  0
   40.0990   25.8990   43.6720 C   0  0  0  0  0  0  0  0  0  0  0  0
   39.1610   26.9470   43.7790 C   0  0  0  0  0  0  0  0  0  0  0  0
   37.9690   26.7940   43.1210 C   0  0  0  0  0  0  0  0  0  0  0  0
   37.7410   25.6580   42.4060 N   0  0  0  0  0  0  0  0  0  0  0  0
   38.6330   24.6850   42.3160 C   0  0  0  0  0  0  0  0  0  0  0  0
   39.8080   24.7950   42.9420 N   0  0  0  0  0  0  0  0  0  0  0  0
   41.0690   25.8950   44.1380 H   0  0  0  0  0  0  0  0  0  0  0  0
   39.5470   27.7310   44.4030 H   0  0  0  0  0  0  0  0  0  0  0  0
   38.2930   23.8550   41.7120 H   0  0  0  0  0  0  0  0  0  0  0  0
  1  4  1  6  0  0  0
  1 20  1  0  0  0  0
  2  1  1  0  0  0  0
  2  6  1  0  0  0  0
  3  7  1  1  0  0  0
  3  2  1  0  0  0  0
  3  1  1  0  0  0  0
  5  2  1  0  0  0  0
  8  9  1  0  0  0  0
  9  3  1  0  0  0  0
 10 11  1  0  0  0  0
 10  9  2  0  0  0  0
 12 18  2  0  0  0  0
 12 10  1  0  0  0  0
 13 12  1  0  0  0  0
 14 13  1  0  0  0  0
 15 16  2  0  0  0  0
 15 13  1  0  0  0  0
 16 18  1  0  0  0  0
 17 16  1  0  0  0  0
 18 19  1  0  0  0  0
 19  8  2  0  0  0  0
 20 22  1  0  0  0  0
 20 23  1  0  0  0  0
 21 20  1  0  0  0  0
 23 25  1  0  0  0  0
 24 23  1  0  0  0  0
 26 27  1  0  0  0  0
 26 32  1  0  0  0  0
 27 33  1  0  0  0  0
 28 23  1  0  0  0  0
 28 27  2  0  0  0  0
 29 28  1  0  0  0  0
 30 29  2  0  0  0  0
 30 31  1  0  0  0  0
 31 26  2  0  0  0  0
 34 30  1  0  0  0  0
M  END
>  <minimizedAffinity>
-5.41878414

$$$$

 OpenBabel03252502453D

 34 37  0  0  1  0  0  0  0  0999 V2000
   38.5890   28.5400   42.8110 C   0  0  1  0  0  0  0  0  0  0  0  0
   37.5180   28.1030   43.7560 C   0  0  0  0  0  0  0  0  0  0  0  0
   37.2230   28.2330   42.3180 C   0  0  2  0  0  0  0  0  0  0  0  0
   39.4290   27.8600   42.5560 H   0  0  0  0  0  0  0  0  0  0  0  0
   37.6980   27.0940   44.1750 H   0  0  0  0  0  0  0  0  0  0  0  0
   37.1210   28.7450   44.5590 H   0  0  0  0  0  0  0  0  0  0  0  0
   36.6650   28.9350   41.7420 H   0  0  0  0  0  0  0  0  0  0  0  0
   37.0900   25.7660   42.4110 C   0  0  0  0  0  3  0  0  0  0  0  0
   37.0130   26.9060   41.6350 C   0  0  0  0  0  0  0  0  0  0  0  0
   36.7390   26.7120   40.2750 C   0  0  0  0  0  0  0  0  0  0  0  0
   36.6870   27.6410   39.6930 H   0  0  0  0  0  0  0  0  0  0  0  0
   36.5580   25.4670   39.7440 C   0  0  0  0  0  0  0  0  0  0  0  0
   36.2920   25.0870   38.4810 N   0  0  0  0  0  0  0  0  0  0  0  0
   36.1790   25.7490   37.6700 H   0  0  0  0  0  0  0  0  0  0  0  0
   36.2030   23.7630   38.4530 N   0  0  0  0  0  0  0  0  0  0  0  0
   36.4130   23.3000   39.7020 C   0  0  0  0  0  0  0  0  0  0  0  0
   36.4110   22.2670   40.0320 H   0  0  0  0  0  0  0  0  0  0  0  0
   36.6420   24.3670   40.5450 C   0  0  0  0  0  0  0  0  0  0  0  0
   36.9100   24.4990   41.8940 C   0  0  0  0  0  3  0  0  0  0  0  0
   38.9720   29.9860   42.8320 C   0  0  0  0  0  0  0  0  0  0  0  0
   37.9920   30.5300   42.9730 H   0  0  0  0  0  0  0  0  0  0  0  0
   39.6560   30.2630   43.6330 H   0  0  0  0  0  0  0  0  0  0  0  0
   39.5480   30.2870   41.4580 C   0  0  0  0  0  0  0  0  0  0  0  0
   39.1040   29.5100   40.7560 H   0  0  0  0  0  0  0  0  0  0  0  0
   40.6240   30.3640   41.4170 H   0  0  0  0  0  0  0  0  0  0  0  0
   37.0570   32.2930   39.5040 C   0  0  0  0  0  0  0  0  0  0  0  0
   37.6990   31.1820   40.0880 C   0  0  0  0  0  0  0  0  0  0  0  0
   38.7970   31.4280   40.8680 C   0  0  0  0  0  0  0  0  0  0  0  0
   39.2150   32.7120   41.0470 N   0  0  0  0  0  0  0  0  0  0  0  0
   38.6000   33.7430   40.4920 C   0  0  0  0  0  0  0  0  0  0  0  0
   37.5260   33.5460   39.7230 N   0  0  0  0  0  0  0  0  0  0  0  0
   36.1870   32.2350   38.8710 H   0  0  0  0  0  0  0  0  0  0  0  0
   37.1890   30.2740   39.8230 H   0  0  0  0  0  0  0  0  0  0  0  0
   39.0590   34.6910   40.7360 H   0  0  0  0  0  0  0  0  0  0  0  0
  1  4  1  6  0  0  0
  1 20  1  0  0  0  0
  1  2  1  0  0  0  0
  2  5  1  0  0  0  0
  2  6  1  0  0  0  0
  3  7  1  6  0  0  0
  3  1  1  0  0  0  0
  3  2  1  0  0  0  0
  9  3  1  0  0  0  0
  9  8  2  0  0  0  0
 10  9  1  0  0  0  0
 11 10  1  0  0  0  0
 12 10  2  0  0  0  0
 12 18  1  0  0  0  0
 13 12  1  0  0  0  0
 14 13  1  0  0  0  0
 15 13  1  0  0  0  0
 15 16  2  0  0  0  0
 16 17  1  0  0  0  0
 16 18  1  0  0  0  0
 18 19  2  0  0  0  0
 19  8  1  0  0  0  0
 20 21  1  0  0  0  0
 20 22  1  0  0  0  0
 23 20  1  0  0  0  0
 24 23  1  0  0  0  0
 25 23  1  0  0  0  0
 26 31  2  0  0  0  0
 26 27  1  0  0  0  0
 27 28  2  0  0  0  0
 28 29  1  0  0  0  0
 28 23  1  0  0  0  0
 30 34  1  0  0  0  0
 30 29  2  0  0  0  0
 31 30  1  0  0  0  0
 32 26  1  0  0  0  0
 33 27  1  0  0  0  0
M  END
>  <minimizedAffinity>
-5.39541245

$$$$

 OpenBabel03252502453D

 34 37  0  0  1  0  0  0  0  0999 V2000
   36.8390   29.1410   38.8340 C   0  0  1  0  0  0  0  0  0  0  0  0
   36.5270   29.8430   37.5530 C   0  0  0  0  0  0  0  0  0  0  0  0
   36.6240   30.6080   38.8090 C   0  0  2  0  0  0  0  0  0  0  0  0
   37.8560   28.7380   39.0240 H   0  0  0  0  0  0  0  0  0  0  0  0
   37.3820   29.8600   36.8500 H   0  0  0  0  0  0  0  0  0  0  0  0
   35.6060   29.6650   36.9750 H   0  0  0  0  0  0  0  0  0  0  0  0
   35.9070   31.0800   39.4410 H   0  0  0  0  0  0  0  0  0  0  0  0
   38.0660   32.1960   40.0390 C   0  0  0  0  0  3  0  0  0  0  0  0
   37.8450   31.4910   38.8720 C   0  0  0  0  0  0  0  0  0  0  0  0
   38.7910   31.6650   37.8530 C   0  0  0  0  0  0  0  0  0  0  0  0
   38.5790   31.0890   36.9430 H   0  0  0  0  0  0  0  0  0  0  0  0
   39.8720   32.4860   38.0030 C   0  0  0  0  0  0  0  0  0  0  0  0
   40.8710   32.7780   37.1510 N   0  0  0  0  0  0  0  0  0  0  0  0
   40.9610   32.3810   36.1800 H   0  0  0  0  0  0  0  0  0  0  0  0
   41.6940   33.6310   37.7480 N   0  0  0  0  0  0  0  0  0  0  0  0
   41.2160   33.8820   38.9840 C   0  0  0  0  0  0  0  0  0  0  0  0
   41.6450   34.5350   39.7360 H   0  0  0  0  0  0  0  0  0  0  0  0
   40.0530   33.1640   39.1720 C   0  0  0  0  0  0  0  0  0  0  0  0
   39.1530   33.0300   40.2100 C   0  0  0  0  0  3  0  0  0  0  0  0
   35.7460   28.3250   39.4500 C   0  0  0  0  0  0  0  0  0  0  0  0
   34.8530   28.5110   38.7840 H   0  0  0  0  0  0  0  0  0  0  0  0
   35.9470   27.2550   39.4940 H   0  0  0  0  0  0  0  0  0  0  0  0
   35.5070   28.9200   40.8290 C   0  0  0  0  0  0  0  0  0  0  0  0
   34.6870   28.2900   41.3030 H   0  0  0  0  0  0  0  0  0  0  0  0
   35.3210   29.9830   40.8450 H   0  0  0  0  0  0  0  0  0  0  0  0
   38.3890   28.8450   43.2250 C   0  0  0  0  0  0  0  0  0  0  0  0
   37.3510   29.3500   42.4140 C   0  0  0  0  0  0  0  0  0  0  0  0
   36.5770   28.4390   41.7450 C   0  0  0  0  0  0  0  0  0  0  0  0
   36.8330   27.1090   41.8900 N   0  0  0  0  0  0  0  0  0  0  0  0
   37.8110   26.6540   42.6550 C   0  0  0  0  0  0  0  0  0  0  0  0
   38.5900   27.5090   43.3230 N   0  0  0  0  0  0  0  0  0  0  0  0
   39.0670   29.4530   43.8000 H   0  0  0  0  0  0  0  0  0  0  0  0
   37.3250   30.4220   42.4640 H   0  0  0  0  0  0  0  0  0  0  0  0
   37.8780   25.5750   42.6600 H   0  0  0  0  0  0  0  0  0  0  0  0
  1  4  1  1  0  0  0
  1 20  1  0  0  0  0
  2  3  1  0  0  0  0
  2  1  1  0  0  0  0
  3  1  1  0  0  0  0
  3  9  1  0  0  0  0
  3  7  1  1  0  0  0
  5  2  1  0  0  0  0
  6  2  1  0  0  0  0
  8 19  1  0  0  0  0
  9  8  2  0  0  0  0
 10 12  2  0  0  0  0
 10  9  1  0  0  0  0
 11 10  1  0  0  0  0
 12 18  1  0  0  0  0
 13 15  1  0  0  0  0
 13 12  1  0  0  0  0
 14 13  1  0  0  0  0
 15 16  2  0  0  0  0
 16 18  1  0  0  0  0
 16 17  1  0  0  0  0
 18 19  2  0  0  0  0
 20 22  1  0  0  0  0
 20 23  1  0  0  0  0
 21 20  1  0  0  0  0
 23 25  1  0  0  0  0
 23 24  1  0  0  0  0
 23 28  1  0  0  0  0
 26 31  1  0  0  0  0
 26 32  1  0  0  0  0
 27 33  1  0  0  0  0
 27 26  2  0  0  0  0
 28 29  2  0  0  0  0
 28 27  1  0  0  0  0
 29 30  1  0  0  0  0
 30 34  1  0  0  0  0
 30 31  2  0  0  0  0
M  END
>  <minimizedAffinity>
-5.35856867

$$$$

 OpenBabel03252502453D

 34 37  0  0  1  0  0  0  0  0999 V2000
   36.9250   28.4010   41.9820 C   0  0  1  0  0  0  0  0  0  0  0  0
   36.6270   27.4920   43.1290 C   0  0  0  0  0  0  0  0  0  0  0  0
   37.5240   27.0450   42.0470 C   0  0  2  0  0  0  0  0  0  0  0  0
   37.5720   29.2930   42.1200 H   0  0  0  0  0  0  0  0  0  0  0  0
   37.0730   27.8390   44.0810 H   0  0  0  0  0  0  0  0  0  0  0  0
   35.6210   27.0950   43.3400 H   0  0  0  0  0  0  0  0  0  0  0  0
   37.4210   26.3480   41.2470 H   0  0  0  0  0  0  0  0  0  0  0  0
   39.5870   28.0940   42.9160 C   0  0  0  0  0  3  0  0  0  0  0  0
   38.9650   26.9410   42.4770 C   0  0  0  0  0  0  0  0  0  0  0  0
   39.7430   25.7770   42.4810 C   0  0  0  0  0  0  0  0  0  0  0  0
   39.2130   24.8840   42.1260 H   0  0  0  0  0  0  0  0  0  0  0  0
   41.0440   25.7780   42.8940 C   0  0  0  0  0  0  0  0  0  0  0  0
   41.9380   24.7760   42.9670 N   0  0  0  0  0  0  0  0  0  0  0  0
   41.7380   23.7780   42.6960 H   0  0  0  0  0  0  0  0  0  0  0  0
   43.0810   25.2660   43.4320 N   0  0  0  0  0  0  0  0  0  0  0  0
   42.9130   26.5850   43.6550 C   0  0  0  0  0  0  0  0  0  0  0  0
   43.6450   27.2890   44.0340 H   0  0  0  0  0  0  0  0  0  0  0  0
   41.6220   26.9380   43.3190 C   0  0  0  0  0  0  0  0  0  0  0  0
   40.9020   28.1170   43.3370 C   0  0  0  0  0  3  0  0  0  0  0  0
   35.8450   28.5960   40.9650 C   0  0  0  0  0  0  0  0  0  0  0  0
   36.2110   28.0280   40.0600 H   0  0  0  0  0  0  0  0  0  0  0  0
   34.8690   28.2130   41.2600 H   0  0  0  0  0  0  0  0  0  0  0  0
   35.8110   30.0880   40.6710 C   0  0  0  0  0  0  0  0  0  0  0  0
   36.6950   30.5360   41.2300 H   0  0  0  0  0  0  0  0  0  0  0  0
   34.8660   30.5730   40.8660 H   0  0  0  0  0  0  0  0  0  0  0  0
   37.6390   31.6310   37.7870 C   0  0  0  0  0  0  0  0  0  0  0  0
   37.1640   31.4250   39.0990 C   0  0  0  0  0  0  0  0  0  0  0  0
   36.3880   30.3190   39.3200 C   0  0  0  0  0  0  0  0  0  0  0  0
   36.1140   29.4770   38.2850 N   0  0  0  0  0  0  0  0  0  0  0  0
   36.5690   29.6860   37.0610 C   0  0  0  0  0  0  0  0  0  0  0  0
   37.3280   30.7540   36.8020 N   0  0  0  0  0  0  0  0  0  0  0  0
   38.2560   32.4600   37.4820 H   0  0  0  0  0  0  0  0  0  0  0  0
   37.5170   32.2030   39.7500 H   0  0  0  0  0  0  0  0  0  0  0  0
   36.2600   28.9230   36.3590 H   0  0  0  0  0  0  0  0  0  0  0  0
  1  3  1  0  0  0  0
  1  4  1  1  0  0  0
  1  2  1  0  0  0  0
  2  6  1  0  0  0  0
  2  5  1  0  0  0  0
  3  7  1  6  0  0  0
  3  9  1  0  0  0  0
  3  2  1  0  0  0  0
  8 19  1  0  0  0  0
  9 10  1  0  0  0  0
  9  8  2  0  0  0  0
 10 12  2  0  0  0  0
 11 10  1  0  0  0  0
 12 13  1  0  0  0  0
 12 18  1  0  0  0  0
 13 15  1  0  0  0  0
 14 13  1  0  0  0  0
 15 16  2  0  0  0  0
 16 17  1  0  0  0  0
 18 19  2  0  0  0  0
 18 16  1  0  0  0  0
 20 22  1  0  0  0  0
 20  1  1  0  0  0  0
 21 20  1  0  0  0  0
 23 25  1  0  0  0  0
 23 20  1  0  0  0  0
 23 24  1  0  0  0  0
 26 27  1  0  0  0  0
 27 28  2  0  0  0  0
 27 33  1  0  0  0  0
 28 23  1  0  0  0  0
 29 28  1  0  0  0  0
 30 29  2  0  0  0  0
 31 30  1  0  0  0  0
 31 26  2  0  0  0  0
 32 26  1  0  0  0  0
 34 30  1  0  0  0  0
M  END
>  <minimizedAffinity>
-5.34308958

$$$$
