
 OpenBabel03252509133D

 35 39  0  0  0  0  0  0  0  0999 V2000
   39.7450   30.2030   41.7810 C   0  0  0  0  0  0  0  0  0  0  0  0
   38.4270   29.8530   41.5220 C   0  0  0  0  0  0  0  0  0  0  0  0
   37.5210   30.7360   40.9960 C   0  0  0  0  0  0  0  0  0  0  0  0
   37.9040   32.0480   40.6990 C   0  0  0  0  0  0  0  0  0  0  0  0
   37.3000   33.1480   40.1910 N   0  0  0  0  0  0  0  0  0  0  0  0
   38.2090   34.1600   40.1310 C   0  0  0  0  0  0  0  0  0  0  0  0
   39.3570   33.6510   40.6080 N   0  0  0  0  0  0  0  0  0  0  0  0
   39.2150   32.3700   40.9640 C   0  0  0  0  0  0  0  0  0  0  0  0
   40.1500   31.5130   41.4890 C   0  0  0  0  0  0  0  0  0  0  0  0
   40.4620   29.4960   42.1990 H   0  0  0  0  0  0  0  0  0  0  0  0
   36.2900   33.0800   39.9300 H   0  0  0  0  0  0  0  0  0  0  0  0
   37.8480   35.0840   39.7460 H   0  0  0  0  0  0  0  0  0  0  0  0
   41.1750   31.8300   41.6760 H   0  0  0  0  0  0  0  0  0  0  0  0
   36.9940   26.9790   43.2990 C   0  0  0  0  0  0  0  0  0  0  0  0
   37.1510   25.9390   42.3780 C   0  0  0  0  0  0  0  0  0  0  0  0
   37.7490   26.2350   41.1500 C   0  0  0  0  0  0  0  0  0  0  0  0
   38.1530   27.5210   40.9060 N   0  0  0  0  0  0  0  0  0  0  0  0
   37.9840   28.4950   41.8180 C   0  0  0  0  0  0  0  0  0  0  0  0
   37.4110   28.2310   43.0060 N   0  0  0  0  0  0  0  0  0  0  0  0
   36.5280   26.7190   44.2400 H   0  0  0  0  0  0  0  0  0  0  0  0
   36.8590   24.9200   42.5060 H   0  0  0  0  0  0  0  0  0  0  0  0
   37.9380   25.5460   40.3410 H   0  0  0  0  0  0  0  0  0  0  0  0
   35.8220   30.2830   40.6600 S   0  0  0  0  0  0  0  0  0  0  0  0
   34.5540   28.8850   38.5950 C   0  0  0  0  0  3  0  0  0  0  0  0
   35.6280   29.6440   39.0100 C   0  0  0  0  0  0  0  0  0  0  0  0
   36.6270   29.9410   38.1060 C   0  0  0  0  0  0  0  0  0  0  0  0
   37.4840   30.5330   38.3950 H   0  0  0  0  0  0  0  0  0  0  0  0
   36.4840   29.4490   36.8260 C   0  0  0  0  0  0  0  0  0  0  0  0
   37.3170   29.5970   35.7590 N   0  0  0  0  0  0  0  0  0  0  0  0
   38.2340   30.0960   35.6440 H   0  0  0  0  0  0  0  0  0  0  0  0
   36.8090   28.9630   34.7040 N   0  0  0  0  0  0  0  0  0  0  0  0
   35.6430   28.3990   35.0720 C   0  0  0  0  0  0  0  0  0  0  0  0
   34.9760   27.8160   34.4620 H   0  0  0  0  0  0  0  0  0  0  0  0
   35.3990   28.6850   36.4190 C   0  0  0  0  0  0  0  0  0  0  0  0
   34.3960   28.3860   37.3180 C   0  0  0  0  0  3  0  0  0  0  0  0
  1 10  1  0  0  0  0
  2  1  1  0  0  0  0
  2 18  1  0  0  0  0
  3  2  2  0  0  0  0
  4  8  2  0  0  0  0
  4  3  1  0  0  0  0
  5  4  1  0  0  0  0
  6  5  1  0  0  0  0
  6  7  2  0  0  0  0
  7  8  1  0  0  0  0
  8  9  1  0  0  0  0
  9 13  1  0  0  0  0
  9  1  2  0  0  0  0
 11  5  1  0  0  0  0
 12  6  1  0  0  0  0
 14 20  1  0  0  0  0
 15 21  1  0  0  0  0
 15 14  2  0  0  0  0
 16 15  1  0  0  0  0
 17 16  2  0  0  0  0
 17 18  1  0  0  0  0
 18 19  2  0  0  0  0
 19 14  1  0  0  0  0
 22 16  1  0  0  0  0
 23  3  1  0  0  0  0
 24 25  1  0  0  0  0
 25 23  1  0  0  0  0
 26 27  1  0  0  0  0
 26 25  2  0  0  0  0
 28 26  1  0  0  0  0
 29 28  1  0  0  0  0
 30 29  1  0  0  0  0
 31 32  2  0  0  0  0
 31 29  1  0  0  0  0
 32 34  1  0  0  0  0
 33 32  1  0  0  0  0
 34 28  2  0  0  0  0
 34 35  1  0  0  0  0
 35 24  2  0  0  0  0
M  END
>  <minimizedAffinity>
-6.43049049

$$$$

 OpenBabel03252509133D

 35 39  0  0  0  0  0  0  0  0999 V2000
   37.5710   31.0200   37.0650 C   0  0  0  0  0  0  0  0  0  0  0  0
   37.4060   31.1110   38.4410 C   0  0  0  0  0  0  0  0  0  0  0  0
   36.5020   30.3430   39.1270 C   0  0  0  0  0  0  0  0  0  0  0  0
   35.6970   29.4230   38.4470 C   0  0  0  0  0  0  0  0  0  0  0  0
   34.7340   28.5340   38.7850 N   0  0  0  0  0  0  0  0  0  0  0  0
   34.3040   27.9010   37.6580 C   0  0  0  0  0  0  0  0  0  0  0  0
   35.0200   28.4230   36.6490 N   0  0  0  0  0  0  0  0  0  0  0  0
   35.8790   29.3520   37.0840 C   0  0  0  0  0  0  0  0  0  0  0  0
   36.7740   30.1030   36.3650 C   0  0  0  0  0  0  0  0  0  0  0  0
   38.2920   31.6320   36.5260 H   0  0  0  0  0  0  0  0  0  0  0  0
   34.4670   28.4560   39.7930 H   0  0  0  0  0  0  0  0  0  0  0  0
   33.5400   27.1740   37.7990 H   0  0  0  0  0  0  0  0  0  0  0  0
   36.8700   29.9990   35.2850 H   0  0  0  0  0  0  0  0  0  0  0  0
   40.2620   32.5910   40.2090 C   0  0  0  0  0  0  0  0  0  0  0  0
   39.7670   33.8380   40.6020 C   0  0  0  0  0  0  0  0  0  0  0  0
   38.4520   34.1610   40.2540 C   0  0  0  0  0  0  0  0  0  0  0  0
   37.7130   33.2480   39.5500 N   0  0  0  0  0  0  0  0  0  0  0  0
   38.2240   32.0570   39.1900 C   0  0  0  0  0  0  0  0  0  0  0  0
   39.4880   31.7270   39.5140 N   0  0  0  0  0  0  0  0  0  0  0  0
   41.2830   32.3700   40.4920 H   0  0  0  0  0  0  0  0  0  0  0  0
   40.2900   34.5920   41.1490 H   0  0  0  0  0  0  0  0  0  0  0  0
   37.9310   35.0780   40.4830 H   0  0  0  0  0  0  0  0  0  0  0  0
   36.2930   30.4600   40.9010 S   0  0  0  0  0  0  0  0  0  0  0  0
   36.5570   27.9790   42.1670 C   0  0  0  0  0  3  0  0  0  0  0  0
   37.1520   29.1520   41.7490 C   0  0  0  0  0  0  0  0  0  0  0  0
   38.4960   29.3450   41.9920 C   0  0  0  0  0  0  0  0  0  0  0  0
   38.9960   30.2510   41.6790 H   0  0  0  0  0  0  0  0  0  0  0  0
   39.1680   28.3360   42.6500 C   0  0  0  0  0  0  0  0  0  0  0  0
   40.4810   28.2780   43.0060 N   0  0  0  0  0  0  0  0  0  0  0  0
   41.2760   28.9530   42.8800 H   0  0  0  0  0  0  0  0  0  0  0  0
   40.7250   27.1250   43.6270 N   0  0  0  0  0  0  0  0  0  0  0  0
   39.5780   26.4230   43.6790 C   0  0  0  0  0  0  0  0  0  0  0  0
   39.4260   25.4490   44.1110 H   0  0  0  0  0  0  0  0  0  0  0  0
   38.5590   27.1590   43.0670 C   0  0  0  0  0  0  0  0  0  0  0  0
   37.2160   26.9600   42.8260 C   0  0  0  0  0  3  0  0  0  0  0  0
  1  2  1  0  0  0  0
  2  3  2  0  0  0  0
  2 18  1  0  0  0  0
  3 23  1  0  0  0  0
  4  5  1  0  0  0  0
  4  3  1  0  0  0  0
  5 11  1  0  0  0  0
  6 12  1  0  0  0  0
  6  5  1  0  0  0  0
  7  8  1  0  0  0  0
  7  6  2  0  0  0  0
  8  4  2  0  0  0  0
  9  1  2  0  0  0  0
  9  8  1  0  0  0  0
 10  1  1  0  0  0  0
 13  9  1  0  0  0  0
 14 20  1  0  0  0  0
 14 15  1  0  0  0  0
 15 21  1  0  0  0  0
 16 22  1  0  0  0  0
 16 15  2  0  0  0  0
 17 16  1  0  0  0  0
 18 19  1  0  0  0  0
 18 17  2  0  0  0  0
 19 14  2  0  0  0  0
 23 25  1  0  0  0  0
 24 35  1  0  0  0  0
 25 26  1  0  0  0  0
 25 24  2  0  0  0  0
 26 28  2  0  0  0  0
 27 26  1  0  0  0  0
 28 29  1  0  0  0  0
 28 34  1  0  0  0  0
 29 31  1  0  0  0  0
 30 29  1  0  0  0  0
 31 32  2  0  0  0  0
 32 33  1  0  0  0  0
 34 32  1  0  0  0  0
 35 34  2  0  0  0  0
M  END
>  <minimizedAffinity>
-6.41775799

$$$$

 OpenBabel03252509133D

 35 39  0  0  0  0  0  0  0  0999 V2000
   40.3170   29.6730   42.1410 C   0  0  0  0  0  0  0  0  0  0  0  0
   39.3570   30.4020   41.4530 C   0  0  0  0  0  0  0  0  0  0  0  0
   38.0200   30.1090   41.5220 C   0  0  0  0  0  0  0  0  0  0  0  0
   37.5710   29.0400   42.3040 C   0  0  0  0  0  0  0  0  0  0  0  0
   36.3730   28.4820   42.5950 N   0  0  0  0  0  0  0  0  0  0  0  0
   36.5700   27.4330   43.4410 C   0  0  0  0  0  0  0  0  0  0  0  0
   37.8950   27.3730   43.6480 N   0  0  0  0  0  0  0  0  0  0  0  0
   38.5420   28.3320   42.9760 C   0  0  0  0  0  0  0  0  0  0  0  0
   39.8870   28.5980   42.9320 C   0  0  0  0  0  0  0  0  0  0  0  0
   41.3780   29.9110   42.0830 H   0  0  0  0  0  0  0  0  0  0  0  0
   35.5160   28.9000   42.1650 H   0  0  0  0  0  0  0  0  0  0  0  0
   35.6930   26.9110   43.7430 H   0  0  0  0  0  0  0  0  0  0  0  0
   40.6060   27.9980   43.4880 H   0  0  0  0  0  0  0  0  0  0  0  0
   40.6150   32.3240   38.5900 C   0  0  0  0  0  0  0  0  0  0  0  0
   40.5810   33.6390   39.0650 C   0  0  0  0  0  0  0  0  0  0  0  0
   40.1250   33.8550   40.3680 C   0  0  0  0  0  0  0  0  0  0  0  0
   39.7340   32.7760   41.1170 N   0  0  0  0  0  0  0  0  0  0  0  0
   39.7810   31.5250   40.6250 C   0  0  0  0  0  0  0  0  0  0  0  0
   40.2170   31.2960   39.3730 N   0  0  0  0  0  0  0  0  0  0  0  0
   40.9730   32.1890   37.5780 H   0  0  0  0  0  0  0  0  0  0  0  0
   40.8700   34.5190   38.5340 H   0  0  0  0  0  0  0  0  0  0  0  0
   40.0400   34.8040   40.8730 H   0  0  0  0  0  0  0  0  0  0  0  0
   36.7830   31.0530   40.6360 S   0  0  0  0  0  0  0  0  0  0  0  0
   35.2410   29.3210   39.0700 C   0  0  0  0  0  3  0  0  0  0  0  0
   36.2770   30.2300   39.1410 C   0  0  0  0  0  0  0  0  0  0  0  0
   36.9780   30.5370   37.9940 C   0  0  0  0  0  0  0  0  0  0  0  0
   37.7960   31.2450   38.0110 H   0  0  0  0  0  0  0  0  0  0  0  0
   36.5920   29.9040   36.8310 C   0  0  0  0  0  0  0  0  0  0  0  0
   37.1130   30.0290   35.5790 N   0  0  0  0  0  0  0  0  0  0  0  0
   37.9020   30.6080   35.1980 H   0  0  0  0  0  0  0  0  0  0  0  0
   36.4490   29.2380   34.7380 N   0  0  0  0  0  0  0  0  0  0  0  0
   35.4910   28.5940   35.4310 C   0  0  0  0  0  0  0  0  0  0  0  0
   34.7770   27.8830   35.0550 H   0  0  0  0  0  0  0  0  0  0  0  0
   35.5480   28.9900   36.7710 C   0  0  0  0  0  0  0  0  0  0  0  0
   34.8430   28.6790   37.9150 C   0  0  0  0  0  3  0  0  0  0  0  0
  1  9  1  0  0  0  0
  2  3  1  0  0  0  0
  2  1  2  0  0  0  0
  3  4  2  0  0  0  0
  4  5  1  0  0  0  0
  4  8  1  0  0  0  0
  5  6  1  0  0  0  0
  6  7  2  0  0  0  0
  6 12  1  0  0  0  0
  8  7  1  0  0  0  0
  9  8  2  0  0  0  0
  9 13  1  0  0  0  0
 10  1  1  0  0  0  0
 11  5  1  0  0  0  0
 14 15  2  0  0  0  0
 14 19  1  0  0  0  0
 15 16  1  0  0  0  0
 16 22  1  0  0  0  0
 16 17  2  0  0  0  0
 18 17  1  0  0  0  0
 18  2  1  0  0  0  0
 19 18  2  0  0  0  0
 20 14  1  0  0  0  0
 21 15  1  0  0  0  0
 23  3  1  0  0  0  0
 24 25  1  0  0  0  0
 25 23  1  0  0  0  0
 26 27  1  0  0  0  0
 26 25  2  0  0  0  0
 28 26  1  0  0  0  0
 29 28  1  0  0  0  0
 30 29  1  0  0  0  0
 31 32  2  0  0  0  0
 31 29  1  0  0  0  0
 32 34  1  0  0  0  0
 33 32  1  0  0  0  0
 34 28  2  0  0  0  0
 34 35  1  0  0  0  0
 35 24  2  0  0  0  0
M  END
>  <minimizedAffinity>
-6.32948971

$$$$

 OpenBabel03252509133D

 35 39  0  0  0  0  0  0  0  0999 V2000
   36.6030   26.6110   39.5230 C   0  0  0  0  0  0  0  0  0  0  0  0
   36.3900   27.9580   39.2660 C   0  0  0  0  0  0  0  0  0  0  0  0
   36.5020   28.9200   40.2370 C   0  0  0  0  0  0  0  0  0  0  0  0
   36.8410   28.5650   41.5470 C   0  0  0  0  0  0  0  0  0  0  0  0
   37.0320   29.2200   42.7150 N   0  0  0  0  0  0  0  0  0  0  0  0
   37.3560   28.3150   43.6790 C   0  0  0  0  0  0  0  0  0  0  0  0
   37.3540   27.1170   43.0730 N   0  0  0  0  0  0  0  0  0  0  0  0
   37.0460   27.2230   41.7750 C   0  0  0  0  0  0  0  0  0  0  0  0
   36.9440   26.2340   40.8290 C   0  0  0  0  0  0  0  0  0  0  0  0
   36.5130   25.8510   38.7480 H   0  0  0  0  0  0  0  0  0  0  0  0
   36.9160   30.2600   42.7230 H   0  0  0  0  0  0  0  0  0  0  0  0
   37.5310   28.7150   44.6500 H   0  0  0  0  0  0  0  0  0  0  0  0
   37.1200   25.1880   41.0760 H   0  0  0  0  0  0  0  0  0  0  0  0
   36.6980   28.9790   35.7540 C   0  0  0  0  0  0  0  0  0  0  0  0
   35.3660   29.1550   35.3680 C   0  0  0  0  0  0  0  0  0  0  0  0
   34.3700   28.9210   36.3200 C   0  0  0  0  0  0  0  0  0  0  0  0
   34.7410   28.5320   37.5800 N   0  0  0  0  0  0  0  0  0  0  0  0
   36.0340   28.3730   37.9140 C   0  0  0  0  0  0  0  0  0  0  0  0
   37.0080   28.5940   37.0130 N   0  0  0  0  0  0  0  0  0  0  0  0
   37.4460   29.1670   34.9950 H   0  0  0  0  0  0  0  0  0  0  0  0
   35.0120   29.4550   34.4060 H   0  0  0  0  0  0  0  0  0  0  0  0
   33.3050   29.0130   36.1760 H   0  0  0  0  0  0  0  0  0  0  0  0
   36.2300   30.6570   39.9030 S   0  0  0  0  0  0  0  0  0  0  0  0
   38.4320   32.2130   40.6480 C   0  0  0  0  0  3  0  0  0  0  0  0
   37.7640   31.5250   39.6570 C   0  0  0  0  0  0  0  0  0  0  0  0
   38.3010   31.4930   38.3860 C   0  0  0  0  0  0  0  0  0  0  0  0
   37.8060   30.9640   37.5840 H   0  0  0  0  0  0  0  0  0  0  0  0
   39.4900   32.1640   38.1880 C   0  0  0  0  0  0  0  0  0  0  0  0
   40.2190   32.2850   37.0440 N   0  0  0  0  0  0  0  0  0  0  0  0
   40.0690   31.9190   36.0700 H   0  0  0  0  0  0  0  0  0  0  0  0
   41.3050   33.0170   37.2820 N   0  0  0  0  0  0  0  0  0  0  0  0
   41.2950   33.3780   38.5790 C   0  0  0  0  0  0  0  0  0  0  0  0
   42.0260   33.9710   39.0990 H   0  0  0  0  0  0  0  0  0  0  0  0
   40.1530   32.8540   39.1930 C   0  0  0  0  0  0  0  0  0  0  0  0
   39.6220   32.8890   40.4660 C   0  0  0  0  0  3  0  0  0  0  0  0
  1  9  1  0  0  0  0
  2  1  2  0  0  0  0
  2  3  1  0  0  0  0
  3  4  2  0  0  0  0
  4  8  1  0  0  0  0
  4  5  1  0  0  0  0
  5 11  1  0  0  0  0
  5  6  1  0  0  0  0
  6 12  1  0  0  0  0
  7  6  2  0  0  0  0
  8  7  1  0  0  0  0
  9 13  1  0  0  0  0
  9  8  2  0  0  0  0
 10  1  1  0  0  0  0
 14 19  1  0  0  0  0
 15 14  2  0  0  0  0
 15 16  1  0  0  0  0
 16 17  2  0  0  0  0
 17 18  1  0  0  0  0
 18  2  1  0  0  0  0
 19 18  2  0  0  0  0
 20 14  1  0  0  0  0
 21 15  1  0  0  0  0
 22 16  1  0  0  0  0
 23  3  1  0  0  0  0
 25 23  1  0  0  0  0
 25 24  2  0  0  0  0
 26 25  1  0  0  0  0
 27 26  1  0  0  0  0
 28 26  2  0  0  0  0
 28 34  1  0  0  0  0
 29 31  1  0  0  0  0
 29 28  1  0  0  0  0
 30 29  1  0  0  0  0
 31 32  2  0  0  0  0
 32 33  1  0  0  0  0
 32 34  1  0  0  0  0
 34 35  2  0  0  0  0
 35 24  1  0  0  0  0
M  END
>  <minimizedAffinity>
-6.18989468

$$$$

 OpenBabel03252509133D

 35 39  0  0  0  0  0  0  0  0999 V2000
   40.1860   30.6320   41.3440 C   0  0  0  0  0  0  0  0  0  0  0  0
   38.9270   30.0480   41.3470 C   0  0  0  0  0  0  0  0  0  0  0  0
   37.8000   30.7240   40.9560 C   0  0  0  0  0  0  0  0  0  0  0  0
   37.8860   32.0550   40.5340 C   0  0  0  0  0  0  0  0  0  0  0  0
   37.0180   32.9960   40.0960 N   0  0  0  0  0  0  0  0  0  0  0  0
   37.7080   34.1380   39.8240 C   0  0  0  0  0  0  0  0  0  0  0  0
   38.9920   33.8670   40.1060 N   0  0  0  0  0  0  0  0  0  0  0  0
   39.1460   32.6110   40.5400 C   0  0  0  0  0  0  0  0  0  0  0  0
   40.2940   31.9650   40.9230 C   0  0  0  0  0  0  0  0  0  0  0  0
   41.0780   30.0900   41.6550 H   0  0  0  0  0  0  0  0  0  0  0  0
   36.0060   32.7400   40.0270 H   0  0  0  0  0  0  0  0  0  0  0  0
   37.1270   34.9570   39.4700 H   0  0  0  0  0  0  0  0  0  0  0  0
   41.2620   32.4630   40.9060 H   0  0  0  0  0  0  0  0  0  0  0  0
   38.6450   26.3900   41.2420 C   0  0  0  0  0  0  0  0  0  0  0  0
   38.5340   26.0520   42.5950 C   0  0  0  0  0  0  0  0  0  0  0  0
   38.5580   27.0870   43.5330 C   0  0  0  0  0  0  0  0  0  0  0  0
   38.6870   28.3760   43.0900 N   0  0  0  0  0  0  0  0  0  0  0  0
   38.7910   28.6620   41.7800 C   0  0  0  0  0  0  0  0  0  0  0  0
   38.7700   27.6810   40.8600 N   0  0  0  0  0  0  0  0  0  0  0  0
   38.6230   25.5670   40.5390 H   0  0  0  0  0  0  0  0  0  0  0  0
   38.4320   25.0710   43.0030 H   0  0  0  0  0  0  0  0  0  0  0  0
   38.4840   26.9870   44.6050 H   0  0  0  0  0  0  0  0  0  0  0  0
   36.1780   29.9680   40.9570 S   0  0  0  0  0  0  0  0  0  0  0  0
   36.4200   29.7120   38.1820 C   0  0  0  0  0  3  0  0  0  0  0  0
   35.6320   29.5840   39.3070 C   0  0  0  0  0  0  0  0  0  0  0  0
   34.3360   29.1320   39.1700 C   0  0  0  0  0  0  0  0  0  0  0  0
   33.6900   29.0190   40.0290 H   0  0  0  0  0  0  0  0  0  0  0  0
   33.9060   28.8320   37.8940 C   0  0  0  0  0  0  0  0  0  0  0  0
   32.6890   28.3740   37.4910 N   0  0  0  0  0  0  0  0  0  0  0  0
   31.8110   28.1440   38.0210 H   0  0  0  0  0  0  0  0  0  0  0  0
   32.6870   28.2140   36.1690 N   0  0  0  0  0  0  0  0  0  0  0  0
   33.8990   28.5640   35.7000 C   0  0  0  0  0  0  0  0  0  0  0  0
   34.2340   28.5520   34.6770 H   0  0  0  0  0  0  0  0  0  0  0  0
   34.7080   28.9660   36.7680 C   0  0  0  0  0  0  0  0  0  0  0  0
   36.0040   29.4170   36.8990 C   0  0  0  0  0  3  0  0  0  0  0  0
  1  2  1  0  0  0  0
  1 10  1  0  0  0  0
  2 18  1  0  0  0  0
  3 23  1  0  0  0  0
  3  2  2  0  0  0  0
  4  8  2  0  0  0  0
  4  3  1  0  0  0  0
  5  4  1  0  0  0  0
  6  5  1  0  0  0  0
  6  7  2  0  0  0  0
  7  8  1  0  0  0  0
  8  9  1  0  0  0  0
  9  1  2  0  0  0  0
 11  5  1  0  0  0  0
 12  6  1  0  0  0  0
 13  9  1  0  0  0  0
 14 15  1  0  0  0  0
 15 21  1  0  0  0  0
 15 16  2  0  0  0  0
 16 22  1  0  0  0  0
 17 16  1  0  0  0  0
 18 17  2  0  0  0  0
 19 14  2  0  0  0  0
 19 18  1  0  0  0  0
 20 14  1  0  0  0  0
 24 25  1  0  0  0  0
 25 23  1  0  0  0  0
 26 25  2  0  0  0  0
 26 27  1  0  0  0  0
 28 26  1  0  0  0  0
 29 28  1  0  0  0  0
 29 30  1  0  0  0  0
 31 29  1  0  0  0  0
 32 31  2  0  0  0  0
 32 34  1  0  0  0  0
 33 32  1  0  0  0  0
 34 35  1  0  0  0  0
 34 28  2  0  0  0  0
 35 24  2  0  0  0  0
M  END
>  <minimizedAffinity>
-6.18622398

$$$$

 OpenBabel03252509133D

 35 39  0  0  0  0  0  0  0  0999 V2000
   36.9500   30.2400   36.9270 C   0  0  0  0  0  0  0  0  0  0  0  0
   36.3880   29.5290   37.9790 C   0  0  0  0  0  0  0  0  0  0  0  0
   36.3390   30.0200   39.2570 C   0  0  0  0  0  0  0  0  0  0  0  0
   36.8680   31.2820   39.5500 C   0  0  0  0  0  0  0  0  0  0  0  0
   36.9900   32.0550   40.6540 N   0  0  0  0  0  0  0  0  0  0  0  0
   37.6090   33.2180   40.3100 C   0  0  0  0  0  0  0  0  0  0  0  0
   37.8540   33.1270   38.9930 N   0  0  0  0  0  0  0  0  0  0  0  0
   37.4190   31.9660   38.4900 C   0  0  0  0  0  0  0  0  0  0  0  0
   37.4850   31.5070   37.1990 C   0  0  0  0  0  0  0  0  0  0  0  0
   36.9860   29.8440   35.9130 H   0  0  0  0  0  0  0  0  0  0  0  0
   36.6180   31.6850   41.5590 H   0  0  0  0  0  0  0  0  0  0  0  0
   37.7630   33.9120   41.1020 H   0  0  0  0  0  0  0  0  0  0  0  0
   37.9360   32.0990   36.4040 H   0  0  0  0  0  0  0  0  0  0  0  0
   34.0010   26.8860   37.0920 C   0  0  0  0  0  0  0  0  0  0  0  0
   34.7650   25.7230   37.2310 C   0  0  0  0  0  0  0  0  0  0  0  0
   36.0970   25.8570   37.6300 C   0  0  0  0  0  0  0  0  0  0  0  0
   36.5920   27.1130   37.8650 N   0  0  0  0  0  0  0  0  0  0  0  0
   35.8260   28.2090   37.7190 C   0  0  0  0  0  0  0  0  0  0  0  0
   34.5400   28.1010   37.3370 N   0  0  0  0  0  0  0  0  0  0  0  0
   32.9730   26.7500   36.7820 H   0  0  0  0  0  0  0  0  0  0  0  0
   34.4400   24.7190   37.0640 H   0  0  0  0  0  0  0  0  0  0  0  0
   36.8090   25.0610   37.7800 H   0  0  0  0  0  0  0  0  0  0  0  0
   35.6110   29.1030   40.6110 S   0  0  0  0  0  0  0  0  0  0  0  0
   37.5990   28.9690   42.5750 C   0  0  0  0  0  3  0  0  0  0  0  0
   36.8540   28.3180   41.6140 C   0  0  0  0  0  0  0  0  0  0  0  0
   37.0670   26.9720   41.4000 C   0  0  0  0  0  0  0  0  0  0  0  0
   36.5030   26.4280   40.6560 H   0  0  0  0  0  0  0  0  0  0  0  0
   38.0290   26.3560   42.1740 C   0  0  0  0  0  0  0  0  0  0  0  0
   38.4280   25.0540   42.1610 N   0  0  0  0  0  0  0  0  0  0  0  0
   38.1220   24.2280   41.5870 H   0  0  0  0  0  0  0  0  0  0  0  0
   39.3850   24.8700   43.0670 N   0  0  0  0  0  0  0  0  0  0  0  0
   39.6180   26.0470   43.6790 C   0  0  0  0  0  0  0  0  0  0  0  0
   40.3290   26.2490   44.4610 H   0  0  0  0  0  0  0  0  0  0  0  0
   38.7740   27.0220   43.1380 C   0  0  0  0  0  0  0  0  0  0  0  0
   38.5640   28.3680   43.3570 C   0  0  0  0  0  3  0  0  0  0  0  0
  1  9  2  0  0  0  0
  1  2  1  0  0  0  0
  2  3  2  0  0  0  0
  3  4  1  0  0  0  0
  3 23  1  0  0  0  0
  4  5  1  0  0  0  0
  5 11  1  0  0  0  0
  6  5  1  0  0  0  0
  6 12  1  0  0  0  0
  7  6  2  0  0  0  0
  8  7  1  0  0  0  0
  8  4  2  0  0  0  0
  9  8  1  0  0  0  0
 10  1  1  0  0  0  0
 13  9  1  0  0  0  0
 14 15  2  0  0  0  0
 14 19  1  0  0  0  0
 15 16  1  0  0  0  0
 16 22  1  0  0  0  0
 16 17  2  0  0  0  0
 18 17  1  0  0  0  0
 18  2  1  0  0  0  0
 19 18  2  0  0  0  0
 20 14  1  0  0  0  0
 21 15  1  0  0  0  0
 23 25  1  0  0  0  0
 24 35  1  0  0  0  0
 25 24  2  0  0  0  0
 26 25  1  0  0  0  0
 26 28  2  0  0  0  0
 27 26  1  0  0  0  0
 28 34  1  0  0  0  0
 29 28  1  0  0  0  0
 29 31  1  0  0  0  0
 30 29  1  0  0  0  0
 31 32  2  0  0  0  0
 32 33  1  0  0  0  0
 34 35  2  0  0  0  0
 34 32  1  0  0  0  0
M  END
>  <minimizedAffinity>
-6.15387011

$$$$

 OpenBabel03252509133D

 35 39  0  0  0  0  0  0  0  0999 V2000
   37.3480   30.7010   36.8200 C   0  0  0  0  0  0  0  0  0  0  0  0
   37.0380   30.7470   38.1720 C   0  0  0  0  0  0  0  0  0  0  0  0
   36.1090   29.9160   38.7430 C   0  0  0  0  0  0  0  0  0  0  0  0
   35.4280   28.9760   37.9630 C   0  0  0  0  0  0  0  0  0  0  0  0
   34.4830   28.0310   38.1790 N   0  0  0  0  0  0  0  0  0  0  0  0
   34.2060   27.4080   37.0010 C   0  0  0  0  0  0  0  0  0  0  0  0
   34.9930   27.9930   36.0830 N   0  0  0  0  0  0  0  0  0  0  0  0
   35.7530   28.9510   36.6260 C   0  0  0  0  0  0  0  0  0  0  0  0
   36.6770   29.7650   36.0200 C   0  0  0  0  0  0  0  0  0  0  0  0
   38.0870   31.3630   36.3720 H   0  0  0  0  0  0  0  0  0  0  0  0
   34.1180   27.9120   39.1520 H   0  0  0  0  0  0  0  0  0  0  0  0
   33.4710   26.6400   37.0450 H   0  0  0  0  0  0  0  0  0  0  0  0
   36.8880   29.6950   34.9550 H   0  0  0  0  0  0  0  0  0  0  0  0
   37.8140   33.8450   39.9800 C   0  0  0  0  0  0  0  0  0  0  0  0
   39.0150   33.5320   40.6240 C   0  0  0  0  0  0  0  0  0  0  0  0
   39.5490   32.2550   40.4320 C   0  0  0  0  0  0  0  0  0  0  0  0
   38.8770   31.3740   39.6260 N   0  0  0  0  0  0  0  0  0  0  0  0
   37.7230   31.7120   39.0230 C   0  0  0  0  0  0  0  0  0  0  0  0
   37.1920   32.9360   39.1950 N   0  0  0  0  0  0  0  0  0  0  0  0
   37.4250   34.8410   40.1480 H   0  0  0  0  0  0  0  0  0  0  0  0
   39.5840   34.1710   41.2630 H   0  0  0  0  0  0  0  0  0  0  0  0
   40.4600   31.8660   40.8580 H   0  0  0  0  0  0  0  0  0  0  0  0
   35.7120   29.9740   40.4880 S   0  0  0  0  0  0  0  0  0  0  0  0
   37.6710   29.5260   42.4350 C   0  0  0  0  0  3  0  0  0  0  0  0
   36.8540   29.0070   41.4520 C   0  0  0  0  0  0  0  0  0  0  0  0
   36.9080   27.6550   41.1820 C   0  0  0  0  0  0  0  0  0  0  0  0
   36.2830   27.2120   40.4190 H   0  0  0  0  0  0  0  0  0  0  0  0
   37.7900   26.8990   41.9250 C   0  0  0  0  0  0  0  0  0  0  0  0
   38.0330   25.5610   41.8560 N   0  0  0  0  0  0  0  0  0  0  0  0
   37.6320   24.8010   41.2510 H   0  0  0  0  0  0  0  0  0  0  0  0
   38.9620   25.2290   42.7500 N   0  0  0  0  0  0  0  0  0  0  0  0
   39.3320   26.3440   43.4080 C   0  0  0  0  0  0  0  0  0  0  0  0
   40.0610   26.4280   44.1940 H   0  0  0  0  0  0  0  0  0  0  0  0
   38.6080   27.4330   42.9110 C   0  0  0  0  0  0  0  0  0  0  0  0
   38.5590   28.7830   43.1860 C   0  0  0  0  0  3  0  0  0  0  0  0
  1  2  1  0  0  0  0
  2  3  2  0  0  0  0
  2 18  1  0  0  0  0
  3 23  1  0  0  0  0
  4  5  1  0  0  0  0
  4  3  1  0  0  0  0
  5 11  1  0  0  0  0
  6 12  1  0  0  0  0
  6  5  1  0  0  0  0
  7  8  1  0  0  0  0
  7  6  2  0  0  0  0
  8  4  2  0  0  0  0
  9  8  1  0  0  0  0
  9  1  2  0  0  0  0
 10  1  1  0  0  0  0
 13  9  1  0  0  0  0
 14 20  1  0  0  0  0
 14 15  1  0  0  0  0
 15 21  1  0  0  0  0
 16 15  2  0  0  0  0
 16 22  1  0  0  0  0
 17 16  1  0  0  0  0
 18 19  1  0  0  0  0
 18 17  2  0  0  0  0
 19 14  2  0  0  0  0
 23 25  1  0  0  0  0
 24 35  1  0  0  0  0
 25 24  2  0  0  0  0
 26 25  1  0  0  0  0
 26 28  2  0  0  0  0
 27 26  1  0  0  0  0
 28 34  1  0  0  0  0
 29 28  1  0  0  0  0
 29 31  1  0  0  0  0
 30 29  1  0  0  0  0
 31 32  2  0  0  0  0
 32 33  1  0  0  0  0
 34 35  2  0  0  0  0
 34 32  1  0  0  0  0
M  END
>  <minimizedAffinity>
-6.08588791

$$$$

 OpenBabel03252509133D

 35 39  0  0  0  0  0  0  0  0999 V2000
   36.5050   26.1300   39.3720 C   0  0  0  0  0  0  0  0  0  0  0  0
   36.5430   27.3790   39.9760 C   0  0  0  0  0  0  0  0  0  0  0  0
   35.8930   28.4690   39.4580 C   0  0  0  0  0  0  0  0  0  0  0  0
   35.1540   28.3540   38.2770 C   0  0  0  0  0  0  0  0  0  0  0  0
   34.4130   29.1840   37.5060 N   0  0  0  0  0  0  0  0  0  0  0  0
   33.9220   28.4810   36.4480 C   0  0  0  0  0  0  0  0  0  0  0  0
   34.3780   27.2270   36.5980 N   0  0  0  0  0  0  0  0  0  0  0  0
   35.1310   27.1060   37.6970 C   0  0  0  0  0  0  0  0  0  0  0  0
   35.7690   25.9940   38.1870 C   0  0  0  0  0  0  0  0  0  0  0  0
   37.0240   25.2680   39.7880 H   0  0  0  0  0  0  0  0  0  0  0  0
   34.3210   30.1830   37.8030 H   0  0  0  0  0  0  0  0  0  0  0  0
   33.3190   29.0330   35.7660 H   0  0  0  0  0  0  0  0  0  0  0  0
   35.7120   25.0320   37.6780 H   0  0  0  0  0  0  0  0  0  0  0  0
   39.3520   27.9080   42.2800 C   0  0  0  0  0  0  0  0  0  0  0  0
   38.7350   27.8540   43.5340 C   0  0  0  0  0  0  0  0  0  0  0  0
   37.3550   27.6370   43.5770 C   0  0  0  0  0  0  0  0  0  0  0  0
   36.6740   27.4860   42.3980 N   0  0  0  0  0  0  0  0  0  0  0  0
   37.3030   27.5440   41.2100 C   0  0  0  0  0  0  0  0  0  0  0  0
   38.6310   27.7530   41.1470 N   0  0  0  0  0  0  0  0  0  0  0  0
   40.4210   28.0780   42.2780 H   0  0  0  0  0  0  0  0  0  0  0  0
   39.2070   27.9640   44.4850 H   0  0  0  0  0  0  0  0  0  0  0  0
   36.7400   27.5710   44.4600 H   0  0  0  0  0  0  0  0  0  0  0  0
   35.9410   30.0780   40.2410 S   0  0  0  0  0  0  0  0  0  0  0  0
   38.3000   31.4350   40.8890 C   0  0  0  0  0  3  0  0  0  0  0  0
   37.4730   30.9220   39.9110 C   0  0  0  0  0  0  0  0  0  0  0  0
   37.8370   31.0570   38.5870 C   0  0  0  0  0  0  0  0  0  0  0  0
   37.2140   30.6680   37.7940 H   0  0  0  0  0  0  0  0  0  0  0  0
   39.0230   31.7100   38.3240 C   0  0  0  0  0  0  0  0  0  0  0  0
   39.6010   31.9730   37.1190 N   0  0  0  0  0  0  0  0  0  0  0  0
   39.3070   31.7580   36.1340 H   0  0  0  0  0  0  0  0  0  0  0  0
   40.7460   32.6270   37.3060 N   0  0  0  0  0  0  0  0  0  0  0  0
   40.9240   32.7940   38.6300 C   0  0  0  0  0  0  0  0  0  0  0  0
   41.7470   33.2810   39.1230 H   0  0  0  0  0  0  0  0  0  0  0  0
   39.8470   32.2250   39.3160 C   0  0  0  0  0  0  0  0  0  0  0  0
   39.4890   32.0910   40.6410 C   0  0  0  0  0  3  0  0  0  0  0  0
  1 10  1  0  0  0  0
  1  2  1  0  0  0  0
  2 18  1  0  0  0  0
  3  2  2  0  0  0  0
  3 23  1  0  0  0  0
  4  3  1  0  0  0  0
  5 11  1  0  0  0  0
  5  4  1  0  0  0  0
  6  7  2  0  0  0  0
  6  5  1  0  0  0  0
  7  8  1  0  0  0  0
  8  9  1  0  0  0  0
  8  4  2  0  0  0  0
  9  1  2  0  0  0  0
 12  6  1  0  0  0  0
 13  9  1  0  0  0  0
 14 15  1  0  0  0  0
 15 16  2  0  0  0  0
 15 21  1  0  0  0  0
 16 22  1  0  0  0  0
 17 16  1  0  0  0  0
 18 17  2  0  0  0  0
 19 18  1  0  0  0  0
 19 14  2  0  0  0  0
 20 14  1  0  0  0  0
 25 23  1  0  0  0  0
 25 24  2  0  0  0  0
 26 25  1  0  0  0  0
 27 26  1  0  0  0  0
 28 26  2  0  0  0  0
 28 34  1  0  0  0  0
 29 31  1  0  0  0  0
 29 28  1  0  0  0  0
 30 29  1  0  0  0  0
 31 32  2  0  0  0  0
 32 33  1  0  0  0  0
 32 34  1  0  0  0  0
 34 35  2  0  0  0  0
 35 24  1  0  0  0  0
M  END
>  <minimizedAffinity>
-5.73793268

$$$$

 OpenBabel03252509133D

 35 39  0  0  0  0  0  0  0  0999 V2000
   41.2440   31.8800   37.3630 C   0  0  0  0  0  0  0  0  0  0  0  0
   40.9270   31.9660   38.7120 C   0  0  0  0  0  0  0  0  0  0  0  0
   41.8630   31.8030   39.7000 C   0  0  0  0  0  0  0  0  0  0  0  0
   43.1970   31.5380   39.3730 C   0  0  0  0  0  0  0  0  0  0  0  0
   44.3450   31.3280   40.0580 N   0  0  0  0  0  0  0  0  0  0  0  0
   45.3550   31.1160   39.1690 C   0  0  0  0  0  0  0  0  0  0  0  0
   44.7960   31.2020   37.9510 N   0  0  0  0  0  0  0  0  0  0  0  0
   43.4850   31.4580   38.0290 C   0  0  0  0  0  0  0  0  0  0  0  0
   42.5760   31.6160   37.0140 C   0  0  0  0  0  0  0  0  0  0  0  0
   40.4960   32.0110   36.5820 H   0  0  0  0  0  0  0  0  0  0  0  0
   44.3080   31.3540   41.1030 H   0  0  0  0  0  0  0  0  0  0  0  0
   46.3150   30.9370   39.5930 H   0  0  0  0  0  0  0  0  0  0  0  0
   42.8680   31.5400   35.9680 H   0  0  0  0  0  0  0  0  0  0  0  0
   37.9480   33.7350   39.9220 C   0  0  0  0  0  0  0  0  0  0  0  0
   36.9520   32.7580   39.8290 C   0  0  0  0  0  0  0  0  0  0  0  0
   37.3130   31.4970   39.3490 C   0  0  0  0  0  0  0  0  0  0  0  0
   38.6180   31.2750   38.9940 N   0  0  0  0  0  0  0  0  0  0  0  0
   39.5480   32.2400   39.0990 C   0  0  0  0  0  0  0  0  0  0  0  0
   39.2210   33.4620   39.5590 N   0  0  0  0  0  0  0  0  0  0  0  0
   37.6380   34.7020   40.2980 H   0  0  0  0  0  0  0  0  0  0  0  0
   35.9210   32.8680   40.0870 H   0  0  0  0  0  0  0  0  0  0  0  0
   36.6640   30.6450   39.2190 H   0  0  0  0  0  0  0  0  0  0  0  0
   41.4540   31.9170   41.4390 S   0  0  0  0  0  0  0  0  0  0  0  0
   41.2230   29.2010   42.0700 C   0  0  0  0  0  3  0  0  0  0  0  0
   40.6330   30.4470   42.0170 C   0  0  0  0  0  0  0  0  0  0  0  0
   39.3250   30.5870   42.4340 C   0  0  0  0  0  0  0  0  0  0  0  0
   38.8300   31.5470   42.4060 H   0  0  0  0  0  0  0  0  0  0  0  0
   38.6830   29.4520   42.8830 C   0  0  0  0  0  0  0  0  0  0  0  0
   37.4090   29.3200   43.3440 N   0  0  0  0  0  0  0  0  0  0  0  0
   36.6280   30.0130   43.4670 H   0  0  0  0  0  0  0  0  0  0  0  0
   37.1830   28.0510   43.6770 N   0  0  0  0  0  0  0  0  0  0  0  0
   38.3050   27.3460   43.4390 C   0  0  0  0  0  0  0  0  0  0  0  0
   38.4630   26.2940   43.6000 H   0  0  0  0  0  0  0  0  0  0  0  0
   39.2870   28.2020   42.9310 C   0  0  0  0  0  0  0  0  0  0  0  0
   40.5940   28.0570   42.5170 C   0  0  0  0  0  3  0  0  0  0  0  0
  1  2  1  0  0  0  0
  2 18  1  0  0  0  0
  2  3  2  0  0  0  0
  3 23  1  0  0  0  0
  4  3  1  0  0  0  0
  4  5  1  0  0  0  0
  5 11  1  0  0  0  0
  6 12  1  0  0  0  0
  6  5  1  0  0  0  0
  7  8  1  0  0  0  0
  7  6  2  0  0  0  0
  8  4  2  0  0  0  0
  9  1  2  0  0  0  0
  9  8  1  0  0  0  0
 10  1  1  0  0  0  0
 13  9  1  0  0  0  0
 14 20  1  0  0  0  0
 15 14  1  0  0  0  0
 15 21  1  0  0  0  0
 16 15  2  0  0  0  0
 17 18  2  0  0  0  0
 17 16  1  0  0  0  0
 18 19  1  0  0  0  0
 19 14  2  0  0  0  0
 22 16  1  0  0  0  0
 23 25  1  0  0  0  0
 24 35  1  0  0  0  0
 25 24  2  0  0  0  0
 25 26  1  0  0  0  0
 26 28  2  0  0  0  0
 27 26  1  0  0  0  0
 28 34  1  0  0  0  0
 28 29  1  0  0  0  0
 29 30  1  0  0  0  0
 29 31  1  0  0  0  0
 32 33  1  0  0  0  0
 32 31  2  0  0  0  0
 34 32  1  0  0  0  0
 35 34  2  0  0  0  0
M  END
>  <minimizedAffinity>
-5.6898365

$$$$
