
     RDKit          3D

 37 40  0  0  0  0  0  0  0  0999 V2000
   44.6804   35.1587   44.2041 C   0  0  0  0  0  0  0  0  0  0  0  0
   44.7513   34.0952   43.2793 C   0  0  0  0  0  0  0  0  0  0  0  0
   45.2714   32.8879   43.7063 C   0  0  0  0  0  0  0  0  0  0  0  0
   45.7026   32.7356   44.9863 N   0  0  0  0  0  0  0  0  0  0  0  0
   45.6245   33.7796   45.8653 C   0  0  0  0  0  0  0  0  0  0  0  0
   45.1206   34.9675   45.4731 N   0  0  0  0  0  0  0  0  0  0  0  0
   44.2761   34.3863   41.9795 N   0  0  0  0  0  0  0  0  0  0  0  0
   44.4693   33.4383   40.9501 C   0  0  1  0  0  0  0  0  0  0  0  0
   43.8497   33.7674   39.6416 C   0  0  0  0  0  0  0  0  0  0  0  0
   42.5913   34.3801   39.7011 N   0  0  0  0  0  0  0  0  0  0  0  0
   42.3456   35.2685   40.7650 C   0  0  0  0  0  0  0  0  0  0  0  0
   43.5962   35.5749   41.5464 C   0  0  0  0  0  0  0  0  0  0  0  0
   44.3157   36.1639   44.0705 H   0  0  0  0  0  0  0  0  0  0  0  0
   45.3178   32.0815   43.0059 H   0  0  0  0  0  0  0  0  0  0  0  0
   45.9758   33.6352   46.8863 H   0  0  0  0  0  0  0  0  0  0  0  0
   44.0037   32.4749   41.2914 H   0  0  0  0  0  0  0  0  0  0  0  0
   43.7980   32.8570   39.0076 H   0  0  0  0  0  0  0  0  0  0  0  0
   44.5536   34.4821   39.1238 H   0  0  0  0  0  0  0  0  0  0  0  0
   42.1018   34.5035   38.8194 H   0  0  0  0  0  0  0  0  0  0  0  0
   41.5814   34.8983   41.5037 H   0  0  0  0  0  0  0  0  0  0  0  0
   41.9318   36.2213   40.3828 H   0  0  0  0  0  0  0  0  0  0  0  0
   44.3095   36.2055   40.9543 H   0  0  0  0  0  0  0  0  0  0  0  0
   43.2564   36.2172   42.3843 H   0  0  0  0  0  0  0  0  0  0  0  0
   46.6921   33.1123   41.8475 C   0  0  0  0  0  0  0  0  0  0  0  0
   45.9157   33.0943   40.6959 C   0  0  0  0  0  0  0  0  0  0  0  0
   46.5479   32.7893   39.5125 C   0  0  0  0  0  0  0  0  0  0  0  0
   45.8537   32.8006   38.6643 H   0  0  0  0  0  0  0  0  0  0  0  0
   47.8738   32.5186   39.4788 C   0  0  0  0  0  0  0  0  0  0  0  0
   48.6050   32.2101   38.4032 N   0  0  0  0  0  0  0  0  0  0  0  0
   48.3479   32.1081   37.3836 H   0  0  0  0  0  0  0  0  0  0  0  0
   49.8447   32.0211   38.7973 N   0  0  0  0  0  0  0  0  0  0  0  0
   49.9225   32.2039   40.1140 C   0  0  0  0  0  0  0  0  0  0  0  0
   50.7952   32.1277   40.7693 H   0  0  0  0  0  0  0  0  0  0  0  0
   48.6690   32.5290   40.6052 C   0  0  0  0  0  0  0  0  0  0  0  0
   48.0618   32.8291   41.7898 C   0  0  0  0  0  0  0  0  0  0  0  0
   46.3840   33.3265   42.8614 H   0  0  0  0  0  0  0  0  0  0  0  0
   48.7203   32.8282   42.6595 H   0  0  0  0  0  0  0  0  0  0  0  0
  1  6  2  0
  2  3  2  0
  2  1  1  0
  3  4  1  0
  4  5  2  0
  6  5  1  0
  7  2  1  0
  8  7  1  0
  9 10  1  0
  9  8  1  0
 10 11  1  0
 11 12  1  0
 12  7  1  0
  1 13  1  0
  3 14  1  0
  5 15  1  0
  8 16  1  1
  9 17  1  0
  9 18  1  0
 10 19  1  0
 11 20  1  0
 11 21  1  0
 12 22  1  0
 12 23  1  0
 24 25  2  0
 25 26  1  0
 26 27  1  0
 26 28  2  0
 28 29  1  0
 29 30  1  0
 29 31  1  0
 31 32  2  0
 32 33  1  0
 32 34  1  0
 34 35  2  0
 35 24  1  0
 34 28  1  0
 24 36  1  0
 35 37  1  0
  8 25  1  0
M  ISO  8  13  14  14  14  15  14  16  13  17  13  18  13  19   5  20  13
M  ISO  6  21  13  22  13  23  13  27  16  30   5  33  15
M  END
>  <DihAtoms>  (1) 
6,7,24,23

>  <DihDeg>  (1) 
-41.02853459587593

$$$$
