REMARK  Name = 
REMARK  6 active torsions:
REMARK  status: ('A' for Active; 'I' for Inactive)
REMARK    1  A    between atoms: C_1  and  C_4
REMARK    2  A    between atoms: C_1  and  C_10
REMARK    3  A    between atoms: C_8  and  O_9
REMARK    4  A    between atoms: C_10  and  C_11
REMARK    5  A    between atoms: C_15  and  C_17
REMARK    6  A    between atoms: C_19  and  C_35
REMARK                            x       y       z     vdW  Elec       q    Type
REMARK                         _______ _______ _______ _____ _____    ______ ____
ROOT
ATOM      1  C   UNL     1      48.333  34.218  40.917  0.00  0.00    +0.000 A 
ATOM      2  C   UNL     1      47.847  34.332  39.634  0.00  0.00    +0.000 A 
ATOM      3  C   UNL     1      48.219  33.465  38.605  0.00  0.00    +0.000 A 
ATOM      4  N   UNL     1      49.103  32.488  38.955  0.00  0.00    +0.000 NA
ATOM      5  C   UNL     1      49.573  32.382  40.207  0.00  0.00    +0.000 A 
ATOM      6  N   UNL     1      49.193  33.233  41.166  0.00  0.00    +0.000 NA
ATOM      7  H   UNL     1      47.152  35.129  39.435  0.00  0.00    +0.000 HD
ATOM      8  H   UNL     1      47.818  33.583  37.607  0.00  0.00    +0.000 HD
ENDROOT
BRANCH   5   9
ATOM      9  C   UNL     1      50.519  31.299  40.606  0.00  0.00    +0.000 C 
ATOM     10  C   UNL     1      51.143  31.354  41.965  0.00  0.00    +0.000 C 
ATOM     11  C   UNL     1      51.958  31.673  40.705  0.00  0.00    +0.000 C 
ATOM     12  H   UNL     1      50.256  30.292  40.225  0.00  0.00    +0.000 HD
ATOM     13  H   UNL     1      50.970  32.244  42.604  0.00  0.00    +0.000 HD
ATOM     14  H   UNL     1      51.348  30.437  42.531  0.00  0.00    +0.000 HD
ATOM     15  H   UNL     1      52.256  32.709  40.527  0.00  0.00    +0.000 HD
BRANCH  11  17
ATOM     16  C   UNL     1      53.580  29.933  41.378  0.00  0.00    +0.000 A 
ATOM     17  C   UNL     1      52.912  30.582  40.368  0.00  0.00    +0.000 A 
ATOM     18  C   UNL     1      53.097  30.253  39.035  0.00  0.00    +0.000 A 
ATOM     19  H   UNL     1      52.588  30.744  38.215  0.00  0.00    +0.000 HD
ATOM     20  C   UNL     1      54.000  29.229  38.804  0.00  0.00    +0.000 A 
ATOM     21  N   UNL     1      54.409  28.668  37.658  0.00  0.00    +0.000 N 
ATOM     22  H   UNL     1      54.146  28.868  36.662  0.00  0.00    +0.000 HD
ATOM     23  N   UNL     1      55.290  27.708  37.853  0.00  0.00    +0.000 NA
ATOM     24  C   UNL     1      55.506  27.591  39.191  0.00  0.00    +0.000 A 
ATOM     25  H   UNL     1      56.147  26.933  39.768  0.00  0.00    +0.000 HD
ATOM     26  C   UNL     1      54.689  28.554  39.785  0.00  0.00    +0.000 A 
ATOM     27  C   UNL     1      54.470  28.919  41.105  0.00  0.00    +0.000 A 
ENDBRANCH  11  17
ENDBRANCH   5   9
BRANCH   1  28
ATOM     28  C   UNL     1      47.926  35.120  41.975  0.00  0.00    +0.000 C 
ATOM     29  H   UNL     1      48.553  35.032  42.876  0.00  0.00    +0.000 HD
ATOM     30  H   UNL     1      48.057  36.170  41.605  0.00  0.00    +0.000 HD
BRANCH  28  31
ATOM     31  C   UNL     1      46.475  34.928  42.285  0.00  0.00    +0.000 C 
ATOM     32  H   UNL     1      45.891  35.881  42.207  0.00  0.00    +0.000 HD
ATOM     33  H   UNL     1      46.017  34.232  41.571  0.00  0.00    +0.000 HD
BRANCH  31  36
ATOM     34 CL   UNL     1      44.568  36.424  44.025  0.00  0.00    +0.000 Cl
ATOM     35  C   UNL     1      45.395  34.968  44.551  0.00  0.00    +0.000 A 
ATOM     36  C   UNL     1      46.240  34.375  43.646  0.00  0.00    +0.000 A 
ATOM     37  C   UNL     1      46.885  33.216  44.053  0.00  0.00    +0.000 A 
ATOM     38  C   UNL     1      46.680  32.688  45.319  0.00  0.00    +0.000 A 
ATOM     39  C   UNL     1      45.813  33.319  46.213  0.00  0.00    +0.000 A 
ATOM     40  C   UNL     1      45.180  34.460  45.806  0.00  0.00    +0.000 A 
ATOM     41  H   UNL     1      47.569  32.691  43.391  0.00  0.00    +0.000 HD
ATOM     42  H   UNL     1      47.200  31.782  45.604  0.00  0.00    +0.000 HD
ATOM     43  H   UNL     1      45.644  32.916  47.206  0.00  0.00    +0.000 HD
BRANCH  40  44
ATOM     44  O   UNL     1      44.294  35.162  46.632  0.00  0.00    +0.000 OA
ATOM     45  H   UNL     1      43.471  34.706  47.027  0.00  0.00    +0.000 HD
ENDBRANCH  40  44
ENDBRANCH  31  36
ENDBRANCH  28  31
ENDBRANCH   1  28
TORSDOF 6
