
 OpenBabel03242522203D

 48 52  0  0  0  0  0  0  0  0999 V2000
   42.3160   34.7990   39.9320 C   0  0  0  0  0  0  0  0  0  0  0  0
   41.7910   34.9180   38.6770 C   0  0  0  0  0  0  0  0  0  0  0  0
   40.6010   34.3750   38.2200 C   0  0  0  0  0  0  0  0  0  0  0  0
   39.9060   33.6490   39.1540 C   0  0  0  0  0  0  0  0  0  0  0  0
   40.4240   33.5230   40.4190 C   0  0  0  0  0  0  0  0  0  0  0  0
   41.5750   34.0620   40.8180 N   0  0  0  0  0  0  0  0  0  0  0  0
   42.4060   35.5100   37.9950 H   0  0  0  0  0  0  0  0  0  0  0  0
   40.2790   34.5270   37.2190 H   0  0  0  0  0  0  0  0  0  0  0  0
   39.5850   32.7150   41.3440 C   0  0  0  0  0  0  0  0  0  0  0  0
   38.2250   32.8770   40.9970 F   0  0  0  0  0  0  0  0  0  0  0  0
   39.8180   32.9770   42.6650 F   0  0  0  0  0  0  0  0  0  0  0  0
   39.8290   31.3640   41.1620 F   0  0  0  0  0  0  0  0  0  0  0  0
   43.5410   35.3290   40.4870 C   0  0  0  0  0  0  0  0  0  0  0  0
   44.4010   34.6970   40.1740 H   0  0  0  0  0  0  0  0  0  0  0  0
   43.7260   36.3240   40.0250 H   0  0  0  0  0  0  0  0  0  0  0  0
   43.5990   35.4770   41.9740 C   0  0  0  0  0  0  0  0  0  0  0  0
   43.5800   36.5350   42.2930 H   0  0  0  0  0  0  0  0  0  0  0  0
   42.6820   35.0030   42.3880 H   0  0  0  0  0  0  0  0  0  0  0  0
   46.6870   33.5650   42.7060 C   0  0  0  0  0  0  0  0  0  0  0  0
   46.7430   33.7600   44.0470 C   0  0  0  0  0  0  0  0  0  0  0  0
   45.2500   34.7970   44.3390 S   0  0  0  0  0  0  0  0  0  0  0  0
   44.7930   34.7860   42.5360 C   0  0  0  0  0  0  0  0  0  0  0  0
   45.6670   34.1410   42.1440 N   0  0  0  0  0  0  0  0  0  0  0  0
   47.4820   33.3900   44.7280 H   0  0  0  0  0  0  0  0  0  0  0  0
   49.4100   32.5070   40.3310 C   0  0  0  0  0  0  0  0  0  0  0  0
   48.4950   33.3300   41.0130 C   0  0  0  0  0  0  0  0  0  0  0  0
   47.6730   32.7820   41.9460 C   0  0  0  0  0  0  0  0  0  0  0  0
   47.8020   31.4020   42.1650 N   0  0  0  0  0  0  0  0  0  0  0  0
   48.6930   30.6640   41.4870 C   0  0  0  0  0  0  0  0  0  0  0  0
   49.4960   31.2090   40.5730 N   0  0  0  0  0  0  0  0  0  0  0  0
   50.0870   32.8980   39.5780 H   0  0  0  0  0  0  0  0  0  0  0  0
   48.6320   29.6290   41.8030 H   0  0  0  0  0  0  0  0  0  0  0  0
   48.4930   34.7150   40.6690 N   0  0  0  0  0  0  0  0  0  0  0  0
   47.8480   34.7260   39.8410 H   0  0  0  0  0  0  0  0  0  0  0  0
   49.0460   35.3930   41.2090 H   0  0  0  0  0  0  0  0  0  0  0  0
   38.3500   32.9070   38.6480 S   0  0  0  0  0  0  0  0  0  0  0  0
   38.0490   30.2570   38.8200 C   0  0  0  0  0  3  0  0  0  0  0  0
   38.5540   31.2690   37.9950 C   0  0  0  0  0  0  0  0  0  0  0  0
   39.1420   30.9160   36.7920 C   0  0  0  0  0  0  0  0  0  0  0  0
   39.4930   31.7730   36.2410 H   0  0  0  0  0  0  0  0  0  0  0  0
   39.2320   29.5940   36.4090 C   0  0  0  0  0  0  0  0  0  0  0  0
   39.7640   29.0710   35.2890 N   0  0  0  0  0  0  0  0  0  0  0  0
   40.2060   29.6220   34.5140 H   0  0  0  0  0  0  0  0  0  0  0  0
   39.6370   27.7520   35.3330 N   0  0  0  0  0  0  0  0  0  0  0  0
   39.0140   27.4270   36.4970 C   0  0  0  0  0  0  0  0  0  0  0  0
   38.7460   26.4380   36.8660 H   0  0  0  0  0  0  0  0  0  0  0  0
   38.7460   28.5720   37.1990 C   0  0  0  0  0  0  0  0  0  0  0  0
   38.1680   28.9450   38.3850 C   0  0  0  0  0  3  0  0  0  0  0  0
  1 13  1  0  0  0  0
  1  6  1  0  0  0  0
  2  1  2  0  0  0  0
  3  2  1  0  0  0  0
  3  4  2  0  0  0  0
  4  5  1  0  0  0  0
  5  6  2  0  0  0  0
  5  9  1  0  0  0  0
  7  2  1  0  0  0  0
  8  3  1  0  0  0  0
  9 11  1  0  0  0  0
 10  9  1  0  0  0  0
 12  9  1  0  0  0  0
 13 16  1  0  0  0  0
 14 13  1  0  0  0  0
 15 13  1  0  0  0  0
 16 17  1  0  0  0  0
 16 18  1  0  0  0  0
 16 22  1  0  0  0  0
 19 20  2  0  0  0  0
 20 21  1  0  0  0  0
 20 24  1  0  0  0  0
 22 21  1  0  0  0  0
 23 22  2  0  0  0  0
 23 19  1  0  0  0  0
 25 30  2  0  0  0  0
 25 26  1  0  0  0  0
 26 27  2  0  0  0  0
 27 28  1  0  0  0  0
 27 19  1  0  0  0  0
 29 32  1  0  0  0  0
 29 28  2  0  0  0  0
 30 29  1  0  0  0  0
 31 25  1  0  0  0  0
 33 26  1  0  0  0  0
 33 35  1  0  0  0  0
 34 33  1  0  0  0  0
 36  4  1  0  0  0  0
 38 36  1  0  0  0  0
 38 37  2  0  0  0  0
 39 38  1  0  0  0  0
 40 39  1  0  0  0  0
 41 39  2  0  0  0  0
 41 47  1  0  0  0  0
 42 44  1  0  0  0  0
 42 41  1  0  0  0  0
 43 42  1  0  0  0  0
 44 45  2  0  0  0  0
 45 46  1  0  0  0  0
 45 47  1  0  0  0  0
 47 48  2  0  0  0  0
 48 37  1  0  0  0  0
M  END
>  <minimizedAffinity>
-5.91649294

>  <minimizedRMSD>
0.822633803

$$$$
