
 OpenBabel03252509083D

 44 48  0  0  0  0  0  0  0  0999 V2000
   44.0180   31.2050   37.4890 C   0  0  0  0  0  0  0  0  0  0  0  0
   44.2920   32.4010   38.0860 C   0  0  0  0  0  0  0  0  0  0  0  0
   43.2660   33.3010   38.3260 C   0  0  0  0  0  0  0  0  0  0  0  0
   41.9740   32.9990   37.9660 C   0  0  0  0  0  0  0  0  0  0  0  0
   41.6520   31.7890   37.3550 C   0  0  0  0  0  0  0  0  0  0  0  0
   42.7040   30.8990   37.1240 C   0  0  0  0  0  0  0  0  0  0  0  0
   43.4490   34.2450   38.7910 H   0  0  0  0  0  0  0  0  0  0  0  0
   41.1430   33.6390   38.1190 H   0  0  0  0  0  0  0  0  0  0  0  0
   40.6810   31.4910   37.0520 H   0  0  0  0  0  0  0  0  0  0  0  0
   42.4810   29.9510   36.6500 H   0  0  0  0  0  0  0  0  0  0  0  0
   47.6890   33.2070   41.8880 Cl  0  0  0  0  0  0  0  0  0  0  0  0
   47.1820   33.1990   40.2180 C   0  0  0  0  0  0  0  0  0  0  0  0
   45.9380   32.7900   39.8620 C   0  0  0  0  0  0  0  0  0  0  0  0
   45.6220   32.8110   38.5140 C   0  0  0  0  0  0  0  0  0  0  0  0
   46.5260   33.2250   37.5660 C   0  0  0  0  0  0  0  0  0  0  0  0
   47.7670   33.6320   37.9350 C   0  0  0  0  0  0  0  0  0  0  0  0
   48.0970   33.6180   39.2790 C   0  0  0  0  0  0  0  0  0  0  0  0
   46.2190   33.2160   36.5270 H   0  0  0  0  0  0  0  0  0  0  0  0
   48.4420   33.9490   37.1610 H   0  0  0  0  0  0  0  0  0  0  0  0
   49.0940   33.9490   39.5380 H   0  0  0  0  0  0  0  0  0  0  0  0
   44.1280   30.6590   42.4170 C   0  0  0  0  0  0  0  0  0  0  0  0
   45.0230   31.0710   41.4250 C   0  0  0  0  0  0  0  0  0  0  0  0
   45.0100   32.3500   40.8920 C   0  0  0  0  0  0  0  0  0  0  0  0
   44.0650   33.1370   41.4200 N   0  0  0  0  0  0  0  0  0  0  0  0
   43.2040   32.7650   42.3650 C   0  0  0  0  0  0  0  0  0  0  0  0
   43.2340   31.5360   42.8610 N   0  0  0  0  0  0  0  0  0  0  0  0
   44.2000   29.6390   42.7840 H   0  0  0  0  0  0  0  0  0  0  0  0
   45.7690   30.3590   41.0470 H   0  0  0  0  0  0  0  0  0  0  0  0
   42.5180   33.5750   42.6450 H   0  0  0  0  0  0  0  0  0  0  0  0
   45.2260   30.0790   37.1500 S   0  0  0  0  0  0  0  0  0  0  0  0
   45.9330   29.6760   38.4690 O   0  0  0  0  0  0  0  0  0  0  0  0
   44.5040   28.7950   36.7400 O   0  0  0  0  0  0  0  0  0  0  0  0
   47.6300   31.2680   36.3240 C   0  0  0  0  0  3  0  0  0  0  0  0
   46.5940   30.3580   36.1630 C   0  0  0  0  0  0  0  0  0  0  0  0
   46.8080   29.6660   34.9400 C   0  0  0  0  0  0  0  0  0  0  0  0
   46.0430   28.9050   34.6900 H   0  0  0  0  0  0  0  0  0  0  0  0
   47.8340   29.8210   34.0360 C   0  0  0  0  0  0  0  0  0  0  0  0
   48.1180   29.2240   32.8720 N   0  0  0  0  0  0  0  0  0  0  0  0
   47.5430   28.4750   32.4310 H   0  0  0  0  0  0  0  0  0  0  0  0
   49.2310   29.7770   32.4420 N   0  0  0  0  0  0  0  0  0  0  0  0
   49.6620   30.7120   33.3040 C   0  0  0  0  0  0  0  0  0  0  0  0
   50.5550   31.3360   33.2170 H   0  0  0  0  0  0  0  0  0  0  0  0
   48.7570   30.7570   34.3600 C   0  0  0  0  0  0  0  0  0  0  0  0
   48.7020   31.5170   35.5060 C   0  0  0  0  0  3  0  0  0  0  0  0
  1  2  1  0  0  0  0
  2  3  2  0  0  0  0
  2 14  1  0  0  0  0
  3  7  1  0  0  0  0
  4  8  1  0  0  0  0
  4  3  1  0  0  0  0
  5  4  2  0  0  0  0
  6  5  1  0  0  0  0
  6  1  2  0  0  0  0
  9  5  1  0  0  0  0
 10  6  1  0  0  0  0
 12 11  1  0  0  0  0
 13 12  1  0  0  0  0
 13 23  1  0  0  0  0
 14 13  2  0  0  0  0
 15 16  2  0  0  0  0
 15 14  1  0  0  0  0
 16 17  1  0  0  0  0
 17 20  1  0  0  0  0
 17 12  2  0  0  0  0
 18 15  1  0  0  0  0
 19 16  1  0  0  0  0
 21 27  1  0  0  0  0
 21 26  1  0  0  0  0
 22 21  2  0  0  0  0
 23 24  2  0  0  0  0
 23 22  1  0  0  0  0
 24 25  1  0  0  0  0
 25 29  1  0  0  0  0
 25 26  2  0  0  0  0
 28 22  1  0  0  0  0
 30  1  1  0  0  0  0
 30 31  2  0  0  0  0
 32 30  2  0  0  0  0
 34 33  1  0  0  0  0
 34 30  1  0  0  0  0
 35 34  2  0  0  0  0
 36 35  1  0  0  0  0
 37 43  2  0  0  0  0
 37 35  1  0  0  0  0
 38 37  1  0  0  0  0
 39 38  1  0  0  0  0
 40 38  1  0  0  0  0
 40 41  2  0  0  0  0
 41 43  1  0  0  0  0
 42 41  1  0  0  0  0
 43 44  1  0  0  0  0
 44 33  2  0  0  0  0
M  END
>  <minimizedAffinity>
-3.21212196

>  <minimizedRMSD>
6.59776068

$$$$
