
 OpenBabel03242519253D

 43 47  0  0  0  0  0  0  0  0999 V2000
   47.9130   33.7940   42.8960 C   0  0  0  0  0  0  0  0  0  0  0  0
   48.5760   35.0010   42.6570 C   0  0  0  0  0  0  0  0  0  0  0  0
   49.9430   35.0100   42.3340 C   0  0  0  0  0  0  0  0  0  0  0  0
   50.5500   33.7740   42.2750 N   0  0  0  0  0  0  0  0  0  0  0  0
   49.8680   32.6140   42.5160 C   0  0  0  0  0  0  0  0  0  0  0  0
   48.5740   32.6360   42.8200 N   0  0  0  0  0  0  0  0  0  0  0  0
   48.1840   36.0080   42.6820 H   0  0  0  0  0  0  0  0  0  0  0  0
   50.5170   35.8990   42.1380 H   0  0  0  0  0  0  0  0  0  0  0  0
   46.4820   33.9190   43.2320 C   0  0  0  0  0  0  0  0  0  0  0  0
   45.7740   34.9210   42.4360 C   0  0  0  0  0  0  0  0  0  0  0  0
   45.3200   36.1090   43.2040 C   0  0  0  0  0  0  0  0  0  0  0  0
   44.5330   35.7590   44.4540 C   0  0  0  0  0  0  0  0  0  0  0  0
   44.9770   34.4830   45.1270 C   0  0  0  0  0  0  0  0  0  0  0  0
   46.4100   34.1720   44.7480 C   0  0  0  0  0  0  0  0  0  0  0  0
   46.0460   32.8840   43.1030 H   0  0  0  0  0  0  0  0  0  0  0  0
   44.8540   34.4680   41.9690 H   0  0  0  0  0  0  0  0  0  0  0  0
   46.4390   35.2830   41.6320 H   0  0  0  0  0  0  0  0  0  0  0  0
   46.0670   36.8790   43.4130 H   0  0  0  0  0  0  0  0  0  0  0  0
   44.5590   36.6270   42.5460 H   0  0  0  0  0  0  0  0  0  0  0  0
   44.7160   36.5820   45.1990 H   0  0  0  0  0  0  0  0  0  0  0  0
   43.4380   35.7570   44.2950 H   0  0  0  0  0  0  0  0  0  0  0  0
   44.8670   34.5020   46.2110 H   0  0  0  0  0  0  0  0  0  0  0  0
   44.3710   33.6630   44.6640 H   0  0  0  0  0  0  0  0  0  0  0  0
   47.0460   35.0860   44.9110 H   0  0  0  0  0  0  0  0  0  0  0  0
   46.7600   33.2920   45.3000 H   0  0  0  0  0  0  0  0  0  0  0  0
   50.6600   31.3930   42.4170 C   0  0  0  0  0  0  0  0  0  0  0  0
   51.4840   31.2740   41.3490 N   0  0  0  0  0  0  0  0  0  0  0  0
   52.1360   30.1020   41.4100 C   0  0  0  0  0  0  0  0  0  0  0  0
   51.7010   29.4790   42.5520 N   0  0  0  0  0  0  0  0  0  0  0  0
   50.8090   30.2680   43.1540 N   0  0  0  0  0  0  0  0  0  0  0  0
   52.8660   29.6580   40.7510 H   0  0  0  0  0  0  0  0  0  0  0  0
   52.1440   28.0120   44.4930 C   0  0  0  0  0  3  0  0  0  0  0  0
   52.0500   28.2200   43.1180 C   0  0  0  0  0  0  0  0  0  0  0  0
   52.3130   27.1290   42.3130 C   0  0  0  0  0  0  0  0  0  0  0  0
   52.2400   27.2870   41.2470 H   0  0  0  0  0  0  0  0  0  0  0  0
   52.6550   25.8830   42.7990 C   0  0  0  0  0  0  0  0  0  0  0  0
   52.9400   24.7320   42.1550 N   0  0  0  0  0  0  0  0  0  0  0  0
   52.9340   24.6360   41.1200 H   0  0  0  0  0  0  0  0  0  0  0  0
   53.2060   23.8210   43.0810 N   0  0  0  0  0  0  0  0  0  0  0  0
   53.0970   24.3710   44.3230 C   0  0  0  0  0  0  0  0  0  0  0  0
   53.2510   23.8950   45.2750 H   0  0  0  0  0  0  0  0  0  0  0  0
   52.7460   25.6930   44.1760 C   0  0  0  0  0  0  0  0  0  0  0  0
   52.4850   26.7700   44.9850 C   0  0  0  0  0  3  0  0  0  0  0  0
  1  9  1  0  0  0  0
  2  7  1  0  0  0  0
  2  1  2  0  0  0  0
  3  2  1  0  0  0  0
  4  3  2  0  0  0  0
  4  5  1  0  0  0  0
  5  6  2  0  0  0  0
  6  1  1  0  0  0  0
  8  3  1  0  0  0  0
  9 14  1  0  0  0  0
 10 11  1  0  0  0  0
 10  9  1  0  0  0  0
 11 18  1  0  0  0  0
 11 12  1  0  0  0  0
 12 13  1  0  0  0  0
 12 20  1  0  0  0  0
 13 22  1  0  0  0  0
 14 24  1  0  0  0  0
 14 13  1  0  0  0  0
 14 25  1  0  0  0  0
 15  9  1  0  0  0  0
 16 10  1  0  0  0  0
 17 10  1  0  0  0  0
 19 11  1  0  0  0  0
 21 12  1  0  0  0  0
 23 13  1  0  0  0  0
 26  5  1  0  0  0  0
 26 30  2  0  0  0  0
 27 28  2  0  0  0  0
 27 26  1  0  0  0  0
 28 29  1  0  0  0  0
 29 33  1  0  0  0  0
 29 30  1  0  0  0  0
 31 28  1  0  0  0  0
 32 43  1  0  0  0  0
 33 32  2  0  0  0  0
 34 36  2  0  0  0  0
 34 33  1  0  0  0  0
 35 34  1  0  0  0  0
 36 42  1  0  0  0  0
 37 36  1  0  0  0  0
 37 39  1  0  0  0  0
 38 37  1  0  0  0  0
 39 40  2  0  0  0  0
 40 41  1  0  0  0  0
 42 40  1  0  0  0  0
 42 43  2  0  0  0  0
M  END
>  <minimizedAffinity>
-4.19489336

>  <minimizedRMSD>
0.767155409

$$$$
