
 OpenBabel03252508313D

 35 38  0  0  1  0  0  0  0  0999 V2000
   44.7580   33.9060   41.3840 N   0  0  0  0  0  0  0  0  0  0  0  0
   44.7790   33.0450   40.2640 C   0  0  1  0  0  0  0  0  0  0  0  0
   43.9930   33.4930   39.0870 C   0  0  0  0  0  0  0  0  0  0  0  0
   42.7720   34.1190   39.3730 N   0  0  0  0  0  0  0  0  0  0  0  0
   42.7030   34.9190   40.5300 C   0  0  0  0  0  0  0  0  0  0  0  0
   44.0580   35.1380   41.1480 C   0  0  0  0  0  0  0  0  0  0  0  0
   44.3400   32.0640   40.5880 H   0  0  0  0  0  0  0  0  0  0  0  0
   43.8270   32.6400   38.3960 H   0  0  0  0  0  0  0  0  0  0  0  0
   44.6370   34.2370   38.5340 H   0  0  0  0  0  0  0  0  0  0  0  0
   42.1680   34.3240   38.5830 H   0  0  0  0  0  0  0  0  0  0  0  0
   42.0390   34.4990   41.3370 H   0  0  0  0  0  0  0  0  0  0  0  0
   42.2660   35.9060   40.2890 H   0  0  0  0  0  0  0  0  0  0  0  0
   44.6980   35.8050   40.5140 H   0  0  0  0  0  0  0  0  0  0  0  0
   43.8560   35.7130   42.0750 H   0  0  0  0  0  0  0  0  0  0  0  0
   46.8400   33.7850   39.2340 C   0  0  0  0  0  3  0  0  0  0  0  0
   46.1660   32.7010   39.7800 C   0  0  0  0  0  0  0  0  0  0  0  0
   46.8240   31.4920   39.7960 C   0  0  0  0  0  0  0  0  0  0  0  0
   46.2120   30.7000   40.2450 H   0  0  0  0  0  0  0  0  0  0  0  0
   48.0760   31.3720   39.2970 C   0  0  0  0  0  0  0  0  0  0  0  0
   48.8210   30.2630   39.2530 N   0  0  0  0  0  0  0  0  0  0  0  0
   48.6310   29.2740   39.5720 H   0  0  0  0  0  0  0  0  0  0  0  0
   49.9710   30.5700   38.6940 N   0  0  0  0  0  0  0  0  0  0  0  0
   49.9760   31.8640   38.3790 C   0  0  0  0  0  0  0  0  0  0  0  0
   50.7660   32.4530   37.9030 H   0  0  0  0  0  0  0  0  0  0  0  0
   48.7690   32.4300   38.7500 C   0  0  0  0  0  0  0  0  0  0  0  0
   48.1350   33.6390   38.7240 C   0  0  0  0  0  3  0  0  0  0  0  0
   46.5170   34.2760   42.9580 C   0  0  0  0  0  0  0  0  0  0  0  0
   45.4020   33.5000   42.5750 C   0  0  0  0  0  0  0  0  0  0  0  0
   45.0430   32.4290   43.3710 C   0  0  0  0  0  0  0  0  0  0  0  0
   45.7510   32.1350   44.4940 N   0  0  0  0  0  0  0  0  0  0  0  0
   46.8270   32.9020   44.8460 C   0  0  0  0  0  0  0  0  0  0  0  0
   47.1980   33.9520   44.0860 N   0  0  0  0  0  0  0  0  0  0  0  0
   46.9540   35.1370   42.4800 H   0  0  0  0  0  0  0  0  0  0  0  0
   44.1950   31.8460   43.0830 H   0  0  0  0  0  0  0  0  0  0  0  0
   47.3800   32.6480   45.7510 H   0  0  0  0  0  0  0  0  0  0  0  0
  1 28  1  0  0  0  0
  2  7  1  1  0  0  0
  2  1  1  0  0  0  0
  3  4  1  0  0  0  0
  3  2  1  0  0  0  0
  4  5  1  0  0  0  0
  5  6  1  0  0  0  0
  5 11  1  0  0  0  0
  6  1  1  0  0  0  0
  6 14  1  0  0  0  0
  8  3  1  0  0  0  0
  9  3  1  0  0  0  0
 10  4  1  0  0  0  0
 12  5  1  0  0  0  0
 13  6  1  0  0  0  0
 15 16  1  0  0  0  0
 16 17  2  0  0  0  0
 16  2  1  0  0  0  0
 17 18  1  0  0  0  0
 19 17  1  0  0  0  0
 20 19  1  0  0  0  0
 20 21  1  0  0  0  0
 22 20  1  0  0  0  0
 23 22  2  0  0  0  0
 23 25  1  0  0  0  0
 24 23  1  0  0  0  0
 25 19  2  0  0  0  0
 26 25  1  0  0  0  0
 26 15  2  0  0  0  0
 27 32  1  0  0  0  0
 28 27  2  0  0  0  0
 28 29  1  0  0  0  0
 29 30  2  0  0  0  0
 30 31  1  0  0  0  0
 31 35  1  0  0  0  0
 32 31  2  0  0  0  0
 33 27  1  0  0  0  0
 34 29  1  0  0  0  0
M  END
>  <minimizedAffinity>
-3.70499372

>  <minimizedRMSD>
1.63940394

$$$$
