
     RDKit          3D

 37 41  0  0  0  0  0  0  0  0999 V2000
   47.4634   31.6786   44.8231 C   0  0  0  0  0  0  0  0  0  0  0  0
   46.7884   32.8583   44.5380 C   0  0  0  0  0  0  0  0  0  0  0  0
   45.9211   33.4428   45.4241 C   0  0  0  0  0  0  0  0  0  0  0  0
   45.6830   32.8563   46.6714 C   0  0  0  0  0  0  0  0  0  0  0  0
   44.9221   33.1425   47.7530 N   0  0  0  0  0  0  0  0  0  0  0  0
   45.1105   32.1739   48.6922 C   0  0  0  0  0  0  0  0  0  0  0  0
   45.9902   31.3114   48.1567 N   0  0  0  0  0  0  0  0  0  0  0  0
   46.3642   31.6884   46.9288 C   0  0  0  0  0  0  0  0  0  0  0  0
   47.2387   31.0749   46.0680 C   0  0  0  0  0  0  0  0  0  0  0  0
   46.3709   33.8108   41.0182 C   0  0  0  0  0  0  0  0  0  0  0  0
   47.4158   34.7194   40.8200 C   0  0  0  0  0  0  0  0  0  0  0  0
   48.2567   34.9971   41.9008 C   0  0  0  0  0  0  0  0  0  0  0  0
   48.0222   34.3720   43.0971 N   0  0  0  0  0  0  0  0  0  0  0  0
   47.0062   33.5035   43.2489 C   0  0  0  0  0  0  0  0  0  0  0  0
   46.1850   33.2223   42.2207 N   0  0  0  0  0  0  0  0  0  0  0  0
   45.0537   34.9647   45.0560 S   0  0  0  0  0  0  0  0  0  0  0  0
   48.1511   31.2192   44.1149 H   0  0  0  0  0  0  0  0  0  0  0  0
   44.3326   34.0059   47.7280 H   0  0  0  0  0  0  0  0  0  0  0  0
   44.5602   32.2911   49.5953 H   0  0  0  0  0  0  0  0  0  0  0  0
   47.7468   30.1493   46.3333 H   0  0  0  0  0  0  0  0  0  0  0  0
   45.7368   33.6162   40.1629 H   0  0  0  0  0  0  0  0  0  0  0  0
   47.6509   35.2378   39.9167 H   0  0  0  0  0  0  0  0  0  0  0  0
   49.1004   35.6704   41.9056 H   0  0  0  0  0  0  0  0  0  0  0  0
   43.3544   33.9972   43.0557 C   0  0  0  0  0  0  0  0  0  0  0  0
   43.4917   34.6542   44.2614 C   0  0  0  0  0  0  0  0  0  0  0  0
   42.3620   35.1074   44.9098 C   0  0  0  0  0  0  0  0  0  0  0  0
   42.4309   35.6263   45.8559 H   0  0  0  0  0  0  0  0  0  0  0  0
   41.1483   34.8702   44.3003 C   0  0  0  0  0  0  0  0  0  0  0  0
   39.8997   35.2095   44.7258 N   0  0  0  0  0  0  0  0  0  0  0  0
   39.5604   35.7128   45.5827 H   0  0  0  0  0  0  0  0  0  0  0  0
   38.9971   34.7935   43.8404 N   0  0  0  0  0  0  0  0  0  0  0  0
   39.6458   34.1810   42.8324 C   0  0  0  0  0  0  0  0  0  0  0  0
   39.2163   33.7303   41.9552 H   0  0  0  0  0  0  0  0  0  0  0  0
   41.0210   34.2079   43.0864 C   0  0  0  0  0  0  0  0  0  0  0  0
   42.1472   33.7522   42.4330 C   0  0  0  0  0  0  0  0  0  0  0  0
   44.2652   33.6452   42.5569 H   0  0  0  0  0  0  0  0  0  0  0  0
   42.0504   33.2433   41.5007 H   0  0  0  0  0  0  0  0  0  0  0  0
  1  9  2  0
  2  1  1  0
  2  3  2  0
  3  4  1  0
  4  8  2  0
  4  5  1  0
  5  6  1  0
  7  6  2  0
  8  7  1  0
  9  8  1  0
 10 15  2  0
 11 10  1  0
 11 12  2  0
 12 13  1  0
 13 14  2  0
 14  2  1  0
 15 14  1  0
 16  3  1  0
  1 17  1  0
  5 18  1  0
  6 19  1  0
  9 20  1  0
 10 21  1  0
 11 22  1  0
 12 23  1  0
 24 25  2  0
 25 26  1  0
 26 27  1  0
 26 28  2  0
 28 29  1  0
 29 30  1  0
 29 31  1  0
 31 32  2  0
 32 33  1  0
 32 34  1  0
 34 35  2  0
 35 24  1  0
 34 28  1  0
 24 36  1  0
 35 37  1  0
 16 25  1  0
M  ISO  8  17  14  18   9  19  14  20  14  21  14  22  14  23  14  27  16
M  ISO  2  30   5  33  15
M  END
>  <DihAtoms>  (1) 
2,15,24,23

>  <DihDeg>  (1) 
-0.11372453707410915

$$$$
