
     RDKit          3D

 46 50  0  0  0  0  0  0  0  0999 V2000
   45.2766   35.2807   43.1331 Cl  0  0  0  0  0  0  0  0  0  0  0  0
   45.1557   34.5293   41.5633 C   0  0  0  0  0  0  0  0  0  0  0  0
   46.2635   34.1444   40.8804 C   0  0  0  0  0  0  0  0  0  0  0  0
   46.0756   33.5600   39.6380 C   0  0  0  0  0  0  0  0  0  0  0  0
   44.8224   33.3754   39.1090 C   0  0  0  0  0  0  0  0  0  0  0  0
   43.7222   33.7641   39.8023 C   0  0  0  0  0  0  0  0  0  0  0  0
   43.8935   34.3478   41.0449 C   0  0  0  0  0  0  0  0  0  0  0  0
   49.5428   35.7485   41.8910 C   0  0  0  0  0  0  0  0  0  0  0  0
   48.2828   35.5458   41.3195 C   0  0  0  0  0  0  0  0  0  0  0  0
   47.5762   34.3643   41.4680 C   0  0  0  0  0  0  0  0  0  0  0  0
   48.2172   33.4498   42.2054 N   0  0  0  0  0  0  0  0  0  0  0  0
   49.4158   33.6215   42.7586 C   0  0  0  0  0  0  0  0  0  0  0  0
   50.0754   34.7615   42.6038 N   0  0  0  0  0  0  0  0  0  0  0  0
   47.7859   31.8711   38.9867 C   0  0  0  0  0  0  0  0  0  0  0  0
   47.2336   33.1128   38.8766 C   0  0  0  0  0  0  0  0  0  0  0  0
   47.7741   34.0298   37.9891 C   0  0  0  0  0  0  0  0  0  0  0  0
   48.8627   33.6966   37.2190 C   0  0  0  0  0  0  0  0  0  0  0  0
   49.4566   32.4394   37.3011 C   0  0  0  0  0  0  0  0  0  0  0  0
   48.8926   31.5327   38.2038 C   0  0  0  0  0  0  0  0  0  0  0  0
   47.1880   30.7213   40.0659 S   0  0  0  0  0  0  0  0  0  0  0  0
   46.8069   29.4377   39.2845 O   0  0  0  0  0  0  0  0  0  0  0  0
   48.3829   30.2695   40.9082 O   0  0  0  0  0  0  0  0  0  0  0  0
   44.7409   32.9147   38.1315 H   0  0  0  0  0  0  0  0  0  0  0  0
   42.7600   33.5993   39.3506 H   0  0  0  0  0  0  0  0  0  0  0  0
   42.9957   34.6455   41.5708 H   0  0  0  0  0  0  0  0  0  0  0  0
   50.0345   36.7031   41.7294 H   0  0  0  0  0  0  0  0  0  0  0  0
   47.8281   36.3520   40.7270 H   0  0  0  0  0  0  0  0  0  0  0  0
   49.7456   32.7371   43.3200 H   0  0  0  0  0  0  0  0  0  0  0  0
   47.3639   35.0102   37.8802 H   0  0  0  0  0  0  0  0  0  0  0  0
   49.3269   34.3468   36.5209 H   0  0  0  0  0  0  0  0  0  0  0  0
   50.2946   32.1151   36.7401 H   0  0  0  0  0  0  0  0  0  0  0  0
   49.3353   30.5480   38.2871 H   0  0  0  0  0  0  0  0  0  0  0  0
   45.6287   31.5335   42.2536 C   0  0  0  0  0  0  0  0  0  0  0  0
   45.7874   30.8987   41.0298 C   0  0  0  0  0  0  0  0  0  0  0  0
   44.5384   30.3185   40.6754 C   0  0  0  0  0  0  0  0  0  0  0  0
   44.5280   29.7751   39.7107 H   0  0  0  0  0  0  0  0  0  0  0  0
   43.3516   30.3467   41.3739 C   0  0  0  0  0  0  0  0  0  0  0  0
   42.1387   29.8377   41.1256 N   0  0  0  0  0  0  0  0  0  0  0  0
   41.8869   29.2861   40.2776 H   0  0  0  0  0  0  0  0  0  0  0  0
   41.3850   30.1799   42.1479 N   0  0  0  0  0  0  0  0  0  0  0  0
   42.0891   30.8940   43.0400 C   0  0  0  0  0  0  0  0  0  0  0  0
   41.7344   31.3141   43.9838 H   0  0  0  0  0  0  0  0  0  0  0  0
   43.3864   31.0155   42.5499 C   0  0  0  0  0  0  0  0  0  0  0  0
   44.5124   31.6343   43.0421 C   0  0  0  0  0  0  0  0  0  0  0  0
   46.5107   31.9955   42.6663 H   0  0  0  0  0  0  0  0  0  0  0  0
   44.5291   32.1647   43.9811 H   0  0  0  0  0  0  0  0  0  0  0  0
  2  1  1  0
  3 10  1  0
  3  2  2  0
  4  3  1  0
  5  4  2  0
  5  6  1  0
  6  7  2  0
  7  2  1  0
  8 13  2  0
  9 10  2  0
  9  8  1  0
 10 11  1  0
 11 12  2  0
 13 12  1  0
 14 20  1  0
 15 14  1  0
 15  4  1  0
 16 15  2  0
 17 18  2  0
 17 16  1  0
 18 19  1  0
 19 14  2  0
 20 22  2  0
 21 20  2  0
  5 23  1  0
  6 24  1  0
  7 25  1  0
  8 26  1  0
  9 27  1  0
 12 28  1  0
 16 29  1  0
 17 30  1  0
 18 31  1  0
 19 32  1  0
 33 34  2  0
 34 35  1  0
 35 36  1  0
 35 37  2  0
 37 38  1  0
 38 39  1  0
 38 40  1  0
 40 41  2  0
 41 42  1  0
 41 43  1  0
 43 44  2  0
 44 33  1  0
 43 37  1  0
 33 45  1  0
 44 46  1  0
 20 34  1  0
M  ISO  8  23  14  24  14  25  14  26  14  27  14  28  14  29  14  30  14
M  ISO  5  31  14  32  14  36  16  39   5  42  15
M  END
>  <DihAtoms>  (1) 
13,19,33,32

>  <DihDeg>  (1) 
-97.88459193416926

$$$$
