REMARK  Name = 
REMARK  2 active torsions:
REMARK  status: ('A' for Active; 'I' for Inactive)
REMARK    1  A    between atoms: C_2  and  N_7
REMARK    2  A    between atoms: C_8  and  C_25
REMARK                            x       y       z     vdW  Elec       q    Type
REMARK                         _______ _______ _______ _____ _____    ______ ____
ROOT
ATOM      1  N   UNL     1      44.276  34.386  41.980  0.00  0.00    +0.000 N 
ATOM      2  C   UNL     1      44.469  33.438  40.950  0.00  0.00    +0.000 C 
ATOM      3  C   UNL     1      43.850  33.767  39.642  0.00  0.00    +0.000 C 
ATOM      4  N   UNL     1      42.591  34.380  39.701  0.00  0.00    +0.000 NA
ATOM      5  C   UNL     1      42.346  35.269  40.765  0.00  0.00    +0.000 C 
ATOM      6  C   UNL     1      43.596  35.575  41.546  0.00  0.00    +0.000 C 
ATOM      7  H   UNL     1      44.004  32.475  41.291  0.00  0.00    +0.000 HD
ATOM      8  H   UNL     1      43.798  32.857  39.008  0.00  0.00    +0.000 HD
ATOM      9  H   UNL     1      44.554  34.482  39.124  0.00  0.00    +0.000 HD
ATOM     10  H   UNL     1      42.102  34.504  38.819  0.00  0.00    +0.000 HD
ATOM     11  H   UNL     1      41.581  34.898  41.504  0.00  0.00    +0.000 HD
ATOM     12  H   UNL     1      41.932  36.221  40.383  0.00  0.00    +0.000 HD
ATOM     13  H   UNL     1      44.309  36.206  40.954  0.00  0.00    +0.000 HD
ATOM     14  H   UNL     1      43.256  36.217  42.384  0.00  0.00    +0.000 HD
ENDROOT
BRANCH   2  16
ATOM     15  C   UNL     1      46.692  33.112  41.847  0.00  0.00    +0.000 A 
ATOM     16  C   UNL     1      45.916  33.094  40.696  0.00  0.00    +0.000 A 
ATOM     17  C   UNL     1      46.548  32.789  39.513  0.00  0.00    +0.000 A 
ATOM     18  H   UNL     1      45.854  32.801  38.664  0.00  0.00    +0.000 HD
ATOM     19  C   UNL     1      47.874  32.519  39.479  0.00  0.00    +0.000 A 
ATOM     20  N   UNL     1      48.605  32.210  38.403  0.00  0.00    +0.000 N 
ATOM     21  H   UNL     1      48.348  32.108  37.384  0.00  0.00    +0.000 HD
ATOM     22  N   UNL     1      49.845  32.021  38.797  0.00  0.00    +0.000 NA
ATOM     23  C   UNL     1      49.922  32.204  40.114  0.00  0.00    +0.000 A 
ATOM     24  H   UNL     1      50.795  32.128  40.769  0.00  0.00    +0.000 HD
ATOM     25  C   UNL     1      48.669  32.529  40.605  0.00  0.00    +0.000 A 
ATOM     26  C   UNL     1      48.062  32.829  41.790  0.00  0.00    +0.000 A 
ENDBRANCH   2  16
BRANCH   1  28
ATOM     27  C   UNL     1      44.680  35.159  44.204  0.00  0.00    +0.000 A 
ATOM     28  C   UNL     1      44.751  34.095  43.279  0.00  0.00    +0.000 A 
ATOM     29  C   UNL     1      45.271  32.888  43.706  0.00  0.00    +0.000 A 
ATOM     30  N   UNL     1      45.703  32.736  44.986  0.00  0.00    +0.000 NA
ATOM     31  C   UNL     1      45.624  33.780  45.865  0.00  0.00    +0.000 A 
ATOM     32  N   UNL     1      45.121  34.968  45.473  0.00  0.00    +0.000 NA
ATOM     33  H   UNL     1      44.316  36.164  44.071  0.00  0.00    +0.000 HD
ATOM     34  H   UNL     1      45.318  32.081  43.006  0.00  0.00    +0.000 HD
ATOM     35  H   UNL     1      45.976  33.635  46.886  0.00  0.00    +0.000 HD
ENDBRANCH   1  28
TORSDOF 2
