
 OpenBabel03242519153D

 45 49  0  0  1  0  0  0  0  0999 V2000
   48.3660   33.8490   41.1560 C   0  0  0  0  0  0  0  0  0  0  0  0
   47.5760   34.2960   40.1210 C   0  0  0  0  0  0  0  0  0  0  0  0
   47.7080   33.8280   38.8120 C   0  0  0  0  0  0  0  0  0  0  0  0
   48.6790   32.8900   38.6220 N   0  0  0  0  0  0  0  0  0  0  0  0
   49.4460   32.4580   39.6350 C   0  0  0  0  0  0  0  0  0  0  0  0
   49.2890   32.9320   40.8760 N   0  0  0  0  0  0  0  0  0  0  0  0
   46.8300   35.0370   40.3490 H   0  0  0  0  0  0  0  0  0  0  0  0
   47.0700   34.2010   38.0220 H   0  0  0  0  0  0  0  0  0  0  0  0
   50.4920   31.4120   39.4420 C   0  0  2  0  0  0  0  0  0  0  0  0
   50.7710   30.4590   40.5620 C   0  0  0  0  0  0  0  0  0  0  0  0
   51.7560   31.5820   40.2120 C   0  0  1  0  0  0  0  0  0  0  0  0
   50.5450   30.9950   38.4160 H   0  0  0  0  0  0  0  0  0  0  0  0
   50.2710   30.6130   41.5400 H   0  0  0  0  0  0  0  0  0  0  0  0
   51.0400   29.4150   40.3630 H   0  0  0  0  0  0  0  0  0  0  0  0
   51.8540   32.4230   40.9030 H   0  0  0  0  0  0  0  0  0  0  0  0
   53.2650   31.4740   38.2560 C   0  0  0  0  0  3  0  0  0  0  0  0
   52.9750   31.0630   39.5350 C   0  0  0  0  0  0  0  0  0  0  0  0
   53.7840   30.1730   40.2210 C   0  0  0  0  0  0  0  0  0  0  0  0
   53.5860   29.8280   41.2290 H   0  0  0  0  0  0  0  0  0  0  0  0
   54.8980   29.7360   39.5250 C   0  0  0  0  0  0  0  0  0  0  0  0
   55.8740   28.8890   39.8800 N   0  0  0  0  0  0  0  0  0  0  0  0
   56.0310   28.3540   40.7700 H   0  0  0  0  0  0  0  0  0  0  0  0
   56.7700   28.7240   38.9290 N   0  0  0  0  0  0  0  0  0  0  0  0
   56.4070   29.4880   37.8620 C   0  0  0  0  0  0  0  0  0  0  0  0
   56.8620   29.6380   36.8890 H   0  0  0  0  0  0  0  0  0  0  0  0
   55.2250   30.1230   38.2460 C   0  0  0  0  0  0  0  0  0  0  0  0
   54.3840   31.0160   37.5990 C   0  0  0  0  0  3  0  0  0  0  0  0
   48.2060   34.3370   42.5100 C   0  0  0  0  0  0  0  0  0  0  0  0
   48.7230   33.7110   43.2540 H   0  0  0  0  0  0  0  0  0  0  0  0
   48.6810   35.3510   42.5710 H   0  0  0  0  0  0  0  0  0  0  0  0
   46.7530   34.4990   42.8300 C   0  0  0  0  0  0  0  0  0  0  0  0
   46.4200   35.5680   42.7780 H   0  0  0  0  0  0  0  0  0  0  0  0
   46.1360   33.9530   42.1070 H   0  0  0  0  0  0  0  0  0  0  0  0
   44.7070   36.0530   44.3470 Cl  0  0  0  0  0  0  0  0  0  0  0  0
   45.4780   34.6130   44.9900 C   0  0  0  0  0  0  0  0  0  0  0  0
   46.3970   33.9900   44.1820 C   0  0  0  0  0  0  0  0  0  0  0  0
   46.9970   32.8430   44.6800 C   0  0  0  0  0  0  0  0  0  0  0  0
   46.6790   32.3550   45.9390 C   0  0  0  0  0  0  0  0  0  0  0  0
   45.7390   33.0160   46.7330 C   0  0  0  0  0  0  0  0  0  0  0  0
   45.1500   34.1450   46.2360 C   0  0  0  0  0  0  0  0  0  0  0  0
   47.7350   32.2960   44.0980 H   0  0  0  0  0  0  0  0  0  0  0  0
   47.1670   31.4580   46.2970 H   0  0  0  0  0  0  0  0  0  0  0  0
   45.4810   32.6450   47.7190 H   0  0  0  0  0  0  0  0  0  0  0  0
   44.1980   34.8740   46.9580 O   0  0  0  0  0  0  0  0  0  0  0  0
   43.3410   34.4330   47.2930 H   0  0  0  0  0  0  0  0  0  0  0  0
  1 28  1  0  0  0  0
  2  7  1  0  0  0  0
  2  1  2  0  0  0  0
  3  2  1  0  0  0  0
  4  3  2  0  0  0  0
  4  5  1  0  0  0  0
  5  6  2  0  0  0  0
  6  1  1  0  0  0  0
  8  3  1  0  0  0  0
  9 12  1  6  0  0  0
  9  5  1  0  0  0  0
  9 11  1  0  0  0  0
  9 10  1  0  0  0  0
 10 13  1  0  0  0  0
 11 10  1  0  0  0  0
 11 15  1  1  0  0  0
 14 10  1  0  0  0  0
 16 17  1  0  0  0  0
 17 11  1  0  0  0  0
 17 18  2  0  0  0  0
 18 19  1  0  0  0  0
 20 21  1  0  0  0  0
 20 18  1  0  0  0  0
 21 22  1  0  0  0  0
 23 21  1  0  0  0  0
 24 26  1  0  0  0  0
 24 23  2  0  0  0  0
 25 24  1  0  0  0  0
 26 20  2  0  0  0  0
 27 26  1  0  0  0  0
 27 16  2  0  0  0  0
 28 30  1  0  0  0  0
 28 31  1  0  0  0  0
 28 29  1  0  0  0  0
 31 36  1  0  0  0  0
 32 31  1  0  0  0  0
 33 31  1  0  0  0  0
 34 35  1  0  0  0  0
 35 40  1  0  0  0  0
 36 37  1  0  0  0  0
 36 35  2  0  0  0  0
 37 38  2  0  0  0  0
 38 42  1  0  0  0  0
 38 39  1  0  0  0  0
 39 43  1  0  0  0  0
 40 39  2  0  0  0  0
 40 44  1  0  0  0  0
 41 37  1  0  0  0  0
 44 45  1  0  0  0  0
M  END
>  <minimizedAffinity>
-6.22390747

>  <minimizedRMSD>
1.40965366

$$$$
