
 OpenBabel03242519163D

 45 49  0  0  1  0  0  0  0  0999 V2000
   48.2940   34.2120   40.9280 C   0  0  0  0  0  0  0  0  0  0  0  0
   47.7690   34.3030   39.6590 C   0  0  0  0  0  0  0  0  0  0  0  0
   48.1170   33.4230   38.6320 C   0  0  0  0  0  0  0  0  0  0  0  0
   49.0190   32.4580   38.9700 N   0  0  0  0  0  0  0  0  0  0  0  0
   49.5270   32.3750   40.2090 C   0  0  0  0  0  0  0  0  0  0  0  0
   49.1690   33.2380   41.1660 N   0  0  0  0  0  0  0  0  0  0  0  0
   47.0620   35.0910   39.4690 H   0  0  0  0  0  0  0  0  0  0  0  0
   47.6860   33.5230   37.6450 H   0  0  0  0  0  0  0  0  0  0  0  0
   50.4930   31.3060   40.5960 C   0  0  2  0  0  0  0  0  0  0  0  0
   51.2450   31.4470   41.8820 C   0  0  0  0  0  0  0  0  0  0  0  0
   51.9400   31.6580   40.5310 C   0  0  1  0  0  0  0  0  0  0  0  0
   50.1820   30.2790   40.3170 H   0  0  0  0  0  0  0  0  0  0  0  0
   51.1450   32.3840   42.4670 H   0  0  0  0  0  0  0  0  0  0  0  0
   51.4920   30.5690   42.4930 H   0  0  0  0  0  0  0  0  0  0  0  0
   52.2320   32.6720   40.2500 H   0  0  0  0  0  0  0  0  0  0  0  0
   52.6140   29.2880   40.7350 C   0  0  0  0  0  3  0  0  0  0  0  0
   52.8430   30.5270   40.1870 C   0  0  0  0  0  0  0  0  0  0  0  0
   53.8960   30.7610   39.3170 C   0  0  0  0  0  0  0  0  0  0  0  0
   54.1050   31.7250   38.8670 H   0  0  0  0  0  0  0  0  0  0  0  0
   54.6900   29.6600   39.0470 C   0  0  0  0  0  0  0  0  0  0  0  0
   55.7700   29.5330   38.2650 N   0  0  0  0  0  0  0  0  0  0  0  0
   56.2750   30.2360   37.6700 H   0  0  0  0  0  0  0  0  0  0  0  0
   56.2550   28.3090   38.2680 N   0  0  0  0  0  0  0  0  0  0  0  0
   55.4810   27.5450   39.0870 C   0  0  0  0  0  0  0  0  0  0  0  0
   55.5320   26.4980   39.3630 H   0  0  0  0  0  0  0  0  0  0  0  0
   54.4960   28.4050   39.5750 C   0  0  0  0  0  0  0  0  0  0  0  0
   53.4280   28.2190   40.4400 C   0  0  0  0  0  3  0  0  0  0  0  0
   47.9110   35.1270   41.9840 C   0  0  0  0  0  0  0  0  0  0  0  0
   48.5440   35.0330   42.8810 H   0  0  0  0  0  0  0  0  0  0  0  0
   48.0560   36.1720   41.6070 H   0  0  0  0  0  0  0  0  0  0  0  0
   46.4600   34.9610   42.3080 C   0  0  0  0  0  0  0  0  0  0  0  0
   45.8950   35.9270   42.2480 H   0  0  0  0  0  0  0  0  0  0  0  0
   45.9790   34.2840   41.5900 H   0  0  0  0  0  0  0  0  0  0  0  0
   44.5230   36.4160   44.0500 Cl  0  0  0  0  0  0  0  0  0  0  0  0
   45.3700   34.9700   44.5700 C   0  0  0  0  0  0  0  0  0  0  0  0
   46.2270   34.3960   43.6640 C   0  0  0  0  0  0  0  0  0  0  0  0
   46.8880   33.2440   44.0660 C   0  0  0  0  0  0  0  0  0  0  0  0
   46.6860   32.7040   45.3280 C   0  0  0  0  0  0  0  0  0  0  0  0
   45.8060   33.3160   46.2220 C   0  0  0  0  0  0  0  0  0  0  0  0
   45.1580   34.4500   45.8200 C   0  0  0  0  0  0  0  0  0  0  0  0
   47.5830   32.7330   43.4030 H   0  0  0  0  0  0  0  0  0  0  0  0
   47.2190   31.8040   45.6090 H   0  0  0  0  0  0  0  0  0  0  0  0
   45.6390   32.9040   47.2120 H   0  0  0  0  0  0  0  0  0  0  0  0
   44.2580   35.1330   46.6470 O   0  0  0  0  0  0  0  0  0  0  0  0
   43.4400   34.6620   47.0360 H   0  0  0  0  0  0  0  0  0  0  0  0
  1  6  1  0  0  0  0
  1 28  1  0  0  0  0
  2  1  2  0  0  0  0
  3  4  2  0  0  0  0
  3  2  1  0  0  0  0
  4  5  1  0  0  0  0
  5  9  1  0  0  0  0
  5  6  2  0  0  0  0
  7  2  1  0  0  0  0
  8  3  1  0  0  0  0
  9 12  1  6  0  0  0
  9 10  1  0  0  0  0
 10 13  1  0  0  0  0
 10 14  1  0  0  0  0
 11 15  1  6  0  0  0
 11  9  1  0  0  0  0
 11 10  1  0  0  0  0
 17 11  1  0  0  0  0
 17 16  2  0  0  0  0
 18 17  1  0  0  0  0
 19 18  1  0  0  0  0
 20 18  2  0  0  0  0
 20 26  1  0  0  0  0
 21 23  1  0  0  0  0
 21 20  1  0  0  0  0
 22 21  1  0  0  0  0
 23 24  2  0  0  0  0
 24 25  1  0  0  0  0
 24 26  1  0  0  0  0
 26 27  2  0  0  0  0
 27 16  1  0  0  0  0
 28 31  1  0  0  0  0
 28 29  1  0  0  0  0
 30 28  1  0  0  0  0
 31 36  1  0  0  0  0
 32 31  1  0  0  0  0
 33 31  1  0  0  0  0
 34 35  1  0  0  0  0
 35 40  1  0  0  0  0
 36 37  1  0  0  0  0
 36 35  2  0  0  0  0
 37 38  2  0  0  0  0
 38 42  1  0  0  0  0
 38 39  1  0  0  0  0
 39 43  1  0  0  0  0
 40 39  2  0  0  0  0
 40 44  1  0  0  0  0
 41 37  1  0  0  0  0
 44 45  1  0  0  0  0
M  END
>  <minimizedAffinity>
-5.97986364

>  <minimizedRMSD>
0.183508471

$$$$
