
 OpenBabel03252509083D

 44 48  0  0  0  0  0  0  0  0999 V2000
   47.6570   33.1640   39.7520 C   0  0  0  0  0  0  0  0  0  0  0  0
   46.4010   33.4230   40.2140 C   0  0  0  0  0  0  0  0  0  0  0  0
   46.2070   34.4170   41.1600 C   0  0  0  0  0  0  0  0  0  0  0  0
   47.2720   35.1440   41.6360 C   0  0  0  0  0  0  0  0  0  0  0  0
   48.5710   34.9120   41.1890 C   0  0  0  0  0  0  0  0  0  0  0  0
   48.7400   33.9040   40.2360 C   0  0  0  0  0  0  0  0  0  0  0  0
   45.2350   34.6430   41.5410 H   0  0  0  0  0  0  0  0  0  0  0  0
   47.1970   35.9180   42.3580 H   0  0  0  0  0  0  0  0  0  0  0  0
   49.4360   35.4320   41.5110 H   0  0  0  0  0  0  0  0  0  0  0  0
   49.7390   33.7030   39.8710 H   0  0  0  0  0  0  0  0  0  0  0  0
   42.8430   29.7650   40.9960 Cl  0  0  0  0  0  0  0  0  0  0  0  0
   43.5850   31.0580   40.0880 C   0  0  0  0  0  0  0  0  0  0  0  0
   44.6880   31.7000   40.5510 C   0  0  0  0  0  0  0  0  0  0  0  0
   45.2080   32.7180   39.7680 C   0  0  0  0  0  0  0  0  0  0  0  0
   44.6370   33.0710   38.5700 C   0  0  0  0  0  0  0  0  0  0  0  0
   43.5350   32.4210   38.1180 C   0  0  0  0  0  0  0  0  0  0  0  0
   43.0050   31.4010   38.8890 C   0  0  0  0  0  0  0  0  0  0  0  0
   45.0890   33.8770   38.0050 H   0  0  0  0  0  0  0  0  0  0  0  0
   43.1220   32.7290   37.1740 H   0  0  0  0  0  0  0  0  0  0  0  0
   42.1270   30.9020   38.4980 H   0  0  0  0  0  0  0  0  0  0  0  0
   45.4440   31.4900   44.2560 C   0  0  0  0  0  0  0  0  0  0  0  0
   44.8900   31.8800   43.0330 C   0  0  0  0  0  0  0  0  0  0  0  0
   45.2590   31.3040   41.8280 C   0  0  0  0  0  0  0  0  0  0  0  0
   46.1890   30.3510   41.9570 N   0  0  0  0  0  0  0  0  0  0  0  0
   46.7300   29.9640   43.1110 C   0  0  0  0  0  0  0  0  0  0  0  0
   46.3610   30.5280   44.2530 N   0  0  0  0  0  0  0  0  0  0  0  0
   45.1030   31.9890   45.1590 H   0  0  0  0  0  0  0  0  0  0  0  0
   44.1300   32.6730   43.0180 H   0  0  0  0  0  0  0  0  0  0  0  0
   47.4720   29.1660   42.9770 H   0  0  0  0  0  0  0  0  0  0  0  0
   47.9600   31.9520   38.6190 S   0  0  0  0  0  0  0  0  0  0  0  0
   49.4620   31.5770   38.6620 O   0  0  0  0  0  0  0  0  0  0  0  0
   47.2750   30.6930   39.1550 O   0  0  0  0  0  0  0  0  0  0  0  0
   46.6180   31.8640   36.1550 C   0  0  0  0  0  3  0  0  0  0  0  0
   47.7460   32.0970   36.9290 C   0  0  0  0  0  0  0  0  0  0  0  0
   48.8090   32.4510   36.0540 C   0  0  0  0  0  0  0  0  0  0  0  0
   49.7770   32.6640   36.5490 H   0  0  0  0  0  0  0  0  0  0  0  0
   48.7880   32.5630   34.6810 C   0  0  0  0  0  0  0  0  0  0  0  0
   49.7240   32.8870   33.7800 N   0  0  0  0  0  0  0  0  0  0  0  0
   50.7120   33.1280   34.0100 H   0  0  0  0  0  0  0  0  0  0  0  0
   49.1340   32.8320   32.6070 N   0  0  0  0  0  0  0  0  0  0  0  0
   47.8450   32.4800   32.7390 C   0  0  0  0  0  0  0  0  0  0  0  0
   47.1060   32.3540   31.9440 H   0  0  0  0  0  0  0  0  0  0  0  0
   47.5970   32.2990   34.0970 C   0  0  0  0  0  0  0  0  0  0  0  0
   46.4660   31.9410   34.7950 C   0  0  0  0  0  3  0  0  0  0  0  0
  1  2  2  0  0  0  0
  1  6  1  0  0  0  0
  2  3  1  0  0  0  0
  3  7  1  0  0  0  0
  3  4  2  0  0  0  0
  4  8  1  0  0  0  0
  5  9  1  0  0  0  0
  5  4  1  0  0  0  0
  6  5  2  0  0  0  0
 10  6  1  0  0  0  0
 12 13  1  0  0  0  0
 12 11  1  0  0  0  0
 13 23  1  0  0  0  0
 14  2  1  0  0  0  0
 14 13  2  0  0  0  0
 15 14  1  0  0  0  0
 16 15  2  0  0  0  0
 16 17  1  0  0  0  0
 17 12  2  0  0  0  0
 18 15  1  0  0  0  0
 19 16  1  0  0  0  0
 20 17  1  0  0  0  0
 21 27  1  0  0  0  0
 22 21  2  0  0  0  0
 23 24  2  0  0  0  0
 23 22  1  0  0  0  0
 24 25  1  0  0  0  0
 25 26  2  0  0  0  0
 26 21  1  0  0  0  0
 28 22  1  0  0  0  0
 29 25  1  0  0  0  0
 30 31  2  0  0  0  0
 30 32  2  0  0  0  0
 30  1  1  0  0  0  0
 33 34  1  0  0  0  0
 34 30  1  0  0  0  0
 35 36  1  0  0  0  0
 35 34  2  0  0  0  0
 37 35  1  0  0  0  0
 38 39  1  0  0  0  0
 38 37  1  0  0  0  0
 40 41  2  0  0  0  0
 40 38  1  0  0  0  0
 41 43  1  0  0  0  0
 42 41  1  0  0  0  0
 43 37  2  0  0  0  0
 43 44  1  0  0  0  0
 44 33  2  0  0  0  0
M  END
>  <minimizedAffinity>
-4.75613117

>  <minimizedRMSD>
6.10277128

$$$$
