
 OpenBabel03252509123D

 35 39  0  0  0  0  0  0  0  0999 V2000
   47.5120   31.2230   44.9840 C   0  0  0  0  0  0  0  0  0  0  0  0
   47.2950   32.2740   44.1030 C   0  0  0  0  0  0  0  0  0  0  0  0
   46.4920   33.3400   44.4120 C   0  0  0  0  0  0  0  0  0  0  0  0
   45.8490   33.4040   45.6530 C   0  0  0  0  0  0  0  0  0  0  0  0
   45.0160   34.2690   46.2750 N   0  0  0  0  0  0  0  0  0  0  0  0
   44.7160   33.7810   47.5100 C   0  0  0  0  0  0  0  0  0  0  0  0
   45.3780   32.6170   47.6150 N   0  0  0  0  0  0  0  0  0  0  0  0
   46.0800   32.3500   46.5080 C   0  0  0  0  0  0  0  0  0  0  0  0
   46.8780   31.2680   46.2330 C   0  0  0  0  0  0  0  0  0  0  0  0
   48.1520   30.3780   44.7320 H   0  0  0  0  0  0  0  0  0  0  0  0
   44.7330   35.1370   45.7640 H   0  0  0  0  0  0  0  0  0  0  0  0
   44.0620   34.3790   48.0990 H   0  0  0  0  0  0  0  0  0  0  0  0
   47.0190   30.4640   46.9540 H   0  0  0  0  0  0  0  0  0  0  0  0
   47.9130   31.6180   40.5450 C   0  0  0  0  0  0  0  0  0  0  0  0
   49.1690   32.1990   40.3390 C   0  0  0  0  0  0  0  0  0  0  0  0
   49.7940   32.8130   41.4280 C   0  0  0  0  0  0  0  0  0  0  0  0
   49.1530   32.8180   42.6390 N   0  0  0  0  0  0  0  0  0  0  0  0
   47.9450   32.2480   42.7980 C   0  0  0  0  0  0  0  0  0  0  0  0
   47.3270   31.6520   41.7630 N   0  0  0  0  0  0  0  0  0  0  0  0
   47.4550   31.1510   39.6830 H   0  0  0  0  0  0  0  0  0  0  0  0
   49.7180   32.2290   39.4240 H   0  0  0  0  0  0  0  0  0  0  0  0
   50.7560   33.3010   41.4290 H   0  0  0  0  0  0  0  0  0  0  0  0
   46.2160   34.6960   43.2770 S   0  0  0  0  0  0  0  0  0  0  0  0
   43.9530   35.5910   41.8970 C   0  0  0  0  0  3  0  0  0  0  0  0
   44.6630   34.5310   42.4230 C   0  0  0  0  0  0  0  0  0  0  0  0
   44.1570   33.2550   42.2900 C   0  0  0  0  0  0  0  0  0  0  0  0
   44.6870   32.4000   42.6890 H   0  0  0  0  0  0  0  0  0  0  0  0
   42.9560   33.1200   41.6290 C   0  0  0  0  0  0  0  0  0  0  0  0
   42.2490   31.9840   41.3670 N   0  0  0  0  0  0  0  0  0  0  0  0
   42.4320   30.9750   41.5900 H   0  0  0  0  0  0  0  0  0  0  0  0
   41.1370   32.2920   40.7040 N   0  0  0  0  0  0  0  0  0  0  0  0
   41.1060   33.6270   40.5280 C   0  0  0  0  0  0  0  0  0  0  0  0
   40.3470   34.2040   40.0330 H   0  0  0  0  0  0  0  0  0  0  0  0
   42.2480   34.1920   41.1040 C   0  0  0  0  0  0  0  0  0  0  0  0
   42.7480   35.4720   41.2330 C   0  0  0  0  0  3  0  0  0  0  0  0
  1  9  1  0  0  0  0
  2  3  1  0  0  0  0
  2  1  2  0  0  0  0
  3  4  2  0  0  0  0
  4  5  1  0  0  0  0
  4  8  1  0  0  0  0
  5  6  1  0  0  0  0
  6  7  2  0  0  0  0
  6 12  1  0  0  0  0
  8  7  1  0  0  0  0
  9  8  2  0  0  0  0
  9 13  1  0  0  0  0
 10  1  1  0  0  0  0
 11  5  1  0  0  0  0
 14 19  1  0  0  0  0
 15 14  2  0  0  0  0
 15 16  1  0  0  0  0
 16 22  1  0  0  0  0
 16 17  2  0  0  0  0
 17 18  1  0  0  0  0
 18  2  1  0  0  0  0
 19 18  2  0  0  0  0
 20 14  1  0  0  0  0
 21 15  1  0  0  0  0
 23  3  1  0  0  0  0
 24 25  1  0  0  0  0
 25 23  1  0  0  0  0
 26 25  2  0  0  0  0
 26 27  1  0  0  0  0
 28 26  1  0  0  0  0
 29 30  1  0  0  0  0
 29 28  1  0  0  0  0
 31 29  1  0  0  0  0
 32 31  2  0  0  0  0
 32 34  1  0  0  0  0
 33 32  1  0  0  0  0
 34 35  1  0  0  0  0
 34 28  2  0  0  0  0
 35 24  2  0  0  0  0
M  END
>  <minimizedAffinity>
-5.47080183

>  <minimizedRMSD>
1.92085135

$$$$
