
     RDKit          3D

 51 56  0  0  0  0  0  0  0  0999 V2000
   45.1272   36.0071   43.4882 C   0  0  0  0  0  0  0  0  0  0  0  0
   45.9130   34.8775   43.2540 C   0  0  0  0  0  0  0  0  0  0  0  0
   46.0574   33.9471   44.2368 C   0  0  0  0  0  0  0  0  0  0  0  0
   45.4106   34.1840   45.4205 N   0  0  0  0  0  0  0  0  0  0  0  0
   44.6586   35.2675   45.6430 C   0  0  0  0  0  0  0  0  0  0  0  0
   44.5211   36.1607   44.6919 N   0  0  0  0  0  0  0  0  0  0  0  0
   46.5369   34.7818   42.0106 N   0  0  0  0  0  0  0  0  0  0  0  0
   47.8604   35.2693   41.7943 C   0  0  0  0  0  0  0  0  0  0  0  0
   48.4520   34.9392   40.4587 C   0  0  0  0  0  0  0  0  0  0  0  0
   48.1621   33.6513   39.9823 N   0  0  0  0  0  0  0  0  0  0  0  0
   46.8700   33.2040   40.1591 C   0  0  0  0  0  0  0  0  0  0  0  0
   45.9844   34.2242   40.8420 C   0  0  0  0  0  0  0  0  0  0  0  0
   46.4440   31.9966   45.4973 C   0  0  0  0  0  0  0  0  0  0  0  0
   46.7490   32.7374   44.3343 C   0  0  0  0  0  0  0  0  0  0  0  0
   47.7125   32.1048   43.5873 C   0  0  0  0  0  0  0  0  0  0  0  0
   48.3223   30.9280   43.8850 C   0  0  0  0  0  0  0  0  0  0  0  0
   47.9642   30.2653   45.0560 C   0  0  0  0  0  0  0  0  0  0  0  0
   47.0110   30.8094   45.8696 C   0  0  0  0  0  0  0  0  0  0  0  0
   48.7550   29.1269   45.0719 O   0  0  0  0  0  0  0  0  0  0  0  0
   49.5469   29.0614   43.9034 C   0  0  2  0  0  0  0  0  0  0  0  0
   49.2914   30.2533   43.1643 O   0  0  0  0  0  0  0  0  0  0  0  0
   49.0809   27.9600   43.1637 O   0  0  0  0  0  0  0  0  0  0  0  0
   45.0075   36.7501   42.7107 H   0  0  0  0  0  0  0  0  0  0  0  0
   44.1243   35.5144   46.5484 H   0  0  0  0  0  0  0  0  0  0  0  0
   48.5793   34.9543   42.5916 H   0  0  0  0  0  0  0  0  0  0  0  0
   47.8030   36.3764   41.8747 H   0  0  0  0  0  0  0  0  0  0  0  0
   48.1563   35.7014   39.7111 H   0  0  0  0  0  0  0  0  0  0  0  0
   49.5693   35.0359   40.5467 H   0  0  0  0  0  0  0  0  0  0  0  0
   48.5314   33.5193   39.0351 H   0  0  0  0  0  0  0  0  0  0  0  0
   46.7999   32.2033   40.6590 H   0  0  0  0  0  0  0  0  0  0  0  0
   46.4021   33.0170   39.1486 H   0  0  0  0  0  0  0  0  0  0  0  0
   45.7718   35.0463   40.1046 H   0  0  0  0  0  0  0  0  0  0  0  0
   45.0031   33.7518   41.0525 H   0  0  0  0  0  0  0  0  0  0  0  0
   45.7091   32.2173   46.3003 H   0  0  0  0  0  0  0  0  0  0  0  0
   47.9552   32.6358   42.7203 H   0  0  0  0  0  0  0  0  0  0  0  0
   46.8215   30.2183   46.7242 H   0  0  0  0  0  0  0  0  0  0  0  0
   50.6319   29.0642   44.0942 H   0  0  0  0  0  0  0  0  0  0  0  0
   49.7114   25.6774   43.3093 C   0  0  0  0  0  0  0  0  0  0  0  0
   49.8026   26.9146   42.6645 C   0  0  0  0  0  0  0  0  0  0  0  0
   50.6245   26.9930   41.5570 C   0  0  0  0  0  0  0  0  0  0  0  0
   50.7214   27.9234   41.0352 H   0  0  0  0  0  0  0  0  0  0  0  0
   51.3332   25.9094   41.0911 C   0  0  0  0  0  0  0  0  0  0  0  0
   52.1815   25.7554   40.0477 N   0  0  0  0  0  0  0  0  0  0  0  0
   52.4808   26.4680   39.3538 H   0  0  0  0  0  0  0  0  0  0  0  0
   52.6169   24.4994   40.0120 N   0  0  0  0  0  0  0  0  0  0  0  0
   52.0723   23.8109   41.0164 C   0  0  0  0  0  0  0  0  0  0  0  0
   52.2050   22.7644   41.2876 H   0  0  0  0  0  0  0  0  0  0  0  0
   51.2629   24.6772   41.7063 C   0  0  0  0  0  0  0  0  0  0  0  0
   50.4325   24.6014   42.8239 C   0  0  0  0  0  0  0  0  0  0  0  0
   49.0897   25.5113   44.1924 H   0  0  0  0  0  0  0  0  0  0  0  0
   50.3950   23.6111   43.2936 H   0  0  0  0  0  0  0  0  0  0  0  0
  1  6  2  0
  2  1  1  0
  2  3  2  0
  3 14  1  0
  3  4  1  0
  4  5  2  0
  6  5  1  0
  7  2  1  0
  8  7  1  0
  9  8  1  0
 10 11  1  0
 10  9  1  0
 11 12  1  0
 12  7  1  0
 13 18  2  0
 14 13  1  0
 15 16  1  0
 15 14  2  0
 16 17  2  0
 17 19  1  0
 17 18  1  0
 20 19  1  0
 21 16  1  0
 21 20  1  0
 22 20  1  0
  1 23  1  0
  5 24  1  0
  8 25  1  0
  8 26  1  0
  9 27  1  0
  9 28  1  0
 10 29  1  0
 11 30  1  0
 11 31  1  0
 12 32  1  0
 12 33  1  0
 13 34  1  0
 15 35  1  0
 18 36  1  0
 20 37  1  1
 38 39  2  0
 39 40  1  0
 40 41  1  0
 40 42  2  0
 42 43  1  0
 43 44  1  0
 43 45  1  0
 45 46  2  0
 46 47  1  0
 46 48  1  0
 48 49  2  0
 49 38  1  0
 48 42  1  0
 38 50  1  0
 49 51  1  0
 22 39  1  0
M  ISO  8  23  14  24  14  25  13  26  13  27  13  28  13  29   5  30  13
M  ISO  8  31  13  32  13  33  13  34  14  35  14  36  14  37  13  41  16
M  ISO  2  44   5  47  15
M  END
>  <DihAtoms>  (1) 
19,21,38,37

>  <DihDeg>  (1) 
179.9998402527576

$$$$
