
     RDKit          3D

 41 44  0  0  0  0  0  0  0  0999 V2000
   45.6009   33.9049   45.6086 C   0  0  0  0  0  0  0  0  0  0  0  0
   44.7938   34.9998   45.7233 C   0  0  0  0  0  0  0  0  0  0  0  0
   44.4537   35.8416   44.6801 C   0  0  0  0  0  0  0  0  0  0  0  0
   44.9534   35.5703   43.4423 C   0  0  0  0  0  0  0  0  0  0  0  0
   45.7683   34.4825   43.2750 C   0  0  0  0  0  0  0  0  0  0  0  0
   46.0922   33.6546   44.3439 C   0  0  0  0  0  0  0  0  0  0  0  0
   47.5663   31.8449   47.9020 C   0  0  0  0  0  0  0  0  0  0  0  0
   46.6282   31.4402   48.8467 C   0  0  0  0  0  0  0  0  0  0  0  0
   45.3016   31.8752   48.7024 C   0  0  0  0  0  0  0  0  0  0  0  0
   44.9676   32.6787   47.6465 N   0  0  0  0  0  0  0  0  0  0  0  0
   45.9252   33.0566   46.7340 C   0  0  0  0  0  0  0  0  0  0  0  0
   47.1849   32.6274   46.8945 N   0  0  0  0  0  0  0  0  0  0  0  0
   46.9424   32.5752   44.0100 N   0  0  0  0  0  0  0  0  0  0  0  0
   48.2601   32.4274   42.9418 S   0  0  0  0  0  0  0  0  0  0  0  0
   47.6990   32.1917   41.5342 O   0  0  0  0  0  0  0  0  0  0  0  0
   49.1651   33.6029   42.8999 O   0  0  0  0  0  0  0  0  0  0  0  0
   49.0423   30.9902   43.3309 O   0  0  0  0  0  0  0  0  0  0  0  0
   44.3626   35.2701   46.6878 H   0  0  0  0  0  0  0  0  0  0  0  0
   43.8133   36.7072   44.7808 H   0  0  0  0  0  0  0  0  0  0  0  0
   44.7084   36.2086   42.5990 H   0  0  0  0  0  0  0  0  0  0  0  0
   46.1410   34.3102   42.2652 H   0  0  0  0  0  0  0  0  0  0  0  0
   48.5718   31.4773   48.0669 H   0  0  0  0  0  0  0  0  0  0  0  0
   46.8246   30.8114   49.6973 H   0  0  0  0  0  0  0  0  0  0  0  0
   44.5221   31.5976   49.4012 H   0  0  0  0  0  0  0  0  0  0  0  0
   46.6696   31.7064   44.5560 H   0  0  0  0  0  0  0  0  0  0  0  0
   48.2139   32.2828   40.7087 H   0  0  0  0  0  0  0  0  0  0  0  0
   49.0170   34.3622   42.2919 H   0  0  0  0  0  0  0  0  0  0  0  0
   51.2799   31.7281   42.9049 C   0  0  0  0  0  0  0  0  0  0  0  0
   50.3391   30.7198   43.0092 C   0  0  0  0  0  0  0  0  0  0  0  0
   50.7118   29.3977   42.7833 C   0  0  0  0  0  0  0  0  0  0  0  0
   49.9598   28.6114   42.8688 H   0  0  0  0  0  0  0  0  0  0  0  0
   52.0221   29.0894   42.4545 C   0  0  0  0  0  0  0  0  0  0  0  0
   52.6666   27.9394   42.1858 N   0  0  0  0  0  0  0  0  0  0  0  0
   52.1717   27.0183   42.1986 H   0  0  0  0  0  0  0  0  0  0  0  0
   53.9413   28.1723   41.9230 N   0  0  0  0  0  0  0  0  0  0  0  0
   54.1969   29.4916   42.0067 C   0  0  0  0  0  0  0  0  0  0  0  0
   55.1450   30.0053   41.8477 H   0  0  0  0  0  0  0  0  0  0  0  0
   52.9827   30.0706   42.3428 C   0  0  0  0  0  0  0  0  0  0  0  0
   52.5820   31.3772   42.5733 C   0  0  0  0  0  0  0  0  0  0  0  0
   50.9824   32.7487   43.0814 H   0  0  0  0  0  0  0  0  0  0  0  0
   53.3477   32.1368   42.4819 H   0  0  0  0  0  0  0  0  0  0  0  0
  1  2  2  0
  1 11  1  0
  3  2  1  0
  4  3  2  0
  5  4  1  0
  5  6  2  0
  6  1  1  0
  7  8  2  0
  9  8  1  0
 10  9  2  0
 11 12  2  0
 11 10  1  0
 12  7  1  0
 13  6  1  0
 14 17  1  0
 14 13  1  0
 15 14  1  0
 16 14  1  0
  2 18  1  0
  3 19  1  0
  4 20  1  0
  5 21  1  0
  7 22  1  0
  8 23  1  0
  9 24  1  0
 13 25  1  0
 15 26  1  0
 16 27  1  0
 28 29  2  0
 29 30  1  0
 30 31  1  0
 30 32  2  0
 32 33  1  0
 33 34  1  0
 33 35  1  0
 35 36  2  0
 36 37  1  0
 36 38  1  0
 38 39  2  0
 39 28  1  0
 38 32  1  0
 28 40  1  0
 39 41  1  0
 17 29  1  0
M  ISO  8  18  14  19  14  20  14  21  14  22  14  23  14  24  14  26   3
M  ISO  4  27   3  31  16  34   5  37  15
M  END
>  <DihAtoms>  (1) 
13,16,28,27

>  <DihDeg>  (1) 
90.00007928062435

$$$$
