
 OpenBabel03252508033D

 45 49  0  0  1  0  0  0  0  0999 V2000
   42.2600   33.2260   41.1830 C   0  0  0  0  0  0  0  0  0  0  0  0
   42.8900   34.4180   41.3920 C   0  0  0  0  0  0  0  0  0  0  0  0
   42.1130   35.5910   41.3400 C   0  0  0  0  0  0  0  0  0  0  0  0
   40.7630   35.5920   41.0930 C   0  0  0  0  0  0  0  0  0  0  0  0
   40.1370   34.3930   40.8850 C   0  0  0  0  0  0  0  0  0  0  0  0
   40.8810   33.2500   40.9320 C   0  0  0  0  0  0  0  0  0  0  0  0
   42.5280   36.5820   41.4850 H   0  0  0  0  0  0  0  0  0  0  0  0
   40.1830   36.4930   41.0550 H   0  0  0  0  0  0  0  0  0  0  0  0
   39.0950   34.2980   40.6860 H   0  0  0  0  0  0  0  0  0  0  0  0
   40.3830   32.2820   40.7650 H   0  0  0  0  0  0  0  0  0  0  0  0
   43.0740   31.7510   41.2570 S   0  0  0  0  0  0  0  0  0  0  0  0
   42.3090   30.9190   40.2090 O   0  0  0  0  0  0  0  0  0  0  0  0
   42.8640   31.0850   42.6070 O   0  0  0  0  0  0  0  0  0  0  0  0
   44.5710   30.8650   39.2630 C   0  0  0  0  0  3  0  0  0  0  0  0
   44.5160   31.2200   40.6370 C   0  0  0  0  0  0  0  0  0  0  0  0
   45.7900   31.0860   41.2450 C   0  0  0  0  0  0  0  0  0  0  0  0
   45.7420   31.3760   42.3130 H   0  0  0  0  0  0  0  0  0  0  0  0
   47.0060   30.6870   40.7420 C   0  0  0  0  0  0  0  0  0  0  0  0
   48.2400   30.5130   41.1610 N   0  0  0  0  0  0  0  0  0  0  0  0
   48.5200   30.6940   42.1490 H   0  0  0  0  0  0  0  0  0  0  0  0
   48.9150   30.0980   40.1070 N   0  0  0  0  0  0  0  0  0  0  0  0
   48.1410   30.0020   39.0140 C   0  0  0  0  0  0  0  0  0  0  0  0
   48.4530   29.6860   38.0270 H   0  0  0  0  0  0  0  0  0  0  0  0
   46.8670   30.3900   39.4180 C   0  0  0  0  0  0  0  0  0  0  0  0
   45.7320   30.4560   38.6620 C   0  0  0  0  0  3  0  0  0  0  0  0
   44.3180   34.5210   41.6550 C   0  0  0  0  0  0  0  0  0  0  0  0
   45.2160   34.5810   40.7510 O   0  0  0  0  0  0  0  0  0  0  0  0
   44.6280   34.5540   43.0540 C   0  0  0  0  0  0  0  0  0  0  0  0
   44.3020   35.7720   43.7400 C   0  0  0  0  0  0  0  0  0  0  0  0
   44.5860   35.8150   45.0970 C   0  0  0  0  0  0  0  0  0  0  0  0
   45.1440   34.7230   45.6810 N   0  0  0  0  0  0  0  0  0  0  0  0
   45.4370   33.5800   44.9810 C   0  0  0  0  0  0  0  0  0  0  0  0
   45.1720   33.5450   43.7240 N   0  0  0  0  0  0  0  0  0  0  0  0
   43.8690   36.6650   43.3590 H   0  0  0  0  0  0  0  0  0  0  0  0
   44.3950   36.6590   45.7260 H   0  0  0  0  0  0  0  0  0  0  0  0
   46.0350   32.4460   45.7030 C   0  0  1  0  0  0  0  0  0  0  0  0
   46.9790   32.7240   46.8570 C   0  0  0  0  0  0  0  0  0  0  0  0
   45.5670   32.2780   47.1060 C   0  0  1  0  0  0  0  0  0  0  0  0
   46.2710   31.5390   45.1540 H   0  0  0  0  0  0  0  0  0  0  0  0
   47.2830   33.7770   46.9610 H   0  0  0  0  0  0  0  0  0  0  0  0
   47.7880   32.0130   47.0800 H   0  0  0  0  0  0  0  0  0  0  0  0
   45.4560   31.2860   47.5740 H   0  0  0  0  0  0  0  0  0  0  0  0
   44.7840   33.3300   47.7360 N   0  0  0  0  0  0  0  0  0  0  0  0
   44.8650   33.3050   48.7770 H   0  0  0  0  0  0  0  0  0  0  0  0
   43.7720   33.0700   47.5520 H   0  0  0  0  0  0  0  0  0  0  0  0
  1 11  1  0  0  0  0
  1  2  1  0  0  0  0
  2 26  1  0  0  0  0
  3  2  2  0  0  0  0
  3  7  1  0  0  0  0
  4  3  1  0  0  0  0
  5  6  1  0  0  0  0
  5  4  2  0  0  0  0
  6  1  2  0  0  0  0
  8  4  1  0  0  0  0
  9  5  1  0  0  0  0
 10  6  1  0  0  0  0
 11 13  2  0  0  0  0
 12 11  2  0  0  0  0
 14 15  1  0  0  0  0
 15 16  2  0  0  0  0
 15 11  1  0  0  0  0
 16 17  1  0  0  0  0
 18 19  1  0  0  0  0
 18 16  1  0  0  0  0
 19 20  1  0  0  0  0
 21 19  1  0  0  0  0
 22 24  1  0  0  0  0
 22 21  2  0  0  0  0
 23 22  1  0  0  0  0
 24 18  2  0  0  0  0
 25 14  2  0  0  0  0
 25 24  1  0  0  0  0
 26 28  1  0  0  0  0
 27 26  2  0  0  0  0
 28 33  2  0  0  0  0
 28 29  1  0  0  0  0
 29 30  2  0  0  0  0
 30 31  1  0  0  0  0
 30 35  1  0  0  0  0
 32 31  2  0  0  0  0
 32 36  1  0  0  0  0
 33 32  1  0  0  0  0
 34 29  1  0  0  0  0
 36 39  1  6  0  0  0
 36 37  1  0  0  0  0
 36 38  1  0  0  0  0
 37 40  1  0  0  0  0
 37 41  1  0  0  0  0
 37 38  1  0  0  0  0
 38 42  1  1  0  0  0
 38 43  1  0  0  0  0
 43 44  1  0  0  0  0
 45 43  1  0  0  0  0
M  END
>  <minimizedAffinity>
-5.84643221

>  <minimizedRMSD>
1.58092022

$$$$
