
 OpenBabel03252508033D

 45 49  0  0  1  0  0  0  0  0999 V2000
   42.1540   33.2750   41.1810 C   0  0  0  0  0  0  0  0  0  0  0  0
   42.8430   34.4380   41.3640 C   0  0  0  0  0  0  0  0  0  0  0  0
   42.1220   35.6460   41.3010 C   0  0  0  0  0  0  0  0  0  0  0  0
   40.7710   35.7090   41.0680 C   0  0  0  0  0  0  0  0  0  0  0  0
   40.0870   34.5380   40.8850 C   0  0  0  0  0  0  0  0  0  0  0  0
   40.7750   33.3610   40.9430 C   0  0  0  0  0  0  0  0  0  0  0  0
   42.5860   36.6180   41.4260 H   0  0  0  0  0  0  0  0  0  0  0  0
   40.2350   36.6360   41.0220 H   0  0  0  0  0  0  0  0  0  0  0  0
   39.0390   34.4900   40.6980 H   0  0  0  0  0  0  0  0  0  0  0  0
   40.2290   32.4160   40.7970 H   0  0  0  0  0  0  0  0  0  0  0  0
   42.8970   31.7640   41.2700 S   0  0  0  0  0  0  0  0  0  0  0  0
   42.0960   30.9590   40.2270 O   0  0  0  0  0  0  0  0  0  0  0  0
   42.6520   31.1200   42.6250 O   0  0  0  0  0  0  0  0  0  0  0  0
   45.2490   30.5850   41.5590 C   0  0  0  0  0  3  0  0  0  0  0  0
   44.3130   31.1590   40.6590 C   0  0  0  0  0  0  0  0  0  0  0  0
   44.7760   31.0640   39.3220 C   0  0  0  0  0  0  0  0  0  0  0  0
   44.0350   31.5020   38.6240 H   0  0  0  0  0  0  0  0  0  0  0  0
   45.9260   30.5330   38.7860 C   0  0  0  0  0  0  0  0  0  0  0  0
   46.4860   30.3720   37.6080 N   0  0  0  0  0  0  0  0  0  0  0  0
   46.0300   30.7000   36.7290 H   0  0  0  0  0  0  0  0  0  0  0  0
   47.6310   29.7610   37.8410 N   0  0  0  0  0  0  0  0  0  0  0  0
   47.8210   29.5230   39.1480 C   0  0  0  0  0  0  0  0  0  0  0  0
   48.6780   29.0370   39.6000 H   0  0  0  0  0  0  0  0  0  0  0  0
   46.6950   30.0300   39.7940 C   0  0  0  0  0  0  0  0  0  0  0  0
   46.4250   30.0260   41.1310 C   0  0  0  0  0  3  0  0  0  0  0  0
   44.2760   34.4770   41.6110 C   0  0  0  0  0  0  0  0  0  0  0  0
   45.1670   34.4720   40.6970 O   0  0  0  0  0  0  0  0  0  0  0  0
   44.6030   34.5250   43.0060 C   0  0  0  0  0  0  0  0  0  0  0  0
   44.2970   35.7540   43.6790 C   0  0  0  0  0  0  0  0  0  0  0  0
   44.5970   35.8130   45.0320 C   0  0  0  0  0  0  0  0  0  0  0  0
   45.1510   34.7230   45.6250 N   0  0  0  0  0  0  0  0  0  0  0  0
   45.4240   33.5680   44.9360 C   0  0  0  0  0  0  0  0  0  0  0  0
   45.1450   33.5190   43.6830 N   0  0  0  0  0  0  0  0  0  0  0  0
   43.8680   36.6470   43.2910 H   0  0  0  0  0  0  0  0  0  0  0  0
   44.4210   36.6660   45.6520 H   0  0  0  0  0  0  0  0  0  0  0  0
   46.0200   32.4380   45.6670 C   0  0  1  0  0  0  0  0  0  0  0  0
   46.9730   32.7220   46.8120 C   0  0  0  0  0  0  0  0  0  0  0  0
   45.5590   32.2880   47.0740 C   0  0  1  0  0  0  0  0  0  0  0  0
   46.2460   31.5240   45.1260 H   0  0  0  0  0  0  0  0  0  0  0  0
   47.2840   33.7740   46.9030 H   0  0  0  0  0  0  0  0  0  0  0  0
   47.7780   32.0080   47.0380 H   0  0  0  0  0  0  0  0  0  0  0  0
   45.4450   31.3010   47.5530 H   0  0  0  0  0  0  0  0  0  0  0  0
   44.7870   33.3520   47.6980 N   0  0  0  0  0  0  0  0  0  0  0  0
   44.8750   33.3360   48.7380 H   0  0  0  0  0  0  0  0  0  0  0  0
   43.7730   33.0970   47.5230 H   0  0  0  0  0  0  0  0  0  0  0  0
  1 11  1  0  0  0  0
  1  2  1  0  0  0  0
  2 26  1  0  0  0  0
  3  2  2  0  0  0  0
  3  7  1  0  0  0  0
  4  3  1  0  0  0  0
  5  6  1  0  0  0  0
  5  4  2  0  0  0  0
  6  1  2  0  0  0  0
  8  4  1  0  0  0  0
  9  5  1  0  0  0  0
 10  6  1  0  0  0  0
 11 13  2  0  0  0  0
 12 11  2  0  0  0  0
 15 11  1  0  0  0  0
 15 14  2  0  0  0  0
 16 15  1  0  0  0  0
 17 16  1  0  0  0  0
 18 16  2  0  0  0  0
 18 24  1  0  0  0  0
 19 21  1  0  0  0  0
 19 18  1  0  0  0  0
 20 19  1  0  0  0  0
 21 22  2  0  0  0  0
 22 23  1  0  0  0  0
 22 24  1  0  0  0  0
 24 25  2  0  0  0  0
 25 14  1  0  0  0  0
 26 28  1  0  0  0  0
 27 26  2  0  0  0  0
 28 29  2  0  0  0  0
 28 33  1  0  0  0  0
 29 30  1  0  0  0  0
 30 31  2  0  0  0  0
 30 35  1  0  0  0  0
 32 31  1  0  0  0  0
 32 36  1  0  0  0  0
 33 32  2  0  0  0  0
 34 29  1  0  0  0  0
 36 39  1  6  0  0  0
 36 37  1  0  0  0  0
 36 38  1  0  0  0  0
 37 40  1  0  0  0  0
 37 41  1  0  0  0  0
 37 38  1  0  0  0  0
 38 42  1  1  0  0  0
 38 43  1  0  0  0  0
 43 44  1  0  0  0  0
 45 43  1  0  0  0  0
M  END
>  <minimizedAffinity>
-5.81724548

>  <minimizedRMSD>
1.32462502

$$$$
