
     RDKit          3D

 37 40  0  0  0  0  0  0  0  0999 V2000
   47.6894   35.1108   42.1449 C   0  0  0  0  0  0  0  0  0  0  0  0
   46.2293   35.0612   42.0940 C   0  0  0  0  0  0  0  0  0  0  0  0
   45.4555   35.6366   43.0772 C   0  0  0  0  0  0  0  0  0  0  0  0
   44.0675   35.5398   42.9485 C   0  0  0  0  0  0  0  0  0  0  0  0
   43.5453   34.9004   41.8893 N   0  0  0  0  0  0  0  0  0  0  0  0
   44.3401   34.3473   40.9431 C   0  0  0  0  0  0  0  0  0  0  0  0
   45.6371   34.4365   41.0611 N   0  0  0  0  0  0  0  0  0  0  0  0
   48.2401   33.8389   42.6406 C   0  0  0  0  0  0  0  0  0  0  0  0
   49.1007   33.0992   41.8005 C   0  0  0  0  0  0  0  0  0  0  0  0
   48.9822   32.3261   40.6238 C   0  0  0  0  0  0  0  0  0  0  0  0
   50.0628   31.7086   40.0914 C   0  0  0  0  0  0  0  0  0  0  0  0
   51.3123   31.8805   40.7762 C   0  0  0  0  0  0  0  0  0  0  0  0
   50.9284   32.9409   42.1963 S   0  0  0  0  0  0  0  0  0  0  0  0
   52.4351   31.3692   40.4192 O   0  0  0  0  0  0  0  0  0  0  0  0
   48.0253   35.9505   42.7989 H   0  0  0  0  0  0  0  0  0  0  0  0
   48.0996   35.3514   41.1424 H   0  0  0  0  0  0  0  0  0  0  0  0
   45.9913   36.1224   43.8785 H   0  0  0  0  0  0  0  0  0  0  0  0
   43.4840   36.0006   43.7350 H   0  0  0  0  0  0  0  0  0  0  0  0
   43.8040   33.8609   40.1406 H   0  0  0  0  0  0  0  0  0  0  0  0
   47.3823   33.1459   42.9281 H   0  0  0  0  0  0  0  0  0  0  0  0
   48.7358   33.9869   43.6493 H   0  0  0  0  0  0  0  0  0  0  0  0
   47.9875   32.3170   40.2656 H   0  0  0  0  0  0  0  0  0  0  0  0
   49.9731   31.1206   39.1970 H   0  0  0  0  0  0  0  0  0  0  0  0
   53.8606   32.8238   41.3372 C   0  0  0  0  0  0  0  0  0  0  0  0
   53.6752   31.4748   41.0076 C   0  0  0  0  0  0  0  0  0  0  0  0
   54.6684   30.5873   41.3028 C   0  0  0  0  0  0  0  0  0  0  0  0
   54.4185   29.6002   41.0091 H   0  0  0  0  0  0  0  0  0  0  0  0
   55.8343   30.9668   41.9068 C   0  0  0  0  0  0  0  0  0  0  0  0
   56.8948   30.2253   42.2593 N   0  0  0  0  0  0  0  0  0  0  0  0
   57.0038   29.1862   42.1210 H   0  0  0  0  0  0  0  0  0  0  0  0
   57.7703   31.0504   42.8107 N   0  0  0  0  0  0  0  0  0  0  0  0
   57.2908   32.3079   42.8185 C   0  0  0  0  0  0  0  0  0  0  0  0
   57.7546   33.2078   43.1945 H   0  0  0  0  0  0  0  0  0  0  0  0
   56.0245   32.2918   42.2342 C   0  0  0  0  0  0  0  0  0  0  0  0
   55.0461   33.2407   41.9571 C   0  0  0  0  0  0  0  0  0  0  0  0
   53.2151   33.6834   41.1967 H   0  0  0  0  0  0  0  0  0  0  0  0
   55.2975   34.2368   42.2530 H   0  0  0  0  0  0  0  0  0  0  0  0
  1  8  1  0
  2  1  1  0
  2  3  2  0
  4  3  1  0
  5  4  2  0
  6  7  2  0
  6  5  1  0
  7  2  1  0
  9 13  1  0
  9  8  1  0
 10  9  2  0
 11 10  1  0
 11 12  2  0
 12 13  1  0
 14 12  1  0
  1 15  1  0
  1 16  1  0
  3 17  1  0
  4 18  1  0
  6 19  1  0
  8 20  1  0
  8 21  1  0
 10 22  1  0
 11 23  1  0
 24 25  2  0
 25 26  1  0
 26 27  1  0
 26 28  2  0
 28 29  1  0
 29 30  1  0
 29 31  1  0
 31 32  2  0
 32 33  1  0
 32 34  1  0
 34 35  2  0
 35 24  1  0
 34 28  1  0
 24 36  1  0
 35 37  1  0
 14 25  1  0
M  ISO  8  15   8  16   8  17  14  18  14  19  14  20   8  21   8  22  14
M  ISO  4  23  14  27  16  30   5  33  15
M  END
>  <DihAtoms>  (1) 
11,13,24,23

>  <DihDeg>  (1) 
179.99888443199038

$$$$
