REMARK  Name = 
REMARK  4 active torsions:
REMARK  status: ('A' for Active; 'I' for Inactive)
REMARK    1  A    between atoms: C_2  and  N_7
REMARK    2  A    between atoms: C_3  and  C_14
REMARK    3  A    between atoms: C_20  and  O_22
REMARK    4  A    between atoms: O_22  and  C_39
REMARK                            x       y       z     vdW  Elec       q    Type
REMARK                         _______ _______ _______ _____ _____    ______ ____
ROOT
ATOM      1  C   UNL     1      46.444  31.997  45.497  0.00  0.00    +0.000 A 
ATOM      2  C   UNL     1      46.749  32.737  44.334  0.00  0.00    +0.000 A 
ATOM      3  C   UNL     1      47.712  32.105  43.587  0.00  0.00    +0.000 A 
ATOM      4  C   UNL     1      48.322  30.928  43.885  0.00  0.00    +0.000 A 
ATOM      5  C   UNL     1      47.964  30.265  45.056  0.00  0.00    +0.000 A 
ATOM      6  C   UNL     1      47.011  30.809  45.870  0.00  0.00    +0.000 A 
ATOM      7  O   UNL     1      48.755  29.127  45.072  0.00  0.00    +0.000 OA
ATOM      8  C   UNL     1      49.547  29.061  43.903  0.00  0.00    +0.000 C 
ATOM      9  O   UNL     1      49.291  30.253  43.164  0.00  0.00    +0.000 OA
ATOM     10  H   UNL     1      45.709  32.217  46.300  0.00  0.00    +0.000 HD
ATOM     11  H   UNL     1      47.955  32.636  42.720  0.00  0.00    +0.000 HD
ATOM     12  H   UNL     1      46.822  30.218  46.724  0.00  0.00    +0.000 HD
ATOM     13  H   UNL     1      50.632  29.064  44.094  0.00  0.00    +0.000 HD
ENDROOT
BRANCH   2  16
ATOM     14  C   UNL     1      45.127  36.007  43.488  0.00  0.00    +0.000 A 
ATOM     15  C   UNL     1      45.913  34.877  43.254  0.00  0.00    +0.000 A 
ATOM     16  C   UNL     1      46.057  33.947  44.237  0.00  0.00    +0.000 A 
ATOM     17  N   UNL     1      45.411  34.184  45.420  0.00  0.00    +0.000 NA
ATOM     18  C   UNL     1      44.659  35.267  45.643  0.00  0.00    +0.000 A 
ATOM     19  N   UNL     1      44.521  36.161  44.692  0.00  0.00    +0.000 NA
ATOM     20  H   UNL     1      45.008  36.750  42.711  0.00  0.00    +0.000 HD
ATOM     21  H   UNL     1      44.124  35.514  46.548  0.00  0.00    +0.000 HD
BRANCH  15  22
ATOM     22  N   UNL     1      46.537  34.782  42.011  0.00  0.00    +0.000 N 
ATOM     23  C   UNL     1      47.860  35.269  41.794  0.00  0.00    +0.000 C 
ATOM     24  C   UNL     1      48.452  34.939  40.459  0.00  0.00    +0.000 C 
ATOM     25  N   UNL     1      48.162  33.651  39.982  0.00  0.00    +0.000 NA
ATOM     26  C   UNL     1      46.870  33.204  40.159  0.00  0.00    +0.000 C 
ATOM     27  C   UNL     1      45.984  34.224  40.842  0.00  0.00    +0.000 C 
ATOM     28  H   UNL     1      48.579  34.954  42.592  0.00  0.00    +0.000 HD
ATOM     29  H   UNL     1      47.803  36.376  41.875  0.00  0.00    +0.000 HD
ATOM     30  H   UNL     1      48.156  35.701  39.711  0.00  0.00    +0.000 HD
ATOM     31  H   UNL     1      49.569  35.036  40.547  0.00  0.00    +0.000 HD
ATOM     32  H   UNL     1      48.531  33.519  39.035  0.00  0.00    +0.000 HD
ATOM     33  H   UNL     1      46.800  32.203  40.659  0.00  0.00    +0.000 HD
ATOM     34  H   UNL     1      46.402  33.017  39.149  0.00  0.00    +0.000 HD
ATOM     35  H   UNL     1      45.772  35.046  40.105  0.00  0.00    +0.000 HD
ATOM     36  H   UNL     1      45.003  33.752  41.053  0.00  0.00    +0.000 HD
ENDBRANCH  15  22
ENDBRANCH   2  16
BRANCH   8  37
ATOM     37  O   UNL     1      49.081  27.960  43.164  0.00  0.00    +0.000 OA
BRANCH  37  39
ATOM     38  C   UNL     1      49.711  25.677  43.309  0.00  0.00    +0.000 A 
ATOM     39  C   UNL     1      49.803  26.915  42.664  0.00  0.00    +0.000 A 
ATOM     40  C   UNL     1      50.624  26.993  41.557  0.00  0.00    +0.000 A 
ATOM     41  H   UNL     1      50.721  27.923  41.035  0.00  0.00    +0.000 HD
ATOM     42  C   UNL     1      51.333  25.909  41.091  0.00  0.00    +0.000 A 
ATOM     43  N   UNL     1      52.181  25.755  40.048  0.00  0.00    +0.000 N 
ATOM     44  H   UNL     1      52.481  26.468  39.354  0.00  0.00    +0.000 HD
ATOM     45  N   UNL     1      52.617  24.499  40.012  0.00  0.00    +0.000 NA
ATOM     46  C   UNL     1      52.072  23.811  41.016  0.00  0.00    +0.000 A 
ATOM     47  H   UNL     1      52.205  22.764  41.288  0.00  0.00    +0.000 HD
ATOM     48  C   UNL     1      51.263  24.677  41.706  0.00  0.00    +0.000 A 
ATOM     49  C   UNL     1      50.432  24.601  42.824  0.00  0.00    +0.000 A 
ENDBRANCH  37  39
ENDBRANCH   8  37
TORSDOF 4
