
 OpenBabel03252508033D

 45 49  0  0  1  0  0  0  0  0999 V2000
   42.1480   33.2720   41.1990 C   0  0  0  0  0  0  0  0  0  0  0  0
   42.8430   34.4340   41.3650 C   0  0  0  0  0  0  0  0  0  0  0  0
   42.1280   35.6450   41.2830 C   0  0  0  0  0  0  0  0  0  0  0  0
   40.7780   35.7100   41.0480 C   0  0  0  0  0  0  0  0  0  0  0  0
   40.0880   34.5410   40.8820 C   0  0  0  0  0  0  0  0  0  0  0  0
   40.7700   33.3610   40.9590 C   0  0  0  0  0  0  0  0  0  0  0  0
   42.5970   36.6160   41.3930 H   0  0  0  0  0  0  0  0  0  0  0  0
   40.2460   36.6390   40.9870 H   0  0  0  0  0  0  0  0  0  0  0  0
   39.0400   34.4950   40.6960 H   0  0  0  0  0  0  0  0  0  0  0  0
   40.2190   32.4160   40.8270 H   0  0  0  0  0  0  0  0  0  0  0  0
   42.8840   31.7590   41.3120 S   0  0  0  0  0  0  0  0  0  0  0  0
   42.1500   30.9710   40.2080 O   0  0  0  0  0  0  0  0  0  0  0  0
   42.5530   31.0940   42.6380 O   0  0  0  0  0  0  0  0  0  0  0  0
   44.5860   31.1310   39.3850 C   0  0  0  0  0  3  0  0  0  0  0  0
   44.3360   31.1620   40.7820 C   0  0  0  0  0  0  0  0  0  0  0  0
   45.4590   30.6880   41.5060 C   0  0  0  0  0  0  0  0  0  0  0  0
   45.2630   30.7270   42.5960 H   0  0  0  0  0  0  0  0  0  0  0  0
   46.6870   30.2280   41.0920 C   0  0  0  0  0  0  0  0  0  0  0  0
   47.7990   29.7650   41.6200 N   0  0  0  0  0  0  0  0  0  0  0  0
   47.9240   29.6670   42.6500 H   0  0  0  0  0  0  0  0  0  0  0  0
   48.5920   29.5050   40.6000 N   0  0  0  0  0  0  0  0  0  0  0  0
   48.0130   29.7890   39.4210 C   0  0  0  0  0  0  0  0  0  0  0  0
   48.4520   29.6650   38.4380 H   0  0  0  0  0  0  0  0  0  0  0  0
   46.7450   30.2720   39.7300 C   0  0  0  0  0  0  0  0  0  0  0  0
   45.7760   30.6920   38.8660 C   0  0  0  0  0  3  0  0  0  0  0  0
   44.2760   34.4690   41.6120 C   0  0  0  0  0  0  0  0  0  0  0  0
   45.1670   34.4590   40.6990 O   0  0  0  0  0  0  0  0  0  0  0  0
   44.6020   34.5220   43.0070 C   0  0  0  0  0  0  0  0  0  0  0  0
   44.2960   35.7530   43.6760 C   0  0  0  0  0  0  0  0  0  0  0  0
   44.5960   35.8150   45.0290 C   0  0  0  0  0  0  0  0  0  0  0  0
   45.1500   34.7280   45.6250 N   0  0  0  0  0  0  0  0  0  0  0  0
   45.4230   33.5710   44.9400 C   0  0  0  0  0  0  0  0  0  0  0  0
   45.1440   33.5180   43.6870 N   0  0  0  0  0  0  0  0  0  0  0  0
   43.8680   36.6450   43.2860 H   0  0  0  0  0  0  0  0  0  0  0  0
   44.4200   36.6710   45.6470 H   0  0  0  0  0  0  0  0  0  0  0  0
   46.0190   32.4420   45.6740 C   0  0  1  0  0  0  0  0  0  0  0  0
   46.9710   32.7300   46.8190 C   0  0  0  0  0  0  0  0  0  0  0  0
   45.5570   32.2960   47.0820 C   0  0  1  0  0  0  0  0  0  0  0  0
   46.2460   31.5270   45.1360 H   0  0  0  0  0  0  0  0  0  0  0  0
   47.2820   33.7820   46.9070 H   0  0  0  0  0  0  0  0  0  0  0  0
   47.7760   32.0170   47.0470 H   0  0  0  0  0  0  0  0  0  0  0  0
   45.4430   31.3110   47.5630 H   0  0  0  0  0  0  0  0  0  0  0  0
   44.7840   33.3620   47.7020 N   0  0  0  0  0  0  0  0  0  0  0  0
   44.8720   33.3490   48.7430 H   0  0  0  0  0  0  0  0  0  0  0  0
   43.7700   33.1050   47.5270 H   0  0  0  0  0  0  0  0  0  0  0  0
  1 11  1  0  0  0  0
  1  2  1  0  0  0  0
  2 26  1  0  0  0  0
  3  2  2  0  0  0  0
  3  7  1  0  0  0  0
  4  3  1  0  0  0  0
  5  6  1  0  0  0  0
  5  4  2  0  0  0  0
  6  1  2  0  0  0  0
  8  4  1  0  0  0  0
  9  5  1  0  0  0  0
 10  6  1  0  0  0  0
 11 13  2  0  0  0  0
 12 11  2  0  0  0  0
 14 15  1  0  0  0  0
 15 11  1  0  0  0  0
 15 16  2  0  0  0  0
 16 17  1  0  0  0  0
 18 16  1  0  0  0  0
 18 19  1  0  0  0  0
 19 20  1  0  0  0  0
 21 19  1  0  0  0  0
 22 24  1  0  0  0  0
 22 21  2  0  0  0  0
 23 22  1  0  0  0  0
 24 18  2  0  0  0  0
 25 14  2  0  0  0  0
 25 24  1  0  0  0  0
 26 28  1  0  0  0  0
 27 26  2  0  0  0  0
 28 29  2  0  0  0  0
 28 33  1  0  0  0  0
 29 30  1  0  0  0  0
 30 31  2  0  0  0  0
 30 35  1  0  0  0  0
 32 31  1  0  0  0  0
 32 36  1  0  0  0  0
 33 32  2  0  0  0  0
 34 29  1  0  0  0  0
 36 39  1  6  0  0  0
 36 37  1  0  0  0  0
 36 38  1  0  0  0  0
 37 40  1  0  0  0  0
 37 41  1  0  0  0  0
 37 38  1  0  0  0  0
 38 42  1  1  0  0  0
 38 43  1  0  0  0  0
 43 44  1  0  0  0  0
 45 43  1  0  0  0  0
M  END
>  <minimizedAffinity>
-5.82155418

>  <minimizedRMSD>
1.25262105

$$$$
