
 OpenBabel03252500543D

 33 35  0  0  0  0  0  0  0  0999 V2000
   45.1880   32.7320   38.6060 O   0  0  0  0  0  0  0  0  0  0  0  0
   45.7770   33.1960   39.9350 P   0  0  1  0  0  0  0  0  0  0  0  0
   45.8660   31.8420   40.9710 O   0  0  0  0  0  0  0  0  0  0  0  0
   45.5140   32.0380   41.8530 H   0  0  0  0  0  0  0  0  0  0  0  0
   47.3500   33.7700   39.6900 O   0  0  0  0  0  0  0  0  0  0  0  0
   49.2450   33.0720   40.9190 C   0  0  0  0  0  0  0  0  0  0  0  0
   48.2920   34.0510   40.6710 C   0  0  0  0  0  0  0  0  0  0  0  0
   48.3520   35.2380   41.4230 C   0  0  0  0  0  0  0  0  0  0  0  0
   49.3460   35.3340   42.3410 N   0  0  0  0  0  0  0  0  0  0  0  0
   50.2560   34.3680   42.5580 C   0  0  0  0  0  0  0  0  0  0  0  0
   50.1940   33.2550   41.8470 N   0  0  0  0  0  0  0  0  0  0  0  0
   47.6130   35.9680   41.2140 H   0  0  0  0  0  0  0  0  0  0  0  0
   51.0410   34.4660   43.2950 H   0  0  0  0  0  0  0  0  0  0  0  0
   49.2380   31.8130   40.1710 C   0  0  0  0  0  0  0  0  0  0  0  0
   48.6370   31.9510   39.2240 H   0  0  0  0  0  0  0  0  0  0  0  0
   48.8030   30.9830   40.7350 H   0  0  0  0  0  0  0  0  0  0  0  0
   50.6480   31.4890   39.7200 C   0  0  0  0  0  0  0  0  0  0  0  0
   50.6110   30.4420   39.3010 H   0  0  0  0  0  0  0  0  0  0  0  0
   51.2410   31.3970   40.6530 H   0  0  0  0  0  0  0  0  0  0  0  0
   51.0230   32.2220   39.0050 H   0  0  0  0  0  0  0  0  0  0  0  0
   44.7580   34.3270   40.6780 O   0  0  0  0  0  0  0  0  0  0  0  0
   42.8060   33.0370   41.4300 C   0  0  0  0  0  3  0  0  0  0  0  0
   43.3760   34.0750   40.7210 C   0  0  0  0  0  0  0  0  0  0  0  0
   42.5470   34.9300   40.0010 C   0  0  0  0  0  0  0  0  0  0  0  0
   42.8750   35.7680   39.4120 H   0  0  0  0  0  0  0  0  0  0  0  0
   41.1650   34.7610   39.9790 C   0  0  0  0  0  0  0  0  0  0  0  0
   40.1340   35.4100   39.3920 N   0  0  0  0  0  0  0  0  0  0  0  0
   40.2320   36.2590   38.7720 H   0  0  0  0  0  0  0  0  0  0  0  0
   38.9830   34.8220   39.7070 N   0  0  0  0  0  0  0  0  0  0  0  0
   39.2410   33.7610   40.5200 C   0  0  0  0  0  0  0  0  0  0  0  0
   38.4830   33.1050   40.9260 H   0  0  0  0  0  0  0  0  0  0  0  0
   40.5880   33.7140   40.6950 C   0  0  0  0  0  0  0  0  0  0  0  0
   41.4350   32.8710   41.4090 C   0  0  0  0  0  3  0  0  0  0  0  0
  2  1  2  6  0  0  0
  2 21  1  0  0  0  0
  2  3  1  0  0  0  0
  3  4  1  0  0  0  0
  5  2  1  0  0  0  0
  5  7  1  0  0  0  0
  6 11  1  0  0  0  0
  7  6  2  0  0  0  0
  7  8  1  0  0  0  0
  8  9  2  0  0  0  0
  9 10  1  0  0  0  0
 10 13  1  0  0  0  0
 11 10  2  0  0  0  0
 12  8  1  0  0  0  0
 14 16  1  0  0  0  0
 14  6  1  0  0  0  0
 15 14  1  0  0  0  0
 17 14  1  0  0  0  0
 17 19  1  0  0  0  0
 18 17  1  0  0  0  0
 20 17  1  0  0  0  0
 21 23  1  0  0  0  0
 23 22  2  0  0  0  0
 24 23  1  0  0  0  0
 25 24  1  0  0  0  0
 26 24  2  0  0  0  0
 26 32  1  0  0  0  0
 27 29  1  0  0  0  0
 27 26  1  0  0  0  0
 28 27  1  0  0  0  0
 29 30  2  0  0  0  0
 30 32  1  0  0  0  0
 30 31  1  0  0  0  0
 32 33  2  0  0  0  0
 33 22  1  0  0  0  0
M  END
>  <minimizedAffinity>
-4.63147831

>  <minimizedRMSD>
4.2633214

$$$$
