
 OpenBabel03242523133D

 49 54  0  0  1  0  0  0  0  0999 V2000
   38.3160   32.0830   38.3540 C   0  0  0  0  0  0  0  0  0  0  0  0
   38.5490   32.6160   39.6410 C   0  0  0  0  0  0  0  0  0  0  0  0
   37.7400   32.0170   40.5750 C   0  0  0  0  0  0  0  0  0  0  0  0
   36.8220   31.0430   40.3430 C   0  0  0  0  0  0  0  0  0  0  0  0
   36.6530   30.5770   39.0420 C   0  0  0  0  0  0  0  0  0  0  0  0
   37.4120   31.1050   38.0370 C   0  0  0  0  0  0  0  0  0  0  0  0
   35.6610   29.6140   39.1390 O   0  0  0  0  0  0  0  0  0  0  0  0
   35.2650   29.4490   40.4860 C   0  0  2  0  0  0  0  0  0  0  0  0
   35.9910   30.4090   41.2500 O   0  0  0  0  0  0  0  0  0  0  0  0
   38.8040   32.3330   37.3880 H   0  0  0  0  0  0  0  0  0  0  0  0
   37.8950   32.3970   41.5360 H   0  0  0  0  0  0  0  0  0  0  0  0
   37.1980   30.6740   37.0970 H   0  0  0  0  0  0  0  0  0  0  0  0
   34.2020   29.6710   40.6730 H   0  0  0  0  0  0  0  0  0  0  0  0
   41.4760   34.9490   39.4880 C   0  0  0  0  0  0  0  0  0  0  0  0
   40.8120   33.7290   39.3520 C   0  0  0  0  0  0  0  0  0  0  0  0
   39.4890   33.6490   39.6620 C   0  0  0  0  0  0  0  0  0  0  0  0
   38.8800   34.7940   40.0990 N   0  0  0  0  0  0  0  0  0  0  0  0
   39.5170   35.9620   40.2280 C   0  0  0  0  0  0  0  0  0  0  0  0
   40.7930   36.0360   39.9280 N   0  0  0  0  0  0  0  0  0  0  0  0
   42.5270   35.0200   39.2440 H   0  0  0  0  0  0  0  0  0  0  0  0
   39.0990   36.8990   40.5650 H   0  0  0  0  0  0  0  0  0  0  0  0
   41.5670   32.6370   38.9250 N   0  0  0  0  0  0  0  0  0  0  0  0
   42.0200   31.6340   39.8330 C   0  0  0  0  0  0  0  0  0  0  0  0
   42.6680   30.4430   39.1980 C   0  0  0  0  0  0  0  0  0  0  0  0
   42.0640   30.0000   38.0110 N   0  0  0  0  0  0  0  0  0  0  0  0
   41.6660   30.9750   37.1200 C   0  0  0  0  0  0  0  0  0  0  0  0
   41.9790   32.3750   37.6040 C   0  0  0  0  0  0  0  0  0  0  0  0
   41.2180   31.2780   40.5280 H   0  0  0  0  0  0  0  0  0  0  0  0
   42.7750   32.1220   40.4870 H   0  0  0  0  0  0  0  0  0  0  0  0
   43.7460   30.6380   39.0310 H   0  0  0  0  0  0  0  0  0  0  0  0
   42.6360   29.6000   39.9420 H   0  0  0  0  0  0  0  0  0  0  0  0
   42.6000   29.2350   37.5900 H   0  0  0  0  0  0  0  0  0  0  0  0
   40.5970   30.8850   36.7960 H   0  0  0  0  0  0  0  0  0  0  0  0
   42.2370   30.8490   36.1550 H   0  0  0  0  0  0  0  0  0  0  0  0
   43.0900   32.5280   37.5260 H   0  0  0  0  0  0  0  0  0  0  0  0
   41.5270   33.1000   36.8970 H   0  0  0  0  0  0  0  0  0  0  0  0
   35.6740   28.1600   40.8700 O   0  0  0  0  0  0  0  0  0  0  0  0
   36.5750   27.7580   43.0280 C   0  0  0  0  0  3  0  0  0  0  0  0
   36.7460   27.8110   41.6410 C   0  0  0  0  0  0  0  0  0  0  0  0
   37.9970   27.5060   41.1440 C   0  0  0  0  0  0  0  0  0  0  0  0
   38.1690   27.5360   40.0870 H   0  0  0  0  0  0  0  0  0  0  0  0
   39.0480   27.1610   41.9630 C   0  0  0  0  0  0  0  0  0  0  0  0
   40.3340   26.8280   41.7050 N   0  0  0  0  0  0  0  0  0  0  0  0
   40.8080   26.7650   40.7820 H   0  0  0  0  0  0  0  0  0  0  0  0
   40.9640   26.5740   42.8490 N   0  0  0  0  0  0  0  0  0  0  0  0
   40.1180   26.7310   43.8680 C   0  0  0  0  0  0  0  0  0  0  0  0
   40.2930   26.6060   44.9350 H   0  0  0  0  0  0  0  0  0  0  0  0
   38.9090   27.0990   43.3340 C   0  0  0  0  0  0  0  0  0  0  0  0
   37.6440   27.4080   43.8330 C   0  0  0  0  0  3  0  0  0  0  0  0
  1  2  1  0  0  0  0
  2 16  1  0  0  0  0
  2  3  2  0  0  0  0
  3 11  1  0  0  0  0
  4  3  1  0  0  0  0
  4  9  1  0  0  0  0
  5  7  1  0  0  0  0
  5  4  2  0  0  0  0
  6  1  2  0  0  0  0
  6  5  1  0  0  0  0
  7  8  1  0  0  0  0
  8 13  1  1  0  0  0
  8 37  1  0  0  0  0
  8  9  1  0  0  0  0
 10  1  1  0  0  0  0
 12  6  1  0  0  0  0
 14 19  1  0  0  0  0
 15 14  2  0  0  0  0
 15 16  1  0  0  0  0
 16 17  2  0  0  0  0
 17 18  1  0  0  0  0
 18 21  1  0  0  0  0
 19 18  2  0  0  0  0
 20 14  1  0  0  0  0
 22 15  1  0  0  0  0
 22 23  1  0  0  0  0
 23 29  1  0  0  0  0
 23 28  1  0  0  0  0
 24 23  1  0  0  0  0
 24 31  1  0  0  0  0
 25 24  1  0  0  0  0
 26 27  1  0  0  0  0
 26 25  1  0  0  0  0
 27 22  1  0  0  0  0
 30 24  1  0  0  0  0
 32 25  1  0  0  0  0
 33 26  1  0  0  0  0
 34 26  1  0  0  0  0
 35 27  1  0  0  0  0
 36 27  1  0  0  0  0
 37 39  1  0  0  0  0
 38 49  1  0  0  0  0
 39 38  2  0  0  0  0
 40 39  1  0  0  0  0
 40 42  2  0  0  0  0
 41 40  1  0  0  0  0
 42 48  1  0  0  0  0
 43 42  1  0  0  0  0
 43 45  1  0  0  0  0
 44 43  1  0  0  0  0
 45 46  2  0  0  0  0
 46 47  1  0  0  0  0
 48 49  2  0  0  0  0
 48 46  1  0  0  0  0
M  END
>  <minimizedAffinity>
-7.33112955

$$$$

 OpenBabel03242523133D

 49 54  0  0  1  0  0  0  0  0999 V2000
   37.6470   32.0940   39.5270 C   0  0  0  0  0  0  0  0  0  0  0  0
   38.7320   32.3550   40.3920 C   0  0  0  0  0  0  0  0  0  0  0  0
   38.7690   31.4490   41.4230 C   0  0  0  0  0  0  0  0  0  0  0  0
   37.9010   30.4240   41.6290 C   0  0  0  0  0  0  0  0  0  0  0  0
   36.8540   30.2410   40.7290 C   0  0  0  0  0  0  0  0  0  0  0  0
   36.7290   31.0880   39.6640 C   0  0  0  0  0  0  0  0  0  0  0  0
   36.1610   29.1430   41.2130 O   0  0  0  0  0  0  0  0  0  0  0  0
   36.8020   28.6240   42.3620 C   0  0  2  0  0  0  0  0  0  0  0  0
   37.9000   29.4870   42.6470 O   0  0  0  0  0  0  0  0  0  0  0  0
   37.3410   32.6240   38.6000 H   0  0  0  0  0  0  0  0  0  0  0  0
   39.5650   31.6230   42.0770 H   0  0  0  0  0  0  0  0  0  0  0  0
   35.9030   30.8500   39.0510 H   0  0  0  0  0  0  0  0  0  0  0  0
   36.1780   28.6380   43.2700 H   0  0  0  0  0  0  0  0  0  0  0  0
   41.1020   34.9810   39.1560 C   0  0  0  0  0  0  0  0  0  0  0  0
   40.6130   33.6840   39.3240 C   0  0  0  0  0  0  0  0  0  0  0  0
   39.4740   33.4860   40.0410 C   0  0  0  0  0  0  0  0  0  0  0  0
   38.8660   34.5940   40.5670 N   0  0  0  0  0  0  0  0  0  0  0  0
   39.3360   35.8360   40.4060 C   0  0  0  0  0  0  0  0  0  0  0  0
   40.4340   36.0230   39.7120 N   0  0  0  0  0  0  0  0  0  0  0  0
   42.0070   35.1460   38.5870 H   0  0  0  0  0  0  0  0  0  0  0  0
   38.9080   36.7500   40.7910 H   0  0  0  0  0  0  0  0  0  0  0  0
   41.3530   32.6470   38.7580 N   0  0  0  0  0  0  0  0  0  0  0  0
   41.1150   32.1920   37.4270 C   0  0  0  0  0  0  0  0  0  0  0  0
   42.1020   31.1940   36.9060 C   0  0  0  0  0  0  0  0  0  0  0  0
   43.4370   31.4340   37.2670 N   0  0  0  0  0  0  0  0  0  0  0  0
   43.6620   31.8330   38.5670 C   0  0  0  0  0  0  0  0  0  0  0  0
   42.3900   31.9260   39.3820 C   0  0  0  0  0  0  0  0  0  0  0  0
   41.0270   33.0280   36.6880 H   0  0  0  0  0  0  0  0  0  0  0  0
   40.1150   31.7070   37.4370 H   0  0  0  0  0  0  0  0  0  0  0  0
   41.8020   30.1700   37.2030 H   0  0  0  0  0  0  0  0  0  0  0  0
   42.0360   31.2030   35.7840 H   0  0  0  0  0  0  0  0  0  0  0  0
   44.0460   30.6760   36.9440 H   0  0  0  0  0  0  0  0  0  0  0  0
   44.2720   32.7700   38.6560 H   0  0  0  0  0  0  0  0  0  0  0  0
   44.3040   31.0620   39.0850 H   0  0  0  0  0  0  0  0  0  0  0  0
   42.0370   30.8800   39.5920 H   0  0  0  0  0  0  0  0  0  0  0  0
   42.6370   32.3620   40.3710 H   0  0  0  0  0  0  0  0  0  0  0  0
   37.2990   27.3580   42.0070 O   0  0  0  0  0  0  0  0  0  0  0  0
   39.1580   26.1470   41.1650 C   0  0  0  0  0  3  0  0  0  0  0  0
   38.5550   26.8610   42.2060 C   0  0  0  0  0  0  0  0  0  0  0  0
   39.2770   27.0120   43.3730 C   0  0  0  0  0  0  0  0  0  0  0  0
   38.8500   27.5520   44.1930 H   0  0  0  0  0  0  0  0  0  0  0  0
   40.5420   26.4900   43.5260 C   0  0  0  0  0  0  0  0  0  0  0  0
   41.4190   26.5140   44.5560 N   0  0  0  0  0  0  0  0  0  0  0  0
   41.3020   26.9570   45.4890 H   0  0  0  0  0  0  0  0  0  0  0  0
   42.5240   25.8580   44.2120 N   0  0  0  0  0  0  0  0  0  0  0  0
   42.3990   25.3970   42.9670 C   0  0  0  0  0  0  0  0  0  0  0  0
   43.1050   24.8220   42.3700 H   0  0  0  0  0  0  0  0  0  0  0  0
   41.1620   25.7830   42.5170 C   0  0  0  0  0  0  0  0  0  0  0  0
   40.4290   25.6310   41.3410 C   0  0  0  0  0  3  0  0  0  0  0  0
  1  6  2  0  0  0  0
  1  2  1  0  0  0  0
  2  3  2  0  0  0  0
  3  4  1  0  0  0  0
  3 11  1  0  0  0  0
  4  9  1  0  0  0  0
  5  7  1  0  0  0  0
  5  4  2  0  0  0  0
  6  5  1  0  0  0  0
  7  8  1  0  0  0  0
  8  9  1  0  0  0  0
  8 13  1  1  0  0  0
 10  1  1  0  0  0  0
 12  6  1  0  0  0  0
 14 15  2  0  0  0  0
 14 19  1  0  0  0  0
 15 16  1  0  0  0  0
 16  2  1  0  0  0  0
 16 17  2  0  0  0  0
 18 17  1  0  0  0  0
 18 21  1  0  0  0  0
 19 18  2  0  0  0  0
 20 14  1  0  0  0  0
 22 15  1  0  0  0  0
 22 27  1  0  0  0  0
 23 29  1  0  0  0  0
 23 22  1  0  0  0  0
 24 30  1  0  0  0  0
 24 25  1  0  0  0  0
 24 23  1  0  0  0  0
 25 26  1  0  0  0  0
 26 33  1  0  0  0  0
 26 34  1  0  0  0  0
 26 27  1  0  0  0  0
 27 35  1  0  0  0  0
 27 36  1  0  0  0  0
 28 23  1  0  0  0  0
 31 24  1  0  0  0  0
 32 25  1  0  0  0  0
 37 39  1  0  0  0  0
 37  8  1  0  0  0  0
 38 49  2  0  0  0  0
 38 39  1  0  0  0  0
 39 40  2  0  0  0  0
 40 42  1  0  0  0  0
 40 41  1  0  0  0  0
 42 43  1  0  0  0  0
 43 44  1  0  0  0  0
 45 43  1  0  0  0  0
 46 45  2  0  0  0  0
 47 46  1  0  0  0  0
 48 46  1  0  0  0  0
 48 42  2  0  0  0  0
 49 48  1  0  0  0  0
M  END
>  <minimizedAffinity>
-7.15827942

$$$$

 OpenBabel03242523133D

 49 54  0  0  1  0  0  0  0  0999 V2000
   37.9040   31.9770   40.1510 C   0  0  0  0  0  0  0  0  0  0  0  0
   39.1530   32.2620   40.7440 C   0  0  0  0  0  0  0  0  0  0  0  0
   39.4710   31.3260   41.6960 C   0  0  0  0  0  0  0  0  0  0  0  0
   38.7180   30.2540   42.0580 C   0  0  0  0  0  0  0  0  0  0  0  0
   37.4950   30.0490   41.4250 C   0  0  0  0  0  0  0  0  0  0  0  0
   37.0860   30.9240   40.4580 C   0  0  0  0  0  0  0  0  0  0  0  0
   36.9820   28.9040   42.0120 O   0  0  0  0  0  0  0  0  0  0  0  0
   37.8980   28.3800   42.9520 C   0  0  2  0  0  0  0  0  0  0  0  0
   38.9980   29.2850   43.0060 O   0  0  0  0  0  0  0  0  0  0  0  0
   37.3640   32.5210   39.3470 H   0  0  0  0  0  0  0  0  0  0  0  0
   40.3930   31.5180   42.1500 H   0  0  0  0  0  0  0  0  0  0  0  0
   36.1480   30.6660   40.0490 H   0  0  0  0  0  0  0  0  0  0  0  0
   37.5090   28.3330   43.9820 H   0  0  0  0  0  0  0  0  0  0  0  0
   41.1130   35.0340   39.1580 C   0  0  0  0  0  0  0  0  0  0  0  0
   40.7640   33.7070   39.4160 C   0  0  0  0  0  0  0  0  0  0  0  0
   39.7440   33.4390   40.2770 C   0  0  0  0  0  0  0  0  0  0  0  0
   39.1140   34.5100   40.8510 N   0  0  0  0  0  0  0  0  0  0  0  0
   39.4500   35.7800   40.6030 C   0  0  0  0  0  0  0  0  0  0  0  0
   40.4320   36.0350   39.7710 N   0  0  0  0  0  0  0  0  0  0  0  0
   41.9220   35.2550   38.4750 H   0  0  0  0  0  0  0  0  0  0  0  0
   38.9960   36.6670   41.0190 H   0  0  0  0  0  0  0  0  0  0  0  0
   41.5140   32.7170   38.7830 N   0  0  0  0  0  0  0  0  0  0  0  0
   41.1310   32.1750   37.5210 C   0  0  0  0  0  0  0  0  0  0  0  0
   42.1270   31.2490   36.8940 C   0  0  0  0  0  0  0  0  0  0  0  0
   43.4700   31.6320   37.0420 N   0  0  0  0  0  0  0  0  0  0  0  0
   43.8410   32.1170   38.2780 C   0  0  0  0  0  0  0  0  0  0  0  0
   42.6980   32.1310   39.2710 C   0  0  0  0  0  0  0  0  0  0  0  0
   40.8530   32.9600   36.7730 H   0  0  0  0  0  0  0  0  0  0  0  0
   40.1980   31.5980   37.6980 H   0  0  0  0  0  0  0  0  0  0  0  0
   41.9790   30.2170   37.2700 H   0  0  0  0  0  0  0  0  0  0  0  0
   41.8980   31.1940   35.7950 H   0  0  0  0  0  0  0  0  0  0  0  0
   44.0990   30.9190   36.6590 H   0  0  0  0  0  0  0  0  0  0  0  0
   44.3590   33.1100   38.2390 H   0  0  0  0  0  0  0  0  0  0  0  0
   44.6250   31.4380   38.7210 H   0  0  0  0  0  0  0  0  0  0  0  0
   42.4880   31.0670   39.5700 H   0  0  0  0  0  0  0  0  0  0  0  0
   43.0410   32.6380   40.1950 H   0  0  0  0  0  0  0  0  0  0  0  0
   38.3460   27.1520   42.4350 O   0  0  0  0  0  0  0  0  0  0  0  0
   37.1410   25.1240   42.1790 C   0  0  0  0  0  3  0  0  0  0  0  0
   37.6770   26.2880   41.6170 C   0  0  0  0  0  0  0  0  0  0  0  0
   37.4890   26.4820   40.2640 C   0  0  0  0  0  0  0  0  0  0  0  0
   37.8840   27.3610   39.7950 H   0  0  0  0  0  0  0  0  0  0  0  0
   36.8060   25.5800   39.4800 C   0  0  0  0  0  0  0  0  0  0  0  0
   36.5060   25.5630   38.1600 N   0  0  0  0  0  0  0  0  0  0  0  0
   36.7470   26.2700   37.4380 H   0  0  0  0  0  0  0  0  0  0  0  0
   35.8190   24.4600   37.8770 N   0  0  0  0  0  0  0  0  0  0  0  0
   35.6550   23.7390   38.9870 C   0  0  0  0  0  0  0  0  0  0  0  0
   35.1450   22.7870   39.1230 H   0  0  0  0  0  0  0  0  0  0  0  0
   36.2670   24.4250   40.0050 C   0  0  0  0  0  0  0  0  0  0  0  0
   36.4590   24.2310   41.3730 C   0  0  0  0  0  3  0  0  0  0  0  0
  1  6  2  0  0  0  0
  1  2  1  0  0  0  0
  2  3  2  0  0  0  0
  3  4  1  0  0  0  0
  3 11  1  0  0  0  0
  4  9  1  0  0  0  0
  5  7  1  0  0  0  0
  5  4  2  0  0  0  0
  6  5  1  0  0  0  0
  7  8  1  0  0  0  0
  8  9  1  0  0  0  0
  8 13  1  1  0  0  0
 10  1  1  0  0  0  0
 12  6  1  0  0  0  0
 14 15  2  0  0  0  0
 14 19  1  0  0  0  0
 15 16  1  0  0  0  0
 16  2  1  0  0  0  0
 16 17  2  0  0  0  0
 18 17  1  0  0  0  0
 18 21  1  0  0  0  0
 19 18  2  0  0  0  0
 20 14  1  0  0  0  0
 22 27  1  0  0  0  0
 22 15  1  0  0  0  0
 23 29  1  0  0  0  0
 23 22  1  0  0  0  0
 24 25  1  0  0  0  0
 24 30  1  0  0  0  0
 24 23  1  0  0  0  0
 25 26  1  0  0  0  0
 26 34  1  0  0  0  0
 26 27  1  0  0  0  0
 27 35  1  0  0  0  0
 27 36  1  0  0  0  0
 28 23  1  0  0  0  0
 31 24  1  0  0  0  0
 32 25  1  0  0  0  0
 33 26  1  0  0  0  0
 37  8  1  0  0  0  0
 39 38  1  0  0  0  0
 39 37  1  0  0  0  0
 40 39  2  0  0  0  0
 41 40  1  0  0  0  0
 42 48  2  0  0  0  0
 42 40  1  0  0  0  0
 43 42  1  0  0  0  0
 44 43  1  0  0  0  0
 45 43  1  0  0  0  0
 45 46  2  0  0  0  0
 46 47  1  0  0  0  0
 46 48  1  0  0  0  0
 48 49  1  0  0  0  0
 49 38  2  0  0  0  0
M  END
>  <minimizedAffinity>
-7.04407263

$$$$

 OpenBabel03242523133D

 49 54  0  0  1  0  0  0  0  0999 V2000
   41.0100   35.5880   40.4140 C   0  0  0  0  0  0  0  0  0  0  0  0
   41.7220   34.4130   40.7420 C   0  0  0  0  0  0  0  0  0  0  0  0
   40.8970   33.3150   40.7170 C   0  0  0  0  0  0  0  0  0  0  0  0
   39.5700   33.3080   40.4260 C   0  0  0  0  0  0  0  0  0  0  0  0
   38.9450   34.5140   40.1170 C   0  0  0  0  0  0  0  0  0  0  0  0
   39.6780   35.6670   40.1110 C   0  0  0  0  0  0  0  0  0  0  0  0
   37.6220   34.1750   39.8820 O   0  0  0  0  0  0  0  0  0  0  0  0
   37.4460   32.7760   39.9890 C   0  0  2  0  0  0  0  0  0  0  0  0
   38.7030   32.2310   40.3840 O   0  0  0  0  0  0  0  0  0  0  0  0
   41.3760   36.6330   40.3320 H   0  0  0  0  0  0  0  0  0  0  0  0
   41.4030   32.4330   40.9570 H   0  0  0  0  0  0  0  0  0  0  0  0
   39.1000   36.5140   39.8620 H   0  0  0  0  0  0  0  0  0  0  0  0
   36.7360   32.4710   40.7750 H   0  0  0  0  0  0  0  0  0  0  0  0
   45.4430   34.6500   41.1080 C   0  0  0  0  0  0  0  0  0  0  0  0
   44.2450   34.2360   40.5230 C   0  0  0  0  0  0  0  0  0  0  0  0
   43.0620   34.6370   41.0650 C   0  0  0  0  0  0  0  0  0  0  0  0
   43.1230   35.4350   42.1750 N   0  0  0  0  0  0  0  0  0  0  0  0
   44.2720   35.8310   42.7340 C   0  0  0  0  0  0  0  0  0  0  0  0
   45.4100   35.4440   42.2070 N   0  0  0  0  0  0  0  0  0  0  0  0
   46.3860   34.3360   40.6820 H   0  0  0  0  0  0  0  0  0  0  0  0
   44.3910   36.4580   43.6050 H   0  0  0  0  0  0  0  0  0  0  0  0
   44.3340   33.3980   39.4130 N   0  0  0  0  0  0  0  0  0  0  0  0
   44.8320   32.0650   39.5150 C   0  0  0  0  0  0  0  0  0  0  0  0
   44.7040   31.2380   38.2730 C   0  0  0  0  0  0  0  0  0  0  0  0
   43.5090   31.4170   37.5600 N   0  0  0  0  0  0  0  0  0  0  0  0
   43.0560   32.7130   37.4310 C   0  0  0  0  0  0  0  0  0  0  0  0
   43.9700   33.7230   38.0920 C   0  0  0  0  0  0  0  0  0  0  0  0
   44.3890   31.4960   40.3710 H   0  0  0  0  0  0  0  0  0  0  0  0
   45.9140   32.1520   39.7530 H   0  0  0  0  0  0  0  0  0  0  0  0
   45.5760   31.4060   37.6100 H   0  0  0  0  0  0  0  0  0  0  0  0
   44.7730   30.1560   38.5740 H   0  0  0  0  0  0  0  0  0  0  0  0
   43.5200   30.8830   36.6860 H   0  0  0  0  0  0  0  0  0  0  0  0
   41.9910   32.8560   37.7500 H   0  0  0  0  0  0  0  0  0  0  0  0
   43.0330   32.9890   36.3370 H   0  0  0  0  0  0  0  0  0  0  0  0
   44.8980   33.8120   37.4640 H   0  0  0  0  0  0  0  0  0  0  0  0
   43.4840   34.7190   38.0480 H   0  0  0  0  0  0  0  0  0  0  0  0
   37.1350   32.3110   38.7000 O   0  0  0  0  0  0  0  0  0  0  0  0
   36.2090   30.1480   39.0070 C   0  0  0  0  0  3  0  0  0  0  0  0
   37.0230   31.0190   38.2750 C   0  0  0  0  0  0  0  0  0  0  0  0
   37.6620   30.5050   37.1640 C   0  0  0  0  0  0  0  0  0  0  0  0
   38.2940   31.1390   36.5770 H   0  0  0  0  0  0  0  0  0  0  0  0
   37.5180   29.1920   36.7760 C   0  0  0  0  0  0  0  0  0  0  0  0
   38.0360   28.4840   35.7450 N   0  0  0  0  0  0  0  0  0  0  0  0
   38.6820   28.8140   35.0010 H   0  0  0  0  0  0  0  0  0  0  0  0
   37.5900   27.2320   35.8000 N   0  0  0  0  0  0  0  0  0  0  0  0
   36.7820   27.0920   36.8510 C   0  0  0  0  0  0  0  0  0  0  0  0
   36.2450   26.2100   37.1960 H   0  0  0  0  0  0  0  0  0  0  0  0
   36.7220   28.3110   37.4780 C   0  0  0  0  0  0  0  0  0  0  0  0
   36.0780   28.8330   38.6000 C   0  0  0  0  0  3  0  0  0  0  0  0
  1  2  1  0  0  0  0
  2 16  1  0  0  0  0
  3  2  2  0  0  0  0
  3 11  1  0  0  0  0
  4  3  1  0  0  0  0
  5  4  2  0  0  0  0
  6  5  1  0  0  0  0
  6  1  2  0  0  0  0
  7  8  1  0  0  0  0
  7  5  1  0  0  0  0
  8  9  1  0  0  0  0
  8 13  1  1  0  0  0
  9  4  1  0  0  0  0
 10  1  1  0  0  0  0
 12  6  1  0  0  0  0
 14 19  1  0  0  0  0
 15 16  1  0  0  0  0
 15 14  2  0  0  0  0
 16 17  2  0  0  0  0
 17 18  1  0  0  0  0
 18 21  1  0  0  0  0
 19 18  2  0  0  0  0
 20 14  1  0  0  0  0
 22 23  1  0  0  0  0
 22 15  1  0  0  0  0
 23 29  1  0  0  0  0
 23 28  1  0  0  0  0
 24 31  1  0  0  0  0
 24 23  1  0  0  0  0
 25 24  1  0  0  0  0
 26 25  1  0  0  0  0
 26 33  1  0  0  0  0
 26 27  1  0  0  0  0
 27 22  1  0  0  0  0
 30 24  1  0  0  0  0
 32 25  1  0  0  0  0
 34 26  1  0  0  0  0
 35 27  1  0  0  0  0
 36 27  1  0  0  0  0
 37  8  1  0  0  0  0
 39 37  1  0  0  0  0
 39 38  2  0  0  0  0
 40 39  1  0  0  0  0
 41 40  1  0  0  0  0
 42 40  2  0  0  0  0
 42 48  1  0  0  0  0
 43 45  1  0  0  0  0
 43 42  1  0  0  0  0
 44 43  1  0  0  0  0
 45 46  2  0  0  0  0
 46 47  1  0  0  0  0
 46 48  1  0  0  0  0
 48 49  2  0  0  0  0
 49 38  1  0  0  0  0
M  END
>  <minimizedAffinity>
-6.99066305

$$$$

 OpenBabel03242523133D

 49 54  0  0  1  0  0  0  0  0999 V2000
   40.6040   29.3570   37.3530 C   0  0  0  0  0  0  0  0  0  0  0  0
   40.3290   30.6850   37.7440 C   0  0  0  0  0  0  0  0  0  0  0  0
   38.9760   30.9100   37.8050 C   0  0  0  0  0  0  0  0  0  0  0  0
   37.9950   30.0110   37.5310 C   0  0  0  0  0  0  0  0  0  0  0  0
   38.3550   28.7220   37.1470 C   0  0  0  0  0  0  0  0  0  0  0  0
   39.6780   28.3930   37.0590 C   0  0  0  0  0  0  0  0  0  0  0  0
   37.1510   28.0680   36.9380 O   0  0  0  0  0  0  0  0  0  0  0  0
   36.0670   28.9230   37.2410 C   0  0  2  0  0  0  0  0  0  0  0  0
   36.6240   30.1900   37.5810 O   0  0  0  0  0  0  0  0  0  0  0  0
   41.5830   28.8490   37.2210 H   0  0  0  0  0  0  0  0  0  0  0  0
   38.7480   31.8890   38.0920 H   0  0  0  0  0  0  0  0  0  0  0  0
   39.8280   27.3910   36.7620 H   0  0  0  0  0  0  0  0  0  0  0  0
   35.3960   29.1180   36.3890 H   0  0  0  0  0  0  0  0  0  0  0  0
   43.0650   33.0660   38.6860 C   0  0  0  0  0  0  0  0  0  0  0  0
   41.8000   32.4810   38.7720 C   0  0  0  0  0  0  0  0  0  0  0  0
   41.4720   31.4690   37.9240 C   0  0  0  0  0  0  0  0  0  0  0  0
   42.4210   31.0820   37.0170 N   0  0  0  0  0  0  0  0  0  0  0  0
   43.6320   31.6440   36.9350 C   0  0  0  0  0  0  0  0  0  0  0  0
   43.9450   32.6180   37.7570 N   0  0  0  0  0  0  0  0  0  0  0  0
   43.3320   33.8700   39.3580 H   0  0  0  0  0  0  0  0  0  0  0  0
   44.4240   31.3880   36.2480 H   0  0  0  0  0  0  0  0  0  0  0  0
   40.9230   32.9970   39.7250 N   0  0  0  0  0  0  0  0  0  0  0  0
   40.2950   34.2680   39.5590 C   0  0  0  0  0  0  0  0  0  0  0  0
   39.2520   34.6040   40.5790 C   0  0  0  0  0  0  0  0  0  0  0  0
   38.4300   33.5330   40.9640 N   0  0  0  0  0  0  0  0  0  0  0  0
   39.0510   32.3190   41.1630 C   0  0  0  0  0  0  0  0  0  0  0  0
   40.5460   32.3790   40.9330 C   0  0  0  0  0  0  0  0  0  0  0  0
   39.8560   34.4090   38.5390 H   0  0  0  0  0  0  0  0  0  0  0  0
   41.1020   35.0280   39.6360 H   0  0  0  0  0  0  0  0  0  0  0  0
   39.7240   35.0650   41.4700 H   0  0  0  0  0  0  0  0  0  0  0  0
   38.5980   35.4090   40.1470 H   0  0  0  0  0  0  0  0  0  0  0  0
   37.7930   33.8120   41.7170 H   0  0  0  0  0  0  0  0  0  0  0  0
   38.5850   31.4720   40.5950 H   0  0  0  0  0  0  0  0  0  0  0  0
   38.9180   32.0060   42.2390 H   0  0  0  0  0  0  0  0  0  0  0  0
   41.0060   32.9390   41.7930 H   0  0  0  0  0  0  0  0  0  0  0  0
   40.9530   31.3490   40.9960 H   0  0  0  0  0  0  0  0  0  0  0  0
   35.4370   28.3840   38.3770 O   0  0  0  0  0  0  0  0  0  0  0  0
   36.4800   26.7960   39.7980 C   0  0  0  0  0  3  0  0  0  0  0  0
   35.9930   28.0910   39.5880 C   0  0  0  0  0  0  0  0  0  0  0  0
   36.1090   28.9880   40.6310 C   0  0  0  0  0  0  0  0  0  0  0  0
   35.7480   29.9900   40.5100 H   0  0  0  0  0  0  0  0  0  0  0  0
   36.6770   28.6440   41.8360 C   0  0  0  0  0  0  0  0  0  0  0  0
   36.8930   29.3430   42.9750 N   0  0  0  0  0  0  0  0  0  0  0  0
   36.6570   30.3360   43.1730 H   0  0  0  0  0  0  0  0  0  0  0  0
   37.4820   28.5580   43.8720 N   0  0  0  0  0  0  0  0  0  0  0  0
   37.6640   27.3440   43.3500 C   0  0  0  0  0  0  0  0  0  0  0  0
   38.1140   26.4600   43.7990 H   0  0  0  0  0  0  0  0  0  0  0  0
   37.1660   27.3770   42.0720 C   0  0  0  0  0  0  0  0  0  0  0  0
   37.0470   26.4720   41.0170 C   0  0  0  0  0  3  0  0  0  0  0  0
  1  2  1  0  0  0  0
  2  3  2  0  0  0  0
  2 16  1  0  0  0  0
  3 11  1  0  0  0  0
  4  9  1  0  0  0  0
  4  3  1  0  0  0  0
  5  4  2  0  0  0  0
  6  5  1  0  0  0  0
  6  1  2  0  0  0  0
  7  5  1  0  0  0  0
  7  8  1  0  0  0  0
  8 13  1  6  0  0  0
  8  9  1  0  0  0  0
  8 37  1  0  0  0  0
 10  1  1  0  0  0  0
 12  6  1  0  0  0  0
 14 15  1  0  0  0  0
 14 20  1  0  0  0  0
 15 22  1  0  0  0  0
 16 15  2  0  0  0  0
 17 16  1  0  0  0  0
 18 17  2  0  0  0  0
 18 19  1  0  0  0  0
 19 14  2  0  0  0  0
 21 18  1  0  0  0  0
 22 27  1  0  0  0  0
 23 29  1  0  0  0  0
 23 22  1  0  0  0  0
 23 24  1  0  0  0  0
 24 25  1  0  0  0  0
 24 30  1  0  0  0  0
 25 26  1  0  0  0  0
 25 32  1  0  0  0  0
 26 34  1  0  0  0  0
 27 36  1  0  0  0  0
 27 26  1  0  0  0  0
 27 35  1  0  0  0  0
 28 23  1  0  0  0  0
 31 24  1  0  0  0  0
 33 26  1  0  0  0  0
 37 39  1  0  0  0  0
 38 49  1  0  0  0  0
 39 38  2  0  0  0  0
 39 40  1  0  0  0  0
 40 42  2  0  0  0  0
 41 40  1  0  0  0  0
 42 48  1  0  0  0  0
 42 43  1  0  0  0  0
 43 44  1  0  0  0  0
 43 45  1  0  0  0  0
 46 47  1  0  0  0  0
 46 45  2  0  0  0  0
 48 46  1  0  0  0  0
 49 48  2  0  0  0  0
M  END
>  <minimizedAffinity>
-6.95248842

$$$$

 OpenBabel03242523133D

 49 54  0  0  1  0  0  0  0  0999 V2000
   36.4390   26.9910   39.0750 C   0  0  0  0  0  0  0  0  0  0  0  0
   36.4720   28.3640   39.4010 C   0  0  0  0  0  0  0  0  0  0  0  0
   36.0670   29.1320   38.3380 C   0  0  0  0  0  0  0  0  0  0  0  0
   35.6820   28.6810   37.1160 C   0  0  0  0  0  0  0  0  0  0  0  0
   35.6830   27.3090   36.8770 C   0  0  0  0  0  0  0  0  0  0  0  0
   36.0670   26.4550   37.8720 C   0  0  0  0  0  0  0  0  0  0  0  0
   35.2560   27.1800   35.5650 O   0  0  0  0  0  0  0  0  0  0  0  0
   34.9430   28.4470   35.0210 C   0  0  2  0  0  0  0  0  0  0  0  0
   35.2640   29.4140   36.0190 O   0  0  0  0  0  0  0  0  0  0  0  0
   36.6900   26.1110   39.7040 H   0  0  0  0  0  0  0  0  0  0  0  0
   36.0840   30.1550   38.5560 H   0  0  0  0  0  0  0  0  0  0  0  0
   36.0260   25.4430   37.5760 H   0  0  0  0  0  0  0  0  0  0  0  0
   35.5490   28.7220   34.1430 H   0  0  0  0  0  0  0  0  0  0  0  0
   37.9710   29.6110   42.6010 C   0  0  0  0  0  0  0  0  0  0  0  0
   37.6370   29.6620   41.2460 C   0  0  0  0  0  0  0  0  0  0  0  0
   36.9520   28.6280   40.6870 C   0  0  0  0  0  0  0  0  0  0  0  0
   36.6290   27.5790   41.5040 N   0  0  0  0  0  0  0  0  0  0  0  0
   36.9500   27.5310   42.8010 C   0  0  0  0  0  0  0  0  0  0  0  0
   37.6090   28.5310   43.3380 N   0  0  0  0  0  0  0  0  0  0  0  0
   38.5150   30.4300   43.0520 H   0  0  0  0  0  0  0  0  0  0  0  0
   36.7270   26.7380   43.4990 H   0  0  0  0  0  0  0  0  0  0  0  0
   38.0570   30.7810   40.5280 N   0  0  0  0  0  0  0  0  0  0  0  0
   39.2510   30.7680   39.7480 C   0  0  0  0  0  0  0  0  0  0  0  0
   39.4750   31.9830   38.9020 C   0  0  0  0  0  0  0  0  0  0  0  0
   38.3220   32.5040   38.2930 N   0  0  0  0  0  0  0  0  0  0  0  0
   37.1820   32.5500   39.0670 C   0  0  0  0  0  0  0  0  0  0  0  0
   37.4050   32.0270   40.4710 C   0  0  0  0  0  0  0  0  0  0  0  0
   39.3420   29.8600   39.1000 H   0  0  0  0  0  0  0  0  0  0  0  0
   40.0950   30.6970   40.4680 H   0  0  0  0  0  0  0  0  0  0  0  0
   39.9860   32.7700   39.4900 H   0  0  0  0  0  0  0  0  0  0  0  0
   40.2030   31.7060   38.0910 H   0  0  0  0  0  0  0  0  0  0  0  0
   38.5320   33.3740   37.7940 H   0  0  0  0  0  0  0  0  0  0  0  0
   36.2890   32.0700   38.5900 H   0  0  0  0  0  0  0  0  0  0  0  0
   36.8600   33.6250   39.1870 H   0  0  0  0  0  0  0  0  0  0  0  0
   38.0130   32.7890   41.0310 H   0  0  0  0  0  0  0  0  0  0  0  0
   36.4250   31.9870   40.9900 H   0  0  0  0  0  0  0  0  0  0  0  0
   33.5540   28.4590   34.8080 O   0  0  0  0  0  0  0  0  0  0  0  0
   32.1370   30.3610   34.7170 C   0  0  0  0  0  3  0  0  0  0  0  0
   32.6160   29.2450   35.4130 C   0  0  0  0  0  0  0  0  0  0  0  0
   32.1020   29.0160   36.6730 C   0  0  0  0  0  0  0  0  0  0  0  0
   32.4420   28.1720   37.2380 H   0  0  0  0  0  0  0  0  0  0  0  0
   31.1560   29.8390   37.2420 C   0  0  0  0  0  0  0  0  0  0  0  0
   30.5220   29.8090   38.4370 N   0  0  0  0  0  0  0  0  0  0  0  0
   30.6330   29.1180   39.2050 H   0  0  0  0  0  0  0  0  0  0  0  0
   29.6840   30.8390   38.5190 N   0  0  0  0  0  0  0  0  0  0  0  0
   29.7470   31.5560   37.3970 C   0  0  0  0  0  0  0  0  0  0  0  0
   29.2030   32.4580   37.1220 H   0  0  0  0  0  0  0  0  0  0  0  0
   30.6650   30.9450   36.5800 C   0  0  0  0  0  0  0  0  0  0  0  0
   31.1870   31.1750   35.3080 C   0  0  0  0  0  3  0  0  0  0  0  0
  1  2  1  0  0  0  0
  1 10  1  0  0  0  0
  2 16  1  0  0  0  0
  3 11  1  0  0  0  0
  3  2  2  0  0  0  0
  4  3  1  0  0  0  0
  5  4  2  0  0  0  0
  5  6  1  0  0  0  0
  6  1  2  0  0  0  0
  7  5  1  0  0  0  0
  8 13  1  6  0  0  0
  8  7  1  0  0  0  0
  8  9  1  0  0  0  0
  9  4  1  0  0  0  0
 12  6  1  0  0  0  0
 14 20  1  0  0  0  0
 14 19  1  0  0  0  0
 15 14  2  0  0  0  0
 16 15  1  0  0  0  0
 16 17  2  0  0  0  0
 17 18  1  0  0  0  0
 18 19  2  0  0  0  0
 18 21  1  0  0  0  0
 22 15  1  0  0  0  0
 23 29  1  0  0  0  0
 23 22  1  0  0  0  0
 24 30  1  0  0  0  0
 24 23  1  0  0  0  0
 25 24  1  0  0  0  0
 25 26  1  0  0  0  0
 26 34  1  0  0  0  0
 26 27  1  0  0  0  0
 27 22  1  0  0  0  0
 27 36  1  0  0  0  0
 27 35  1  0  0  0  0
 28 23  1  0  0  0  0
 31 24  1  0  0  0  0
 32 25  1  0  0  0  0
 33 26  1  0  0  0  0
 37  8  1  0  0  0  0
 37 39  1  0  0  0  0
 38 49  2  0  0  0  0
 38 39  1  0  0  0  0
 39 40  2  0  0  0  0
 40 41  1  0  0  0  0
 40 42  1  0  0  0  0
 42 43  1  0  0  0  0
 43 45  1  0  0  0  0
 43 44  1  0  0  0  0
 46 45  2  0  0  0  0
 47 46  1  0  0  0  0
 48 42  2  0  0  0  0
 48 46  1  0  0  0  0
 49 48  1  0  0  0  0
M  END
>  <minimizedAffinity>
-6.83919907

$$$$

 OpenBabel03242523133D

 49 54  0  0  1  0  0  0  0  0999 V2000
   41.9670   29.5320   41.0170 C   0  0  0  0  0  0  0  0  0  0  0  0
   41.2670   29.5790   42.2420 C   0  0  0  0  0  0  0  0  0  0  0  0
   40.4840   30.7050   42.3180 C   0  0  0  0  0  0  0  0  0  0  0  0
   40.3670   31.6730   41.3720 C   0  0  0  0  0  0  0  0  0  0  0  0
   41.0980   31.5490   40.1930 C   0  0  0  0  0  0  0  0  0  0  0  0
   41.9070   30.4630   40.0160 C   0  0  0  0  0  0  0  0  0  0  0  0
   40.7700   32.6770   39.4560 O   0  0  0  0  0  0  0  0  0  0  0  0
   39.8110   33.4540   40.1450 C   0  0  2  0  0  0  0  0  0  0  0  0
   39.5910   32.8180   41.4020 O   0  0  0  0  0  0  0  0  0  0  0  0
   42.6680   28.7600   40.6350 H   0  0  0  0  0  0  0  0  0  0  0  0
   39.9560   30.7610   43.2180 H   0  0  0  0  0  0  0  0  0  0  0  0
   42.4070   30.4770   39.0860 H   0  0  0  0  0  0  0  0  0  0  0  0
   40.1500   34.4730   40.3900 H   0  0  0  0  0  0  0  0  0  0  0  0
   41.5020   26.5190   44.3910 C   0  0  0  0  0  0  0  0  0  0  0  0
   40.9020   27.3960   43.4850 C   0  0  0  0  0  0  0  0  0  0  0  0
   41.5660   28.5220   43.1040 C   0  0  0  0  0  0  0  0  0  0  0  0
   42.8050   28.7290   43.6470 N   0  0  0  0  0  0  0  0  0  0  0  0
   43.3770   27.8890   44.5150 C   0  0  0  0  0  0  0  0  0  0  0  0
   42.7350   26.8030   44.8790 N   0  0  0  0  0  0  0  0  0  0  0  0
   40.9800   25.6230   44.6980 H   0  0  0  0  0  0  0  0  0  0  0  0
   44.3470   27.9910   44.9790 H   0  0  0  0  0  0  0  0  0  0  0  0
   39.6220   27.0720   43.0370 N   0  0  0  0  0  0  0  0  0  0  0  0
   38.4570   27.3900   43.7960 C   0  0  0  0  0  0  0  0  0  0  0  0
   37.1540   27.1330   43.1040 C   0  0  0  0  0  0  0  0  0  0  0  0
   37.1320   27.4580   41.7380 N   0  0  0  0  0  0  0  0  0  0  0  0
   38.2460   27.1110   41.0040 C   0  0  0  0  0  0  0  0  0  0  0  0
   39.3030   26.4140   41.8340 C   0  0  0  0  0  0  0  0  0  0  0  0
   38.4570   28.4410   44.1800 H   0  0  0  0  0  0  0  0  0  0  0  0
   38.4900   26.7490   44.7030 H   0  0  0  0  0  0  0  0  0  0  0  0
   36.8430   26.0810   43.2530 H   0  0  0  0  0  0  0  0  0  0  0  0
   36.3660   27.7460   43.6210 H   0  0  0  0  0  0  0  0  0  0  0  0
   36.2410   27.1880   41.3110 H   0  0  0  0  0  0  0  0  0  0  0  0
   38.6830   27.9580   40.4140 H   0  0  0  0  0  0  0  0  0  0  0  0
   37.9460   26.3720   40.2040 H   0  0  0  0  0  0  0  0  0  0  0  0
   38.9320   25.3780   42.0660 H   0  0  0  0  0  0  0  0  0  0  0  0
   40.2060   26.2740   41.2060 H   0  0  0  0  0  0  0  0  0  0  0  0
   38.6270   33.3910   39.3910 O   0  0  0  0  0  0  0  0  0  0  0  0
   37.7140   31.7380   37.9540 C   0  0  0  0  0  3  0  0  0  0  0  0
   37.7920   32.3250   39.2220 C   0  0  0  0  0  0  0  0  0  0  0  0
   37.0110   31.7790   40.2210 C   0  0  0  0  0  0  0  0  0  0  0  0
   37.0420   32.1990   41.2060 H   0  0  0  0  0  0  0  0  0  0  0  0
   36.1830   30.7020   40.0010 C   0  0  0  0  0  0  0  0  0  0  0  0
   35.3450   30.0150   40.8120 N   0  0  0  0  0  0  0  0  0  0  0  0
   35.1530   30.1760   41.8210 H   0  0  0  0  0  0  0  0  0  0  0  0
   34.7580   29.0420   40.1210 N   0  0  0  0  0  0  0  0  0  0  0  0
   35.1900   29.0690   38.8600 C   0  0  0  0  0  0  0  0  0  0  0  0
   34.9220   28.4230   38.0250 H   0  0  0  0  0  0  0  0  0  0  0  0
   36.0850   30.1030   38.7620 C   0  0  0  0  0  0  0  0  0  0  0  0
   36.8750   30.6570   37.7550 C   0  0  0  0  0  3  0  0  0  0  0  0
  1  2  1  0  0  0  0
  2  3  2  0  0  0  0
  2 16  1  0  0  0  0
  3 11  1  0  0  0  0
  4  9  1  0  0  0  0
  4  3  1  0  0  0  0
  5  4  2  0  0  0  0
  6  5  1  0  0  0  0
  6  1  2  0  0  0  0
  7  8  1  0  0  0  0
  7  5  1  0  0  0  0
  8 13  1  1  0  0  0
  8  9  1  0  0  0  0
 10  1  1  0  0  0  0
 12  6  1  0  0  0  0
 14 20  1  0  0  0  0
 14 19  1  0  0  0  0
 15 14  2  0  0  0  0
 16 15  1  0  0  0  0
 16 17  2  0  0  0  0
 17 18  1  0  0  0  0
 18 19  2  0  0  0  0
 18 21  1  0  0  0  0
 22 15  1  0  0  0  0
 22 23  1  0  0  0  0
 23 28  1  0  0  0  0
 23 29  1  0  0  0  0
 24 30  1  0  0  0  0
 24 31  1  0  0  0  0
 24 23  1  0  0  0  0
 25 24  1  0  0  0  0
 26 25  1  0  0  0  0
 26 27  1  0  0  0  0
 27 35  1  0  0  0  0
 27 22  1  0  0  0  0
 32 25  1  0  0  0  0
 33 26  1  0  0  0  0
 34 26  1  0  0  0  0
 36 27  1  0  0  0  0
 37  8  1  0  0  0  0
 38 39  1  0  0  0  0
 39 37  1  0  0  0  0
 39 40  2  0  0  0  0
 40 41  1  0  0  0  0
 42 40  1  0  0  0  0
 42 43  1  0  0  0  0
 43 44  1  0  0  0  0
 45 43  1  0  0  0  0
 46 45  2  0  0  0  0
 47 46  1  0  0  0  0
 48 46  1  0  0  0  0
 48 42  2  0  0  0  0
 49 38  2  0  0  0  0
 49 48  1  0  0  0  0
M  END
>  <minimizedAffinity>
-6.75973558

$$$$

 OpenBabel03242523133D

 49 54  0  0  1  0  0  0  0  0999 V2000
   36.1230   29.4470   40.6730 C   0  0  0  0  0  0  0  0  0  0  0  0
   36.9720   28.7990   39.7510 C   0  0  0  0  0  0  0  0  0  0  0  0
   37.8630   29.6840   39.1960 C   0  0  0  0  0  0  0  0  0  0  0  0
   37.9540   31.0130   39.4630 C   0  0  0  0  0  0  0  0  0  0  0  0
   37.0730   31.5730   40.3850 C   0  0  0  0  0  0  0  0  0  0  0  0
   36.1480   30.7770   40.9970 C   0  0  0  0  0  0  0  0  0  0  0  0
   37.4140   32.9160   40.4250 O   0  0  0  0  0  0  0  0  0  0  0  0
   38.5220   33.1690   39.5840 C   0  0  2  0  0  0  0  0  0  0  0  0
   38.8350   31.9400   38.9340 O   0  0  0  0  0  0  0  0  0  0  0  0
   35.3090   29.0250   41.3000 H   0  0  0  0  0  0  0  0  0  0  0  0
   38.5030   29.2250   38.5070 H   0  0  0  0  0  0  0  0  0  0  0  0
   35.5390   31.3100   41.6750 H   0  0  0  0  0  0  0  0  0  0  0  0
   38.3160   33.8840   38.7720 H   0  0  0  0  0  0  0  0  0  0  0  0
   36.4900   25.0840   39.8270 C   0  0  0  0  0  0  0  0  0  0  0  0
   36.9290   26.3210   40.3020 C   0  0  0  0  0  0  0  0  0  0  0  0
   36.6830   27.4430   39.5730 C   0  0  0  0  0  0  0  0  0  0  0  0
   36.0080   27.2860   38.3930 N   0  0  0  0  0  0  0  0  0  0  0  0
   35.5880   26.1000   37.9390 C   0  0  0  0  0  0  0  0  0  0  0  0
   35.8260   25.0200   38.6450 N   0  0  0  0  0  0  0  0  0  0  0  0
   36.6820   24.1880   40.4010 H   0  0  0  0  0  0  0  0  0  0  0  0
   35.0520   25.9060   37.0210 H   0  0  0  0  0  0  0  0  0  0  0  0
   37.6320   26.3280   41.5060 N   0  0  0  0  0  0  0  0  0  0  0  0
   39.0190   26.0040   41.5690 C   0  0  0  0  0  0  0  0  0  0  0  0
   39.6670   26.2240   42.9010 C   0  0  0  0  0  0  0  0  0  0  0  0
   39.2520   27.3800   43.5810 N   0  0  0  0  0  0  0  0  0  0  0  0
   37.9030   27.6630   43.5490 C   0  0  0  0  0  0  0  0  0  0  0  0
   37.1050   26.6350   42.7760 C   0  0  0  0  0  0  0  0  0  0  0  0
   39.6270   26.5250   40.7860 H   0  0  0  0  0  0  0  0  0  0  0  0
   39.1000   24.9220   41.3280 H   0  0  0  0  0  0  0  0  0  0  0  0
   39.5320   25.3310   43.5440 H   0  0  0  0  0  0  0  0  0  0  0  0
   40.7770   26.2970   42.7340 H   0  0  0  0  0  0  0  0  0  0  0  0
   39.6740   27.4280   44.5140 H   0  0  0  0  0  0  0  0  0  0  0  0
   37.6650   28.7040   43.2090 H   0  0  0  0  0  0  0  0  0  0  0  0
   37.4960   27.6400   44.6020 H   0  0  0  0  0  0  0  0  0  0  0  0
   37.0600   25.6960   43.3930 H   0  0  0  0  0  0  0  0  0  0  0  0
   36.0580   26.9900   42.6960 H   0  0  0  0  0  0  0  0  0  0  0  0
   39.5910   33.5220   40.4250 O   0  0  0  0  0  0  0  0  0  0  0  0
   41.6540   32.4350   40.8650 C   0  0  0  0  0  3  0  0  0  0  0  0
   40.9290   33.4140   40.1770 C   0  0  0  0  0  0  0  0  0  0  0  0
   41.6240   34.2100   39.2880 C   0  0  0  0  0  0  0  0  0  0  0  0
   41.1060   34.9710   38.7420 H   0  0  0  0  0  0  0  0  0  0  0  0
   42.9760   34.0620   39.0730 C   0  0  0  0  0  0  0  0  0  0  0  0
   43.8470   34.7130   38.2670 N   0  0  0  0  0  0  0  0  0  0  0  0
   43.6530   35.4990   37.6150 H   0  0  0  0  0  0  0  0  0  0  0  0
   45.0620   34.1940   38.4180 N   0  0  0  0  0  0  0  0  0  0  0  0
   45.0170   33.2060   39.3110 C   0  0  0  0  0  0  0  0  0  0  0  0
   45.8200   32.5670   39.6750 H   0  0  0  0  0  0  0  0  0  0  0  0
   43.7160   33.1050   39.7350 C   0  0  0  0  0  0  0  0  0  0  0  0
   43.0110   32.3040   40.6330 C   0  0  0  0  0  3  0  0  0  0  0  0
  1  6  1  0  0  0  0
  1 10  1  0  0  0  0
  2  1  2  0  0  0  0
  3  4  2  0  0  0  0
  3  2  1  0  0  0  0
  4  5  1  0  0  0  0
  5  7  1  0  0  0  0
  5  6  2  0  0  0  0
  6 12  1  0  0  0  0
  8 13  1  6  0  0  0
  8  7  1  0  0  0  0
  8 37  1  0  0  0  0
  9  4  1  0  0  0  0
  9  8  1  0  0  0  0
 11  3  1  0  0  0  0
 14 15  1  0  0  0  0
 14 20  1  0  0  0  0
 15 22  1  0  0  0  0
 16  2  1  0  0  0  0
 16 15  2  0  0  0  0
 17 16  1  0  0  0  0
 18 17  2  0  0  0  0
 18 19  1  0  0  0  0
 19 14  2  0  0  0  0
 21 18  1  0  0  0  0
 22 23  1  0  0  0  0
 22 27  1  0  0  0  0
 23 24  1  0  0  0  0
 24 30  1  0  0  0  0
 24 25  1  0  0  0  0
 25 32  1  0  0  0  0
 26 25  1  0  0  0  0
 26 34  1  0  0  0  0
 27 35  1  0  0  0  0
 27 26  1  0  0  0  0
 28 23  1  0  0  0  0
 29 23  1  0  0  0  0
 31 24  1  0  0  0  0
 33 26  1  0  0  0  0
 36 27  1  0  0  0  0
 39 37  1  0  0  0  0
 39 38  2  0  0  0  0
 40 39  1  0  0  0  0
 41 40  1  0  0  0  0
 42 40  2  0  0  0  0
 42 48  1  0  0  0  0
 43 45  1  0  0  0  0
 43 42  1  0  0  0  0
 44 43  1  0  0  0  0
 45 46  2  0  0  0  0
 46 47  1  0  0  0  0
 46 48  1  0  0  0  0
 48 49  2  0  0  0  0
 49 38  1  0  0  0  0
M  END
>  <minimizedAffinity>
-6.62963247

$$$$

 OpenBabel03242523133D

 49 54  0  0  1  0  0  0  0  0999 V2000
   38.7820   28.8840   42.9040 C   0  0  0  0  0  0  0  0  0  0  0  0
   39.3750   28.0250   41.9540 C   0  0  0  0  0  0  0  0  0  0  0  0
   38.8640   28.2500   40.7000 C   0  0  0  0  0  0  0  0  0  0  0  0
   37.9130   29.1630   40.3670 C   0  0  0  0  0  0  0  0  0  0  0  0
   37.3780   29.9680   41.3680 C   0  0  0  0  0  0  0  0  0  0  0  0
   37.8210   29.8250   42.6530 C   0  0  0  0  0  0  0  0  0  0  0  0
   36.4500   30.7670   40.7180 O   0  0  0  0  0  0  0  0  0  0  0  0
   36.4540   30.4980   39.3310 C   0  0  2  0  0  0  0  0  0  0  0  0
   37.3720   29.4280   39.1210 O   0  0  0  0  0  0  0  0  0  0  0  0
   38.9750   28.9710   43.9940 H   0  0  0  0  0  0  0  0  0  0  0  0
   39.2880   27.6240   39.9790 H   0  0  0  0  0  0  0  0  0  0  0  0
   37.3460   30.4890   43.3220 H   0  0  0  0  0  0  0  0  0  0  0  0
   35.4890   30.1350   38.9410 H   0  0  0  0  0  0  0  0  0  0  0  0
   41.5000   25.1610   43.1040 C   0  0  0  0  0  0  0  0  0  0  0  0
   40.4560   25.7730   42.4070 C   0  0  0  0  0  0  0  0  0  0  0  0
   40.2870   27.1200   42.5030 C   0  0  0  0  0  0  0  0  0  0  0  0
   41.1680   27.8050   43.2960 N   0  0  0  0  0  0  0  0  0  0  0  0
   42.1660   27.2170   43.9630 C   0  0  0  0  0  0  0  0  0  0  0  0
   42.3270   25.9180   43.8670 N   0  0  0  0  0  0  0  0  0  0  0  0
   41.6400   24.0910   43.0320 H   0  0  0  0  0  0  0  0  0  0  0  0
   42.8930   27.6960   44.6020 H   0  0  0  0  0  0  0  0  0  0  0  0
   39.6170   24.9460   41.6610 N   0  0  0  0  0  0  0  0  0  0  0  0
   38.4300   24.3820   42.2150 C   0  0  0  0  0  0  0  0  0  0  0  0
   37.5500   23.6610   41.2420 C   0  0  0  0  0  0  0  0  0  0  0  0
   37.4390   24.2660   39.9800 N   0  0  0  0  0  0  0  0  0  0  0  0
   38.5990   24.7710   39.4340 C   0  0  0  0  0  0  0  0  0  0  0  0
   39.8070   24.5590   40.3210 C   0  0  0  0  0  0  0  0  0  0  0  0
   37.8100   25.1290   42.7730 H   0  0  0  0  0  0  0  0  0  0  0  0
   38.7600   23.6490   42.9820 H   0  0  0  0  0  0  0  0  0  0  0  0
   37.8800   22.6090   41.1360 H   0  0  0  0  0  0  0  0  0  0  0  0
   36.5210   23.5990   41.6920 H   0  0  0  0  0  0  0  0  0  0  0  0
   36.8870   23.6830   39.3420 H   0  0  0  0  0  0  0  0  0  0  0  0
   38.5180   25.8400   39.1040 H   0  0  0  0  0  0  0  0  0  0  0  0
   38.8230   24.2250   38.4720 H   0  0  0  0  0  0  0  0  0  0  0  0
   40.0730   23.4670   40.2860 H   0  0  0  0  0  0  0  0  0  0  0  0
   40.6700   25.0910   39.8720 H   0  0  0  0  0  0  0  0  0  0  0  0
   36.9490   31.6520   38.6990 O   0  0  0  0  0  0  0  0  0  0  0  0
   37.4980   33.7180   39.7280 C   0  0  0  0  0  3  0  0  0  0  0  0
   37.9080   32.5120   39.1500 C   0  0  0  0  0  0  0  0  0  0  0  0
   39.2660   32.2760   39.0740 C   0  0  0  0  0  0  0  0  0  0  0  0
   39.6210   31.3640   38.6380 H   0  0  0  0  0  0  0  0  0  0  0  0
   40.1960   33.1760   39.5420 C   0  0  0  0  0  0  0  0  0  0  0  0
   41.5490   33.1570   39.5730 N   0  0  0  0  0  0  0  0  0  0  0  0
   42.1880   32.4130   39.2280 H   0  0  0  0  0  0  0  0  0  0  0  0
   41.9950   34.2770   40.1340 N   0  0  0  0  0  0  0  0  0  0  0  0
   40.9610   35.0450   40.4800 C   0  0  0  0  0  0  0  0  0  0  0  0
   40.9570   36.0230   40.9590 H   0  0  0  0  0  0  0  0  0  0  0  0
   39.8220   34.3720   40.1170 C   0  0  0  0  0  0  0  0  0  0  0  0
   38.4490   34.6090   40.1920 C   0  0  0  0  0  3  0  0  0  0  0  0
  1 10  1  0  0  0  0
  2 16  1  0  0  0  0
  2  1  2  0  0  0  0
  3  2  1  0  0  0  0
  4  3  2  0  0  0  0
  4  5  1  0  0  0  0
  5  6  2  0  0  0  0
  6  1  1  0  0  0  0
  6 12  1  0  0  0  0
  7  5  1  0  0  0  0
  8 13  1  6  0  0  0
  8  7  1  0  0  0  0
  9  8  1  0  0  0  0
  9  4  1  0  0  0  0
 11  3  1  0  0  0  0
 14 19  1  0  0  0  0
 15 16  1  0  0  0  0
 15 14  2  0  0  0  0
 16 17  2  0  0  0  0
 17 18  1  0  0  0  0
 18 21  1  0  0  0  0
 19 18  2  0  0  0  0
 20 14  1  0  0  0  0
 22 23  1  0  0  0  0
 22 15  1  0  0  0  0
 23 28  1  0  0  0  0
 23 29  1  0  0  0  0
 24 31  1  0  0  0  0
 24 23  1  0  0  0  0
 25 24  1  0  0  0  0
 26 25  1  0  0  0  0
 26 27  1  0  0  0  0
 27 22  1  0  0  0  0
 30 24  1  0  0  0  0
 32 25  1  0  0  0  0
 33 26  1  0  0  0  0
 34 26  1  0  0  0  0
 35 27  1  0  0  0  0
 36 27  1  0  0  0  0
 37 39  1  0  0  0  0
 37  8  1  0  0  0  0
 38 49  1  0  0  0  0
 39 38  2  0  0  0  0
 40 39  1  0  0  0  0
 40 42  2  0  0  0  0
 41 40  1  0  0  0  0
 42 43  1  0  0  0  0
 42 48  1  0  0  0  0
 43 45  1  0  0  0  0
 44 43  1  0  0  0  0
 45 46  2  0  0  0  0
 46 47  1  0  0  0  0
 48 49  2  0  0  0  0
 48 46  1  0  0  0  0
M  END
>  <minimizedAffinity>
-6.62596369

$$$$
