REMARK  Name = 
REMARK  6 active torsions:
REMARK  status: ('A' for Active; 'I' for Inactive)
REMARK    1  A    between atoms: C_1  and  C_11
REMARK    2  A    between atoms: C_5  and  C_7
REMARK    3  A    between atoms: C_9  and  N_10
REMARK    4  A    between atoms: C_11  and  C_14
REMARK    5  A    between atoms: C_13  and  S_19
REMARK    6  A    between atoms: S_19  and  C_35
REMARK                            x       y       z     vdW  Elec       q    Type
REMARK                         _______ _______ _______ _____ _____    ______ ____
ROOT
ATOM      1  C   UNL     1      41.987  33.315  41.319  0.00  0.00    +0.000 A 
ATOM      2  C   UNL     1      42.810  34.403  41.315  0.00  0.00    +0.000 A 
ATOM      3  C   UNL     1      42.233  35.663  41.063  0.00  0.00    +0.000 A 
ATOM      4  C   UNL     1      40.894  35.847  40.825  0.00  0.00    +0.000 A 
ATOM      5  C   UNL     1      40.075  34.751  40.831  0.00  0.00    +0.000 A 
ATOM      6  C   UNL     1      40.623  33.525  41.073  0.00  0.00    +0.000 A 
ATOM      7  H   UNL     1      42.809  36.581  41.032  0.00  0.00    +0.000 HD
ATOM      8  H   UNL     1      40.468  36.812  40.634  0.00  0.00    +0.000 HD
ATOM      9  H   UNL     1      39.025  34.798  40.656  0.00  0.00    +0.000 HD
ATOM     10  H   UNL     1      39.968  32.639  41.079  0.00  0.00    +0.000 HD
ENDROOT
BRANCH   1  11
ATOM     11  S   UNL     1      42.552  31.760  41.645  0.00  0.00    +0.000 S 
ATOM     12  O   UNL     1      42.390  31.075  40.273  0.00  0.00    +0.000 OA
ATOM     13  O   UNL     1      41.632  31.044  42.620  0.00  0.00    +0.000 OA
BRANCH  11  15
ATOM     14  C   UNL     1      44.782  31.335  43.004  0.00  0.00    +0.000 A 
ATOM     15  C   UNL     1      44.070  31.114  41.796  0.00  0.00    +0.000 A 
ATOM     16  C   UNL     1      44.819  30.299  40.910  0.00  0.00    +0.000 A 
ATOM     17  H   UNL     1      44.253  30.120  39.975  0.00  0.00    +0.000 HD
ATOM     18  C   UNL     1      46.061  29.718  41.028  0.00  0.00    +0.000 A 
ATOM     19  N   UNL     1      46.870  28.961  40.321  0.00  0.00    +0.000 N 
ATOM     20  H   UNL     1      46.621  28.627  39.365  0.00  0.00    +0.000 HD
ATOM     21  N   UNL     1      47.935  28.781  41.076  0.00  0.00    +0.000 NA
ATOM     22  C   UNL     1      47.830  29.407  42.260  0.00  0.00    +0.000 A 
ATOM     23  H   UNL     1      48.565  29.415  43.055  0.00  0.00    +0.000 HD
ATOM     24  C   UNL     1      46.588  30.037  42.246  0.00  0.00    +0.000 A 
ATOM     25  C   UNL     1      46.025  30.801  43.226  0.00  0.00    +0.000 A 
ENDBRANCH  11  15
ENDBRANCH   1  11
BRANCH   2  26
ATOM     26  C   UNL     1      44.243  34.311  41.550  0.00  0.00    +0.000 C 
ATOM     27  O   UNL     1      45.116  34.148  40.634  0.00  0.00    +0.000 OA
BRANCH  26  28
ATOM     28  C   UNL     1      44.591  34.426  42.936  0.00  0.00    +0.000 A 
ATOM     29  C   UNL     1      44.305  35.690  43.551  0.00  0.00    +0.000 A 
ATOM     30  C   UNL     1      44.626  35.813  44.895  0.00  0.00    +0.000 A 
ATOM     31  N   UNL     1      45.181  34.750  45.533  0.00  0.00    +0.000 NA
ATOM     32  C   UNL     1      45.435  33.560  44.899  0.00  0.00    +0.000 A 
ATOM     33  N   UNL     1      45.136  33.451  43.654  0.00  0.00    +0.000 NA
ATOM     34  H   UNL     1      43.877  36.566  43.126  0.00  0.00    +0.000 HD
ATOM     35  H   UNL     1      44.466  36.698  45.474  0.00  0.00    +0.000 HD
BRANCH  32  36
ATOM     36  C   UNL     1      46.033  32.462  45.676  0.00  0.00    +0.000 C 
ATOM     37  C   UNL     1      46.961  32.797  46.828  0.00  0.00    +0.000 C 
ATOM     38  C   UNL     1      45.549  32.350  47.079  0.00  0.00    +0.000 C 
ATOM     39  H   UNL     1      46.283  31.535  45.169  0.00  0.00    +0.000 HD
ATOM     40  H   UNL     1      47.255  33.856  46.891  0.00  0.00    +0.000 HD
ATOM     41  H   UNL     1      47.772  32.103  47.091  0.00  0.00    +0.000 HD
ATOM     42  H   UNL     1      45.440  31.378  47.587  0.00  0.00    +0.000 HD
BRANCH  38  43
ATOM     43  N   UNL     1      44.750  33.422  47.654  0.00  0.00    +0.000 NA
ATOM     44  H   UNL     1      44.819  33.441  48.696  0.00  0.00    +0.000 HD
ATOM     45  H   UNL     1      43.743  33.146  47.469  0.00  0.00    +0.000 HD
ENDBRANCH  38  43
ENDBRANCH  32  36
ENDBRANCH  26  28
ENDBRANCH   2  26
TORSDOF 6
