
     RDKit          3D

 37 40  0  0  0  0  0  0  0  0999 V2000
   47.6894   35.1108   42.1449 C   0  0  0  0  0  0  0  0  0  0  0  0
   46.2293   35.0612   42.0940 C   0  0  0  0  0  0  0  0  0  0  0  0
   45.4555   35.6366   43.0772 C   0  0  0  0  0  0  0  0  0  0  0  0
   44.0675   35.5398   42.9485 C   0  0  0  0  0  0  0  0  0  0  0  0
   43.5453   34.9004   41.8893 N   0  0  0  0  0  0  0  0  0  0  0  0
   44.3401   34.3473   40.9431 C   0  0  0  0  0  0  0  0  0  0  0  0
   45.6371   34.4365   41.0611 N   0  0  0  0  0  0  0  0  0  0  0  0
   48.2401   33.8389   42.6406 C   0  0  0  0  0  0  0  0  0  0  0  0
   49.1007   33.0992   41.8005 C   0  0  0  0  0  0  0  0  0  0  0  0
   48.9822   32.3261   40.6238 C   0  0  0  0  0  0  0  0  0  0  0  0
   50.0628   31.7086   40.0914 C   0  0  0  0  0  0  0  0  0  0  0  0
   51.3123   31.8805   40.7762 C   0  0  0  0  0  0  0  0  0  0  0  0
   50.9284   32.9409   42.1963 S   0  0  0  0  0  0  0  0  0  0  0  0
   52.4351   31.3692   40.4192 O   0  0  0  0  0  0  0  0  0  0  0  0
   48.0253   35.9505   42.7989 H   0  0  0  0  0  0  0  0  0  0  0  0
   48.0996   35.3514   41.1424 H   0  0  0  0  0  0  0  0  0  0  0  0
   45.9913   36.1224   43.8785 H   0  0  0  0  0  0  0  0  0  0  0  0
   43.4840   36.0006   43.7350 H   0  0  0  0  0  0  0  0  0  0  0  0
   43.8040   33.8609   40.1406 H   0  0  0  0  0  0  0  0  0  0  0  0
   47.3823   33.1459   42.9281 H   0  0  0  0  0  0  0  0  0  0  0  0
   48.7358   33.9869   43.6493 H   0  0  0  0  0  0  0  0  0  0  0  0
   47.9875   32.3170   40.2656 H   0  0  0  0  0  0  0  0  0  0  0  0
   49.9731   31.1206   39.1970 H   0  0  0  0  0  0  0  0  0  0  0  0
   54.0819   30.1774   41.3457 C   0  0  0  0  0  0  0  0  0  0  0  0
   53.6752   31.4748   41.0076 C   0  0  0  0  0  0  0  0  0  0  0  0
   54.5071   32.5168   41.2964 C   0  0  0  0  0  0  0  0  0  0  0  0
   54.0969   33.4468   40.9966 H   0  0  0  0  0  0  0  0  0  0  0  0
   55.7196   32.3401   41.9021 C   0  0  0  0  0  0  0  0  0  0  0  0
   56.6420   33.2496   42.2493 N   0  0  0  0  0  0  0  0  0  0  0  0
   56.5770   34.2915   42.1043 H   0  0  0  0  0  0  0  0  0  0  0  0
   57.6421   32.5850   42.8055 N   0  0  0  0  0  0  0  0  0  0  0  0
   57.3781   31.2653   42.8216 C   0  0  0  0  0  0  0  0  0  0  0  0
   57.9847   30.4575   43.2030 H   0  0  0  0  0  0  0  0  0  0  0  0
   56.1270   31.0671   42.2380 C   0  0  0  0  0  0  0  0  0  0  0  0
   55.3199   29.9672   41.9674 C   0  0  0  0  0  0  0  0  0  0  0  0
   53.5882   29.2217   41.2111 H   0  0  0  0  0  0  0  0  0  0  0  0
   55.7331   29.0286   42.2696 H   0  0  0  0  0  0  0  0  0  0  0  0
  1  8  1  0
  2  1  1  0
  2  3  2  0
  4  3  1  0
  5  4  2  0
  6  7  2  0
  6  5  1  0
  7  2  1  0
  9 13  1  0
  9  8  1  0
 10  9  2  0
 11 10  1  0
 11 12  2  0
 12 13  1  0
 14 12  1  0
  1 15  1  0
  1 16  1  0
  3 17  1  0
  4 18  1  0
  6 19  1  0
  8 20  1  0
  8 21  1  0
 10 22  1  0
 11 23  1  0
 24 25  2  0
 25 26  1  0
 26 27  1  0
 26 28  2  0
 28 29  1  0
 29 30  1  0
 29 31  1  0
 31 32  2  0
 32 33  1  0
 32 34  1  0
 34 35  2  0
 35 24  1  0
 34 28  1  0
 24 36  1  0
 35 37  1  0
 14 25  1  0
M  ISO  8  15   8  16   8  17  14  18  14  19  14  20   8  21   8  22  14
M  ISO  4  23  14  27  16  30   5  33  15
M  END
>  <DihAtoms>  (1) 
11,13,24,23

>  <DihDeg>  (1) 
179.99888443199038

$$$$
