
 OpenBabel03252508033D

 45 49  0  0  1  0  0  0  0  0999 V2000
   42.2290   33.2630   41.1770 C   0  0  0  0  0  0  0  0  0  0  0  0
   42.8670   34.4490   41.3960 C   0  0  0  0  0  0  0  0  0  0  0  0
   42.0950   35.6270   41.3620 C   0  0  0  0  0  0  0  0  0  0  0  0
   40.7430   35.6380   41.1230 C   0  0  0  0  0  0  0  0  0  0  0  0
   40.1110   34.4450   40.9050 C   0  0  0  0  0  0  0  0  0  0  0  0
   40.8490   33.2970   40.9340 C   0  0  0  0  0  0  0  0  0  0  0  0
   42.5160   36.6140   41.5160 H   0  0  0  0  0  0  0  0  0  0  0  0
   40.1680   36.5420   41.0990 H   0  0  0  0  0  0  0  0  0  0  0  0
   39.0670   34.3570   40.7110 H   0  0  0  0  0  0  0  0  0  0  0  0
   40.3440   32.3330   40.7590 H   0  0  0  0  0  0  0  0  0  0  0  0
   43.0360   31.7840   41.2300 S   0  0  0  0  0  0  0  0  0  0  0  0
   42.2360   30.9550   40.2050 O   0  0  0  0  0  0  0  0  0  0  0  0
   42.8600   31.1200   42.5850 O   0  0  0  0  0  0  0  0  0  0  0  0
   44.4840   30.9400   39.1820 C   0  0  0  0  0  3  0  0  0  0  0  0
   44.4560   31.2430   40.5690 C   0  0  0  0  0  0  0  0  0  0  0  0
   45.7340   31.0550   41.1530 C   0  0  0  0  0  0  0  0  0  0  0  0
   45.7080   31.3060   42.2310 H   0  0  0  0  0  0  0  0  0  0  0  0
   46.9350   30.6480   40.6180 C   0  0  0  0  0  0  0  0  0  0  0  0
   48.1700   30.4280   41.0130 N   0  0  0  0  0  0  0  0  0  0  0  0
   48.4670   30.5660   42.0030 H   0  0  0  0  0  0  0  0  0  0  0  0
   48.8210   30.0400   39.9350 N   0  0  0  0  0  0  0  0  0  0  0  0
   48.0300   30.0040   38.8500 C   0  0  0  0  0  0  0  0  0  0  0  0
   48.3210   29.7180   37.8460 H   0  0  0  0  0  0  0  0  0  0  0  0
   46.7700   30.4050   39.2860 C   0  0  0  0  0  0  0  0  0  0  0  0
   45.6290   30.5280   38.5490 C   0  0  0  0  0  3  0  0  0  0  0  0
   44.2960   34.5430   41.6520 C   0  0  0  0  0  0  0  0  0  0  0  0
   45.1900   34.6000   40.7430 O   0  0  0  0  0  0  0  0  0  0  0  0
   44.6140   34.5680   43.0500 C   0  0  0  0  0  0  0  0  0  0  0  0
   44.2960   35.7840   43.7420 C   0  0  0  0  0  0  0  0  0  0  0  0
   44.5870   35.8200   45.0980 C   0  0  0  0  0  0  0  0  0  0  0  0
   45.1450   34.7240   45.6750 N   0  0  0  0  0  0  0  0  0  0  0  0
   45.4300   33.5830   44.9680 C   0  0  0  0  0  0  0  0  0  0  0  0
   45.1580   33.5550   43.7120 N   0  0  0  0  0  0  0  0  0  0  0  0
   43.8630   36.6810   43.3680 H   0  0  0  0  0  0  0  0  0  0  0  0
   44.4020   36.6620   45.7310 H   0  0  0  0  0  0  0  0  0  0  0  0
   46.0280   32.4440   45.6820 C   0  0  1  0  0  0  0  0  0  0  0  0
   46.9800   32.7140   46.8310 C   0  0  0  0  0  0  0  0  0  0  0  0
   45.5680   32.2720   47.0870 C   0  0  1  0  0  0  0  0  0  0  0  0
   46.2580   31.5390   45.1280 H   0  0  0  0  0  0  0  0  0  0  0  0
   47.2880   33.7660   46.9380 H   0  0  0  0  0  0  0  0  0  0  0  0
   47.7880   32.0000   47.0470 H   0  0  0  0  0  0  0  0  0  0  0  0
   45.4560   31.2780   47.5510 H   0  0  0  0  0  0  0  0  0  0  0  0
   44.7920   33.3240   47.7250 N   0  0  0  0  0  0  0  0  0  0  0  0
   44.8790   33.2940   48.7660 H   0  0  0  0  0  0  0  0  0  0  0  0
   43.7790   33.0680   47.5460 H   0  0  0  0  0  0  0  0  0  0  0  0
  1 11  1  0  0  0  0
  1  2  1  0  0  0  0
  2 26  1  0  0  0  0
  3  2  2  0  0  0  0
  3  7  1  0  0  0  0
  4  3  1  0  0  0  0
  5  6  1  0  0  0  0
  5  4  2  0  0  0  0
  6  1  2  0  0  0  0
  8  4  1  0  0  0  0
  9  5  1  0  0  0  0
 10  6  1  0  0  0  0
 11 13  2  0  0  0  0
 12 11  2  0  0  0  0
 14 15  1  0  0  0  0
 15 16  2  0  0  0  0
 15 11  1  0  0  0  0
 16 17  1  0  0  0  0
 18 19  1  0  0  0  0
 18 16  1  0  0  0  0
 19 20  1  0  0  0  0
 21 19  1  0  0  0  0
 22 24  1  0  0  0  0
 22 21  2  0  0  0  0
 23 22  1  0  0  0  0
 24 18  2  0  0  0  0
 25 14  2  0  0  0  0
 25 24  1  0  0  0  0
 26 28  1  0  0  0  0
 27 26  2  0  0  0  0
 28 33  2  0  0  0  0
 28 29  1  0  0  0  0
 29 30  2  0  0  0  0
 30 31  1  0  0  0  0
 30 35  1  0  0  0  0
 32 31  2  0  0  0  0
 32 36  1  0  0  0  0
 33 32  1  0  0  0  0
 34 29  1  0  0  0  0
 36 39  1  6  0  0  0
 36 37  1  0  0  0  0
 36 38  1  0  0  0  0
 37 40  1  0  0  0  0
 37 41  1  0  0  0  0
 37 38  1  0  0  0  0
 38 42  1  1  0  0  0
 38 43  1  0  0  0  0
 43 44  1  0  0  0  0
 45 43  1  0  0  0  0
M  END
>  <minimizedAffinity>
-5.82754993

>  <minimizedRMSD>
1.61905491

$$$$
