
     RDKit          3D

 50 53  0  0  0  0  0  0  0  0999 V2000
   45.3116   34.2908   43.7611 C   0  0  0  0  0  0  0  0  0  0  0  0
   46.4755   34.7769   43.1319 C   0  0  0  0  0  0  0  0  0  0  0  0
   47.6432   34.0755   43.2540 C   0  0  0  0  0  0  0  0  0  0  0  0
   47.5927   32.9463   43.9840 N   0  0  0  0  0  0  0  0  0  0  0  0
   46.4989   32.4937   44.5723 C   0  0  0  0  0  0  0  0  0  0  0  0
   45.3570   33.1652   44.4618 N   0  0  0  0  0  0  0  0  0  0  0  0
   48.8988   34.4944   42.6282 C   0  0  0  0  0  0  0  0  0  0  0  0
   48.7521   35.6654   41.7070 C   0  0  0  0  0  0  0  0  0  0  0  0
   48.5075   35.2975   40.3143 C   0  0  0  0  0  0  0  0  0  0  0  0
   48.2636   34.2485   39.5424 C   0  0  0  0  0  0  0  0  0  0  0  0
   48.1835   34.2428   38.0271 C   0  0  0  0  0  0  0  0  0  0  0  0
   46.4603   31.3373   45.3148 O   0  0  0  0  0  0  0  0  0  0  0  0
   45.4381   30.1870   47.2396 C   0  0  0  0  0  0  0  0  0  0  0  0
   46.0630   31.2289   46.6432 C   0  0  0  0  0  0  0  0  0  0  0  0
   46.3640   32.3362   47.4140 C   0  0  0  0  0  0  0  0  0  0  0  0
   46.0570   32.4206   48.7521 C   0  0  0  0  0  0  0  0  0  0  0  0
   45.4219   31.3529   49.3468 C   0  0  0  0  0  0  0  0  0  0  0  0
   45.1162   30.2378   48.5796 C   0  0  0  0  0  0  0  0  0  0  0  0
   44.9932   28.8638   46.1910 S   0  0  0  0  0  0  0  0  0  0  0  0
   43.5476   28.7508   45.9322 O   0  0  0  0  0  0  0  0  0  0  0  0
   45.3562   27.5826   46.9815 O   0  0  0  0  0  0  0  0  0  0  0  0
   44.3906   34.8494   43.6615 H   0  0  0  0  0  0  0  0  0  0  0  0
   46.3740   35.6771   42.5877 H   0  0  0  0  0  0  0  0  0  0  0  0
   49.6022   34.7506   43.4335 H   0  0  0  0  0  0  0  0  0  0  0  0
   49.3447   33.6607   42.0539 H   0  0  0  0  0  0  0  0  0  0  0  0
   49.7886   36.1301   41.6840 H   0  0  0  0  0  0  0  0  0  0  0  0
   48.1174   36.4761   42.0274 H   0  0  0  0  0  0  0  0  0  0  0  0
   48.5261   36.1994   39.6620 H   0  0  0  0  0  0  0  0  0  0  0  0
   48.1890   33.2536   39.9810 H   0  0  0  0  0  0  0  0  0  0  0  0
   48.3889   35.2607   37.6767 H   0  0  0  0  0  0  0  0  0  0  0  0
   47.1672   33.9221   37.8026 H   0  0  0  0  0  0  0  0  0  0  0  0
   48.8898   33.4832   37.6278 H   0  0  0  0  0  0  0  0  0  0  0  0
   46.8610   33.2111   47.0188 H   0  0  0  0  0  0  0  0  0  0  0  0
   46.2961   33.2925   49.3506 H   0  0  0  0  0  0  0  0  0  0  0  0
   45.1391   31.3172   50.3817 H   0  0  0  0  0  0  0  0  0  0  0  0
   44.6139   29.3333   48.9459 H   0  0  0  0  0  0  0  0  0  0  0  0
   47.3495   28.2667   44.8217 C   0  0  0  0  0  0  0  0  0  0  0  0
   46.0409   28.7203   44.7976 C   0  0  0  0  0  0  0  0  0  0  0  0
   45.6016   29.0623   43.5163 C   0  0  0  0  0  0  0  0  0  0  0  0
   44.5758   29.4259   43.4428 H   0  0  0  0  0  0  0  0  0  0  0  0
   46.3297   28.9848   42.3563 C   0  0  0  0  0  0  0  0  0  0  0  0
   46.0049   29.2858   41.0856 N   0  0  0  0  0  0  0  0  0  0  0  0
   45.0951   29.6518   40.7291 H   0  0  0  0  0  0  0  0  0  0  0  0
   47.0755   29.0262   40.3571 N   0  0  0  0  0  0  0  0  0  0  0  0
   48.0890   28.5609   41.1404 C   0  0  0  0  0  0  0  0  0  0  0  0
   49.0905   28.2608   40.8434 H   0  0  0  0  0  0  0  0  0  0  0  0
   47.6156   28.5285   42.4501 C   0  0  0  0  0  0  0  0  0  0  0  0
   48.1208   28.1712   43.6828 C   0  0  0  0  0  0  0  0  0  0  0  0
   47.7440   27.9842   45.8074 H   0  0  0  0  0  0  0  0  0  0  0  0
   49.1407   27.8117   43.7411 H   0  0  0  0  0  0  0  0  0  0  0  0
  1  6  2  0
  2  3  2  0
  2  1  1  0
  3  4  1  0
  4  5  2  0
  5 12  1  0
  6  5  1  0
  7  3  1  0
  8  7  1  0
  9  8  1  0
 10  9  2  0
 11 10  1  0
 12 14  1  0
 13 18  2  0
 14 13  1  0
 14 15  2  0
 15 16  1  0
 16 17  2  0
 18 17  1  0
 19 21  2  0
 19 13  1  0
 20 19  2  0
  1 22  1  0
  2 23  1  0
  7 24  1  0
  7 25  1  0
  8 26  1  0
  8 27  1  0
  9 28  1  0
 10 29  1  0
 11 30  1  0
 11 31  1  0
 11 32  1  0
 15 33  1  0
 16 34  1  0
 17 35  1  0
 18 36  1  0
 37 38  2  0
 38 39  1  0
 39 40  1  0
 39 41  2  0
 41 42  1  0
 42 43  1  0
 42 44  1  0
 44 45  2  0
 45 46  1  0
 45 47  1  0
 47 48  2  0
 48 37  1  0
 47 41  1  0
 37 49  1  0
 48 50  1  0
 19 38  1  0
M  ISO  8  22  14  23  14  24   8  25   8  26   8  27   8  30   8  31   8
M  ISO  8  32   8  33  14  34  14  35  14  36  14  40  16  43   5  46  15
M  END
>  <DihAtoms>  (1) 
20,18,37,36

>  <DihDeg>  (1) 
-24.57385168918673

$$$$
