REMARK  Name = 
REMARK  8 active torsions:
REMARK  status: ('A' for Active; 'I' for Inactive)
REMARK    1  A    between atoms: C_3  and  C_7
REMARK    2  A    between atoms: C_5  and  O_12
REMARK    3  A    between atoms: C_7  and  C_8
REMARK    4  A    between atoms: C_8  and  C_9
REMARK    5  A    between atoms: C_10  and  C_11
REMARK    6  A    between atoms: O_12  and  C_14
REMARK    7  A    between atoms: C_13  and  S_19
REMARK    8  A    between atoms: S_19  and  C_38
REMARK                            x       y       z     vdW  Elec       q    Type
REMARK                         _______ _______ _______ _____ _____    ______ ____
ROOT
ATOM      1  C   UNL     1      45.438  30.187  47.240  0.00  0.00    +0.000 A 
ATOM      2  C   UNL     1      46.063  31.229  46.643  0.00  0.00    +0.000 A 
ATOM      3  C   UNL     1      46.364  32.336  47.414  0.00  0.00    +0.000 A 
ATOM      4  C   UNL     1      46.057  32.421  48.752  0.00  0.00    +0.000 A 
ATOM      5  C   UNL     1      45.422  31.353  49.347  0.00  0.00    +0.000 A 
ATOM      6  C   UNL     1      45.116  30.238  48.580  0.00  0.00    +0.000 A 
ATOM      7  H   UNL     1      46.861  33.211  47.019  0.00  0.00    +0.000 HD
ATOM      8  H   UNL     1      46.296  33.292  49.351  0.00  0.00    +0.000 HD
ATOM      9  H   UNL     1      45.139  31.317  50.382  0.00  0.00    +0.000 HD
ATOM     10  H   UNL     1      44.614  29.333  48.946  0.00  0.00    +0.000 HD
ENDROOT
BRANCH   1  11
ATOM     11  S   UNL     1      44.993  28.864  46.191  0.00  0.00    +0.000 S 
ATOM     12  O   UNL     1      43.548  28.751  45.932  0.00  0.00    +0.000 OA
ATOM     13  O   UNL     1      45.356  27.583  46.981  0.00  0.00    +0.000 OA
BRANCH  11  15
ATOM     14  C   UNL     1      46.621  27.545  44.348  0.00  0.00    +0.000 A 
ATOM     15  C   UNL     1      46.041  28.720  44.798  0.00  0.00    +0.000 A 
ATOM     16  C   UNL     1      46.367  29.829  44.013  0.00  0.00    +0.000 A 
ATOM     17  H   UNL     1      45.934  30.781  44.325  0.00  0.00    +0.000 HD
ATOM     18  C   UNL     1      47.169  29.834  42.900  0.00  0.00    +0.000 A 
ATOM     19  N   UNL     1      47.542  30.835  42.082  0.00  0.00    +0.000 N 
ATOM     20  H   UNL     1      47.278  31.842  42.145  0.00  0.00    +0.000 HD
ATOM     21  N   UNL     1      48.322  30.293  41.164  0.00  0.00    +0.000 NA
ATOM     22  C   UNL     1      48.459  28.954  41.378  0.00  0.00    +0.000 A 
ATOM     23  H   UNL     1      49.031  28.232  40.802  0.00  0.00    +0.000 HD
ATOM     24  C   UNL     1      47.710  28.640  42.510  0.00  0.00    +0.000 A 
ATOM     25  C   UNL     1      47.434  27.500  43.235  0.00  0.00    +0.000 A 
ENDBRANCH  11  15
ENDBRANCH   1  11
BRANCH   2  26
ATOM     26  O   UNL     1      46.460  31.337  45.315  0.00  0.00    +0.000 OA
BRANCH  26  31
ATOM     27  C   UNL     1      45.312  34.291  43.761  0.00  0.00    +0.000 A 
ATOM     28  C   UNL     1      46.475  34.777  43.132  0.00  0.00    +0.000 A 
ATOM     29  C   UNL     1      47.643  34.075  43.254  0.00  0.00    +0.000 A 
ATOM     30  N   UNL     1      47.593  32.946  43.984  0.00  0.00    +0.000 NA
ATOM     31  C   UNL     1      46.499  32.494  44.572  0.00  0.00    +0.000 A 
ATOM     32  N   UNL     1      45.357  33.165  44.462  0.00  0.00    +0.000 NA
ATOM     33  H   UNL     1      44.391  34.849  43.661  0.00  0.00    +0.000 HD
ATOM     34  H   UNL     1      46.374  35.677  42.588  0.00  0.00    +0.000 HD
BRANCH  29  35
ATOM     35  C   UNL     1      48.899  34.494  42.628  0.00  0.00    +0.000 C 
ATOM     36  H   UNL     1      49.602  34.751  43.434  0.00  0.00    +0.000 HD
ATOM     37  H   UNL     1      49.345  33.661  42.054  0.00  0.00    +0.000 HD
BRANCH  35  38
ATOM     38  C   UNL     1      48.752  35.665  41.707  0.00  0.00    +0.000 C 
ATOM     39  H   UNL     1      49.789  36.130  41.684  0.00  0.00    +0.000 HD
ATOM     40  H   UNL     1      48.117  36.476  42.027  0.00  0.00    +0.000 HD
BRANCH  38  41
ATOM     41  C   UNL     1      48.508  35.297  40.314  0.00  0.00    +0.000 C 
ATOM     42  C   UNL     1      48.264  34.248  39.542  0.00  0.00    +0.000 C 
BRANCH  42  43
ATOM     43  C   UNL     1      48.184  34.243  38.027  0.00  0.00    +0.000 C 
ATOM     44  H   UNL     1      48.389  35.261  37.677  0.00  0.00    +0.000 HD
ATOM     45  H   UNL     1      47.167  33.922  37.803  0.00  0.00    +0.000 HD
ATOM     46  H   UNL     1      48.890  33.483  37.628  0.00  0.00    +0.000 HD
ENDBRANCH  42  43
ENDBRANCH  38  41
ENDBRANCH  35  38
ENDBRANCH  29  35
ENDBRANCH  26  31
ENDBRANCH   2  26
TORSDOF 8
