REMARK  Name = 
REMARK  4 active torsions:
REMARK  status: ('A' for Active; 'I' for Inactive)
REMARK    1  A    between atoms: C_7  and  C_10
REMARK    2  A    between atoms: C_14  and  C_16
REMARK    3  A    between atoms: C_17  and  C_18
REMARK    4  A    between atoms: C_18  and  C_31
REMARK                            x       y       z     vdW  Elec       q    Type
REMARK                         _______ _______ _______ _____ _____    ______ ____
ROOT
ATOM      1  C   UNL     1      45.659  31.631  47.108  0.00  0.00    +0.000 A 
ATOM      2  C   UNL     1      45.518  32.097  48.432  0.00  0.00    +0.000 A 
ATOM      3  C   UNL     1      45.298  31.268  49.510  0.00  0.00    +0.000 A 
ATOM      4  C   UNL     1      45.214  29.919  49.263  0.00  0.00    +0.000 A 
ATOM      5  C   UNL     1      45.352  29.453  47.965  0.00  0.00    +0.000 A 
ATOM      6  N   UNL     1      45.565  30.310  46.956  0.00  0.00    +0.000 NA
ATOM      7  H   UNL     1      45.588  33.169  48.601  0.00  0.00    +0.000 HD
ATOM      8  H   UNL     1      45.200  31.700  50.497  0.00  0.00    +0.000 HD
ATOM      9  H   UNL     1      45.042  29.234  50.084  0.00  0.00    +0.000 HD
ENDROOT
BRANCH   1  16
ATOM     10  C   UNL     1      44.766  36.620  43.832  0.00  0.00    +0.000 A 
ATOM     11  C   UNL     1      45.672  36.325  42.795  0.00  0.00    +0.000 A 
ATOM     12  C   UNL     1      46.334  35.088  42.827  0.00  0.00    +0.000 A 
ATOM     13  N   UNL     1      46.071  34.229  43.858  0.00  0.00    +0.000 NA
ATOM     14  C   UNL     1      45.191  34.556  44.834  0.00  0.00    +0.000 A 
ATOM     15  N   UNL     1      44.531  35.756  44.827  0.00  0.00    +0.000 NA
ATOM     16  C   UNL     1      45.889  32.580  46.037  0.00  0.00    +0.000 C 
ATOM     17  O   UNL     1      46.906  32.414  45.300  0.00  0.00    +0.000 OA
ATOM     18  N   UNL     1      44.937  33.642  45.894  0.00  0.00    +0.000 N 
ATOM     19  H   UNL     1      44.282  37.585  43.763  0.00  0.00    +0.000 HD
ATOM     20  H   UNL     1      45.890  36.988  41.978  0.00  0.00    +0.000 HD
ATOM     21  H   UNL     1      47.031  34.830  42.053  0.00  0.00    +0.000 HD
ATOM     22  H   UNL     1      44.122  33.755  46.503  0.00  0.00    +0.000 HD
ENDBRANCH   1  16
BRANCH   5  23
ATOM     23  C   UNL     1      45.261  28.029  47.724  0.00  0.00    +0.000 C 
ATOM     24  C   UNL     1      44.521  27.264  48.523  0.00  0.00    +0.000 C 
BRANCH  24  25
ATOM     25  C   UNL     1      44.332  25.787  48.401  0.00  0.00    +0.000 C 
ATOM     26  H   UNL     1      43.291  25.491  48.273  0.00  0.00    +0.000 HD
ATOM     27  H   UNL     1      44.711  25.273  49.314  0.00  0.00    +0.000 HD
BRANCH  25  29
ATOM     28  C   UNL     1      45.910  24.134  47.199  0.00  0.00    +0.000 A 
ATOM     29  C   UNL     1      45.112  25.268  47.221  0.00  0.00    +0.000 A 
ATOM     30  C   UNL     1      45.007  26.017  46.046  0.00  0.00    +0.000 A 
ATOM     31  H   UNL     1      44.394  26.913  46.013  0.00  0.00    +0.000 HD
ATOM     32  C   UNL     1      45.661  25.672  44.877  0.00  0.00    +0.000 A 
ATOM     33  N   UNL     1      45.705  26.228  43.662  0.00  0.00    +0.000 N 
ATOM     34  H   UNL     1      45.194  27.101  43.387  0.00  0.00    +0.000 HD
ATOM     35  N   UNL     1      46.491  25.487  42.898  0.00  0.00    +0.000 NA
ATOM     36  C   UNL     1      46.969  24.442  43.605  0.00  0.00    +0.000 A 
ATOM     37  H   UNL     1      47.632  23.666  43.260  0.00  0.00    +0.000 HD
ATOM     38  C   UNL     1      46.450  24.539  44.877  0.00  0.00    +0.000 A 
ATOM     39  C   UNL     1      46.555  23.797  46.042  0.00  0.00    +0.000 A 
ENDBRANCH  25  29
ENDBRANCH  24  25
ENDBRANCH   5  23
TORSDOF 4
