
 OpenBabel03242518003D

 40 43  0  0  0  0  0  0  0  0999 V2000
   46.0460   31.9100   45.6460 C   0  0  0  0  0  0  0  0  0  0  0  0
   45.1690   32.3900   46.0780 H   0  0  0  0  0  0  0  0  0  0  0  0
   45.6440   30.9780   45.1480 H   0  0  0  0  0  0  0  0  0  0  0  0
   47.3470   32.3090   47.7230 C   0  0  0  0  0  0  0  0  0  0  0  0
   46.9960   31.4680   46.6550 C   0  0  0  0  0  0  0  0  0  0  0  0
   47.6090   30.2040   46.6220 C   0  0  0  0  0  0  0  0  0  0  0  0
   48.4780   29.8810   47.5980 N   0  0  0  0  0  0  0  0  0  0  0  0
   48.7960   30.7040   48.6090 C   0  0  0  0  0  0  0  0  0  0  0  0
   48.2300   31.9050   48.6630 N   0  0  0  0  0  0  0  0  0  0  0  0
   46.9330   33.3020   47.8410 H   0  0  0  0  0  0  0  0  0  0  0  0
   47.3690   29.5230   45.8180 H   0  0  0  0  0  0  0  0  0  0  0  0
   50.2440   31.3350   50.4850 C   0  0  0  0  0  3  0  0  0  0  0  0
   49.7390   30.3450   49.6640 C   0  0  0  0  0  0  0  0  0  0  0  0
   50.1560   29.0470   49.8840 C   0  0  0  0  0  0  0  0  0  0  0  0
   49.7810   28.2460   49.2600 H   0  0  0  0  0  0  0  0  0  0  0  0
   51.0520   28.7570   50.8960 C   0  0  0  0  0  0  0  0  0  0  0  0
   51.6060   27.6020   51.3120 N   0  0  0  0  0  0  0  0  0  0  0  0
   51.4330   26.6420   50.8950 H   0  0  0  0  0  0  0  0  0  0  0  0
   52.4170   27.8280   52.3320 N   0  0  0  0  0  0  0  0  0  0  0  0
   52.4140   29.1440   52.6130 C   0  0  0  0  0  0  0  0  0  0  0  0
   52.9150   29.7720   53.3510 H   0  0  0  0  0  0  0  0  0  0  0  0
   51.5500   29.7780   51.7140 C   0  0  0  0  0  0  0  0  0  0  0  0
   51.1400   31.1000   51.5090 C   0  0  0  0  0  3  0  0  0  0  0  0
   46.8060   32.7500   44.6400 C   0  0  0  0  0  0  0  0  0  0  0  0
   47.0450   32.1010   43.7780 H   0  0  0  0  0  0  0  0  0  0  0  0
   47.8200   33.0530   45.0370 H   0  0  0  0  0  0  0  0  0  0  0  0
   46.5100   34.6420   43.0990 C   0  0  0  0  0  0  0  0  0  0  0  0
   46.1440   34.0050   44.2660 C   0  0  0  0  0  0  0  0  0  0  0  0
   45.1800   34.4860   45.1110 C   0  0  0  0  0  0  0  0  0  0  0  0
   44.5420   35.6620   44.7800 C   0  0  0  0  0  0  0  0  0  0  0  0
   44.8410   36.3600   43.6420 C   0  0  0  0  0  0  0  0  0  0  0  0
   45.8320   35.8140   42.8300 C   0  0  0  0  0  0  0  0  0  0  0  0
   44.8390   34.0660   46.0230 H   0  0  0  0  0  0  0  0  0  0  0  0
   43.7630   36.1170   45.3930 H   0  0  0  0  0  0  0  0  0  0  0  0
   44.3570   37.2750   43.3690 H   0  0  0  0  0  0  0  0  0  0  0  0
   46.0950   36.3460   41.9120 H   0  0  0  0  0  0  0  0  0  0  0  0
   47.7380   34.0650   41.9940 S   0  0  0  0  0  0  0  0  0  0  0  0
   49.1120   34.6020   42.3340 O   0  0  0  0  0  0  0  0  0  0  0  0
   47.4440   34.6130   40.6170 O   0  0  0  0  0  0  0  0  0  0  0  0
   47.7410   32.7100   41.8540 H   0  0  0  0  0  0  0  0  0  0  0  0
  1  2  1  0  0  0  0
  1  5  1  0  0  0  0
  3  1  1  0  0  0  0
  4 10  1  0  0  0  0
  4  9  1  0  0  0  0
  5  4  2  0  0  0  0
  6  5  1  0  0  0  0
  6  7  2  0  0  0  0
  7  8  1  0  0  0  0
  8  9  2  0  0  0  0
  8 13  1  0  0  0  0
 11  6  1  0  0  0  0
 12 23  1  0  0  0  0
 13 14  1  0  0  0  0
 13 12  2  0  0  0  0
 14 16  2  0  0  0  0
 15 14  1  0  0  0  0
 16 17  1  0  0  0  0
 16 22  1  0  0  0  0
 17 19  1  0  0  0  0
 18 17  1  0  0  0  0
 19 20  2  0  0  0  0
 20 21  1  0  0  0  0
 22 20  1  0  0  0  0
 23 22  2  0  0  0  0
 24 26  1  0  0  0  0
 24  1  1  0  0  0  0
 25 24  1  0  0  0  0
 27 28  1  0  0  0  0
 28 24  1  0  0  0  0
 28 29  2  0  0  0  0
 29 33  1  0  0  0  0
 30 29  1  0  0  0  0
 30 34  1  0  0  0  0
 31 30  2  0  0  0  0
 32 27  2  0  0  0  0
 32 31  1  0  0  0  0
 35 31  1  0  0  0  0
 36 32  1  0  0  0  0
 37 38  2  0  0  0  0
 37 27  1  0  0  0  0
 39 37  2  0  0  0  0
 40 37  1  0  0  0  0
M  END
>  <minimizedAffinity>
-6.21063471

>  <minimizedRMSD>
0.785278678

$$$$
