
 OpenBabel03242518003D

 40 43  0  0  0  0  0  0  0  0999 V2000
   46.0690   31.8420   45.2730 C   0  0  0  0  0  0  0  0  0  0  0  0
   45.1080   32.1870   45.6540 H   0  0  0  0  0  0  0  0  0  0  0  0
   45.8240   30.9040   44.6920 H   0  0  0  0  0  0  0  0  0  0  0  0
   47.1730   32.2740   47.4550 C   0  0  0  0  0  0  0  0  0  0  0  0
   46.9840   31.4490   46.3340 C   0  0  0  0  0  0  0  0  0  0  0  0
   47.7180   30.2520   46.3010 C   0  0  0  0  0  0  0  0  0  0  0  0
   48.5430   29.9720   47.3280 N   0  0  0  0  0  0  0  0  0  0  0  0
   48.7060   30.7770   48.3880 C   0  0  0  0  0  0  0  0  0  0  0  0
   48.0230   31.9160   48.4420 N   0  0  0  0  0  0  0  0  0  0  0  0
   46.6570   33.2160   47.5760 H   0  0  0  0  0  0  0  0  0  0  0  0
   47.6040   29.5860   45.4570 H   0  0  0  0  0  0  0  0  0  0  0  0
   50.0930   31.4920   50.2800 C   0  0  0  0  0  3  0  0  0  0  0  0
   49.6030   30.4650   49.4980 C   0  0  0  0  0  0  0  0  0  0  0  0
   49.9910   29.1760   49.8060 C   0  0  0  0  0  0  0  0  0  0  0  0
   49.6260   28.3460   49.2130 H   0  0  0  0  0  0  0  0  0  0  0  0
   50.8430   28.9310   50.8670 C   0  0  0  0  0  0  0  0  0  0  0  0
   51.3620   27.7940   51.3670 N   0  0  0  0  0  0  0  0  0  0  0  0
   51.1890   26.8150   50.9980 H   0  0  0  0  0  0  0  0  0  0  0  0
   52.1360   28.0650   52.4040 N   0  0  0  0  0  0  0  0  0  0  0  0
   52.1440   29.3960   52.6110 C   0  0  0  0  0  0  0  0  0  0  0  0
   52.6270   30.0570   53.3310 H   0  0  0  0  0  0  0  0  0  0  0  0
   51.3250   29.9900   51.6440 C   0  0  0  0  0  0  0  0  0  0  0  0
   50.9460   31.3030   51.3500 C   0  0  0  0  0  3  0  0  0  0  0  0
   46.7970   32.8290   44.3840 C   0  0  0  0  0  0  0  0  0  0  0  0
   47.0600   32.3020   43.4490 H   0  0  0  0  0  0  0  0  0  0  0  0
   47.7990   33.1170   44.8200 H   0  0  0  0  0  0  0  0  0  0  0  0
   46.3370   34.8230   43.0220 C   0  0  0  0  0  0  0  0  0  0  0  0
   46.0890   34.0950   44.1670 C   0  0  0  0  0  0  0  0  0  0  0  0
   45.2010   34.4950   45.1300 C   0  0  0  0  0  0  0  0  0  0  0  0
   44.5220   35.6800   44.9470 C   0  0  0  0  0  0  0  0  0  0  0  0
   44.7060   36.4660   43.8420 C   0  0  0  0  0  0  0  0  0  0  0  0
   45.6240   35.9980   42.9040 C   0  0  0  0  0  0  0  0  0  0  0  0
   44.9510   34.0030   46.0360 H   0  0  0  0  0  0  0  0  0  0  0  0
   43.7980   36.0750   45.6610 H   0  0  0  0  0  0  0  0  0  0  0  0
   44.1880   37.3890   43.6840 H   0  0  0  0  0  0  0  0  0  0  0  0
   45.7950   36.6020   42.0090 H   0  0  0  0  0  0  0  0  0  0  0  0
   47.4650   34.3510   41.7690 S   0  0  0  0  0  0  0  0  0  0  0  0
   48.5390   35.3930   41.5440 O   0  0  0  0  0  0  0  0  0  0  0  0
   46.7220   34.2780   40.4560 O   0  0  0  0  0  0  0  0  0  0  0  0
   47.9910   33.1090   41.9600 H   0  0  0  0  0  0  0  0  0  0  0  0
  1  2  1  0  0  0  0
  1  5  1  0  0  0  0
  3  1  1  0  0  0  0
  4 10  1  0  0  0  0
  4  9  1  0  0  0  0
  5  4  2  0  0  0  0
  6  5  1  0  0  0  0
  6  7  2  0  0  0  0
  7  8  1  0  0  0  0
  8  9  2  0  0  0  0
  8 13  1  0  0  0  0
 11  6  1  0  0  0  0
 12 23  1  0  0  0  0
 13 14  1  0  0  0  0
 13 12  2  0  0  0  0
 14 16  2  0  0  0  0
 15 14  1  0  0  0  0
 16 17  1  0  0  0  0
 16 22  1  0  0  0  0
 17 19  1  0  0  0  0
 18 17  1  0  0  0  0
 19 20  2  0  0  0  0
 20 21  1  0  0  0  0
 22 20  1  0  0  0  0
 23 22  2  0  0  0  0
 24 26  1  0  0  0  0
 24  1  1  0  0  0  0
 25 24  1  0  0  0  0
 27 28  1  0  0  0  0
 28 24  1  0  0  0  0
 28 29  2  0  0  0  0
 29 33  1  0  0  0  0
 30 29  1  0  0  0  0
 30 34  1  0  0  0  0
 31 30  2  0  0  0  0
 32 27  2  0  0  0  0
 32 31  1  0  0  0  0
 35 31  1  0  0  0  0
 36 32  1  0  0  0  0
 37 40  1  0  0  0  0
 37 27  1  0  0  0  0
 38 37  2  0  0  0  0
 39 37  2  0  0  0  0
M  END
>  <minimizedAffinity>
-6.30163527

>  <minimizedRMSD>
0.647499859

$$$$
