
 OpenBabel03242513103D

 44 49  0  0  0  0  0  0  0  0999 V2000
   39.0480   27.7920   40.3220 C   0  0  0  0  0  0  0  0  0  0  0  0
   38.5610   27.2910   41.5400 C   0  0  0  0  0  0  0  0  0  0  0  0
   38.0130   28.2030   42.4230 C   0  0  0  0  0  0  0  0  0  0  0  0
   37.9890   29.5170   42.0420 N   0  0  0  0  0  0  0  0  0  0  0  0
   38.4590   29.9760   40.8770 C   0  0  0  0  0  0  0  0  0  0  0  0
   38.9910   29.1120   40.0100 N   0  0  0  0  0  0  0  0  0  0  0  0
   39.4870   27.1220   39.5940 H   0  0  0  0  0  0  0  0  0  0  0  0
   37.3090   31.9070   39.8840 C   0  0  0  0  0  0  0  0  0  0  0  0
   38.3820   31.3900   40.5770 C   0  0  0  0  0  0  0  0  0  0  0  0
   39.4500   32.1860   41.0260 C   0  0  0  0  0  0  0  0  0  0  0  0
   39.4480   33.5550   40.7750 C   0  0  0  0  0  0  0  0  0  0  0  0
   40.2640   34.6050   41.0380 N   0  0  0  0  0  0  0  0  0  0  0  0
   39.6920   35.7270   40.5150 C   0  0  0  0  0  0  0  0  0  0  0  0
   38.5340   35.3560   39.9370 N   0  0  0  0  0  0  0  0  0  0  0  0
   38.3560   34.0320   40.0800 C   0  0  0  0  0  0  0  0  0  0  0  0
   37.2870   33.2760   39.6220 C   0  0  0  0  0  0  0  0  0  0  0  0
   36.4980   31.2950   39.5440 H   0  0  0  0  0  0  0  0  0  0  0  0
   40.2870   31.7740   41.5680 H   0  0  0  0  0  0  0  0  0  0  0  0
   41.1570   34.4260   41.5680 H   0  0  0  0  0  0  0  0  0  0  0  0
   40.2590   36.6360   40.6650 H   0  0  0  0  0  0  0  0  0  0  0  0
   36.4710   33.7320   39.0840 H   0  0  0  0  0  0  0  0  0  0  0  0
   37.4830   27.7360   43.7230 C   0  0  0  0  0  0  0  0  0  0  0  0
   37.0880   28.8230   44.5130 F   0  0  0  0  0  0  0  0  0  0  0  0
   36.3590   26.9690   43.5360 F   0  0  0  0  0  0  0  0  0  0  0  0
   38.4750   27.0380   44.3690 F   0  0  0  0  0  0  0  0  0  0  0  0
   38.6480   25.9620   41.7890 O   0  0  0  0  0  0  0  0  0  0  0  0
   37.9230   25.0290   41.0820 C   0  0  0  0  0  0  0  0  0  0  0  0
   38.8120   23.9710   40.9540 C   0  0  0  0  0  0  0  0  0  0  0  0
   37.8370   22.7170   40.0080 S   0  0  0  0  0  0  0  0  0  0  0  0
   36.3700   23.8780   39.9550 C   0  0  0  0  0  0  0  0  0  0  0  0
   36.8040   24.7240   40.5050 N   0  0  0  0  0  0  0  0  0  0  0  0
   39.8910   23.4100   41.1240 H   0  0  0  0  0  0  0  0  0  0  0  0
   34.8400   24.1700   38.0780 C   0  0  0  0  0  3  0  0  0  0  0  0
   35.0490   23.5620   39.2950 C   0  0  0  0  0  0  0  0  0  0  0  0
   34.2110   22.7170   39.9660 C   0  0  0  0  0  0  0  0  0  0  0  0
   34.4740   22.2910   40.9230 H   0  0  0  0  0  0  0  0  0  0  0  0
   33.0070   22.4430   39.3380 C   0  0  0  0  0  0  0  0  0  0  0  0
   31.9500   21.6700   39.6880 N   0  0  0  0  0  0  0  0  0  0  0  0
   31.9060   21.1170   40.5830 H   0  0  0  0  0  0  0  0  0  0  0  0
   31.0370   21.7540   38.7200 N   0  0  0  0  0  0  0  0  0  0  0  0
   31.4610   22.5630   37.7350 C   0  0  0  0  0  0  0  0  0  0  0  0
   30.9090   22.8020   36.8330 H   0  0  0  0  0  0  0  0  0  0  0  0
   32.7180   23.0150   38.1100 C   0  0  0  0  0  0  0  0  0  0  0  0
   33.6230   23.8510   37.5160 C   0  0  0  0  0  3  0  0  0  0  0  0
  1  2  1  0  0  0  0
  2 26  1  0  0  0  0
  2  3  2  0  0  0  0
  3 22  1  0  0  0  0
  4  3  1  0  0  0  0
  5  4  2  0  0  0  0
  6  1  2  0  0  0  0
  6  5  1  0  0  0  0
  7  1  1  0  0  0  0
  8  9  1  0  0  0  0
  9  5  1  0  0  0  0
  9 10  2  0  0  0  0
 10 18  1  0  0  0  0
 11 10  1  0  0  0  0
 11 12  1  0  0  0  0
 12 19  1  0  0  0  0
 13 20  1  0  0  0  0
 13 12  1  0  0  0  0
 14 15  1  0  0  0  0
 14 13  2  0  0  0  0
 15 11  2  0  0  0  0
 16  8  2  0  0  0  0
 16 15  1  0  0  0  0
 17  8  1  0  0  0  0
 21 16  1  0  0  0  0
 22 25  1  0  0  0  0
 22 23  1  0  0  0  0
 24 22  1  0  0  0  0
 27 26  1  0  0  0  0
 28 27  2  0  0  0  0
 28 32  1  0  0  0  0
 29 28  1  0  0  0  0
 30 29  1  0  0  0  0
 30 31  2  0  0  0  0
 31 27  1  0  0  0  0
 33 34  1  0  0  0  0
 34 30  1  0  0  0  0
 34 35  2  0  0  0  0
 35 36  1  0  0  0  0
 37 38  1  0  0  0  0
 37 35  1  0  0  0  0
 38 39  1  0  0  0  0
 40 38  1  0  0  0  0
 41 43  1  0  0  0  0
 41 40  2  0  0  0  0
 42 41  1  0  0  0  0
 43 37  2  0  0  0  0
 44 33  2  0  0  0  0
 44 43  1  0  0  0  0
M  END
>  <minimizedAffinity>
-7.65657902

$$$$

 OpenBabel03242513103D

 44 49  0  0  0  0  0  0  0  0999 V2000
   36.3690   27.8910   40.3550 C   0  0  0  0  0  0  0  0  0  0  0  0
   37.0140   28.2170   41.5590 C   0  0  0  0  0  0  0  0  0  0  0  0
   37.6230   27.1850   42.2480 C   0  0  0  0  0  0  0  0  0  0  0  0
   37.5490   25.9310   41.7040 N   0  0  0  0  0  0  0  0  0  0  0  0
   36.9300   25.6390   40.5550 C   0  0  0  0  0  0  0  0  0  0  0  0
   36.3360   26.6210   39.8730 N   0  0  0  0  0  0  0  0  0  0  0  0
   35.8760   28.6610   39.7750 H   0  0  0  0  0  0  0  0  0  0  0  0
   36.1070   23.9090   39.0180 C   0  0  0  0  0  0  0  0  0  0  0  0
   36.9150   24.2750   40.0720 C   0  0  0  0  0  0  0  0  0  0  0  0
   37.7590   23.3650   40.7330 C   0  0  0  0  0  0  0  0  0  0  0  0
   37.7990   22.0350   40.3260 C   0  0  0  0  0  0  0  0  0  0  0  0
   38.4580   20.9110   40.7000 N   0  0  0  0  0  0  0  0  0  0  0  0
   38.0540   19.8930   39.8870 C   0  0  0  0  0  0  0  0  0  0  0  0
   37.1530   20.4010   39.0250 N   0  0  0  0  0  0  0  0  0  0  0  0
   36.9760   21.7100   39.2680 C   0  0  0  0  0  0  0  0  0  0  0  0
   36.1310   22.5810   38.5940 C   0  0  0  0  0  0  0  0  0  0  0  0
   35.4650   24.6060   38.5180 H   0  0  0  0  0  0  0  0  0  0  0  0
   38.3890   23.6600   41.5580 H   0  0  0  0  0  0  0  0  0  0  0  0
   39.1380   20.9710   41.5020 H   0  0  0  0  0  0  0  0  0  0  0  0
   38.5170   18.9380   40.0950 H   0  0  0  0  0  0  0  0  0  0  0  0
   35.5200   22.2410   37.7740 H   0  0  0  0  0  0  0  0  0  0  0  0
   38.3180   27.4650   43.5230 C   0  0  0  0  0  0  0  0  0  0  0  0
   39.0500   26.3470   43.9410 F   0  0  0  0  0  0  0  0  0  0  0  0
   39.2280   28.4810   43.3600 F   0  0  0  0  0  0  0  0  0  0  0  0
   37.3720   27.7740   44.4720 F   0  0  0  0  0  0  0  0  0  0  0  0
   37.0090   29.5040   41.9820 O   0  0  0  0  0  0  0  0  0  0  0  0
   37.6390   30.5120   41.2870 C   0  0  0  0  0  0  0  0  0  0  0  0
   36.5830   31.2910   40.8360 C   0  0  0  0  0  0  0  0  0  0  0  0
   37.4300   32.6460   39.9060 S   0  0  0  0  0  0  0  0  0  0  0  0
   39.0980   31.8960   40.3050 C   0  0  0  0  0  0  0  0  0  0  0  0
   38.7580   31.0300   40.8880 N   0  0  0  0  0  0  0  0  0  0  0  0
   35.3940   31.5740   40.7140 H   0  0  0  0  0  0  0  0  0  0  0  0
   41.3940   32.5220   40.8350 C   0  0  0  0  0  3  0  0  0  0  0  0
   40.4240   32.4660   39.8610 C   0  0  0  0  0  0  0  0  0  0  0  0
   40.5190   32.8610   38.5570 C   0  0  0  0  0  0  0  0  0  0  0  0
   39.6900   32.7720   37.8690 H   0  0  0  0  0  0  0  0  0  0  0  0
   41.7460   33.3800   38.1760 C   0  0  0  0  0  0  0  0  0  0  0  0
   42.2060   33.8630   36.9970 N   0  0  0  0  0  0  0  0  0  0  0  0
   41.6230   33.9100   36.1210 H   0  0  0  0  0  0  0  0  0  0  0  0
   43.4730   34.2410   37.1690 N   0  0  0  0  0  0  0  0  0  0  0  0
   43.8670   34.0220   38.4350 C   0  0  0  0  0  0  0  0  0  0  0  0
   44.8490   34.2410   38.8380 H   0  0  0  0  0  0  0  0  0  0  0  0
   42.7770   33.4710   39.0960 C   0  0  0  0  0  0  0  0  0  0  0  0
   42.5850   33.0490   40.3830 C   0  0  0  0  0  3  0  0  0  0  0  0
  1  2  1  0  0  0  0
  2 26  1  0  0  0  0
  2  3  2  0  0  0  0
  3 22  1  0  0  0  0
  4  3  1  0  0  0  0
  5  4  2  0  0  0  0
  6  1  2  0  0  0  0
  6  5  1  0  0  0  0
  7  1  1  0  0  0  0
  8  9  1  0  0  0  0
  9  5  1  0  0  0  0
  9 10  2  0  0  0  0
 10 18  1  0  0  0  0
 11 12  1  0  0  0  0
 11 10  1  0  0  0  0
 12 19  1  0  0  0  0
 13 20  1  0  0  0  0
 13 12  1  0  0  0  0
 14 15  1  0  0  0  0
 14 13  2  0  0  0  0
 15 11  2  0  0  0  0
 16  8  2  0  0  0  0
 16 15  1  0  0  0  0
 17  8  1  0  0  0  0
 21 16  1  0  0  0  0
 22 23  1  0  0  0  0
 22 25  1  0  0  0  0
 24 22  1  0  0  0  0
 27 26  1  0  0  0  0
 28 27  2  0  0  0  0
 29 30  1  0  0  0  0
 29 28  1  0  0  0  0
 30 31  2  0  0  0  0
 31 27  1  0  0  0  0
 32 28  1  0  0  0  0
 34 30  1  0  0  0  0
 34 33  2  0  0  0  0
 35 34  1  0  0  0  0
 36 35  1  0  0  0  0
 37 35  2  0  0  0  0
 37 43  1  0  0  0  0
 38 40  1  0  0  0  0
 38 37  1  0  0  0  0
 39 38  1  0  0  0  0
 40 41  2  0  0  0  0
 41 42  1  0  0  0  0
 41 43  1  0  0  0  0
 43 44  2  0  0  0  0
 44 33  1  0  0  0  0
M  END
>  <minimizedAffinity>
-7.45577526

$$$$

 OpenBabel03242513103D

 44 49  0  0  0  0  0  0  0  0999 V2000
   37.1000   30.4400   37.5770 C   0  0  0  0  0  0  0  0  0  0  0  0
   36.5210   29.5470   38.4930 C   0  0  0  0  0  0  0  0  0  0  0  0
   36.6800   29.8310   39.8360 C   0  0  0  0  0  0  0  0  0  0  0  0
   37.3880   30.9550   40.1660 N   0  0  0  0  0  0  0  0  0  0  0  0
   37.9340   31.7940   39.2800 C   0  0  0  0  0  0  0  0  0  0  0  0
   37.7900   31.5390   37.9770 N   0  0  0  0  0  0  0  0  0  0  0  0
   37.0060   30.2660   36.5120 H   0  0  0  0  0  0  0  0  0  0  0  0
   38.0590   34.1920   39.7950 C   0  0  0  0  0  0  0  0  0  0  0  0
   38.6630   32.9560   39.7410 C   0  0  0  0  0  0  0  0  0  0  0  0
   40.0000   32.7470   40.1220 C   0  0  0  0  0  0  0  0  0  0  0  0
   40.7670   33.8160   40.5760 C   0  0  0  0  0  0  0  0  0  0  0  0
   42.0360   34.0000   41.0150 N   0  0  0  0  0  0  0  0  0  0  0  0
   42.1890   35.3200   41.3250 C   0  0  0  0  0  0  0  0  0  0  0  0
   41.0160   35.9300   41.0750 N   0  0  0  0  0  0  0  0  0  0  0  0
   40.1240   35.0360   40.6150 C   0  0  0  0  0  0  0  0  0  0  0  0
   38.8090   35.2770   40.2460 C   0  0  0  0  0  0  0  0  0  0  0  0
   37.0390   34.3460   39.5030 H   0  0  0  0  0  0  0  0  0  0  0  0
   40.4660   31.7750   40.0770 H   0  0  0  0  0  0  0  0  0  0  0  0
   42.6800   33.1680   41.0530 H   0  0  0  0  0  0  0  0  0  0  0  0
   43.1720   35.5880   41.6880 H   0  0  0  0  0  0  0  0  0  0  0  0
   38.3850   36.2670   40.3090 H   0  0  0  0  0  0  0  0  0  0  0  0
   36.0940   28.9280   40.8500 C   0  0  0  0  0  0  0  0  0  0  0  0
   34.6960   28.9420   40.7740 F   0  0  0  0  0  0  0  0  0  0  0  0
   36.4770   27.6300   40.6160 F   0  0  0  0  0  0  0  0  0  0  0  0
   36.4880   29.3590   42.0940 F   0  0  0  0  0  0  0  0  0  0  0  0
   35.8450   28.4700   38.0260 O   0  0  0  0  0  0  0  0  0  0  0  0
   34.6320   28.5810   37.3830 C   0  0  0  0  0  0  0  0  0  0  0  0
   34.3820   27.2840   36.9590 C   0  0  0  0  0  0  0  0  0  0  0  0
   32.7520   27.4310   36.0990 S   0  0  0  0  0  0  0  0  0  0  0  0
   32.7030   29.2640   36.4780 C   0  0  0  0  0  0  0  0  0  0  0  0
   33.6550   29.3500   37.0180 N   0  0  0  0  0  0  0  0  0  0  0  0
   34.6490   26.0910   36.8400 H   0  0  0  0  0  0  0  0  0  0  0  0
   30.6950   30.5140   37.0710 C   0  0  0  0  0  3  0  0  0  0  0  0
   31.5850   30.1950   36.0720 C   0  0  0  0  0  0  0  0  0  0  0  0
   31.5760   30.6160   34.7720 C   0  0  0  0  0  0  0  0  0  0  0  0
   32.3290   30.3040   34.0630 H   0  0  0  0  0  0  0  0  0  0  0  0
   30.5410   31.4700   34.4270 C   0  0  0  0  0  0  0  0  0  0  0  0
   30.2100   32.0790   33.2630 N   0  0  0  0  0  0  0  0  0  0  0  0
   30.7610   31.9680   32.3720 H   0  0  0  0  0  0  0  0  0  0  0  0
   29.1090   32.8020   33.4700 N   0  0  0  0  0  0  0  0  0  0  0  0
   28.7000   32.6880   34.7450 C   0  0  0  0  0  0  0  0  0  0  0  0
   27.8310   33.1740   35.1750 H   0  0  0  0  0  0  0  0  0  0  0  0
   29.6010   31.8410   35.3740 C   0  0  0  0  0  0  0  0  0  0  0  0
   29.6950   31.3650   36.6530 C   0  0  0  0  0  3  0  0  0  0  0  0
  1  6  2  0  0  0  0
  1  2  1  0  0  0  0
  2  3  2  0  0  0  0
  3  4  1  0  0  0  0
  3 22  1  0  0  0  0
  5  9  1  0  0  0  0
  5  4  2  0  0  0  0
  6  5  1  0  0  0  0
  7  1  1  0  0  0  0
  8 16  1  0  0  0  0
  9  8  2  0  0  0  0
  9 10  1  0  0  0  0
 10 11  2  0  0  0  0
 11 15  1  0  0  0  0
 11 12  1  0  0  0  0
 12 19  1  0  0  0  0
 12 13  1  0  0  0  0
 13 20  1  0  0  0  0
 14 13  2  0  0  0  0
 15 14  1  0  0  0  0
 16 21  1  0  0  0  0
 16 15  2  0  0  0  0
 17  8  1  0  0  0  0
 18 10  1  0  0  0  0
 22 25  1  0  0  0  0
 23 22  1  0  0  0  0
 24 22  1  0  0  0  0
 26  2  1  0  0  0  0
 27 26  1  0  0  0  0
 28 27  2  0  0  0  0
 29 30  1  0  0  0  0
 29 28  1  0  0  0  0
 30 31  2  0  0  0  0
 31 27  1  0  0  0  0
 32 28  1  0  0  0  0
 34 30  1  0  0  0  0
 34 33  2  0  0  0  0
 35 34  1  0  0  0  0
 36 35  1  0  0  0  0
 37 35  2  0  0  0  0
 37 43  1  0  0  0  0
 38 40  1  0  0  0  0
 38 37  1  0  0  0  0
 39 38  1  0  0  0  0
 40 41  2  0  0  0  0
 41 42  1  0  0  0  0
 41 43  1  0  0  0  0
 43 44  2  0  0  0  0
 44 33  1  0  0  0  0
M  END
>  <minimizedAffinity>
-7.31882334

$$$$

 OpenBabel03242513103D

 44 49  0  0  0  0  0  0  0  0999 V2000
   37.1990   28.0040   39.9070 C   0  0  0  0  0  0  0  0  0  0  0  0
   37.1250   27.4950   41.2140 C   0  0  0  0  0  0  0  0  0  0  0  0
   37.3000   28.3920   42.2510 C   0  0  0  0  0  0  0  0  0  0  0  0
   37.5310   29.7000   41.9230 N   0  0  0  0  0  0  0  0  0  0  0  0
   37.5990   30.1670   40.6730 C   0  0  0  0  0  0  0  0  0  0  0  0
   37.4320   29.3180   39.6560 N   0  0  0  0  0  0  0  0  0  0  0  0
   37.0700   27.3450   39.0580 H   0  0  0  0  0  0  0  0  0  0  0  0
   36.9520   32.3430   39.7320 C   0  0  0  0  0  0  0  0  0  0  0  0
   37.8490   31.5740   40.4410 C   0  0  0  0  0  0  0  0  0  0  0  0
   39.0410   32.0960   40.9740 C   0  0  0  0  0  0  0  0  0  0  0  0
   39.3520   33.4400   40.7930 C   0  0  0  0  0  0  0  0  0  0  0  0
   40.3630   34.2720   41.1420 N   0  0  0  0  0  0  0  0  0  0  0  0
   40.0780   35.5130   40.6540 C   0  0  0  0  0  0  0  0  0  0  0  0
   38.8980   35.4310   40.0110 N   0  0  0  0  0  0  0  0  0  0  0  0
   38.4270   34.1740   40.0780 C   0  0  0  0  0  0  0  0  0  0  0  0
   37.2440   33.6920   39.5390 C   0  0  0  0  0  0  0  0  0  0  0  0
   36.0450   31.9400   39.3280 H   0  0  0  0  0  0  0  0  0  0  0  0
   39.7390   31.4870   41.5280 H   0  0  0  0  0  0  0  0  0  0  0  0
   41.1660   33.8800   41.6980 H   0  0  0  0  0  0  0  0  0  0  0  0
   40.8220   36.2670   40.8720 H   0  0  0  0  0  0  0  0  0  0  0  0
   36.5760   34.3390   38.9930 H   0  0  0  0  0  0  0  0  0  0  0  0
   37.2330   27.9160   43.6500 C   0  0  0  0  0  0  0  0  0  0  0  0
   36.0450   27.2110   43.8750 F   0  0  0  0  0  0  0  0  0  0  0  0
   38.2560   27.0350   43.9060 F   0  0  0  0  0  0  0  0  0  0  0  0
   37.2820   29.0090   44.4810 F   0  0  0  0  0  0  0  0  0  0  0  0
   36.8890   26.1730   41.3940 O   0  0  0  0  0  0  0  0  0  0  0  0
   37.6620   25.1980   40.8030 C   0  0  0  0  0  0  0  0  0  0  0  0
   37.0100   24.0240   41.1570 C   0  0  0  0  0  0  0  0  0  0  0  0
   38.0450   22.7150   40.3610 S   0  0  0  0  0  0  0  0  0  0  0  0
   39.1980   24.0230   39.6790 C   0  0  0  0  0  0  0  0  0  0  0  0
   38.7000   24.9140   40.0820 N   0  0  0  0  0  0  0  0  0  0  0  0
   36.1240   23.3770   41.7090 H   0  0  0  0  0  0  0  0  0  0  0  0
   40.3490   22.5890   38.0770 C   0  0  0  0  0  3  0  0  0  0  0  0
   40.4170   23.7360   38.8340 C   0  0  0  0  0  0  0  0  0  0  0  0
   41.4440   24.6330   38.9100 C   0  0  0  0  0  0  0  0  0  0  0  0
   41.3950   25.5090   39.5410 H   0  0  0  0  0  0  0  0  0  0  0  0
   42.5490   24.3470   38.1250 C   0  0  0  0  0  0  0  0  0  0  0  0
   43.7290   24.9870   37.9410 N   0  0  0  0  0  0  0  0  0  0  0  0
   43.9840   25.8860   38.4280 H   0  0  0  0  0  0  0  0  0  0  0  0
   44.4530   24.2830   37.0710 N   0  0  0  0  0  0  0  0  0  0  0  0
   43.7820   23.1890   36.6700 C   0  0  0  0  0  0  0  0  0  0  0  0
   44.1450   22.4490   35.9660 H   0  0  0  0  0  0  0  0  0  0  0  0
   42.5620   23.2110   37.3320 C   0  0  0  0  0  0  0  0  0  0  0  0
   41.4830   22.3710   37.3240 C   0  0  0  0  0  3  0  0  0  0  0  0
  1  2  1  0  0  0  0
  2 26  1  0  0  0  0
  2  3  2  0  0  0  0
  3 22  1  0  0  0  0
  4  3  1  0  0  0  0
  5  4  2  0  0  0  0
  6  1  2  0  0  0  0
  6  5  1  0  0  0  0
  7  1  1  0  0  0  0
  8  9  1  0  0  0  0
  9  5  1  0  0  0  0
  9 10  2  0  0  0  0
 10 18  1  0  0  0  0
 11 10  1  0  0  0  0
 11 12  1  0  0  0  0
 12 19  1  0  0  0  0
 13 20  1  0  0  0  0
 13 12  1  0  0  0  0
 14 15  1  0  0  0  0
 14 13  2  0  0  0  0
 15 11  2  0  0  0  0
 16  8  2  0  0  0  0
 16 15  1  0  0  0  0
 17  8  1  0  0  0  0
 21 16  1  0  0  0  0
 22 23  1  0  0  0  0
 22 24  1  0  0  0  0
 22 25  1  0  0  0  0
 27 28  2  0  0  0  0
 27 26  1  0  0  0  0
 28 32  1  0  0  0  0
 29 28  1  0  0  0  0
 30 31  2  0  0  0  0
 30 29  1  0  0  0  0
 31 27  1  0  0  0  0
 33 34  1  0  0  0  0
 34 35  2  0  0  0  0
 34 30  1  0  0  0  0
 35 36  1  0  0  0  0
 37 35  1  0  0  0  0
 38 37  1  0  0  0  0
 38 39  1  0  0  0  0
 40 38  1  0  0  0  0
 41 40  2  0  0  0  0
 41 43  1  0  0  0  0
 42 41  1  0  0  0  0
 43 37  2  0  0  0  0
 44 43  1  0  0  0  0
 44 33  2  0  0  0  0
M  END
>  <minimizedAffinity>
-7.15566111

$$$$

 OpenBabel03242513103D

 44 49  0  0  0  0  0  0  0  0999 V2000
   36.5880   27.9600   41.4380 C   0  0  0  0  0  0  0  0  0  0  0  0
   37.6070   27.3040   42.1460 C   0  0  0  0  0  0  0  0  0  0  0  0
   38.7560   28.0250   42.4100 C   0  0  0  0  0  0  0  0  0  0  0  0
   38.8090   29.3170   41.9620 N   0  0  0  0  0  0  0  0  0  0  0  0
   37.8280   29.9260   41.2880 C   0  0  0  0  0  0  0  0  0  0  0  0
   36.7090   29.2470   41.0230 N   0  0  0  0  0  0  0  0  0  0  0  0
   35.6660   27.4410   41.2040 H   0  0  0  0  0  0  0  0  0  0  0  0
   37.0220   31.9230   40.1070 C   0  0  0  0  0  0  0  0  0  0  0  0
   37.9910   31.2990   40.8610 C   0  0  0  0  0  0  0  0  0  0  0  0
   39.1780   31.9420   41.2560 C   0  0  0  0  0  0  0  0  0  0  0  0
   39.4070   33.2630   40.8840 C   0  0  0  0  0  0  0  0  0  0  0  0
   40.3880   34.1810   41.0660 N   0  0  0  0  0  0  0  0  0  0  0  0
   40.0150   35.3310   40.4350 C   0  0  0  0  0  0  0  0  0  0  0  0
   38.8120   35.1080   39.8730 N   0  0  0  0  0  0  0  0  0  0  0  0
   38.4130   33.8520   40.1300 C   0  0  0  0  0  0  0  0  0  0  0  0
   37.2320   33.2470   39.7230 C   0  0  0  0  0  0  0  0  0  0  0  0
   36.1200   31.4290   39.8090 H   0  0  0  0  0  0  0  0  0  0  0  0
   39.9320   31.4460   41.8460 H   0  0  0  0  0  0  0  0  0  0  0  0
   41.2370   33.9040   41.6250 H   0  0  0  0  0  0  0  0  0  0  0  0
   40.7270   36.1410   40.5120 H   0  0  0  0  0  0  0  0  0  0  0  0
   36.5060   33.7830   39.1330 H   0  0  0  0  0  0  0  0  0  0  0  0
   39.8660   27.3890   43.1530 C   0  0  0  0  0  0  0  0  0  0  0  0
   40.4710   26.3930   42.3770 F   0  0  0  0  0  0  0  0  0  0  0  0
   40.8490   28.3090   43.4280 F   0  0  0  0  0  0  0  0  0  0  0  0
   39.3560   26.8300   44.2990 F   0  0  0  0  0  0  0  0  0  0  0  0
   37.4210   26.0180   42.5310 O   0  0  0  0  0  0  0  0  0  0  0  0
   37.1490   25.0100   41.6320 C   0  0  0  0  0  0  0  0  0  0  0  0
   38.2610   24.1870   41.7390 C   0  0  0  0  0  0  0  0  0  0  0  0
   37.8950   22.8320   40.5360 S   0  0  0  0  0  0  0  0  0  0  0  0
   36.2670   23.6440   40.0960 C   0  0  0  0  0  0  0  0  0  0  0  0
   36.3290   24.5160   40.7600 N   0  0  0  0  0  0  0  0  0  0  0  0
   39.3560   23.8640   42.1930 H   0  0  0  0  0  0  0  0  0  0  0  0
   35.7430   23.0400   37.7920 C   0  0  0  0  0  3  0  0  0  0  0  0
   35.2820   23.1020   39.0870 C   0  0  0  0  0  0  0  0  0  0  0  0
   34.0550   22.7340   39.5610 C   0  0  0  0  0  0  0  0  0  0  0  0
   33.7940   22.8230   40.6050 H   0  0  0  0  0  0  0  0  0  0  0  0
   33.1710   22.2390   38.6150 C   0  0  0  0  0  0  0  0  0  0  0  0
   31.8980   21.7850   38.7050 N   0  0  0  0  0  0  0  0  0  0  0  0
   31.3570   21.7480   39.6090 H   0  0  0  0  0  0  0  0  0  0  0  0
   31.5000   21.4210   37.4860 N   0  0  0  0  0  0  0  0  0  0  0  0
   32.4790   21.6210   36.5870 C   0  0  0  0  0  0  0  0  0  0  0  0
   32.4140   21.4080   35.5260 H   0  0  0  0  0  0  0  0  0  0  0  0
   33.5560   22.1440   37.2880 C   0  0  0  0  0  0  0  0  0  0  0  0
   34.8100   22.5390   36.9100 C   0  0  0  0  0  3  0  0  0  0  0  0
  1  2  1  0  0  0  0
  2  3  2  0  0  0  0
  2 26  1  0  0  0  0
  3 22  1  0  0  0  0
  4  3  1  0  0  0  0
  5  4  2  0  0  0  0
  6  5  1  0  0  0  0
  6  1  2  0  0  0  0
  7  1  1  0  0  0  0
  8  9  1  0  0  0  0
  9 10  2  0  0  0  0
  9  5  1  0  0  0  0
 10 18  1  0  0  0  0
 11 12  1  0  0  0  0
 11 10  1  0  0  0  0
 12 19  1  0  0  0  0
 13 20  1  0  0  0  0
 13 12  1  0  0  0  0
 14 15  1  0  0  0  0
 14 13  2  0  0  0  0
 15 11  2  0  0  0  0
 16  8  2  0  0  0  0
 16 15  1  0  0  0  0
 17  8  1  0  0  0  0
 21 16  1  0  0  0  0
 22 24  1  0  0  0  0
 22 25  1  0  0  0  0
 23 22  1  0  0  0  0
 27 28  2  0  0  0  0
 27 26  1  0  0  0  0
 28 32  1  0  0  0  0
 29 28  1  0  0  0  0
 30 29  1  0  0  0  0
 30 31  2  0  0  0  0
 31 27  1  0  0  0  0
 33 34  1  0  0  0  0
 34 35  2  0  0  0  0
 34 30  1  0  0  0  0
 35 36  1  0  0  0  0
 37 38  1  0  0  0  0
 37 35  1  0  0  0  0
 38 39  1  0  0  0  0
 40 38  1  0  0  0  0
 41 43  1  0  0  0  0
 41 40  2  0  0  0  0
 42 41  1  0  0  0  0
 43 37  2  0  0  0  0
 44 43  1  0  0  0  0
 44 33  2  0  0  0  0
M  END
>  <minimizedAffinity>
-7.04467106

$$$$

 OpenBabel03242513103D

 44 49  0  0  0  0  0  0  0  0999 V2000
   36.3830   28.0920   40.2770 C   0  0  0  0  0  0  0  0  0  0  0  0
   36.8640   28.5670   41.5080 C   0  0  0  0  0  0  0  0  0  0  0  0
   37.4600   27.6470   42.3500 C   0  0  0  0  0  0  0  0  0  0  0  0
   37.5340   26.3500   41.9190 N   0  0  0  0  0  0  0  0  0  0  0  0
   37.0700   25.9150   40.7430 C   0  0  0  0  0  0  0  0  0  0  0  0
   36.4910   26.7870   39.9150 N   0  0  0  0  0  0  0  0  0  0  0  0
   35.9070   28.7690   39.5800 H   0  0  0  0  0  0  0  0  0  0  0  0
   38.3310   23.8070   40.7310 C   0  0  0  0  0  0  0  0  0  0  0  0
   37.2020   24.5180   40.3890 C   0  0  0  0  0  0  0  0  0  0  0  0
   36.1270   23.9440   39.6860 C   0  0  0  0  0  0  0  0  0  0  0  0
   36.1810   22.6060   39.3100 C   0  0  0  0  0  0  0  0  0  0  0  0
   35.3760   21.7360   38.6520 N   0  0  0  0  0  0  0  0  0  0  0  0
   36.0090   20.5290   38.6020 C   0  0  0  0  0  0  0  0  0  0  0  0
   37.1930   20.6700   39.2270 N   0  0  0  0  0  0  0  0  0  0  0  0
   37.3280   21.9300   39.6730 C   0  0  0  0  0  0  0  0  0  0  0  0
   38.4050   22.4650   40.3640 C   0  0  0  0  0  0  0  0  0  0  0  0
   39.1470   24.2490   41.2660 H   0  0  0  0  0  0  0  0  0  0  0  0
   35.2470   24.5080   39.4210 H   0  0  0  0  0  0  0  0  0  0  0  0
   34.4460   22.0820   38.2980 H   0  0  0  0  0  0  0  0  0  0  0  0
   35.4570   19.7490   38.0940 H   0  0  0  0  0  0  0  0  0  0  0  0
   39.2650   21.8610   40.6070 H   0  0  0  0  0  0  0  0  0  0  0  0
   37.9860   28.0870   43.6600 C   0  0  0  0  0  0  0  0  0  0  0  0
   36.9460   28.5310   44.4860 F   0  0  0  0  0  0  0  0  0  0  0  0
   38.5750   27.0350   44.3180 F   0  0  0  0  0  0  0  0  0  0  0  0
   38.8730   29.1150   43.4480 F   0  0  0  0  0  0  0  0  0  0  0  0
   36.7240   29.8810   41.8070 O   0  0  0  0  0  0  0  0  0  0  0  0
   37.4950   30.8590   41.2190 C   0  0  0  0  0  0  0  0  0  0  0  0
   36.5720   31.5830   40.4770 C   0  0  0  0  0  0  0  0  0  0  0  0
   37.6070   32.8980   39.6900 S   0  0  0  0  0  0  0  0  0  0  0  0
   39.1360   32.2130   40.5260 C   0  0  0  0  0  0  0  0  0  0  0  0
   38.6730   31.3770   41.0660 N   0  0  0  0  0  0  0  0  0  0  0  0
   35.4450   31.8300   40.0560 H   0  0  0  0  0  0  0  0  0  0  0  0
   40.6670   33.7270   39.3820 C   0  0  0  0  0  3  0  0  0  0  0  0
   40.5250   32.7870   40.3760 C   0  0  0  0  0  0  0  0  0  0  0  0
   41.4810   32.3170   41.2310 C   0  0  0  0  0  0  0  0  0  0  0  0
   41.2620   31.5720   41.9820 H   0  0  0  0  0  0  0  0  0  0  0  0
   42.7460   32.8600   41.0730 C   0  0  0  0  0  0  0  0  0  0  0  0
   43.9170   32.6480   41.7190 N   0  0  0  0  0  0  0  0  0  0  0  0
   44.0270   31.9660   42.5140 H   0  0  0  0  0  0  0  0  0  0  0  0
   44.8430   33.4350   41.1700 N   0  0  0  0  0  0  0  0  0  0  0  0
   44.3140   34.1670   40.1740 C   0  0  0  0  0  0  0  0  0  0  0  0
   44.8510   34.8850   39.5650 H   0  0  0  0  0  0  0  0  0  0  0  0
   42.9740   33.8140   40.0950 C   0  0  0  0  0  0  0  0  0  0  0  0
   41.9510   34.2210   39.2840 C   0  0  0  0  0  3  0  0  0  0  0  0
  1  2  1  0  0  0  0
  2 26  1  0  0  0  0
  2  3  2  0  0  0  0
  3 22  1  0  0  0  0
  4  3  1  0  0  0  0
  5  4  2  0  0  0  0
  6  1  2  0  0  0  0
  6  5  1  0  0  0  0
  7  1  1  0  0  0  0
  8 17  1  0  0  0  0
  9  8  1  0  0  0  0
  9  5  1  0  0  0  0
 10  9  2  0  0  0  0
 11 15  2  0  0  0  0
 11 10  1  0  0  0  0
 12 11  1  0  0  0  0
 13 12  1  0  0  0  0
 13 14  2  0  0  0  0
 14 15  1  0  0  0  0
 15 16  1  0  0  0  0
 16 21  1  0  0  0  0
 16  8  2  0  0  0  0
 18 10  1  0  0  0  0
 19 12  1  0  0  0  0
 20 13  1  0  0  0  0
 22 24  1  0  0  0  0
 22 23  1  0  0  0  0
 25 22  1  0  0  0  0
 27 26  1  0  0  0  0
 28 27  2  0  0  0  0
 29 28  1  0  0  0  0
 29 30  1  0  0  0  0
 30 31  2  0  0  0  0
 31 27  1  0  0  0  0
 32 28  1  0  0  0  0
 33 34  1  0  0  0  0
 34 30  1  0  0  0  0
 34 35  2  0  0  0  0
 35 36  1  0  0  0  0
 37 35  1  0  0  0  0
 37 38  1  0  0  0  0
 38 39  1  0  0  0  0
 40 38  1  0  0  0  0
 41 40  2  0  0  0  0
 42 41  1  0  0  0  0
 43 41  1  0  0  0  0
 43 37  2  0  0  0  0
 44 33  2  0  0  0  0
 44 43  1  0  0  0  0
M  END
>  <minimizedAffinity>
-6.94110203

$$$$

 OpenBabel03242513103D

 44 49  0  0  0  0  0  0  0  0999 V2000
   40.0090   27.3340   40.6290 C   0  0  0  0  0  0  0  0  0  0  0  0
   39.1770   27.0200   41.7160 C   0  0  0  0  0  0  0  0  0  0  0  0
   38.6100   28.0780   42.4010 C   0  0  0  0  0  0  0  0  0  0  0  0
   38.9040   29.3430   41.9680 N   0  0  0  0  0  0  0  0  0  0  0  0
   39.7000   29.6230   40.9310 C   0  0  0  0  0  0  0  0  0  0  0  0
   40.2570   28.6150   40.2540 N   0  0  0  0  0  0  0  0  0  0  0  0
   40.4790   26.5430   40.0570 H   0  0  0  0  0  0  0  0  0  0  0  0
   40.9450   31.3260   39.6740 C   0  0  0  0  0  0  0  0  0  0  0  0
   39.9410   31.0000   40.5590 C   0  0  0  0  0  0  0  0  0  0  0  0
   39.1050   31.9650   41.1480 C   0  0  0  0  0  0  0  0  0  0  0  0
   39.2770   33.3120   40.8410 C   0  0  0  0  0  0  0  0  0  0  0  0
   38.6920   34.4830   41.1920 N   0  0  0  0  0  0  0  0  0  0  0  0
   39.3310   35.4900   40.5300 C   0  0  0  0  0  0  0  0  0  0  0  0
   40.2990   34.9280   39.7820 N   0  0  0  0  0  0  0  0  0  0  0  0
   40.2910   33.5950   39.9500 C   0  0  0  0  0  0  0  0  0  0  0  0
   41.1340   32.6690   39.3520 C   0  0  0  0  0  0  0  0  0  0  0  0
   41.5800   30.5870   39.2290 H   0  0  0  0  0  0  0  0  0  0  0  0
   38.3220   31.7020   41.8410 H   0  0  0  0  0  0  0  0  0  0  0  0
   37.8890   34.4590   41.8720 H   0  0  0  0  0  0  0  0  0  0  0  0
   38.9480   36.4800   40.7340 H   0  0  0  0  0  0  0  0  0  0  0  0
   41.9040   32.9800   38.6640 H   0  0  0  0  0  0  0  0  0  0  0  0
   37.7250   27.8130   43.5560 C   0  0  0  0  0  0  0  0  0  0  0  0
   37.2470   29.0120   44.0980 F   0  0  0  0  0  0  0  0  0  0  0  0
   36.6170   27.1040   43.1580 F   0  0  0  0  0  0  0  0  0  0  0  0
   38.4480   27.1360   44.5090 F   0  0  0  0  0  0  0  0  0  0  0  0
   38.9720   25.7200   42.0360 O   0  0  0  0  0  0  0  0  0  0  0  0
   38.2060   24.8800   41.2590 C   0  0  0  0  0  0  0  0  0  0  0  0
   38.9620   23.7170   41.2150 C   0  0  0  0  0  0  0  0  0  0  0  0
   37.9330   22.5870   40.1740 S   0  0  0  0  0  0  0  0  0  0  0  0
   36.6370   23.9240   39.9820 C   0  0  0  0  0  0  0  0  0  0  0  0
   37.1190   24.7130   40.5740 N   0  0  0  0  0  0  0  0  0  0  0  0
   39.9400   23.0250   41.4870 H   0  0  0  0  0  0  0  0  0  0  0  0
   35.2020   24.6530   38.1500 C   0  0  0  0  0  3  0  0  0  0  0  0
   35.3570   23.7720   39.1950 C   0  0  0  0  0  0  0  0  0  0  0  0
   34.4990   22.7880   39.5990 C   0  0  0  0  0  0  0  0  0  0  0  0
   34.7190   22.1460   40.4390 H   0  0  0  0  0  0  0  0  0  0  0  0
   33.3330   22.6690   38.8600 C   0  0  0  0  0  0  0  0  0  0  0  0
   32.2720   21.8320   38.9570 N   0  0  0  0  0  0  0  0  0  0  0  0
   32.1900   21.0810   39.6910 H   0  0  0  0  0  0  0  0  0  0  0  0
   31.4080   22.1430   37.9900 N   0  0  0  0  0  0  0  0  0  0  0  0
   31.8700   23.1660   37.2510 C   0  0  0  0  0  0  0  0  0  0  0  0
   31.3620   23.6120   36.4040 H   0  0  0  0  0  0  0  0  0  0  0  0
   33.0990   23.5180   37.7910 C   0  0  0  0  0  0  0  0  0  0  0  0
   34.0200   24.4740   37.4630 C   0  0  0  0  0  3  0  0  0  0  0  0
  1  2  1  0  0  0  0
  2 26  1  0  0  0  0
  2  3  2  0  0  0  0
  3 22  1  0  0  0  0
  4  3  1  0  0  0  0
  5  4  2  0  0  0  0
  6  1  2  0  0  0  0
  6  5  1  0  0  0  0
  7  1  1  0  0  0  0
  8  9  1  0  0  0  0
  9  5  1  0  0  0  0
  9 10  2  0  0  0  0
 10 18  1  0  0  0  0
 11 10  1  0  0  0  0
 11 12  1  0  0  0  0
 12 19  1  0  0  0  0
 13 20  1  0  0  0  0
 13 12  1  0  0  0  0
 14 15  1  0  0  0  0
 14 13  2  0  0  0  0
 15 11  2  0  0  0  0
 16  8  2  0  0  0  0
 16 15  1  0  0  0  0
 17  8  1  0  0  0  0
 21 16  1  0  0  0  0
 22 23  1  0  0  0  0
 22 25  1  0  0  0  0
 24 22  1  0  0  0  0
 27 26  1  0  0  0  0
 28 27  2  0  0  0  0
 28 32  1  0  0  0  0
 29 28  1  0  0  0  0
 30 29  1  0  0  0  0
 30 31  2  0  0  0  0
 31 27  1  0  0  0  0
 33 34  1  0  0  0  0
 34 35  2  0  0  0  0
 34 30  1  0  0  0  0
 35 36  1  0  0  0  0
 37 38  1  0  0  0  0
 37 35  1  0  0  0  0
 38 39  1  0  0  0  0
 40 38  1  0  0  0  0
 41 43  1  0  0  0  0
 41 40  2  0  0  0  0
 42 41  1  0  0  0  0
 43 37  2  0  0  0  0
 44 43  1  0  0  0  0
 44 33  2  0  0  0  0
M  END
>  <minimizedAffinity>
-6.91324806

$$$$

 OpenBabel03242513103D

 44 49  0  0  0  0  0  0  0  0999 V2000
   38.1530   28.1070   39.6790 C   0  0  0  0  0  0  0  0  0  0  0  0
   37.8550   27.5510   40.9330 C   0  0  0  0  0  0  0  0  0  0  0  0
   37.6830   28.4280   41.9870 C   0  0  0  0  0  0  0  0  0  0  0  0
   37.8170   29.7650   41.7260 N   0  0  0  0  0  0  0  0  0  0  0  0
   38.1020   30.2770   40.5250 C   0  0  0  0  0  0  0  0  0  0  0  0
   38.2710   29.4470   39.4920 N   0  0  0  0  0  0  0  0  0  0  0  0
   38.2990   27.4660   38.8190 H   0  0  0  0  0  0  0  0  0  0  0  0
   37.2180   32.4360   39.7550 C   0  0  0  0  0  0  0  0  0  0  0  0
   38.2190   31.7110   40.3620 C   0  0  0  0  0  0  0  0  0  0  0  0
   39.3970   32.3030   40.8520 C   0  0  0  0  0  0  0  0  0  0  0  0
   39.5830   33.6770   40.7310 C   0  0  0  0  0  0  0  0  0  0  0  0
   40.5430   34.5730   41.0670 N   0  0  0  0  0  0  0  0  0  0  0  0
   40.1260   35.8090   40.6710 C   0  0  0  0  0  0  0  0  0  0  0  0
   38.9180   35.6600   40.0960 N   0  0  0  0  0  0  0  0  0  0  0  0
   38.5570   34.3670   40.1180 C   0  0  0  0  0  0  0  0  0  0  0  0
   37.3850   33.8140   39.6240 C   0  0  0  0  0  0  0  0  0  0  0  0
   36.3230   31.9790   39.3830 H   0  0  0  0  0  0  0  0  0  0  0  0
   40.1770   31.7280   41.3250 H   0  0  0  0  0  0  0  0  0  0  0  0
   41.4110   34.2210   41.5500 H   0  0  0  0  0  0  0  0  0  0  0  0
   40.8180   36.6110   40.8880 H   0  0  0  0  0  0  0  0  0  0  0  0
   36.6330   34.4300   39.1570 H   0  0  0  0  0  0  0  0  0  0  0  0
   37.3680   27.9030   43.3330 C   0  0  0  0  0  0  0  0  0  0  0  0
   36.1560   27.2020   43.3180 F   0  0  0  0  0  0  0  0  0  0  0  0
   38.3260   27.0040   43.7340 F   0  0  0  0  0  0  0  0  0  0  0  0
   37.2710   28.9650   44.2000 F   0  0  0  0  0  0  0  0  0  0  0  0
   37.7520   26.2050   41.0490 O   0  0  0  0  0  0  0  0  0  0  0  0
   36.9520   25.4510   40.2190 C   0  0  0  0  0  0  0  0  0  0  0  0
   36.8170   24.2570   40.9130 C   0  0  0  0  0  0  0  0  0  0  0  0
   35.7410   23.2460   39.8010 S   0  0  0  0  0  0  0  0  0  0  0  0
   35.6680   24.6540   38.5700 C   0  0  0  0  0  0  0  0  0  0  0  0
   36.2930   25.3800   39.1070 N   0  0  0  0  0  0  0  0  0  0  0  0
   37.0210   23.5020   41.8610 H   0  0  0  0  0  0  0  0  0  0  0  0
   33.9900   25.6200   37.0880 C   0  0  0  0  0  3  0  0  0  0  0  0
   34.9110   24.6140   37.2630 C   0  0  0  0  0  0  0  0  0  0  0  0
   35.2170   23.5960   36.4050 C   0  0  0  0  0  0  0  0  0  0  0  0
   35.9640   22.8520   36.6420 H   0  0  0  0  0  0  0  0  0  0  0  0
   34.5100   23.5830   35.2140 C   0  0  0  0  0  0  0  0  0  0  0  0
   34.5380   22.7510   34.1450 N   0  0  0  0  0  0  0  0  0  0  0  0
   35.1740   21.9140   34.0760 H   0  0  0  0  0  0  0  0  0  0  0  0
   33.6460   23.1880   33.2550 N   0  0  0  0  0  0  0  0  0  0  0  0
   33.0250   24.2910   33.7080 C   0  0  0  0  0  0  0  0  0  0  0  0
   32.2570   24.8450   33.1790 H   0  0  0  0  0  0  0  0  0  0  0  0
   33.5620   24.5600   34.9590 C   0  0  0  0  0  0  0  0  0  0  0  0
   33.3260   25.5410   35.8820 C   0  0  0  0  0  3  0  0  0  0  0  0
  1  2  1  0  0  0  0
  2 26  1  0  0  0  0
  2  3  2  0  0  0  0
  3 22  1  0  0  0  0
  4  3  1  0  0  0  0
  5  4  2  0  0  0  0
  6  1  2  0  0  0  0
  6  5  1  0  0  0  0
  7  1  1  0  0  0  0
  8  9  1  0  0  0  0
  9  5  1  0  0  0  0
  9 10  2  0  0  0  0
 10 18  1  0  0  0  0
 11 10  1  0  0  0  0
 11 12  1  0  0  0  0
 12 19  1  0  0  0  0
 13 20  1  0  0  0  0
 13 12  1  0  0  0  0
 14 15  1  0  0  0  0
 14 13  2  0  0  0  0
 15 11  2  0  0  0  0
 16  8  2  0  0  0  0
 16 15  1  0  0  0  0
 17  8  1  0  0  0  0
 21 16  1  0  0  0  0
 22 24  1  0  0  0  0
 22 25  1  0  0  0  0
 23 22  1  0  0  0  0
 27 28  2  0  0  0  0
 27 26  1  0  0  0  0
 28 32  1  0  0  0  0
 29 28  1  0  0  0  0
 30 31  2  0  0  0  0
 30 29  1  0  0  0  0
 31 27  1  0  0  0  0
 33 34  1  0  0  0  0
 34 30  1  0  0  0  0
 35 36  1  0  0  0  0
 35 34  2  0  0  0  0
 37 35  1  0  0  0  0
 38 37  1  0  0  0  0
 39 38  1  0  0  0  0
 40 41  2  0  0  0  0
 40 38  1  0  0  0  0
 41 43  1  0  0  0  0
 42 41  1  0  0  0  0
 43 37  2  0  0  0  0
 43 44  1  0  0  0  0
 44 33  2  0  0  0  0
M  END
>  <minimizedAffinity>
-6.78901386

$$$$

 OpenBabel03242513103D

 44 49  0  0  0  0  0  0  0  0999 V2000
   38.9690   28.0310   40.0690 C   0  0  0  0  0  0  0  0  0  0  0  0
   38.5040   27.4920   41.2790 C   0  0  0  0  0  0  0  0  0  0  0  0
   38.0050   28.3800   42.2140 C   0  0  0  0  0  0  0  0  0  0  0  0
   38.0040   29.7090   41.8870 N   0  0  0  0  0  0  0  0  0  0  0  0
   38.4520   30.2040   40.7280 C   0  0  0  0  0  0  0  0  0  0  0  0
   38.9370   29.3640   39.8110 N   0  0  0  0  0  0  0  0  0  0  0  0
   39.3710   27.3800   39.3010 H   0  0  0  0  0  0  0  0  0  0  0  0
   37.3150   32.2040   39.8680 C   0  0  0  0  0  0  0  0  0  0  0  0
   38.4030   31.6300   40.4880 C   0  0  0  0  0  0  0  0  0  0  0  0
   39.5150   32.3780   40.9160 C   0  0  0  0  0  0  0  0  0  0  0  0
   39.5410   33.7550   40.7190 C   0  0  0  0  0  0  0  0  0  0  0  0
   40.3990   34.7700   40.9830 N   0  0  0  0  0  0  0  0  0  0  0  0
   39.8370   35.9280   40.5330 C   0  0  0  0  0  0  0  0  0  0  0  0
   38.6430   35.6130   39.9970 N   0  0  0  0  0  0  0  0  0  0  0  0
   38.4320   34.2900   40.0960 C   0  0  0  0  0  0  0  0  0  0  0  0
   37.3210   33.5830   39.6610 C   0  0  0  0  0  0  0  0  0  0  0  0
   36.4710   31.6300   39.5440 H   0  0  0  0  0  0  0  0  0  0  0  0
   40.3630   31.9210   41.4000 H   0  0  0  0  0  0  0  0  0  0  0  0
   41.3100   34.5460   41.4620 H   0  0  0  0  0  0  0  0  0  0  0  0
   40.4370   36.8140   40.6900 H   0  0  0  0  0  0  0  0  0  0  0  0
   36.4950   34.0830   39.1820 H   0  0  0  0  0  0  0  0  0  0  0  0
   37.5000   27.8740   43.5090 C   0  0  0  0  0  0  0  0  0  0  0  0
   38.4940   27.1460   44.1750 F   0  0  0  0  0  0  0  0  0  0  0  0
   37.1700   28.9190   44.3370 F   0  0  0  0  0  0  0  0  0  0  0  0
   36.4220   27.0570   43.2630 F   0  0  0  0  0  0  0  0  0  0  0  0
   38.5640   26.1520   41.4710 O   0  0  0  0  0  0  0  0  0  0  0  0
   37.9800   25.2550   40.6050 C   0  0  0  0  0  0  0  0  0  0  0  0
   37.2970   24.3970   41.4550 C   0  0  0  0  0  0  0  0  0  0  0  0
   36.5100   23.1940   40.2930 S   0  0  0  0  0  0  0  0  0  0  0  0
   37.2650   24.0900   38.8340 C   0  0  0  0  0  0  0  0  0  0  0  0
   37.7990   24.8800   39.3780 N   0  0  0  0  0  0  0  0  0  0  0  0
   36.9290   23.9970   42.5570 H   0  0  0  0  0  0  0  0  0  0  0  0
   36.9260   22.3390   37.1710 C   0  0  0  0  0  3  0  0  0  0  0  0
   37.0780   23.6890   37.3890 C   0  0  0  0  0  0  0  0  0  0  0  0
   37.0800   24.6940   36.4650 C   0  0  0  0  0  0  0  0  0  0  0  0
   37.2070   25.7300   36.7450 H   0  0  0  0  0  0  0  0  0  0  0  0
   36.9050   24.2980   35.1480 C   0  0  0  0  0  0  0  0  0  0  0  0
   36.8520   24.9920   33.9860 N   0  0  0  0  0  0  0  0  0  0  0  0
   36.9480   26.0400   33.9300 H   0  0  0  0  0  0  0  0  0  0  0  0
   36.6670   24.1240   32.9920 N   0  0  0  0  0  0  0  0  0  0  0  0
   36.5950   22.8680   33.4660 C   0  0  0  0  0  0  0  0  0  0  0  0
   36.4480   21.9760   32.8680 H   0  0  0  0  0  0  0  0  0  0  0  0
   36.7460   22.9570   34.8420 C   0  0  0  0  0  0  0  0  0  0  0  0
   36.7590   22.0220   35.8400 C   0  0  0  0  0  3  0  0  0  0  0  0
  1  2  1  0  0  0  0
  2 26  1  0  0  0  0
  2  3  2  0  0  0  0
  3 22  1  0  0  0  0
  4  3  1  0  0  0  0
  5  4  2  0  0  0  0
  6  1  2  0  0  0  0
  6  5  1  0  0  0  0
  7  1  1  0  0  0  0
  8  9  1  0  0  0  0
  9  5  1  0  0  0  0
  9 10  2  0  0  0  0
 10 18  1  0  0  0  0
 11 10  1  0  0  0  0
 11 12  1  0  0  0  0
 12 19  1  0  0  0  0
 13 20  1  0  0  0  0
 13 12  1  0  0  0  0
 14 15  1  0  0  0  0
 14 13  2  0  0  0  0
 15 11  2  0  0  0  0
 16  8  2  0  0  0  0
 16 15  1  0  0  0  0
 17  8  1  0  0  0  0
 21 16  1  0  0  0  0
 22 23  1  0  0  0  0
 22 24  1  0  0  0  0
 25 22  1  0  0  0  0
 27 28  2  0  0  0  0
 27 26  1  0  0  0  0
 28 32  1  0  0  0  0
 29 28  1  0  0  0  0
 30 31  2  0  0  0  0
 30 29  1  0  0  0  0
 31 27  1  0  0  0  0
 33 34  1  0  0  0  0
 34 30  1  0  0  0  0
 35 36  1  0  0  0  0
 35 34  2  0  0  0  0
 37 35  1  0  0  0  0
 38 37  1  0  0  0  0
 39 38  1  0  0  0  0
 40 41  2  0  0  0  0
 40 38  1  0  0  0  0
 41 43  1  0  0  0  0
 42 41  1  0  0  0  0
 43 37  2  0  0  0  0
 43 44  1  0  0  0  0
 44 33  2  0  0  0  0
M  END
>  <minimizedAffinity>
-6.77802038

$$$$
