
 OpenBabel03252506043D

 46 51  0  0  0  0  0  0  0  0999 V2000
   44.8260   36.0330   43.1910 Cl  0  0  0  0  0  0  0  0  0  0  0  0
   45.5650   34.7840   44.1470 C   0  0  0  0  0  0  0  0  0  0  0  0
   46.6740   34.1040   43.6710 C   0  0  0  0  0  0  0  0  0  0  0  0
   47.1790   33.1390   44.5030 C   0  0  0  0  0  0  0  0  0  0  0  0
   46.6680   32.8120   45.7450 C   0  0  0  0  0  0  0  0  0  0  0  0
   45.5680   33.5080   46.1850 C   0  0  0  0  0  0  0  0  0  0  0  0
   44.9480   33.0670   47.7650 Cl  0  0  0  0  0  0  0  0  0  0  0  0
   45.0240   34.4830   45.3930 C   0  0  0  0  0  0  0  0  0  0  0  0
   48.0560   32.6050   44.1210 H   0  0  0  0  0  0  0  0  0  0  0  0
   44.1660   35.0010   45.7750 H   0  0  0  0  0  0  0  0  0  0  0  0
   47.3510   31.7490   46.4820 C   0  0  0  0  0  0  0  0  0  0  0  0
   47.4810   30.4640   45.9980 C   0  0  0  0  0  0  0  0  0  0  0  0
   48.1230   29.4400   46.6780 C   0  0  0  0  0  0  0  0  0  0  0  0
   48.6700   29.7150   47.9190 C   0  0  0  0  0  0  0  0  0  0  0  0
   49.2850   28.6970   48.5490 N   0  0  0  0  0  0  0  0  0  0  0  0
   49.8530   28.8700   49.7730 C   0  0  0  0  0  0  0  0  0  0  0  0
   49.7610   30.1350   50.3230 C   0  0  0  0  0  0  0  0  0  0  0  0
   49.1320   31.1530   49.6650 C   0  0  0  0  0  0  0  0  0  0  0  0
   48.5630   30.9720   48.4330 C   0  0  0  0  0  0  0  0  0  0  0  0
   47.9180   31.9740   47.7330 C   0  0  0  0  0  0  0  0  0  0  0  0
   47.0370   30.2940   45.0200 H   0  0  0  0  0  0  0  0  0  0  0  0
   48.1670   28.4660   46.2020 H   0  0  0  0  0  0  0  0  0  0  0  0
   50.3380   28.0050   50.2330 H   0  0  0  0  0  0  0  0  0  0  0  0
   50.2160   30.2640   51.2950 H   0  0  0  0  0  0  0  0  0  0  0  0
   49.0880   32.1320   50.1410 H   0  0  0  0  0  0  0  0  0  0  0  0
   47.8640   32.9530   48.1940 H   0  0  0  0  0  0  0  0  0  0  0  0
   48.8450   35.5240   41.1200 C   0  0  0  0  0  0  0  0  0  0  0  0
   48.3760   34.9390   39.9360 C   0  0  0  0  0  0  0  0  0  0  0  0
   47.2940   34.0390   40.0170 C   0  0  0  0  0  0  0  0  0  0  0  0
   46.7890   33.8120   41.2430 N   0  0  0  0  0  0  0  0  0  0  0  0
   47.2640   34.3940   42.3760 C   0  0  0  0  0  0  0  0  0  0  0  0
   48.2900   35.2500   42.3200 N   0  0  0  0  0  0  0  0  0  0  0  0
   49.6710   36.2120   41.0710 H   0  0  0  0  0  0  0  0  0  0  0  0
   48.7890   35.1320   38.9740 H   0  0  0  0  0  0  0  0  0  0  0  0
   47.5490   33.0640   37.8360 C   0  0  0  0  0  3  0  0  0  0  0  0
   46.7050   33.3590   38.8720 C   0  0  0  0  0  0  0  0  0  0  0  0
   45.3710   33.0200   38.8090 C   0  0  0  0  0  0  0  0  0  0  0  0
   44.7050   33.2450   39.6110 H   0  0  0  0  0  0  0  0  0  0  0  0
   44.8410   32.3750   37.7110 C   0  0  0  0  0  0  0  0  0  0  0  0
   43.6100   31.9380   37.3910 N   0  0  0  0  0  0  0  0  0  0  0  0
   42.7810   32.0550   38.0430 H   0  0  0  0  0  0  0  0  0  0  0  0
   43.6580   31.3820   36.1940 N   0  0  0  0  0  0  0  0  0  0  0  0
   44.9090   31.4390   35.7050 C   0  0  0  0  0  0  0  0  0  0  0  0
   45.2450   31.0680   34.7580 H   0  0  0  0  0  0  0  0  0  0  0  0
   45.7060   32.0770   36.6580 C   0  0  0  0  0  0  0  0  0  0  0  0
   47.0610   32.4120   36.6990 C   0  0  0  0  0  3  0  0  0  0  0  0
  1  2  1  0  0  0  0
  2  8  1  0  0  0  0
  3  2  2  0  0  0  0
  3  4  1  0  0  0  0
  4  5  2  0  0  0  0
  5  6  1  0  0  0  0
  5 11  1  0  0  0  0
  6  7  1  0  0  0  0
  8 10  1  0  0  0  0
  8  6  2  0  0  0  0
  9  4  1  0  0  0  0
 11 20  1  0  0  0  0
 12 11  2  0  0  0  0
 12 13  1  0  0  0  0
 13 14  2  0  0  0  0
 14 19  1  0  0  0  0
 14 15  1  0  0  0  0
 15 16  2  0  0  0  0
 16 23  1  0  0  0  0
 16 17  1  0  0  0  0
 17 24  1  0  0  0  0
 18 25  1  0  0  0  0
 18 17  2  0  0  0  0
 19 18  1  0  0  0  0
 20 26  1  0  0  0  0
 20 19  2  0  0  0  0
 21 12  1  0  0  0  0
 22 13  1  0  0  0  0
 27 32  1  0  0  0  0
 28 29  1  0  0  0  0
 28 27  2  0  0  0  0
 29 30  2  0  0  0  0
 30 31  1  0  0  0  0
 31  3  1  0  0  0  0
 32 31  2  0  0  0  0
 33 27  1  0  0  0  0
 34 28  1  0  0  0  0
 35 36  1  0  0  0  0
 36 29  1  0  0  0  0
 37 36  2  0  0  0  0
 37 38  1  0  0  0  0
 39 37  1  0  0  0  0
 40 39  1  0  0  0  0
 40 41  1  0  0  0  0
 42 40  1  0  0  0  0
 43 42  2  0  0  0  0
 43 45  1  0  0  0  0
 44 43  1  0  0  0  0
 45 46  1  0  0  0  0
 45 39  2  0  0  0  0
 46 35  2  0  0  0  0
M  END
>  <minimizedAffinity>
-7.58272028

>  <minimizedRMSD>
0.1495924

$$$$
