
 OpenBabel03252506033D

 46 51  0  0  0  0  0  0  0  0999 V2000
   44.8310   36.0030   43.3300 Cl  0  0  0  0  0  0  0  0  0  0  0  0
   45.5770   34.7480   44.2720 C   0  0  0  0  0  0  0  0  0  0  0  0
   46.7070   34.0990   43.8010 C   0  0  0  0  0  0  0  0  0  0  0  0
   47.2150   33.1260   44.6210 C   0  0  0  0  0  0  0  0  0  0  0  0
   46.6890   32.7630   45.8460 C   0  0  0  0  0  0  0  0  0  0  0  0
   45.5680   33.4280   46.2810 C   0  0  0  0  0  0  0  0  0  0  0  0
   44.9290   32.9410   47.8400 Cl  0  0  0  0  0  0  0  0  0  0  0  0
   45.0190   34.4090   45.5010 C   0  0  0  0  0  0  0  0  0  0  0  0
   48.1080   32.6170   44.2430 H   0  0  0  0  0  0  0  0  0  0  0  0
   44.1450   34.9030   45.8780 H   0  0  0  0  0  0  0  0  0  0  0  0
   47.3790   31.6960   46.5730 C   0  0  0  0  0  0  0  0  0  0  0  0
   47.4960   30.4110   46.0850 C   0  0  0  0  0  0  0  0  0  0  0  0
   48.1450   29.3850   46.7560 C   0  0  0  0  0  0  0  0  0  0  0  0
   48.7120   29.6570   47.9880 C   0  0  0  0  0  0  0  0  0  0  0  0
   49.3330   28.6370   48.6080 N   0  0  0  0  0  0  0  0  0  0  0  0
   49.9200   28.8070   49.8230 C   0  0  0  0  0  0  0  0  0  0  0  0
   49.8430   30.0720   50.3740 C   0  0  0  0  0  0  0  0  0  0  0  0
   49.2070   31.0930   49.7270 C   0  0  0  0  0  0  0  0  0  0  0  0
   48.6180   30.9140   48.5040 C   0  0  0  0  0  0  0  0  0  0  0  0
   47.9660   31.9190   47.8140 C   0  0  0  0  0  0  0  0  0  0  0  0
   47.0360   30.2430   45.1150 H   0  0  0  0  0  0  0  0  0  0  0  0
   48.1780   28.4110   46.2790 H   0  0  0  0  0  0  0  0  0  0  0  0
   50.4090   27.9400   50.2760 H   0  0  0  0  0  0  0  0  0  0  0  0
   50.3130   30.1990   51.3400 H   0  0  0  0  0  0  0  0  0  0  0  0
   49.1740   32.0720   50.2040 H   0  0  0  0  0  0  0  0  0  0  0  0
   47.9240   32.8980   48.2760 H   0  0  0  0  0  0  0  0  0  0  0  0
   48.9250   35.5770   41.3250 C   0  0  0  0  0  0  0  0  0  0  0  0
   48.4570   35.0470   40.1150 C   0  0  0  0  0  0  0  0  0  0  0  0
   47.3580   34.1650   40.1520 C   0  0  0  0  0  0  0  0  0  0  0  0
   46.8390   33.8990   41.3650 N   0  0  0  0  0  0  0  0  0  0  0  0
   47.3130   34.4290   42.5230 C   0  0  0  0  0  0  0  0  0  0  0  0
   48.3550   35.2670   42.5090 N   0  0  0  0  0  0  0  0  0  0  0  0
   49.7640   36.2520   41.3100 H   0  0  0  0  0  0  0  0  0  0  0  0
   48.8830   35.2700   39.1650 H   0  0  0  0  0  0  0  0  0  0  0  0
   45.5390   32.9620   39.1440 C   0  0  0  0  0  3  0  0  0  0  0  0
   46.7690   33.5390   38.9770 C   0  0  0  0  0  0  0  0  0  0  0  0
   47.3940   33.5180   37.7490 C   0  0  0  0  0  0  0  0  0  0  0  0
   48.3510   33.9650   37.6080 H   0  0  0  0  0  0  0  0  0  0  0  0
   46.8100   32.9180   36.6540 C   0  0  0  0  0  0  0  0  0  0  0  0
   47.1840   32.7530   35.3720 N   0  0  0  0  0  0  0  0  0  0  0  0
   48.1070   33.1190   35.0010 H   0  0  0  0  0  0  0  0  0  0  0  0
   46.2310   32.0940   34.7370 N   0  0  0  0  0  0  0  0  0  0  0  0
   45.2200   31.8120   35.5770 C   0  0  0  0  0  0  0  0  0  0  0  0
   44.3170   31.2890   35.3400 H   0  0  0  0  0  0  0  0  0  0  0  0
   45.5570   32.3300   36.8290 C   0  0  0  0  0  0  0  0  0  0  0  0
   44.9040   32.3400   38.0630 C   0  0  0  0  0  3  0  0  0  0  0  0
  1  2  1  0  0  0  0
  2  8  1  0  0  0  0
  3  2  2  0  0  0  0
  3  4  1  0  0  0  0
  4  5  2  0  0  0  0
  5  6  1  0  0  0  0
  5 11  1  0  0  0  0
  6  7  1  0  0  0  0
  8 10  1  0  0  0  0
  8  6  2  0  0  0  0
  9  4  1  0  0  0  0
 11 20  1  0  0  0  0
 12 11  2  0  0  0  0
 12 13  1  0  0  0  0
 13 14  2  0  0  0  0
 14 19  1  0  0  0  0
 14 15  1  0  0  0  0
 15 16  2  0  0  0  0
 16 23  1  0  0  0  0
 16 17  1  0  0  0  0
 17 24  1  0  0  0  0
 18 25  1  0  0  0  0
 18 17  2  0  0  0  0
 19 18  1  0  0  0  0
 20 26  1  0  0  0  0
 20 19  2  0  0  0  0
 21 12  1  0  0  0  0
 22 13  1  0  0  0  0
 27 32  1  0  0  0  0
 28 29  1  0  0  0  0
 28 27  2  0  0  0  0
 29 30  2  0  0  0  0
 30 31  1  0  0  0  0
 31  3  1  0  0  0  0
 32 31  2  0  0  0  0
 33 27  1  0  0  0  0
 34 28  1  0  0  0  0
 36 35  1  0  0  0  0
 36 29  1  0  0  0  0
 37 36  2  0  0  0  0
 38 37  1  0  0  0  0
 39 45  2  0  0  0  0
 39 37  1  0  0  0  0
 40 39  1  0  0  0  0
 41 40  1  0  0  0  0
 42 40  1  0  0  0  0
 42 43  2  0  0  0  0
 43 45  1  0  0  0  0
 44 43  1  0  0  0  0
 45 46  1  0  0  0  0
 46 35  2  0  0  0  0
M  END
>  <minimizedAffinity>
-7.90448475

>  <minimizedRMSD>
0.441172302

$$$$
