
 OpenBabel03252506043D

 46 51  0  0  0  0  0  0  0  0999 V2000
   44.7670   35.9890   43.0640 Cl  0  0  0  0  0  0  0  0  0  0  0  0
   45.5120   34.7580   44.0390 C   0  0  0  0  0  0  0  0  0  0  0  0
   46.5780   34.0250   43.5430 C   0  0  0  0  0  0  0  0  0  0  0  0
   47.0920   33.0790   44.3920 C   0  0  0  0  0  0  0  0  0  0  0  0
   46.6280   32.8180   45.6670 C   0  0  0  0  0  0  0  0  0  0  0  0
   45.5690   33.5650   46.1260 C   0  0  0  0  0  0  0  0  0  0  0  0
   45.0080   33.2080   47.7490 Cl  0  0  0  0  0  0  0  0  0  0  0  0
   45.0180   34.5230   45.3180 C   0  0  0  0  0  0  0  0  0  0  0  0
   47.9340   32.5030   43.9940 H   0  0  0  0  0  0  0  0  0  0  0  0
   44.1940   35.0830   45.7150 H   0  0  0  0  0  0  0  0  0  0  0  0
   47.3120   31.7650   46.4180 C   0  0  0  0  0  0  0  0  0  0  0  0
   47.4470   30.4750   45.9470 C   0  0  0  0  0  0  0  0  0  0  0  0
   48.0910   29.4610   46.6400 C   0  0  0  0  0  0  0  0  0  0  0  0
   48.6330   29.7510   47.8790 C   0  0  0  0  0  0  0  0  0  0  0  0
   49.2500   28.7410   48.5220 N   0  0  0  0  0  0  0  0  0  0  0  0
   49.8140   28.9290   49.7450 C   0  0  0  0  0  0  0  0  0  0  0  0
   49.7160   30.1990   50.2820 C   0  0  0  0  0  0  0  0  0  0  0  0
   49.0860   31.2080   49.6120 C   0  0  0  0  0  0  0  0  0  0  0  0
   48.5200   31.0130   48.3800 C   0  0  0  0  0  0  0  0  0  0  0  0
   47.8740   32.0050   47.6680 C   0  0  0  0  0  0  0  0  0  0  0  0
   47.0070   30.2940   44.9690 H   0  0  0  0  0  0  0  0  0  0  0  0
   48.1390   28.4820   46.1740 H   0  0  0  0  0  0  0  0  0  0  0  0
   50.3000   28.0700   50.2160 H   0  0  0  0  0  0  0  0  0  0  0  0
   50.1680   30.3400   51.2540 H   0  0  0  0  0  0  0  0  0  0  0  0
   49.0370   32.1920   50.0770 H   0  0  0  0  0  0  0  0  0  0  0  0
   47.8170   32.9880   48.1180 H   0  0  0  0  0  0  0  0  0  0  0  0
   48.6470   35.3020   40.8370 C   0  0  0  0  0  0  0  0  0  0  0  0
   48.1340   34.6550   39.7050 C   0  0  0  0  0  0  0  0  0  0  0  0
   47.0560   33.7630   39.8760 C   0  0  0  0  0  0  0  0  0  0  0  0
   46.5990   33.6020   41.1320 N   0  0  0  0  0  0  0  0  0  0  0  0
   47.1170   34.2440   42.2130 C   0  0  0  0  0  0  0  0  0  0  0  0
   48.1400   35.0940   42.0710 N   0  0  0  0  0  0  0  0  0  0  0  0
   49.4710   35.9850   40.7200 H   0  0  0  0  0  0  0  0  0  0  0  0
   48.5100   34.7950   38.7190 H   0  0  0  0  0  0  0  0  0  0  0  0
   45.8490   31.8260   39.1240 C   0  0  0  0  0  3  0  0  0  0  0  0
   46.4240   33.0230   38.7930 C   0  0  0  0  0  0  0  0  0  0  0  0
   46.3910   33.4820   37.4940 C   0  0  0  0  0  0  0  0  0  0  0  0
   46.8360   34.4150   37.2260 H   0  0  0  0  0  0  0  0  0  0  0  0
   45.7850   32.7600   36.4880 C   0  0  0  0  0  0  0  0  0  0  0  0
   45.6100   32.9630   35.1700 N   0  0  0  0  0  0  0  0  0  0  0  0
   45.9730   33.8300   34.6790 H   0  0  0  0  0  0  0  0  0  0  0  0
   44.9480   31.9340   34.6700 N   0  0  0  0  0  0  0  0  0  0  0  0
   44.6750   31.0410   35.6370 C   0  0  0  0  0  0  0  0  0  0  0  0
   44.1510   30.1150   35.5250 H   0  0  0  0  0  0  0  0  0  0  0  0
   45.2010   31.5400   36.8310 C   0  0  0  0  0  0  0  0  0  0  0  0
   45.2210   31.0550   38.1410 C   0  0  0  0  0  3  0  0  0  0  0  0
  1  2  1  0  0  0  0
  2  8  1  0  0  0  0
  3  2  2  0  0  0  0
  3  4  1  0  0  0  0
  4  5  2  0  0  0  0
  5  6  1  0  0  0  0
  5 11  1  0  0  0  0
  6  7  1  0  0  0  0
  8 10  1  0  0  0  0
  8  6  2  0  0  0  0
  9  4  1  0  0  0  0
 11 20  1  0  0  0  0
 12 11  2  0  0  0  0
 12 13  1  0  0  0  0
 13 14  2  0  0  0  0
 14 19  1  0  0  0  0
 14 15  1  0  0  0  0
 15 16  2  0  0  0  0
 16 23  1  0  0  0  0
 16 17  1  0  0  0  0
 17 24  1  0  0  0  0
 18 25  1  0  0  0  0
 18 17  2  0  0  0  0
 19 18  1  0  0  0  0
 20 26  1  0  0  0  0
 20 19  2  0  0  0  0
 21 12  1  0  0  0  0
 22 13  1  0  0  0  0
 27 32  1  0  0  0  0
 28 29  1  0  0  0  0
 28 27  2  0  0  0  0
 29 30  2  0  0  0  0
 30 31  1  0  0  0  0
 31  3  1  0  0  0  0
 32 31  2  0  0  0  0
 33 27  1  0  0  0  0
 34 28  1  0  0  0  0
 36 35  1  0  0  0  0
 36 29  1  0  0  0  0
 37 36  2  0  0  0  0
 38 37  1  0  0  0  0
 39 45  2  0  0  0  0
 39 37  1  0  0  0  0
 40 39  1  0  0  0  0
 41 40  1  0  0  0  0
 42 40  1  0  0  0  0
 42 43  2  0  0  0  0
 43 45  1  0  0  0  0
 44 43  1  0  0  0  0
 45 46  1  0  0  0  0
 46 35  2  0  0  0  0
M  END
>  <minimizedAffinity>
-7.82106161

>  <minimizedRMSD>
0.305763662

$$$$
