
 OpenBabel03252506043D

 46 51  0  0  0  0  0  0  0  0999 V2000
   44.8170   36.0070   43.3400 Cl  0  0  0  0  0  0  0  0  0  0  0  0
   45.5650   34.7540   44.2830 C   0  0  0  0  0  0  0  0  0  0  0  0
   46.6870   34.0970   43.8060 C   0  0  0  0  0  0  0  0  0  0  0  0
   47.1970   33.1250   44.6270 C   0  0  0  0  0  0  0  0  0  0  0  0
   46.6800   32.7710   45.8590 C   0  0  0  0  0  0  0  0  0  0  0  0
   45.5660   33.4440   46.2990 C   0  0  0  0  0  0  0  0  0  0  0  0
   44.9370   32.9690   47.8660 Cl  0  0  0  0  0  0  0  0  0  0  0  0
   45.0160   34.4240   45.5180 C   0  0  0  0  0  0  0  0  0  0  0  0
   48.0850   32.6090   44.2440 H   0  0  0  0  0  0  0  0  0  0  0  0
   44.1470   34.9240   45.9000 H   0  0  0  0  0  0  0  0  0  0  0  0
   47.3700   31.7050   46.5850 C   0  0  0  0  0  0  0  0  0  0  0  0
   47.4790   30.4170   46.1030 C   0  0  0  0  0  0  0  0  0  0  0  0
   48.1290   29.3910   46.7730 C   0  0  0  0  0  0  0  0  0  0  0  0
   48.7050   29.6670   48.0000 C   0  0  0  0  0  0  0  0  0  0  0  0
   49.3260   28.6460   48.6210 N   0  0  0  0  0  0  0  0  0  0  0  0
   49.9220   28.8200   49.8310 C   0  0  0  0  0  0  0  0  0  0  0  0
   49.8530   30.0870   50.3770 C   0  0  0  0  0  0  0  0  0  0  0  0
   49.2170   31.1080   49.7300 C   0  0  0  0  0  0  0  0  0  0  0  0
   48.6190   30.9270   48.5110 C   0  0  0  0  0  0  0  0  0  0  0  0
   47.9670   31.9300   47.8220 C   0  0  0  0  0  0  0  0  0  0  0  0
   47.0130   30.2470   45.1350 H   0  0  0  0  0  0  0  0  0  0  0  0
   48.1540   28.4150   46.3000 H   0  0  0  0  0  0  0  0  0  0  0  0
   50.4100   27.9530   50.2840 H   0  0  0  0  0  0  0  0  0  0  0  0
   50.3300   30.2160   51.3390 H   0  0  0  0  0  0  0  0  0  0  0  0
   49.1910   32.0890   50.2030 H   0  0  0  0  0  0  0  0  0  0  0  0
   47.9310   32.9120   48.2800 H   0  0  0  0  0  0  0  0  0  0  0  0
   48.8810   35.5630   41.3020 C   0  0  0  0  0  0  0  0  0  0  0  0
   48.4120   35.0160   40.1010 C   0  0  0  0  0  0  0  0  0  0  0  0
   47.3200   34.1250   40.1540 C   0  0  0  0  0  0  0  0  0  0  0  0
   46.8090   33.8690   41.3710 N   0  0  0  0  0  0  0  0  0  0  0  0
   47.2850   34.4160   42.5220 C   0  0  0  0  0  0  0  0  0  0  0  0
   48.3200   35.2630   42.4920 N   0  0  0  0  0  0  0  0  0  0  0  0
   49.7140   36.2450   41.2750 H   0  0  0  0  0  0  0  0  0  0  0  0
   48.8310   35.2310   39.1460 H   0  0  0  0  0  0  0  0  0  0  0  0
   47.4650   33.5120   37.8350 C   0  0  0  0  0  3  0  0  0  0  0  0
   46.7300   33.4810   38.9880 C   0  0  0  0  0  0  0  0  0  0  0  0
   45.4970   32.8670   39.0190 C   0  0  0  0  0  0  0  0  0  0  0  0
   44.9150   32.8380   39.9140 H   0  0  0  0  0  0  0  0  0  0  0  0
   44.9630   32.2660   37.8980 C   0  0  0  0  0  0  0  0  0  0  0  0
   43.8130   31.6120   37.6510 N   0  0  0  0  0  0  0  0  0  0  0  0
   43.0760   31.4610   38.3980 H   0  0  0  0  0  0  0  0  0  0  0  0
   43.8080   31.2350   36.3840 N   0  0  0  0  0  0  0  0  0  0  0  0
   44.9410   31.6280   35.7780 C   0  0  0  0  0  0  0  0  0  0  0  0
   45.2120   31.4630   34.7550 H   0  0  0  0  0  0  0  0  0  0  0  0
   45.7160   32.3010   36.7250 C   0  0  0  0  0  0  0  0  0  0  0  0
   46.9680   32.9170   36.6710 C   0  0  0  0  0  3  0  0  0  0  0  0
  1  2  1  0  0  0  0
  2  8  1  0  0  0  0
  3  2  2  0  0  0  0
  3  4  1  0  0  0  0
  4  5  2  0  0  0  0
  5  6  1  0  0  0  0
  5 11  1  0  0  0  0
  6  7  1  0  0  0  0
  8 10  1  0  0  0  0
  8  6  2  0  0  0  0
  9  4  1  0  0  0  0
 11 20  1  0  0  0  0
 12 11  2  0  0  0  0
 12 13  1  0  0  0  0
 13 14  2  0  0  0  0
 14 19  1  0  0  0  0
 14 15  1  0  0  0  0
 15 16  2  0  0  0  0
 16 23  1  0  0  0  0
 16 17  1  0  0  0  0
 17 24  1  0  0  0  0
 18 25  1  0  0  0  0
 18 17  2  0  0  0  0
 19 18  1  0  0  0  0
 20 26  1  0  0  0  0
 20 19  2  0  0  0  0
 21 12  1  0  0  0  0
 22 13  1  0  0  0  0
 27 32  1  0  0  0  0
 28 29  1  0  0  0  0
 28 27  2  0  0  0  0
 29 30  2  0  0  0  0
 30 31  1  0  0  0  0
 31  3  1  0  0  0  0
 32 31  2  0  0  0  0
 33 27  1  0  0  0  0
 34 28  1  0  0  0  0
 35 36  1  0  0  0  0
 36 37  2  0  0  0  0
 36 29  1  0  0  0  0
 37 38  1  0  0  0  0
 39 37  1  0  0  0  0
 40 39  1  0  0  0  0
 40 41  1  0  0  0  0
 42 40  1  0  0  0  0
 43 42  2  0  0  0  0
 43 45  1  0  0  0  0
 44 43  1  0  0  0  0
 45 39  2  0  0  0  0
 46 45  1  0  0  0  0
 46 35  2  0  0  0  0
M  END
>  <minimizedAffinity>
-7.58712864

>  <minimizedRMSD>
0.18299

$$$$
