
 OpenBabel03242515443D

 41 45  0  0  0  0  0  0  0  0999 V2000
   35.3560   29.3430   38.4560 C   0  0  0  0  0  0  0  0  0  0  0  0
   36.3120   29.7370   37.5870 C   0  0  0  0  0  0  0  0  0  0  0  0
   35.9940   29.6260   36.2150 C   0  0  0  0  0  0  0  0  0  0  0  0
   34.7890   29.1430   35.8290 N   0  0  0  0  0  0  0  0  0  0  0  0
   33.8650   28.7580   36.7480 C   0  0  0  0  0  0  0  0  0  0  0  0
   34.2030   28.8830   38.0100 N   0  0  0  0  0  0  0  0  0  0  0  0
   38.5070   29.1420   37.7330 C   0  0  0  0  0  3  0  0  0  0  0  0
   37.6660   30.2620   37.6120 C   0  0  0  0  0  0  0  0  0  0  0  0
   38.2870   31.4720   37.4960 C   0  0  0  0  0  0  0  0  0  0  0  0
   37.4990   32.2270   37.4080 H   0  0  0  0  0  0  0  0  0  0  0  0
   39.6480   31.6030   37.4970 C   0  0  0  0  0  0  0  0  0  0  0  0
   40.3290   32.7560   37.3890 N   0  0  0  0  0  0  0  0  0  0  0  0
   39.9730   33.7320   37.2870 H   0  0  0  0  0  0  0  0  0  0  0  0
   41.6180   32.4130   37.4360 N   0  0  0  0  0  0  0  0  0  0  0  0
   41.7540   31.0810   37.5720 C   0  0  0  0  0  0  0  0  0  0  0  0
   42.6520   30.4750   37.6420 H   0  0  0  0  0  0  0  0  0  0  0  0
   40.4840   30.5150   37.6150 C   0  0  0  0  0  0  0  0  0  0  0  0
   39.9050   29.2670   37.7340 C   0  0  0  0  0  3  0  0  0  0  0  0
   36.8950   30.0290   35.1850 N   0  0  0  0  0  0  0  0  0  0  0  0
   37.6590   29.4040   34.8250 H   0  0  0  0  0  0  0  0  0  0  0  0
   36.7880   30.9760   34.7760 H   0  0  0  0  0  0  0  0  0  0  0  0
   35.8190   29.5010   40.1990 S   0  0  0  0  0  0  0  0  0  0  0  0
   36.5790   27.9580   42.2360 C   0  0  0  0  0  0  0  0  0  0  0  0
   36.4040   27.9550   40.8440 C   0  0  0  0  0  0  0  0  0  0  0  0
   36.6470   26.8260   40.0770 C   0  0  0  0  0  0  0  0  0  0  0  0
   37.0720   25.6590   40.6760 C   0  0  0  0  0  0  0  0  0  0  0  0
   37.2550   25.6340   42.0690 C   0  0  0  0  0  0  0  0  0  0  0  0
   37.0150   26.7600   42.8440 C   0  0  0  0  0  0  0  0  0  0  0  0
   37.6870   24.3410   42.4130 O   0  0  0  0  0  0  0  0  0  0  0  0
   38.0310   23.6990   41.2380 C   0  0  0  0  0  0  0  0  0  0  0  0
   37.3870   24.3990   40.1950 O   0  0  0  0  0  0  0  0  0  0  0  0
   36.4130   28.7830   42.8830 H   0  0  0  0  0  0  0  0  0  0  0  0
   36.4920   26.9020   39.0110 H   0  0  0  0  0  0  0  0  0  0  0  0
   37.1730   26.6790   43.9050 H   0  0  0  0  0  0  0  0  0  0  0  0
   37.5400   22.6840   41.2480 H   0  0  0  0  0  0  0  0  0  0  0  0
   39.0940   23.5290   41.0650 H   0  0  0  0  0  0  0  0  0  0  0  0
   32.6240   28.2540   36.4630 O   0  0  0  0  0  0  0  0  0  0  0  0
   31.6260   29.1480   36.0260 C   0  0  0  0  0  0  0  0  0  0  0  0
   31.7580   30.3810   36.5880 F   0  0  0  0  0  0  0  0  0  0  0  0
   31.7230   29.1950   34.6260 F   0  0  0  0  0  0  0  0  0  0  0  0
   30.3980   28.6330   36.4060 F   0  0  0  0  0  0  0  0  0  0  0  0
  1 22  1  0  0  0  0
  2  8  1  0  0  0  0
  2  1  2  0  0  0  0
  3  2  1  0  0  0  0
  4  3  2  0  0  0  0
  4  5  1  0  0  0  0
  5  6  2  0  0  0  0
  6  1  1  0  0  0  0
  7 18  1  0  0  0  0
  8  7  2  0  0  0  0
  9 11  2  0  0  0  0
  9  8  1  0  0  0  0
 10  9  1  0  0  0  0
 11 17  1  0  0  0  0
 12 14  1  0  0  0  0
 12 11  1  0  0  0  0
 13 12  1  0  0  0  0
 14 15  2  0  0  0  0
 15 17  1  0  0  0  0
 15 16  1  0  0  0  0
 17 18  2  0  0  0  0
 19  3  1  0  0  0  0
 20 19  1  0  0  0  0
 21 19  1  0  0  0  0
 22 24  1  0  0  0  0
 23 28  1  0  0  0  0
 23 32  1  0  0  0  0
 24 23  2  0  0  0  0
 25 26  2  0  0  0  0
 25 24  1  0  0  0  0
 26 27  1  0  0  0  0
 27 29  1  0  0  0  0
 27 28  2  0  0  0  0
 28 34  1  0  0  0  0
 30 35  1  0  0  0  0
 30 29  1  0  0  0  0
 31 26  1  0  0  0  0
 31 30  1  0  0  0  0
 33 25  1  0  0  0  0
 36 30  1  0  0  0  0
 37  5  1  0  0  0  0
 38 41  1  0  0  0  0
 38 37  1  0  0  0  0
 38 39  1  0  0  0  0
 40 38  1  0  0  0  0
M  END
>  <minimizedAffinity>
-6.53931379

$$$$

 OpenBabel03242515443D

 41 45  0  0  0  0  0  0  0  0999 V2000
   35.7230   29.2550   39.0930 C   0  0  0  0  0  0  0  0  0  0  0  0
   36.6820   30.0510   38.5720 C   0  0  0  0  0  0  0  0  0  0  0  0
   36.8370   30.0050   37.1680 C   0  0  0  0  0  0  0  0  0  0  0  0
   36.0540   29.1930   36.4190 N   0  0  0  0  0  0  0  0  0  0  0  0
   35.1070   28.4100   36.9980 C   0  0  0  0  0  0  0  0  0  0  0  0
   34.9960   28.4880   38.3030 N   0  0  0  0  0  0  0  0  0  0  0  0
   37.0130   32.2230   39.1740 C   0  0  0  0  0  3  0  0  0  0  0  0
   37.6860   30.9980   39.0240 C   0  0  0  0  0  0  0  0  0  0  0  0
   39.0050   30.9880   39.3730 C   0  0  0  0  0  0  0  0  0  0  0  0
   39.3720   29.9710   39.2020 H   0  0  0  0  0  0  0  0  0  0  0  0
   39.6490   32.0990   39.8410 C   0  0  0  0  0  0  0  0  0  0  0  0
   40.9420   32.1670   40.2020 N   0  0  0  0  0  0  0  0  0  0  0  0
   41.6750   31.4230   40.1980 H   0  0  0  0  0  0  0  0  0  0  0  0
   41.1370   33.4280   40.5920 N   0  0  0  0  0  0  0  0  0  0  0  0
   40.0020   34.1440   40.4820 C   0  0  0  0  0  0  0  0  0  0  0  0
   39.8100   35.1870   40.7110 H   0  0  0  0  0  0  0  0  0  0  0  0
   39.0040   33.3060   39.9930 C   0  0  0  0  0  0  0  0  0  0  0  0
   37.6670   33.3680   39.6550 C   0  0  0  0  0  3  0  0  0  0  0  0
   37.7890   30.8120   36.4760 N   0  0  0  0  0  0  0  0  0  0  0  0
   38.7960   30.5310   36.3690 H   0  0  0  0  0  0  0  0  0  0  0  0
   37.4720   31.7090   36.0620 H   0  0  0  0  0  0  0  0  0  0  0  0
   35.5720   29.3490   40.8940 S   0  0  0  0  0  0  0  0  0  0  0  0
   37.7520   29.2450   42.4260 C   0  0  0  0  0  0  0  0  0  0  0  0
   36.8710   28.4390   41.6900 C   0  0  0  0  0  0  0  0  0  0  0  0
   37.0140   27.0610   41.6320 C   0  0  0  0  0  0  0  0  0  0  0  0
   38.0420   26.4420   42.3100 C   0  0  0  0  0  0  0  0  0  0  0  0
   38.9380   27.2260   43.0570 C   0  0  0  0  0  0  0  0  0  0  0  0
   38.8030   28.6050   43.1190 C   0  0  0  0  0  0  0  0  0  0  0  0
   39.8750   26.3540   43.6390 O   0  0  0  0  0  0  0  0  0  0  0  0
   39.7210   25.1230   43.0290 C   0  0  0  0  0  0  0  0  0  0  0  0
   38.4360   25.1200   42.4470 O   0  0  0  0  0  0  0  0  0  0  0  0
   37.7030   30.3020   42.5140 H   0  0  0  0  0  0  0  0  0  0  0  0
   36.2980   26.5080   41.0420 H   0  0  0  0  0  0  0  0  0  0  0  0
   39.5200   29.1510   43.7060 H   0  0  0  0  0  0  0  0  0  0  0  0
   39.6700   24.3440   43.8420 H   0  0  0  0  0  0  0  0  0  0  0  0
   40.5150   24.8100   42.3490 H   0  0  0  0  0  0  0  0  0  0  0  0
   34.2700   27.5520   36.3330 O   0  0  0  0  0  0  0  0  0  0  0  0
   33.1110   28.0840   35.7340 C   0  0  0  0  0  0  0  0  0  0  0  0
   32.8560   29.3560   36.1470 F   0  0  0  0  0  0  0  0  0  0  0  0
   33.3140   28.0120   34.3460 F   0  0  0  0  0  0  0  0  0  0  0  0
   32.0390   27.2900   36.1050 F   0  0  0  0  0  0  0  0  0  0  0  0
  1 22  1  0  0  0  0
  2  8  1  0  0  0  0
  2  1  1  0  0  0  0
  3  2  2  0  0  0  0
  4  5  2  0  0  0  0
  4  3  1  0  0  0  0
  5  6  1  0  0  0  0
  6  1  2  0  0  0  0
  7 18  1  0  0  0  0
  8  7  2  0  0  0  0
  8  9  1  0  0  0  0
  9 11  2  0  0  0  0
 10  9  1  0  0  0  0
 11 17  1  0  0  0  0
 11 12  1  0  0  0  0
 12 14  1  0  0  0  0
 13 12  1  0  0  0  0
 15 14  2  0  0  0  0
 15 16  1  0  0  0  0
 17 15  1  0  0  0  0
 18 17  2  0  0  0  0
 19  3  1  0  0  0  0
 20 19  1  0  0  0  0
 21 19  1  0  0  0  0
 22 24  1  0  0  0  0
 23 32  1  0  0  0  0
 23 28  1  0  0  0  0
 24 23  2  0  0  0  0
 25 24  1  0  0  0  0
 25 26  2  0  0  0  0
 26 31  1  0  0  0  0
 26 27  1  0  0  0  0
 27 28  2  0  0  0  0
 27 29  1  0  0  0  0
 28 34  1  0  0  0  0
 30 29  1  0  0  0  0
 30 35  1  0  0  0  0
 31 30  1  0  0  0  0
 33 25  1  0  0  0  0
 36 30  1  0  0  0  0
 37  5  1  0  0  0  0
 38 41  1  0  0  0  0
 38 39  1  0  0  0  0
 38 37  1  0  0  0  0
 40 38  1  0  0  0  0
M  END
>  <minimizedAffinity>
-6.46630096

$$$$

 OpenBabel03242515443D

 41 45  0  0  0  0  0  0  0  0999 V2000
   37.2750   30.6760   40.0730 C   0  0  0  0  0  0  0  0  0  0  0  0
   36.9550   30.1600   38.8670 C   0  0  0  0  0  0  0  0  0  0  0  0
   37.5260   30.7980   37.7430 C   0  0  0  0  0  0  0  0  0  0  0  0
   38.3420   31.8670   37.9050 N   0  0  0  0  0  0  0  0  0  0  0  0
   38.6270   32.3460   39.1430 C   0  0  0  0  0  0  0  0  0  0  0  0
   38.0770   31.7200   40.1570 N   0  0  0  0  0  0  0  0  0  0  0  0
   36.9570   27.9470   38.3250 C   0  0  0  0  0  3  0  0  0  0  0  0
   36.1420   29.0920   38.3120 C   0  0  0  0  0  0  0  0  0  0  0  0
   34.8630   28.9160   37.8700 C   0  0  0  0  0  0  0  0  0  0  0  0
   34.3690   29.8910   37.9280 H   0  0  0  0  0  0  0  0  0  0  0  0
   34.3880   27.7020   37.4590 C   0  0  0  0  0  0  0  0  0  0  0  0
   33.1470   27.4510   37.0110 N   0  0  0  0  0  0  0  0  0  0  0  0
   32.3370   28.1000   36.8950 H   0  0  0  0  0  0  0  0  0  0  0  0
   33.1270   26.1480   36.7260 N   0  0  0  0  0  0  0  0  0  0  0  0
   34.3220   25.5840   36.9820 C   0  0  0  0  0  0  0  0  0  0  0  0
   34.6480   24.5550   36.8650 H   0  0  0  0  0  0  0  0  0  0  0  0
   35.1750   26.5710   37.4650 C   0  0  0  0  0  0  0  0  0  0  0  0
   36.4780   26.6970   37.9050 C   0  0  0  0  0  3  0  0  0  0  0  0
   37.3010   30.3460   36.4080 N   0  0  0  0  0  0  0  0  0  0  0  0
   36.4540   30.6270   35.8520 H   0  0  0  0  0  0  0  0  0  0  0  0
   38.0010   29.7180   35.9730 H   0  0  0  0  0  0  0  0  0  0  0  0
   36.5100   29.8250   41.4760 S   0  0  0  0  0  0  0  0  0  0  0  0
   38.6940   28.9430   42.7260 C   0  0  0  0  0  0  0  0  0  0  0  0
   37.5410   28.5040   42.0580 C   0  0  0  0  0  0  0  0  0  0  0  0
   37.2490   27.1560   41.9080 C   0  0  0  0  0  0  0  0  0  0  0  0
   38.1010   26.2020   42.4220 C   0  0  0  0  0  0  0  0  0  0  0  0
   39.2620   26.6140   43.0970 C   0  0  0  0  0  0  0  0  0  0  0  0
   39.5620   27.9600   43.2500 C   0  0  0  0  0  0  0  0  0  0  0  0
   39.9410   25.4560   43.5130 O   0  0  0  0  0  0  0  0  0  0  0  0
   39.3590   24.3850   42.8590 C   0  0  0  0  0  0  0  0  0  0  0  0
   38.0840   24.8160   42.4380 O   0  0  0  0  0  0  0  0  0  0  0  0
   38.9790   29.9540   42.8760 H   0  0  0  0  0  0  0  0  0  0  0  0
   36.3450   26.8960   41.3800 H   0  0  0  0  0  0  0  0  0  0  0  0
   40.4660   28.2140   43.7750 H   0  0  0  0  0  0  0  0  0  0  0  0
   39.1530   23.5870   43.6290 H   0  0  0  0  0  0  0  0  0  0  0  0
   39.9480   23.9120   42.0720 H   0  0  0  0  0  0  0  0  0  0  0  0
   39.4330   33.4210   39.4140 O   0  0  0  0  0  0  0  0  0  0  0  0
   40.8260   33.2610   39.2710 C   0  0  0  0  0  0  0  0  0  0  0  0
   41.2230   31.9790   39.5010 F   0  0  0  0  0  0  0  0  0  0  0  0
   41.1410   33.6840   37.9700 F   0  0  0  0  0  0  0  0  0  0  0  0
   41.4440   34.0750   40.2050 F   0  0  0  0  0  0  0  0  0  0  0  0
  1  6  1  0  0  0  0
  1 22  1  0  0  0  0
  2  1  2  0  0  0  0
  3  4  2  0  0  0  0
  3  2  1  0  0  0  0
  4  5  1  0  0  0  0
  5 37  1  0  0  0  0
  5  6  2  0  0  0  0
  8  7  1  0  0  0  0
  8  2  1  0  0  0  0
  9 10  1  0  0  0  0
  9  8  2  0  0  0  0
 11 17  2  0  0  0  0
 11  9  1  0  0  0  0
 12 11  1  0  0  0  0
 13 12  1  0  0  0  0
 14 15  2  0  0  0  0
 14 12  1  0  0  0  0
 15 17  1  0  0  0  0
 16 15  1  0  0  0  0
 17 18  1  0  0  0  0
 18  7  2  0  0  0  0
 19  3  1  0  0  0  0
 20 19  1  0  0  0  0
 21 19  1  0  0  0  0
 22 24  1  0  0  0  0
 23 32  1  0  0  0  0
 23 28  1  0  0  0  0
 24 23  2  0  0  0  0
 25 24  1  0  0  0  0
 25 26  2  0  0  0  0
 26 31  1  0  0  0  0
 26 27  1  0  0  0  0
 27 28  2  0  0  0  0
 27 29  1  0  0  0  0
 28 34  1  0  0  0  0
 30 29  1  0  0  0  0
 30 35  1  0  0  0  0
 31 30  1  0  0  0  0
 33 25  1  0  0  0  0
 36 30  1  0  0  0  0
 38 37  1  0  0  0  0
 38 39  1  0  0  0  0
 38 41  1  0  0  0  0
 40 38  1  0  0  0  0
M  END
>  <minimizedAffinity>
-6.44047499

$$$$

 OpenBabel03242515443D

 41 45  0  0  0  0  0  0  0  0999 V2000
   35.4150   28.8960   36.6190 C   0  0  0  0  0  0  0  0  0  0  0  0
   35.0280   28.8990   37.9130 C   0  0  0  0  0  0  0  0  0  0  0  0
   33.6500   29.1030   38.1520 C   0  0  0  0  0  0  0  0  0  0  0  0
   32.7960   29.2840   37.1170 N   0  0  0  0  0  0  0  0  0  0  0  0
   33.2420   29.2740   35.8340 C   0  0  0  0  0  0  0  0  0  0  0  0
   34.5280   29.0780   35.6600 N   0  0  0  0  0  0  0  0  0  0  0  0
   35.9670   27.4110   39.3600 C   0  0  0  0  0  3  0  0  0  0  0  0
   35.6170   28.7670   39.2340 C   0  0  0  0  0  0  0  0  0  0  0  0
   35.9470   29.5740   40.2830 C   0  0  0  0  0  0  0  0  0  0  0  0
   35.6140   30.5840   40.0250 H   0  0  0  0  0  0  0  0  0  0  0  0
   36.5820   29.1050   41.4000 C   0  0  0  0  0  0  0  0  0  0  0  0
   36.9370   29.8360   42.4690 N   0  0  0  0  0  0  0  0  0  0  0  0
   36.8070   30.8560   42.6520 H   0  0  0  0  0  0  0  0  0  0  0  0
   37.5220   28.9790   43.3080 N   0  0  0  0  0  0  0  0  0  0  0  0
   37.5370   27.7370   42.7890 C   0  0  0  0  0  0  0  0  0  0  0  0
   37.9320   26.8130   43.2000 H   0  0  0  0  0  0  0  0  0  0  0  0
   36.9300   27.7800   41.5380 C   0  0  0  0  0  0  0  0  0  0  0  0
   36.6180   26.9210   40.5020 C   0  0  0  0  0  3  0  0  0  0  0  0
   33.0920   29.1040   39.4650 N   0  0  0  0  0  0  0  0  0  0  0  0
   33.0930   29.9570   40.0790 H   0  0  0  0  0  0  0  0  0  0  0  0
   32.6700   28.2270   39.8250 H   0  0  0  0  0  0  0  0  0  0  0  0
   37.1900   28.6380   36.3710 S   0  0  0  0  0  0  0  0  0  0  0  0
   39.0550   28.8650   38.2630 C   0  0  0  0  0  0  0  0  0  0  0  0
   38.1390   29.6140   37.5090 C   0  0  0  0  0  0  0  0  0  0  0  0
   38.0300   30.9900   37.6440 C   0  0  0  0  0  0  0  0  0  0  0  0
   38.8350   31.6650   38.5370 C   0  0  0  0  0  0  0  0  0  0  0  0
   39.7620   30.9390   39.3040 C   0  0  0  0  0  0  0  0  0  0  0  0
   39.8770   29.5620   39.1760 C   0  0  0  0  0  0  0  0  0  0  0  0
   40.4430   31.8580   40.1210 O   0  0  0  0  0  0  0  0  0  0  0  0
   39.7490   33.0530   40.0580 C   0  0  0  0  0  0  0  0  0  0  0  0
   38.9630   32.9990   38.8880 O   0  0  0  0  0  0  0  0  0  0  0  0
   39.1920   27.8140   38.2120 H   0  0  0  0  0  0  0  0  0  0  0  0
   37.3000   31.4960   37.0310 H   0  0  0  0  0  0  0  0  0  0  0  0
   40.6030   29.0620   39.7920 H   0  0  0  0  0  0  0  0  0  0  0  0
   40.4980   33.8720   39.8630 H   0  0  0  0  0  0  0  0  0  0  0  0
   39.1940   33.3460   40.9500 H   0  0  0  0  0  0  0  0  0  0  0  0
   32.4640   29.4530   34.7200 O   0  0  0  0  0  0  0  0  0  0  0  0
   31.9410   30.7380   34.4730 C   0  0  0  0  0  0  0  0  0  0  0  0
   31.3460   31.2720   35.5750 F   0  0  0  0  0  0  0  0  0  0  0  0
   33.0160   31.5230   34.0240 F   0  0  0  0  0  0  0  0  0  0  0  0
   30.9820   30.6220   33.4810 F   0  0  0  0  0  0  0  0  0  0  0  0
  1  2  1  0  0  0  0
  2  3  2  0  0  0  0
  2  8  1  0  0  0  0
  3 19  1  0  0  0  0
  4  3  1  0  0  0  0
  5  4  2  0  0  0  0
  6  5  1  0  0  0  0
  6  1  2  0  0  0  0
  7 18  1  0  0  0  0
  8  7  2  0  0  0  0
  8  9  1  0  0  0  0
  9 11  2  0  0  0  0
 10  9  1  0  0  0  0
 11 17  1  0  0  0  0
 11 12  1  0  0  0  0
 12 13  1  0  0  0  0
 12 14  1  0  0  0  0
 15 16  1  0  0  0  0
 15 14  2  0  0  0  0
 17 15  1  0  0  0  0
 18 17  2  0  0  0  0
 19 21  1  0  0  0  0
 19 20  1  0  0  0  0
 22  1  1  0  0  0  0
 22 24  1  0  0  0  0
 23 28  1  0  0  0  0
 24 25  1  0  0  0  0
 24 23  2  0  0  0  0
 25 26  2  0  0  0  0
 26 31  1  0  0  0  0
 26 27  1  0  0  0  0
 27 29  1  0  0  0  0
 28 27  2  0  0  0  0
 28 34  1  0  0  0  0
 30 29  1  0  0  0  0
 30 36  1  0  0  0  0
 31 30  1  0  0  0  0
 32 23  1  0  0  0  0
 33 25  1  0  0  0  0
 35 30  1  0  0  0  0
 37  5  1  0  0  0  0
 38 37  1  0  0  0  0
 38 39  1  0  0  0  0
 40 38  1  0  0  0  0
 41 38  1  0  0  0  0
M  END
>  <minimizedAffinity>
-6.13191795

$$$$

 OpenBabel03242515443D

 41 45  0  0  0  0  0  0  0  0999 V2000
   36.7600   28.9480   40.9720 C   0  0  0  0  0  0  0  0  0  0  0  0
   36.2320   28.2650   39.9320 C   0  0  0  0  0  0  0  0  0  0  0  0
   36.4280   26.8660   39.9410 C   0  0  0  0  0  0  0  0  0  0  0  0
   37.1150   26.2780   40.9490 N   0  0  0  0  0  0  0  0  0  0  0  0
   37.6270   27.0150   41.9680 C   0  0  0  0  0  0  0  0  0  0  0  0
   37.4170   28.3100   41.9200 N   0  0  0  0  0  0  0  0  0  0  0  0
   36.4390   28.9420   37.7670 C   0  0  0  0  0  3  0  0  0  0  0  0
   35.4870   28.5270   38.7140 C   0  0  0  0  0  0  0  0  0  0  0  0
   34.2010   28.4240   38.2690 C   0  0  0  0  0  0  0  0  0  0  0  0
   33.5970   28.0890   39.1190 H   0  0  0  0  0  0  0  0  0  0  0  0
   33.8440   28.7060   36.9800 C   0  0  0  0  0  0  0  0  0  0  0  0
   32.6040   28.6280   36.4710 N   0  0  0  0  0  0  0  0  0  0  0  0
   31.7090   28.3510   36.9340 H   0  0  0  0  0  0  0  0  0  0  0  0
   32.7210   28.9870   35.1910 N   0  0  0  0  0  0  0  0  0  0  0  0
   33.9990   29.2870   34.8940 C   0  0  0  0  0  0  0  0  0  0  0  0
   34.4400   29.6120   33.9560 H   0  0  0  0  0  0  0  0  0  0  0  0
   34.7660   29.1140   36.0410 C   0  0  0  0  0  0  0  0  0  0  0  0
   36.0820   29.2330   36.4410 C   0  0  0  0  0  3  0  0  0  0  0  0
   35.9050   26.0130   38.9240 N   0  0  0  0  0  0  0  0  0  0  0  0
   36.4020   25.8490   38.0130 H   0  0  0  0  0  0  0  0  0  0  0  0
   34.9990   25.5370   39.0940 H   0  0  0  0  0  0  0  0  0  0  0  0
   36.4840   30.7360   40.9070 S   0  0  0  0  0  0  0  0  0  0  0  0
   37.9910   32.9030   40.5250 C   0  0  0  0  0  0  0  0  0  0  0  0
   37.8510   31.5630   40.1340 C   0  0  0  0  0  0  0  0  0  0  0  0
   38.7310   30.9620   39.2460 C   0  0  0  0  0  0  0  0  0  0  0  0
   39.7830   31.6820   38.7200 C   0  0  0  0  0  0  0  0  0  0  0  0
   39.9470   33.0260   39.0960 C   0  0  0  0  0  0  0  0  0  0  0  0
   39.0700   33.6340   39.9820 C   0  0  0  0  0  0  0  0  0  0  0  0
   41.0800   33.5150   38.4230 O   0  0  0  0  0  0  0  0  0  0  0  0
   41.4130   32.5850   37.4550 C   0  0  0  0  0  0  0  0  0  0  0  0
   40.8050   31.3720   37.8380 O   0  0  0  0  0  0  0  0  0  0  0  0
   37.3560   33.4250   41.1970 H   0  0  0  0  0  0  0  0  0  0  0  0
   38.5560   29.9280   38.9910 H   0  0  0  0  0  0  0  0  0  0  0  0
   39.2470   34.6660   40.2310 H   0  0  0  0  0  0  0  0  0  0  0  0
   42.5210   32.3910   37.5360 H   0  0  0  0  0  0  0  0  0  0  0  0
   41.2230   32.8670   36.4180 H   0  0  0  0  0  0  0  0  0  0  0  0
   38.3400   26.5200   43.0280 O   0  0  0  0  0  0  0  0  0  0  0  0
   39.7410   26.6730   43.0190 C   0  0  0  0  0  0  0  0  0  0  0  0
   40.3730   25.6650   43.6800 F   0  0  0  0  0  0  0  0  0  0  0  0
   40.1230   26.7370   41.6690 F   0  0  0  0  0  0  0  0  0  0  0  0
   40.0420   27.8620   43.6610 F   0  0  0  0  0  0  0  0  0  0  0  0
  1  6  1  0  0  0  0
  2  3  1  0  0  0  0
  2  1  2  0  0  0  0
  3  4  2  0  0  0  0
  4  5  1  0  0  0  0
  5 37  1  0  0  0  0
  6  5  2  0  0  0  0
  7  8  1  0  0  0  0
  8  2  1  0  0  0  0
  9  8  2  0  0  0  0
  9 10  1  0  0  0  0
 11  9  1  0  0  0  0
 12 13  1  0  0  0  0
 12 11  1  0  0  0  0
 14 12  1  0  0  0  0
 15 14  2  0  0  0  0
 15 17  1  0  0  0  0
 16 15  1  0  0  0  0
 17 18  1  0  0  0  0
 17 11  2  0  0  0  0
 18  7  2  0  0  0  0
 19 21  1  0  0  0  0
 19  3  1  0  0  0  0
 20 19  1  0  0  0  0
 22  1  1  0  0  0  0
 23 32  1  0  0  0  0
 24 23  1  0  0  0  0
 24 22  1  0  0  0  0
 25 24  2  0  0  0  0
 26 27  2  0  0  0  0
 26 25  1  0  0  0  0
 27 28  1  0  0  0  0
 28 34  1  0  0  0  0
 28 23  2  0  0  0  0
 29 27  1  0  0  0  0
 30 35  1  0  0  0  0
 30 31  1  0  0  0  0
 30 29  1  0  0  0  0
 31 26  1  0  0  0  0
 33 25  1  0  0  0  0
 36 30  1  0  0  0  0
 38 37  1  0  0  0  0
 38 41  1  0  0  0  0
 38 39  1  0  0  0  0
 40 38  1  0  0  0  0
M  END
>  <minimizedAffinity>
-6.09636497

$$$$

 OpenBabel03242515443D

 41 45  0  0  0  0  0  0  0  0999 V2000
   36.9140   30.1960   39.5150 C   0  0  0  0  0  0  0  0  0  0  0  0
   38.0390   30.8320   39.1220 C   0  0  0  0  0  0  0  0  0  0  0  0
   38.2300   30.9590   37.7270 C   0  0  0  0  0  0  0  0  0  0  0  0
   37.3170   30.4560   36.8630 N   0  0  0  0  0  0  0  0  0  0  0  0
   36.2050   29.8210   37.3150 C   0  0  0  0  0  0  0  0  0  0  0  0
   36.0670   29.7300   38.6170 N   0  0  0  0  0  0  0  0  0  0  0  0
   40.1820   30.4520   39.7950 C   0  0  0  0  0  3  0  0  0  0  0  0
   39.2070   31.4610   39.7140 C   0  0  0  0  0  0  0  0  0  0  0  0
   39.5900   32.7040   40.1260 C   0  0  0  0  0  0  0  0  0  0  0  0
   38.7260   33.3640   39.9940 H   0  0  0  0  0  0  0  0  0  0  0  0
   40.8470   32.9670   40.5950 C   0  0  0  0  0  0  0  0  0  0  0  0
   41.2960   34.1610   41.0180 N   0  0  0  0  0  0  0  0  0  0  0  0
   40.8010   35.0790   41.0700 H   0  0  0  0  0  0  0  0  0  0  0  0
   42.5640   33.9560   41.3800 N   0  0  0  0  0  0  0  0  0  0  0  0
   42.9120   32.6690   41.1950 C   0  0  0  0  0  0  0  0  0  0  0  0
   43.8560   32.1670   41.3850 H   0  0  0  0  0  0  0  0  0  0  0  0
   41.8130   31.9890   40.6810 C   0  0  0  0  0  0  0  0  0  0  0  0
   41.4740   30.7140   40.2750 C   0  0  0  0  0  3  0  0  0  0  0  0
   39.3570   31.6320   37.1660 N   0  0  0  0  0  0  0  0  0  0  0  0
   40.2830   31.1570   37.0210 H   0  0  0  0  0  0  0  0  0  0  0  0
   39.2550   32.6270   36.8920 H   0  0  0  0  0  0  0  0  0  0  0  0
   36.7240   30.0560   41.3090 S   0  0  0  0  0  0  0  0  0  0  0  0
   38.7180   29.0180   42.7430 C   0  0  0  0  0  0  0  0  0  0  0  0
   37.6250   28.6630   41.9380 C   0  0  0  0  0  0  0  0  0  0  0  0
   37.2890   27.3390   41.6980 C   0  0  0  0  0  0  0  0  0  0  0  0
   38.0360   26.3230   42.2580 C   0  0  0  0  0  0  0  0  0  0  0  0
   39.1360   26.6510   43.0690 C   0  0  0  0  0  0  0  0  0  0  0  0
   39.4780   27.9730   43.3120 C   0  0  0  0  0  0  0  0  0  0  0  0
   39.7120   25.4440   43.5020 O   0  0  0  0  0  0  0  0  0  0  0  0
   39.1560   24.4300   42.7450 C   0  0  0  0  0  0  0  0  0  0  0  0
   37.9540   24.9410   42.2110 O   0  0  0  0  0  0  0  0  0  0  0  0
   39.0310   30.0070   42.9670 H   0  0  0  0  0  0  0  0  0  0  0  0
   36.4360   27.1450   41.0670 H   0  0  0  0  0  0  0  0  0  0  0  0
   40.3310   28.1600   43.9400 H   0  0  0  0  0  0  0  0  0  0  0  0
   38.8320   23.6140   43.4520 H   0  0  0  0  0  0  0  0  0  0  0  0
   39.8040   23.9590   42.0040 H   0  0  0  0  0  0  0  0  0  0  0  0
   35.2270   29.2730   36.5270 O   0  0  0  0  0  0  0  0  0  0  0  0
   35.4260   27.9690   36.0300 C   0  0  0  0  0  0  0  0  0  0  0  0
   35.8200   27.1020   37.0020 F   0  0  0  0  0  0  0  0  0  0  0  0
   34.2110   27.5810   35.4410 F   0  0  0  0  0  0  0  0  0  0  0  0
   36.4270   28.0270   35.0750 F   0  0  0  0  0  0  0  0  0  0  0  0
  1 22  1  0  0  0  0
  2  1  1  0  0  0  0
  2  8  1  0  0  0  0
  3  2  2  0  0  0  0
  4  5  2  0  0  0  0
  4  3  1  0  0  0  0
  5  6  1  0  0  0  0
  6  1  2  0  0  0  0
  7 18  1  0  0  0  0
  8  7  2  0  0  0  0
  8  9  1  0  0  0  0
  9 11  2  0  0  0  0
 10  9  1  0  0  0  0
 11 17  1  0  0  0  0
 11 12  1  0  0  0  0
 12 13  1  0  0  0  0
 12 14  1  0  0  0  0
 15 14  2  0  0  0  0
 15 16  1  0  0  0  0
 17 15  1  0  0  0  0
 18 17  2  0  0  0  0
 19  3  1  0  0  0  0
 20 19  1  0  0  0  0
 21 19  1  0  0  0  0
 22 24  1  0  0  0  0
 23 32  1  0  0  0  0
 23 28  1  0  0  0  0
 24 23  2  0  0  0  0
 25 24  1  0  0  0  0
 25 26  2  0  0  0  0
 26 27  1  0  0  0  0
 27 28  2  0  0  0  0
 27 29  1  0  0  0  0
 28 34  1  0  0  0  0
 30 35  1  0  0  0  0
 30 29  1  0  0  0  0
 31 26  1  0  0  0  0
 31 30  1  0  0  0  0
 33 25  1  0  0  0  0
 36 30  1  0  0  0  0
 37  5  1  0  0  0  0
 38 37  1  0  0  0  0
 38 39  1  0  0  0  0
 40 38  1  0  0  0  0
 41 38  1  0  0  0  0
M  END
>  <minimizedAffinity>
-6.08396339

$$$$

 OpenBabel03242515443D

 41 45  0  0  0  0  0  0  0  0999 V2000
   37.6180   28.9950   41.7610 C   0  0  0  0  0  0  0  0  0  0  0  0
   37.5880   28.0600   40.7860 C   0  0  0  0  0  0  0  0  0  0  0  0
   37.1890   28.5050   39.5060 C   0  0  0  0  0  0  0  0  0  0  0  0
   36.8580   29.8030   39.3050 N   0  0  0  0  0  0  0  0  0  0  0  0
   36.9030   30.7000   40.3240 C   0  0  0  0  0  0  0  0  0  0  0  0
   37.2820   30.2420   41.4940 N   0  0  0  0  0  0  0  0  0  0  0  0
   36.7920   25.9870   41.2960 C   0  0  0  0  0  3  0  0  0  0  0  0
   37.8390   26.6390   40.6220 C   0  0  0  0  0  0  0  0  0  0  0  0
   38.7330   25.8350   39.9770 C   0  0  0  0  0  0  0  0  0  0  0  0
   39.4710   26.4920   39.5060 H   0  0  0  0  0  0  0  0  0  0  0  0
   38.6300   24.4720   39.9790 C   0  0  0  0  0  0  0  0  0  0  0  0
   39.4690   23.6170   39.3710 N   0  0  0  0  0  0  0  0  0  0  0  0
   40.3230   23.8120   38.8030 H   0  0  0  0  0  0  0  0  0  0  0  0
   38.9890   22.4000   39.6330 N   0  0  0  0  0  0  0  0  0  0  0  0
   37.8780   22.4760   40.3890 C   0  0  0  0  0  0  0  0  0  0  0  0
   37.2430   21.6860   40.7780 H   0  0  0  0  0  0  0  0  0  0  0  0
   37.6110   23.8190   40.6360 C   0  0  0  0  0  0  0  0  0  0  0  0
   36.6790   24.5880   41.3030 C   0  0  0  0  0  3  0  0  0  0  0  0
   37.1380   27.6370   38.3740 N   0  0  0  0  0  0  0  0  0  0  0  0
   36.3090   27.0240   38.1690 H   0  0  0  0  0  0  0  0  0  0  0  0
   37.9510   27.6130   37.7300 H   0  0  0  0  0  0  0  0  0  0  0  0
   38.1290   28.3680   43.3800 S   0  0  0  0  0  0  0  0  0  0  0  0
   39.6890   26.2260   43.6780 C   0  0  0  0  0  0  0  0  0  0  0  0
   39.7120   27.5720   43.2840 C   0  0  0  0  0  0  0  0  0  0  0  0
   40.8730   28.1860   42.8390 C   0  0  0  0  0  0  0  0  0  0  0  0
   42.0510   27.4730   42.7710 C   0  0  0  0  0  0  0  0  0  0  0  0
   42.0560   26.1220   43.1600 C   0  0  0  0  0  0  0  0  0  0  0  0
   40.8990   25.5010   43.6070 C   0  0  0  0  0  0  0  0  0  0  0  0
   43.3660   25.6420   42.9950 O   0  0  0  0  0  0  0  0  0  0  0  0
   44.1820   26.7400   42.7930 C   0  0  0  0  0  0  0  0  0  0  0  0
   43.3400   27.7940   42.3770 O   0  0  0  0  0  0  0  0  0  0  0  0
   38.8390   25.6940   44.0280 H   0  0  0  0  0  0  0  0  0  0  0  0
   40.8130   29.2250   42.5550 H   0  0  0  0  0  0  0  0  0  0  0  0
   40.9650   24.4660   43.8910 H   0  0  0  0  0  0  0  0  0  0  0  0
   44.8320   26.5220   41.8980 H   0  0  0  0  0  0  0  0  0  0  0  0
   44.8550   27.0080   43.6080 H   0  0  0  0  0  0  0  0  0  0  0  0
   36.5830   32.0290   40.2280 O   0  0  0  0  0  0  0  0  0  0  0  0
   37.6130   32.9400   39.9190 C   0  0  0  0  0  0  0  0  0  0  0  0
   38.3920   33.2220   41.0000 F   0  0  0  0  0  0  0  0  0  0  0  0
   38.3530   32.3620   38.8750 F   0  0  0  0  0  0  0  0  0  0  0  0
   37.0240   34.1190   39.4970 F   0  0  0  0  0  0  0  0  0  0  0  0
  1 22  1  0  0  0  0
  2  1  2  0  0  0  0
  3  2  1  0  0  0  0
  4  3  2  0  0  0  0
  4  5  1  0  0  0  0
  5  6  2  0  0  0  0
  6  1  1  0  0  0  0
  7 18  1  0  0  0  0
  8  2  1  0  0  0  0
  8  7  2  0  0  0  0
  9 11  2  0  0  0  0
  9  8  1  0  0  0  0
 10  9  1  0  0  0  0
 11 17  1  0  0  0  0
 12 14  1  0  0  0  0
 12 11  1  0  0  0  0
 13 12  1  0  0  0  0
 14 15  2  0  0  0  0
 15 17  1  0  0  0  0
 15 16  1  0  0  0  0
 17 18  2  0  0  0  0
 19  3  1  0  0  0  0
 20 19  1  0  0  0  0
 21 19  1  0  0  0  0
 23 32  1  0  0  0  0
 24 22  1  0  0  0  0
 24 23  2  0  0  0  0
 25 24  1  0  0  0  0
 26 25  2  0  0  0  0
 26 27  1  0  0  0  0
 27 28  2  0  0  0  0
 28 23  1  0  0  0  0
 28 34  1  0  0  0  0
 29 27  1  0  0  0  0
 30 29  1  0  0  0  0
 30 36  1  0  0  0  0
 31 26  1  0  0  0  0
 31 30  1  0  0  0  0
 33 25  1  0  0  0  0
 35 30  1  0  0  0  0
 37  5  1  0  0  0  0
 38 37  1  0  0  0  0
 38 39  1  0  0  0  0
 40 38  1  0  0  0  0
 41 38  1  0  0  0  0
M  END
>  <minimizedAffinity>
-6.07358742

$$$$

 OpenBabel03242515443D

 41 45  0  0  0  0  0  0  0  0999 V2000
   37.5030   29.2090   40.8800 C   0  0  0  0  0  0  0  0  0  0  0  0
   38.7610   29.6430   40.6480 C   0  0  0  0  0  0  0  0  0  0  0  0
   39.8030   28.8690   41.2060 C   0  0  0  0  0  0  0  0  0  0  0  0
   39.5180   27.7610   41.9320 N   0  0  0  0  0  0  0  0  0  0  0  0
   38.2320   27.3730   42.1370 C   0  0  0  0  0  0  0  0  0  0  0  0
   37.2990   28.1210   41.5970 N   0  0  0  0  0  0  0  0  0  0  0  0
   39.5320   31.7700   40.9200 C   0  0  0  0  0  3  0  0  0  0  0  0
   39.4360   30.7370   39.9710 C   0  0  0  0  0  0  0  0  0  0  0  0
   40.0110   30.9790   38.7580 C   0  0  0  0  0  0  0  0  0  0  0  0
   39.8520   30.0840   38.1470 H   0  0  0  0  0  0  0  0  0  0  0  0
   40.6470   32.1540   38.4660 C   0  0  0  0  0  0  0  0  0  0  0  0
   41.2330   32.4640   37.2980 N   0  0  0  0  0  0  0  0  0  0  0  0
   41.3180   31.8980   36.4250 H   0  0  0  0  0  0  0  0  0  0  0  0
   41.7210   33.6950   37.4610 N   0  0  0  0  0  0  0  0  0  0  0  0
   41.4510   34.1570   38.6960 C   0  0  0  0  0  0  0  0  0  0  0  0
   41.7000   35.1090   39.1550 H   0  0  0  0  0  0  0  0  0  0  0  0
   40.7480   33.1740   39.3850 C   0  0  0  0  0  0  0  0  0  0  0  0
   40.1830   32.9790   40.6300 C   0  0  0  0  0  3  0  0  0  0  0  0
   41.1810   29.1890   41.0200 N   0  0  0  0  0  0  0  0  0  0  0  0
   41.6850   29.8880   41.6220 H   0  0  0  0  0  0  0  0  0  0  0  0
   41.7030   28.7120   40.2610 H   0  0  0  0  0  0  0  0  0  0  0  0
   36.2100   30.2430   40.1480 S   0  0  0  0  0  0  0  0  0  0  0  0
   34.5310   28.9260   38.5480 C   0  0  0  0  0  0  0  0  0  0  0  0
   35.7410   29.6360   38.5480 C   0  0  0  0  0  0  0  0  0  0  0  0
   36.4650   29.8510   37.3840 C   0  0  0  0  0  0  0  0  0  0  0  0
   36.0010   29.3640   36.1800 C   0  0  0  0  0  0  0  0  0  0  0  0
   34.7920   28.6500   36.1530 C   0  0  0  0  0  0  0  0  0  0  0  0
   34.0630   28.4290   37.3120 C   0  0  0  0  0  0  0  0  0  0  0  0
   34.5570   28.2720   34.8190 O   0  0  0  0  0  0  0  0  0  0  0  0
   35.7270   28.5000   34.1180 C   0  0  0  0  0  0  0  0  0  0  0  0
   36.4810   29.4160   34.8820 O   0  0  0  0  0  0  0  0  0  0  0  0
   33.9280   28.7240   39.3980 H   0  0  0  0  0  0  0  0  0  0  0  0
   37.3880   30.4050   37.4640 H   0  0  0  0  0  0  0  0  0  0  0  0
   33.1450   27.8750   37.2270 H   0  0  0  0  0  0  0  0  0  0  0  0
   35.4580   29.0620   33.1780 H   0  0  0  0  0  0  0  0  0  0  0  0
   36.2890   27.6190   33.8030 H   0  0  0  0  0  0  0  0  0  0  0  0
   37.8380   26.2770   42.8580 O   0  0  0  0  0  0  0  0  0  0  0  0
   37.8170   25.0260   42.2090 C   0  0  0  0  0  0  0  0  0  0  0  0
   38.0710   25.1340   40.8750 F   0  0  0  0  0  0  0  0  0  0  0  0
   38.7690   24.2250   42.8610 F   0  0  0  0  0  0  0  0  0  0  0  0
   36.5510   24.4890   42.3610 F   0  0  0  0  0  0  0  0  0  0  0  0
  1  6  1  0  0  0  0
  2  1  2  0  0  0  0
  2  3  1  0  0  0  0
  3  4  2  0  0  0  0
  4  5  1  0  0  0  0
  5 37  1  0  0  0  0
  6  5  2  0  0  0  0
  8  2  1  0  0  0  0
  8  7  2  0  0  0  0
  9  8  1  0  0  0  0
 10  9  1  0  0  0  0
 11  9  2  0  0  0  0
 11 17  1  0  0  0  0
 12 14  1  0  0  0  0
 12 11  1  0  0  0  0
 13 12  1  0  0  0  0
 14 15  2  0  0  0  0
 15 16  1  0  0  0  0
 15 17  1  0  0  0  0
 17 18  2  0  0  0  0
 18  7  1  0  0  0  0
 19  3  1  0  0  0  0
 19 20  1  0  0  0  0
 21 19  1  0  0  0  0
 22  1  1  0  0  0  0
 23 24  1  0  0  0  0
 23 32  1  0  0  0  0
 24 22  1  0  0  0  0
 25 33  1  0  0  0  0
 25 24  2  0  0  0  0
 26 25  1  0  0  0  0
 27 26  2  0  0  0  0
 27 28  1  0  0  0  0
 28 23  2  0  0  0  0
 29 27  1  0  0  0  0
 30 29  1  0  0  0  0
 30 31  1  0  0  0  0
 31 26  1  0  0  0  0
 34 28  1  0  0  0  0
 35 30  1  0  0  0  0
 36 30  1  0  0  0  0
 38 41  1  0  0  0  0
 38 37  1  0  0  0  0
 38 40  1  0  0  0  0
 39 38  1  0  0  0  0
M  END
>  <minimizedAffinity>
-6.0555439

$$$$

 OpenBabel03242515443D

 41 45  0  0  0  0  0  0  0  0999 V2000
   37.9560   29.0340   36.8100 C   0  0  0  0  0  0  0  0  0  0  0  0
   37.0150   28.8720   37.7650 C   0  0  0  0  0  0  0  0  0  0  0  0
   35.6730   29.0220   37.3510 C   0  0  0  0  0  0  0  0  0  0  0  0
   35.3830   29.3160   36.0610 N   0  0  0  0  0  0  0  0  0  0  0  0
   36.3720   29.4710   35.1430 C   0  0  0  0  0  0  0  0  0  0  0  0
   37.6030   29.3200   35.5710 N   0  0  0  0  0  0  0  0  0  0  0  0
   36.9170   27.1850   39.2930 C   0  0  0  0  0  3  0  0  0  0  0  0
   36.9340   28.5870   39.1870 C   0  0  0  0  0  0  0  0  0  0  0  0
   36.9320   29.2800   40.3620 C   0  0  0  0  0  0  0  0  0  0  0  0
   36.9520   30.3440   40.1040 H   0  0  0  0  0  0  0  0  0  0  0  0
   36.9120   28.6610   41.5810 C   0  0  0  0  0  0  0  0  0  0  0  0
   36.9070   29.2740   42.7760 N   0  0  0  0  0  0  0  0  0  0  0  0
   36.9170   30.2930   43.0020 H   0  0  0  0  0  0  0  0  0  0  0  0
   36.8860   28.2920   43.6790 N   0  0  0  0  0  0  0  0  0  0  0  0
   36.8770   27.0880   43.0780 C   0  0  0  0  0  0  0  0  0  0  0  0
   36.8600   26.0920   43.5090 H   0  0  0  0  0  0  0  0  0  0  0  0
   36.8930   27.2890   41.7010 C   0  0  0  0  0  0  0  0  0  0  0  0
   36.8960   26.5410   40.5400 C   0  0  0  0  0  3  0  0  0  0  0  0
   34.5720   28.8520   38.2430 N   0  0  0  0  0  0  0  0  0  0  0  0
   34.2270   29.6230   38.8690 H   0  0  0  0  0  0  0  0  0  0  0  0
   34.0960   27.9310   38.2730 H   0  0  0  0  0  0  0  0  0  0  0  0
   39.6580   28.8380   37.3970 S   0  0  0  0  0  0  0  0  0  0  0  0
   39.3900   31.3850   38.1400 C   0  0  0  0  0  0  0  0  0  0  0  0
   40.1600   30.2340   38.3690 C   0  0  0  0  0  0  0  0  0  0  0  0
   41.1920   30.2150   39.2960 C   0  0  0  0  0  0  0  0  0  0  0  0
   41.4880   31.3460   40.0270 C   0  0  0  0  0  0  0  0  0  0  0  0
   40.7320   32.5120   39.8170 C   0  0  0  0  0  0  0  0  0  0  0  0
   39.6990   32.5400   38.8920 C   0  0  0  0  0  0  0  0  0  0  0  0
   41.2370   33.5010   40.6790 O   0  0  0  0  0  0  0  0  0  0  0  0
   42.4390   33.0330   41.1770 C   0  0  0  0  0  0  0  0  0  0  0  0
   42.4290   31.6340   41.0020 O   0  0  0  0  0  0  0  0  0  0  0  0
   38.5890   31.4700   37.4490 H   0  0  0  0  0  0  0  0  0  0  0  0
   41.7410   29.2930   39.4150 H   0  0  0  0  0  0  0  0  0  0  0  0
   39.1570   33.4620   38.7750 H   0  0  0  0  0  0  0  0  0  0  0  0
   42.4270   33.1830   42.2940 H   0  0  0  0  0  0  0  0  0  0  0  0
   43.3450   33.5190   40.8090 H   0  0  0  0  0  0  0  0  0  0  0  0
   36.1870   29.7740   33.8190 O   0  0  0  0  0  0  0  0  0  0  0  0
   36.1660   31.1320   33.4430 C   0  0  0  0  0  0  0  0  0  0  0  0
   36.6890   31.3290   32.2010 F   0  0  0  0  0  0  0  0  0  0  0  0
   34.8260   31.5440   33.5210 F   0  0  0  0  0  0  0  0  0  0  0  0
   36.9400   31.8360   34.3500 F   0  0  0  0  0  0  0  0  0  0  0  0
  1 22  1  0  0  0  0
  1  2  1  0  0  0  0
  2  8  1  0  0  0  0
  3  2  2  0  0  0  0
  3 19  1  0  0  0  0
  4  3  1  0  0  0  0
  5  6  1  0  0  0  0
  5  4  2  0  0  0  0
  6  1  2  0  0  0  0
  7 18  1  0  0  0  0
  8  7  2  0  0  0  0
  8  9  1  0  0  0  0
  9 11  2  0  0  0  0
 10  9  1  0  0  0  0
 11 17  1  0  0  0  0
 11 12  1  0  0  0  0
 12 13  1  0  0  0  0
 12 14  1  0  0  0  0
 15 16  1  0  0  0  0
 15 14  2  0  0  0  0
 17 15  1  0  0  0  0
 18 17  2  0  0  0  0
 19 21  1  0  0  0  0
 19 20  1  0  0  0  0
 22 24  1  0  0  0  0
 23 24  2  0  0  0  0
 23 28  1  0  0  0  0
 24 25  1  0  0  0  0
 25 33  1  0  0  0  0
 25 26  2  0  0  0  0
 26 31  1  0  0  0  0
 27 26  1  0  0  0  0
 27 29  1  0  0  0  0
 28 27  2  0  0  0  0
 29 30  1  0  0  0  0
 30 35  1  0  0  0  0
 31 30  1  0  0  0  0
 32 23  1  0  0  0  0
 34 28  1  0  0  0  0
 36 30  1  0  0  0  0
 37  5  1  0  0  0  0
 38 40  1  0  0  0  0
 38 37  1  0  0  0  0
 38 41  1  0  0  0  0
 39 38  1  0  0  0  0
M  END
>  <minimizedAffinity>
-6.05551577

$$$$
