
 OpenBabel03242522093D

 47 51  0  0  1  0  0  0  0  0999 V2000
   35.8270   30.4430   40.6770 C   0  0  0  0  0  0  0  0  0  0  0  0
   36.2490   29.2190   41.2230 C   0  0  0  0  0  0  0  0  0  0  0  0
   37.6220   29.0100   41.4410 C   0  0  0  0  0  0  0  0  0  0  0  0
   38.4190   30.0460   41.0890 N   0  0  0  0  0  0  0  0  0  0  0  0
   38.0020   31.2100   40.5680 C   0  0  0  0  0  0  0  0  0  0  0  0
   36.6860   31.3900   40.3670 N   0  0  0  0  0  0  0  0  0  0  0  0
   34.7690   30.5850   40.5170 H   0  0  0  0  0  0  0  0  0  0  0  0
   35.5780   28.4190   41.4890 H   0  0  0  0  0  0  0  0  0  0  0  0
   38.1740   27.8280   41.9830 N   0  0  0  0  0  0  0  0  0  0  0  0
   38.3060   27.6760   43.4130 C   0  0  0  0  0  0  0  0  0  0  0  0
   39.3520   26.6440   43.7630 C   0  0  0  0  0  0  0  0  0  0  0  0
   39.2060   25.4060   43.0960 N   0  0  0  0  0  0  0  0  0  0  0  0
   38.7400   25.4500   41.7640 C   0  0  2  0  0  0  0  0  0  0  0  0
   38.6070   26.7720   41.1170 C   0  0  0  0  0  0  0  0  0  0  0  0
   38.5040   28.5950   43.9620 H   0  0  0  0  0  0  0  0  0  0  0  0
   37.3260   27.2720   43.7850 H   0  0  0  0  0  0  0  0  0  0  0  0
   40.3360   27.0870   43.5020 H   0  0  0  0  0  0  0  0  0  0  0  0
   39.3250   26.4840   44.8600 H   0  0  0  0  0  0  0  0  0  0  0  0
   38.7300   24.7070   43.7090 H   0  0  0  0  0  0  0  0  0  0  0  0
   39.4300   24.8300   41.1220 H   0  0  0  0  0  0  0  0  0  0  0  0
   39.5940   27.0310   40.6550 H   0  0  0  0  0  0  0  0  0  0  0  0
   37.8920   26.7020   40.2740 H   0  0  0  0  0  0  0  0  0  0  0  0
   37.4010   24.7590   41.6820 C   0  0  0  0  0  0  0  0  0  0  0  0
   37.5650   23.3870   41.5750 F   0  0  0  0  0  0  0  0  0  0  0  0
   36.8220   25.1810   40.4900 F   0  0  0  0  0  0  0  0  0  0  0  0
   36.5970   25.0060   42.7570 F   0  0  0  0  0  0  0  0  0  0  0  0
   38.9570   32.2550   40.2270 C   0  0  0  0  0  0  0  0  0  0  0  0
   38.7560   33.5340   40.6820 C   0  0  0  0  0  0  0  0  0  0  0  0
   39.6930   34.5020   40.3320 C   0  0  0  0  0  0  0  0  0  0  0  0
   40.7470   34.0960   39.5580 C   0  0  0  0  0  0  0  0  0  0  0  0
   40.9550   32.8240   39.1000 C   0  0  0  0  0  0  0  0  0  0  0  0
   40.0300   31.9060   39.4540 N   0  0  0  0  0  0  0  0  0  0  0  0
   37.9160   33.7940   41.2830 H   0  0  0  0  0  0  0  0  0  0  0  0
   39.5920   35.5350   40.6600 H   0  0  0  0  0  0  0  0  0  0  0  0
   41.4710   34.8520   39.2890 H   0  0  0  0  0  0  0  0  0  0  0  0
   43.3010   32.9590   38.5270 C   0  0  0  0  0  3  0  0  0  0  0  0
   42.0710   32.3870   38.2790 C   0  0  0  0  0  0  0  0  0  0  0  0
   41.9330   31.4390   37.2870 C   0  0  0  0  0  0  0  0  0  0  0  0
   40.9790   30.9830   37.0830 H   0  0  0  0  0  0  0  0  0  0  0  0
   43.0290   31.0620   36.5400 C   0  0  0  0  0  0  0  0  0  0  0  0
   43.2270   30.1820   35.5180 N   0  0  0  0  0  0  0  0  0  0  0  0
   42.4390   29.5980   35.1230 H   0  0  0  0  0  0  0  0  0  0  0  0
   44.4910   30.1780   35.1260 N   0  0  0  0  0  0  0  0  0  0  0  0
   45.2110   31.0590   35.8670 C   0  0  0  0  0  0  0  0  0  0  0  0
   46.2620   31.3260   35.8360 H   0  0  0  0  0  0  0  0  0  0  0  0
   44.3010   31.6090   36.7460 C   0  0  0  0  0  0  0  0  0  0  0  0
   44.3920   32.5530   37.7490 C   0  0  0  0  0  3  0  0  0  0  0  0
  1  2  1  0  0  0  0
  2  3  2  0  0  0  0
  2  8  1  0  0  0  0
  3  9  1  0  0  0  0
  4  3  1  0  0  0  0
  5  4  2  0  0  0  0
  6  5  1  0  0  0  0
  6  1  2  0  0  0  0
  7  1  1  0  0  0  0
  9 10  1  0  0  0  0
 10 11  1  0  0  0  0
 10 16  1  0  0  0  0
 10 15  1  0  0  0  0
 11 18  1  0  0  0  0
 12 19  1  0  0  0  0
 12 11  1  0  0  0  0
 13 20  1  6  0  0  0
 13 12  1  0  0  0  0
 14 13  1  0  0  0  0
 14  9  1  0  0  0  0
 17 11  1  0  0  0  0
 21 14  1  0  0  0  0
 22 14  1  0  0  0  0
 23 13  1  0  0  0  0
 23 26  1  0  0  0  0
 24 23  1  0  0  0  0
 25 23  1  0  0  0  0
 27  5  1  0  0  0  0
 27 28  1  0  0  0  0
 28 33  1  0  0  0  0
 29 34  1  0  0  0  0
 29 28  2  0  0  0  0
 30 29  1  0  0  0  0
 31 32  1  0  0  0  0
 31 30  2  0  0  0  0
 32 27  2  0  0  0  0
 35 30  1  0  0  0  0
 37 36  1  0  0  0  0
 37 31  1  0  0  0  0
 38 37  2  0  0  0  0
 39 38  1  0  0  0  0
 40 46  2  0  0  0  0
 40 38  1  0  0  0  0
 41 40  1  0  0  0  0
 42 41  1  0  0  0  0
 43 41  1  0  0  0  0
 43 44  2  0  0  0  0
 44 46  1  0  0  0  0
 45 44  1  0  0  0  0
 46 47  1  0  0  0  0
 47 36  2  0  0  0  0
M  END
>  <minimizedAffinity>
-7.14193106

$$$$

 OpenBabel03242522093D

 47 51  0  0  1  0  0  0  0  0999 V2000
   36.9470   32.0950   39.4680 C   0  0  0  0  0  0  0  0  0  0  0  0
   38.1480   32.8210   39.4110 C   0  0  0  0  0  0  0  0  0  0  0  0
   39.2500   32.3720   40.1580 C   0  0  0  0  0  0  0  0  0  0  0  0
   39.0290   31.2480   40.8800 N   0  0  0  0  0  0  0  0  0  0  0  0
   37.8760   30.5640   40.9250 C   0  0  0  0  0  0  0  0  0  0  0  0
   36.8350   31.0110   40.2040 N   0  0  0  0  0  0  0  0  0  0  0  0
   36.1110   32.4560   38.8880 H   0  0  0  0  0  0  0  0  0  0  0  0
   38.2800   33.7150   38.8220 H   0  0  0  0  0  0  0  0  0  0  0  0
   40.5100   33.0100   40.1870 N   0  0  0  0  0  0  0  0  0  0  0  0
   41.5720   32.4860   41.0140 C   0  0  0  0  0  0  0  0  0  0  0  0
   42.6060   33.5440   41.3180 C   0  0  0  0  0  0  0  0  0  0  0  0
   43.0920   34.2370   40.1850 N   0  0  0  0  0  0  0  0  0  0  0  0
   42.1670   34.4940   39.1500 C   0  0  2  0  0  0  0  0  0  0  0  0
   40.7440   34.1810   39.3950 C   0  0  0  0  0  0  0  0  0  0  0  0
   41.2490   32.0160   41.9420 H   0  0  0  0  0  0  0  0  0  0  0  0
   42.0940   31.6980   40.4070 H   0  0  0  0  0  0  0  0  0  0  0  0
   42.1290   34.2670   42.0120 H   0  0  0  0  0  0  0  0  0  0  0  0
   43.4500   33.0590   41.8500 H   0  0  0  0  0  0  0  0  0  0  0  0
   44.0090   33.8440   39.8740 H   0  0  0  0  0  0  0  0  0  0  0  0
   42.2280   35.5870   38.8780 H   0  0  0  0  0  0  0  0  0  0  0  0
   40.2720   35.0750   39.8770 H   0  0  0  0  0  0  0  0  0  0  0  0
   40.2210   34.0530   38.4270 H   0  0  0  0  0  0  0  0  0  0  0  0
   42.5950   33.7550   37.9060 C   0  0  0  0  0  0  0  0  0  0  0  0
   41.4950   33.2260   37.2480 F   0  0  0  0  0  0  0  0  0  0  0  0
   43.3510   32.6720   38.3420 F   0  0  0  0  0  0  0  0  0  0  0  0
   43.2810   34.5350   37.0210 F   0  0  0  0  0  0  0  0  0  0  0  0
   37.7560   29.3640   41.7410 C   0  0  0  0  0  0  0  0  0  0  0  0
   37.7970   29.4640   43.1080 C   0  0  0  0  0  0  0  0  0  0  0  0
   37.6800   28.2920   43.8500 C   0  0  0  0  0  0  0  0  0  0  0  0
   37.5320   27.1250   43.1480 C   0  0  0  0  0  0  0  0  0  0  0  0
   37.4900   27.0160   41.7850 C   0  0  0  0  0  0  0  0  0  0  0  0
   37.6070   28.1690   41.0910 N   0  0  0  0  0  0  0  0  0  0  0  0
   37.9140   30.4000   43.6030 H   0  0  0  0  0  0  0  0  0  0  0  0
   37.7040   28.3020   44.9370 H   0  0  0  0  0  0  0  0  0  0  0  0
   37.4420   26.2170   43.7280 H   0  0  0  0  0  0  0  0  0  0  0  0
   36.6130   25.8440   39.8590 C   0  0  0  0  0  3  0  0  0  0  0  0
   37.3330   25.7810   41.0340 C   0  0  0  0  0  0  0  0  0  0  0  0
   37.8730   24.5850   41.4570 C   0  0  0  0  0  0  0  0  0  0  0  0
   38.4370   24.5210   42.3710 H   0  0  0  0  0  0  0  0  0  0  0  0
   37.6910   23.4460   40.7010 C   0  0  0  0  0  0  0  0  0  0  0  0
   38.0800   22.1460   40.8310 N   0  0  0  0  0  0  0  0  0  0  0  0
   38.6530   21.8140   41.6550 H   0  0  0  0  0  0  0  0  0  0  0  0
   37.6470   21.4110   39.8190 N   0  0  0  0  0  0  0  0  0  0  0  0
   36.9430   22.1830   38.9510 C   0  0  0  0  0  0  0  0  0  0  0  0
   36.4430   21.9370   38.0210 H   0  0  0  0  0  0  0  0  0  0  0  0
   36.9700   23.4480   39.5000 C   0  0  0  0  0  0  0  0  0  0  0  0
   36.4500   24.6670   39.1170 C   0  0  0  0  0  3  0  0  0  0  0  0
  1  6  1  0  0  0  0
  2  1  2  0  0  0  0
  2  3  1  0  0  0  0
  3  9  1  0  0  0  0
  3  4  2  0  0  0  0
  4  5  1  0  0  0  0
  5 27  1  0  0  0  0
  6  5  2  0  0  0  0
  7  1  1  0  0  0  0
  8  2  1  0  0  0  0
  9 10  1  0  0  0  0
 10 11  1  0  0  0  0
 10 15  1  0  0  0  0
 11 18  1  0  0  0  0
 11 17  1  0  0  0  0
 12 11  1  0  0  0  0
 13 20  1  6  0  0  0
 13 14  1  0  0  0  0
 13 12  1  0  0  0  0
 14 21  1  0  0  0  0
 14  9  1  0  0  0  0
 16 10  1  0  0  0  0
 19 12  1  0  0  0  0
 22 14  1  0  0  0  0
 23 25  1  0  0  0  0
 23 13  1  0  0  0  0
 24 23  1  0  0  0  0
 26 23  1  0  0  0  0
 27 28  1  0  0  0  0
 28 33  1  0  0  0  0
 28 29  2  0  0  0  0
 29 34  1  0  0  0  0
 30 35  1  0  0  0  0
 30 29  1  0  0  0  0
 31 30  2  0  0  0  0
 32 27  2  0  0  0  0
 32 31  1  0  0  0  0
 36 37  1  0  0  0  0
 37 38  2  0  0  0  0
 37 31  1  0  0  0  0
 38 39  1  0  0  0  0
 40 41  1  0  0  0  0
 40 38  1  0  0  0  0
 41 42  1  0  0  0  0
 43 41  1  0  0  0  0
 44 46  1  0  0  0  0
 44 43  2  0  0  0  0
 45 44  1  0  0  0  0
 46 40  2  0  0  0  0
 47 46  1  0  0  0  0
 47 36  2  0  0  0  0
M  END
>  <minimizedAffinity>
-7.02004766

$$$$

 OpenBabel03242522093D

 47 51  0  0  1  0  0  0  0  0999 V2000
   36.2410   29.5740   38.6040 C   0  0  0  0  0  0  0  0  0  0  0  0
   36.5920   28.4860   39.4200 C   0  0  0  0  0  0  0  0  0  0  0  0
   37.6370   28.6400   40.3460 C   0  0  0  0  0  0  0  0  0  0  0  0
   38.2160   29.8640   40.3530 N   0  0  0  0  0  0  0  0  0  0  0  0
   37.8710   30.8950   39.5670 C   0  0  0  0  0  0  0  0  0  0  0  0
   36.8690   30.7260   38.6890 N   0  0  0  0  0  0  0  0  0  0  0  0
   35.4350   29.4360   37.8980 H   0  0  0  0  0  0  0  0  0  0  0  0
   36.1030   27.5250   39.3810 H   0  0  0  0  0  0  0  0  0  0  0  0
   38.0860   27.6260   41.2220 N   0  0  0  0  0  0  0  0  0  0  0  0
   38.0270   27.8230   42.6520 C   0  0  0  0  0  0  0  0  0  0  0  0
   38.9940   26.9120   43.3730 C   0  0  0  0  0  0  0  0  0  0  0  0
   38.9050   25.5490   43.0070 N   0  0  0  0  0  0  0  0  0  0  0  0
   38.6170   25.2700   41.6540 C   0  0  2  0  0  0  0  0  0  0  0  0
   38.6010   26.3960   40.6980 C   0  0  0  0  0  0  0  0  0  0  0  0
   38.1750   28.8480   42.9860 H   0  0  0  0  0  0  0  0  0  0  0  0
   36.9980   27.5130   42.9770 H   0  0  0  0  0  0  0  0  0  0  0  0
   40.0140   27.2870   43.1460 H   0  0  0  0  0  0  0  0  0  0  0  0
   38.8210   27.0200   44.4630 H   0  0  0  0  0  0  0  0  0  0  0  0
   38.3360   25.0150   43.7020 H   0  0  0  0  0  0  0  0  0  0  0  0
   39.3680   24.5190   41.2750 H   0  0  0  0  0  0  0  0  0  0  0  0
   39.6460   26.5440   40.3220 H   0  0  0  0  0  0  0  0  0  0  0  0
   38.0000   26.1210   39.8100 H   0  0  0  0  0  0  0  0  0  0  0  0
   37.2820   24.5700   41.5640 C   0  0  0  0  0  0  0  0  0  0  0  0
   37.4570   23.2030   41.4110 F   0  0  0  0  0  0  0  0  0  0  0  0
   36.6870   25.0240   40.3920 F   0  0  0  0  0  0  0  0  0  0  0  0
   36.4880   24.7750   42.6540 F   0  0  0  0  0  0  0  0  0  0  0  0
   38.5690   32.1690   39.6650 C   0  0  0  0  0  0  0  0  0  0  0  0
   37.9030   33.2750   40.1290 C   0  0  0  0  0  0  0  0  0  0  0  0
   38.6070   34.4730   40.2070 C   0  0  0  0  0  0  0  0  0  0  0  0
   39.9180   34.4490   39.8110 C   0  0  0  0  0  0  0  0  0  0  0  0
   40.5900   33.3520   39.3480 C   0  0  0  0  0  0  0  0  0  0  0  0
   39.8820   32.2040   39.2830 N   0  0  0  0  0  0  0  0  0  0  0  0
   36.8800   33.2360   40.4240 H   0  0  0  0  0  0  0  0  0  0  0  0
   38.1380   35.3860   40.5660 H   0  0  0  0  0  0  0  0  0  0  0  0
   40.4610   35.3820   39.8730 H   0  0  0  0  0  0  0  0  0  0  0  0
   42.8870   34.0310   39.6850 C   0  0  0  0  0  3  0  0  0  0  0  0
   41.9810   33.3200   38.9270 C   0  0  0  0  0  0  0  0  0  0  0  0
   42.4030   32.6140   37.8200 C   0  0  0  0  0  0  0  0  0  0  0  0
   41.7070   32.0540   37.2190 H   0  0  0  0  0  0  0  0  0  0  0  0
   43.7360   32.6200   37.4700 C   0  0  0  0  0  0  0  0  0  0  0  0
   44.4590   32.0460   36.4670 N   0  0  0  0  0  0  0  0  0  0  0  0
   44.0080   31.4360   35.7300 H   0  0  0  0  0  0  0  0  0  0  0  0
   45.7420   32.3570   36.5600 N   0  0  0  0  0  0  0  0  0  0  0  0
   45.9490   33.1600   37.6360 C   0  0  0  0  0  0  0  0  0  0  0  0
   46.8550   33.6110   38.0260 H   0  0  0  0  0  0  0  0  0  0  0  0
   44.7010   33.3230   38.2010 C   0  0  0  0  0  0  0  0  0  0  0  0
   44.2330   34.0140   39.3000 C   0  0  0  0  0  3  0  0  0  0  0  0
  1  6  2  0  0  0  0
  1  2  1  0  0  0  0
  2  3  2  0  0  0  0
  3  4  1  0  0  0  0
  3  9  1  0  0  0  0
  5 27  1  0  0  0  0
  5  4  2  0  0  0  0
  6  5  1  0  0  0  0
  7  1  1  0  0  0  0
  8  2  1  0  0  0  0
  9 10  1  0  0  0  0
 10 16  1  0  0  0  0
 10 15  1  0  0  0  0
 10 11  1  0  0  0  0
 11 18  1  0  0  0  0
 12 11  1  0  0  0  0
 12 19  1  0  0  0  0
 13 20  1  6  0  0  0
 13 12  1  0  0  0  0
 14  9  1  0  0  0  0
 14 13  1  0  0  0  0
 17 11  1  0  0  0  0
 21 14  1  0  0  0  0
 22 14  1  0  0  0  0
 23 13  1  0  0  0  0
 23 26  1  0  0  0  0
 24 23  1  0  0  0  0
 25 23  1  0  0  0  0
 27 28  1  0  0  0  0
 28 29  2  0  0  0  0
 28 33  1  0  0  0  0
 29 34  1  0  0  0  0
 30 35  1  0  0  0  0
 30 29  1  0  0  0  0
 31 30  2  0  0  0  0
 32 31  1  0  0  0  0
 32 27  2  0  0  0  0
 37 31  1  0  0  0  0
 37 36  2  0  0  0  0
 38 37  1  0  0  0  0
 39 38  1  0  0  0  0
 40 38  2  0  0  0  0
 40 46  1  0  0  0  0
 41 43  1  0  0  0  0
 41 40  1  0  0  0  0
 42 41  1  0  0  0  0
 43 44  2  0  0  0  0
 44 45  1  0  0  0  0
 44 46  1  0  0  0  0
 46 47  2  0  0  0  0
 47 36  1  0  0  0  0
M  END
>  <minimizedAffinity>
-6.86382246

$$$$

 OpenBabel03242522093D

 47 51  0  0  1  0  0  0  0  0999 V2000
   36.2910   24.0760   39.4580 C   0  0  0  0  0  0  0  0  0  0  0  0
   36.1440   24.5000   38.1270 C   0  0  0  0  0  0  0  0  0  0  0  0
   36.3150   25.8620   37.8260 C   0  0  0  0  0  0  0  0  0  0  0  0
   36.6140   26.6480   38.8870 N   0  0  0  0  0  0  0  0  0  0  0  0
   36.7520   26.2280   40.1540 C   0  0  0  0  0  0  0  0  0  0  0  0
   36.5840   24.9230   40.4210 N   0  0  0  0  0  0  0  0  0  0  0  0
   36.1560   23.0260   39.6710 H   0  0  0  0  0  0  0  0  0  0  0  0
   35.9040   23.8380   37.3110 H   0  0  0  0  0  0  0  0  0  0  0  0
   36.1940   26.4150   36.5310 N   0  0  0  0  0  0  0  0  0  0  0  0
   35.1450   25.9680   35.6440 C   0  0  0  0  0  0  0  0  0  0  0  0
   35.4850   26.2580   34.2010 C   0  0  0  0  0  0  0  0  0  0  0  0
   35.8830   27.5900   33.9440 N   0  0  0  0  0  0  0  0  0  0  0  0
   36.6450   28.2320   34.9440 C   0  0  2  0  0  0  0  0  0  0  0  0
   37.1110   27.4240   36.0900 C   0  0  0  0  0  0  0  0  0  0  0  0
   34.8630   24.9220   35.7480 H   0  0  0  0  0  0  0  0  0  0  0  0
   34.2370   26.5830   35.8850 H   0  0  0  0  0  0  0  0  0  0  0  0
   36.3100   25.5690   33.9230 H   0  0  0  0  0  0  0  0  0  0  0  0
   34.6000   26.0060   33.5810 H   0  0  0  0  0  0  0  0  0  0  0  0
   35.0860   28.1500   33.5650 H   0  0  0  0  0  0  0  0  0  0  0  0
   37.5570   28.6890   34.4630 H   0  0  0  0  0  0  0  0  0  0  0  0
   38.0910   26.9600   35.8080 H   0  0  0  0  0  0  0  0  0  0  0  0
   37.3310   28.0890   36.9480 H   0  0  0  0  0  0  0  0  0  0  0  0
   35.8630   29.4010   35.4920 C   0  0  0  0  0  0  0  0  0  0  0  0
   34.5130   29.2630   35.2060 F   0  0  0  0  0  0  0  0  0  0  0  0
   36.3010   30.5190   34.7900 F   0  0  0  0  0  0  0  0  0  0  0  0
   35.9960   29.5580   36.8410 F   0  0  0  0  0  0  0  0  0  0  0  0
   37.0760   27.1700   41.2160 C   0  0  0  0  0  0  0  0  0  0  0  0
   37.0380   26.7600   42.5240 C   0  0  0  0  0  0  0  0  0  0  0  0
   37.3550   27.6920   43.5080 C   0  0  0  0  0  0  0  0  0  0  0  0
   37.6820   28.9530   43.0860 C   0  0  0  0  0  0  0  0  0  0  0  0
   37.7230   29.3720   41.7840 C   0  0  0  0  0  0  0  0  0  0  0  0
   37.4100   28.4460   40.8510 N   0  0  0  0  0  0  0  0  0  0  0  0
   36.7760   25.7640   42.7960 H   0  0  0  0  0  0  0  0  0  0  0  0
   37.3440   27.4300   44.5640 H   0  0  0  0  0  0  0  0  0  0  0  0
   37.9270   29.6740   43.8540 H   0  0  0  0  0  0  0  0  0  0  0  0
   37.1000   31.4150   40.6490 C   0  0  0  0  0  3  0  0  0  0  0  0
   38.0690   30.7080   41.3300 C   0  0  0  0  0  0  0  0  0  0  0  0
   39.3080   31.2690   41.5580 C   0  0  0  0  0  0  0  0  0  0  0  0
   40.0730   30.7290   42.0880 H   0  0  0  0  0  0  0  0  0  0  0  0
   39.5780   32.5420   41.1030 C   0  0  0  0  0  0  0  0  0  0  0  0
   40.6660   33.3610   41.1600 N   0  0  0  0  0  0  0  0  0  0  0  0
   41.5650   33.0660   41.6340 H   0  0  0  0  0  0  0  0  0  0  0  0
   40.4290   34.5180   40.5620 N   0  0  0  0  0  0  0  0  0  0  0  0
   39.1630   34.5360   40.0710 C   0  0  0  0  0  0  0  0  0  0  0  0
   38.6200   35.3010   39.5270 H   0  0  0  0  0  0  0  0  0  0  0  0
   38.6350   33.3070   40.4070 C   0  0  0  0  0  0  0  0  0  0  0  0
   37.4100   32.7050   40.2030 C   0  0  0  0  0  3  0  0  0  0  0  0
  1  7  1  0  0  0  0
  1  6  1  0  0  0  0
  2  1  2  0  0  0  0
  3  2  1  0  0  0  0
  3  4  2  0  0  0  0
  4  5  1  0  0  0  0
  5  6  2  0  0  0  0
  5 27  1  0  0  0  0
  8  2  1  0  0  0  0
  9  3  1  0  0  0  0
 10 15  1  0  0  0  0
 10 16  1  0  0  0  0
 10  9  1  0  0  0  0
 11 10  1  0  0  0  0
 12 11  1  0  0  0  0
 12 13  1  0  0  0  0
 13 20  1  6  0  0  0
 13 23  1  0  0  0  0
 13 14  1  0  0  0  0
 14  9  1  0  0  0  0
 14 22  1  0  0  0  0
 17 11  1  0  0  0  0
 18 11  1  0  0  0  0
 19 12  1  0  0  0  0
 21 14  1  0  0  0  0
 23 26  1  0  0  0  0
 24 23  1  0  0  0  0
 25 23  1  0  0  0  0
 27 28  1  0  0  0  0
 28 33  1  0  0  0  0
 28 29  2  0  0  0  0
 29 34  1  0  0  0  0
 30 29  1  0  0  0  0
 30 35  1  0  0  0  0
 31 30  2  0  0  0  0
 32 27  2  0  0  0  0
 32 31  1  0  0  0  0
 36 37  1  0  0  0  0
 37 38  2  0  0  0  0
 37 31  1  0  0  0  0
 38 39  1  0  0  0  0
 40 41  1  0  0  0  0
 40 38  1  0  0  0  0
 41 42  1  0  0  0  0
 43 41  1  0  0  0  0
 44 46  1  0  0  0  0
 44 43  2  0  0  0  0
 45 44  1  0  0  0  0
 46 40  2  0  0  0  0
 47 46  1  0  0  0  0
 47 36  2  0  0  0  0
M  END
>  <minimizedAffinity>
-6.83128119

$$$$

 OpenBabel03242522093D

 47 51  0  0  1  0  0  0  0  0999 V2000
   41.9110   30.1260   43.0070 C   0  0  0  0  0  0  0  0  0  0  0  0
   41.1250   31.1180   42.3970 C   0  0  0  0  0  0  0  0  0  0  0  0
   39.8900   30.7540   41.8350 C   0  0  0  0  0  0  0  0  0  0  0  0
   39.5770   29.4410   41.9440 N   0  0  0  0  0  0  0  0  0  0  0  0
   40.3390   28.5050   42.5300 C   0  0  0  0  0  0  0  0  0  0  0  0
   41.5160   28.8730   43.0610 N   0  0  0  0  0  0  0  0  0  0  0  0
   42.8580   30.4240   43.4330 H   0  0  0  0  0  0  0  0  0  0  0  0
   41.4130   32.1550   42.3320 H   0  0  0  0  0  0  0  0  0  0  0  0
   39.0070   31.6530   41.1950 N   0  0  0  0  0  0  0  0  0  0  0  0
   39.4700   32.9580   40.7840 C   0  0  0  0  0  0  0  0  0  0  0  0
   38.3200   33.9240   40.6210 C   0  0  0  0  0  0  0  0  0  0  0  0
   37.2580   33.4470   39.8180 N   0  0  0  0  0  0  0  0  0  0  0  0
   36.9580   32.0710   39.9110 C   0  0  2  0  0  0  0  0  0  0  0  0
   37.6470   31.2760   40.9480 C   0  0  0  0  0  0  0  0  0  0  0  0
   40.2310   33.4040   41.4240 H   0  0  0  0  0  0  0  0  0  0  0  0
   39.9250   32.8330   39.7650 H   0  0  0  0  0  0  0  0  0  0  0  0
   37.9390   34.1420   41.6410 H   0  0  0  0  0  0  0  0  0  0  0  0
   38.7190   34.8660   40.1920 H   0  0  0  0  0  0  0  0  0  0  0  0
   37.3300   33.8210   38.8460 H   0  0  0  0  0  0  0  0  0  0  0  0
   35.8490   31.9550   40.0810 H   0  0  0  0  0  0  0  0  0  0  0  0
   37.0480   31.3480   41.8920 H   0  0  0  0  0  0  0  0  0  0  0  0
   37.6320   30.2050   40.6660 H   0  0  0  0  0  0  0  0  0  0  0  0
   37.2200   31.4140   38.5770 C   0  0  0  0  0  0  0  0  0  0  0  0
   37.2990   32.3650   37.5710 F   0  0  0  0  0  0  0  0  0  0  0  0
   36.0970   30.6420   38.3010 F   0  0  0  0  0  0  0  0  0  0  0  0
   38.3670   30.6750   38.5520 F   0  0  0  0  0  0  0  0  0  0  0  0
   39.8970   27.1180   42.5880 C   0  0  0  0  0  0  0  0  0  0  0  0
   40.4430   26.2680   43.5160 C   0  0  0  0  0  0  0  0  0  0  0  0
   39.9920   24.9520   43.5360 C   0  0  0  0  0  0  0  0  0  0  0  0
   39.0320   24.6100   42.6210 C   0  0  0  0  0  0  0  0  0  0  0  0
   38.4830   25.4500   41.6920 C   0  0  0  0  0  0  0  0  0  0  0  0
   38.9390   26.7210   41.6950 N   0  0  0  0  0  0  0  0  0  0  0  0
   41.1880   26.5890   44.2050 H   0  0  0  0  0  0  0  0  0  0  0  0
   40.3840   24.2280   44.2470 H   0  0  0  0  0  0  0  0  0  0  0  0
   38.6860   23.5860   42.6400 H   0  0  0  0  0  0  0  0  0  0  0  0
   36.8070   23.8950   40.9010 C   0  0  0  0  0  3  0  0  0  0  0  0
   37.4640   25.0930   40.7180 C   0  0  0  0  0  0  0  0  0  0  0  0
   37.1480   25.9030   39.6480 C   0  0  0  0  0  0  0  0  0  0  0  0
   37.6520   26.8420   39.4930 H   0  0  0  0  0  0  0  0  0  0  0  0
   36.1710   25.5130   38.7570 C   0  0  0  0  0  0  0  0  0  0  0  0
   35.6360   26.0630   37.6310 N   0  0  0  0  0  0  0  0  0  0  0  0
   35.9600   26.9970   37.2560 H   0  0  0  0  0  0  0  0  0  0  0  0
   34.6990   25.2840   37.1140 N   0  0  0  0  0  0  0  0  0  0  0  0
   34.5550   24.1650   37.8700 C   0  0  0  0  0  0  0  0  0  0  0  0
   33.8960   23.3100   37.7620 H   0  0  0  0  0  0  0  0  0  0  0  0
   35.4710   24.3080   38.8920 C   0  0  0  0  0  0  0  0  0  0  0  0
   35.8200   23.5300   39.9770 C   0  0  0  0  0  3  0  0  0  0  0  0
  1  6  1  0  0  0  0
  1  7  1  0  0  0  0
  2  1  2  0  0  0  0
  3  4  2  0  0  0  0
  3  2  1  0  0  0  0
  4  5  1  0  0  0  0
  5 27  1  0  0  0  0
  5  6  2  0  0  0  0
  8  2  1  0  0  0  0
  9  3  1  0  0  0  0
 10  9  1  0  0  0  0
 10 15  1  0  0  0  0
 11 10  1  0  0  0  0
 11 17  1  0  0  0  0
 12 13  1  0  0  0  0
 12 11  1  0  0  0  0
 13 20  1  1  0  0  0
 13 14  1  0  0  0  0
 14  9  1  0  0  0  0
 14 21  1  0  0  0  0
 16 10  1  0  0  0  0
 18 11  1  0  0  0  0
 19 12  1  0  0  0  0
 22 14  1  0  0  0  0
 23 13  1  0  0  0  0
 24 23  1  0  0  0  0
 25 23  1  0  0  0  0
 26 23  1  0  0  0  0
 27 28  1  0  0  0  0
 28 29  2  0  0  0  0
 28 33  1  0  0  0  0
 29 34  1  0  0  0  0
 30 35  1  0  0  0  0
 30 29  1  0  0  0  0
 31 32  1  0  0  0  0
 31 30  2  0  0  0  0
 32 27  2  0  0  0  0
 37 36  1  0  0  0  0
 37 31  1  0  0  0  0
 38 37  2  0  0  0  0
 39 38  1  0  0  0  0
 40 46  2  0  0  0  0
 40 38  1  0  0  0  0
 41 40  1  0  0  0  0
 42 41  1  0  0  0  0
 43 41  1  0  0  0  0
 43 44  2  0  0  0  0
 44 46  1  0  0  0  0
 45 44  1  0  0  0  0
 46 47  1  0  0  0  0
 47 36  2  0  0  0  0
M  END
>  <minimizedAffinity>
-6.82152939

$$$$

 OpenBabel03242522093D

 47 51  0  0  1  0  0  0  0  0999 V2000
   36.2990   23.8100   39.4780 C   0  0  0  0  0  0  0  0  0  0  0  0
   36.1470   24.2760   38.1610 C   0  0  0  0  0  0  0  0  0  0  0  0
   36.2920   25.6490   37.9060 C   0  0  0  0  0  0  0  0  0  0  0  0
   36.5720   26.4060   38.9930 N   0  0  0  0  0  0  0  0  0  0  0  0
   36.7140   25.9470   40.2460 C   0  0  0  0  0  0  0  0  0  0  0  0
   36.5710   24.6310   40.4690 N   0  0  0  0  0  0  0  0  0  0  0  0
   36.1840   22.7510   39.6550 H   0  0  0  0  0  0  0  0  0  0  0  0
   35.9230   23.6360   37.3220 H   0  0  0  0  0  0  0  0  0  0  0  0
   36.1640   26.2430   36.6300 N   0  0  0  0  0  0  0  0  0  0  0  0
   35.0740   25.8680   35.7590 C   0  0  0  0  0  0  0  0  0  0  0  0
   35.3900   26.1820   34.3150 C   0  0  0  0  0  0  0  0  0  0  0  0
   35.8420   27.5010   34.0830 N   0  0  0  0  0  0  0  0  0  0  0  0
   36.6580   28.0800   35.0790 C   0  0  2  0  0  0  0  0  0  0  0  0
   37.1150   27.2210   36.1910 C   0  0  0  0  0  0  0  0  0  0  0  0
   34.7470   24.8330   35.8430 H   0  0  0  0  0  0  0  0  0  0  0  0
   34.2010   26.5170   36.0400 H   0  0  0  0  0  0  0  0  0  0  0  0
   36.1750   25.4640   33.9980 H   0  0  0  0  0  0  0  0  0  0  0  0
   34.4790   25.9870   33.7130 H   0  0  0  0  0  0  0  0  0  0  0  0
   35.0630   28.1060   33.7410 H   0  0  0  0  0  0  0  0  0  0  0  0
   37.5770   28.5080   34.5870 H   0  0  0  0  0  0  0  0  0  0  0  0
   38.0650   26.7210   35.8720 H   0  0  0  0  0  0  0  0  0  0  0  0
   37.3870   27.8510   37.0600 H   0  0  0  0  0  0  0  0  0  0  0  0
   35.9440   29.2680   35.6780 C   0  0  0  0  0  0  0  0  0  0  0  0
   36.3080   30.4360   35.0250 F   0  0  0  0  0  0  0  0  0  0  0  0
   36.4150   29.3830   36.9810 F   0  0  0  0  0  0  0  0  0  0  0  0
   34.5840   29.1640   35.6320 F   0  0  0  0  0  0  0  0  0  0  0  0
   37.0160   26.8600   41.3400 C   0  0  0  0  0  0  0  0  0  0  0  0
   36.9500   26.4140   42.6360 C   0  0  0  0  0  0  0  0  0  0  0  0
   37.2470   27.3190   43.6510 C   0  0  0  0  0  0  0  0  0  0  0  0
   37.5830   28.5910   43.2700 C   0  0  0  0  0  0  0  0  0  0  0  0
   37.6500   29.0450   41.9820 C   0  0  0  0  0  0  0  0  0  0  0  0
   37.3570   28.1450   41.0180 N   0  0  0  0  0  0  0  0  0  0  0  0
   36.6830   25.4110   42.8750 H   0  0  0  0  0  0  0  0  0  0  0  0
   37.2130   27.0280   44.6990 H   0  0  0  0  0  0  0  0  0  0  0  0
   37.8110   29.2900   44.0630 H   0  0  0  0  0  0  0  0  0  0  0  0
   39.2570   30.8520   41.9260 C   0  0  0  0  0  3  0  0  0  0  0  0
   38.0060   30.3920   41.5710 C   0  0  0  0  0  0  0  0  0  0  0  0
   37.1470   31.1990   40.8550 C   0  0  0  0  0  0  0  0  0  0  0  0
   36.1670   30.8540   40.5710 H   0  0  0  0  0  0  0  0  0  0  0  0
   37.5400   32.4690   40.4930 C   0  0  0  0  0  0  0  0  0  0  0  0
   36.9510   33.4880   39.8050 N   0  0  0  0  0  0  0  0  0  0  0  0
   35.9730   33.4050   39.4120 H   0  0  0  0  0  0  0  0  0  0  0  0
   37.7540   34.5360   39.7160 N   0  0  0  0  0  0  0  0  0  0  0  0
   38.9310   34.2740   40.3420 C   0  0  0  0  0  0  0  0  0  0  0  0
   39.8190   34.8830   40.4740 H   0  0  0  0  0  0  0  0  0  0  0  0
   38.7980   32.9890   40.8240 C   0  0  0  0  0  0  0  0  0  0  0  0
   39.6230   32.1470   41.5400 C   0  0  0  0  0  3  0  0  0  0  0  0
  1  7  1  0  0  0  0
  1  6  1  0  0  0  0
  2  1  2  0  0  0  0
  3  2  1  0  0  0  0
  3  4  2  0  0  0  0
  4  5  1  0  0  0  0
  5  6  2  0  0  0  0
  5 27  1  0  0  0  0
  8  2  1  0  0  0  0
  9  3  1  0  0  0  0
 10 15  1  0  0  0  0
 10 16  1  0  0  0  0
 10  9  1  0  0  0  0
 11 10  1  0  0  0  0
 12 11  1  0  0  0  0
 12 13  1  0  0  0  0
 13 20  1  6  0  0  0
 13 23  1  0  0  0  0
 13 14  1  0  0  0  0
 14  9  1  0  0  0  0
 14 22  1  0  0  0  0
 17 11  1  0  0  0  0
 18 11  1  0  0  0  0
 19 12  1  0  0  0  0
 21 14  1  0  0  0  0
 23 25  1  0  0  0  0
 24 23  1  0  0  0  0
 26 23  1  0  0  0  0
 27 28  1  0  0  0  0
 28 33  1  0  0  0  0
 28 29  2  0  0  0  0
 29 34  1  0  0  0  0
 30 29  1  0  0  0  0
 30 35  1  0  0  0  0
 31 30  2  0  0  0  0
 32 27  2  0  0  0  0
 32 31  1  0  0  0  0
 37 36  1  0  0  0  0
 37 31  1  0  0  0  0
 38 37  2  0  0  0  0
 39 38  1  0  0  0  0
 40 46  2  0  0  0  0
 40 38  1  0  0  0  0
 41 40  1  0  0  0  0
 42 41  1  0  0  0  0
 43 41  1  0  0  0  0
 43 44  2  0  0  0  0
 44 45  1  0  0  0  0
 44 46  1  0  0  0  0
 46 47  1  0  0  0  0
 47 36  2  0  0  0  0
M  END
>  <minimizedAffinity>
-6.80578709

$$$$

 OpenBabel03242522093D

 47 51  0  0  1  0  0  0  0  0999 V2000
   36.2420   30.5090   40.9620 C   0  0  0  0  0  0  0  0  0  0  0  0
   37.1190   29.6380   41.6280 C   0  0  0  0  0  0  0  0  0  0  0  0
   37.1960   28.2990   41.2070 C   0  0  0  0  0  0  0  0  0  0  0  0
   36.3890   27.9810   40.1680 N   0  0  0  0  0  0  0  0  0  0  0  0
   35.5560   28.8250   39.5400 C   0  0  0  0  0  0  0  0  0  0  0  0
   35.4960   30.1000   39.9590 N   0  0  0  0  0  0  0  0  0  0  0  0
   36.1950   31.5340   41.3000 H   0  0  0  0  0  0  0  0  0  0  0  0
   37.7450   29.9340   42.4540 H   0  0  0  0  0  0  0  0  0  0  0  0
   38.0360   27.3250   41.7920 N   0  0  0  0  0  0  0  0  0  0  0  0
   38.1270   27.2110   43.2290 C   0  0  0  0  0  0  0  0  0  0  0  0
   39.4070   26.5240   43.6460 C   0  0  0  0  0  0  0  0  0  0  0  0
   39.6610   25.2990   42.9870 N   0  0  0  0  0  0  0  0  0  0  0  0
   39.2750   25.2130   41.6320 C   0  0  2  0  0  0  0  0  0  0  0  0
   38.8020   26.4420   40.9630 C   0  0  0  0  0  0  0  0  0  0  0  0
   38.0220   28.1460   43.7760 H   0  0  0  0  0  0  0  0  0  0  0  0
   37.2870   26.5400   43.5530 H   0  0  0  0  0  0  0  0  0  0  0  0
   40.2340   27.2330   43.4330 H   0  0  0  0  0  0  0  0  0  0  0  0
   39.3670   26.3580   44.7420 H   0  0  0  0  0  0  0  0  0  0  0  0
   39.3740   24.4900   43.5820 H   0  0  0  0  0  0  0  0  0  0  0  0
   40.1480   24.8210   41.0340 H   0  0  0  0  0  0  0  0  0  0  0  0
   39.6960   26.9770   40.5510 H   0  0  0  0  0  0  0  0  0  0  0  0
   38.1840   26.1720   40.0840 H   0  0  0  0  0  0  0  0  0  0  0  0
   38.1980   24.1650   41.4870 C   0  0  0  0  0  0  0  0  0  0  0  0
   37.6070   23.8980   42.7120 F   0  0  0  0  0  0  0  0  0  0  0  0
   38.8470   22.9970   41.1010 F   0  0  0  0  0  0  0  0  0  0  0  0
   37.2140   24.5170   40.6100 F   0  0  0  0  0  0  0  0  0  0  0  0
   34.7330   28.3660   38.4300 C   0  0  0  0  0  0  0  0  0  0  0  0
   34.9570   27.1280   37.8840 C   0  0  0  0  0  0  0  0  0  0  0  0
   34.1480   26.7290   36.8230 C   0  0  0  0  0  0  0  0  0  0  0  0
   33.1870   27.6120   36.4090 C   0  0  0  0  0  0  0  0  0  0  0  0
   32.9560   28.8480   36.9470 C   0  0  0  0  0  0  0  0  0  0  0  0
   33.7560   29.2090   37.9740 N   0  0  0  0  0  0  0  0  0  0  0  0
   35.7210   26.4800   38.2470 H   0  0  0  0  0  0  0  0  0  0  0  0
   34.2740   25.7590   36.3460 H   0  0  0  0  0  0  0  0  0  0  0  0
   32.5610   27.2980   35.5850 H   0  0  0  0  0  0  0  0  0  0  0  0
   31.0250   30.2130   37.4560 C   0  0  0  0  0  3  0  0  0  0  0  0
   31.9380   29.7900   36.5130 C   0  0  0  0  0  0  0  0  0  0  0  0
   31.8670   30.2580   35.2180 C   0  0  0  0  0  0  0  0  0  0  0  0
   32.5730   29.9370   34.4720 H   0  0  0  0  0  0  0  0  0  0  0  0
   30.8790   31.1510   34.8640 C   0  0  0  0  0  0  0  0  0  0  0  0
   30.5400   31.7870   33.7070 N   0  0  0  0  0  0  0  0  0  0  0  0
   31.0830   31.6430   32.8110 H   0  0  0  0  0  0  0  0  0  0  0  0
   29.4850   32.5660   33.8780 N   0  0  0  0  0  0  0  0  0  0  0  0
   29.0570   32.4960   35.1650 C   0  0  0  0  0  0  0  0  0  0  0  0
   28.2330   32.9860   35.6710 H   0  0  0  0  0  0  0  0  0  0  0  0
   29.9250   31.6150   35.7780 C   0  0  0  0  0  0  0  0  0  0  0  0
   30.0350   31.1210   37.0620 C   0  0  0  0  0  3  0  0  0  0  0  0
  1  7  1  0  0  0  0
  1  2  1  0  0  0  0
  2  8  1  0  0  0  0
  3  2  2  0  0  0  0
  3  9  1  0  0  0  0
  4  3  1  0  0  0  0
  5  6  1  0  0  0  0
  5  4  2  0  0  0  0
  6  1  2  0  0  0  0
  9 10  1  0  0  0  0
 10 16  1  0  0  0  0
 10 11  1  0  0  0  0
 10 15  1  0  0  0  0
 11 18  1  0  0  0  0
 12 19  1  0  0  0  0
 12 11  1  0  0  0  0
 13 20  1  6  0  0  0
 13 12  1  0  0  0  0
 14 13  1  0  0  0  0
 14  9  1  0  0  0  0
 17 11  1  0  0  0  0
 21 14  1  0  0  0  0
 22 14  1  0  0  0  0
 23 13  1  0  0  0  0
 23 24  1  0  0  0  0
 25 23  1  0  0  0  0
 26 23  1  0  0  0  0
 27  5  1  0  0  0  0
 28 33  1  0  0  0  0
 28 27  2  0  0  0  0
 29 28  1  0  0  0  0
 30 29  2  0  0  0  0
 30 31  1  0  0  0  0
 31 32  2  0  0  0  0
 32 27  1  0  0  0  0
 34 29  1  0  0  0  0
 35 30  1  0  0  0  0
 37 31  1  0  0  0  0
 37 36  2  0  0  0  0
 38 37  1  0  0  0  0
 39 38  1  0  0  0  0
 40 38  2  0  0  0  0
 40 46  1  0  0  0  0
 41 43  1  0  0  0  0
 41 40  1  0  0  0  0
 42 41  1  0  0  0  0
 43 44  2  0  0  0  0
 44 45  1  0  0  0  0
 44 46  1  0  0  0  0
 46 47  2  0  0  0  0
 47 36  1  0  0  0  0
M  END
>  <minimizedAffinity>
-6.65595484

$$$$

 OpenBabel03242522093D

 47 51  0  0  1  0  0  0  0  0999 V2000
   35.0560   27.8600   35.2520 C   0  0  0  0  0  0  0  0  0  0  0  0
   33.7620   28.2660   34.8880 C   0  0  0  0  0  0  0  0  0  0  0  0
   33.0400   29.0970   35.7610 C   0  0  0  0  0  0  0  0  0  0  0  0
   33.6910   29.4290   36.9010 N   0  0  0  0  0  0  0  0  0  0  0  0
   34.9290   29.0340   37.2350 C   0  0  0  0  0  0  0  0  0  0  0  0
   35.6020   28.2400   36.3870 N   0  0  0  0  0  0  0  0  0  0  0  0
   35.5960   27.2220   34.5680 H   0  0  0  0  0  0  0  0  0  0  0  0
   33.2790   27.9760   33.9680 H   0  0  0  0  0  0  0  0  0  0  0  0
   31.7330   29.5740   35.5140 N   0  0  0  0  0  0  0  0  0  0  0  0
   30.7920   29.7150   36.6010 C   0  0  0  0  0  0  0  0  0  0  0  0
   29.3670   29.7170   36.0990 C   0  0  0  0  0  0  0  0  0  0  0  0
   29.1160   30.6220   35.0420 N   0  0  0  0  0  0  0  0  0  0  0  0
   30.1500   30.8030   34.0990 C   0  0  2  0  0  0  0  0  0  0  0  0
   31.3320   29.9210   34.1830 C   0  0  0  0  0  0  0  0  0  0  0  0
   30.8950   28.9840   37.4020 H   0  0  0  0  0  0  0  0  0  0  0  0
   30.9710   30.7280   37.0520 H   0  0  0  0  0  0  0  0  0  0  0  0
   29.1480   28.6850   35.7570 H   0  0  0  0  0  0  0  0  0  0  0  0
   28.7010   29.9480   36.9560 H   0  0  0  0  0  0  0  0  0  0  0  0
   28.6840   31.5030   35.4020 H   0  0  0  0  0  0  0  0  0  0  0  0
   29.7170   30.6850   33.0640 H   0  0  0  0  0  0  0  0  0  0  0  0
   31.1150   28.9960   33.5900 H   0  0  0  0  0  0  0  0  0  0  0  0
   32.1920   30.4040   33.6790 H   0  0  0  0  0  0  0  0  0  0  0  0
   30.6350   32.2320   34.1600 C   0  0  0  0  0  0  0  0  0  0  0  0
   32.0200   32.2790   34.1350 F   0  0  0  0  0  0  0  0  0  0  0  0
   30.2470   32.7170   35.4040 F   0  0  0  0  0  0  0  0  0  0  0  0
   30.1670   33.0070   33.1390 F   0  0  0  0  0  0  0  0  0  0  0  0
   35.5290   29.4580   38.4930 C   0  0  0  0  0  0  0  0  0  0  0  0
   35.0350   28.9760   39.6780 C   0  0  0  0  0  0  0  0  0  0  0  0
   35.6370   29.4070   40.8570 C   0  0  0  0  0  0  0  0  0  0  0  0
   36.6820   30.2830   40.7360 C   0  0  0  0  0  0  0  0  0  0  0  0
   37.1810   30.7700   39.5580 C   0  0  0  0  0  0  0  0  0  0  0  0
   36.5770   30.3350   38.4310 N   0  0  0  0  0  0  0  0  0  0  0  0
   34.2180   28.2940   39.7140 H   0  0  0  0  0  0  0  0  0  0  0  0
   35.2930   29.0620   41.8300 H   0  0  0  0  0  0  0  0  0  0  0  0
   37.1460   30.6150   41.6540 H   0  0  0  0  0  0  0  0  0  0  0  0
   38.5280   32.5570   40.4770 C   0  0  0  0  0  3  0  0  0  0  0  0
   38.2900   31.7000   39.4230 C   0  0  0  0  0  0  0  0  0  0  0  0
   39.0860   31.7420   38.2980 C   0  0  0  0  0  0  0  0  0  0  0  0
   38.9130   31.0790   37.4690 H   0  0  0  0  0  0  0  0  0  0  0  0
   40.1250   32.6460   38.2270 C   0  0  0  0  0  0  0  0  0  0  0  0
   41.0700   32.9370   37.2890 N   0  0  0  0  0  0  0  0  0  0  0  0
   41.1200   32.4220   36.3670 H   0  0  0  0  0  0  0  0  0  0  0  0
   41.8670   33.9120   37.6960 N   0  0  0  0  0  0  0  0  0  0  0  0
   41.4980   34.3280   38.9360 C   0  0  0  0  0  0  0  0  0  0  0  0
   41.9080   35.0960   39.5820 H   0  0  0  0  0  0  0  0  0  0  0  0
   40.4140   33.5400   39.2650 C   0  0  0  0  0  0  0  0  0  0  0  0
   39.5910   33.4610   40.3700 C   0  0  0  0  0  3  0  0  0  0  0  0
  1  6  1  0  0  0  0
  2  1  2  0  0  0  0
  2  3  1  0  0  0  0
  3  4  2  0  0  0  0
  4  5  1  0  0  0  0
  5 27  1  0  0  0  0
  6  5  2  0  0  0  0
  7  1  1  0  0  0  0
  8  2  1  0  0  0  0
  9  3  1  0  0  0  0
  9 10  1  0  0  0  0
 10 16  1  0  0  0  0
 10 15  1  0  0  0  0
 11 10  1  0  0  0  0
 11 18  1  0  0  0  0
 12 19  1  0  0  0  0
 12 11  1  0  0  0  0
 13 20  1  6  0  0  0
 13 23  1  0  0  0  0
 13 14  1  0  0  0  0
 13 12  1  0  0  0  0
 14  9  1  0  0  0  0
 17 11  1  0  0  0  0
 21 14  1  0  0  0  0
 22 14  1  0  0  0  0
 23 25  1  0  0  0  0
 24 23  1  0  0  0  0
 26 23  1  0  0  0  0
 27 28  1  0  0  0  0
 28 33  1  0  0  0  0
 28 29  2  0  0  0  0
 29 34  1  0  0  0  0
 30 29  1  0  0  0  0
 30 35  1  0  0  0  0
 31 30  2  0  0  0  0
 32 27  2  0  0  0  0
 32 31  1  0  0  0  0
 37 31  1  0  0  0  0
 37 36  2  0  0  0  0
 38 37  1  0  0  0  0
 39 38  1  0  0  0  0
 40 38  2  0  0  0  0
 40 46  1  0  0  0  0
 41 43  1  0  0  0  0
 41 40  1  0  0  0  0
 42 41  1  0  0  0  0
 43 44  2  0  0  0  0
 44 46  1  0  0  0  0
 44 45  1  0  0  0  0
 46 47  2  0  0  0  0
 47 36  1  0  0  0  0
M  END
>  <minimizedAffinity>
-6.60896969

$$$$

 OpenBabel03242522093D

 47 51  0  0  1  0  0  0  0  0999 V2000
   35.1110   28.7250   35.0560 C   0  0  0  0  0  0  0  0  0  0  0  0
   33.7090   28.7330   34.9760 C   0  0  0  0  0  0  0  0  0  0  0  0
   32.9640   29.0350   36.1280 C   0  0  0  0  0  0  0  0  0  0  0  0
   33.7030   29.2960   37.2320 N   0  0  0  0  0  0  0  0  0  0  0  0
   35.0430   29.2840   37.2950 C   0  0  0  0  0  0  0  0  0  0  0  0
   35.7360   28.9920   36.1820 N   0  0  0  0  0  0  0  0  0  0  0  0
   35.6670   28.4900   34.1610 H   0  0  0  0  0  0  0  0  0  0  0  0
   33.1600   28.5180   34.0730 H   0  0  0  0  0  0  0  0  0  0  0  0
   31.5530   29.0770   36.1790 N   0  0  0  0  0  0  0  0  0  0  0  0
   30.7810   27.8760   35.9560 C   0  0  0  0  0  0  0  0  0  0  0  0
   29.3670   28.2010   35.5350 C   0  0  0  0  0  0  0  0  0  0  0  0
   28.7010   29.1280   36.3700 N   0  0  0  0  0  0  0  0  0  0  0  0
   29.4830   30.1670   36.9200 C   0  0  2  0  0  0  0  0  0  0  0  0
   30.8770   30.3100   36.4540 C   0  0  0  0  0  0  0  0  0  0  0  0
   31.2170   27.1680   35.2530 H   0  0  0  0  0  0  0  0  0  0  0  0
   30.7040   27.3550   36.9480 H   0  0  0  0  0  0  0  0  0  0  0  0
   29.4270   28.6120   34.5060 H   0  0  0  0  0  0  0  0  0  0  0  0
   28.7930   27.2530   35.4960 H   0  0  0  0  0  0  0  0  0  0  0  0
   28.0770   28.6360   37.0480 H   0  0  0  0  0  0  0  0  0  0  0  0
   28.9620   31.1490   36.7260 H   0  0  0  0  0  0  0  0  0  0  0  0
   30.8710   30.9590   35.5400 H   0  0  0  0  0  0  0  0  0  0  0  0
   31.4660   30.8650   37.2100 H   0  0  0  0  0  0  0  0  0  0  0  0
   29.5100   30.0270   38.4220 C   0  0  0  0  0  0  0  0  0  0  0  0
   28.9220   31.1280   39.0270 F   0  0  0  0  0  0  0  0  0  0  0  0
   30.8520   30.0480   38.7860 F   0  0  0  0  0  0  0  0  0  0  0  0
   28.8750   28.9070   38.8750 F   0  0  0  0  0  0  0  0  0  0  0  0
   35.7300   29.5820   38.5440 C   0  0  0  0  0  0  0  0  0  0  0  0
   35.2790   29.0290   39.7160 C   0  0  0  0  0  0  0  0  0  0  0  0
   35.9650   29.3400   40.8870 C   0  0  0  0  0  0  0  0  0  0  0  0
   37.0420   30.1780   40.7720 C   0  0  0  0  0  0  0  0  0  0  0  0
   37.4980   30.7340   39.6080 C   0  0  0  0  0  0  0  0  0  0  0  0
   36.8130   30.4150   38.4880 N   0  0  0  0  0  0  0  0  0  0  0  0
   34.4350   28.3820   39.7470 H   0  0  0  0  0  0  0  0  0  0  0  0
   35.6590   28.9350   41.8490 H   0  0  0  0  0  0  0  0  0  0  0  0
   37.5710   30.4170   41.6840 H   0  0  0  0  0  0  0  0  0  0  0  0
   39.0660   32.2740   40.6190 C   0  0  0  0  0  3  0  0  0  0  0  0
   38.6400   31.6240   39.4790 C   0  0  0  0  0  0  0  0  0  0  0  0
   39.2890   31.8250   38.2800 C   0  0  0  0  0  0  0  0  0  0  0  0
   38.9690   31.3240   37.3830 H   0  0  0  0  0  0  0  0  0  0  0  0
   40.3680   32.6810   38.2190 C   0  0  0  0  0  0  0  0  0  0  0  0
   41.2050   33.0880   37.2230 N   0  0  0  0  0  0  0  0  0  0  0  0
   41.1040   32.7390   36.2300 H   0  0  0  0  0  0  0  0  0  0  0  0
   42.1100   33.9420   37.6740 N   0  0  0  0  0  0  0  0  0  0  0  0
   41.9280   34.1530   39.0040 C   0  0  0  0  0  0  0  0  0  0  0  0
   42.4670   34.7780   39.7070 H   0  0  0  0  0  0  0  0  0  0  0  0
   40.8450   33.3680   39.3420 C   0  0  0  0  0  0  0  0  0  0  0  0
   40.1650   33.1360   40.5200 C   0  0  0  0  0  3  0  0  0  0  0  0
  1  6  1  0  0  0  0
  2  1  2  0  0  0  0
  2  3  1  0  0  0  0
  3  9  1  0  0  0  0
  3  4  2  0  0  0  0
  4  5  1  0  0  0  0
  5 27  1  0  0  0  0
  6  5  2  0  0  0  0
  7  1  1  0  0  0  0
  8  2  1  0  0  0  0
  9 14  1  0  0  0  0
 10  9  1  0  0  0  0
 10 16  1  0  0  0  0
 11 10  1  0  0  0  0
 11 12  1  0  0  0  0
 12 13  1  0  0  0  0
 12 19  1  0  0  0  0
 13 20  1  6  0  0  0
 13 23  1  0  0  0  0
 14 13  1  0  0  0  0
 14 22  1  0  0  0  0
 15 10  1  0  0  0  0
 17 11  1  0  0  0  0
 18 11  1  0  0  0  0
 21 14  1  0  0  0  0
 23 25  1  0  0  0  0
 23 26  1  0  0  0  0
 23 24  1  0  0  0  0
 27 28  1  0  0  0  0
 28 33  1  0  0  0  0
 28 29  2  0  0  0  0
 29 34  1  0  0  0  0
 30 29  1  0  0  0  0
 30 35  1  0  0  0  0
 31 30  2  0  0  0  0
 32 27  2  0  0  0  0
 32 31  1  0  0  0  0
 37 31  1  0  0  0  0
 37 36  2  0  0  0  0
 38 37  1  0  0  0  0
 39 38  1  0  0  0  0
 40 38  2  0  0  0  0
 40 46  1  0  0  0  0
 41 43  1  0  0  0  0
 41 40  1  0  0  0  0
 42 41  1  0  0  0  0
 43 44  2  0  0  0  0
 44 46  1  0  0  0  0
 44 45  1  0  0  0  0
 46 47  2  0  0  0  0
 47 36  1  0  0  0  0
M  END
>  <minimizedAffinity>
-6.52796888

$$$$
