
 OpenBabel03252502003D

 37 41  0  0  0  0  0  0  0  0999 V2000
   47.3630   32.4010   47.9290 C   0  0  0  0  0  0  0  0  0  0  0  0
   46.8390   31.1340   48.0750 C   0  0  0  0  0  0  0  0  0  0  0  0
   45.9380   30.7480   47.1230 C   0  0  0  0  0  0  0  0  0  0  0  0
   45.6060   31.5790   46.1200 N   0  0  0  0  0  0  0  0  0  0  0  0
   46.1120   32.7930   45.9860 C   0  0  0  0  0  0  0  0  0  0  0  0
   46.9900   33.1630   46.9170 N   0  0  0  0  0  0  0  0  0  0  0  0
   48.0890   32.7100   48.6960 H   0  0  0  0  0  0  0  0  0  0  0  0
   45.8990   33.8520   44.9900 C   0  0  0  0  0  0  0  0  0  0  0  0
   44.9400   34.8010   45.0980 N   0  0  0  0  0  0  0  0  0  0  0  0
   44.7090   35.7730   44.2300 C   0  0  0  0  0  0  0  0  0  0  0  0
   45.4790   35.8690   43.1120 N   0  0  0  0  0  0  0  0  0  0  0  0
   46.4650   34.9810   42.8970 C   0  0  0  0  0  0  0  0  0  0  0  0
   47.2480   35.0810   41.7570 C   0  0  0  0  0  0  0  0  0  0  0  0
   48.2570   34.1880   41.5180 C   0  0  0  0  0  0  0  0  0  0  0  0
   48.4610   33.1870   42.4550 C   0  0  0  0  0  0  0  0  0  0  0  0
   47.6610   33.1250   43.5710 C   0  0  0  0  0  0  0  0  0  0  0  0
   46.6450   33.9940   43.8490 C   0  0  0  0  0  0  0  0  0  0  0  0
   43.9230   36.4840   44.3970 H   0  0  0  0  0  0  0  0  0  0  0  0
   47.0420   35.8850   41.0590 H   0  0  0  0  0  0  0  0  0  0  0  0
   48.8250   34.3300   40.6070 H   0  0  0  0  0  0  0  0  0  0  0  0
   49.2560   32.4870   42.2630 H   0  0  0  0  0  0  0  0  0  0  0  0
   47.8670   32.3180   44.2730 H   0  0  0  0  0  0  0  0  0  0  0  0
   44.8160   28.9010   45.9960 C   0  0  0  0  0  0  0  0  0  0  0  0
   45.3180   29.4560   47.1570 C   0  0  0  0  0  0  0  0  0  0  0  0
   45.2270   28.7720   48.3590 C   0  0  0  0  0  0  0  0  0  0  0  0
   45.6080   29.1870   49.2580 H   0  0  0  0  0  0  0  0  0  0  0  0
   44.6120   27.5190   48.3200 C   0  0  0  0  0  0  0  0  0  0  0  0
   44.4050   26.6620   49.3640 N   0  0  0  0  0  0  0  0  0  0  0  0
   44.6800   26.8130   50.3710 H   0  0  0  0  0  0  0  0  0  0  0  0
   43.7900   25.5930   48.8820 N   0  0  0  0  0  0  0  0  0  0  0  0
   43.6010   25.7450   47.5660 C   0  0  0  0  0  0  0  0  0  0  0  0
   43.1240   25.0480   46.8720 H   0  0  0  0  0  0  0  0  0  0  0  0
   44.1110   26.9580   47.1760 C   0  0  0  0  0  0  0  0  0  0  0  0
   44.2090   27.6550   45.9820 C   0  0  0  0  0  0  0  0  0  0  0  0
   47.2220   30.3060   49.1430 N   0  0  0  0  0  0  0  0  0  0  0  0
   47.3070   29.3060   48.8890 H   0  0  0  0  0  0  0  0  0  0  0  0
   47.4270   30.5390   50.1220 H   0  0  0  0  0  0  0  0  0  0  0  0
  1  2  1  0  0  0  0
  1  7  1  0  0  0  0
  2 35  1  0  0  0  0
  3 24  1  0  0  0  0
  3  2  2  0  0  0  0
  4  3  1  0  0  0  0
  5  4  2  0  0  0  0
  5  6  1  0  0  0  0
  6  1  2  0  0  0  0
  8  9  1  0  0  0  0
  8  5  1  0  0  0  0
 10 18  1  0  0  0  0
 10  9  2  0  0  0  0
 11 10  1  0  0  0  0
 12 11  2  0  0  0  0
 12 17  1  0  0  0  0
 13 12  1  0  0  0  0
 14 13  2  0  0  0  0
 14 15  1  0  0  0  0
 15 16  2  0  0  0  0
 16 17  1  0  0  0  0
 16 22  1  0  0  0  0
 17  8  2  0  0  0  0
 19 13  1  0  0  0  0
 20 14  1  0  0  0  0
 21 15  1  0  0  0  0
 23 24  1  0  0  0  0
 24 25  2  0  0  0  0
 25 26  1  0  0  0  0
 27 25  1  0  0  0  0
 27 28  1  0  0  0  0
 28 29  1  0  0  0  0
 30 28  1  0  0  0  0
 31 30  2  0  0  0  0
 32 31  1  0  0  0  0
 33 31  1  0  0  0  0
 33 27  2  0  0  0  0
 34 23  2  0  0  0  0
 34 33  1  0  0  0  0
 35 37  1  0  0  0  0
 36 35  1  0  0  0  0
M  END
>  <minimizedAffinity>
-7.06226015

>  <minimizedRMSD>
0.830878317

$$$$
