
     RDKit          3D

 48 53  0  0  0  0  0  0  0  0999 V2000
   44.7841   35.9805   43.2983 Cl  0  0  0  0  0  0  0  0  0  0  0  0
   45.5366   34.7351   44.2476 C   0  0  0  0  0  0  0  0  0  0  0  0
   46.6355   34.0503   43.7559 C   0  0  0  0  0  0  0  0  0  0  0  0
   47.1527   33.0879   44.5847 C   0  0  0  0  0  0  0  0  0  0  0  0
   46.6633   32.7687   45.8374 C   0  0  0  0  0  0  0  0  0  0  0  0
   45.5720   33.4687   46.2925 C   0  0  0  0  0  0  0  0  0  0  0  0
   44.9781   33.0380   47.8849 Cl  0  0  0  0  0  0  0  0  0  0  0  0
   45.0157   34.4415   45.5044 C   0  0  0  0  0  0  0  0  0  0  0  0
   47.3562   31.7084   46.5682 C   0  0  0  0  0  0  0  0  0  0  0  0
   47.4654   30.4166   46.0932 C   0  0  0  0  0  0  0  0  0  0  0  0
   48.1168   29.3962   46.7681 C   0  0  0  0  0  0  0  0  0  0  0  0
   48.6959   29.6790   47.9924 C   0  0  0  0  0  0  0  0  0  0  0  0
   49.3190   28.6627   48.6167 N   0  0  0  0  0  0  0  0  0  0  0  0
   49.9183   28.8436   49.8252 C   0  0  0  0  0  0  0  0  0  0  0  0
   49.8495   30.1150   50.3645 C   0  0  0  0  0  0  0  0  0  0  0  0
   49.2114   31.1314   49.7123 C   0  0  0  0  0  0  0  0  0  0  0  0
   48.6104   30.9415   48.4961 C   0  0  0  0  0  0  0  0  0  0  0  0
   47.9545   31.9411   47.8019 C   0  0  0  0  0  0  0  0  0  0  0  0
   48.7734   35.4424   41.1619 C   0  0  0  0  0  0  0  0  0  0  0  0
   48.2754   34.8617   39.9879 C   0  0  0  0  0  0  0  0  0  0  0  0
   47.1840   33.9748   40.0907 C   0  0  0  0  0  0  0  0  0  0  0  0
   46.7006   33.7537   41.3269 N   0  0  0  0  0  0  0  0  0  0  0  0
   47.2042   34.3317   42.4496 C   0  0  0  0  0  0  0  0  0  0  0  0
   48.2390   35.1756   42.3733 N   0  0  0  0  0  0  0  0  0  0  0  0
   48.0215   32.5502   44.1899 H   0  0  0  0  0  0  0  0  0  0  0  0
   44.1658   34.9633   45.8976 H   0  0  0  0  0  0  0  0  0  0  0  0
   46.9956   30.2406   45.1282 H   0  0  0  0  0  0  0  0  0  0  0  0
   48.1420   28.4168   46.3010 H   0  0  0  0  0  0  0  0  0  0  0  0
   50.4081   27.9805   50.2822 H   0  0  0  0  0  0  0  0  0  0  0  0
   50.3280   30.2496   51.3242 H   0  0  0  0  0  0  0  0  0  0  0  0
   49.1848   32.1149   50.1790 H   0  0  0  0  0  0  0  0  0  0  0  0
   47.9198   32.9253   48.2539 H   0  0  0  0  0  0  0  0  0  0  0  0
   49.6061   36.1211   41.0973 H   0  0  0  0  0  0  0  0  0  0  0  0
   48.6715   35.0490   39.0176 H   0  0  0  0  0  0  0  0  0  0  0  0
   45.3522   33.7823   38.5477 C   0  0  0  0  0  0  0  0  0  0  0  0
   46.5655   33.3005   38.9579 C   0  0  0  0  0  0  0  0  0  0  0  0
   47.1503   32.2314   38.3154 C   0  0  0  0  0  0  0  0  0  0  0  0
   48.0959   31.8479   38.6270 H   0  0  0  0  0  0  0  0  0  0  0  0
   46.5403   31.6121   37.2442 C   0  0  0  0  0  0  0  0  0  0  0  0
   46.8752   30.5775   36.4520 N   0  0  0  0  0  0  0  0  0  0  0  0
   47.7795   30.0387   36.5775 H   0  0  0  0  0  0  0  0  0  0  0  0
   45.9126   30.3996   35.5642 N   0  0  0  0  0  0  0  0  0  0  0  0
   44.9342   31.3029   35.7502 C   0  0  0  0  0  0  0  0  0  0  0  0
   44.0328   31.3973   35.1809 H   0  0  0  0  0  0  0  0  0  0  0  0
   45.3039   32.1075   36.8306 C   0  0  0  0  0  0  0  0  0  0  0  0
   44.6923   33.1896   37.4664 C   0  0  0  0  0  0  0  0  0  0  0  0
   44.8006   34.6255   38.9879 H   0  0  0  0  0  0  0  0  0  0  0  0
   43.7413   33.5309   37.1083 H   0  0  0  0  0  0  0  0  0  0  0  0
  1  2  1  0
  2  8  2  0
  3  2  1  0
  3  4  2  0
  4  5  1  0
  5  6  2  0
  5  9  1  0
  6  7  1  0
  8  6  1  0
  9 18  1  0
 10  9  2  0
 10 11  1  0
 11 12  2  0
 12 17  1  0
 12 13  1  0
 13 14  2  0
 14 15  1  0
 16 15  2  0
 17 16  1  0
 18 17  2  0
 19 24  2  0
 20 21  2  0
 20 19  1  0
 21 22  1  0
 22 23  2  0
 23  3  1  0
 24 23  1  0
  4 25  1  0
  8 26  1  0
 10 27  1  0
 11 28  1  0
 14 29  1  0
 15 30  1  0
 16 31  1  0
 18 32  1  0
 19 33  1  0
 20 34  1  0
 35 36  2  0
 36 37  1  0
 37 38  1  0
 37 39  2  0
 39 40  1  0
 40 41  1  0
 40 42  1  0
 42 43  2  0
 43 44  1  0
 43 45  1  0
 45 46  2  0
 46 35  1  0
 45 39  1  0
 35 47  1  0
 46 48  1  0
 21 36  1  0
M  ISO  8  25  14  26  14  27  14  28  14  29  14  30  14  31  14  32  14
M  ISO  5  33  14  34  14  38  16  41   5  44  15
M  END
>  <DihAtoms>  (1) 
19,20,35,34

>  <DihDeg>  (1) 
-179.99905996794493

$$$$
