
 OpenBabel03252506043D

 46 51  0  0  0  0  0  0  0  0999 V2000
   44.8300   36.0020   43.3290 Cl  0  0  0  0  0  0  0  0  0  0  0  0
   45.5760   34.7480   44.2720 C   0  0  0  0  0  0  0  0  0  0  0  0
   46.7060   34.0990   43.8010 C   0  0  0  0  0  0  0  0  0  0  0  0
   47.2150   33.1260   44.6230 C   0  0  0  0  0  0  0  0  0  0  0  0
   46.6880   32.7630   45.8470 C   0  0  0  0  0  0  0  0  0  0  0  0
   45.5670   33.4280   46.2820 C   0  0  0  0  0  0  0  0  0  0  0  0
   44.9270   32.9410   47.8410 Cl  0  0  0  0  0  0  0  0  0  0  0  0
   45.0180   34.4090   45.5000 C   0  0  0  0  0  0  0  0  0  0  0  0
   48.1090   32.6170   44.2450 H   0  0  0  0  0  0  0  0  0  0  0  0
   44.1440   34.9020   45.8780 H   0  0  0  0  0  0  0  0  0  0  0  0
   47.3780   31.6970   46.5740 C   0  0  0  0  0  0  0  0  0  0  0  0
   47.4950   30.4110   46.0880 C   0  0  0  0  0  0  0  0  0  0  0  0
   48.1440   29.3860   46.7590 C   0  0  0  0  0  0  0  0  0  0  0  0
   48.7120   29.6590   47.9910 C   0  0  0  0  0  0  0  0  0  0  0  0
   49.3330   28.6390   48.6110 N   0  0  0  0  0  0  0  0  0  0  0  0
   49.9220   28.8110   49.8260 C   0  0  0  0  0  0  0  0  0  0  0  0
   49.8450   30.0760   50.3760 C   0  0  0  0  0  0  0  0  0  0  0  0
   49.2090   31.0970   49.7280 C   0  0  0  0  0  0  0  0  0  0  0  0
   48.6190   30.9170   48.5050 C   0  0  0  0  0  0  0  0  0  0  0  0
   47.9670   31.9210   47.8150 C   0  0  0  0  0  0  0  0  0  0  0  0
   47.0340   30.2430   45.1180 H   0  0  0  0  0  0  0  0  0  0  0  0
   48.1760   28.4110   46.2840 H   0  0  0  0  0  0  0  0  0  0  0  0
   50.4110   27.9440   50.2790 H   0  0  0  0  0  0  0  0  0  0  0  0
   50.3160   30.2040   51.3410 H   0  0  0  0  0  0  0  0  0  0  0  0
   49.1770   32.0760   50.2040 H   0  0  0  0  0  0  0  0  0  0  0  0
   47.9250   32.9000   48.2760 H   0  0  0  0  0  0  0  0  0  0  0  0
   48.9260   35.5770   41.3270 C   0  0  0  0  0  0  0  0  0  0  0  0
   48.4580   35.0470   40.1170 C   0  0  0  0  0  0  0  0  0  0  0  0
   47.3590   34.1650   40.1530 C   0  0  0  0  0  0  0  0  0  0  0  0
   46.8390   33.8990   41.3650 N   0  0  0  0  0  0  0  0  0  0  0  0
   47.3130   34.4280   42.5240 C   0  0  0  0  0  0  0  0  0  0  0  0
   48.3560   35.2670   42.5100 N   0  0  0  0  0  0  0  0  0  0  0  0
   49.7650   36.2510   41.3120 H   0  0  0  0  0  0  0  0  0  0  0  0
   48.8840   35.2700   39.1670 H   0  0  0  0  0  0  0  0  0  0  0  0
   45.5390   32.9630   39.1440 C   0  0  0  0  0  3  0  0  0  0  0  0
   46.7690   33.5400   38.9770 C   0  0  0  0  0  0  0  0  0  0  0  0
   47.3950   33.5180   37.7500 C   0  0  0  0  0  0  0  0  0  0  0  0
   48.3540   33.9650   37.6090 H   0  0  0  0  0  0  0  0  0  0  0  0
   46.8120   32.9200   36.6530 C   0  0  0  0  0  0  0  0  0  0  0  0
   47.1870   32.7540   35.3720 N   0  0  0  0  0  0  0  0  0  0  0  0
   48.1110   33.1200   35.0020 H   0  0  0  0  0  0  0  0  0  0  0  0
   46.2340   32.0960   34.7370 N   0  0  0  0  0  0  0  0  0  0  0  0
   45.2220   31.8150   35.5750 C   0  0  0  0  0  0  0  0  0  0  0  0
   44.3180   31.2930   35.3380 H   0  0  0  0  0  0  0  0  0  0  0  0
   45.5580   32.3320   36.8280 C   0  0  0  0  0  0  0  0  0  0  0  0
   44.9040   32.3430   38.0630 C   0  0  0  0  0  3  0  0  0  0  0  0
  1  2  1  0  0  0  0
  2  8  1  0  0  0  0
  3  2  2  0  0  0  0
  3  4  1  0  0  0  0
  4  5  2  0  0  0  0
  5  6  1  0  0  0  0
  5 11  1  0  0  0  0
  6  7  1  0  0  0  0
  8 10  1  0  0  0  0
  8  6  2  0  0  0  0
  9  4  1  0  0  0  0
 11 20  1  0  0  0  0
 12 11  2  0  0  0  0
 12 13  1  0  0  0  0
 13 14  2  0  0  0  0
 14 19  1  0  0  0  0
 14 15  1  0  0  0  0
 15 16  2  0  0  0  0
 16 23  1  0  0  0  0
 16 17  1  0  0  0  0
 17 24  1  0  0  0  0
 18 25  1  0  0  0  0
 18 17  2  0  0  0  0
 19 18  1  0  0  0  0
 20 26  1  0  0  0  0
 20 19  2  0  0  0  0
 21 12  1  0  0  0  0
 22 13  1  0  0  0  0
 27 32  1  0  0  0  0
 28 29  1  0  0  0  0
 28 27  2  0  0  0  0
 29 30  2  0  0  0  0
 30 31  1  0  0  0  0
 31  3  1  0  0  0  0
 32 31  2  0  0  0  0
 33 27  1  0  0  0  0
 34 28  1  0  0  0  0
 36 35  1  0  0  0  0
 36 29  1  0  0  0  0
 37 36  2  0  0  0  0
 38 37  1  0  0  0  0
 39 45  2  0  0  0  0
 39 37  1  0  0  0  0
 40 39  1  0  0  0  0
 41 40  1  0  0  0  0
 42 40  1  0  0  0  0
 42 43  2  0  0  0  0
 43 45  1  0  0  0  0
 44 43  1  0  0  0  0
 45 46  1  0  0  0  0
 46 35  2  0  0  0  0
M  END
>  <minimizedAffinity>
-7.89687443

>  <minimizedRMSD>
0.244619951

$$$$
