
 OpenBabel03252506073D

 46 51  0  0  0  0  0  0  0  0999 V2000
   37.1250   26.1310   38.8780 Cl  0  0  0  0  0  0  0  0  0  0  0  0
   35.7670   27.0970   38.3860 C   0  0  0  0  0  0  0  0  0  0  0  0
   35.4720   28.2770   39.0500 C   0  0  0  0  0  0  0  0  0  0  0  0
   34.3800   28.9620   38.5830 C   0  0  0  0  0  0  0  0  0  0  0  0
   33.5820   28.5630   37.5280 C   0  0  0  0  0  0  0  0  0  0  0  0
   33.9050   27.3880   36.8930 C   0  0  0  0  0  0  0  0  0  0  0  0
   32.8700   26.9130   35.5580 Cl  0  0  0  0  0  0  0  0  0  0  0  0
   34.9860   26.6640   37.3200 C   0  0  0  0  0  0  0  0  0  0  0  0
   34.1530   29.8940   39.1120 H   0  0  0  0  0  0  0  0  0  0  0  0
   35.2020   25.7530   36.7960 H   0  0  0  0  0  0  0  0  0  0  0  0
   32.4600   29.4350   37.1810 C   0  0  0  0  0  0  0  0  0  0  0  0
   31.4320   29.7200   38.0570 C   0  0  0  0  0  0  0  0  0  0  0  0
   30.3590   30.5430   37.7500 C   0  0  0  0  0  0  0  0  0  0  0  0
   30.3070   31.1170   36.4930 C   0  0  0  0  0  0  0  0  0  0  0  0
   29.2500   31.9090   36.2320 N   0  0  0  0  0  0  0  0  0  0  0  0
   29.1110   32.5180   35.0240 C   0  0  0  0  0  0  0  0  0  0  0  0
   30.1040   32.2770   34.0930 C   0  0  0  0  0  0  0  0  0  0  0  0
   31.1670   31.4700   34.3790 C   0  0  0  0  0  0  0  0  0  0  0  0
   31.3020   30.8600   35.5980 C   0  0  0  0  0  0  0  0  0  0  0  0
   32.3600   30.0360   35.9300 C   0  0  0  0  0  0  0  0  0  0  0  0
   31.5160   29.2480   39.0330 H   0  0  0  0  0  0  0  0  0  0  0  0
   29.6070   30.6990   38.5160 H   0  0  0  0  0  0  0  0  0  0  0  0
   28.2310   33.1490   34.8730 H   0  0  0  0  0  0  0  0  0  0  0  0
   29.9860   32.7650   33.1350 H   0  0  0  0  0  0  0  0  0  0  0  0
   31.9240   31.3120   33.6120 H   0  0  0  0  0  0  0  0  0  0  0  0
   33.1210   29.8700   35.1770 H   0  0  0  0  0  0  0  0  0  0  0  0
   36.9750   28.5080   42.3550 C   0  0  0  0  0  0  0  0  0  0  0  0
   37.7650   29.6620   42.2700 C   0  0  0  0  0  0  0  0  0  0  0  0
   37.7820   30.3720   41.0530 C   0  0  0  0  0  0  0  0  0  0  0  0
   37.0260   29.8790   40.0560 N   0  0  0  0  0  0  0  0  0  0  0  0
   36.2670   28.7570   40.1670 C   0  0  0  0  0  0  0  0  0  0  0  0
   36.2380   28.0680   41.3130 N   0  0  0  0  0  0  0  0  0  0  0  0
   36.9530   27.9570   43.2790 H   0  0  0  0  0  0  0  0  0  0  0  0
   38.3590   30.0360   43.0710 H   0  0  0  0  0  0  0  0  0  0  0  0
   39.9110   31.4840   40.9920 C   0  0  0  0  0  3  0  0  0  0  0  0
   38.5570   31.5840   40.8210 C   0  0  0  0  0  0  0  0  0  0  0  0
   37.9820   32.7790   40.4480 C   0  0  0  0  0  0  0  0  0  0  0  0
   36.9280   32.8670   40.3120 H   0  0  0  0  0  0  0  0  0  0  0  0
   38.7420   33.9100   40.2350 C   0  0  0  0  0  0  0  0  0  0  0  0
   38.4520   35.1740   39.8750 N   0  0  0  0  0  0  0  0  0  0  0  0
   37.4600   35.4930   39.6850 H   0  0  0  0  0  0  0  0  0  0  0  0
   39.5790   35.8620   39.8160 N   0  0  0  0  0  0  0  0  0  0  0  0
   40.6230   35.0770   40.1330 C   0  0  0  0  0  0  0  0  0  0  0  0
   41.6530   35.3650   40.1690 H   0  0  0  0  0  0  0  0  0  0  0  0
   40.1230   33.8030   40.4110 C   0  0  0  0  0  0  0  0  0  0  0  0
   40.7270   32.6020   40.7880 C   0  0  0  0  0  3  0  0  0  0  0  0
  2  1  1  0  0  0  0
  2  3  1  0  0  0  0
  3 31  1  0  0  0  0
  4  3  2  0  0  0  0
  4  9  1  0  0  0  0
  5  4  1  0  0  0  0
  6  8  1  0  0  0  0
  6  5  2  0  0  0  0
  7  6  1  0  0  0  0
  8  2  2  0  0  0  0
 10  8  1  0  0  0  0
 11  5  1  0  0  0  0
 11 12  1  0  0  0  0
 12 21  1  0  0  0  0
 13 12  2  0  0  0  0
 13 22  1  0  0  0  0
 14 13  1  0  0  0  0
 15 14  1  0  0  0  0
 16 15  2  0  0  0  0
 17 18  2  0  0  0  0
 17 16  1  0  0  0  0
 18 19  1  0  0  0  0
 19 20  1  0  0  0  0
 19 14  2  0  0  0  0
 20 11  2  0  0  0  0
 23 16  1  0  0  0  0
 24 17  1  0  0  0  0
 25 18  1  0  0  0  0
 26 20  1  0  0  0  0
 27 33  1  0  0  0  0
 28 27  1  0  0  0  0
 28 34  1  0  0  0  0
 29 28  2  0  0  0  0
 30 31  2  0  0  0  0
 30 29  1  0  0  0  0
 31 32  1  0  0  0  0
 32 27  2  0  0  0  0
 36 35  1  0  0  0  0
 36 29  1  0  0  0  0
 37 36  2  0  0  0  0
 38 37  1  0  0  0  0
 39 45  2  0  0  0  0
 39 37  1  0  0  0  0
 40 39  1  0  0  0  0
 41 40  1  0  0  0  0
 42 40  1  0  0  0  0
 42 43  2  0  0  0  0
 43 44  1  0  0  0  0
 43 45  1  0  0  0  0
 45 46  1  0  0  0  0
 46 35  2  0  0  0  0
M  END
>  <minimizedAffinity>
-8.24963665

$$$$

 OpenBabel03252506073D

 46 51  0  0  0  0  0  0  0  0999 V2000
   36.9310   25.7210   39.3100 Cl  0  0  0  0  0  0  0  0  0  0  0  0
   35.7500   26.7150   38.5110 C   0  0  0  0  0  0  0  0  0  0  0  0
   35.5390   28.0190   38.9270 C   0  0  0  0  0  0  0  0  0  0  0  0
   34.5850   28.7150   38.2300 C   0  0  0  0  0  0  0  0  0  0  0  0
   33.8460   28.2140   37.1760 C   0  0  0  0  0  0  0  0  0  0  0  0
   34.0830   26.9170   36.7910 C   0  0  0  0  0  0  0  0  0  0  0  0
   33.1270   26.3150   35.4490 Cl  0  0  0  0  0  0  0  0  0  0  0  0
   35.0250   26.1760   37.4530 C   0  0  0  0  0  0  0  0  0  0  0  0
   34.4230   29.7460   38.5640 H   0  0  0  0  0  0  0  0  0  0  0  0
   35.1780   25.1690   37.1200 H   0  0  0  0  0  0  0  0  0  0  0  0
   32.8730   29.1180   36.5620 C   0  0  0  0  0  0  0  0  0  0  0  0
   32.9590   29.5330   35.2490 C   0  0  0  0  0  0  0  0  0  0  0  0
   32.0490   30.3880   34.6460 C   0  0  0  0  0  0  0  0  0  0  0  0
   30.9870   30.8590   35.3980 C   0  0  0  0  0  0  0  0  0  0  0  0
   30.1260   31.6870   34.7790 N   0  0  0  0  0  0  0  0  0  0  0  0
   29.0520   32.2010   35.4370 C   0  0  0  0  0  0  0  0  0  0  0  0
   28.9010   31.8280   36.7590 C   0  0  0  0  0  0  0  0  0  0  0  0
   29.7880   30.9870   37.3670 C   0  0  0  0  0  0  0  0  0  0  0  0
   30.8680   30.4730   36.6990 C   0  0  0  0  0  0  0  0  0  0  0  0
   31.7890   29.6190   37.2750 C   0  0  0  0  0  0  0  0  0  0  0  0
   33.8080   29.1380   34.6960 H   0  0  0  0  0  0  0  0  0  0  0  0
   32.2130   30.6490   33.6060 H   0  0  0  0  0  0  0  0  0  0  0  0
   28.3880   32.8670   34.8800 H   0  0  0  0  0  0  0  0  0  0  0  0
   28.0440   32.2410   37.2740 H   0  0  0  0  0  0  0  0  0  0  0  0
   29.6250   30.7230   38.4120 H   0  0  0  0  0  0  0  0  0  0  0  0
   31.6400   29.3480   38.3130 H   0  0  0  0  0  0  0  0  0  0  0  0
   37.0750   28.4640   42.1950 C   0  0  0  0  0  0  0  0  0  0  0  0
   37.6740   29.7270   42.1000 C   0  0  0  0  0  0  0  0  0  0  0  0
   37.5480   30.4380   40.8900 C   0  0  0  0  0  0  0  0  0  0  0  0
   36.8510   29.8390   39.9080 N   0  0  0  0  0  0  0  0  0  0  0  0
   36.2790   28.6110   40.0280 C   0  0  0  0  0  0  0  0  0  0  0  0
   36.3880   27.9200   41.1680 N   0  0  0  0  0  0  0  0  0  0  0  0
   37.1640   27.9110   43.1140 H   0  0  0  0  0  0  0  0  0  0  0  0
   38.2230   30.1850   42.8890 H   0  0  0  0  0  0  0  0  0  0  0  0
   37.3140   32.6640   40.0150 C   0  0  0  0  0  3  0  0  0  0  0  0
   38.1180   31.7570   40.6500 C   0  0  0  0  0  0  0  0  0  0  0  0
   39.3970   32.0990   41.0320 C   0  0  0  0  0  0  0  0  0  0  0  0
   40.0320   31.4000   41.5270 H   0  0  0  0  0  0  0  0  0  0  0  0
   39.9090   33.3560   40.7910 C   0  0  0  0  0  0  0  0  0  0  0  0
   41.0920   33.9460   41.0480 N   0  0  0  0  0  0  0  0  0  0  0  0
   41.8820   33.4370   41.5380 H   0  0  0  0  0  0  0  0  0  0  0  0
   41.0490   35.1870   40.5960 N   0  0  0  0  0  0  0  0  0  0  0  0
   39.8530   35.4390   40.0370 C   0  0  0  0  0  0  0  0  0  0  0  0
   39.5360   36.3580   39.5890 H   0  0  0  0  0  0  0  0  0  0  0  0
   39.0850   34.2770   40.1440 C   0  0  0  0  0  0  0  0  0  0  0  0
   37.7860   33.9530   39.7480 C   0  0  0  0  0  3  0  0  0  0  0  0
  2  3  1  0  0  0  0
  2  1  1  0  0  0  0
  3 31  1  0  0  0  0
  4  9  1  0  0  0  0
  4  3  2  0  0  0  0
  5  4  1  0  0  0  0
  6  5  2  0  0  0  0
  6  8  1  0  0  0  0
  7  6  1  0  0  0  0
  8  2  2  0  0  0  0
 10  8  1  0  0  0  0
 11  5  1  0  0  0  0
 11 20  1  0  0  0  0
 12 11  2  0  0  0  0
 13 12  1  0  0  0  0
 13 14  2  0  0  0  0
 14 19  1  0  0  0  0
 15 14  1  0  0  0  0
 15 16  2  0  0  0  0
 16 17  1  0  0  0  0
 17 24  1  0  0  0  0
 17 18  2  0  0  0  0
 18 25  1  0  0  0  0
 19 20  2  0  0  0  0
 19 18  1  0  0  0  0
 20 26  1  0  0  0  0
 21 12  1  0  0  0  0
 22 13  1  0  0  0  0
 23 16  1  0  0  0  0
 27 33  1  0  0  0  0
 28 27  1  0  0  0  0
 28 34  1  0  0  0  0
 29 28  2  0  0  0  0
 30 31  2  0  0  0  0
 30 29  1  0  0  0  0
 31 32  1  0  0  0  0
 32 27  2  0  0  0  0
 35 36  1  0  0  0  0
 36 29  1  0  0  0  0
 36 37  2  0  0  0  0
 37 38  1  0  0  0  0
 39 37  1  0  0  0  0
 39 40  1  0  0  0  0
 40 41  1  0  0  0  0
 42 40  1  0  0  0  0
 43 45  1  0  0  0  0
 43 42  2  0  0  0  0
 44 43  1  0  0  0  0
 45 39  2  0  0  0  0
 46 35  2  0  0  0  0
 46 45  1  0  0  0  0
M  END
>  <minimizedAffinity>
-8.19405365

$$$$

 OpenBabel03252506073D

 46 51  0  0  0  0  0  0  0  0999 V2000
   39.2590   29.9940   42.9120 Cl  0  0  0  0  0  0  0  0  0  0  0  0
   38.8050   28.4430   42.2730 C   0  0  0  0  0  0  0  0  0  0  0  0
   38.1450   28.3540   41.0590 C   0  0  0  0  0  0  0  0  0  0  0  0
   37.8320   27.0840   40.6470 C   0  0  0  0  0  0  0  0  0  0  0  0
   38.1240   25.9270   41.3430 C   0  0  0  0  0  0  0  0  0  0  0  0
   38.7800   26.0530   42.5440 C   0  0  0  0  0  0  0  0  0  0  0  0
   39.1340   24.5640   43.3990 Cl  0  0  0  0  0  0  0  0  0  0  0  0
   39.1160   27.2990   43.0020 C   0  0  0  0  0  0  0  0  0  0  0  0
   37.3100   27.0210   39.6850 H   0  0  0  0  0  0  0  0  0  0  0  0
   39.6270   27.3520   43.9440 H   0  0  0  0  0  0  0  0  0  0  0  0
   37.7050   24.6640   40.7340 C   0  0  0  0  0  0  0  0  0  0  0  0
   38.5900   23.6540   40.4160 C   0  0  0  0  0  0  0  0  0  0  0  0
   38.2160   22.4500   39.8390 C   0  0  0  0  0  0  0  0  0  0  0  0
   36.8780   22.2400   39.5600 C   0  0  0  0  0  0  0  0  0  0  0  0
   36.5530   21.0600   39.0000 N   0  0  0  0  0  0  0  0  0  0  0  0
   35.2630   20.7620   38.6900 C   0  0  0  0  0  0  0  0  0  0  0  0
   34.3190   21.7290   38.9800 C   0  0  0  0  0  0  0  0  0  0  0  0
   34.6710   22.9190   39.5490 C   0  0  0  0  0  0  0  0  0  0  0  0
   35.9720   23.2130   39.8590 C   0  0  0  0  0  0  0  0  0  0  0  0
   36.3720   24.4040   40.4350 C   0  0  0  0  0  0  0  0  0  0  0  0
   39.6310   23.8630   40.6530 H   0  0  0  0  0  0  0  0  0  0  0  0
   38.9960   21.7250   39.6310 H   0  0  0  0  0  0  0  0  0  0  0  0
   35.0630   19.7870   38.2370 H   0  0  0  0  0  0  0  0  0  0  0  0
   33.2950   21.4830   38.7310 H   0  0  0  0  0  0  0  0  0  0  0  0
   33.8890   23.6480   39.7580 H   0  0  0  0  0  0  0  0  0  0  0  0
   35.6060   25.1390   40.6480 H   0  0  0  0  0  0  0  0  0  0  0  0
   36.5350   30.5030   38.6050 C   0  0  0  0  0  0  0  0  0  0  0  0
   37.1680   31.7390   38.7940 C   0  0  0  0  0  0  0  0  0  0  0  0
   38.1670   31.8340   39.7840 C   0  0  0  0  0  0  0  0  0  0  0  0
   38.4360   30.7140   40.4780 N   0  0  0  0  0  0  0  0  0  0  0  0
   37.8060   29.5270   40.2730 C   0  0  0  0  0  0  0  0  0  0  0  0
   36.8560   29.4160   39.3390 N   0  0  0  0  0  0  0  0  0  0  0  0
   35.7700   30.4170   37.8520 H   0  0  0  0  0  0  0  0  0  0  0  0
   36.9390   32.6150   38.2340 H   0  0  0  0  0  0  0  0  0  0  0  0
   38.2450   34.2330   39.8860 C   0  0  0  0  0  3  0  0  0  0  0  0
   38.9050   33.0520   40.0900 C   0  0  0  0  0  0  0  0  0  0  0  0
   40.2000   33.0430   40.5600 C   0  0  0  0  0  0  0  0  0  0  0  0
   40.7230   32.1280   40.7210 H   0  0  0  0  0  0  0  0  0  0  0  0
   40.8740   34.2130   40.8400 C   0  0  0  0  0  0  0  0  0  0  0  0
   42.1080   34.4910   41.2980 N   0  0  0  0  0  0  0  0  0  0  0  0
   42.8090   33.7300   41.5290 H   0  0  0  0  0  0  0  0  0  0  0  0
   42.2380   35.8030   41.3860 N   0  0  0  0  0  0  0  0  0  0  0  0
   41.1060   36.4110   40.9930 C   0  0  0  0  0  0  0  0  0  0  0  0
   40.9230   37.4650   40.9590 H   0  0  0  0  0  0  0  0  0  0  0  0
   40.1960   35.4150   40.6320 C   0  0  0  0  0  0  0  0  0  0  0  0
   38.8840   35.4480   40.1570 C   0  0  0  0  0  3  0  0  0  0  0  0
  2  1  1  0  0  0  0
  2  8  1  0  0  0  0
  3  2  2  0  0  0  0
  4  3  1  0  0  0  0
  4  5  2  0  0  0  0
  5  6  1  0  0  0  0
  6  8  2  0  0  0  0
  6  7  1  0  0  0  0
  8 10  1  0  0  0  0
  9  4  1  0  0  0  0
 11  5  1  0  0  0  0
 12 21  1  0  0  0  0
 12 11  2  0  0  0  0
 13 12  1  0  0  0  0
 14 13  2  0  0  0  0
 14 19  1  0  0  0  0
 15 14  1  0  0  0  0
 16 17  1  0  0  0  0
 16 15  2  0  0  0  0
 17 18  2  0  0  0  0
 18 25  1  0  0  0  0
 18 19  1  0  0  0  0
 19 20  2  0  0  0  0
 20 26  1  0  0  0  0
 20 11  1  0  0  0  0
 22 13  1  0  0  0  0
 23 16  1  0  0  0  0
 24 17  1  0  0  0  0
 27 28  2  0  0  0  0
 27 32  1  0  0  0  0
 28 29  1  0  0  0  0
 29 36  1  0  0  0  0
 29 30  2  0  0  0  0
 31 30  1  0  0  0  0
 31  3  1  0  0  0  0
 32 31  2  0  0  0  0
 33 27  1  0  0  0  0
 34 28  1  0  0  0  0
 35 36  2  0  0  0  0
 35 46  1  0  0  0  0
 36 37  1  0  0  0  0
 37 38  1  0  0  0  0
 37 39  2  0  0  0  0
 39 40  1  0  0  0  0
 40 42  1  0  0  0  0
 40 41  1  0  0  0  0
 43 42  2  0  0  0  0
 44 43  1  0  0  0  0
 45 39  1  0  0  0  0
 45 43  1  0  0  0  0
 46 45  2  0  0  0  0
M  END
>  <minimizedAffinity>
-7.96071148

$$$$

 OpenBabel03252506073D

 46 51  0  0  0  0  0  0  0  0999 V2000
   37.2830   33.7190   39.3950 Cl  0  0  0  0  0  0  0  0  0  0  0  0
   37.4800   32.0250   39.7300 C   0  0  0  0  0  0  0  0  0  0  0  0
   38.7290   31.4350   39.6360 C   0  0  0  0  0  0  0  0  0  0  0  0
   38.7740   30.0950   39.9210 C   0  0  0  0  0  0  0  0  0  0  0  0
   37.6870   29.3220   40.2820 C   0  0  0  0  0  0  0  0  0  0  0  0
   36.4630   29.9410   40.3650 C   0  0  0  0  0  0  0  0  0  0  0  0
   35.1070   28.9290   40.8270 Cl  0  0  0  0  0  0  0  0  0  0  0  0
   36.3630   31.2780   40.0910 C   0  0  0  0  0  0  0  0  0  0  0  0
   39.7650   29.6340   39.8450 H   0  0  0  0  0  0  0  0  0  0  0  0
   35.3890   31.7210   40.1680 H   0  0  0  0  0  0  0  0  0  0  0  0
   37.9410   27.9050   40.5460 C   0  0  0  0  0  0  0  0  0  0  0  0
   38.3560   27.4330   41.7740 C   0  0  0  0  0  0  0  0  0  0  0  0
   38.6030   26.0960   42.0460 C   0  0  0  0  0  0  0  0  0  0  0  0
   38.4250   25.1720   41.0320 C   0  0  0  0  0  0  0  0  0  0  0  0
   38.6740   23.8850   41.3340 N   0  0  0  0  0  0  0  0  0  0  0  0
   38.5270   22.9040   40.4020 C   0  0  0  0  0  0  0  0  0  0  0  0
   38.1130   23.3040   39.1460 C   0  0  0  0  0  0  0  0  0  0  0  0
   37.8660   24.6160   38.8610 C   0  0  0  0  0  0  0  0  0  0  0  0
   38.0160   25.5980   39.8040 C   0  0  0  0  0  0  0  0  0  0  0  0
   37.7760   26.9370   39.5600 C   0  0  0  0  0  0  0  0  0  0  0  0
   38.4820   28.1940   42.5400 H   0  0  0  0  0  0  0  0  0  0  0  0
   38.9260   25.8350   43.0490 H   0  0  0  0  0  0  0  0  0  0  0  0
   38.7450   21.8770   40.7090 H   0  0  0  0  0  0  0  0  0  0  0  0
   37.9980   22.5180   38.4120 H   0  0  0  0  0  0  0  0  0  0  0  0
   37.5410   24.8800   37.8560 H   0  0  0  0  0  0  0  0  0  0  0  0
   37.4530   27.2150   38.5640 H   0  0  0  0  0  0  0  0  0  0  0  0
   41.4250   32.8360   37.6340 C   0  0  0  0  0  0  0  0  0  0  0  0
   42.1480   33.6020   38.5580 C   0  0  0  0  0  0  0  0  0  0  0  0
   41.6990   33.6380   39.8940 C   0  0  0  0  0  0  0  0  0  0  0  0
   40.5970   32.9220   40.1790 N   0  0  0  0  0  0  0  0  0  0  0  0
   39.9150   32.1860   39.2620 C   0  0  0  0  0  0  0  0  0  0  0  0
   40.3240   32.1390   37.9900 N   0  0  0  0  0  0  0  0  0  0  0  0
   41.7570   32.8000   36.6110 H   0  0  0  0  0  0  0  0  0  0  0  0
   43.0190   34.1630   38.3120 H   0  0  0  0  0  0  0  0  0  0  0  0
   41.8270   35.6240   41.2390 C   0  0  0  0  0  3  0  0  0  0  0  0
   42.3500   34.3910   40.9570 C   0  0  0  0  0  0  0  0  0  0  0  0
   43.4340   33.9110   41.6580 C   0  0  0  0  0  0  0  0  0  0  0  0
   43.8480   32.9520   41.4460 H   0  0  0  0  0  0  0  0  0  0  0  0
   44.0290   34.6480   42.6610 C   0  0  0  0  0  0  0  0  0  0  0  0
   45.0700   34.4300   43.4850 N   0  0  0  0  0  0  0  0  0  0  0  0
   45.6370   33.5360   43.4540 H   0  0  0  0  0  0  0  0  0  0  0  0
   45.2130   35.4850   44.2690 N   0  0  0  0  0  0  0  0  0  0  0  0
   44.2800   36.4090   43.9820 C   0  0  0  0  0  0  0  0  0  0  0  0
   44.1550   37.3610   44.4540 H   0  0  0  0  0  0  0  0  0  0  0  0
   43.4920   35.9040   42.9450 C   0  0  0  0  0  0  0  0  0  0  0  0
   42.3930   36.4110   42.2480 C   0  0  0  0  0  3  0  0  0  0  0  0
  1  2  1  0  0  0  0
  2  8  1  0  0  0  0
  3  2  2  0  0  0  0
  3  4  1  0  0  0  0
  4  5  2  0  0  0  0
  5  6  1  0  0  0  0
  5 11  1  0  0  0  0
  6  7  1  0  0  0  0
  8 10  1  0  0  0  0
  8  6  2  0  0  0  0
  9  4  1  0  0  0  0
 11 12  1  0  0  0  0
 12 13  2  0  0  0  0
 12 21  1  0  0  0  0
 13 22  1  0  0  0  0
 14 15  1  0  0  0  0
 14 13  1  0  0  0  0
 16 23  1  0  0  0  0
 16 15  2  0  0  0  0
 17 16  1  0  0  0  0
 18 17  2  0  0  0  0
 18 19  1  0  0  0  0
 19 14  2  0  0  0  0
 20 19  1  0  0  0  0
 20 11  2  0  0  0  0
 24 17  1  0  0  0  0
 25 18  1  0  0  0  0
 26 20  1  0  0  0  0
 27 32  2  0  0  0  0
 27 28  1  0  0  0  0
 28 29  2  0  0  0  0
 29 30  1  0  0  0  0
 29 36  1  0  0  0  0
 31  3  1  0  0  0  0
 31 30  2  0  0  0  0
 32 31  1  0  0  0  0
 33 27  1  0  0  0  0
 34 28  1  0  0  0  0
 35 46  1  0  0  0  0
 36 35  2  0  0  0  0
 36 37  1  0  0  0  0
 37 39  2  0  0  0  0
 38 37  1  0  0  0  0
 39 45  1  0  0  0  0
 39 40  1  0  0  0  0
 40 42  1  0  0  0  0
 41 40  1  0  0  0  0
 43 42  2  0  0  0  0
 43 44  1  0  0  0  0
 45 43  1  0  0  0  0
 46 45  2  0  0  0  0
M  END
>  <minimizedAffinity>
-7.58054733

$$$$

 OpenBabel03252506073D

 46 51  0  0  0  0  0  0  0  0999 V2000
   36.6640   26.3190   38.6670 Cl  0  0  0  0  0  0  0  0  0  0  0  0
   35.3140   27.2600   38.1100 C   0  0  0  0  0  0  0  0  0  0  0  0
   35.0430   28.4950   38.6760 C   0  0  0  0  0  0  0  0  0  0  0  0
   33.9550   29.1540   38.1640 C   0  0  0  0  0  0  0  0  0  0  0  0
   33.1400   28.6800   37.1530 C   0  0  0  0  0  0  0  0  0  0  0  0
   33.4400   27.4520   36.6160 C   0  0  0  0  0  0  0  0  0  0  0  0
   32.3850   26.8830   35.3360 Cl  0  0  0  0  0  0  0  0  0  0  0  0
   34.5160   26.7500   37.0910 C   0  0  0  0  0  0  0  0  0  0  0  0
   33.7460   30.1300   38.6160 H   0  0  0  0  0  0  0  0  0  0  0  0
   34.7130   25.7960   36.6430 H   0  0  0  0  0  0  0  0  0  0  0  0
   32.0260   29.5360   36.7460 C   0  0  0  0  0  0  0  0  0  0  0  0
   30.9090   29.7390   37.5310 C   0  0  0  0  0  0  0  0  0  0  0  0
   29.8420   30.5450   37.1660 C   0  0  0  0  0  0  0  0  0  0  0  0
   29.8900   31.1900   35.9430 C   0  0  0  0  0  0  0  0  0  0  0  0
   28.8360   31.9630   35.6240 N   0  0  0  0  0  0  0  0  0  0  0  0
   28.7930   32.6360   34.4420 C   0  0  0  0  0  0  0  0  0  0  0  0
   29.8790   32.4800   33.6020 C   0  0  0  0  0  0  0  0  0  0  0  0
   30.9380   31.6900   33.9470 C   0  0  0  0  0  0  0  0  0  0  0  0
   30.9760   31.0150   35.1380 C   0  0  0  0  0  0  0  0  0  0  0  0
   32.0260   30.2060   35.5270 C   0  0  0  0  0  0  0  0  0  0  0  0
   30.9150   29.2140   38.4830 H   0  0  0  0  0  0  0  0  0  0  0  0
   29.0140   30.6330   37.8620 H   0  0  0  0  0  0  0  0  0  0  0  0
   27.9090   33.2480   34.2400 H   0  0  0  0  0  0  0  0  0  0  0  0
   29.8360   33.0190   32.6660 H   0  0  0  0  0  0  0  0  0  0  0  0
   31.7710   31.6010   33.2500 H   0  0  0  0  0  0  0  0  0  0  0  0
   32.8610   30.1070   34.8440 H   0  0  0  0  0  0  0  0  0  0  0  0
   36.4360   30.8680   41.0550 C   0  0  0  0  0  0  0  0  0  0  0  0
   37.3890   30.1090   41.7480 C   0  0  0  0  0  0  0  0  0  0  0  0
   37.5540   28.7560   41.3900 C   0  0  0  0  0  0  0  0  0  0  0  0
   36.7730   28.2940   40.3970 N   0  0  0  0  0  0  0  0  0  0  0  0
   35.8560   29.0550   39.7400 C   0  0  0  0  0  0  0  0  0  0  0  0
   35.6840   30.3410   40.0650 N   0  0  0  0  0  0  0  0  0  0  0  0
   36.3000   31.9030   41.3180 H   0  0  0  0  0  0  0  0  0  0  0  0
   37.9970   30.4930   42.5320 H   0  0  0  0  0  0  0  0  0  0  0  0
   38.2150   26.5140   41.9470 C   0  0  0  0  0  3  0  0  0  0  0  0
   38.5020   27.8500   42.0230 C   0  0  0  0  0  0  0  0  0  0  0  0
   39.6360   28.2890   42.6710 C   0  0  0  0  0  0  0  0  0  0  0  0
   39.8690   29.3270   42.7360 H   0  0  0  0  0  0  0  0  0  0  0  0
   40.5160   27.4060   43.2620 C   0  0  0  0  0  0  0  0  0  0  0  0
   41.6690   27.5540   43.9410 N   0  0  0  0  0  0  0  0  0  0  0  0
   42.0960   28.5050   44.1290 H   0  0  0  0  0  0  0  0  0  0  0  0
   42.1070   26.3560   44.2890 N   0  0  0  0  0  0  0  0  0  0  0  0
   41.2640   25.4060   43.8520 C   0  0  0  0  0  0  0  0  0  0  0  0
   41.3640   24.3490   43.9880 H   0  0  0  0  0  0  0  0  0  0  0  0
   40.2190   26.0450   43.1810 C   0  0  0  0  0  0  0  0  0  0  0  0
   39.0760   25.5780   42.5290 C   0  0  0  0  0  3  0  0  0  0  0  0
  2  1  1  0  0  0  0
  2  3  1  0  0  0  0
  3 31  1  0  0  0  0
  4  9  1  0  0  0  0
  4  3  2  0  0  0  0
  5  4  1  0  0  0  0
  6  8  1  0  0  0  0
  6  5  2  0  0  0  0
  7  6  1  0  0  0  0
  8  2  2  0  0  0  0
 10  8  1  0  0  0  0
 11  5  1  0  0  0  0
 11 12  1  0  0  0  0
 12 21  1  0  0  0  0
 13 12  2  0  0  0  0
 13 22  1  0  0  0  0
 14 13  1  0  0  0  0
 15 14  1  0  0  0  0
 16 15  2  0  0  0  0
 17 18  2  0  0  0  0
 17 16  1  0  0  0  0
 18 19  1  0  0  0  0
 19 20  1  0  0  0  0
 19 14  2  0  0  0  0
 20 11  2  0  0  0  0
 23 16  1  0  0  0  0
 24 17  1  0  0  0  0
 25 18  1  0  0  0  0
 26 20  1  0  0  0  0
 27 33  1  0  0  0  0
 27 28  1  0  0  0  0
 28 34  1  0  0  0  0
 29 28  2  0  0  0  0
 29 36  1  0  0  0  0
 30 29  1  0  0  0  0
 31 32  1  0  0  0  0
 31 30  2  0  0  0  0
 32 27  2  0  0  0  0
 35 36  2  0  0  0  0
 35 46  1  0  0  0  0
 36 37  1  0  0  0  0
 37 38  1  0  0  0  0
 37 39  2  0  0  0  0
 39 40  1  0  0  0  0
 40 41  1  0  0  0  0
 40 42  1  0  0  0  0
 43 44  1  0  0  0  0
 43 42  2  0  0  0  0
 45 39  1  0  0  0  0
 45 43  1  0  0  0  0
 46 45  2  0  0  0  0
M  END
>  <minimizedAffinity>
-7.49739027

$$$$

 OpenBabel03252506073D

 46 51  0  0  0  0  0  0  0  0999 V2000
   38.7050   25.6260   40.5990 Cl  0  0  0  0  0  0  0  0  0  0  0  0
   37.5170   26.3910   39.5880 C   0  0  0  0  0  0  0  0  0  0  0  0
   37.1680   27.7140   39.8000 C   0  0  0  0  0  0  0  0  0  0  0  0
   36.2210   28.2200   38.9470 C   0  0  0  0  0  0  0  0  0  0  0  0
   35.6130   27.5170   37.9250 C   0  0  0  0  0  0  0  0  0  0  0  0
   35.9840   26.2060   37.7450 C   0  0  0  0  0  0  0  0  0  0  0  0
   35.1920   25.3450   36.4380 Cl  0  0  0  0  0  0  0  0  0  0  0  0
   36.9260   25.6510   38.5690 C   0  0  0  0  0  0  0  0  0  0  0  0
   35.9490   29.2670   39.1210 H   0  0  0  0  0  0  0  0  0  0  0  0
   37.1860   24.6250   38.3920 H   0  0  0  0  0  0  0  0  0  0  0  0
   34.6230   28.2370   37.1240 C   0  0  0  0  0  0  0  0  0  0  0  0
   34.8180   28.5490   35.7940 C   0  0  0  0  0  0  0  0  0  0  0  0
   33.8940   29.2300   35.0150 C   0  0  0  0  0  0  0  0  0  0  0  0
   32.7030   29.6240   35.5980 C   0  0  0  0  0  0  0  0  0  0  0  0
   31.8330   30.2830   34.8110 N   0  0  0  0  0  0  0  0  0  0  0  0
   30.6350   30.7110   35.2940 C   0  0  0  0  0  0  0  0  0  0  0  0
   30.3710   30.4340   36.6220 C   0  0  0  0  0  0  0  0  0  0  0  0
   31.2690   29.7640   37.4020 C   0  0  0  0  0  0  0  0  0  0  0  0
   32.4730   29.3360   36.9090 C   0  0  0  0  0  0  0  0  0  0  0  0
   33.4100   28.6550   37.6620 C   0  0  0  0  0  0  0  0  0  0  0  0
   35.7670   28.2190   35.3780 H   0  0  0  0  0  0  0  0  0  0  0  0
   34.1520   29.4230   33.9790 H   0  0  0  0  0  0  0  0  0  0  0  0
   29.9710   31.2410   34.6050 H   0  0  0  0  0  0  0  0  0  0  0  0
   29.4170   30.7770   36.9980 H   0  0  0  0  0  0  0  0  0  0  0  0
   31.0130   29.5690   38.4430 H   0  0  0  0  0  0  0  0  0  0  0  0
   33.1700   28.4540   38.6990 H   0  0  0  0  0  0  0  0  0  0  0  0
   38.3230   28.7650   43.0860 C   0  0  0  0  0  0  0  0  0  0  0  0
   38.8930   30.0210   42.8410 C   0  0  0  0  0  0  0  0  0  0  0  0
   38.8800   30.5150   41.5210 C   0  0  0  0  0  0  0  0  0  0  0  0
   38.3120   29.7300   40.5880 N   0  0  0  0  0  0  0  0  0  0  0  0
   37.7650   28.5140   40.8540 C   0  0  0  0  0  0  0  0  0  0  0  0
   37.7680   28.0270   42.1010 N   0  0  0  0  0  0  0  0  0  0  0  0
   38.3260   28.3760   44.0900 H   0  0  0  0  0  0  0  0  0  0  0  0
   39.3380   30.6280   43.5930 H   0  0  0  0  0  0  0  0  0  0  0  0
   40.8000   31.8930   41.0920 C   0  0  0  0  0  3  0  0  0  0  0  0
   39.4350   31.8010   41.1210 C   0  0  0  0  0  0  0  0  0  0  0  0
   38.6510   32.8820   40.7850 C   0  0  0  0  0  0  0  0  0  0  0  0
   37.5870   32.8200   40.8040 H   0  0  0  0  0  0  0  0  0  0  0  0
   39.2070   34.0880   40.4100 C   0  0  0  0  0  0  0  0  0  0  0  0
   38.6930   35.2750   40.0400 N   0  0  0  0  0  0  0  0  0  0  0  0
   37.6490   35.4470   39.9860 H   0  0  0  0  0  0  0  0  0  0  0  0
   39.6920   36.1020   39.7820 N   0  0  0  0  0  0  0  0  0  0  0  0
   40.8700   35.4850   39.9740 C   0  0  0  0  0  0  0  0  0  0  0  0
   41.8440   35.9080   39.8420 H   0  0  0  0  0  0  0  0  0  0  0  0
   40.5990   34.1760   40.3810 C   0  0  0  0  0  0  0  0  0  0  0  0
   41.4130   33.0940   40.7180 C   0  0  0  0  0  3  0  0  0  0  0  0
  2  3  1  0  0  0  0
  2  1  1  0  0  0  0
  3 31  1  0  0  0  0
  4  9  1  0  0  0  0
  4  3  2  0  0  0  0
  5  4  1  0  0  0  0
  6  5  2  0  0  0  0
  6  8  1  0  0  0  0
  7  6  1  0  0  0  0
  8  2  2  0  0  0  0
 10  8  1  0  0  0  0
 11 20  1  0  0  0  0
 11  5  1  0  0  0  0
 12 11  2  0  0  0  0
 13 14  2  0  0  0  0
 13 12  1  0  0  0  0
 14 19  1  0  0  0  0
 15 16  2  0  0  0  0
 15 14  1  0  0  0  0
 16 17  1  0  0  0  0
 17 24  1  0  0  0  0
 17 18  2  0  0  0  0
 18 25  1  0  0  0  0
 19 18  1  0  0  0  0
 19 20  2  0  0  0  0
 20 26  1  0  0  0  0
 21 12  1  0  0  0  0
 22 13  1  0  0  0  0
 23 16  1  0  0  0  0
 27 33  1  0  0  0  0
 28 27  1  0  0  0  0
 28 34  1  0  0  0  0
 29 28  2  0  0  0  0
 30 31  2  0  0  0  0
 30 29  1  0  0  0  0
 31 32  1  0  0  0  0
 32 27  2  0  0  0  0
 35 36  1  0  0  0  0
 36 29  1  0  0  0  0
 37 38  1  0  0  0  0
 37 36  2  0  0  0  0
 39 37  1  0  0  0  0
 40 39  1  0  0  0  0
 41 40  1  0  0  0  0
 42 43  2  0  0  0  0
 42 40  1  0  0  0  0
 43 45  1  0  0  0  0
 44 43  1  0  0  0  0
 45 39  2  0  0  0  0
 45 46  1  0  0  0  0
 46 35  2  0  0  0  0
M  END
>  <minimizedAffinity>
-7.48464441

$$$$

 OpenBabel03252506073D

 46 51  0  0  0  0  0  0  0  0999 V2000
   36.9370   33.9750   39.2970 Cl  0  0  0  0  0  0  0  0  0  0  0  0
   37.3520   32.4520   40.0230 C   0  0  0  0  0  0  0  0  0  0  0  0
   38.6670   32.1730   40.3560 C   0  0  0  0  0  0  0  0  0  0  0  0
   38.8850   30.9430   40.9230 C   0  0  0  0  0  0  0  0  0  0  0  0
   37.9100   29.9970   41.1730 C   0  0  0  0  0  0  0  0  0  0  0  0
   36.6170   30.3090   40.8290 C   0  0  0  0  0  0  0  0  0  0  0  0
   35.4050   29.0850   41.1610 Cl  0  0  0  0  0  0  0  0  0  0  0  0
   36.3430   31.5240   40.2590 C   0  0  0  0  0  0  0  0  0  0  0  0
   39.9280   30.7290   41.1840 H   0  0  0  0  0  0  0  0  0  0  0  0
   35.3200   31.7260   40.0070 H   0  0  0  0  0  0  0  0  0  0  0  0
   38.3460   28.7420   41.7850 C   0  0  0  0  0  0  0  0  0  0  0  0
   38.7710   28.6540   43.0950 C   0  0  0  0  0  0  0  0  0  0  0  0
   39.1890   27.4760   43.6960 C   0  0  0  0  0  0  0  0  0  0  0  0
   39.1830   26.3150   42.9450 C   0  0  0  0  0  0  0  0  0  0  0  0
   39.5950   25.1920   43.5630 N   0  0  0  0  0  0  0  0  0  0  0  0
   39.6250   24.0010   42.9060 C   0  0  0  0  0  0  0  0  0  0  0  0
   39.2130   24.0120   41.5870 C   0  0  0  0  0  0  0  0  0  0  0  0
   38.7980   25.1640   40.9810 C   0  0  0  0  0  0  0  0  0  0  0  0
   38.7710   26.3600   41.6470 C   0  0  0  0  0  0  0  0  0  0  0  0
   38.3590   27.5470   41.0730 C   0  0  0  0  0  0  0  0  0  0  0  0
   38.7580   29.5910   43.6470 H   0  0  0  0  0  0  0  0  0  0  0  0
   39.5020   27.5220   44.7340 H   0  0  0  0  0  0  0  0  0  0  0  0
   39.9700   23.1250   43.4620 H   0  0  0  0  0  0  0  0  0  0  0  0
   39.2390   23.0610   41.0730 H   0  0  0  0  0  0  0  0  0  0  0  0
   38.4820   25.1200   39.9390 H   0  0  0  0  0  0  0  0  0  0  0  0
   38.0430   27.5190   40.0380 H   0  0  0  0  0  0  0  0  0  0  0  0
   40.6580   35.2150   40.4720 C   0  0  0  0  0  0  0  0  0  0  0  0
   41.7730   34.9010   39.6840 C   0  0  0  0  0  0  0  0  0  0  0  0
   41.8410   33.6190   39.1020 C   0  0  0  0  0  0  0  0  0  0  0  0
   40.8140   32.7870   39.3540 N   0  0  0  0  0  0  0  0  0  0  0  0
   39.7430   33.1190   40.1230 C   0  0  0  0  0  0  0  0  0  0  0  0
   39.6600   34.3300   40.6840 N   0  0  0  0  0  0  0  0  0  0  0  0
   40.5940   36.1910   40.9220 H   0  0  0  0  0  0  0  0  0  0  0  0
   42.5770   35.5740   39.4970 H   0  0  0  0  0  0  0  0  0  0  0  0
   44.1280   33.8180   38.3940 C   0  0  0  0  0  3  0  0  0  0  0  0
   42.9380   33.1560   38.2630 C   0  0  0  0  0  0  0  0  0  0  0  0
   42.8100   32.1090   37.3770 C   0  0  0  0  0  0  0  0  0  0  0  0
   41.8870   31.5870   37.2670 H   0  0  0  0  0  0  0  0  0  0  0  0
   43.8680   31.6930   36.5950 C   0  0  0  0  0  0  0  0  0  0  0  0
   44.0200   30.7260   35.6720 N   0  0  0  0  0  0  0  0  0  0  0  0
   43.2290   30.0770   35.3980 H   0  0  0  0  0  0  0  0  0  0  0  0
   45.2640   30.7640   35.2250 N   0  0  0  0  0  0  0  0  0  0  0  0
   45.9490   31.7450   35.8370 C   0  0  0  0  0  0  0  0  0  0  0  0
   46.9740   32.0080   35.6750 H   0  0  0  0  0  0  0  0  0  0  0  0
   45.0800   32.3710   36.7330 C   0  0  0  0  0  0  0  0  0  0  0  0
   45.2320   33.4340   37.6250 C   0  0  0  0  0  3  0  0  0  0  0  0
  1  2  1  0  0  0  0
  2  8  2  0  0  0  0
  2  3  1  0  0  0  0
  3  4  2  0  0  0  0
  4  5  1  0  0  0  0
  4  9  1  0  0  0  0
  5 11  1  0  0  0  0
  6  7  1  0  0  0  0
  6  5  2  0  0  0  0
  8  6  1  0  0  0  0
 10  8  1  0  0  0  0
 11 12  1  0  0  0  0
 12 21  1  0  0  0  0
 12 13  2  0  0  0  0
 13 22  1  0  0  0  0
 14 15  1  0  0  0  0
 14 13  1  0  0  0  0
 16 23  1  0  0  0  0
 16 15  2  0  0  0  0
 17 16  1  0  0  0  0
 18 17  2  0  0  0  0
 18 19  1  0  0  0  0
 19 14  2  0  0  0  0
 20 19  1  0  0  0  0
 20 11  2  0  0  0  0
 24 17  1  0  0  0  0
 25 18  1  0  0  0  0
 26 20  1  0  0  0  0
 27 32  1  0  0  0  0
 27 33  1  0  0  0  0
 28 27  2  0  0  0  0
 29 30  2  0  0  0  0
 29 28  1  0  0  0  0
 30 31  1  0  0  0  0
 31  3  1  0  0  0  0
 31 32  2  0  0  0  0
 34 28  1  0  0  0  0
 36 35  1  0  0  0  0
 36 29  1  0  0  0  0
 37 36  2  0  0  0  0
 38 37  1  0  0  0  0
 39 45  2  0  0  0  0
 39 37  1  0  0  0  0
 40 39  1  0  0  0  0
 41 40  1  0  0  0  0
 42 40  1  0  0  0  0
 42 43  2  0  0  0  0
 43 45  1  0  0  0  0
 44 43  1  0  0  0  0
 45 46  1  0  0  0  0
 46 35  2  0  0  0  0
M  END
>  <minimizedAffinity>
-7.48153353

$$$$

 OpenBabel03252506073D

 46 51  0  0  0  0  0  0  0  0999 V2000
   35.7370   27.2190   37.8260 Cl  0  0  0  0  0  0  0  0  0  0  0  0
   36.5430   28.6800   38.3120 C   0  0  0  0  0  0  0  0  0  0  0  0
   37.0990   28.7840   39.5760 C   0  0  0  0  0  0  0  0  0  0  0  0
   37.7100   29.9780   39.8580 C   0  0  0  0  0  0  0  0  0  0  0  0
   37.8030   31.0490   38.9890 C   0  0  0  0  0  0  0  0  0  0  0  0
   37.2400   30.9100   37.7440 C   0  0  0  0  0  0  0  0  0  0  0  0
   37.3770   32.2890   36.6680 Cl  0  0  0  0  0  0  0  0  0  0  0  0
   36.6160   29.7370   37.4110 C   0  0  0  0  0  0  0  0  0  0  0  0
   38.1480   30.0540   40.8600 H   0  0  0  0  0  0  0  0  0  0  0  0
   36.1910   29.6720   36.4280 H   0  0  0  0  0  0  0  0  0  0  0  0
   38.4960   32.2400   39.4790 C   0  0  0  0  0  0  0  0  0  0  0  0
   37.8470   33.4260   39.7570 C   0  0  0  0  0  0  0  0  0  0  0  0
   38.4840   34.5670   40.2220 C   0  0  0  0  0  0  0  0  0  0  0  0
   39.8520   34.5230   40.4230 C   0  0  0  0  0  0  0  0  0  0  0  0
   40.4340   35.6490   40.8750 N   0  0  0  0  0  0  0  0  0  0  0  0
   41.7740   35.7030   41.1030 C   0  0  0  0  0  0  0  0  0  0  0  0
   42.4910   34.5500   40.8460 C   0  0  0  0  0  0  0  0  0  0  0  0
   41.8790   33.4180   40.3880 C   0  0  0  0  0  0  0  0  0  0  0  0
   40.5300   33.3710   40.1610 C   0  0  0  0  0  0  0  0  0  0  0  0
   39.8700   32.2480   39.6980 C   0  0  0  0  0  0  0  0  0  0  0  0
   36.7740   33.4140   39.5850 H   0  0  0  0  0  0  0  0  0  0  0  0
   37.8750   35.4450   40.4080 H   0  0  0  0  0  0  0  0  0  0  0  0
   42.1880   36.6470   41.4700 H   0  0  0  0  0  0  0  0  0  0  0  0
   43.5560   34.6020   41.0300 H   0  0  0  0  0  0  0  0  0  0  0  0
   42.4890   32.5350   40.2010 H   0  0  0  0  0  0  0  0  0  0  0  0
   40.4630   31.3620   39.5070 H   0  0  0  0  0  0  0  0  0  0  0  0
   36.9430   27.0010   42.7440 C   0  0  0  0  0  0  0  0  0  0  0  0
   36.9260   25.6550   42.3560 C   0  0  0  0  0  0  0  0  0  0  0  0
   36.9680   25.3550   40.9790 C   0  0  0  0  0  0  0  0  0  0  0  0
   37.0230   26.4020   40.1360 N   0  0  0  0  0  0  0  0  0  0  0  0
   37.0390   27.6990   40.5400 C   0  0  0  0  0  0  0  0  0  0  0  0
   36.9990   28.0040   41.8420 N   0  0  0  0  0  0  0  0  0  0  0  0
   36.9110   27.2440   43.7920 H   0  0  0  0  0  0  0  0  0  0  0  0
   36.8810   24.8400   43.0400 H   0  0  0  0  0  0  0  0  0  0  0  0
   36.0010   23.7370   39.4900 C   0  0  0  0  0  3  0  0  0  0  0  0
   36.9550   24.0050   40.4330 C   0  0  0  0  0  0  0  0  0  0  0  0
   37.8460   23.0310   40.8280 C   0  0  0  0  0  0  0  0  0  0  0  0
   38.5940   23.2300   41.5610 H   0  0  0  0  0  0  0  0  0  0  0  0
   37.8090   21.7610   40.2920 C   0  0  0  0  0  0  0  0  0  0  0  0
   38.5370   20.6460   40.4870 N   0  0  0  0  0  0  0  0  0  0  0  0
   39.3410   20.6090   41.1760 H   0  0  0  0  0  0  0  0  0  0  0  0
   38.0680   19.6950   39.6980 N   0  0  0  0  0  0  0  0  0  0  0  0
   37.0330   20.1560   38.9750 C   0  0  0  0  0  0  0  0  0  0  0  0
   36.4600   19.6100   38.2560 H   0  0  0  0  0  0  0  0  0  0  0  0
   36.8340   21.4930   39.3300 C   0  0  0  0  0  0  0  0  0  0  0  0
   35.9210   22.4640   38.9160 C   0  0  0  0  0  3  0  0  0  0  0  0
  1  2  1  0  0  0  0
  2  3  1  0  0  0  0
  3  4  2  0  0  0  0
  3 31  1  0  0  0  0
  4  9  1  0  0  0  0
  5 11  1  0  0  0  0
  5  4  1  0  0  0  0
  6  5  2  0  0  0  0
  7  6  1  0  0  0  0
  8  6  1  0  0  0  0
  8  2  2  0  0  0  0
 10  8  1  0  0  0  0
 11 20  2  0  0  0  0
 11 12  1  0  0  0  0
 12 13  2  0  0  0  0
 13 22  1  0  0  0  0
 13 14  1  0  0  0  0
 14 15  1  0  0  0  0
 15 16  2  0  0  0  0
 16 23  1  0  0  0  0
 17 24  1  0  0  0  0
 17 16  1  0  0  0  0
 18 17  2  0  0  0  0
 19 18  1  0  0  0  0
 19 14  2  0  0  0  0
 20 19  1  0  0  0  0
 21 12  1  0  0  0  0
 25 18  1  0  0  0  0
 26 20  1  0  0  0  0
 27 33  1  0  0  0  0
 28 27  1  0  0  0  0
 28 34  1  0  0  0  0
 29 28  2  0  0  0  0
 30 31  2  0  0  0  0
 30 29  1  0  0  0  0
 31 32  1  0  0  0  0
 32 27  2  0  0  0  0
 35 36  1  0  0  0  0
 36 37  2  0  0  0  0
 36 29  1  0  0  0  0
 37 38  1  0  0  0  0
 39 40  1  0  0  0  0
 39 37  1  0  0  0  0
 40 41  1  0  0  0  0
 42 40  1  0  0  0  0
 43 45  1  0  0  0  0
 43 42  2  0  0  0  0
 44 43  1  0  0  0  0
 45 39  2  0  0  0  0
 46 45  1  0  0  0  0
 46 35  2  0  0  0  0
M  END
>  <minimizedAffinity>
-7.44245291

$$$$

 OpenBabel03252506073D

 46 51  0  0  0  0  0  0  0  0999 V2000
   36.5810   26.3560   38.5470 Cl  0  0  0  0  0  0  0  0  0  0  0  0
   35.2310   27.3120   38.0140 C   0  0  0  0  0  0  0  0  0  0  0  0
   35.0880   28.6200   38.4470 C   0  0  0  0  0  0  0  0  0  0  0  0
   33.9900   29.2860   37.9670 C   0  0  0  0  0  0  0  0  0  0  0  0
   33.0480   28.7520   37.1080 C   0  0  0  0  0  0  0  0  0  0  0  0
   33.2230   27.4520   36.7000 C   0  0  0  0  0  0  0  0  0  0  0  0
   32.0090   26.8070   35.6100 Cl  0  0  0  0  0  0  0  0  0  0  0  0
   34.3030   26.7410   37.1490 C   0  0  0  0  0  0  0  0  0  0  0  0
   33.8820   30.3190   38.3140 H   0  0  0  0  0  0  0  0  0  0  0  0
   34.4010   25.7300   36.8050 H   0  0  0  0  0  0  0  0  0  0  0  0
   31.9440   29.6260   36.7110 C   0  0  0  0  0  0  0  0  0  0  0  0
   30.8230   29.8210   37.4910 C   0  0  0  0  0  0  0  0  0  0  0  0
   29.7660   30.6440   37.1340 C   0  0  0  0  0  0  0  0  0  0  0  0
   29.8300   31.3140   35.9260 C   0  0  0  0  0  0  0  0  0  0  0  0
   28.7850   32.1040   35.6140 N   0  0  0  0  0  0  0  0  0  0  0  0
   28.7570   32.8030   34.4470 C   0  0  0  0  0  0  0  0  0  0  0  0
   29.8500   32.6560   33.6130 C   0  0  0  0  0  0  0  0  0  0  0  0
   30.8990   31.8490   33.9500 C   0  0  0  0  0  0  0  0  0  0  0  0
   30.9200   31.1480   35.1260 C   0  0  0  0  0  0  0  0  0  0  0  0
   31.9610   30.3220   35.5060 C   0  0  0  0  0  0  0  0  0  0  0  0
   30.8160   29.2750   38.4310 H   0  0  0  0  0  0  0  0  0  0  0  0
   28.9320   30.7240   37.8250 H   0  0  0  0  0  0  0  0  0  0  0  0
   27.8810   33.4260   34.2520 H   0  0  0  0  0  0  0  0  0  0  0  0
   29.8190   33.2150   32.6890 H   0  0  0  0  0  0  0  0  0  0  0  0
   31.7360   31.7680   33.2580 H   0  0  0  0  0  0  0  0  0  0  0  0
   32.8010   30.2300   34.8280 H   0  0  0  0  0  0  0  0  0  0  0  0
   36.5830   29.9590   41.4820 C   0  0  0  0  0  0  0  0  0  0  0  0
   37.8300   30.4250   41.0490 C   0  0  0  0  0  0  0  0  0  0  0  0
   38.1640   30.2760   39.6870 C   0  0  0  0  0  0  0  0  0  0  0  0
   37.2430   29.6890   38.9010 N   0  0  0  0  0  0  0  0  0  0  0  0
   36.0380   29.2460   39.3490 C   0  0  0  0  0  0  0  0  0  0  0  0
   35.7040   29.3780   40.6370 N   0  0  0  0  0  0  0  0  0  0  0  0
   36.3160   30.0660   42.5190 H   0  0  0  0  0  0  0  0  0  0  0  0
   38.5470   30.8860   41.6870 H   0  0  0  0  0  0  0  0  0  0  0  0
   40.4330   29.7880   39.0650 C   0  0  0  0  0  3  0  0  0  0  0  0
   39.4230   30.7110   39.0990 C   0  0  0  0  0  0  0  0  0  0  0  0
   39.6130   31.9790   38.5950 C   0  0  0  0  0  0  0  0  0  0  0  0
   38.8330   32.7060   38.6170 H   0  0  0  0  0  0  0  0  0  0  0  0
   40.8180   32.3630   38.0440 C   0  0  0  0  0  0  0  0  0  0  0  0
   41.2690   33.5050   37.4920 N   0  0  0  0  0  0  0  0  0  0  0  0
   40.6610   34.3690   37.4060 H   0  0  0  0  0  0  0  0  0  0  0  0
   42.5230   33.3240   37.1180 N   0  0  0  0  0  0  0  0  0  0  0  0
   42.9210   32.0740   37.4100 C   0  0  0  0  0  0  0  0  0  0  0  0
   43.8850   31.6480   37.2220 H   0  0  0  0  0  0  0  0  0  0  0  0
   41.8440   31.4180   38.0110 C   0  0  0  0  0  0  0  0  0  0  0  0
   41.6740   30.1270   38.5150 C   0  0  0  0  0  3  0  0  0  0  0  0
  2  3  1  0  0  0  0
  2  1  1  0  0  0  0
  3 31  1  0  0  0  0
  4  9  1  0  0  0  0
  4  3  2  0  0  0  0
  5  4  1  0  0  0  0
  6  5  2  0  0  0  0
  6  8  1  0  0  0  0
  7  6  1  0  0  0  0
  8  2  2  0  0  0  0
 10  8  1  0  0  0  0
 11  5  1  0  0  0  0
 11 12  1  0  0  0  0
 12 21  1  0  0  0  0
 13 12  2  0  0  0  0
 13 22  1  0  0  0  0
 14 13  1  0  0  0  0
 15 14  1  0  0  0  0
 16 15  2  0  0  0  0
 17 18  2  0  0  0  0
 17 16  1  0  0  0  0
 18 19  1  0  0  0  0
 19 20  1  0  0  0  0
 19 14  2  0  0  0  0
 20 11  2  0  0  0  0
 23 16  1  0  0  0  0
 24 17  1  0  0  0  0
 25 18  1  0  0  0  0
 26 20  1  0  0  0  0
 27 33  1  0  0  0  0
 28 27  1  0  0  0  0
 28 34  1  0  0  0  0
 29 28  2  0  0  0  0
 30 31  2  0  0  0  0
 30 29  1  0  0  0  0
 31 32  1  0  0  0  0
 32 27  2  0  0  0  0
 35 36  1  0  0  0  0
 36 29  1  0  0  0  0
 37 38  1  0  0  0  0
 37 36  2  0  0  0  0
 39 37  1  0  0  0  0
 40 39  1  0  0  0  0
 41 40  1  0  0  0  0
 42 43  2  0  0  0  0
 42 40  1  0  0  0  0
 43 45  1  0  0  0  0
 44 43  1  0  0  0  0
 45 39  2  0  0  0  0
 45 46  1  0  0  0  0
 46 35  2  0  0  0  0
M  END
>  <minimizedAffinity>
-7.18213701

$$$$
