
 OpenBabel03252506543D

 41 46  0  0  0  0  0  0  0  0999 V2000
   47.2130   31.4110   45.3210 C   0  0  0  0  0  0  0  0  0  0  0  0
   46.6700   32.6840   45.3060 C   0  0  0  0  0  0  0  0  0  0  0  0
   45.9180   33.1840   46.3400 C   0  0  0  0  0  0  0  0  0  0  0  0
   45.6730   32.3990   47.4670 C   0  0  0  0  0  0  0  0  0  0  0  0
   44.9980   32.5540   48.6380 N   0  0  0  0  0  0  0  0  0  0  0  0
   45.1210   31.4110   49.3560 C   0  0  0  0  0  0  0  0  0  0  0  0
   45.8730   30.5590   48.6170 N   0  0  0  0  0  0  0  0  0  0  0  0
   46.2230   31.1470   47.4520 C   0  0  0  0  0  0  0  0  0  0  0  0
   46.9810   30.6130   46.4360 C   0  0  0  0  0  0  0  0  0  0  0  0
   47.8060   31.0280   44.4980 H   0  0  0  0  0  0  0  0  0  0  0  0
   45.4810   34.1840   46.3440 H   0  0  0  0  0  0  0  0  0  0  0  0
   44.4980   33.4340   48.8670 H   0  0  0  0  0  0  0  0  0  0  0  0
   44.6830   31.2680   50.3210 H   0  0  0  0  0  0  0  0  0  0  0  0
   46.1910   35.2480   42.7040 C   0  0  0  0  0  0  0  0  0  0  0  0
   47.3620   35.1430   41.9640 C   0  0  0  0  0  0  0  0  0  0  0  0
   48.3130   34.2020   42.3480 C   0  0  0  0  0  0  0  0  0  0  0  0
   48.0530   33.4180   43.4430 N   0  0  0  0  0  0  0  0  0  0  0  0
   46.8990   33.5430   44.1470 C   0  0  0  0  0  0  0  0  0  0  0  0
   45.9840   34.4460   43.7790 N   0  0  0  0  0  0  0  0  0  0  0  0
   45.4640   35.9910   42.3830 H   0  0  0  0  0  0  0  0  0  0  0  0
   47.5780   35.7580   41.0960 H   0  0  0  0  0  0  0  0  0  0  0  0
   49.2570   34.0540   41.8250 H   0  0  0  0  0  0  0  0  0  0  0  0
   47.5190   29.2590   46.5290 C   0  0  0  0  0  0  0  0  0  0  0  0
   48.7690   28.9510   47.0350 C   0  0  0  0  0  0  0  0  0  0  0  0
   48.8410   27.5590   46.9230 C   0  0  0  0  0  0  0  0  0  0  0  0
   47.6630   27.1150   46.3680 C   0  0  0  0  0  0  0  0  0  0  0  0
   46.9060   28.1670   46.1500 O   0  0  0  0  0  0  0  0  0  0  0  0
   49.5330   29.6050   47.4320 H   0  0  0  0  0  0  0  0  0  0  0  0
   49.6650   26.9170   47.2110 H   0  0  0  0  0  0  0  0  0  0  0  0
   47.7040   25.1990   44.8540 C   0  0  0  0  0  3  0  0  0  0  0  0
   47.2780   25.7420   46.0600 C   0  0  0  0  0  0  0  0  0  0  0  0
   46.5150   25.0080   46.9440 C   0  0  0  0  0  0  0  0  0  0  0  0
   46.1730   25.4090   47.8860 H   0  0  0  0  0  0  0  0  0  0  0  0
   46.1780   23.7060   46.6000 C   0  0  0  0  0  0  0  0  0  0  0  0
   45.4420   22.7920   47.2970 N   0  0  0  0  0  0  0  0  0  0  0  0
   44.9890   22.9050   48.2310 H   0  0  0  0  0  0  0  0  0  0  0  0
   45.3790   21.6740   46.5760 N   0  0  0  0  0  0  0  0  0  0  0  0
   46.0570   21.8400   45.4250 C   0  0  0  0  0  0  0  0  0  0  0  0
   46.2230   21.1460   44.5940 H   0  0  0  0  0  0  0  0  0  0  0  0
   46.5800   23.1160   45.4000 C   0  0  0  0  0  0  0  0  0  0  0  0
   47.3400   23.9000   44.5620 C   0  0  0  0  0  3  0  0  0  0  0  0
  1  9  1  0  0  0  0
  2  1  2  0  0  0  0
  2  3  1  0  0  0  0
  3 11  1  0  0  0  0
  3  4  2  0  0  0  0
  4  5  1  0  0  0  0
  5 12  1  0  0  0  0
  5  6  1  0  0  0  0
  6 13  1  0  0  0  0
  7  6  2  0  0  0  0
  8  4  1  0  0  0  0
  8  7  1  0  0  0  0
  9 23  1  0  0  0  0
  9  8  2  0  0  0  0
 10  1  1  0  0  0  0
 14 19  1  0  0  0  0
 15 16  1  0  0  0  0
 15 14  2  0  0  0  0
 16 17  2  0  0  0  0
 17 18  1  0  0  0  0
 18  2  1  0  0  0  0
 19 18  2  0  0  0  0
 20 14  1  0  0  0  0
 21 15  1  0  0  0  0
 22 16  1  0  0  0  0
 23 24  2  0  0  0  0
 24 28  1  0  0  0  0
 25 24  1  0  0  0  0
 25 29  1  0  0  0  0
 26 25  2  0  0  0  0
 27 26  1  0  0  0  0
 27 23  1  0  0  0  0
 30 31  1  0  0  0  0
 31 26  1  0  0  0  0
 31 32  2  0  0  0  0
 32 33  1  0  0  0  0
 34 32  1  0  0  0  0
 34 35  1  0  0  0  0
 35 36  1  0  0  0  0
 37 35  1  0  0  0  0
 38 37  2  0  0  0  0
 39 38  1  0  0  0  0
 40 38  1  0  0  0  0
 40 34  2  0  0  0  0
 41 30  2  0  0  0  0
 41 40  1  0  0  0  0
M  END
>  <minimizedAffinity>
-5.48661804

>  <minimizedRMSD>
0.770941138

$$$$
