
 OpenBabel03252506553D

 41 46  0  0  0  0  0  0  0  0999 V2000
   47.2190   31.3870   45.1450 C   0  0  0  0  0  0  0  0  0  0  0  0
   46.8620   32.7240   45.1310 C   0  0  0  0  0  0  0  0  0  0  0  0
   46.2540   33.3430   46.1960 C   0  0  0  0  0  0  0  0  0  0  0  0
   45.9710   32.6180   47.3530 C   0  0  0  0  0  0  0  0  0  0  0  0
   45.3980   32.8870   48.5590 N   0  0  0  0  0  0  0  0  0  0  0  0
   45.4020   31.7490   49.2950 C   0  0  0  0  0  0  0  0  0  0  0  0
   45.9780   30.7870   48.5330 N   0  0  0  0  0  0  0  0  0  0  0  0
   46.3350   31.3010   47.3360 C   0  0  0  0  0  0  0  0  0  0  0  0
   46.9450   30.6480   46.2900 C   0  0  0  0  0  0  0  0  0  0  0  0
   47.6990   30.9110   44.2980 H   0  0  0  0  0  0  0  0  0  0  0  0
   45.9650   34.3950   46.2010 H   0  0  0  0  0  0  0  0  0  0  0  0
   45.0430   33.8330   48.7950 H   0  0  0  0  0  0  0  0  0  0  0  0
   45.0080   31.6840   50.2870 H   0  0  0  0  0  0  0  0  0  0  0  0
   46.5140   35.1910   42.4170 C   0  0  0  0  0  0  0  0  0  0  0  0
   47.6910   35.0110   41.7000 C   0  0  0  0  0  0  0  0  0  0  0  0
   48.6010   34.0540   42.1370 C   0  0  0  0  0  0  0  0  0  0  0  0
   48.2960   33.3270   43.2600 N   0  0  0  0  0  0  0  0  0  0  0  0
   47.1380   33.5250   43.9400 C   0  0  0  0  0  0  0  0  0  0  0  0
   46.2630   34.4440   43.5210 N   0  0  0  0  0  0  0  0  0  0  0  0
   45.8200   35.9460   42.0530 H   0  0  0  0  0  0  0  0  0  0  0  0
   47.9410   35.5810   40.8100 H   0  0  0  0  0  0  0  0  0  0  0  0
   49.5450   33.8480   41.6350 H   0  0  0  0  0  0  0  0  0  0  0  0
   47.2900   29.2320   46.3830 C   0  0  0  0  0  0  0  0  0  0  0  0
   48.5820   28.7530   46.5000 C   0  0  0  0  0  0  0  0  0  0  0  0
   48.4190   27.3640   46.5540 C   0  0  0  0  0  0  0  0  0  0  0  0
   47.0730   27.0900   46.4680 C   0  0  0  0  0  0  0  0  0  0  0  0
   46.4400   28.2380   46.3670 O   0  0  0  0  0  0  0  0  0  0  0  0
   49.5170   29.2920   46.5430 H   0  0  0  0  0  0  0  0  0  0  0  0
   49.1940   26.6130   46.6460 H   0  0  0  0  0  0  0  0  0  0  0  0
   45.7640   25.3960   47.6410 C   0  0  0  0  0  3  0  0  0  0  0  0
   46.4220   25.7850   46.4820 C   0  0  0  0  0  0  0  0  0  0  0  0
   46.4600   24.9650   45.3730 C   0  0  0  0  0  0  0  0  0  0  0  0
   46.9660   25.2470   44.4610 H   0  0  0  0  0  0  0  0  0  0  0  0
   45.8230   23.7340   45.4410 C   0  0  0  0  0  0  0  0  0  0  0  0
   45.7220   22.7600   44.4890 N   0  0  0  0  0  0  0  0  0  0  0  0
   46.1110   22.7620   43.5220 H   0  0  0  0  0  0  0  0  0  0  0  0
   45.0180   21.7530   45.0030 N   0  0  0  0  0  0  0  0  0  0  0  0
   44.6590   22.0490   46.2650 C   0  0  0  0  0  0  0  0  0  0  0  0
   44.0800   21.4680   46.9920 H   0  0  0  0  0  0  0  0  0  0  0  0
   45.1490   23.2970   46.5830 C   0  0  0  0  0  0  0  0  0  0  0  0
   45.1480   24.1620   47.6550 C   0  0  0  0  0  3  0  0  0  0  0  0
  1  9  1  0  0  0  0
  2  1  2  0  0  0  0
  2  3  1  0  0  0  0
  3 11  1  0  0  0  0
  3  4  2  0  0  0  0
  4  5  1  0  0  0  0
  5 12  1  0  0  0  0
  5  6  1  0  0  0  0
  6 13  1  0  0  0  0
  7  6  2  0  0  0  0
  8  4  1  0  0  0  0
  8  7  1  0  0  0  0
  9 23  1  0  0  0  0
  9  8  2  0  0  0  0
 10  1  1  0  0  0  0
 14 19  1  0  0  0  0
 15 16  1  0  0  0  0
 15 14  2  0  0  0  0
 16 17  2  0  0  0  0
 17 18  1  0  0  0  0
 18  2  1  0  0  0  0
 19 18  2  0  0  0  0
 20 14  1  0  0  0  0
 21 15  1  0  0  0  0
 22 16  1  0  0  0  0
 23 24  2  0  0  0  0
 24 28  1  0  0  0  0
 24 25  1  0  0  0  0
 25 29  1  0  0  0  0
 26 31  1  0  0  0  0
 26 25  2  0  0  0  0
 27 23  1  0  0  0  0
 27 26  1  0  0  0  0
 30 41  1  0  0  0  0
 31 30  2  0  0  0  0
 32 34  2  0  0  0  0
 32 31  1  0  0  0  0
 33 32  1  0  0  0  0
 34 40  1  0  0  0  0
 35 37  1  0  0  0  0
 35 34  1  0  0  0  0
 36 35  1  0  0  0  0
 37 38  2  0  0  0  0
 38 40  1  0  0  0  0
 38 39  1  0  0  0  0
 40 41  2  0  0  0  0
M  END
>  <minimizedAffinity>
-5.70890474

>  <minimizedRMSD>
0.215676904

$$$$
