
     RDKit          3D

 43 48  0  0  0  0  0  0  0  0999 V2000
   47.2592   31.3902   45.1528 C   0  0  0  0  0  0  0  0  0  0  0  0
   46.8690   32.7176   45.1363 C   0  0  0  0  0  0  0  0  0  0  0  0
   46.2397   33.3220   46.1965 C   0  0  0  0  0  0  0  0  0  0  0  0
   45.9686   32.5920   47.3538 C   0  0  0  0  0  0  0  0  0  0  0  0
   45.3836   32.8472   48.5563 N   0  0  0  0  0  0  0  0  0  0  0  0
   45.4120   31.7101   49.2937 C   0  0  0  0  0  0  0  0  0  0  0  0
   46.0161   30.7619   48.5364 N   0  0  0  0  0  0  0  0  0  0  0  0
   46.3658   31.2840   47.3402 C   0  0  0  0  0  0  0  0  0  0  0  0
   46.9977   30.6462   46.2976 C   0  0  0  0  0  0  0  0  0  0  0  0
   46.4855   35.1929   42.4342 C   0  0  0  0  0  0  0  0  0  0  0  0
   47.6567   35.0214   41.7056 C   0  0  0  0  0  0  0  0  0  0  0  0
   48.5749   34.0661   42.1323 C   0  0  0  0  0  0  0  0  0  0  0  0
   48.2837   33.3337   43.2555 N   0  0  0  0  0  0  0  0  0  0  0  0
   47.1309   33.5241   43.9464 C   0  0  0  0  0  0  0  0  0  0  0  0
   46.2484   34.4412   43.5375 N   0  0  0  0  0  0  0  0  0  0  0  0
   47.3783   29.2388   46.3935 C   0  0  0  0  0  0  0  0  0  0  0  0
   48.6709   28.7948   46.6003 C   0  0  0  0  0  0  0  0  0  0  0  0
   48.5474   27.4020   46.6199 C   0  0  0  0  0  0  0  0  0  0  0  0
   47.2202   27.0900   46.4286 C   0  0  0  0  0  0  0  0  0  0  0  0
   46.5623   28.2209   46.2985 O   0  0  0  0  0  0  0  0  0  0  0  0
   47.7553   30.9251   44.3090 H   0  0  0  0  0  0  0  0  0  0  0  0
   45.9253   34.3675   46.1998 H   0  0  0  0  0  0  0  0  0  0  0  0
   45.0043   33.7841   48.7903 H   0  0  0  0  0  0  0  0  0  0  0  0
   45.0151   31.6372   50.2837 H   0  0  0  0  0  0  0  0  0  0  0  0
   45.7853   35.9457   42.0792 H   0  0  0  0  0  0  0  0  0  0  0  0
   47.8967   35.5951   40.8163 H   0  0  0  0  0  0  0  0  0  0  0  0
   49.5156   33.8675   41.6211 H   0  0  0  0  0  0  0  0  0  0  0  0
   49.5835   29.3614   46.7222 H   0  0  0  0  0  0  0  0  0  0  0  0
   49.3347   26.6716   46.7585 H   0  0  0  0  0  0  0  0  0  0  0  0
   45.3228   25.6626   45.8612 C   0  0  0  0  0  0  0  0  0  0  0  0
   46.6093   25.7671   46.3728 C   0  0  0  0  0  0  0  0  0  0  0  0
   47.2936   24.6547   46.8168 C   0  0  0  0  0  0  0  0  0  0  0  0
   48.2944   24.7114   47.2183 H   0  0  0  0  0  0  0  0  0  0  0  0
   46.6645   23.4195   46.7406 C   0  0  0  0  0  0  0  0  0  0  0  0
   47.1274   22.1898   47.1111 N   0  0  0  0  0  0  0  0  0  0  0  0
   48.0540   21.9481   47.5262 H   0  0  0  0  0  0  0  0  0  0  0  0
   46.1762   21.2949   46.8530 N   0  0  0  0  0  0  0  0  0  0  0  0
   45.1044   21.9131   46.3230 C   0  0  0  0  0  0  0  0  0  0  0  0
   44.1442   21.5053   45.9896 H   0  0  0  0  0  0  0  0  0  0  0  0
   45.3727   23.2627   46.2344 C   0  0  0  0  0  0  0  0  0  0  0  0
   44.7439   24.4110   45.8080 C   0  0  0  0  0  0  0  0  0  0  0  0
   44.7865   26.5460   45.5116 H   0  0  0  0  0  0  0  0  0  0  0  0
   43.7376   24.2893   45.4137 H   0  0  0  0  0  0  0  0  0  0  0  0
  1  9  2  0
  2  1  1  0
  2  3  2  0
  3  4  1  0
  4  5  1  0
  5  6  1  0
  7  6  2  0
  8  4  2  0
  8  7  1  0
  9 16  1  0
  9  8  1  0
 10 15  2  0
 11 12  2  0
 11 10  1  0
 12 13  1  0
 13 14  2  0
 14  2  1  0
 15 14  1  0
 16 17  2  0
 17 18  1  0
 19 18  2  0
 20 16  1  0
 20 19  1  0
  1 21  1  0
  3 22  1  0
  5 23  1  0
  6 24  1  0
 10 25  1  0
 11 26  1  0
 12 27  1  0
 17 28  1  0
 18 29  1  0
 30 31  2  0
 31 32  1  0
 32 33  1  0
 32 34  2  0
 34 35  1  0
 35 36  1  0
 35 37  1  0
 37 38  2  0
 38 39  1  0
 38 40  1  0
 40 41  2  0
 41 30  1  0
 40 34  1  0
 30 42  1  0
 41 43  1  0
 19 31  1  0
M  ISO  8  21  14  22  14  23   9  24  14  25  14  26  14  27  14  28  14
M  ISO  4  29  14  33  16  36   5  39  15
M  END
>  <DihAtoms>  (1) 
17,18,30,29

>  <DihDeg>  (1) 
-179.99932393172205

$$$$
