
 OpenBabel03252503543D

 39 42  0  0  1  0  0  0  0  0999 V2000
   35.8840   29.2800   37.2650 N   0  0  0  0  0  0  0  0  0  0  0  0
   35.4510   29.3000   35.8630 C   0  0  0  0  0  0  0  0  0  0  0  0
   33.9800   28.9420   35.8640 C   0  0  0  0  0  0  0  0  0  0  0  0
   33.8490   27.4930   36.2470 C   0  0  0  0  0  0  0  0  0  0  0  0
   34.5690   27.2730   37.5390 C   0  0  0  0  0  0  0  0  0  0  0  0
   35.1270   28.5050   38.1660 C   0  0  1  0  0  0  0  0  0  0  0  0
   35.4850   30.3930   35.5880 H   0  0  0  0  0  0  0  0  0  0  0  0
   36.0460   28.6640   35.2140 H   0  0  0  0  0  0  0  0  0  0  0  0
   33.4520   29.6230   36.5590 H   0  0  0  0  0  0  0  0  0  0  0  0
   33.5680   29.1160   34.8680 H   0  0  0  0  0  0  0  0  0  0  0  0
   32.7430   27.2910   36.3330 H   0  0  0  0  0  0  0  0  0  0  0  0
   34.2830   26.9020   35.3910 H   0  0  0  0  0  0  0  0  0  0  0  0
   33.8650   26.7940   38.2640 H   0  0  0  0  0  0  0  0  0  0  0  0
   35.3570   26.5110   37.3560 H   0  0  0  0  0  0  0  0  0  0  0  0
   34.3070   29.1170   38.5900 H   0  0  0  0  0  0  0  0  0  0  0  0
   36.6390   26.7680   39.2680 C   0  0  0  0  0  3  0  0  0  0  0  0
   35.8840   27.9490   39.3520 C   0  0  0  0  0  0  0  0  0  0  0  0
   35.8340   28.5700   40.6130 C   0  0  0  0  0  0  0  0  0  0  0  0
   35.2410   29.4760   40.6290 H   0  0  0  0  0  0  0  0  0  0  0  0
   36.4850   28.0530   41.7010 C   0  0  0  0  0  0  0  0  0  0  0  0
   36.5220   28.5410   42.9600 N   0  0  0  0  0  0  0  0  0  0  0  0
   36.0430   29.4140   43.3030 H   0  0  0  0  0  0  0  0  0  0  0  0
   37.2780   27.7060   43.6790 N   0  0  0  0  0  0  0  0  0  0  0  0
   37.7100   26.7030   42.8780 C   0  0  0  0  0  0  0  0  0  0  0  0
   38.3420   25.8650   43.1550 H   0  0  0  0  0  0  0  0  0  0  0  0
   37.2100   26.9050   41.5900 C   0  0  0  0  0  0  0  0  0  0  0  0
   37.2840   26.2690   40.3770 C   0  0  0  0  0  3  0  0  0  0  0  0
   38.0530   31.8570   38.7810 C   0  0  0  0  0  0  0  0  0  0  0  0
   36.9030   31.1810   38.3690 C   0  0  0  0  0  0  0  0  0  0  0  0
   37.0250   30.0080   37.6490 C   0  0  0  0  0  0  0  0  0  0  0  0
   38.2680   29.5630   37.3650 N   0  0  0  0  0  0  0  0  0  0  0  0
   39.3880   30.2220   37.7610 C   0  0  0  0  0  0  0  0  0  0  0  0
   39.2730   31.3730   38.4740 N   0  0  0  0  0  0  0  0  0  0  0  0
   35.9870   31.6690   38.6220 H   0  0  0  0  0  0  0  0  0  0  0  0
   40.3710   29.8130   37.5010 H   0  0  0  0  0  0  0  0  0  0  0  0
   37.8710   33.1010   39.5970 C   0  0  0  0  0  0  0  0  0  0  0  0
   36.8370   33.8920   39.1070 F   0  0  0  0  0  0  0  0  0  0  0  0
   37.6220   32.7010   40.8940 F   0  0  0  0  0  0  0  0  0  0  0  0
   39.0490   33.8380   39.5920 F   0  0  0  0  0  0  0  0  0  0  0  0
  1 30  1  0  0  0  0
  1  6  1  0  0  0  0
  2  3  1  0  0  0  0
  2  1  1  0  0  0  0
  3  4  1  0  0  0  0
  3  9  1  0  0  0  0
  4 11  1  0  0  0  0
  4  5  1  0  0  0  0
  5  6  1  0  0  0  0
  5 13  1  0  0  0  0
  6 15  1  1  0  0  0
  6 17  1  0  0  0  0
  7  2  1  0  0  0  0
  8  2  1  0  0  0  0
 10  3  1  0  0  0  0
 12  4  1  0  0  0  0
 14  5  1  0  0  0  0
 16 17  2  0  0  0  0
 16 27  1  0  0  0  0
 17 18  1  0  0  0  0
 18 19  1  0  0  0  0
 18 20  2  0  0  0  0
 20 21  1  0  0  0  0
 21 22  1  0  0  0  0
 21 23  1  0  0  0  0
 24 25  1  0  0  0  0
 24 23  2  0  0  0  0
 26 20  1  0  0  0  0
 26 24  1  0  0  0  0
 27 26  2  0  0  0  0
 28 36  1  0  0  0  0
 29 34  1  0  0  0  0
 29 28  2  0  0  0  0
 30 29  1  0  0  0  0
 31 30  2  0  0  0  0
 31 32  1  0  0  0  0
 32 33  2  0  0  0  0
 33 28  1  0  0  0  0
 35 32  1  0  0  0  0
 36 38  1  0  0  0  0
 37 36  1  0  0  0  0
 39 36  1  0  0  0  0
M  END
>  <minimizedAffinity>
-6.27439642

$$$$

 OpenBabel03252503543D

 39 42  0  0  1  0  0  0  0  0999 V2000
   37.3820   28.1920   40.8300 N   0  0  0  0  0  0  0  0  0  0  0  0
   37.5280   26.8560   41.4190 C   0  0  0  0  0  0  0  0  0  0  0  0
   36.8420   26.9040   42.7660 C   0  0  0  0  0  0  0  0  0  0  0  0
   37.6600   27.7750   43.6800 C   0  0  0  0  0  0  0  0  0  0  0  0
   37.8720   29.0990   43.0140 C   0  0  0  0  0  0  0  0  0  0  0  0
   37.1650   29.2680   41.7120 C   0  0  1  0  0  0  0  0  0  0  0  0
   36.8650   26.2070   40.7770 H   0  0  0  0  0  0  0  0  0  0  0  0
   38.5570   26.5140   41.4740 H   0  0  0  0  0  0  0  0  0  0  0  0
   35.8090   27.2750   42.6240 H   0  0  0  0  0  0  0  0  0  0  0  0
   36.7670   25.8910   43.1670 H   0  0  0  0  0  0  0  0  0  0  0  0
   37.0700   27.8680   44.6370 H   0  0  0  0  0  0  0  0  0  0  0  0
   38.6190   27.2160   43.8700 H   0  0  0  0  0  0  0  0  0  0  0  0
   37.5350   29.9060   43.7090 H   0  0  0  0  0  0  0  0  0  0  0  0
   38.9680   29.2470   42.9090 H   0  0  0  0  0  0  0  0  0  0  0  0
   36.0790   29.3960   41.8880 H   0  0  0  0  0  0  0  0  0  0  0  0
   36.8630   31.5040   40.5180 C   0  0  0  0  0  3  0  0  0  0  0  0
   37.6710   30.6150   41.2450 C   0  0  0  0  0  0  0  0  0  0  0  0
   38.9950   31.0250   41.4820 C   0  0  0  0  0  0  0  0  0  0  0  0
   39.5790   30.3080   42.0450 H   0  0  0  0  0  0  0  0  0  0  0  0
   39.4730   32.2260   41.0290 C   0  0  0  0  0  0  0  0  0  0  0  0
   40.7110   32.7420   41.1840 N   0  0  0  0  0  0  0  0  0  0  0  0
   41.5170   32.2870   41.6880 H   0  0  0  0  0  0  0  0  0  0  0  0
   40.7160   33.9330   40.5780 N   0  0  0  0  0  0  0  0  0  0  0  0
   39.4910   34.1610   40.0470 C   0  0  0  0  0  0  0  0  0  0  0  0
   39.1660   35.0350   39.4910 H   0  0  0  0  0  0  0  0  0  0  0  0
   38.6660   33.0690   40.3260 C   0  0  0  0  0  0  0  0  0  0  0  0
   37.3680   32.7060   40.0750 C   0  0  0  0  0  3  0  0  0  0  0  0
   36.4640   28.6850   37.2860 C   0  0  0  0  0  0  0  0  0  0  0  0
   36.3400   28.4790   38.6620 C   0  0  0  0  0  0  0  0  0  0  0  0
   37.4770   28.3500   39.4350 C   0  0  0  0  0  0  0  0  0  0  0  0
   38.6760   28.4240   38.8190 N   0  0  0  0  0  0  0  0  0  0  0  0
   38.7990   28.6210   37.4810 C   0  0  0  0  0  0  0  0  0  0  0  0
   37.6840   28.7530   36.7160 N   0  0  0  0  0  0  0  0  0  0  0  0
   35.3330   28.3950   39.0080 H   0  0  0  0  0  0  0  0  0  0  0  0
   39.7990   28.6710   37.0350 H   0  0  0  0  0  0  0  0  0  0  0  0
   35.2030   28.8630   36.4950 C   0  0  0  0  0  0  0  0  0  0  0  0
   34.1680   29.3620   37.2800 F   0  0  0  0  0  0  0  0  0  0  0  0
   35.4970   29.7180   35.4530 F   0  0  0  0  0  0  0  0  0  0  0  0
   34.8160   27.6430   35.9560 F   0  0  0  0  0  0  0  0  0  0  0  0
  1  2  1  0  0  0  0
  1  6  1  0  0  0  0
  2  8  1  0  0  0  0
  2  3  1  0  0  0  0
  3 10  1  0  0  0  0
  3  4  1  0  0  0  0
  4 12  1  0  0  0  0
  4 11  1  0  0  0  0
  5  4  1  0  0  0  0
  5 13  1  0  0  0  0
  6 15  1  1  0  0  0
  6  5  1  0  0  0  0
  7  2  1  0  0  0  0
  9  3  1  0  0  0  0
 14  5  1  0  0  0  0
 16 17  1  0  0  0  0
 17 18  2  0  0  0  0
 17  6  1  0  0  0  0
 18 19  1  0  0  0  0
 20 21  1  0  0  0  0
 20 18  1  0  0  0  0
 21 22  1  0  0  0  0
 23 21  1  0  0  0  0
 24 26  1  0  0  0  0
 24 23  2  0  0  0  0
 25 24  1  0  0  0  0
 26 20  2  0  0  0  0
 27 26  1  0  0  0  0
 27 16  2  0  0  0  0
 28 29  1  0  0  0  0
 29 34  1  0  0  0  0
 29 30  2  0  0  0  0
 30  1  1  0  0  0  0
 31 30  1  0  0  0  0
 32 31  2  0  0  0  0
 33 28  2  0  0  0  0
 33 32  1  0  0  0  0
 35 32  1  0  0  0  0
 36 37  1  0  0  0  0
 36 28  1  0  0  0  0
 38 36  1  0  0  0  0
 39 36  1  0  0  0  0
M  END
>  <minimizedAffinity>
-6.2336874

$$$$

 OpenBabel03252503543D

 39 42  0  0  1  0  0  0  0  0999 V2000
   37.9870   29.5860   41.3170 N   0  0  0  0  0  0  0  0  0  0  0  0
   37.9970   29.4440   42.7770 C   0  0  0  0  0  0  0  0  0  0  0  0
   38.2260   27.9760   43.0640 C   0  0  0  0  0  0  0  0  0  0  0  0
   36.9950   27.2180   42.6510 C   0  0  0  0  0  0  0  0  0  0  0  0
   36.6780   27.5580   41.2290 C   0  0  0  0  0  0  0  0  0  0  0  0
   37.6740   28.4410   40.5570 C   0  0  1  0  0  0  0  0  0  0  0  0
   38.9520   29.9550   43.0890 H   0  0  0  0  0  0  0  0  0  0  0  0
   37.1080   29.8410   43.2600 H   0  0  0  0  0  0  0  0  0  0  0  0
   39.1360   27.6490   42.5250 H   0  0  0  0  0  0  0  0  0  0  0  0
   38.4190   27.8450   44.1310 H   0  0  0  0  0  0  0  0  0  0  0  0
   37.2380   26.1260   42.7860 H   0  0  0  0  0  0  0  0  0  0  0  0
   36.1830   27.5230   43.3700 H   0  0  0  0  0  0  0  0  0  0  0  0
   36.5960   26.6090   40.6450 H   0  0  0  0  0  0  0  0  0  0  0  0
   35.6590   27.9980   41.2100 H   0  0  0  0  0  0  0  0  0  0  0  0
   38.5990   27.8710   40.3400 H   0  0  0  0  0  0  0  0  0  0  0  0
   35.6610   29.0190   39.0980 C   0  0  0  0  0  3  0  0  0  0  0  0
   37.0230   28.7000   39.2160 C   0  0  0  0  0  0  0  0  0  0  0  0
   37.7460   28.5900   38.0150 C   0  0  0  0  0  0  0  0  0  0  0  0
   38.7910   28.3420   38.1560 H   0  0  0  0  0  0  0  0  0  0  0  0
   37.1560   28.7850   36.7940 C   0  0  0  0  0  0  0  0  0  0  0  0
   37.7260   28.7120   35.5720 N   0  0  0  0  0  0  0  0  0  0  0  0
   38.7350   28.4880   35.3680 H   0  0  0  0  0  0  0  0  0  0  0  0
   36.7680   28.9760   34.6790 N   0  0  0  0  0  0  0  0  0  0  0  0
   35.6070   29.2120   35.3360 C   0  0  0  0  0  0  0  0  0  0  0  0
   34.6430   29.4560   34.9030 H   0  0  0  0  0  0  0  0  0  0  0  0
   35.8320   29.0940   36.7090 C   0  0  0  0  0  0  0  0  0  0  0  0
   35.0920   29.2100   37.8590 C   0  0  0  0  0  3  0  0  0  0  0  0
   39.7500   32.3300   39.5830 C   0  0  0  0  0  0  0  0  0  0  0  0
   39.5120   31.0980   40.1950 C   0  0  0  0  0  0  0  0  0  0  0  0
   38.2690   30.8370   40.7390 C   0  0  0  0  0  0  0  0  0  0  0  0
   37.3270   31.8000   40.6600 N   0  0  0  0  0  0  0  0  0  0  0  0
   37.5580   33.0010   40.0680 C   0  0  0  0  0  0  0  0  0  0  0  0
   38.7770   33.2610   39.5280 N   0  0  0  0  0  0  0  0  0  0  0  0
   40.3600   30.4480   40.2280 H   0  0  0  0  0  0  0  0  0  0  0  0
   36.7540   33.7460   40.0340 H   0  0  0  0  0  0  0  0  0  0  0  0
   41.1000   32.5490   38.9690 C   0  0  0  0  0  0  0  0  0  0  0  0
   41.8870   31.4040   39.0300 F   0  0  0  0  0  0  0  0  0  0  0  0
   40.8910   32.9430   37.6630 F   0  0  0  0  0  0  0  0  0  0  0  0
   41.7500   33.5830   39.6310 F   0  0  0  0  0  0  0  0  0  0  0  0
  1  2  1  0  0  0  0
  2  3  1  0  0  0  0
  2  7  1  0  0  0  0
  2  8  1  0  0  0  0
  3 10  1  0  0  0  0
  4 11  1  0  0  0  0
  4  3  1  0  0  0  0
  4 12  1  0  0  0  0
  5  4  1  0  0  0  0
  6 15  1  6  0  0  0
  6  5  1  0  0  0  0
  6  1  1  0  0  0  0
  9  3  1  0  0  0  0
 13  5  1  0  0  0  0
 14  5  1  0  0  0  0
 16 17  1  0  0  0  0
 17  6  1  0  0  0  0
 18 19  1  0  0  0  0
 18 17  2  0  0  0  0
 20 18  1  0  0  0  0
 21 20  1  0  0  0  0
 22 21  1  0  0  0  0
 23 24  2  0  0  0  0
 23 21  1  0  0  0  0
 24 26  1  0  0  0  0
 25 24  1  0  0  0  0
 26 20  2  0  0  0  0
 26 27  1  0  0  0  0
 27 16  2  0  0  0  0
 28 29  1  0  0  0  0
 29 34  1  0  0  0  0
 29 30  2  0  0  0  0
 30  1  1  0  0  0  0
 31 30  1  0  0  0  0
 32 31  2  0  0  0  0
 33 28  2  0  0  0  0
 33 32  1  0  0  0  0
 35 32  1  0  0  0  0
 36 37  1  0  0  0  0
 36 28  1  0  0  0  0
 36 39  1  0  0  0  0
 38 36  1  0  0  0  0
M  END
>  <minimizedAffinity>
-5.90403557

$$$$

 OpenBabel03252503543D

 39 42  0  0  1  0  0  0  0  0999 V2000
   37.6050   28.0990   40.8060 N   0  0  0  0  0  0  0  0  0  0  0  0
   37.7450   26.7990   41.4720 C   0  0  0  0  0  0  0  0  0  0  0  0
   36.8460   26.8420   42.6880 C   0  0  0  0  0  0  0  0  0  0  0  0
   37.4400   27.8040   43.6800 C   0  0  0  0  0  0  0  0  0  0  0  0
   37.6670   29.1160   42.9960 C   0  0  0  0  0  0  0  0  0  0  0  0
   37.1720   29.1860   41.5910 C   0  0  1  0  0  0  0  0  0  0  0  0
   37.2430   26.0800   40.7630 H   0  0  0  0  0  0  0  0  0  0  0  0
   38.7730   26.5380   41.7080 H   0  0  0  0  0  0  0  0  0  0  0  0
   35.8270   27.1290   42.3640 H   0  0  0  0  0  0  0  0  0  0  0  0
   36.7760   25.8400   43.1190 H   0  0  0  0  0  0  0  0  0  0  0  0
   36.6970   27.8850   44.5240 H   0  0  0  0  0  0  0  0  0  0  0  0
   38.3920   27.3270   44.0480 H   0  0  0  0  0  0  0  0  0  0  0  0
   37.1650   29.9190   43.5890 H   0  0  0  0  0  0  0  0  0  0  0  0
   38.7520   29.3430   43.0620 H   0  0  0  0  0  0  0  0  0  0  0  0
   36.0660   29.2370   41.5830 H   0  0  0  0  0  0  0  0  0  0  0  0
   36.8580   31.4040   40.3680 C   0  0  0  0  0  3  0  0  0  0  0  0
   37.6530   30.5500   41.1480 C   0  0  0  0  0  0  0  0  0  0  0  0
   38.9430   31.0130   41.4660 C   0  0  0  0  0  0  0  0  0  0  0  0
   39.5180   30.3210   42.0680 H   0  0  0  0  0  0  0  0  0  0  0  0
   39.4010   32.2300   41.0370 C   0  0  0  0  0  0  0  0  0  0  0  0
   40.6060   32.7940   41.2660 N   0  0  0  0  0  0  0  0  0  0  0  0
   41.3960   32.3730   41.8210 H   0  0  0  0  0  0  0  0  0  0  0  0
   40.6030   33.9830   40.6540 N   0  0  0  0  0  0  0  0  0  0  0  0
   39.4050   34.1610   40.0470 C   0  0  0  0  0  0  0  0  0  0  0  0
   39.0820   35.0200   39.4670 H   0  0  0  0  0  0  0  0  0  0  0  0
   38.6080   33.0390   40.2800 C   0  0  0  0  0  0  0  0  0  0  0  0
   37.3430   32.6240   39.9500 C   0  0  0  0  0  3  0  0  0  0  0  0
   39.5100   28.2500   37.6450 C   0  0  0  0  0  0  0  0  0  0  0  0
   39.2300   28.1840   39.0110 C   0  0  0  0  0  0  0  0  0  0  0  0
   37.9170   28.2150   39.4390 C   0  0  0  0  0  0  0  0  0  0  0  0
   36.9470   28.3150   38.5050 N   0  0  0  0  0  0  0  0  0  0  0  0
   37.2170   28.3840   37.1760 C   0  0  0  0  0  0  0  0  0  0  0  0
   38.5070   28.3490   36.7500 N   0  0  0  0  0  0  0  0  0  0  0  0
   40.0940   28.1530   39.6400 H   0  0  0  0  0  0  0  0  0  0  0  0
   36.3890   28.4660   36.4630 H   0  0  0  0  0  0  0  0  0  0  0  0
   40.9470   28.1690   37.2270 C   0  0  0  0  0  0  0  0  0  0  0  0
   41.1560   27.1610   36.2910 F   0  0  0  0  0  0  0  0  0  0  0  0
   41.2900   29.4040   36.7160 F   0  0  0  0  0  0  0  0  0  0  0  0
   41.7430   27.9270   38.3400 F   0  0  0  0  0  0  0  0  0  0  0  0
  1  2  1  0  0  0  0
  1  6  1  0  0  0  0
  2  8  1  0  0  0  0
  2  3  1  0  0  0  0
  3 10  1  0  0  0  0
  3  4  1  0  0  0  0
  4 12  1  0  0  0  0
  4 11  1  0  0  0  0
  5 14  1  0  0  0  0
  5 13  1  0  0  0  0
  5  4  1  0  0  0  0
  6 15  1  1  0  0  0
  6  5  1  0  0  0  0
  7  2  1  0  0  0  0
  9  3  1  0  0  0  0
 16 17  1  0  0  0  0
 17 18  2  0  0  0  0
 17  6  1  0  0  0  0
 18 19  1  0  0  0  0
 20 21  1  0  0  0  0
 20 18  1  0  0  0  0
 21 22  1  0  0  0  0
 23 21  1  0  0  0  0
 24 26  1  0  0  0  0
 24 23  2  0  0  0  0
 25 24  1  0  0  0  0
 26 20  2  0  0  0  0
 27 26  1  0  0  0  0
 27 16  2  0  0  0  0
 28 29  1  0  0  0  0
 29 30  2  0  0  0  0
 29 34  1  0  0  0  0
 30  1  1  0  0  0  0
 31 30  1  0  0  0  0
 32 31  2  0  0  0  0
 33 32  1  0  0  0  0
 33 28  2  0  0  0  0
 35 32  1  0  0  0  0
 36 28  1  0  0  0  0
 36 39  1  0  0  0  0
 37 36  1  0  0  0  0
 38 36  1  0  0  0  0
M  END
>  <minimizedAffinity>
-5.90294981

$$$$

 OpenBabel03252503543D

 39 42  0  0  1  0  0  0  0  0999 V2000
   38.0530   29.5240   41.5610 N   0  0  0  0  0  0  0  0  0  0  0  0
   38.4540   29.5440   42.9720 C   0  0  0  0  0  0  0  0  0  0  0  0
   38.7180   28.1060   43.3630 C   0  0  0  0  0  0  0  0  0  0  0  0
   37.4020   27.3770   43.3890 C   0  0  0  0  0  0  0  0  0  0  0  0
   36.7200   27.5750   42.0720 C   0  0  0  0  0  0  0  0  0  0  0  0
   37.5180   28.3210   41.0570 C   0  0  1  0  0  0  0  0  0  0  0  0
   39.4710   30.0320   42.9530 H   0  0  0  0  0  0  0  0  0  0  0  0
   37.7400   30.0410   43.6220 H   0  0  0  0  0  0  0  0  0  0  0  0
   39.4390   27.6710   42.6460 H   0  0  0  0  0  0  0  0  0  0  0  0
   39.1890   28.0830   44.3480 H   0  0  0  0  0  0  0  0  0  0  0  0
   37.6470   26.2940   43.5860 H   0  0  0  0  0  0  0  0  0  0  0  0
   36.8240   27.8050   44.2560 H   0  0  0  0  0  0  0  0  0  0  0  0
   36.4600   26.5730   41.6510 H   0  0  0  0  0  0  0  0  0  0  0  0
   35.7450   28.0670   42.2730 H   0  0  0  0  0  0  0  0  0  0  0  0
   38.3350   27.6800   40.6730 H   0  0  0  0  0  0  0  0  0  0  0  0
   36.9150   28.2990   38.5770 C   0  0  0  0  0  3  0  0  0  0  0  0
   36.5330   28.4660   39.9170 C   0  0  0  0  0  0  0  0  0  0  0  0
   35.1900   28.8150   40.1470 C   0  0  0  0  0  0  0  0  0  0  0  0
   34.9430   28.9330   41.1940 H   0  0  0  0  0  0  0  0  0  0  0  0
   34.3010   28.9860   39.1190 C   0  0  0  0  0  0  0  0  0  0  0  0
   32.9950   29.3180   39.1940 N   0  0  0  0  0  0  0  0  0  0  0  0
   32.4480   29.5020   40.0760 H   0  0  0  0  0  0  0  0  0  0  0  0
   32.5330   29.3680   37.9410 N   0  0  0  0  0  0  0  0  0  0  0  0
   33.5420   29.0710   37.0880 C   0  0  0  0  0  0  0  0  0  0  0  0
   33.4970   29.0250   36.0050 H   0  0  0  0  0  0  0  0  0  0  0  0
   34.6990   28.8180   37.8270 C   0  0  0  0  0  0  0  0  0  0  0  0
   36.0010   28.4760   37.5620 C   0  0  0  0  0  3  0  0  0  0  0  0
   39.4020   31.9980   39.1740 C   0  0  0  0  0  0  0  0  0  0  0  0
   39.3070   30.8600   39.9760 C   0  0  0  0  0  0  0  0  0  0  0  0
   38.1970   30.6860   40.7810 C   0  0  0  0  0  0  0  0  0  0  0  0
   37.2430   31.6390   40.7620 N   0  0  0  0  0  0  0  0  0  0  0  0
   37.3350   32.7500   39.9850 C   0  0  0  0  0  0  0  0  0  0  0  0
   38.4220   32.9240   39.1890 N   0  0  0  0  0  0  0  0  0  0  0  0
   40.1550   30.2110   39.9270 H   0  0  0  0  0  0  0  0  0  0  0  0
   36.5290   33.4930   40.0110 H   0  0  0  0  0  0  0  0  0  0  0  0
   40.6030   32.1220   38.2850 C   0  0  0  0  0  0  0  0  0  0  0  0
   40.2440   32.2430   36.9470 F   0  0  0  0  0  0  0  0  0  0  0  0
   41.3110   33.2260   38.7140 F   0  0  0  0  0  0  0  0  0  0  0  0
   41.4130   31.0040   38.4390 F   0  0  0  0  0  0  0  0  0  0  0  0
  1  2  1  0  0  0  0
  2  3  1  0  0  0  0
  2  8  1  0  0  0  0
  3  4  1  0  0  0  0
  3 10  1  0  0  0  0
  4 11  1  0  0  0  0
  4 12  1  0  0  0  0
  5 14  1  0  0  0  0
  5  4  1  0  0  0  0
  6 15  1  6  0  0  0
  6  1  1  0  0  0  0
  6  5  1  0  0  0  0
  7  2  1  0  0  0  0
  9  3  1  0  0  0  0
 13  5  1  0  0  0  0
 16 17  1  0  0  0  0
 17 18  2  0  0  0  0
 17  6  1  0  0  0  0
 18 19  1  0  0  0  0
 20 21  1  0  0  0  0
 20 18  1  0  0  0  0
 21 22  1  0  0  0  0
 23 21  1  0  0  0  0
 24 26  1  0  0  0  0
 24 23  2  0  0  0  0
 25 24  1  0  0  0  0
 26 20  2  0  0  0  0
 27 26  1  0  0  0  0
 27 16  2  0  0  0  0
 28 33  2  0  0  0  0
 28 29  1  0  0  0  0
 29 30  2  0  0  0  0
 30  1  1  0  0  0  0
 31 30  1  0  0  0  0
 32 35  1  0  0  0  0
 32 31  2  0  0  0  0
 33 32  1  0  0  0  0
 34 29  1  0  0  0  0
 36 39  1  0  0  0  0
 36 38  1  0  0  0  0
 36 28  1  0  0  0  0
 37 36  1  0  0  0  0
M  END
>  <minimizedAffinity>
-5.8831358

$$$$

 OpenBabel03252503543D

 39 42  0  0  1  0  0  0  0  0999 V2000
   38.6030   28.5790   41.1950 N   0  0  0  0  0  0  0  0  0  0  0  0
   39.3470   28.5360   42.4580 C   0  0  0  0  0  0  0  0  0  0  0  0
   39.2160   27.1240   42.9850 C   0  0  0  0  0  0  0  0  0  0  0  0
   37.7910   26.9130   43.4170 C   0  0  0  0  0  0  0  0  0  0  0  0
   36.8880   27.2650   42.2760 C   0  0  0  0  0  0  0  0  0  0  0  0
   37.5880   27.6190   41.0080 C   0  0  1  0  0  0  0  0  0  0  0  0
   40.4240   28.6280   42.1370 H   0  0  0  0  0  0  0  0  0  0  0  0
   39.0360   29.2910   43.1740 H   0  0  0  0  0  0  0  0  0  0  0  0
   39.5360   26.4200   42.1930 H   0  0  0  0  0  0  0  0  0  0  0  0
   39.8970   26.9910   43.8290 H   0  0  0  0  0  0  0  0  0  0  0  0
   37.7080   25.8270   43.7090 H   0  0  0  0  0  0  0  0  0  0  0  0
   37.6370   27.5680   44.3210 H   0  0  0  0  0  0  0  0  0  0  0  0
   36.2110   26.3990   42.0770 H   0  0  0  0  0  0  0  0  0  0  0  0
   36.2200   28.0830   42.6200 H   0  0  0  0  0  0  0  0  0  0  0  0
   38.0150   26.7080   40.5450 H   0  0  0  0  0  0  0  0  0  0  0  0
   35.4370   28.9160   40.5530 C   0  0  0  0  0  3  0  0  0  0  0  0
   36.4410   28.0390   40.1140 C   0  0  0  0  0  0  0  0  0  0  0  0
   36.3060   27.5360   38.8080 C   0  0  0  0  0  0  0  0  0  0  0  0
   37.1040   26.8650   38.5150 H   0  0  0  0  0  0  0  0  0  0  0  0
   35.2510   27.8800   38.0050 C   0  0  0  0  0  0  0  0  0  0  0  0
   34.9990   27.4760   36.7420 N   0  0  0  0  0  0  0  0  0  0  0  0
   35.5880   26.8170   36.1690 H   0  0  0  0  0  0  0  0  0  0  0  0
   33.8620   28.0680   36.3630 N   0  0  0  0  0  0  0  0  0  0  0  0
   33.4070   28.8380   37.3810 C   0  0  0  0  0  0  0  0  0  0  0  0
   32.5100   29.4480   37.3940 H   0  0  0  0  0  0  0  0  0  0  0  0
   34.2900   28.7330   38.4570 C   0  0  0  0  0  0  0  0  0  0  0  0
   34.3870   29.2460   39.7260 C   0  0  0  0  0  3  0  0  0  0  0  0
   38.9920   31.8630   39.5490 C   0  0  0  0  0  0  0  0  0  0  0  0
   38.6300   30.8970   40.4900 C   0  0  0  0  0  0  0  0  0  0  0  0
   38.9100   29.5670   40.2410 C   0  0  0  0  0  0  0  0  0  0  0  0
   39.5240   29.2530   39.0810 N   0  0  0  0  0  0  0  0  0  0  0  0
   39.8730   30.1910   38.1620 C   0  0  0  0  0  0  0  0  0  0  0  0
   39.6040   31.5010   38.4040 N   0  0  0  0  0  0  0  0  0  0  0  0
   38.1100   31.2800   41.3410 H   0  0  0  0  0  0  0  0  0  0  0  0
   40.3690   29.8780   37.2360 H   0  0  0  0  0  0  0  0  0  0  0  0
   38.7070   33.2970   39.8830 C   0  0  0  0  0  0  0  0  0  0  0  0
   39.6670   34.1510   39.3500 F   0  0  0  0  0  0  0  0  0  0  0  0
   37.4520   33.5850   39.3880 F   0  0  0  0  0  0  0  0  0  0  0  0
   38.6730   33.4550   41.2620 F   0  0  0  0  0  0  0  0  0  0  0  0
  1  2  1  0  0  0  0
  2  3  1  0  0  0  0
  2  8  1  0  0  0  0
  3  4  1  0  0  0  0
  3 10  1  0  0  0  0
  4 11  1  0  0  0  0
  4 12  1  0  0  0  0
  5 14  1  0  0  0  0
  5  4  1  0  0  0  0
  6 15  1  6  0  0  0
  6  1  1  0  0  0  0
  6  5  1  0  0  0  0
  7  2  1  0  0  0  0
  9  3  1  0  0  0  0
 13  5  1  0  0  0  0
 17 16  1  0  0  0  0
 17  6  1  0  0  0  0
 18 17  2  0  0  0  0
 19 18  1  0  0  0  0
 20 26  2  0  0  0  0
 20 18  1  0  0  0  0
 21 20  1  0  0  0  0
 22 21  1  0  0  0  0
 23 21  1  0  0  0  0
 23 24  2  0  0  0  0
 24 25  1  0  0  0  0
 24 26  1  0  0  0  0
 26 27  1  0  0  0  0
 27 16  2  0  0  0  0
 28 36  1  0  0  0  0
 28 29  1  0  0  0  0
 29 34  1  0  0  0  0
 30 29  2  0  0  0  0
 30  1  1  0  0  0  0
 31 30  1  0  0  0  0
 32 33  1  0  0  0  0
 32 31  2  0  0  0  0
 33 28  2  0  0  0  0
 35 32  1  0  0  0  0
 36 39  1  0  0  0  0
 37 36  1  0  0  0  0
 38 36  1  0  0  0  0
M  END
>  <minimizedAffinity>
-5.86885452

$$$$

 OpenBabel03252503543D

 39 42  0  0  1  0  0  0  0  0999 V2000
   37.2820   27.5840   40.9280 N   0  0  0  0  0  0  0  0  0  0  0  0
   37.4140   26.1770   41.3230 C   0  0  0  0  0  0  0  0  0  0  0  0
   37.3420   26.1480   42.8340 C   0  0  0  0  0  0  0  0  0  0  0  0
   38.5940   26.7790   43.3780 C   0  0  0  0  0  0  0  0  0  0  0  0
   38.7530   28.1340   42.7640 C   0  0  0  0  0  0  0  0  0  0  0  0
   37.6270   28.5610   41.8840 C   0  0  1  0  0  0  0  0  0  0  0  0
   36.4490   25.7110   40.9760 H   0  0  0  0  0  0  0  0  0  0  0  0
   38.3030   25.6950   40.9280 H   0  0  0  0  0  0  0  0  0  0  0  0
   36.4200   26.6710   43.1540 H   0  0  0  0  0  0  0  0  0  0  0  0
   37.2560   25.1120   43.1690 H   0  0  0  0  0  0  0  0  0  0  0  0
   38.4600   26.8290   44.4970 H   0  0  0  0  0  0  0  0  0  0  0  0
   39.4360   26.0750   43.1220 H   0  0  0  0  0  0  0  0  0  0  0  0
   38.8670   28.8860   43.5830 H   0  0  0  0  0  0  0  0  0  0  0  0
   39.7240   28.1440   42.2250 H   0  0  0  0  0  0  0  0  0  0  0  0
   36.7410   28.8120   42.4990 H   0  0  0  0  0  0  0  0  0  0  0  0
   39.5000   30.1240   41.1320 C   0  0  0  0  0  3  0  0  0  0  0  0
   38.1330   29.8750   41.3290 C   0  0  0  0  0  0  0  0  0  0  0  0
   37.2530   30.9290   41.0220 C   0  0  0  0  0  0  0  0  0  0  0  0
   36.2110   30.6900   41.1900 H   0  0  0  0  0  0  0  0  0  0  0  0
   37.7050   32.1350   40.5560 C   0  0  0  0  0  0  0  0  0  0  0  0
   36.9790   33.2240   40.2240 N   0  0  0  0  0  0  0  0  0  0  0  0
   35.9300   33.3130   40.2750 H   0  0  0  0  0  0  0  0  0  0  0  0
   37.8440   34.1600   39.8210 N   0  0  0  0  0  0  0  0  0  0  0  0
   39.1010   33.6620   39.9010 C   0  0  0  0  0  0  0  0  0  0  0  0
   40.0270   34.1670   39.6470 H   0  0  0  0  0  0  0  0  0  0  0  0
   39.0380   32.3490   40.3740 C   0  0  0  0  0  0  0  0  0  0  0  0
   39.9270   31.3460   40.6620 C   0  0  0  0  0  3  0  0  0  0  0  0
   37.2090   28.0400   37.2630 C   0  0  0  0  0  0  0  0  0  0  0  0
   37.6870   27.7670   38.5470 C   0  0  0  0  0  0  0  0  0  0  0  0
   36.8410   27.9020   39.6310 C   0  0  0  0  0  0  0  0  0  0  0  0
   35.5730   28.3040   39.4010 N   0  0  0  0  0  0  0  0  0  0  0  0
   35.1070   28.5740   38.1530 C   0  0  0  0  0  0  0  0  0  0  0  0
   35.9340   28.4390   37.0840 N   0  0  0  0  0  0  0  0  0  0  0  0
   38.7220   27.5030   38.5870 H   0  0  0  0  0  0  0  0  0  0  0  0
   34.0680   28.8980   38.0270 H   0  0  0  0  0  0  0  0  0  0  0  0
   38.1510   27.8370   36.1150 C   0  0  0  0  0  0  0  0  0  0  0  0
   38.3460   26.4880   35.8400 F   0  0  0  0  0  0  0  0  0  0  0  0
   37.6120   28.4960   35.0290 F   0  0  0  0  0  0  0  0  0  0  0  0
   39.3760   28.4220   36.4090 F   0  0  0  0  0  0  0  0  0  0  0  0
  1  2  1  0  0  0  0
  1  6  1  0  0  0  0
  2  3  1  0  0  0  0
  3  9  1  0  0  0  0
  3 10  1  0  0  0  0
  3  4  1  0  0  0  0
  4 11  1  0  0  0  0
  5  4  1  0  0  0  0
  5 13  1  0  0  0  0
  6 15  1  1  0  0  0
  6  5  1  0  0  0  0
  7  2  1  0  0  0  0
  8  2  1  0  0  0  0
 12  4  1  0  0  0  0
 14  5  1  0  0  0  0
 16 17  1  0  0  0  0
 17  6  1  0  0  0  0
 18 19  1  0  0  0  0
 18 17  2  0  0  0  0
 20 18  1  0  0  0  0
 21 22  1  0  0  0  0
 21 20  1  0  0  0  0
 23 24  2  0  0  0  0
 23 21  1  0  0  0  0
 24 26  1  0  0  0  0
 25 24  1  0  0  0  0
 26 20  2  0  0  0  0
 26 27  1  0  0  0  0
 27 16  2  0  0  0  0
 28 29  1  0  0  0  0
 29 34  1  0  0  0  0
 29 30  2  0  0  0  0
 30  1  1  0  0  0  0
 31 30  1  0  0  0  0
 32 31  2  0  0  0  0
 33 28  2  0  0  0  0
 33 32  1  0  0  0  0
 35 32  1  0  0  0  0
 36 39  1  0  0  0  0
 36 28  1  0  0  0  0
 37 36  1  0  0  0  0
 38 36  1  0  0  0  0
M  END
>  <minimizedAffinity>
-5.86164856

$$$$

 OpenBabel03252503543D

 39 42  0  0  1  0  0  0  0  0999 V2000
   36.4440   27.6730   38.3900 N   0  0  0  0  0  0  0  0  0  0  0  0
   35.4760   26.6220   38.0550 C   0  0  0  0  0  0  0  0  0  0  0  0
   34.7660   27.0780   36.7990 C   0  0  0  0  0  0  0  0  0  0  0  0
   33.8940   28.2520   37.1500 C   0  0  0  0  0  0  0  0  0  0  0  0
   34.7360   29.2860   37.8300 C   0  0  0  0  0  0  0  0  0  0  0  0
   36.1910   28.9680   37.8960 C   0  0  1  0  0  0  0  0  0  0  0  0
   36.1220   25.7580   37.7270 H   0  0  0  0  0  0  0  0  0  0  0  0
   34.7960   26.3800   38.8670 H   0  0  0  0  0  0  0  0  0  0  0  0
   35.5270   27.3180   36.0310 H   0  0  0  0  0  0  0  0  0  0  0  0
   34.1640   26.2550   36.4080 H   0  0  0  0  0  0  0  0  0  0  0  0
   33.4620   28.6240   36.1780 H   0  0  0  0  0  0  0  0  0  0  0  0
   33.0740   27.8470   37.8070 H   0  0  0  0  0  0  0  0  0  0  0  0
   34.6100   30.2580   37.2930 H   0  0  0  0  0  0  0  0  0  0  0  0
   34.3050   29.4550   38.8390 H   0  0  0  0  0  0  0  0  0  0  0  0
   36.6480   29.0820   36.8930 H   0  0  0  0  0  0  0  0  0  0  0  0
   36.1650   30.4630   39.9640 C   0  0  0  0  0  3  0  0  0  0  0  0
   36.7320   30.1080   38.7310 C   0  0  0  0  0  0  0  0  0  0  0  0
   37.8100   30.8950   38.2870 C   0  0  0  0  0  0  0  0  0  0  0  0
   38.2140   30.5840   37.3320 H   0  0  0  0  0  0  0  0  0  0  0  0
   38.2820   31.9530   39.0180 C   0  0  0  0  0  0  0  0  0  0  0  0
   39.3010   32.7860   38.7160 N   0  0  0  0  0  0  0  0  0  0  0  0
   39.9000   32.7490   37.8500 H   0  0  0  0  0  0  0  0  0  0  0  0
   39.3990   33.6620   39.7200 N   0  0  0  0  0  0  0  0  0  0  0  0
   38.4490   33.3800   40.6440 C   0  0  0  0  0  0  0  0  0  0  0  0
   38.2630   33.9020   41.5770 H   0  0  0  0  0  0  0  0  0  0  0  0
   37.7120   32.2760   40.2130 C   0  0  0  0  0  0  0  0  0  0  0  0
   36.6590   31.5310   40.6800 C   0  0  0  0  0  3  0  0  0  0  0  0
   38.5160   26.6820   41.2820 C   0  0  0  0  0  0  0  0  0  0  0  0
   37.3990   27.0380   40.5230 C   0  0  0  0  0  0  0  0  0  0  0  0
   37.5580   27.3600   39.1890 C   0  0  0  0  0  0  0  0  0  0  0  0
   38.8040   27.3220   38.6710 N   0  0  0  0  0  0  0  0  0  0  0  0
   39.8920   26.9790   39.4080 C   0  0  0  0  0  0  0  0  0  0  0  0
   39.7410   26.6580   40.7190 N   0  0  0  0  0  0  0  0  0  0  0  0
   36.4830   27.0710   41.0720 H   0  0  0  0  0  0  0  0  0  0  0  0
   40.8810   26.9670   38.9340 H   0  0  0  0  0  0  0  0  0  0  0  0
   38.2880   26.2980   42.7140 C   0  0  0  0  0  0  0  0  0  0  0  0
   38.9190   27.1760   43.5890 F   0  0  0  0  0  0  0  0  0  0  0  0
   36.9230   26.2860   42.9160 F   0  0  0  0  0  0  0  0  0  0  0  0
   38.7680   25.0140   42.9340 F   0  0  0  0  0  0  0  0  0  0  0  0
  1 30  1  0  0  0  0
  2  1  1  0  0  0  0
  2  8  1  0  0  0  0
  3  4  1  0  0  0  0
  3  2  1  0  0  0  0
  4 12  1  0  0  0  0
  4  5  1  0  0  0  0
  5  6  1  0  0  0  0
  5 14  1  0  0  0  0
  6 15  1  6  0  0  0
  6  1  1  0  0  0  0
  6 17  1  0  0  0  0
  7  2  1  0  0  0  0
  9  3  1  0  0  0  0
 10  3  1  0  0  0  0
 11  4  1  0  0  0  0
 13  5  1  0  0  0  0
 16 27  1  0  0  0  0
 17 16  2  0  0  0  0
 18 17  1  0  0  0  0
 18 20  2  0  0  0  0
 19 18  1  0  0  0  0
 20 26  1  0  0  0  0
 21 20  1  0  0  0  0
 21 23  1  0  0  0  0
 22 21  1  0  0  0  0
 23 24  2  0  0  0  0
 24 25  1  0  0  0  0
 26 24  1  0  0  0  0
 26 27  2  0  0  0  0
 28 36  1  0  0  0  0
 29 34  1  0  0  0  0
 29 28  2  0  0  0  0
 30 29  1  0  0  0  0
 31 30  2  0  0  0  0
 31 32  1  0  0  0  0
 32 33  2  0  0  0  0
 33 28  1  0  0  0  0
 35 32  1  0  0  0  0
 36 38  1  0  0  0  0
 36 39  1  0  0  0  0
 36 37  1  0  0  0  0
M  END
>  <minimizedAffinity>
-5.80887365

$$$$

 OpenBabel03252503543D

 39 42  0  0  1  0  0  0  0  0999 V2000
   36.6770   27.9150   38.0010 N   0  0  0  0  0  0  0  0  0  0  0  0
   35.5040   27.0850   37.7000 C   0  0  0  0  0  0  0  0  0  0  0  0
   35.1860   27.3060   36.2380 C   0  0  0  0  0  0  0  0  0  0  0  0
   34.6680   28.7080   36.0750 C   0  0  0  0  0  0  0  0  0  0  0  0
   35.6590   29.6570   36.6730 C   0  0  0  0  0  0  0  0  0  0  0  0
   36.9160   29.0240   37.1660 C   0  0  1  0  0  0  0  0  0  0  0  0
   35.9010   26.0310   37.7560 H   0  0  0  0  0  0  0  0  0  0  0  0
   34.6580   27.2710   38.3550 H   0  0  0  0  0  0  0  0  0  0  0  0
   36.1000   27.1110   35.6440 H   0  0  0  0  0  0  0  0  0  0  0  0
   34.4360   26.5790   35.9200 H   0  0  0  0  0  0  0  0  0  0  0  0
   34.5370   28.8690   34.9670 H   0  0  0  0  0  0  0  0  0  0  0  0
   33.6660   28.7340   36.5900 H   0  0  0  0  0  0  0  0  0  0  0  0
   35.9260   30.4240   35.9060 H   0  0  0  0  0  0  0  0  0  0  0  0
   35.1390   30.2200   37.4770 H   0  0  0  0  0  0  0  0  0  0  0  0
   37.5460   28.7180   36.3080 H   0  0  0  0  0  0  0  0  0  0  0  0
   39.0250   30.3460   37.7330 C   0  0  0  0  0  3  0  0  0  0  0  0
   37.6320   30.1910   37.8110 C   0  0  0  0  0  0  0  0  0  0  0  0
   36.9360   31.1570   38.5580 C   0  0  0  0  0  0  0  0  0  0  0  0
   35.8660   30.9960   38.5900 H   0  0  0  0  0  0  0  0  0  0  0  0
   37.5800   32.1950   39.1780 C   0  0  0  0  0  0  0  0  0  0  0  0
   37.0410   33.1860   39.9200 N   0  0  0  0  0  0  0  0  0  0  0  0
   36.0180   33.3130   40.1410 H   0  0  0  0  0  0  0  0  0  0  0  0
   38.0490   33.9680   40.3170 N   0  0  0  0  0  0  0  0  0  0  0  0
   39.2100   33.4710   39.8280 C   0  0  0  0  0  0  0  0  0  0  0  0
   40.2090   33.8720   39.9670 H   0  0  0  0  0  0  0  0  0  0  0  0
   38.9330   32.3220   39.0850 C   0  0  0  0  0  0  0  0  0  0  0  0
   39.6480   31.3990   38.3640 C   0  0  0  0  0  3  0  0  0  0  0  0
   37.9250   27.5630   41.4590 C   0  0  0  0  0  0  0  0  0  0  0  0
   37.1220   27.9420   40.3820 C   0  0  0  0  0  0  0  0  0  0  0  0
   37.4940   27.5890   39.0990 C   0  0  0  0  0  0  0  0  0  0  0  0
   38.6360   26.8890   38.9390 N   0  0  0  0  0  0  0  0  0  0  0  0
   39.4210   26.5220   39.9850 C   0  0  0  0  0  0  0  0  0  0  0  0
   39.0580   26.8630   41.2490 N   0  0  0  0  0  0  0  0  0  0  0  0
   36.2720   28.5320   40.6490 H   0  0  0  0  0  0  0  0  0  0  0  0
   40.3390   25.9540   39.7950 H   0  0  0  0  0  0  0  0  0  0  0  0
   37.4580   27.9310   42.8360 C   0  0  0  0  0  0  0  0  0  0  0  0
   36.3940   27.1360   43.2490 F   0  0  0  0  0  0  0  0  0  0  0  0
   38.5410   27.7940   43.6800 F   0  0  0  0  0  0  0  0  0  0  0  0
   37.0630   29.2620   42.8530 F   0  0  0  0  0  0  0  0  0  0  0  0
  1 30  1  0  0  0  0
  2  7  1  0  0  0  0
  2  1  1  0  0  0  0
  2  8  1  0  0  0  0
  3  2  1  0  0  0  0
  4  3  1  0  0  0  0
  4 12  1  0  0  0  0
  4  5  1  0  0  0  0
  5  6  1  0  0  0  0
  5 14  1  0  0  0  0
  6 15  1  6  0  0  0
  6 17  1  0  0  0  0
  6  1  1  0  0  0  0
  9  3  1  0  0  0  0
 10  3  1  0  0  0  0
 11  4  1  0  0  0  0
 13  5  1  0  0  0  0
 16 17  2  0  0  0  0
 16 27  1  0  0  0  0
 17 18  1  0  0  0  0
 18 19  1  0  0  0  0
 18 20  2  0  0  0  0
 20 21  1  0  0  0  0
 21 22  1  0  0  0  0
 21 23  1  0  0  0  0
 24 25  1  0  0  0  0
 24 23  2  0  0  0  0
 26 20  1  0  0  0  0
 26 24  1  0  0  0  0
 27 26  2  0  0  0  0
 28 36  1  0  0  0  0
 29 34  1  0  0  0  0
 29 28  2  0  0  0  0
 30 29  1  0  0  0  0
 31 30  2  0  0  0  0
 31 32  1  0  0  0  0
 32 33  2  0  0  0  0
 33 28  1  0  0  0  0
 35 32  1  0  0  0  0
 36 39  1  0  0  0  0
 36 37  1  0  0  0  0
 36 38  1  0  0  0  0
M  END
>  <minimizedAffinity>
-5.79339027

$$$$
