
 OpenBabel03252501433D

 48 52  0  0  0  0  0  0  0  0999 V2000
   37.6060   31.9030   40.4950 C   0  0  0  0  0  0  0  0  0  0  0  0
   37.5210   32.6550   39.4540 O   0  0  0  0  0  0  0  0  0  0  0  0
   38.8740   32.0070   41.1460 N   0  0  0  0  0  0  0  0  0  0  0  0
   39.1210   31.5150   41.9980 H   0  0  0  0  0  0  0  0  0  0  0  0
   39.7120   32.9160   40.3900 C   0  0  0  0  0  0  0  0  0  0  0  0
   39.7240   34.2730   40.4830 C   0  0  0  0  0  0  0  0  0  0  0  0
   40.5910   34.9670   39.6820 C   0  0  0  0  0  0  0  0  0  0  0  0
   41.3780   34.2580   38.8510 N   0  0  0  0  0  0  0  0  0  0  0  0
   41.3550   32.9070   38.7680 C   0  0  0  0  0  0  0  0  0  0  0  0
   40.5030   32.2140   39.5560 N   0  0  0  0  0  0  0  0  0  0  0  0
   40.6090   36.0360   39.7460 H   0  0  0  0  0  0  0  0  0  0  0  0
   41.7820   31.0370   37.2450 C   0  0  0  0  0  3  0  0  0  0  0  0
   42.2490   32.1950   37.8330 C   0  0  0  0  0  0  0  0  0  0  0  0
   43.5120   32.6700   37.5530 C   0  0  0  0  0  0  0  0  0  0  0  0
   43.8890   33.5760   38.0080 H   0  0  0  0  0  0  0  0  0  0  0  0
   44.2820   31.9440   36.6670 C   0  0  0  0  0  0  0  0  0  0  0  0
   45.5310   32.0930   36.1650 N   0  0  0  0  0  0  0  0  0  0  0  0
   46.1730   32.8600   36.3930 H   0  0  0  0  0  0  0  0  0  0  0  0
   45.8190   31.0930   35.3220 N   0  0  0  0  0  0  0  0  0  0  0  0
   44.7810   30.2570   35.2380 C   0  0  0  0  0  0  0  0  0  0  0  0
   44.6490   29.3420   34.6590 H   0  0  0  0  0  0  0  0  0  0  0  0
   43.8020   30.7810   36.0830 C   0  0  0  0  0  0  0  0  0  0  0  0
   42.5300   30.3000   36.3630 C   0  0  0  0  0  3  0  0  0  0  0  0
   38.8290   34.8610   41.4120 N   0  0  0  0  0  0  0  0  0  0  0  0
   37.7860   34.7960   41.2550 H   0  0  0  0  0  0  0  0  0  0  0  0
   39.2500   35.3480   42.2420 H   0  0  0  0  0  0  0  0  0  0  0  0
   36.6230   31.0510   41.0090 O   0  0  0  0  0  0  0  0  0  0  0  0
   38.0570   28.8270   42.3650 Cl  0  0  0  0  0  0  0  0  0  0  0  0
   37.0660   28.7120   40.9260 C   0  0  0  0  0  0  0  0  0  0  0  0
   36.4310   29.8160   40.3620 C   0  0  0  0  0  0  0  0  0  0  0  0
   35.6660   29.6770   39.2380 C   0  0  0  0  0  0  0  0  0  0  0  0
   35.4790   28.4640   38.6040 C   0  0  0  0  0  0  0  0  0  0  0  0
   36.1140   27.3290   39.1580 C   0  0  0  0  0  0  0  0  0  0  0  0
   35.9300   25.7510   38.4180 Cl  0  0  0  0  0  0  0  0  0  0  0  0
   36.8770   27.5130   40.2950 C   0  0  0  0  0  0  0  0  0  0  0  0
   35.1910   30.5610   38.8350 H   0  0  0  0  0  0  0  0  0  0  0  0
   34.8710   28.3530   37.7110 H   0  0  0  0  0  0  0  0  0  0  0  0
   39.4070   26.8630   39.5330 F   0  0  0  0  0  0  0  0  0  0  0  0
   38.8160   26.0430   40.4690 C   0  0  0  0  0  0  0  0  0  0  0  0
   37.5360   26.3470   40.8750 C   0  0  0  0  0  0  0  0  0  0  0  0
   36.9680   25.4910   41.8280 C   0  0  0  0  0  0  0  0  0  0  0  0
   37.7040   24.4160   42.2970 C   0  0  0  0  0  0  0  0  0  0  0  0
   38.9990   24.1660   41.8420 C   0  0  0  0  0  0  0  0  0  0  0  0
   39.5960   24.9960   40.8950 C   0  0  0  0  0  0  0  0  0  0  0  0
   35.9620   25.7280   42.1460 H   0  0  0  0  0  0  0  0  0  0  0  0
   37.2330   23.7770   43.0320 H   0  0  0  0  0  0  0  0  0  0  0  0
   39.5570   23.3200   42.2230 H   0  0  0  0  0  0  0  0  0  0  0  0
   40.5960   24.8370   40.5190 H   0  0  0  0  0  0  0  0  0  0  0  0
  1 27  1  0  0  0  0
  1  3  1  0  0  0  0
  2  1  2  0  0  0  0
  3  4  1  0  0  0  0
  5  6  1  0  0  0  0
  5  3  1  0  0  0  0
  6 24  1  0  0  0  0
  7 11  1  0  0  0  0
  7  6  2  0  0  0  0
  8  7  1  0  0  0  0
  9  8  2  0  0  0  0
  9 10  1  0  0  0  0
 10  5  2  0  0  0  0
 12 13  1  0  0  0  0
 13  9  1  0  0  0  0
 14 13  2  0  0  0  0
 14 15  1  0  0  0  0
 16 14  1  0  0  0  0
 17 18  1  0  0  0  0
 17 16  1  0  0  0  0
 19 17  1  0  0  0  0
 20 19  2  0  0  0  0
 20 22  1  0  0  0  0
 21 20  1  0  0  0  0
 22 23  1  0  0  0  0
 22 16  2  0  0  0  0
 23 12  2  0  0  0  0
 24 26  1  0  0  0  0
 25 24  1  0  0  0  0
 29 28  1  0  0  0  0
 30 29  1  0  0  0  0
 30 27  1  0  0  0  0
 31 30  2  0  0  0  0
 32 33  2  0  0  0  0
 32 31  1  0  0  0  0
 33 35  1  0  0  0  0
 34 33  1  0  0  0  0
 35 40  1  0  0  0  0
 35 29  2  0  0  0  0
 36 31  1  0  0  0  0
 37 32  1  0  0  0  0
 38 39  1  0  0  0  0
 39 40  2  0  0  0  0
 39 44  1  0  0  0  0
 40 41  1  0  0  0  0
 41 45  1  0  0  0  0
 41 42  2  0  0  0  0
 42 46  1  0  0  0  0
 43 47  1  0  0  0  0
 43 42  1  0  0  0  0
 44 43  2  0  0  0  0
 48 44  1  0  0  0  0
M  END
>  <minimizedAffinity>
-7.83273411

$$$$

 OpenBabel03252501433D

 48 52  0  0  0  0  0  0  0  0999 V2000
   38.4070   31.5890   40.9400 C   0  0  0  0  0  0  0  0  0  0  0  0
   38.1560   32.1280   39.7980 O   0  0  0  0  0  0  0  0  0  0  0  0
   39.5780   32.1300   41.5560 N   0  0  0  0  0  0  0  0  0  0  0  0
   39.9210   31.8540   42.4700 H   0  0  0  0  0  0  0  0  0  0  0  0
   40.1620   33.1110   40.6640 C   0  0  0  0  0  0  0  0  0  0  0  0
   39.8270   34.4270   40.5790 C   0  0  0  0  0  0  0  0  0  0  0  0
   40.4950   35.2050   39.6700 C   0  0  0  0  0  0  0  0  0  0  0  0
   41.4420   34.6140   38.9180 N   0  0  0  0  0  0  0  0  0  0  0  0
   41.7650   33.3030   39.0140 C   0  0  0  0  0  0  0  0  0  0  0  0
   41.1120   32.5280   39.9090 N   0  0  0  0  0  0  0  0  0  0  0  0
   40.2390   36.2420   39.5940 H   0  0  0  0  0  0  0  0  0  0  0  0
   44.0990   33.2210   38.2740 C   0  0  0  0  0  3  0  0  0  0  0  0
   42.8180   32.7220   38.1570 C   0  0  0  0  0  0  0  0  0  0  0  0
   42.5320   31.7090   37.2660 C   0  0  0  0  0  0  0  0  0  0  0  0
   41.5320   31.3100   37.1650 H   0  0  0  0  0  0  0  0  0  0  0  0
   43.5740   31.2220   36.5030 C   0  0  0  0  0  0  0  0  0  0  0  0
   43.6750   30.2630   35.5530 N   0  0  0  0  0  0  0  0  0  0  0  0
   42.9010   29.6820   35.2130 H   0  0  0  0  0  0  0  0  0  0  0  0
   44.9360   30.1740   35.1100 N   0  0  0  0  0  0  0  0  0  0  0  0
   45.7040   31.0620   35.7450 C   0  0  0  0  0  0  0  0  0  0  0  0
   46.7690   31.2800   35.6510 H   0  0  0  0  0  0  0  0  0  0  0  0
   44.8580   31.7320   36.6290 C   0  0  0  0  0  0  0  0  0  0  0  0
   45.1480   32.7520   37.5260 C   0  0  0  0  0  3  0  0  0  0  0  0
   38.8050   34.8870   41.4470 N   0  0  0  0  0  0  0  0  0  0  0  0
   37.8140   34.5400   41.3280 H   0  0  0  0  0  0  0  0  0  0  0  0
   39.0820   35.5720   42.1940 H   0  0  0  0  0  0  0  0  0  0  0  0
   37.6760   30.5860   41.5840 O   0  0  0  0  0  0  0  0  0  0  0  0
   36.5160   28.2950   40.0860 Cl  0  0  0  0  0  0  0  0  0  0  0  0
   37.8640   28.2420   41.2030 C   0  0  0  0  0  0  0  0  0  0  0  0
   38.3380   29.3760   41.8600 C   0  0  0  0  0  0  0  0  0  0  0  0
   39.3940   29.2850   42.7240 C   0  0  0  0  0  0  0  0  0  0  0  0
   40.0410   28.0950   42.9940 C   0  0  0  0  0  0  0  0  0  0  0  0
   39.5770   26.9320   42.3390 C   0  0  0  0  0  0  0  0  0  0  0  0
   40.3420   25.3800   42.6230 Cl  0  0  0  0  0  0  0  0  0  0  0  0
   38.5090   27.0670   41.4740 C   0  0  0  0  0  0  0  0  0  0  0  0
   39.7280   30.1910   43.2110 H   0  0  0  0  0  0  0  0  0  0  0  0
   40.8810   28.0240   43.6790 H   0  0  0  0  0  0  0  0  0  0  0  0
   36.5980   25.5190   42.6390 F   0  0  0  0  0  0  0  0  0  0  0  0
   37.0560   25.1080   41.4070 C   0  0  0  0  0  0  0  0  0  0  0  0
   38.0230   25.8710   40.7920 C   0  0  0  0  0  0  0  0  0  0  0  0
   38.4650   25.4220   39.5400 C   0  0  0  0  0  0  0  0  0  0  0  0
   37.9200   24.2670   39.0040 C   0  0  0  0  0  0  0  0  0  0  0  0
   36.9410   23.5400   39.6830 C   0  0  0  0  0  0  0  0  0  0  0  0
   36.4780   23.9580   40.9290 C   0  0  0  0  0  0  0  0  0  0  0  0
   39.2250   26.0200   39.0570 H   0  0  0  0  0  0  0  0  0  0  0  0
   38.2860   23.9500   38.0360 H   0  0  0  0  0  0  0  0  0  0  0  0
   36.5280   22.6410   39.2440 H   0  0  0  0  0  0  0  0  0  0  0  0
   35.7210   23.4240   41.4850 H   0  0  0  0  0  0  0  0  0  0  0  0
  1  3  1  0  0  0  0
  1 27  1  0  0  0  0
  2  1  2  0  0  0  0
  3  4  1  0  0  0  0
  5  3  1  0  0  0  0
  6  5  1  0  0  0  0
  6 24  1  0  0  0  0
  7  6  2  0  0  0  0
  8  9  2  0  0  0  0
  8  7  1  0  0  0  0
  9 10  1  0  0  0  0
 10  5  2  0  0  0  0
 11  7  1  0  0  0  0
 13 12  1  0  0  0  0
 13  9  1  0  0  0  0
 14 13  2  0  0  0  0
 15 14  1  0  0  0  0
 16 22  2  0  0  0  0
 16 14  1  0  0  0  0
 17 16  1  0  0  0  0
 18 17  1  0  0  0  0
 19 17  1  0  0  0  0
 19 20  2  0  0  0  0
 20 22  1  0  0  0  0
 21 20  1  0  0  0  0
 22 23  1  0  0  0  0
 23 12  2  0  0  0  0
 24 26  1  0  0  0  0
 25 24  1  0  0  0  0
 27 30  1  0  0  0  0
 28 29  1  0  0  0  0
 29 35  2  0  0  0  0
 29 30  1  0  0  0  0
 30 31  2  0  0  0  0
 31 32  1  0  0  0  0
 31 36  1  0  0  0  0
 32 37  1  0  0  0  0
 33 34  1  0  0  0  0
 33 32  2  0  0  0  0
 35 33  1  0  0  0  0
 39 38  1  0  0  0  0
 40 39  2  0  0  0  0
 40 35  1  0  0  0  0
 41 40  1  0  0  0  0
 42 41  2  0  0  0  0
 42 43  1  0  0  0  0
 43 44  2  0  0  0  0
 44 39  1  0  0  0  0
 44 48  1  0  0  0  0
 45 41  1  0  0  0  0
 46 42  1  0  0  0  0
 47 43  1  0  0  0  0
M  END
>  <minimizedAffinity>
-7.61738348

$$$$

 OpenBabel03252501433D

 48 52  0  0  0  0  0  0  0  0999 V2000
   38.2210   32.1430   40.2210 C   0  0  0  0  0  0  0  0  0  0  0  0
   38.3680   33.4180   40.1180 O   0  0  0  0  0  0  0  0  0  0  0  0
   39.4030   31.4240   39.8640 N   0  0  0  0  0  0  0  0  0  0  0  0
   39.4920   30.4140   39.9090 H   0  0  0  0  0  0  0  0  0  0  0  0
   40.4150   32.3710   39.4420 C   0  0  0  0  0  0  0  0  0  0  0  0
   40.6340   32.8080   38.1720 C   0  0  0  0  0  0  0  0  0  0  0  0
   41.6440   33.7100   37.9670 C   0  0  0  0  0  0  0  0  0  0  0  0
   42.3570   34.1070   39.0380 N   0  0  0  0  0  0  0  0  0  0  0  0
   42.1270   33.6620   40.2960 C   0  0  0  0  0  0  0  0  0  0  0  0
   41.1320   32.7720   40.5080 N   0  0  0  0  0  0  0  0  0  0  0  0
   41.8270   34.0620   36.9720 H   0  0  0  0  0  0  0  0  0  0  0  0
   42.9160   35.4880   41.7260 C   0  0  0  0  0  3  0  0  0  0  0  0
   42.9490   34.1410   41.4260 C   0  0  0  0  0  0  0  0  0  0  0  0
   43.7250   33.2720   42.1620 C   0  0  0  0  0  0  0  0  0  0  0  0
   43.7590   32.2140   41.9360 H   0  0  0  0  0  0  0  0  0  0  0  0
   44.4620   33.8020   43.2010 C   0  0  0  0  0  0  0  0  0  0  0  0
   45.3120   33.2770   44.1140 N   0  0  0  0  0  0  0  0  0  0  0  0
   45.5710   32.2860   44.1810 H   0  0  0  0  0  0  0  0  0  0  0  0
   45.7770   34.2350   44.9260 N   0  0  0  0  0  0  0  0  0  0  0  0
   45.2550   35.4140   44.5820 C   0  0  0  0  0  0  0  0  0  0  0  0
   45.3980   36.4090   45.0080 H   0  0  0  0  0  0  0  0  0  0  0  0
   44.4220   35.1570   43.4930 C   0  0  0  0  0  0  0  0  0  0  0  0
   43.6400   36.0350   42.7540 C   0  0  0  0  0  3  0  0  0  0  0  0
   39.7910   32.2880   37.1590 N   0  0  0  0  0  0  0  0  0  0  0  0
   39.8390   31.2640   36.9050 H   0  0  0  0  0  0  0  0  0  0  0  0
   39.1330   32.9610   36.6910 H   0  0  0  0  0  0  0  0  0  0  0  0
   37.0760   31.4510   40.6290 O   0  0  0  0  0  0  0  0  0  0  0  0
   38.0070   29.1560   42.2740 Cl  0  0  0  0  0  0  0  0  0  0  0  0
   37.2150   29.0750   40.7140 C   0  0  0  0  0  0  0  0  0  0  0  0
   36.8130   30.2120   40.0160 C   0  0  0  0  0  0  0  0  0  0  0  0
   36.1970   30.0980   38.8010 C   0  0  0  0  0  0  0  0  0  0  0  0
   35.9410   28.8810   38.2020 C   0  0  0  0  0  0  0  0  0  0  0  0
   36.3400   27.7130   38.8910 C   0  0  0  0  0  0  0  0  0  0  0  0
   36.0520   26.1260   38.2040 Cl  0  0  0  0  0  0  0  0  0  0  0  0
   36.9570   27.8720   40.1160 C   0  0  0  0  0  0  0  0  0  0  0  0
   35.9030   31.0080   38.2960 H   0  0  0  0  0  0  0  0  0  0  0  0
   35.4510   28.7900   37.2370 H   0  0  0  0  0  0  0  0  0  0  0  0
   39.4430   26.8390   39.7190 F   0  0  0  0  0  0  0  0  0  0  0  0
   38.6360   26.1720   40.6140 C   0  0  0  0  0  0  0  0  0  0  0  0
   37.3720   26.6710   40.8360 C   0  0  0  0  0  0  0  0  0  0  0  0
   36.5790   25.9670   41.7530 C   0  0  0  0  0  0  0  0  0  0  0  0
   37.0960   24.8390   42.3680 C   0  0  0  0  0  0  0  0  0  0  0  0
   38.3880   24.3880   42.0960 C   0  0  0  0  0  0  0  0  0  0  0  0
   39.2040   25.0630   41.1910 C   0  0  0  0  0  0  0  0  0  0  0  0
   35.5870   26.3580   41.9270 H   0  0  0  0  0  0  0  0  0  0  0  0
   36.4550   24.3210   43.0690 H   0  0  0  0  0  0  0  0  0  0  0  0
   38.7710   23.5030   42.5890 H   0  0  0  0  0  0  0  0  0  0  0  0
   40.2090   24.7460   40.9540 H   0  0  0  0  0  0  0  0  0  0  0  0
  1 27  1  0  0  0  0
  2  1  2  0  0  0  0
  3  4  1  0  0  0  0
  3  1  1  0  0  0  0
  5  3  1  0  0  0  0
  5 10  1  0  0  0  0
  6  5  2  0  0  0  0
  7  6  1  0  0  0  0
  7  8  2  0  0  0  0
  8  9  1  0  0  0  0
  9 10  2  0  0  0  0
  9 13  1  0  0  0  0
 11  7  1  0  0  0  0
 12 23  1  0  0  0  0
 13 12  2  0  0  0  0
 13 14  1  0  0  0  0
 14 16  2  0  0  0  0
 15 14  1  0  0  0  0
 16 22  1  0  0  0  0
 16 17  1  0  0  0  0
 17 18  1  0  0  0  0
 17 19  1  0  0  0  0
 20 19  2  0  0  0  0
 20 21  1  0  0  0  0
 22 20  1  0  0  0  0
 23 22  2  0  0  0  0
 24  6  1  0  0  0  0
 25 24  1  0  0  0  0
 26 24  1  0  0  0  0
 29 28  1  0  0  0  0
 30 27  1  0  0  0  0
 30 29  2  0  0  0  0
 31 30  1  0  0  0  0
 32 31  2  0  0  0  0
 32 33  1  0  0  0  0
 33 35  2  0  0  0  0
 34 33  1  0  0  0  0
 35 29  1  0  0  0  0
 35 40  1  0  0  0  0
 36 31  1  0  0  0  0
 37 32  1  0  0  0  0
 38 39  1  0  0  0  0
 39 40  2  0  0  0  0
 39 44  1  0  0  0  0
 40 41  1  0  0  0  0
 41 45  1  0  0  0  0
 41 42  2  0  0  0  0
 42 46  1  0  0  0  0
 43 42  1  0  0  0  0
 43 47  1  0  0  0  0
 44 43  2  0  0  0  0
 48 44  1  0  0  0  0
M  END
>  <minimizedAffinity>
-7.60512161

$$$$

 OpenBabel03252501433D

 48 52  0  0  0  0  0  0  0  0999 V2000
   37.7480   29.6450   39.6630 C   0  0  0  0  0  0  0  0  0  0  0  0
   38.7310   29.0990   40.2890 O   0  0  0  0  0  0  0  0  0  0  0  0
   36.4830   29.1010   40.0480 N   0  0  0  0  0  0  0  0  0  0  0  0
   35.5900   29.4220   39.6870 H   0  0  0  0  0  0  0  0  0  0  0  0
   36.7050   28.0470   41.0160 C   0  0  0  0  0  0  0  0  0  0  0  0
   36.8820   28.2030   42.3560 C   0  0  0  0  0  0  0  0  0  0  0  0
   37.0780   27.0800   43.1160 C   0  0  0  0  0  0  0  0  0  0  0  0
   37.0840   25.8910   42.4840 N   0  0  0  0  0  0  0  0  0  0  0  0
   36.9080   25.7510   41.1500 C   0  0  0  0  0  0  0  0  0  0  0  0
   36.7110   26.8540   40.3920 N   0  0  0  0  0  0  0  0  0  0  0  0
   37.2190   27.1900   44.1720 H   0  0  0  0  0  0  0  0  0  0  0  0
   36.1000   24.1940   39.4390 C   0  0  0  0  0  3  0  0  0  0  0  0
   36.9250   24.4130   40.5240 C   0  0  0  0  0  0  0  0  0  0  0  0
   37.7420   23.4120   41.0050 C   0  0  0  0  0  0  0  0  0  0  0  0
   38.3920   23.5730   41.8540 H   0  0  0  0  0  0  0  0  0  0  0  0
   37.6970   22.1920   40.3620 C   0  0  0  0  0  0  0  0  0  0  0  0
   38.3330   21.0100   40.5420 N   0  0  0  0  0  0  0  0  0  0  0  0
   39.0270   20.8170   41.2720 H   0  0  0  0  0  0  0  0  0  0  0  0
   37.9280   20.1170   39.6300 N   0  0  0  0  0  0  0  0  0  0  0  0
   37.0200   20.6720   38.8240 C   0  0  0  0  0  0  0  0  0  0  0  0
   36.4730   20.2570   37.9760 H   0  0  0  0  0  0  0  0  0  0  0  0
   36.8640   21.9830   39.2730 C   0  0  0  0  0  0  0  0  0  0  0  0
   36.0410   22.9900   38.7860 C   0  0  0  0  0  3  0  0  0  0  0  0
   36.8460   29.5280   42.8590 N   0  0  0  0  0  0  0  0  0  0  0  0
   37.6040   30.2140   42.5930 H   0  0  0  0  0  0  0  0  0  0  0  0
   36.0450   29.7800   43.4910 H   0  0  0  0  0  0  0  0  0  0  0  0
   37.8110   30.6580   38.7020 O   0  0  0  0  0  0  0  0  0  0  0  0
   40.7260   30.9240   38.1790 Cl  0  0  0  0  0  0  0  0  0  0  0  0
   39.6770   32.1260   38.9020 C   0  0  0  0  0  0  0  0  0  0  0  0
   38.3160   31.9070   39.1070 C   0  0  0  0  0  0  0  0  0  0  0  0
   37.5370   32.8760   39.6750 C   0  0  0  0  0  0  0  0  0  0  0  0
   38.0350   34.1020   40.0730 C   0  0  0  0  0  0  0  0  0  0  0  0
   39.4130   34.3450   39.8740 C   0  0  0  0  0  0  0  0  0  0  0  0
   40.1280   35.8740   40.3490 Cl  0  0  0  0  0  0  0  0  0  0  0  0
   40.1650   33.3410   39.2970 C   0  0  0  0  0  0  0  0  0  0  0  0
   36.4860   32.6630   39.8140 H   0  0  0  0  0  0  0  0  0  0  0  0
   37.4160   34.8710   40.5230 H   0  0  0  0  0  0  0  0  0  0  0  0
   41.9450   32.7790   41.2770 F   0  0  0  0  0  0  0  0  0  0  0  0
   42.4660   33.2900   40.1080 C   0  0  0  0  0  0  0  0  0  0  0  0
   41.5890   33.5840   39.0870 C   0  0  0  0  0  0  0  0  0  0  0  0
   42.1540   34.1020   37.9140 C   0  0  0  0  0  0  0  0  0  0  0  0
   43.5250   34.2850   37.8460 C   0  0  0  0  0  0  0  0  0  0  0  0
   44.3570   33.9650   38.9200 C   0  0  0  0  0  0  0  0  0  0  0  0
   43.8290   33.4480   40.1020 C   0  0  0  0  0  0  0  0  0  0  0  0
   41.4670   34.3340   37.1120 H   0  0  0  0  0  0  0  0  0  0  0  0
   43.9260   34.6860   36.9250 H   0  0  0  0  0  0  0  0  0  0  0  0
   45.4270   34.1150   38.8450 H   0  0  0  0  0  0  0  0  0  0  0  0
   44.4390   33.1870   40.9550 H   0  0  0  0  0  0  0  0  0  0  0  0
  1  3  1  0  0  0  0
  1  2  2  0  0  0  0
  3  5  1  0  0  0  0
  4  3  1  0  0  0  0
  5  6  1  0  0  0  0
  6 24  1  0  0  0  0
  6  7  2  0  0  0  0
  7 11  1  0  0  0  0
  8  7  1  0  0  0  0
  9  8  2  0  0  0  0
 10  5  2  0  0  0  0
 10  9  1  0  0  0  0
 12 13  1  0  0  0  0
 13 14  2  0  0  0  0
 13  9  1  0  0  0  0
 14 15  1  0  0  0  0
 16 17  1  0  0  0  0
 16 14  1  0  0  0  0
 17 18  1  0  0  0  0
 19 17  1  0  0  0  0
 20 22  1  0  0  0  0
 20 19  2  0  0  0  0
 21 20  1  0  0  0  0
 22 16  2  0  0  0  0
 23 22  1  0  0  0  0
 23 12  2  0  0  0  0
 24 26  1  0  0  0  0
 25 24  1  0  0  0  0
 27 30  1  0  0  0  0
 27  1  1  0  0  0  0
 28 29  1  0  0  0  0
 29 30  2  0  0  0  0
 29 35  1  0  0  0  0
 30 31  1  0  0  0  0
 31 36  1  0  0  0  0
 31 32  2  0  0  0  0
 32 37  1  0  0  0  0
 33 32  1  0  0  0  0
 33 34  1  0  0  0  0
 35 33  2  0  0  0  0
 39 38  1  0  0  0  0
 40 35  1  0  0  0  0
 40 39  2  0  0  0  0
 41 40  1  0  0  0  0
 42 41  2  0  0  0  0
 42 43  1  0  0  0  0
 43 44  2  0  0  0  0
 44 39  1  0  0  0  0
 44 48  1  0  0  0  0
 45 41  1  0  0  0  0
 46 42  1  0  0  0  0
 47 43  1  0  0  0  0
M  END
>  <minimizedAffinity>
-7.50340319

$$$$

 OpenBabel03252501433D

 48 52  0  0  0  0  0  0  0  0999 V2000
   41.2660   28.6930   37.2130 C   0  0  0  0  0  0  0  0  0  0  0  0
   42.4630   28.3660   37.5580 O   0  0  0  0  0  0  0  0  0  0  0  0
   41.1800   30.0400   36.7420 N   0  0  0  0  0  0  0  0  0  0  0  0
   40.3280   30.4710   36.3980 H   0  0  0  0  0  0  0  0  0  0  0  0
   42.4890   30.6530   36.8410 C   0  0  0  0  0  0  0  0  0  0  0  0
   43.5400   30.4560   36.0000 C   0  0  0  0  0  0  0  0  0  0  0  0
   44.7060   31.1290   36.2560 C   0  0  0  0  0  0  0  0  0  0  0  0
   44.7350   31.9420   37.3280 N   0  0  0  0  0  0  0  0  0  0  0  0
   43.6820   32.1280   38.1570 C   0  0  0  0  0  0  0  0  0  0  0  0
   42.5270   31.4690   37.9110 N   0  0  0  0  0  0  0  0  0  0  0  0
   45.5400   30.9820   35.6010 H   0  0  0  0  0  0  0  0  0  0  0  0
   45.0160   33.1730   39.9260 C   0  0  0  0  0  3  0  0  0  0  0  0
   43.7850   33.0380   39.3160 C   0  0  0  0  0  0  0  0  0  0  0  0
   42.6880   33.7350   39.7750 C   0  0  0  0  0  0  0  0  0  0  0  0
   41.7190   33.6360   39.3040 H   0  0  0  0  0  0  0  0  0  0  0  0
   42.8720   34.5640   40.8620 C   0  0  0  0  0  0  0  0  0  0  0  0
   42.0560   35.3800   41.5710 N   0  0  0  0  0  0  0  0  0  0  0  0
   41.0570   35.5230   41.3870 H   0  0  0  0  0  0  0  0  0  0  0  0
   42.7360   35.9810   42.5560 N   0  0  0  0  0  0  0  0  0  0  0  0
   44.0110   35.5870   42.5330 C   0  0  0  0  0  0  0  0  0  0  0  0
   44.8520   35.8590   43.1720 H   0  0  0  0  0  0  0  0  0  0  0  0
   44.1130   34.6920   41.4680 C   0  0  0  0  0  0  0  0  0  0  0  0
   45.2200   33.9920   41.0070 C   0  0  0  0  0  3  0  0  0  0  0  0
   43.3380   29.5640   34.9170 N   0  0  0  0  0  0  0  0  0  0  0  0
   43.1840   28.5350   35.1020 H   0  0  0  0  0  0  0  0  0  0  0  0
   43.3490   29.9730   33.9490 H   0  0  0  0  0  0  0  0  0  0  0  0
   40.1210   27.8920   37.2570 O   0  0  0  0  0  0  0  0  0  0  0  0
   39.9260   27.1270   40.1240 Cl  0  0  0  0  0  0  0  0  0  0  0  0
   38.7990   28.1220   39.2260 C   0  0  0  0  0  0  0  0  0  0  0  0
   38.9770   28.4270   37.8780 C   0  0  0  0  0  0  0  0  0  0  0  0
   38.0700   29.2090   37.2190 C   0  0  0  0  0  0  0  0  0  0  0  0
   36.9480   29.7320   37.8290 C   0  0  0  0  0  0  0  0  0  0  0  0
   36.7460   29.4360   39.1970 C   0  0  0  0  0  0  0  0  0  0  0  0
   35.3480   30.0600   40.0510 Cl  0  0  0  0  0  0  0  0  0  0  0  0
   37.6860   28.6440   39.8260 C   0  0  0  0  0  0  0  0  0  0  0  0
   38.2490   29.4200   36.1730 H   0  0  0  0  0  0  0  0  0  0  0  0
   36.2280   30.3540   37.3060 H   0  0  0  0  0  0  0  0  0  0  0  0
   38.6860   30.3020   41.7380 F   0  0  0  0  0  0  0  0  0  0  0  0
   38.0050   29.1900   42.1830 C   0  0  0  0  0  0  0  0  0  0  0  0
   37.4870   28.3320   41.2380 C   0  0  0  0  0  0  0  0  0  0  0  0
   36.8010   27.2120   41.7270 C   0  0  0  0  0  0  0  0  0  0  0  0
   36.6840   27.0340   43.0960 C   0  0  0  0  0  0  0  0  0  0  0  0
   37.2340   27.9450   43.9990 C   0  0  0  0  0  0  0  0  0  0  0  0
   37.9220   29.0700   43.5470 C   0  0  0  0  0  0  0  0  0  0  0  0
   36.3950   26.5370   40.9870 H   0  0  0  0  0  0  0  0  0  0  0  0
   36.1480   26.1580   43.4370 H   0  0  0  0  0  0  0  0  0  0  0  0
   37.1300   27.7860   45.0650 H   0  0  0  0  0  0  0  0  0  0  0  0
   38.3620   29.7980   44.2140 H   0  0  0  0  0  0  0  0  0  0  0  0
  1 27  1  0  0  0  0
  1  2  2  0  0  0  0
  3  5  1  0  0  0  0
  3  1  1  0  0  0  0
  4  3  1  0  0  0  0
  5 10  1  0  0  0  0
  6  7  1  0  0  0  0
  6  5  2  0  0  0  0
  7  8  2  0  0  0  0
  8  9  1  0  0  0  0
  9 13  1  0  0  0  0
 10  9  2  0  0  0  0
 11  7  1  0  0  0  0
 12 23  1  0  0  0  0
 13 14  1  0  0  0  0
 13 12  2  0  0  0  0
 14 16  2  0  0  0  0
 15 14  1  0  0  0  0
 16 22  1  0  0  0  0
 16 17  1  0  0  0  0
 17 19  1  0  0  0  0
 18 17  1  0  0  0  0
 20 19  2  0  0  0  0
 20 21  1  0  0  0  0
 22 20  1  0  0  0  0
 23 22  2  0  0  0  0
 24 25  1  0  0  0  0
 24  6  1  0  0  0  0
 26 24  1  0  0  0  0
 27 30  1  0  0  0  0
 29 35  1  0  0  0  0
 29 28  1  0  0  0  0
 30 29  2  0  0  0  0
 31 32  2  0  0  0  0
 31 30  1  0  0  0  0
 32 33  1  0  0  0  0
 33 35  2  0  0  0  0
 33 34  1  0  0  0  0
 35 40  1  0  0  0  0
 36 31  1  0  0  0  0
 37 32  1  0  0  0  0
 38 39  1  0  0  0  0
 39 44  1  0  0  0  0
 40 41  1  0  0  0  0
 40 39  2  0  0  0  0
 41 42  2  0  0  0  0
 42 46  1  0  0  0  0
 42 43  1  0  0  0  0
 43 47  1  0  0  0  0
 44 43  2  0  0  0  0
 44 48  1  0  0  0  0
 45 41  1  0  0  0  0
M  END
>  <minimizedAffinity>
-7.43434572

$$$$

 OpenBabel03252501433D

 48 52  0  0  0  0  0  0  0  0999 V2000
   38.2080   30.4680   40.6560 C   0  0  0  0  0  0  0  0  0  0  0  0
   38.0000   31.6860   40.2940 O   0  0  0  0  0  0  0  0  0  0  0  0
   39.4390   29.9480   40.1480 N   0  0  0  0  0  0  0  0  0  0  0  0
   39.7910   29.0170   40.3480 H   0  0  0  0  0  0  0  0  0  0  0  0
   40.0690   30.9610   39.3250 C   0  0  0  0  0  0  0  0  0  0  0  0
   39.8120   31.2110   38.0130 C   0  0  0  0  0  0  0  0  0  0  0  0
   40.5120   32.2160   37.4000 C   0  0  0  0  0  0  0  0  0  0  0  0
   41.4120   32.8920   38.1380 N   0  0  0  0  0  0  0  0  0  0  0  0
   41.6580   32.6310   39.4430 C   0  0  0  0  0  0  0  0  0  0  0  0
   40.9700   31.6410   40.0570 N   0  0  0  0  0  0  0  0  0  0  0  0
   40.3190   32.4230   36.3670 H   0  0  0  0  0  0  0  0  0  0  0  0
   43.9490   33.4560   39.7030 C   0  0  0  0  0  3  0  0  0  0  0  0
   42.6600   33.4150   40.1930 C   0  0  0  0  0  0  0  0  0  0  0  0
   42.3210   34.0880   41.3470 C   0  0  0  0  0  0  0  0  0  0  0  0
   41.3130   34.0630   41.7400 H   0  0  0  0  0  0  0  0  0  0  0  0
   43.3180   34.7970   41.9850 C   0  0  0  0  0  0  0  0  0  0  0  0
   43.3620   35.5560   43.1060 N   0  0  0  0  0  0  0  0  0  0  0  0
   42.5660   35.7420   43.7260 H   0  0  0  0  0  0  0  0  0  0  0  0
   44.5980   36.0350   43.2980 N   0  0  0  0  0  0  0  0  0  0  0  0
   45.4050   35.6150   42.3210 C   0  0  0  0  0  0  0  0  0  0  0  0
   46.4650   35.7980   42.1450 H   0  0  0  0  0  0  0  0  0  0  0  0
   44.6100   34.8310   41.4840 C   0  0  0  0  0  0  0  0  0  0  0  0
   44.9550   34.1540   40.3210 C   0  0  0  0  0  3  0  0  0  0  0  0
   38.8310   30.4040   37.3850 N   0  0  0  0  0  0  0  0  0  0  0  0
   39.0080   29.3720   37.2410 H   0  0  0  0  0  0  0  0  0  0  0  0
   37.9420   30.8770   37.0820 H   0  0  0  0  0  0  0  0  0  0  0  0
   37.3850   29.6670   41.4530 O   0  0  0  0  0  0  0  0  0  0  0  0
   36.7100   27.3730   39.6860 Cl  0  0  0  0  0  0  0  0  0  0  0  0
   37.6540   27.3180   41.1610 C   0  0  0  0  0  0  0  0  0  0  0  0
   37.9180   28.4530   41.9240 C   0  0  0  0  0  0  0  0  0  0  0  0
   38.6610   28.3610   43.0680 C   0  0  0  0  0  0  0  0  0  0  0  0
   39.1830   27.1680   43.5290 C   0  0  0  0  0  0  0  0  0  0  0  0
   38.9270   26.0040   42.7710 C   0  0  0  0  0  0  0  0  0  0  0  0
   39.5520   24.4480   43.2830 Cl  0  0  0  0  0  0  0  0  0  0  0  0
   38.1740   26.1400   41.6210 C   0  0  0  0  0  0  0  0  0  0  0  0
   38.8410   29.2680   43.6280 H   0  0  0  0  0  0  0  0  0  0  0  0
   39.7730   27.0950   44.4370 H   0  0  0  0  0  0  0  0  0  0  0  0
   39.9560   25.3290   39.7320 F   0  0  0  0  0  0  0  0  0  0  0  0
   38.8250   24.5570   39.8820 C   0  0  0  0  0  0  0  0  0  0  0  0
   37.9050   24.9420   40.8310 C   0  0  0  0  0  0  0  0  0  0  0  0
   36.7670   24.1330   40.9560 C   0  0  0  0  0  0  0  0  0  0  0  0
   36.6340   23.0220   40.1410 C   0  0  0  0  0  0  0  0  0  0  0  0
   37.6080   22.6890   39.1980 C   0  0  0  0  0  0  0  0  0  0  0  0
   38.7510   23.4700   39.0470 C   0  0  0  0  0  0  0  0  0  0  0  0
   36.0430   24.4350   41.7000 H   0  0  0  0  0  0  0  0  0  0  0  0
   35.7430   22.4210   40.2650 H   0  0  0  0  0  0  0  0  0  0  0  0
   37.4830   21.8140   38.5710 H   0  0  0  0  0  0  0  0  0  0  0  0
   39.5270   23.2460   38.3300 H   0  0  0  0  0  0  0  0  0  0  0  0
  1 27  1  0  0  0  0
  2  1  2  0  0  0  0
  3  4  1  0  0  0  0
  3  1  1  0  0  0  0
  5 10  1  0  0  0  0
  5  3  1  0  0  0  0
  6  5  2  0  0  0  0
  7  6  1  0  0  0  0
  7  8  2  0  0  0  0
  8  9  1  0  0  0  0
  9 10  2  0  0  0  0
  9 13  1  0  0  0  0
 11  7  1  0  0  0  0
 12 13  2  0  0  0  0
 12 23  1  0  0  0  0
 13 14  1  0  0  0  0
 14 15  1  0  0  0  0
 14 16  2  0  0  0  0
 16 17  1  0  0  0  0
 17 19  1  0  0  0  0
 17 18  1  0  0  0  0
 20 19  2  0  0  0  0
 21 20  1  0  0  0  0
 22 16  1  0  0  0  0
 22 20  1  0  0  0  0
 23 22  2  0  0  0  0
 24  6  1  0  0  0  0
 25 24  1  0  0  0  0
 26 24  1  0  0  0  0
 27 30  1  0  0  0  0
 28 29  1  0  0  0  0
 29 35  2  0  0  0  0
 29 30  1  0  0  0  0
 30 31  2  0  0  0  0
 31 32  1  0  0  0  0
 31 36  1  0  0  0  0
 32 37  1  0  0  0  0
 33 34  1  0  0  0  0
 33 32  2  0  0  0  0
 35 33  1  0  0  0  0
 38 39  1  0  0  0  0
 39 40  1  0  0  0  0
 40 41  2  0  0  0  0
 40 35  1  0  0  0  0
 41 45  1  0  0  0  0
 42 46  1  0  0  0  0
 42 41  1  0  0  0  0
 43 42  2  0  0  0  0
 44 43  1  0  0  0  0
 44 39  2  0  0  0  0
 47 43  1  0  0  0  0
 48 44  1  0  0  0  0
M  END
>  <minimizedAffinity>
-7.39725542

$$$$

 OpenBabel03252501433D

 48 52  0  0  0  0  0  0  0  0999 V2000
   37.4170   32.0930   40.3360 C   0  0  0  0  0  0  0  0  0  0  0  0
   37.4320   32.9310   39.3600 O   0  0  0  0  0  0  0  0  0  0  0  0
   38.6690   32.0290   41.0230 N   0  0  0  0  0  0  0  0  0  0  0  0
   38.8450   31.4480   41.8370 H   0  0  0  0  0  0  0  0  0  0  0  0
   39.6070   32.9170   40.3660 C   0  0  0  0  0  0  0  0  0  0  0  0
   39.7110   34.2610   40.5480 C   0  0  0  0  0  0  0  0  0  0  0  0
   40.6650   34.9360   39.8340 C   0  0  0  0  0  0  0  0  0  0  0  0
   41.4400   34.2230   38.9950 N   0  0  0  0  0  0  0  0  0  0  0  0
   41.3240   32.8850   38.8230 C   0  0  0  0  0  0  0  0  0  0  0  0
   40.3850   32.2110   39.5260 N   0  0  0  0  0  0  0  0  0  0  0  0
   40.7570   35.9950   39.9680 H   0  0  0  0  0  0  0  0  0  0  0  0
   41.7320   31.0120   37.2980 C   0  0  0  0  0  3  0  0  0  0  0  0
   42.2090   32.1660   37.8850 C   0  0  0  0  0  0  0  0  0  0  0  0
   43.4750   32.6330   37.6010 C   0  0  0  0  0  0  0  0  0  0  0  0
   43.8600   33.5370   38.0550 H   0  0  0  0  0  0  0  0  0  0  0  0
   44.2370   31.9020   36.7130 C   0  0  0  0  0  0  0  0  0  0  0  0
   45.4850   32.0420   36.2070 N   0  0  0  0  0  0  0  0  0  0  0  0
   46.1330   32.8050   36.4330 H   0  0  0  0  0  0  0  0  0  0  0  0
   45.7630   31.0410   35.3620 N   0  0  0  0  0  0  0  0  0  0  0  0
   44.7200   30.2120   35.2820 C   0  0  0  0  0  0  0  0  0  0  0  0
   44.5790   29.2980   34.7030 H   0  0  0  0  0  0  0  0  0  0  0  0
   43.7470   30.7430   36.1300 C   0  0  0  0  0  0  0  0  0  0  0  0
   42.4730   30.2710   36.4140 C   0  0  0  0  0  3  0  0  0  0  0  0
   38.8150   34.8560   41.4720 N   0  0  0  0  0  0  0  0  0  0  0  0
   37.7800   34.8790   41.2640 H   0  0  0  0  0  0  0  0  0  0  0  0
   39.2290   35.2580   42.3500 H   0  0  0  0  0  0  0  0  0  0  0  0
   36.3480   31.2940   40.7530 O   0  0  0  0  0  0  0  0  0  0  0  0
   36.0620   30.0860   38.0510 Cl  0  0  0  0  0  0  0  0  0  0  0  0
   36.4300   29.2440   39.5420 C   0  0  0  0  0  0  0  0  0  0  0  0
   36.5450   29.9000   40.7660 C   0  0  0  0  0  0  0  0  0  0  0  0
   36.8350   29.2000   41.9030 C   0  0  0  0  0  0  0  0  0  0  0  0
   37.0260   27.8320   41.9130 C   0  0  0  0  0  0  0  0  0  0  0  0
   36.9140   27.1450   40.6830 C   0  0  0  0  0  0  0  0  0  0  0  0
   37.1430   25.4080   40.6050 Cl  0  0  0  0  0  0  0  0  0  0  0  0
   36.6220   27.8900   39.5580 C   0  0  0  0  0  0  0  0  0  0  0  0
   36.9140   29.7510   42.8300 H   0  0  0  0  0  0  0  0  0  0  0  0
   37.2570   27.2760   42.8170 H   0  0  0  0  0  0  0  0  0  0  0  0
   38.8070   27.5920   37.9640 F   0  0  0  0  0  0  0  0  0  0  0  0
   37.6280   27.0540   37.4970 C   0  0  0  0  0  0  0  0  0  0  0  0
   36.5050   27.1880   38.2820 C   0  0  0  0  0  0  0  0  0  0  0  0
   35.3240   26.6290   37.7760 C   0  0  0  0  0  0  0  0  0  0  0  0
   35.3500   25.9890   36.5480 C   0  0  0  0  0  0  0  0  0  0  0  0
   36.5260   25.8890   35.8040 C   0  0  0  0  0  0  0  0  0  0  0  0
   37.7180   26.4330   36.2770 C   0  0  0  0  0  0  0  0  0  0  0  0
   34.4410   26.7340   38.3910 H   0  0  0  0  0  0  0  0  0  0  0  0
   34.4190   25.5690   36.1890 H   0  0  0  0  0  0  0  0  0  0  0  0
   36.5230   25.3830   34.8460 H   0  0  0  0  0  0  0  0  0  0  0  0
   38.6490   26.3760   35.7310 H   0  0  0  0  0  0  0  0  0  0  0  0
  1 27  1  0  0  0  0
  1  3  1  0  0  0  0
  2  1  2  0  0  0  0
  3  4  1  0  0  0  0
  5  6  1  0  0  0  0
  5  3  1  0  0  0  0
  6 24  1  0  0  0  0
  7 11  1  0  0  0  0
  7  6  2  0  0  0  0
  8  7  1  0  0  0  0
  9  8  2  0  0  0  0
  9 10  1  0  0  0  0
 10  5  2  0  0  0  0
 12 13  1  0  0  0  0
 13  9  1  0  0  0  0
 14 13  2  0  0  0  0
 14 15  1  0  0  0  0
 16 14  1  0  0  0  0
 17 18  1  0  0  0  0
 17 16  1  0  0  0  0
 19 17  1  0  0  0  0
 20 19  2  0  0  0  0
 20 22  1  0  0  0  0
 21 20  1  0  0  0  0
 22 23  1  0  0  0  0
 22 16  2  0  0  0  0
 23 12  2  0  0  0  0
 24 26  1  0  0  0  0
 25 24  1  0  0  0  0
 27 30  1  0  0  0  0
 28 29  1  0  0  0  0
 29 35  2  0  0  0  0
 29 30  1  0  0  0  0
 30 31  2  0  0  0  0
 31 32  1  0  0  0  0
 31 36  1  0  0  0  0
 32 37  1  0  0  0  0
 33 32  2  0  0  0  0
 34 33  1  0  0  0  0
 35 33  1  0  0  0  0
 39 38  1  0  0  0  0
 39 40  1  0  0  0  0
 40 35  1  0  0  0  0
 41 40  2  0  0  0  0
 41 45  1  0  0  0  0
 42 41  1  0  0  0  0
 43 44  1  0  0  0  0
 43 42  2  0  0  0  0
 44 39  2  0  0  0  0
 46 42  1  0  0  0  0
 47 43  1  0  0  0  0
 48 44  1  0  0  0  0
M  END
>  <minimizedAffinity>
-7.29546404

$$$$

 OpenBabel03252501433D

 48 52  0  0  0  0  0  0  0  0999 V2000
   37.9240   28.2940   42.9370 C   0  0  0  0  0  0  0  0  0  0  0  0
   37.3490   27.4030   43.6660 O   0  0  0  0  0  0  0  0  0  0  0  0
   38.9460   27.7430   42.1020 N   0  0  0  0  0  0  0  0  0  0  0  0
   39.4910   28.2810   41.4370 H   0  0  0  0  0  0  0  0  0  0  0  0
   39.0530   26.3240   42.3730 C   0  0  0  0  0  0  0  0  0  0  0  0
   39.7990   25.7410   43.3500 C   0  0  0  0  0  0  0  0  0  0  0  0
   39.7740   24.3750   43.4510 C   0  0  0  0  0  0  0  0  0  0  0  0
   39.0110   23.6960   42.5740 N   0  0  0  0  0  0  0  0  0  0  0  0
   38.2740   24.2900   41.6060 C   0  0  0  0  0  0  0  0  0  0  0  0
   38.2920   25.6380   41.4990 N   0  0  0  0  0  0  0  0  0  0  0  0
   40.3570   23.9040   44.2170 H   0  0  0  0  0  0  0  0  0  0  0  0
   38.0010   22.3110   40.1890 C   0  0  0  0  0  3  0  0  0  0  0  0
   37.4580   23.4820   40.6780 C   0  0  0  0  0  0  0  0  0  0  0  0
   36.1910   23.8820   40.3100 C   0  0  0  0  0  0  0  0  0  0  0  0
   35.7560   24.7980   40.6870 H   0  0  0  0  0  0  0  0  0  0  0  0
   35.4960   23.0680   39.4390 C   0  0  0  0  0  0  0  0  0  0  0  0
   34.2690   23.1300   38.8710 N   0  0  0  0  0  0  0  0  0  0  0  0
   33.5860   23.8810   39.0180 H   0  0  0  0  0  0  0  0  0  0  0  0
   34.0640   22.0680   38.0810 N   0  0  0  0  0  0  0  0  0  0  0  0
   35.1380   21.2750   38.1000 C   0  0  0  0  0  0  0  0  0  0  0  0
   35.3370   20.3330   37.5870 H   0  0  0  0  0  0  0  0  0  0  0  0
   36.0520   21.8940   38.9530 C   0  0  0  0  0  0  0  0  0  0  0  0
   37.3280   21.4880   39.3220 C   0  0  0  0  0  3  0  0  0  0  0  0
   40.5460   26.6040   44.1900 N   0  0  0  0  0  0  0  0  0  0  0  0
   41.3500   27.1630   43.7920 H   0  0  0  0  0  0  0  0  0  0  0  0
   40.2610   26.6560   45.2000 H   0  0  0  0  0  0  0  0  0  0  0  0
   37.6490   29.6640   42.8960 O   0  0  0  0  0  0  0  0  0  0  0  0
   39.9820   31.4000   42.2750 Cl  0  0  0  0  0  0  0  0  0  0  0  0
   38.5940   31.1030   41.2490 C   0  0  0  0  0  0  0  0  0  0  0  0
   37.5450   30.2680   41.6290 C   0  0  0  0  0  0  0  0  0  0  0  0
   36.4830   30.0660   40.7930 C   0  0  0  0  0  0  0  0  0  0  0  0
   36.3820   30.6620   39.5510 C   0  0  0  0  0  0  0  0  0  0  0  0
   37.4350   31.5120   39.1440 C   0  0  0  0  0  0  0  0  0  0  0  0
   37.3890   32.3080   37.5820 Cl  0  0  0  0  0  0  0  0  0  0  0  0
   38.4900   31.6890   40.0170 C   0  0  0  0  0  0  0  0  0  0  0  0
   35.6920   29.4110   41.1300 H   0  0  0  0  0  0  0  0  0  0  0  0
   35.5380   30.5010   38.8870 H   0  0  0  0  0  0  0  0  0  0  0  0
   38.4590   34.3190   40.7140 F   0  0  0  0  0  0  0  0  0  0  0  0
   39.5390   33.8920   39.9730 C   0  0  0  0  0  0  0  0  0  0  0  0
   39.5830   32.5650   39.6050 C   0  0  0  0  0  0  0  0  0  0  0  0
   40.6950   32.1670   38.8520 C   0  0  0  0  0  0  0  0  0  0  0  0
   41.6630   33.1020   38.5270 C   0  0  0  0  0  0  0  0  0  0  0  0
   41.5560   34.4330   38.9330 C   0  0  0  0  0  0  0  0  0  0  0  0
   40.4640   34.8640   39.6840 C   0  0  0  0  0  0  0  0  0  0  0  0
   40.7300   31.1260   38.5620 H   0  0  0  0  0  0  0  0  0  0  0  0
   42.5080   32.7580   37.9440 H   0  0  0  0  0  0  0  0  0  0  0  0
   42.3250   35.1480   38.6680 H   0  0  0  0  0  0  0  0  0  0  0  0
   40.3440   35.8850   40.0170 H   0  0  0  0  0  0  0  0  0  0  0  0
  1  2  2  0  0  0  0
  3  5  1  0  0  0  0
  3  1  1  0  0  0  0
  4  3  1  0  0  0  0
  5  6  1  0  0  0  0
  6  7  2  0  0  0  0
  6 24  1  0  0  0  0
  7 11  1  0  0  0  0
  8  7  1  0  0  0  0
  9  8  2  0  0  0  0
 10  9  1  0  0  0  0
 10  5  2  0  0  0  0
 12 13  1  0  0  0  0
 13  9  1  0  0  0  0
 14 13  2  0  0  0  0
 14 15  1  0  0  0  0
 16 14  1  0  0  0  0
 17 18  1  0  0  0  0
 17 16  1  0  0  0  0
 19 20  2  0  0  0  0
 19 17  1  0  0  0  0
 20 22  1  0  0  0  0
 21 20  1  0  0  0  0
 22 23  1  0  0  0  0
 22 16  2  0  0  0  0
 23 12  2  0  0  0  0
 24 26  1  0  0  0  0
 25 24  1  0  0  0  0
 27  1  1  0  0  0  0
 29 30  1  0  0  0  0
 29 28  1  0  0  0  0
 30 27  1  0  0  0  0
 31 36  1  0  0  0  0
 31 30  2  0  0  0  0
 32 31  1  0  0  0  0
 33 32  2  0  0  0  0
 33 35  1  0  0  0  0
 34 33  1  0  0  0  0
 35 29  2  0  0  0  0
 37 32  1  0  0  0  0
 39 38  1  0  0  0  0
 40 39  2  0  0  0  0
 40 35  1  0  0  0  0
 41 40  1  0  0  0  0
 42 41  2  0  0  0  0
 42 43  1  0  0  0  0
 43 44  2  0  0  0  0
 44 39  1  0  0  0  0
 44 48  1  0  0  0  0
 45 41  1  0  0  0  0
 46 42  1  0  0  0  0
 47 43  1  0  0  0  0
M  END
>  <minimizedAffinity>
-7.10996151

$$$$

 OpenBabel03252501433D

 48 52  0  0  0  0  0  0  0  0999 V2000
   36.4500   30.6460   39.5510 C   0  0  0  0  0  0  0  0  0  0  0  0
   37.5180   30.6340   38.8320 O   0  0  0  0  0  0  0  0  0  0  0  0
   36.5010   31.6270   40.5900 N   0  0  0  0  0  0  0  0  0  0  0  0
   35.7440   31.8080   41.2410 H   0  0  0  0  0  0  0  0  0  0  0  0
   37.7870   32.2920   40.5410 C   0  0  0  0  0  0  0  0  0  0  0  0
   38.0610   33.4790   39.9360 C   0  0  0  0  0  0  0  0  0  0  0  0
   39.3460   33.9520   39.9960 C   0  0  0  0  0  0  0  0  0  0  0  0
   40.2560   33.2080   40.6510 N   0  0  0  0  0  0  0  0  0  0  0  0
   39.9690   32.0270   41.2470 C   0  0  0  0  0  0  0  0  0  0  0  0
   38.7030   31.5540   41.1940 N   0  0  0  0  0  0  0  0  0  0  0  0
   39.5730   34.8860   39.5240 H   0  0  0  0  0  0  0  0  0  0  0  0
   42.2140   31.8990   42.2180 C   0  0  0  0  0  3  0  0  0  0  0  0
   41.0190   31.2630   41.9500 C   0  0  0  0  0  0  0  0  0  0  0  0
   40.8150   29.9540   42.3310 C   0  0  0  0  0  0  0  0  0  0  0  0
   39.8820   29.4450   42.1260 H   0  0  0  0  0  0  0  0  0  0  0  0
   41.8470   29.3130   42.9830 C   0  0  0  0  0  0  0  0  0  0  0  0
   42.0100   28.0690   43.4920 N   0  0  0  0  0  0  0  0  0  0  0  0
   41.3070   27.3220   43.4660 H   0  0  0  0  0  0  0  0  0  0  0  0
   43.2270   27.9420   44.0380 N   0  0  0  0  0  0  0  0  0  0  0  0
   43.9030   29.0860   43.9110 C   0  0  0  0  0  0  0  0  0  0  0  0
   44.9100   29.3570   44.2290 H   0  0  0  0  0  0  0  0  0  0  0  0
   43.0450   29.9620   43.2470 C   0  0  0  0  0  0  0  0  0  0  0  0
   43.2530   31.2810   42.8650 C   0  0  0  0  0  3  0  0  0  0  0  0
   36.9840   34.1350   39.2890 N   0  0  0  0  0  0  0  0  0  0  0  0
   36.5410   33.7040   38.4320 H   0  0  0  0  0  0  0  0  0  0  0  0
   36.6590   35.0460   39.7010 H   0  0  0  0  0  0  0  0  0  0  0  0
   35.3210   29.8350   39.4090 O   0  0  0  0  0  0  0  0  0  0  0  0
   37.0310   28.3350   41.3230 Cl  0  0  0  0  0  0  0  0  0  0  0  0
   36.3170   27.7160   39.8490 C   0  0  0  0  0  0  0  0  0  0  0  0
   35.5250   28.5000   39.0120 C   0  0  0  0  0  0  0  0  0  0  0  0
   34.9880   27.9720   37.8710 C   0  0  0  0  0  0  0  0  0  0  0  0
   35.1910   26.6630   37.4830 C   0  0  0  0  0  0  0  0  0  0  0  0
   35.9910   25.8480   38.3170 C   0  0  0  0  0  0  0  0  0  0  0  0
   36.2990   24.1730   37.9000 Cl  0  0  0  0  0  0  0  0  0  0  0  0
   36.5130   26.4190   39.4600 C   0  0  0  0  0  0  0  0  0  0  0  0
   34.3800   28.6180   37.2520 H   0  0  0  0  0  0  0  0  0  0  0  0
   34.7640   26.2430   36.5770 H   0  0  0  0  0  0  0  0  0  0  0  0
   39.2000   26.2760   39.0500 F   0  0  0  0  0  0  0  0  0  0  0  0
   38.6970   25.5330   40.0950 C   0  0  0  0  0  0  0  0  0  0  0  0
   37.3410   25.5850   40.3280 C   0  0  0  0  0  0  0  0  0  0  0  0
   36.8650   24.8170   41.3990 C   0  0  0  0  0  0  0  0  0  0  0  0
   37.7590   24.0670   42.1440 C   0  0  0  0  0  0  0  0  0  0  0  0
   39.1240   24.0600   41.8530 C   0  0  0  0  0  0  0  0  0  0  0  0
   39.6320   24.8130   40.7960 C   0  0  0  0  0  0  0  0  0  0  0  0
   35.8000   24.8560   41.5820 H   0  0  0  0  0  0  0  0  0  0  0  0
   37.3560   23.4860   42.9630 H   0  0  0  0  0  0  0  0  0  0  0  0
   39.8050   23.4670   42.4500 H   0  0  0  0  0  0  0  0  0  0  0  0
   40.6810   24.8340   40.5390 H   0  0  0  0  0  0  0  0  0  0  0  0
  1  3  1  0  0  0  0
  2  1  2  0  0  0  0
  3  4  1  0  0  0  0
  5  3  1  0  0  0  0
  5 10  1  0  0  0  0
  6  7  1  0  0  0  0
  6  5  2  0  0  0  0
  7  8  2  0  0  0  0
  8  9  1  0  0  0  0
  9 13  1  0  0  0  0
 10  9  2  0  0  0  0
 11  7  1  0  0  0  0
 12 23  1  0  0  0  0
 13 12  2  0  0  0  0
 13 14  1  0  0  0  0
 14 16  2  0  0  0  0
 15 14  1  0  0  0  0
 16 22  1  0  0  0  0
 16 17  1  0  0  0  0
 17 19  1  0  0  0  0
 18 17  1  0  0  0  0
 20 19  2  0  0  0  0
 20 21  1  0  0  0  0
 22 20  1  0  0  0  0
 23 22  2  0  0  0  0
 24 26  1  0  0  0  0
 24  6  1  0  0  0  0
 25 24  1  0  0  0  0
 27  1  1  0  0  0  0
 29 28  1  0  0  0  0
 30 27  1  0  0  0  0
 30 29  2  0  0  0  0
 31 30  1  0  0  0  0
 32 31  2  0  0  0  0
 32 33  1  0  0  0  0
 33 35  2  0  0  0  0
 34 33  1  0  0  0  0
 35 29  1  0  0  0  0
 35 40  1  0  0  0  0
 36 31  1  0  0  0  0
 37 32  1  0  0  0  0
 38 39  1  0  0  0  0
 39 40  2  0  0  0  0
 39 44  1  0  0  0  0
 40 41  1  0  0  0  0
 41 45  1  0  0  0  0
 41 42  2  0  0  0  0
 42 46  1  0  0  0  0
 43 42  1  0  0  0  0
 43 47  1  0  0  0  0
 44 43  2  0  0  0  0
 48 44  1  0  0  0  0
M  END
>  <minimizedAffinity>
-7.10519314

$$$$
