REMARK  Name = 
REMARK  3 active torsions:
REMARK  status: ('A' for Active; 'I' for Inactive)
REMARK    1  A    between atoms: C_2  and  C_14
REMARK    2  A    between atoms: C_9  and  C_16
REMARK    3  A    between atoms: C_19  and  C_31
REMARK                            x       y       z     vdW  Elec       q    Type
REMARK                         _______ _______ _______ _____ _____    ______ ____
ROOT
ATOM      1  C   UNL     1      47.259  31.390  45.153  0.00  0.00    +0.000 A 
ATOM      2  C   UNL     1      46.869  32.718  45.136  0.00  0.00    +0.000 A 
ATOM      3  C   UNL     1      46.240  33.322  46.197  0.00  0.00    +0.000 A 
ATOM      4  C   UNL     1      45.969  32.592  47.354  0.00  0.00    +0.000 A 
ATOM      5  N   UNL     1      45.384  32.847  48.556  0.00  0.00    +0.000 N 
ATOM      6  C   UNL     1      45.412  31.710  49.294  0.00  0.00    +0.000 A 
ATOM      7  N   UNL     1      46.016  30.762  48.536  0.00  0.00    +0.000 NA
ATOM      8  C   UNL     1      46.366  31.284  47.340  0.00  0.00    +0.000 A 
ATOM      9  C   UNL     1      46.998  30.646  46.298  0.00  0.00    +0.000 A 
ATOM     10  H   UNL     1      47.755  30.925  44.309  0.00  0.00    +0.000 HD
ATOM     11  H   UNL     1      45.925  34.367  46.200  0.00  0.00    +0.000 HD
ATOM     12  H   UNL     1      45.004  33.784  48.790  0.00  0.00    +0.000 HD
ATOM     13  H   UNL     1      45.015  31.637  50.284  0.00  0.00    +0.000 HD
ENDROOT
BRANCH   2  18
ATOM     14  C   UNL     1      46.486  35.193  42.434  0.00  0.00    +0.000 A 
ATOM     15  C   UNL     1      47.657  35.021  41.706  0.00  0.00    +0.000 A 
ATOM     16  C   UNL     1      48.575  34.066  42.132  0.00  0.00    +0.000 A 
ATOM     17  N   UNL     1      48.284  33.334  43.255  0.00  0.00    +0.000 NA
ATOM     18  C   UNL     1      47.131  33.524  43.946  0.00  0.00    +0.000 A 
ATOM     19  N   UNL     1      46.248  34.441  43.538  0.00  0.00    +0.000 NA
ATOM     20  H   UNL     1      45.785  35.946  42.079  0.00  0.00    +0.000 HD
ATOM     21  H   UNL     1      47.897  35.595  40.816  0.00  0.00    +0.000 HD
ATOM     22  H   UNL     1      49.516  33.867  41.621  0.00  0.00    +0.000 HD
ENDBRANCH   2  18
BRANCH   9  23
ATOM     23  C   UNL     1      47.378  29.239  46.394  0.00  0.00    +0.000 A 
ATOM     24  C   UNL     1      48.671  28.795  46.600  0.00  0.00    +0.000 A 
ATOM     25  C   UNL     1      48.547  27.402  46.620  0.00  0.00    +0.000 A 
ATOM     26  C   UNL     1      47.220  27.090  46.429  0.00  0.00    +0.000 A 
ATOM     27  O   UNL     1      46.562  28.221  46.298  0.00  0.00    +0.000 OA
ATOM     28  H   UNL     1      49.584  29.361  46.722  0.00  0.00    +0.000 HD
ATOM     29  H   UNL     1      49.335  26.672  46.758  0.00  0.00    +0.000 HD
BRANCH  26  31
ATOM     30  C   UNL     1      47.443  24.669  46.208  0.00  0.00    +0.000 A 
ATOM     31  C   UNL     1      46.609  25.767  46.373  0.00  0.00    +0.000 A 
ATOM     32  C   UNL     1      45.242  25.616  46.481  0.00  0.00    +0.000 A 
ATOM     33  H   UNL     1      44.575  26.455  46.610  0.00  0.00    +0.000 HD
ATOM     34  C   UNL     1      44.714  24.334  46.422  0.00  0.00    +0.000 A 
ATOM     35  N   UNL     1      43.412  23.931  46.504  0.00  0.00    +0.000 N 
ATOM     36  H   UNL     1      42.561  24.523  46.628  0.00  0.00    +0.000 HD
ATOM     37  N   UNL     1      43.382  22.605  46.396  0.00  0.00    +0.000 NA
ATOM     38  C   UNL     1      44.634  22.134  46.246  0.00  0.00    +0.000 A 
ATOM     39  H   UNL     1      44.995  21.107  46.128  0.00  0.00    +0.000 HD
ATOM     40  C   UNL     1      45.510  23.198  46.257  0.00  0.00    +0.000 A 
ATOM     41  C   UNL     1      46.865  23.417  46.155  0.00  0.00    +0.000 A 
ENDBRANCH  26  31
ENDBRANCH   9  23
TORSDOF 3
