
 OpenBabel03252505573D

 39 42  0  0  0  0  0  0  0  0999 V2000
   44.9410   35.0110   44.7730 C   0  0  0  0  0  0  0  0  0  0  0  0
   45.8810   34.5870   43.8320 C   0  0  0  0  0  0  0  0  0  0  0  0
   46.7570   33.5780   44.2320 C   0  0  0  0  0  0  0  0  0  0  0  0
   46.6800   33.0600   45.4610 N   0  0  0  0  0  0  0  0  0  0  0  0
   45.7450   33.5080   46.3400 C   0  0  0  0  0  0  0  0  0  0  0  0
   44.8950   34.4680   45.9920 N   0  0  0  0  0  0  0  0  0  0  0  0
   44.2440   35.7990   44.4850 H   0  0  0  0  0  0  0  0  0  0  0  0
   47.3650   31.8720   42.6920 C   0  0  0  0  0  0  0  0  0  0  0  0
   47.7900   33.0210   43.3720 C   0  0  0  0  0  0  0  0  0  0  0  0
   49.0790   33.4400   43.1080 C   0  0  0  0  0  0  0  0  0  0  0  0
   49.3510   34.3340   43.6470 H   0  0  0  0  0  0  0  0  0  0  0  0
   49.8730   32.7470   42.2240 C   0  0  0  0  0  0  0  0  0  0  0  0
   51.1400   33.0430   41.8770 N   0  0  0  0  0  0  0  0  0  0  0  0
   51.7340   33.8370   42.2100 H   0  0  0  0  0  0  0  0  0  0  0  0
   51.5380   32.1300   41.0050 N   0  0  0  0  0  0  0  0  0  0  0  0
   50.5400   31.2330   40.7750 C   0  0  0  0  0  0  0  0  0  0  0  0
   50.5220   30.3640   40.1250 H   0  0  0  0  0  0  0  0  0  0  0  0
   49.4650   31.6160   41.5500 C   0  0  0  0  0  0  0  0  0  0  0  0
   48.1800   31.1840   41.8020 C   0  0  0  0  0  0  0  0  0  0  0  0
   45.9230   35.2190   42.4790 C   0  0  0  0  0  0  0  0  0  0  0  0
   44.9460   36.2100   42.5480 F   0  0  0  0  0  0  0  0  0  0  0  0
   45.5030   34.2500   41.5880 F   0  0  0  0  0  0  0  0  0  0  0  0
   47.1440   35.7290   42.2330 F   0  0  0  0  0  0  0  0  0  0  0  0
   45.6230   33.0030   47.6220 O   0  0  0  0  0  0  0  0  0  0  0  0
   45.0540   31.7320   47.8440 C   0  0  0  0  0  0  0  0  0  0  0  0
   44.5110   31.7080   48.8240 H   0  0  0  0  0  0  0  0  0  0  0  0
   44.3120   31.4880   47.0540 H   0  0  0  0  0  0  0  0  0  0  0  0
   46.1450   30.7400   47.8340 C   0  0  0  0  0  0  0  0  0  0  0  0
   46.2090   29.4950   47.2310 C   0  0  0  0  0  0  0  0  0  0  0  0
   47.3670   28.7800   47.3830 C   0  0  0  0  0  0  0  0  0  0  0  0
   48.4030   29.2310   48.0720 N   0  0  0  0  0  0  0  0  0  0  0  0
   48.3190   30.4410   48.6480 C   0  0  0  0  0  0  0  0  0  0  0  0
   47.1950   31.2140   48.5410 N   0  0  0  0  0  0  0  0  0  0  0  0
   45.2960   29.2500   46.7010 H   0  0  0  0  0  0  0  0  0  0  0  0
   47.3550   27.8100   46.8860 H   0  0  0  0  0  0  0  0  0  0  0  0
   49.5310   30.8730   49.4040 C   0  0  0  0  0  0  0  0  0  0  0  0
   49.6360   32.2360   49.4470 F   0  0  0  0  0  0  0  0  0  0  0  0
   50.6830   30.3500   48.7920 F   0  0  0  0  0  0  0  0  0  0  0  0
   49.5220   30.4120   50.7040 F   0  0  0  0  0  0  0  0  0  0  0  0
  1  6  1  0  0  0  0
  2  3  1  0  0  0  0
  2  1  2  0  0  0  0
  3  4  2  0  0  0  0
  4  5  1  0  0  0  0
  5 24  1  0  0  0  0
  6  5  2  0  0  0  0
  7  1  1  0  0  0  0
  8  9  1  0  0  0  0
  9  3  1  0  0  0  0
 10  9  2  0  0  0  0
 10 11  1  0  0  0  0
 12 10  1  0  0  0  0
 13 14  1  0  0  0  0
 13 12  1  0  0  0  0
 15 13  1  0  0  0  0
 16 15  2  0  0  0  0
 16 18  1  0  0  0  0
 17 16  1  0  0  0  0
 18 19  1  0  0  0  0
 18 12  2  0  0  0  0
 19  8  2  0  0  0  0
 20 21  1  0  0  0  0
 20  2  1  0  0  0  0
 22 20  1  0  0  0  0
 23 20  1  0  0  0  0
 24 25  1  0  0  0  0
 25 26  1  0  0  0  0
 27 25  1  0  0  0  0
 28 25  1  0  0  0  0
 28 33  1  0  0  0  0
 29 30  1  0  0  0  0
 29 28  2  0  0  0  0
 30 31  2  0  0  0  0
 31 32  1  0  0  0  0
 32 36  1  0  0  0  0
 33 32  2  0  0  0  0
 34 29  1  0  0  0  0
 35 30  1  0  0  0  0
 36 37  1  0  0  0  0
 36 39  1  0  0  0  0
 38 36  1  0  0  0  0
M  END
>  <minimizedAffinity>
-6.65165091

>  <minimizedRMSD>
0.55879885

$$$$
