
 OpenBabel03242521323D

 34 38  0  0  0  0  0  0  0  0999 V2000
   44.3920   36.0280   44.6540 C   0  0  0  0  0  0  0  0  0  0  0  0
   44.9890   35.9510   43.3700 C   0  0  0  0  0  0  0  0  0  0  0  0
   45.9040   34.9310   43.1500 C   0  0  0  0  0  0  0  0  0  0  0  0
   46.1920   34.0610   44.1470 N   0  0  0  0  0  0  0  0  0  0  0  0
   45.6060   34.1570   45.3700 C   0  0  0  0  0  0  0  0  0  0  0  0
   44.7210   35.1320   45.6030 N   0  0  0  0  0  0  0  0  0  0  0  0
   43.6940   36.8480   44.7410 H   0  0  0  0  0  0  0  0  0  0  0  0
   44.7680   36.6400   42.5650 H   0  0  0  0  0  0  0  0  0  0  0  0
   47.8860   35.2340   41.7790 C   0  0  0  0  0  0  0  0  0  0  0  0
   46.5950   34.7340   41.8750 C   0  0  0  0  0  0  0  0  0  0  0  0
   46.0560   34.0980   40.7880 C   0  0  0  0  0  0  0  0  0  0  0  0
   46.7450   33.9330   39.6010 C   0  0  0  0  0  0  0  0  0  0  0  0
   46.4300   33.3530   38.4220 N   0  0  0  0  0  0  0  0  0  0  0  0
   47.5010   33.4840   37.5890 C   0  0  0  0  0  0  0  0  0  0  0  0
   48.4730   34.1430   38.2630 N   0  0  0  0  0  0  0  0  0  0  0  0
   48.0350   34.4320   39.5040 C   0  0  0  0  0  0  0  0  0  0  0  0
   48.5950   35.0750   40.5840 C   0  0  0  0  0  0  0  0  0  0  0  0
   48.3770   35.7530   42.6100 H   0  0  0  0  0  0  0  0  0  0  0  0
   45.0470   33.7100   40.8730 H   0  0  0  0  0  0  0  0  0  0  0  0
   45.5370   32.8840   38.1590 H   0  0  0  0  0  0  0  0  0  0  0  0
   47.6250   33.1470   36.5670 H   0  0  0  0  0  0  0  0  0  0  0  0
   49.6030   35.4770   40.5370 H   0  0  0  0  0  0  0  0  0  0  0  0
   45.2210   33.1620   47.5860 C   0  0  0  0  0  0  0  0  0  0  0  0
   45.9470   33.1960   46.4130 C   0  0  0  0  0  0  0  0  0  0  0  0
   46.9980   32.3240   46.2160 C   0  0  0  0  0  0  0  0  0  0  0  0
   47.5850   32.3300   45.3010 H   0  0  0  0  0  0  0  0  0  0  0  0
   47.3430   31.4040   47.1860 C   0  0  0  0  0  0  0  0  0  0  0  0
   48.2860   30.4470   47.2940 N   0  0  0  0  0  0  0  0  0  0  0  0
   48.9900   30.2380   46.5500 H   0  0  0  0  0  0  0  0  0  0  0  0
   48.1620   29.8500   48.4590 N   0  0  0  0  0  0  0  0  0  0  0  0
   47.1310   30.3850   49.1730 C   0  0  0  0  0  0  0  0  0  0  0  0
   46.8340   30.0510   50.1790 H   0  0  0  0  0  0  0  0  0  0  0  0
   46.6040   31.3860   48.3540 C   0  0  0  0  0  0  0  0  0  0  0  0
   45.5410   32.2440   48.5910 C   0  0  0  0  0  0  0  0  0  0  0  0
  1  7  1  0  0  0  0
  1  6  1  0  0  0  0
  2  1  2  0  0  0  0
  3  2  1  0  0  0  0
  3  4  2  0  0  0  0
  4  5  1  0  0  0  0
  5  6  2  0  0  0  0
  5 24  1  0  0  0  0
  8  2  1  0  0  0  0
  9 10  1  0  0  0  0
  9 18  1  0  0  0  0
 10  3  1  0  0  0  0
 11 19  1  0  0  0  0
 11 10  2  0  0  0  0
 12 11  1  0  0  0  0
 13 12  1  0  0  0  0
 14 15  2  0  0  0  0
 14 13  1  0  0  0  0
 15 16  1  0  0  0  0
 16 12  2  0  0  0  0
 16 17  1  0  0  0  0
 17  9  2  0  0  0  0
 20 13  1  0  0  0  0
 21 14  1  0  0  0  0
 22 17  1  0  0  0  0
 23 34  1  0  0  0  0
 24 23  2  0  0  0  0
 25 24  1  0  0  0  0
 25 27  2  0  0  0  0
 26 25  1  0  0  0  0
 27 28  1  0  0  0  0
 27 33  1  0  0  0  0
 28 30  1  0  0  0  0
 29 28  1  0  0  0  0
 30 31  2  0  0  0  0
 31 32  1  0  0  0  0
 33 34  2  0  0  0  0
 33 31  1  0  0  0  0
M  END
>  <minimizedAffinity>
-7.20988083

>  <minimizedRMSD>
0.309367478

$$$$
