
 OpenBabel03252500383D

 49 53  0  0  1  0  0  0  0  0999 V2000
   36.8770   25.6380   42.1580 C   0  0  1  0  0  0  0  0  0  0  0  0
   36.9010   24.4950   41.3570 C   0  0  0  0  0  0  0  0  0  0  0  0
   38.1270   24.7100   42.1480 C   0  0  1  0  0  0  0  0  0  0  0  0
   36.3080   25.6460   43.1290 H   0  0  0  0  0  0  0  0  0  0  0  0
   37.0430   24.5760   40.2410 H   0  0  0  0  0  0  0  0  0  0  0  0
   36.1950   23.6410   41.5700 H   0  0  0  0  0  0  0  0  0  0  0  0
   38.2910   24.2850   43.1470 H   0  0  0  0  0  0  0  0  0  0  0  0
   37.3820   28.0150   42.7340 C   0  0  0  0  0  0  0  0  0  0  0  0
   37.1010   27.0490   41.7140 C   0  0  0  0  0  0  0  0  0  0  0  0
   37.0430   27.4330   40.4120 C   0  0  0  0  0  0  0  0  0  0  0  0
   37.2660   28.7650   40.1400 N   0  0  0  0  0  0  0  0  0  0  0  0
   37.5310   29.6630   41.1140 C   0  0  0  0  0  0  0  0  0  0  0  0
   37.5980   29.3180   42.4460 N   0  0  0  0  0  0  0  0  0  0  0  0
   37.4160   27.6680   43.7440 H   0  0  0  0  0  0  0  0  0  0  0  0
   36.8330   26.7060   39.6590 H   0  0  0  0  0  0  0  0  0  0  0  0
   36.8320   31.7320   39.9690 C   0  0  0  0  0  3  0  0  0  0  0  0
   37.7540   31.0570   40.7400 C   0  0  0  0  0  0  0  0  0  0  0  0
   38.9110   31.6590   41.1840 C   0  0  0  0  0  0  0  0  0  0  0  0
   39.6320   31.1240   41.7890 H   0  0  0  0  0  0  0  0  0  0  0  0
   39.1980   32.9830   40.8720 C   0  0  0  0  0  0  0  0  0  0  0  0
   40.2480   33.7780   41.1840 N   0  0  0  0  0  0  0  0  0  0  0  0
   41.0800   33.5140   41.7560 H   0  0  0  0  0  0  0  0  0  0  0  0
   40.0140   34.9730   40.6200 N   0  0  0  0  0  0  0  0  0  0  0  0
   38.8480   34.9340   39.9680 C   0  0  0  0  0  0  0  0  0  0  0  0
   38.3650   35.7380   39.4010 H   0  0  0  0  0  0  0  0  0  0  0  0
   38.2860   33.6820   40.0970 C   0  0  0  0  0  0  0  0  0  0  0  0
   37.1480   33.0300   39.6820 C   0  0  0  0  0  3  0  0  0  0  0  0
   39.3710   25.1780   41.4880 C   0  0  0  0  0  0  0  0  0  0  0  0
   39.2570   26.2730   41.2880 H   0  0  0  0  0  0  0  0  0  0  0  0
   39.5380   24.6610   40.5410 H   0  0  0  0  0  0  0  0  0  0  0  0
   40.4260   25.0220   42.4230 N   0  0  0  0  0  0  0  0  0  0  0  0
   40.1850   25.3570   43.7590 C   0  0  0  0  0  0  0  0  0  0  0  0
   40.5420   26.8340   44.0370 C   0  0  0  0  0  0  0  0  0  0  0  0
   42.0350   26.9430   43.9050 C   0  0  0  0  0  0  0  0  0  0  0  0
   42.3700   26.5590   42.4910 C   0  0  0  0  0  0  0  0  0  0  0  0
   41.7450   25.2760   42.0230 C   0  0  2  0  0  0  0  0  0  0  0  0
   40.9790   24.8110   44.3540 H   0  0  0  0  0  0  0  0  0  0  0  0
   39.2630   25.0440   44.2350 H   0  0  0  0  0  0  0  0  0  0  0  0
   40.0770   27.4720   43.2760 H   0  0  0  0  0  0  0  0  0  0  0  0
   40.2060   27.1160   45.0420 H   0  0  0  0  0  0  0  0  0  0  0  0
   42.5940   26.3840   44.6610 H   0  0  0  0  0  0  0  0  0  0  0  0
   42.2920   28.0170   44.0070 H   0  0  0  0  0  0  0  0  0  0  0  0
   42.1430   27.3700   41.7850 H   0  0  0  0  0  0  0  0  0  0  0  0
   43.4860   26.4250   42.4510 H   0  0  0  0  0  0  0  0  0  0  0  0
   42.3990   24.4490   42.3900 H   0  0  0  0  0  0  0  0  0  0  0  0
   41.8970   25.2440   40.5090 C   0  0  0  0  0  0  0  0  0  0  0  0
   41.3900   26.1400   40.1020 H   0  0  0  0  0  0  0  0  0  0  0  0
   41.4270   24.3190   40.1060 H   0  0  0  0  0  0  0  0  0  0  0  0
   42.9790   25.2770   40.2940 H   0  0  0  0  0  0  0  0  0  0  0  0
  1  4  1  1  0  0  0
  2  6  1  0  0  0  0
  2  3  1  0  0  0  0
  2  1  1  0  0  0  0
  3  1  1  0  0  0  0
  3  7  1  1  0  0  0
  5  2  1  0  0  0  0
  8 14  1  0  0  0  0
  9  1  1  0  0  0  0
  9  8  2  0  0  0  0
 10  9  1  0  0  0  0
 11 10  2  0  0  0  0
 11 12  1  0  0  0  0
 12 13  2  0  0  0  0
 13  8  1  0  0  0  0
 15 10  1  0  0  0  0
 16 17  1  0  0  0  0
 17 12  1  0  0  0  0
 17 18  2  0  0  0  0
 18 19  1  0  0  0  0
 20 18  1  0  0  0  0
 20 21  1  0  0  0  0
 21 22  1  0  0  0  0
 23 21  1  0  0  0  0
 24 26  1  0  0  0  0
 24 23  2  0  0  0  0
 25 24  1  0  0  0  0
 26 20  2  0  0  0  0
 27 16  2  0  0  0  0
 27 26  1  0  0  0  0
 28  3  1  0  0  0  0
 28 31  1  0  0  0  0
 29 28  1  0  0  0  0
 30 28  1  0  0  0  0
 31 32  1  0  0  0  0
 32 33  1  0  0  0  0
 32 38  1  0  0  0  0
 32 37  1  0  0  0  0
 33 40  1  0  0  0  0
 34 42  1  0  0  0  0
 34 33  1  0  0  0  0
 34 41  1  0  0  0  0
 35 34  1  0  0  0  0
 36 45  1  1  0  0  0
 36 31  1  0  0  0  0
 36 35  1  0  0  0  0
 39 33  1  0  0  0  0
 43 35  1  0  0  0  0
 44 35  1  0  0  0  0
 46 36  1  0  0  0  0
 47 46  1  0  0  0  0
 48 46  1  0  0  0  0
 49 46  1  0  0  0  0
M  END
>  <minimizedAffinity>
-6.64445734

$$$$

 OpenBabel03252500383D

 49 53  0  0  1  0  0  0  0  0999 V2000
   38.6880   34.2240   40.2890 C   0  0  1  0  0  0  0  0  0  0  0  0
   39.6530   35.0980   40.7920 C   0  0  0  0  0  0  0  0  0  0  0  0
   39.9870   34.5120   39.4810 C   0  0  1  0  0  0  0  0  0  0  0  0
   37.7460   34.6200   39.8180 H   0  0  0  0  0  0  0  0  0  0  0  0
   40.3350   34.7810   41.6340 H   0  0  0  0  0  0  0  0  0  0  0  0
   39.4140   36.1940   40.9140 H   0  0  0  0  0  0  0  0  0  0  0  0
   39.7390   34.9850   38.5210 H   0  0  0  0  0  0  0  0  0  0  0  0
   37.3070   32.1470   40.1680 C   0  0  0  0  0  0  0  0  0  0  0  0
   38.4680   32.8000   40.6960 C   0  0  0  0  0  0  0  0  0  0  0  0
   39.3070   32.1300   41.5270 C   0  0  0  0  0  0  0  0  0  0  0  0
   38.9850   30.8240   41.8240 N   0  0  0  0  0  0  0  0  0  0  0  0
   37.8870   30.2210   41.3180 C   0  0  0  0  0  0  0  0  0  0  0  0
   37.0090   30.8630   40.4720 N   0  0  0  0  0  0  0  0  0  0  0  0
   36.6750   32.7130   39.5190 H   0  0  0  0  0  0  0  0  0  0  0  0
   40.1690   32.6270   41.9150 H   0  0  0  0  0  0  0  0  0  0  0  0
   37.5460   28.4580   43.0080 C   0  0  0  0  0  3  0  0  0  0  0  0
   37.6190   28.8340   41.6830 C   0  0  0  0  0  0  0  0  0  0  0  0
   37.4440   27.9260   40.6600 C   0  0  0  0  0  0  0  0  0  0  0  0
   37.5020   28.2260   39.6210 H   0  0  0  0  0  0  0  0  0  0  0  0
   37.1850   26.5870   40.9230 C   0  0  0  0  0  0  0  0  0  0  0  0
   36.9820   25.5280   40.1050 N   0  0  0  0  0  0  0  0  0  0  0  0
   36.9830   25.5380   39.0620 H   0  0  0  0  0  0  0  0  0  0  0  0
   36.7760   24.4610   40.8920 N   0  0  0  0  0  0  0  0  0  0  0  0
   36.8470   24.8340   42.1740 C   0  0  0  0  0  0  0  0  0  0  0  0
   36.7270   24.2110   43.0660 H   0  0  0  0  0  0  0  0  0  0  0  0
   37.1080   26.1860   42.2480 C   0  0  0  0  0  0  0  0  0  0  0  0
   37.2910   27.1350   43.2270 C   0  0  0  0  0  3  0  0  0  0  0  0
   41.0240   33.4560   39.3740 C   0  0  0  0  0  0  0  0  0  0  0  0
   40.6510   32.5590   39.9300 H   0  0  0  0  0  0  0  0  0  0  0  0
   41.9680   33.7790   39.8160 H   0  0  0  0  0  0  0  0  0  0  0  0
   41.1210   33.1000   38.0050 N   0  0  0  0  0  0  0  0  0  0  0  0
   40.3560   32.0250   37.5420 C   0  0  0  0  0  0  0  0  0  0  0  0
   41.1380   30.6970   37.6460 C   0  0  0  0  0  0  0  0  0  0  0  0
   42.2640   30.7880   36.6550 C   0  0  0  0  0  0  0  0  0  0  0  0
   43.1130   31.9550   37.0750 C   0  0  0  0  0  0  0  0  0  0  0  0
   42.3520   33.2210   37.3470 C   0  0  2  0  0  0  0  0  0  0  0  0
   40.2870   32.1660   36.4200 H   0  0  0  0  0  0  0  0  0  0  0  0
   39.3180   31.9330   37.8410 H   0  0  0  0  0  0  0  0  0  0  0  0
   41.5650   30.6030   38.6510 H   0  0  0  0  0  0  0  0  0  0  0  0
   40.4740   29.8540   37.4230 H   0  0  0  0  0  0  0  0  0  0  0  0
   41.9400   30.8280   35.6100 H   0  0  0  0  0  0  0  0  0  0  0  0
   42.8890   29.8810   36.7900 H   0  0  0  0  0  0  0  0  0  0  0  0
   43.7510   31.7050   37.9350 H   0  0  0  0  0  0  0  0  0  0  0  0
   43.8190   32.1610   36.2240 H   0  0  0  0  0  0  0  0  0  0  0  0
   42.1870   33.7120   36.3590 H   0  0  0  0  0  0  0  0  0  0  0  0
   43.3040   34.1510   38.0850 C   0  0  0  0  0  0  0  0  0  0  0  0
   43.6230   33.6370   39.0120 H   0  0  0  0  0  0  0  0  0  0  0  0
   42.7800   35.1010   38.3330 H   0  0  0  0  0  0  0  0  0  0  0  0
   44.1660   34.3250   37.4180 H   0  0  0  0  0  0  0  0  0  0  0  0
  1  4  1  6  0  0  0
  1  9  1  0  0  0  0
  1  2  1  0  0  0  0
  2  6  1  0  0  0  0
  2  5  1  0  0  0  0
  3  7  1  6  0  0  0
  3  1  1  0  0  0  0
  3  2  1  0  0  0  0
  8 13  2  0  0  0  0
  8  9  1  0  0  0  0
  9 10  2  0  0  0  0
 10 11  1  0  0  0  0
 10 15  1  0  0  0  0
 12 17  1  0  0  0  0
 12 11  2  0  0  0  0
 13 12  1  0  0  0  0
 14  8  1  0  0  0  0
 16 27  1  0  0  0  0
 17 16  2  0  0  0  0
 18 20  2  0  0  0  0
 18 17  1  0  0  0  0
 19 18  1  0  0  0  0
 20 26  1  0  0  0  0
 21 23  1  0  0  0  0
 21 20  1  0  0  0  0
 22 21  1  0  0  0  0
 23 24  2  0  0  0  0
 24 26  1  0  0  0  0
 24 25  1  0  0  0  0
 26 27  2  0  0  0  0
 28  3  1  0  0  0  0
 28 30  1  0  0  0  0
 28 29  1  0  0  0  0
 31 28  1  0  0  0  0
 32 33  1  0  0  0  0
 32 38  1  0  0  0  0
 32 31  1  0  0  0  0
 33 39  1  0  0  0  0
 34 42  1  0  0  0  0
 34 35  1  0  0  0  0
 34 33  1  0  0  0  0
 35 36  1  0  0  0  0
 35 43  1  0  0  0  0
 36 45  1  6  0  0  0
 36 31  1  0  0  0  0
 36 46  1  0  0  0  0
 37 32  1  0  0  0  0
 40 33  1  0  0  0  0
 41 34  1  0  0  0  0
 44 35  1  0  0  0  0
 46 48  1  0  0  0  0
 46 47  1  0  0  0  0
 49 46  1  0  0  0  0
M  END
>  <minimizedAffinity>
-6.37488365

$$$$

 OpenBabel03252500383D

 49 53  0  0  1  0  0  0  0  0999 V2000
   36.6990   25.7260   39.3160 C   0  0  1  0  0  0  0  0  0  0  0  0
   37.6170   24.7000   39.5470 C   0  0  0  0  0  0  0  0  0  0  0  0
   36.6530   24.9120   40.6420 C   0  0  1  0  0  0  0  0  0  0  0  0
   35.8170   25.5640   38.6360 H   0  0  0  0  0  0  0  0  0  0  0  0
   38.6880   24.9350   39.8140 H   0  0  0  0  0  0  0  0  0  0  0  0
   37.6000   23.7710   38.9070 H   0  0  0  0  0  0  0  0  0  0  0  0
   35.6970   24.3770   40.7250 H   0  0  0  0  0  0  0  0  0  0  0  0
   38.2570   27.6690   39.1310 C   0  0  0  0  0  0  0  0  0  0  0  0
   36.9430   27.1960   39.4530 C   0  0  0  0  0  0  0  0  0  0  0  0
   35.9880   28.0700   39.8640 C   0  0  0  0  0  0  0  0  0  0  0  0
   36.3470   29.3970   39.9500 N   0  0  0  0  0  0  0  0  0  0  0  0
   37.5900   29.8270   39.6420 C   0  0  0  0  0  0  0  0  0  0  0  0
   38.5890   28.9770   39.2220 N   0  0  0  0  0  0  0  0  0  0  0  0
   38.9760   26.9460   38.8140 H   0  0  0  0  0  0  0  0  0  0  0  0
   35.0120   27.7070   40.1010 H   0  0  0  0  0  0  0  0  0  0  0  0
   36.9520   32.1960   39.3990 C   0  0  0  0  0  3  0  0  0  0  0  0
   37.8880   31.2510   39.7610 C   0  0  0  0  0  0  0  0  0  0  0  0
   39.1290   31.6050   40.2440 C   0  0  0  0  0  0  0  0  0  0  0  0
   39.8610   30.8590   40.5280 H   0  0  0  0  0  0  0  0  0  0  0  0
   39.4910   32.9400   40.3870 C   0  0  0  0  0  0  0  0  0  0  0  0
   40.6280   33.5250   40.8300 N   0  0  0  0  0  0  0  0  0  0  0  0
   41.4900   33.0390   41.1640 H   0  0  0  0  0  0  0  0  0  0  0  0
   40.4380   34.8510   40.7580 N   0  0  0  0  0  0  0  0  0  0  0  0
   39.2140   35.0980   40.2820 C   0  0  0  0  0  0  0  0  0  0  0  0
   38.7440   36.0710   40.1010 H   0  0  0  0  0  0  0  0  0  0  0  0
   38.5670   33.9080   40.0290 C   0  0  0  0  0  0  0  0  0  0  0  0
   37.3440   33.4960   39.5520 C   0  0  0  0  0  3  0  0  0  0  0  0
   37.0840   25.5600   41.9050 C   0  0  0  0  0  0  0  0  0  0  0  0
   36.8750   24.8450   42.7400 H   0  0  0  0  0  0  0  0  0  0  0  0
   36.5350   26.4850   42.0870 H   0  0  0  0  0  0  0  0  0  0  0  0
   38.4900   25.7300   41.8310 N   0  0  0  0  0  0  0  0  0  0  0  0
   39.2970   24.5890   41.7980 C   0  0  0  0  0  0  0  0  0  0  0  0
   39.7140   24.1590   43.2230 C   0  0  0  0  0  0  0  0  0  0  0  0
   40.6310   25.2320   43.7380 C   0  0  0  0  0  0  0  0  0  0  0  0
   39.8330   26.5040   43.7650 C   0  0  0  0  0  0  0  0  0  0  0  0
   39.0900   26.8080   42.4960 C   0  0  2  0  0  0  0  0  0  0  0  0
   40.2850   24.9310   41.3610 H   0  0  0  0  0  0  0  0  0  0  0  0
   39.0250   23.7530   41.1640 H   0  0  0  0  0  0  0  0  0  0  0  0
   38.8270   24.1200   43.8660 H   0  0  0  0  0  0  0  0  0  0  0  0
   40.2150   23.1850   43.1870 H   0  0  0  0  0  0  0  0  0  0  0  0
   41.5780   25.3130   43.1940 H   0  0  0  0  0  0  0  0  0  0  0  0
   40.8600   24.9830   44.7960 H   0  0  0  0  0  0  0  0  0  0  0  0
   39.1450   26.5340   44.6220 H   0  0  0  0  0  0  0  0  0  0  0  0
   40.5660   27.3400   43.9360 H   0  0  0  0  0  0  0  0  0  0  0  0
   39.8210   27.2950   41.8070 H   0  0  0  0  0  0  0  0  0  0  0  0
   38.0870   27.9020   42.8280 C   0  0  0  0  0  0  0  0  0  0  0  0
   37.4250   27.5180   43.6290 H   0  0  0  0  0  0  0  0  0  0  0  0
   37.4900   28.1500   41.9220 H   0  0  0  0  0  0  0  0  0  0  0  0
   38.6650   28.7720   43.1840 H   0  0  0  0  0  0  0  0  0  0  0  0
  1  4  1  6  0  0  0
  1  9  1  0  0  0  0
  1  2  1  0  0  0  0
  1  3  1  0  0  0  0
  2  5  1  0  0  0  0
  2  3  1  0  0  0  0
  3  7  1  1  0  0  0
  3 28  1  0  0  0  0
  6  2  1  0  0  0  0
  8 13  2  0  0  0  0
  8  9  1  0  0  0  0
  9 10  2  0  0  0  0
 10 11  1  0  0  0  0
 10 15  1  0  0  0  0
 12 17  1  0  0  0  0
 12 11  2  0  0  0  0
 13 12  1  0  0  0  0
 14  8  1  0  0  0  0
 16 27  2  0  0  0  0
 16 17  1  0  0  0  0
 17 18  2  0  0  0  0
 18 20  1  0  0  0  0
 18 19  1  0  0  0  0
 20 21  1  0  0  0  0
 21 22  1  0  0  0  0
 23 21  1  0  0  0  0
 24 23  2  0  0  0  0
 25 24  1  0  0  0  0
 26 24  1  0  0  0  0
 26 20  2  0  0  0  0
 27 26  1  0  0  0  0
 28 30  1  0  0  0  0
 28 29  1  0  0  0  0
 31 28  1  0  0  0  0
 31 36  1  0  0  0  0
 32 31  1  0  0  0  0
 32 33  1  0  0  0  0
 33 34  1  0  0  0  0
 33 39  1  0  0  0  0
 34 35  1  0  0  0  0
 34 42  1  0  0  0  0
 35 44  1  0  0  0  0
 35 43  1  0  0  0  0
 36 45  1  6  0  0  0
 36 46  1  0  0  0  0
 36 35  1  0  0  0  0
 37 32  1  0  0  0  0
 38 32  1  0  0  0  0
 40 33  1  0  0  0  0
 41 34  1  0  0  0  0
 46 49  1  0  0  0  0
 46 47  1  0  0  0  0
 48 46  1  0  0  0  0
M  END
>  <minimizedAffinity>
-6.25783253

$$$$

 OpenBabel03252500383D

 49 53  0  0  1  0  0  0  0  0999 V2000
   35.9800   29.8430   38.2270 C   0  0  1  0  0  0  0  0  0  0  0  0
   36.1420   28.7810   37.3360 C   0  0  0  0  0  0  0  0  0  0  0  0
   35.9780   28.3750   38.7450 C   0  0  1  0  0  0  0  0  0  0  0  0
   34.9910   30.3720   38.3150 H   0  0  0  0  0  0  0  0  0  0  0  0
   37.1550   28.5470   36.8970 H   0  0  0  0  0  0  0  0  0  0  0  0
   35.3530   28.5700   36.5580 H   0  0  0  0  0  0  0  0  0  0  0  0
   35.0080   28.1360   39.2020 H   0  0  0  0  0  0  0  0  0  0  0  0
   38.2770   30.8020   38.0230 C   0  0  0  0  0  0  0  0  0  0  0  0
   37.0560   30.7320   38.7690 C   0  0  0  0  0  0  0  0  0  0  0  0
   36.9160   31.4500   39.9140 C   0  0  0  0  0  0  0  0  0  0  0  0
   37.9860   32.2260   40.3020 N   0  0  0  0  0  0  0  0  0  0  0  0
   39.1300   32.2810   39.5880 C   0  0  0  0  0  0  0  0  0  0  0  0
   39.3160   31.5700   38.4220 N   0  0  0  0  0  0  0  0  0  0  0  0
   38.3430   30.2190   37.1310 H   0  0  0  0  0  0  0  0  0  0  0  0
   36.0010   31.3910   40.4620 H   0  0  0  0  0  0  0  0  0  0  0  0
   40.3990   34.3950   39.5570 C   0  0  0  0  0  3  0  0  0  0  0  0
   40.2170   33.1290   40.0700 C   0  0  0  0  0  0  0  0  0  0  0  0
   41.0420   32.6140   41.0470 C   0  0  0  0  0  0  0  0  0  0  0  0
   40.8940   31.6190   41.4470 H   0  0  0  0  0  0  0  0  0  0  0  0
   42.0990   33.3570   41.5600 C   0  0  0  0  0  0  0  0  0  0  0  0
   43.0280   33.0740   42.5020 N   0  0  0  0  0  0  0  0  0  0  0  0
   43.1150   32.1870   43.0450 H   0  0  0  0  0  0  0  0  0  0  0  0
   43.8180   34.1540   42.6070 N   0  0  0  0  0  0  0  0  0  0  0  0
   43.4000   35.0940   41.7540 C   0  0  0  0  0  0  0  0  0  0  0  0
   43.8220   36.0910   41.5880 H   0  0  0  0  0  0  0  0  0  0  0  0
   42.3030   34.6330   41.0590 C   0  0  0  0  0  0  0  0  0  0  0  0
   41.4480   35.0940   40.0840 C   0  0  0  0  0  3  0  0  0  0  0  0
   37.1410   27.8790   39.5210 C   0  0  0  0  0  0  0  0  0  0  0  0
   37.8090   28.7540   39.7260 H   0  0  0  0  0  0  0  0  0  0  0  0
   37.7030   27.1290   38.9620 H   0  0  0  0  0  0  0  0  0  0  0  0
   36.6470   27.4170   40.7680 N   0  0  0  0  0  0  0  0  0  0  0  0
   36.2010   28.3620   41.6980 C   0  0  0  0  0  0  0  0  0  0  0  0
   37.3440   28.8020   42.6390 C   0  0  0  0  0  0  0  0  0  0  0  0
   37.6850   27.6050   43.4810 C   0  0  0  0  0  0  0  0  0  0  0  0
   38.1410   26.5300   42.5360 C   0  0  0  0  0  0  0  0  0  0  0  0
   37.2290   26.2920   41.3660 C   0  0  2  0  0  0  0  0  0  0  0  0
   35.5240   27.7930   42.4050 H   0  0  0  0  0  0  0  0  0  0  0  0
   35.5770   29.1860   41.3720 H   0  0  0  0  0  0  0  0  0  0  0  0
   38.2240   29.0710   42.0440 H   0  0  0  0  0  0  0  0  0  0  0  0
   37.0160   29.6460   43.2560 H   0  0  0  0  0  0  0  0  0  0  0  0
   36.8840   27.2900   44.1580 H   0  0  0  0  0  0  0  0  0  0  0  0
   38.5680   27.8790   44.0940 H   0  0  0  0  0  0  0  0  0  0  0  0
   39.1680   26.7060   42.1850 H   0  0  0  0  0  0  0  0  0  0  0  0
   38.1840   25.5760   43.1300 H   0  0  0  0  0  0  0  0  0  0  0  0
   36.4180   25.6140   41.7260 H   0  0  0  0  0  0  0  0  0  0  0  0
   38.0130   25.4560   40.3650 C   0  0  0  0  0  0  0  0  0  0  0  0
   38.9210   26.0270   40.0900 H   0  0  0  0  0  0  0  0  0  0  0  0
   37.3880   25.2690   39.4630 H   0  0  0  0  0  0  0  0  0  0  0  0
   38.2830   24.5150   40.8740 H   0  0  0  0  0  0  0  0  0  0  0  0
  1  4  1  6  0  0  0
  1  3  1  0  0  0  0
  1  9  1  0  0  0  0
  2  1  1  0  0  0  0
  2  3  1  0  0  0  0
  3  7  1  1  0  0  0
  3 28  1  0  0  0  0
  5  2  1  0  0  0  0
  6  2  1  0  0  0  0
  8 13  2  0  0  0  0
  8  9  1  0  0  0  0
  9 10  2  0  0  0  0
 10 11  1  0  0  0  0
 10 15  1  0  0  0  0
 12 17  1  0  0  0  0
 12 11  2  0  0  0  0
 13 12  1  0  0  0  0
 14  8  1  0  0  0  0
 16 17  2  0  0  0  0
 16 27  1  0  0  0  0
 17 18  1  0  0  0  0
 18 19  1  0  0  0  0
 18 20  2  0  0  0  0
 20 21  1  0  0  0  0
 21 23  1  0  0  0  0
 21 22  1  0  0  0  0
 24 23  2  0  0  0  0
 25 24  1  0  0  0  0
 26 20  1  0  0  0  0
 26 24  1  0  0  0  0
 27 26  2  0  0  0  0
 28 29  1  0  0  0  0
 28 31  1  0  0  0  0
 30 28  1  0  0  0  0
 31 36  1  0  0  0  0
 31 32  1  0  0  0  0
 32 37  1  0  0  0  0
 32 33  1  0  0  0  0
 33 40  1  0  0  0  0
 33 34  1  0  0  0  0
 34 42  1  0  0  0  0
 34 41  1  0  0  0  0
 35 44  1  0  0  0  0
 35 34  1  0  0  0  0
 36 45  1  1  0  0  0
 36 35  1  0  0  0  0
 38 32  1  0  0  0  0
 39 33  1  0  0  0  0
 43 35  1  0  0  0  0
 46 49  1  0  0  0  0
 46 36  1  0  0  0  0
 47 46  1  0  0  0  0
 48 46  1  0  0  0  0
M  END
>  <minimizedAffinity>
-6.18004274

$$$$

 OpenBabel03252500383D

 49 53  0  0  1  0  0  0  0  0999 V2000
   35.5200   30.1390   39.8780 C   0  0  1  0  0  0  0  0  0  0  0  0
   34.9710   29.0680   39.1690 C   0  0  0  0  0  0  0  0  0  0  0  0
   35.4940   28.7130   40.5010 C   0  0  1  0  0  0  0  0  0  0  0  0
   34.8550   30.8870   40.3920 H   0  0  0  0  0  0  0  0  0  0  0  0
   35.5300   28.6010   38.3070 H   0  0  0  0  0  0  0  0  0  0  0  0
   33.8680   29.0510   38.9360 H   0  0  0  0  0  0  0  0  0  0  0  0
   34.8850   28.7100   41.4150 H   0  0  0  0  0  0  0  0  0  0  0  0
   37.3760   31.5720   40.7370 C   0  0  0  0  0  0  0  0  0  0  0  0
   36.8740   30.7460   39.6790 C   0  0  0  0  0  0  0  0  0  0  0  0
   37.6170   30.5480   38.5600 C   0  0  0  0  0  0  0  0  0  0  0  0
   38.8450   31.1690   38.5040 N   0  0  0  0  0  0  0  0  0  0  0  0
   39.3050   31.9440   39.5100 C   0  0  0  0  0  0  0  0  0  0  0  0
   38.5860   32.1720   40.6620 N   0  0  0  0  0  0  0  0  0  0  0  0
   36.7580   31.7000   41.5980 H   0  0  0  0  0  0  0  0  0  0  0  0
   37.2330   29.9310   37.7770 H   0  0  0  0  0  0  0  0  0  0  0  0
   41.0910   33.4290   40.3350 C   0  0  0  0  0  3  0  0  0  0  0  0
   40.6180   32.5660   39.3700 C   0  0  0  0  0  0  0  0  0  0  0  0
   41.3540   32.2590   38.2460 C   0  0  0  0  0  0  0  0  0  0  0  0
   40.9780   31.5800   37.4900 H   0  0  0  0  0  0  0  0  0  0  0  0
   42.6130   32.8100   38.0380 C   0  0  0  0  0  0  0  0  0  0  0  0
   43.5080   32.6640   37.0340 N   0  0  0  0  0  0  0  0  0  0  0  0
   43.3990   32.0700   36.1830 H   0  0  0  0  0  0  0  0  0  0  0  0
   44.5670   33.4300   37.3400 N   0  0  0  0  0  0  0  0  0  0  0  0
   44.3470   34.0440   38.5070 C   0  0  0  0  0  0  0  0  0  0  0  0
   45.0070   34.7360   39.0400 H   0  0  0  0  0  0  0  0  0  0  0  0
   43.1100   33.6810   38.9950 C   0  0  0  0  0  0  0  0  0  0  0  0
   42.3310   33.9510   40.0960 C   0  0  0  0  0  3  0  0  0  0  0  0
   36.7630   27.9540   40.6300 C   0  0  0  0  0  0  0  0  0  0  0  0
   37.6030   28.6600   40.4060 H   0  0  0  0  0  0  0  0  0  0  0  0
   36.8040   27.1220   39.9260 H   0  0  0  0  0  0  0  0  0  0  0  0
   36.8840   27.5650   41.9880 N   0  0  0  0  0  0  0  0  0  0  0  0
   37.3410   28.5100   42.9130 C   0  0  0  0  0  0  0  0  0  0  0  0
   38.8780   28.4500   43.0580 C   0  0  0  0  0  0  0  0  0  0  0  0
   39.1920   27.1320   43.7080 C   0  0  0  0  0  0  0  0  0  0  0  0
   38.6910   26.0630   42.7790 C   0  0  0  0  0  0  0  0  0  0  0  0
   37.2810   26.2580   42.2990 C   0  0  2  0  0  0  0  0  0  0  0  0
   36.9980   28.1330   43.9240 H   0  0  0  0  0  0  0  0  0  0  0  0
   36.9560   29.5220   42.8850 H   0  0  0  0  0  0  0  0  0  0  0  0
   39.3400   28.4670   42.0640 H   0  0  0  0  0  0  0  0  0  0  0  0
   39.2290   29.2910   43.6670 H   0  0  0  0  0  0  0  0  0  0  0  0
   38.8200   27.0380   44.7340 H   0  0  0  0  0  0  0  0  0  0  0  0
   40.2970   27.0350   43.7300 H   0  0  0  0  0  0  0  0  0  0  0  0
   39.3650   25.9210   41.9230 H   0  0  0  0  0  0  0  0  0  0  0  0
   38.7220   25.0970   43.3530 H   0  0  0  0  0  0  0  0  0  0  0  0
   36.6130   25.8580   43.0990 H   0  0  0  0  0  0  0  0  0  0  0  0
   37.0850   25.3100   41.1250 C   0  0  0  0  0  0  0  0  0  0  0  0
   37.8380   25.5690   40.3550 H   0  0  0  0  0  0  0  0  0  0  0  0
   36.0580   25.4300   40.7140 H   0  0  0  0  0  0  0  0  0  0  0  0
   37.2530   24.2870   41.5050 H   0  0  0  0  0  0  0  0  0  0  0  0
  1  4  1  1  0  0  0
  1  3  1  0  0  0  0
  2  1  1  0  0  0  0
  2  3  1  0  0  0  0
  3 28  1  0  0  0  0
  3  7  1  1  0  0  0
  5  2  1  0  0  0  0
  6  2  1  0  0  0  0
  8 14  1  0  0  0  0
  9  1  1  0  0  0  0
  9  8  2  0  0  0  0
 10  9  1  0  0  0  0
 11 10  2  0  0  0  0
 11 12  1  0  0  0  0
 12 13  2  0  0  0  0
 13  8  1  0  0  0  0
 15 10  1  0  0  0  0
 17 12  1  0  0  0  0
 17 16  2  0  0  0  0
 18 17  1  0  0  0  0
 19 18  1  0  0  0  0
 20 18  2  0  0  0  0
 20 26  1  0  0  0  0
 21 23  1  0  0  0  0
 21 20  1  0  0  0  0
 22 21  1  0  0  0  0
 23 24  2  0  0  0  0
 24 26  1  0  0  0  0
 24 25  1  0  0  0  0
 26 27  2  0  0  0  0
 27 16  1  0  0  0  0
 28 31  1  0  0  0  0
 29 28  1  0  0  0  0
 30 28  1  0  0  0  0
 31 36  1  0  0  0  0
 31 32  1  0  0  0  0
 32 33  1  0  0  0  0
 32 37  1  0  0  0  0
 33 40  1  0  0  0  0
 33 34  1  0  0  0  0
 34 42  1  0  0  0  0
 34 41  1  0  0  0  0
 35 44  1  0  0  0  0
 35 34  1  0  0  0  0
 36 35  1  0  0  0  0
 36 45  1  1  0  0  0
 38 32  1  0  0  0  0
 39 33  1  0  0  0  0
 43 35  1  0  0  0  0
 46 49  1  0  0  0  0
 46 36  1  0  0  0  0
 47 46  1  0  0  0  0
 48 46  1  0  0  0  0
M  END
>  <minimizedAffinity>
-6.16999006

$$$$

 OpenBabel03252500383D

 49 53  0  0  1  0  0  0  0  0999 V2000
   38.5920   34.1910   40.2920 C   0  0  1  0  0  0  0  0  0  0  0  0
   39.5010   35.0990   40.8390 C   0  0  0  0  0  0  0  0  0  0  0  0
   39.9250   34.5110   39.5550 C   0  0  1  0  0  0  0  0  0  0  0  0
   37.6670   34.5540   39.7650 H   0  0  0  0  0  0  0  0  0  0  0  0
   40.1440   34.8100   41.7210 H   0  0  0  0  0  0  0  0  0  0  0  0
   39.2240   36.1880   40.9360 H   0  0  0  0  0  0  0  0  0  0  0  0
   39.7180   34.9670   38.5770 H   0  0  0  0  0  0  0  0  0  0  0  0
   37.2670   32.0800   40.1370 C   0  0  0  0  0  0  0  0  0  0  0  0
   38.3920   32.7650   40.7010 C   0  0  0  0  0  0  0  0  0  0  0  0
   39.2170   32.1210   41.5670 C   0  0  0  0  0  0  0  0  0  0  0  0
   38.9160   30.8090   41.8610 N   0  0  0  0  0  0  0  0  0  0  0  0
   37.8520   30.1770   41.3200 C   0  0  0  0  0  0  0  0  0  0  0  0
   36.9900   30.7910   40.4390 N   0  0  0  0  0  0  0  0  0  0  0  0
   36.6460   32.6260   39.4620 H   0  0  0  0  0  0  0  0  0  0  0  0
   40.0520   32.6410   41.9810 H   0  0  0  0  0  0  0  0  0  0  0  0
   37.4110   28.4300   43.0040 C   0  0  0  0  0  3  0  0  0  0  0  0
   37.6040   28.7850   41.6860 C   0  0  0  0  0  0  0  0  0  0  0  0
   37.5730   27.8540   40.6700 C   0  0  0  0  0  0  0  0  0  0  0  0
   37.7260   28.1390   39.6360 H   0  0  0  0  0  0  0  0  0  0  0  0
   37.3430   26.5090   40.9340 C   0  0  0  0  0  0  0  0  0  0  0  0
   37.2680   25.4290   40.1220 N   0  0  0  0  0  0  0  0  0  0  0  0
   37.3770   25.4210   39.0840 H   0  0  0  0  0  0  0  0  0  0  0  0
   37.0260   24.3670   40.9060 N   0  0  0  0  0  0  0  0  0  0  0  0
   36.9490   24.7660   42.1800 C   0  0  0  0  0  0  0  0  0  0  0  0
   36.7630   24.1530   43.0690 H   0  0  0  0  0  0  0  0  0  0  0  0
   37.1460   26.1280   42.2520 C   0  0  0  0  0  0  0  0  0  0  0  0
   37.1880   27.1000   43.2240 C   0  0  0  0  0  3  0  0  0  0  0  0
   40.9980   33.4860   39.5180 C   0  0  0  0  0  0  0  0  0  0  0  0
   40.7820   32.8030   38.6580 H   0  0  0  0  0  0  0  0  0  0  0  0
   41.0210   32.9000   40.4380 H   0  0  0  0  0  0  0  0  0  0  0  0
   42.2130   34.1600   39.2330 N   0  0  0  0  0  0  0  0  0  0  0  0
   42.5710   34.3480   37.8940 C   0  0  0  0  0  0  0  0  0  0  0  0
   43.4340   33.1760   37.3770 C   0  0  0  0  0  0  0  0  0  0  0  0
   44.7420   33.2550   38.1120 C   0  0  0  0  0  0  0  0  0  0  0  0
   44.4260   33.0960   39.5720 C   0  0  0  0  0  0  0  0  0  0  0  0
   43.3170   33.9750   40.0750 C   0  0  2  0  0  0  0  0  0  0  0  0
   43.3170   35.2010   37.8990 H   0  0  0  0  0  0  0  0  0  0  0  0
   41.8270   34.6770   37.1780 H   0  0  0  0  0  0  0  0  0  0  0  0
   42.9490   32.2260   37.6300 H   0  0  0  0  0  0  0  0  0  0  0  0
   43.5760   33.2660   36.2940 H   0  0  0  0  0  0  0  0  0  0  0  0
   45.3330   34.1480   37.8810 H   0  0  0  0  0  0  0  0  0  0  0  0
   45.3330   32.3630   37.8200 H   0  0  0  0  0  0  0  0  0  0  0  0
   44.2240   32.0470   39.8320 H   0  0  0  0  0  0  0  0  0  0  0  0
   45.3590   33.3730   40.1350 H   0  0  0  0  0  0  0  0  0  0  0  0
   43.7740   34.9700   40.2950 H   0  0  0  0  0  0  0  0  0  0  0  0
   42.9100   33.4290   41.4360 C   0  0  0  0  0  0  0  0  0  0  0  0
   42.5910   32.3790   41.2940 H   0  0  0  0  0  0  0  0  0  0  0  0
   42.0710   34.0340   41.8460 H   0  0  0  0  0  0  0  0  0  0  0  0
   43.8030   33.4810   42.0830 H   0  0  0  0  0  0  0  0  0  0  0  0
  1  4  1  6  0  0  0
  1  9  1  0  0  0  0
  1  2  1  0  0  0  0
  2  6  1  0  0  0  0
  2  5  1  0  0  0  0
  3  7  1  6  0  0  0
  3  1  1  0  0  0  0
  3  2  1  0  0  0  0
  8 13  2  0  0  0  0
  8  9  1  0  0  0  0
  9 10  2  0  0  0  0
 10 11  1  0  0  0  0
 10 15  1  0  0  0  0
 12 17  1  0  0  0  0
 12 11  2  0  0  0  0
 13 12  1  0  0  0  0
 14  8  1  0  0  0  0
 16 27  1  0  0  0  0
 17 16  2  0  0  0  0
 18 20  2  0  0  0  0
 18 17  1  0  0  0  0
 19 18  1  0  0  0  0
 20 26  1  0  0  0  0
 21 23  1  0  0  0  0
 21 20  1  0  0  0  0
 22 21  1  0  0  0  0
 23 24  2  0  0  0  0
 24 26  1  0  0  0  0
 24 25  1  0  0  0  0
 26 27  2  0  0  0  0
 28  3  1  0  0  0  0
 28 30  1  0  0  0  0
 29 28  1  0  0  0  0
 31 28  1  0  0  0  0
 31 36  1  0  0  0  0
 32 37  1  0  0  0  0
 32 31  1  0  0  0  0
 33 39  1  0  0  0  0
 33 32  1  0  0  0  0
 33 34  1  0  0  0  0
 34 35  1  0  0  0  0
 35 43  1  0  0  0  0
 35 36  1  0  0  0  0
 35 44  1  0  0  0  0
 36 45  1  1  0  0  0
 36 46  1  0  0  0  0
 38 32  1  0  0  0  0
 40 33  1  0  0  0  0
 41 34  1  0  0  0  0
 42 34  1  0  0  0  0
 46 48  1  0  0  0  0
 46 49  1  0  0  0  0
 47 46  1  0  0  0  0
M  END
>  <minimizedAffinity>
-6.14514637

$$$$

 OpenBabel03252500383D

 49 53  0  0  1  0  0  0  0  0999 V2000
   36.0210   30.0720   39.9020 C   0  0  1  0  0  0  0  0  0  0  0  0
   34.9310   29.2560   39.5930 C   0  0  0  0  0  0  0  0  0  0  0  0
   35.6530   28.8700   40.8200 C   0  0  1  0  0  0  0  0  0  0  0  0
   35.8650   31.0830   40.3690 H   0  0  0  0  0  0  0  0  0  0  0  0
   34.9950   28.5010   38.7560 H   0  0  0  0  0  0  0  0  0  0  0  0
   33.8850   29.6750   39.6220 H   0  0  0  0  0  0  0  0  0  0  0  0
   35.3850   29.2280   41.8230 H   0  0  0  0  0  0  0  0  0  0  0  0
   37.4770   29.4280   37.9770 C   0  0  0  0  0  0  0  0  0  0  0  0
   37.3790   30.0300   39.2750 C   0  0  0  0  0  0  0  0  0  0  0  0
   38.4900   30.5260   39.8800 C   0  0  0  0  0  0  0  0  0  0  0  0
   39.6790   30.4200   39.1920 N   0  0  0  0  0  0  0  0  0  0  0  0
   39.7550   29.8510   37.9700 C   0  0  0  0  0  0  0  0  0  0  0  0
   38.6550   29.3350   37.3200 N   0  0  0  0  0  0  0  0  0  0  0  0
   36.5790   29.0510   37.5410 H   0  0  0  0  0  0  0  0  0  0  0  0
   38.4060   30.9720   40.8460 H   0  0  0  0  0  0  0  0  0  0  0  0
   41.4830   28.6030   36.7310 C   0  0  0  0  0  3  0  0  0  0  0  0
   41.0550   29.7780   37.3100 C   0  0  0  0  0  0  0  0  0  0  0  0
   41.8270   30.9200   37.2940 C   0  0  0  0  0  0  0  0  0  0  0  0
   41.4870   31.8410   37.7510 H   0  0  0  0  0  0  0  0  0  0  0  0
   43.0770   30.9340   36.6860 C   0  0  0  0  0  0  0  0  0  0  0  0
   44.0020   31.9120   36.5440 N   0  0  0  0  0  0  0  0  0  0  0  0
   43.9280   32.8940   36.8890 H   0  0  0  0  0  0  0  0  0  0  0  0
   45.0330   31.3790   35.8710 N   0  0  0  0  0  0  0  0  0  0  0  0
   44.7680   30.0980   35.5960 C   0  0  0  0  0  0  0  0  0  0  0  0
   45.3980   29.3790   35.0610 H   0  0  0  0  0  0  0  0  0  0  0  0
   43.5290   29.7640   36.0970 C   0  0  0  0  0  0  0  0  0  0  0  0
   42.7150   28.6550   36.1450 C   0  0  0  0  0  3  0  0  0  0  0  0
   36.5270   27.6700   40.8290 C   0  0  0  0  0  0  0  0  0  0  0  0
   37.4860   27.9470   40.3240 H   0  0  0  0  0  0  0  0  0  0  0  0
   36.0700   26.8400   40.2880 H   0  0  0  0  0  0  0  0  0  0  0  0
   36.8260   27.3790   42.1850 N   0  0  0  0  0  0  0  0  0  0  0  0
   37.3220   28.4080   42.9920 C   0  0  0  0  0  0  0  0  0  0  0  0
   38.8660   28.4470   42.9600 C   0  0  0  0  0  0  0  0  0  0  0  0
   39.3370   27.1950   43.6450 C   0  0  0  0  0  0  0  0  0  0  0  0
   38.8040   26.0400   42.8440 C   0  0  0  0  0  0  0  0  0  0  0  0
   37.3390   26.1200   42.5220 C   0  0  2  0  0  0  0  0  0  0  0  0
   37.1210   28.0790   44.0570 H   0  0  0  0  0  0  0  0  0  0  0  0
   36.8700   29.3920   42.9500 H   0  0  0  0  0  0  0  0  0  0  0  0
   39.2100   28.4250   41.9190 H   0  0  0  0  0  0  0  0  0  0  0  0
   39.2280   29.3450   43.4720 H   0  0  0  0  0  0  0  0  0  0  0  0
   39.0910   27.1470   44.7110 H   0  0  0  0  0  0  0  0  0  0  0  0
   40.4410   27.1640   43.5420 H   0  0  0  0  0  0  0  0  0  0  0  0
   39.3850   25.8800   41.9250 H   0  0  0  0  0  0  0  0  0  0  0  0
   38.9630   25.1170   43.4670 H   0  0  0  0  0  0  0  0  0  0  0  0
   36.7940   25.7360   43.4170 H   0  0  0  0  0  0  0  0  0  0  0  0
   37.0740   25.0870   41.4370 C   0  0  0  0  0  0  0  0  0  0  0  0
   37.7160   25.3380   40.5710 H   0  0  0  0  0  0  0  0  0  0  0  0
   36.0020   25.1210   41.1430 H   0  0  0  0  0  0  0  0  0  0  0  0
   37.3500   24.1040   41.8550 H   0  0  0  0  0  0  0  0  0  0  0  0
  1  4  1  1  0  0  0
  1  3  1  0  0  0  0
  2  6  1  0  0  0  0
  2  1  1  0  0  0  0
  2  3  1  0  0  0  0
  3 28  1  0  0  0  0
  3  7  1  1  0  0  0
  5  2  1  0  0  0  0
  8  9  1  0  0  0  0
  9 10  2  0  0  0  0
  9  1  1  0  0  0  0
 10 15  1  0  0  0  0
 11 10  1  0  0  0  0
 12 11  2  0  0  0  0
 13 12  1  0  0  0  0
 13  8  2  0  0  0  0
 14  8  1  0  0  0  0
 16 17  1  0  0  0  0
 17 12  1  0  0  0  0
 18 17  2  0  0  0  0
 18 19  1  0  0  0  0
 20 18  1  0  0  0  0
 21 20  1  0  0  0  0
 21 22  1  0  0  0  0
 23 21  1  0  0  0  0
 24 23  2  0  0  0  0
 24 26  1  0  0  0  0
 25 24  1  0  0  0  0
 26 27  1  0  0  0  0
 26 20  2  0  0  0  0
 27 16  2  0  0  0  0
 28 31  1  0  0  0  0
 29 28  1  0  0  0  0
 30 28  1  0  0  0  0
 31 36  1  0  0  0  0
 31 32  1  0  0  0  0
 32 37  1  0  0  0  0
 33 32  1  0  0  0  0
 33 40  1  0  0  0  0
 33 34  1  0  0  0  0
 34 41  1  0  0  0  0
 35 44  1  0  0  0  0
 35 34  1  0  0  0  0
 36 35  1  0  0  0  0
 36 45  1  1  0  0  0
 38 32  1  0  0  0  0
 39 33  1  0  0  0  0
 42 34  1  0  0  0  0
 43 35  1  0  0  0  0
 46 49  1  0  0  0  0
 46 36  1  0  0  0  0
 47 46  1  0  0  0  0
 48 46  1  0  0  0  0
M  END
>  <minimizedAffinity>
-6.06726456

$$$$

 OpenBabel03252500383D

 49 53  0  0  1  0  0  0  0  0999 V2000
   36.2540   27.1400   39.3130 C   0  0  1  0  0  0  0  0  0  0  0  0
   36.4380   25.8840   38.7330 C   0  0  0  0  0  0  0  0  0  0  0  0
   36.7950   25.9530   40.1620 C   0  0  1  0  0  0  0  0  0  0  0  0
   35.2250   27.4930   39.6020 H   0  0  0  0  0  0  0  0  0  0  0  0
   37.3090   25.6910   38.0410 H   0  0  0  0  0  0  0  0  0  0  0  0
   35.5490   25.2940   38.3670 H   0  0  0  0  0  0  0  0  0  0  0  0
   36.0970   25.7210   40.9770 H   0  0  0  0  0  0  0  0  0  0  0  0
   37.0200   29.3550   40.1770 C   0  0  0  0  0  0  0  0  0  0  0  0
   37.1570   28.3270   39.1880 C   0  0  0  0  0  0  0  0  0  0  0  0
   38.0740   28.4580   38.1940 C   0  0  0  0  0  0  0  0  0  0  0  0
   38.8400   29.6030   38.1940 N   0  0  0  0  0  0  0  0  0  0  0  0
   38.6990   30.5620   39.1340 C   0  0  0  0  0  0  0  0  0  0  0  0
   37.7830   30.4710   40.1590 N   0  0  0  0  0  0  0  0  0  0  0  0
   36.2860   29.2090   40.9390 H   0  0  0  0  0  0  0  0  0  0  0  0
   38.1680   27.6860   37.4620 H   0  0  0  0  0  0  0  0  0  0  0  0
   39.4950   32.7120   40.0430 C   0  0  0  0  0  3  0  0  0  0  0  0
   39.5510   31.7460   39.0610 C   0  0  0  0  0  0  0  0  0  0  0  0
   40.4010   31.8540   37.9820 C   0  0  0  0  0  0  0  0  0  0  0  0
   40.4410   31.0920   37.2130 H   0  0  0  0  0  0  0  0  0  0  0  0
   41.2440   32.9500   37.8380 C   0  0  0  0  0  0  0  0  0  0  0  0
   42.1490   33.2750   36.8850 N   0  0  0  0  0  0  0  0  0  0  0  0
   42.3860   32.7180   36.0350 H   0  0  0  0  0  0  0  0  0  0  0  0
   42.6860   34.4520   37.2420 N   0  0  0  0  0  0  0  0  0  0  0  0
   42.1350   34.8600   38.3900 C   0  0  0  0  0  0  0  0  0  0  0  0
   42.3470   35.7760   38.9520 H   0  0  0  0  0  0  0  0  0  0  0  0
   41.2050   33.9350   38.8120 C   0  0  0  0  0  0  0  0  0  0  0  0
   40.3370   33.7730   39.8670 C   0  0  0  0  0  3  0  0  0  0  0  0
   38.2200   25.9510   40.5790 C   0  0  0  0  0  0  0  0  0  0  0  0
   38.6740   26.9130   40.2340 H   0  0  0  0  0  0  0  0  0  0  0  0
   38.7650   25.1210   40.1270 H   0  0  0  0  0  0  0  0  0  0  0  0
   38.2420   25.9510   41.9970 N   0  0  0  0  0  0  0  0  0  0  0  0
   37.0260   25.8530   42.6810 C   0  0  0  0  0  0  0  0  0  0  0  0
   36.4380   27.2510   42.9760 C   0  0  0  0  0  0  0  0  0  0  0  0
   37.3580   27.8970   43.9730 C   0  0  0  0  0  0  0  0  0  0  0  0
   38.7030   28.0010   43.3110 C   0  0  0  0  0  0  0  0  0  0  0  0
   39.1890   26.7320   42.6710 C   0  0  2  0  0  0  0  0  0  0  0  0
   37.2930   25.4900   43.7200 H   0  0  0  0  0  0  0  0  0  0  0  0
   36.2800   25.1380   42.3550 H   0  0  0  0  0  0  0  0  0  0  0  0
   36.4420   27.8500   42.0580 H   0  0  0  0  0  0  0  0  0  0  0  0
   35.4210   27.1520   43.3740 H   0  0  0  0  0  0  0  0  0  0  0  0
   37.3810   27.4020   44.9490 H   0  0  0  0  0  0  0  0  0  0  0  0
   37.0000   28.9370   44.1190 H   0  0  0  0  0  0  0  0  0  0  0  0
   38.7370   28.8270   42.5870 H   0  0  0  0  0  0  0  0  0  0  0  0
   39.4370   28.2750   44.1180 H   0  0  0  0  0  0  0  0  0  0  0  0
   39.6490   26.1210   43.4840 H   0  0  0  0  0  0  0  0  0  0  0  0
   40.3550   27.1170   41.7710 C   0  0  0  0  0  0  0  0  0  0  0  0
   39.9810   27.8510   41.0330 H   0  0  0  0  0  0  0  0  0  0  0  0
   40.7400   26.2110   41.2520 H   0  0  0  0  0  0  0  0  0  0  0  0
   41.1250   27.5720   42.4190 H   0  0  0  0  0  0  0  0  0  0  0  0
  1  4  1  1  0  0  0
  1  3  1  0  0  0  0
  2  1  1  0  0  0  0
  2  3  1  0  0  0  0
  3 28  1  0  0  0  0
  3  7  1  1  0  0  0
  5  2  1  0  0  0  0
  6  2  1  0  0  0  0
  8 14  1  0  0  0  0
  9  1  1  0  0  0  0
  9  8  2  0  0  0  0
 10 11  2  0  0  0  0
 10  9  1  0  0  0  0
 11 12  1  0  0  0  0
 12 13  2  0  0  0  0
 13  8  1  0  0  0  0
 15 10  1  0  0  0  0
 17 12  1  0  0  0  0
 17 16  2  0  0  0  0
 18 17  1  0  0  0  0
 19 18  1  0  0  0  0
 20 18  2  0  0  0  0
 20 26  1  0  0  0  0
 21 23  1  0  0  0  0
 21 20  1  0  0  0  0
 22 21  1  0  0  0  0
 23 24  2  0  0  0  0
 24 26  1  0  0  0  0
 24 25  1  0  0  0  0
 26 27  2  0  0  0  0
 27 16  1  0  0  0  0
 28 31  1  0  0  0  0
 29 28  1  0  0  0  0
 30 28  1  0  0  0  0
 31 36  1  0  0  0  0
 31 32  1  0  0  0  0
 32 33  1  0  0  0  0
 32 37  1  0  0  0  0
 33 40  1  0  0  0  0
 33 34  1  0  0  0  0
 34 42  1  0  0  0  0
 34 41  1  0  0  0  0
 35 34  1  0  0  0  0
 35 44  1  0  0  0  0
 36 35  1  0  0  0  0
 36 45  1  1  0  0  0
 38 32  1  0  0  0  0
 39 33  1  0  0  0  0
 43 35  1  0  0  0  0
 46 49  1  0  0  0  0
 46 36  1  0  0  0  0
 47 46  1  0  0  0  0
 48 46  1  0  0  0  0
M  END
>  <minimizedAffinity>
-6.01726294

$$$$

 OpenBabel03252500383D

 49 53  0  0  1  0  0  0  0  0999 V2000
   40.0960   31.1150   42.5980 C   0  0  1  0  0  0  0  0  0  0  0  0
   41.4780   31.3030   42.5250 C   0  0  0  0  0  0  0  0  0  0  0  0
   40.7170   31.9520   41.4410 C   0  0  1  0  0  0  0  0  0  0  0  0
   39.4750   31.7090   43.3240 H   0  0  0  0  0  0  0  0  0  0  0  0
   42.1560   30.4660   42.1860 H   0  0  0  0  0  0  0  0  0  0  0  0
   42.0100   31.8980   43.3220 H   0  0  0  0  0  0  0  0  0  0  0  0
   40.3550   32.9880   41.4860 H   0  0  0  0  0  0  0  0  0  0  0  0
   40.0730   28.6690   42.0960 C   0  0  0  0  0  0  0  0  0  0  0  0
   39.3340   29.8930   42.1910 C   0  0  0  0  0  0  0  0  0  0  0  0
   38.0040   29.9080   41.9150 C   0  0  0  0  0  0  0  0  0  0  0  0
   37.4260   28.7120   41.5490 N   0  0  0  0  0  0  0  0  0  0  0  0
   38.1360   27.5670   41.4640 C   0  0  0  0  0  0  0  0  0  0  0  0
   39.4860   27.5050   41.7350 N   0  0  0  0  0  0  0  0  0  0  0  0
   41.1160   28.7050   42.3210 H   0  0  0  0  0  0  0  0  0  0  0  0
   37.4630   30.8260   41.9890 H   0  0  0  0  0  0  0  0  0  0  0  0
   37.2970   25.3020   41.9600 C   0  0  0  0  0  3  0  0  0  0  0  0
   37.4460   26.3430   41.0680 C   0  0  0  0  0  0  0  0  0  0  0  0
   36.9580   26.2730   39.7810 C   0  0  0  0  0  0  0  0  0  0  0  0
   37.0780   27.0930   39.0850 H   0  0  0  0  0  0  0  0  0  0  0  0
   36.2890   25.1420   39.3260 C   0  0  0  0  0  0  0  0  0  0  0  0
   35.7310   24.8430   38.1300 N   0  0  0  0  0  0  0  0  0  0  0  0
   35.7040   25.4550   37.2850 H   0  0  0  0  0  0  0  0  0  0  0  0
   35.2160   23.6090   38.2380 N   0  0  0  0  0  0  0  0  0  0  0  0
   35.4430   23.1400   39.4690 C   0  0  0  0  0  0  0  0  0  0  0  0
   35.1560   22.1680   39.8840 H   0  0  0  0  0  0  0  0  0  0  0  0
   36.1280   24.0830   40.2040 C   0  0  0  0  0  0  0  0  0  0  0  0
   36.6360   24.2080   41.4770 C   0  0  0  0  0  3  0  0  0  0  0  0
   40.7390   31.3870   40.0690 C   0  0  0  0  0  0  0  0  0  0  0  0
   40.1950   30.4100   40.0970 H   0  0  0  0  0  0  0  0  0  0  0  0
   41.7600   31.2130   39.7260 H   0  0  0  0  0  0  0  0  0  0  0  0
   39.9950   32.2670   39.2410 N   0  0  0  0  0  0  0  0  0  0  0  0
   39.7960   33.5810   39.6780 C   0  0  0  0  0  0  0  0  0  0  0  0
   38.4900   33.7060   40.4930 C   0  0  0  0  0  0  0  0  0  0  0  0
   37.3620   33.4740   39.5270 C   0  0  0  0  0  0  0  0  0  0  0  0
   37.5370   32.0820   38.9880 C   0  0  0  0  0  0  0  0  0  0  0  0
   38.9200   31.7680   38.4950 C   0  0  2  0  0  0  0  0  0  0  0  0
   39.5450   34.1730   38.7450 H   0  0  0  0  0  0  0  0  0  0  0  0
   40.6210   34.1380   40.1070 H   0  0  0  0  0  0  0  0  0  0  0  0
   38.4600   32.9210   41.2580 H   0  0  0  0  0  0  0  0  0  0  0  0
   38.4290   34.7000   40.9500 H   0  0  0  0  0  0  0  0  0  0  0  0
   37.2700   34.2420   38.7520 H   0  0  0  0  0  0  0  0  0  0  0  0
   36.4240   33.4650   40.1190 H   0  0  0  0  0  0  0  0  0  0  0  0
   37.2110   31.3220   39.7120 H   0  0  0  0  0  0  0  0  0  0  0  0
   36.8360   31.9870   38.1130 H   0  0  0  0  0  0  0  0  0  0  0  0
   38.9870   32.1660   37.4540 H   0  0  0  0  0  0  0  0  0  0  0  0
   38.9920   30.2560   38.3340 C   0  0  0  0  0  0  0  0  0  0  0  0
   38.7770   29.8030   39.3210 H   0  0  0  0  0  0  0  0  0  0  0  0
   40.0100   29.9650   37.9910 H   0  0  0  0  0  0  0  0  0  0  0  0
   38.2190   29.9740   37.5980 H   0  0  0  0  0  0  0  0  0  0  0  0
  1  4  1  1  0  0  0
  2  1  1  0  0  0  0
  2  6  1  0  0  0  0
  3  7  1  1  0  0  0
  3  2  1  0  0  0  0
  3  1  1  0  0  0  0
  5  2  1  0  0  0  0
  8  9  1  0  0  0  0
  8 14  1  0  0  0  0
  9  1  1  0  0  0  0
 10 15  1  0  0  0  0
 10  9  2  0  0  0  0
 11 10  1  0  0  0  0
 12 11  2  0  0  0  0
 12 13  1  0  0  0  0
 13  8  2  0  0  0  0
 17 12  1  0  0  0  0
 17 16  2  0  0  0  0
 18 17  1  0  0  0  0
 19 18  1  0  0  0  0
 20 18  2  0  0  0  0
 20 26  1  0  0  0  0
 21 23  1  0  0  0  0
 21 20  1  0  0  0  0
 22 21  1  0  0  0  0
 23 24  2  0  0  0  0
 24 25  1  0  0  0  0
 24 26  1  0  0  0  0
 26 27  2  0  0  0  0
 27 16  1  0  0  0  0
 28 29  1  0  0  0  0
 28  3  1  0  0  0  0
 30 28  1  0  0  0  0
 31 32  1  0  0  0  0
 31 28  1  0  0  0  0
 32 38  1  0  0  0  0
 32 33  1  0  0  0  0
 33 40  1  0  0  0  0
 33 39  1  0  0  0  0
 34 42  1  0  0  0  0
 34 33  1  0  0  0  0
 35 34  1  0  0  0  0
 35 43  1  0  0  0  0
 36 45  1  6  0  0  0
 36 35  1  0  0  0  0
 36 31  1  0  0  0  0
 37 32  1  0  0  0  0
 41 34  1  0  0  0  0
 44 35  1  0  0  0  0
 46 36  1  0  0  0  0
 46 47  1  0  0  0  0
 48 46  1  0  0  0  0
 49 46  1  0  0  0  0
M  END
>  <minimizedAffinity>
-5.93968534

$$$$
