REMARK  Name = 
REMARK  9 active torsions:
REMARK  status: ('A' for Active; 'I' for Inactive)
REMARK    1  A    between atoms: N_1  and  C_7
REMARK    2  A    between atoms: C_6  and  O_15
REMARK    3  A    between atoms: C_7  and  C_8
REMARK    4  A    between atoms: C_8  and  C_11
REMARK    5  A    between atoms: O_15  and  P_17
REMARK    6  A    between atoms: P_17  and  O_18
REMARK    7  A    between atoms: P_17  and  O_19
REMARK    8  A    between atoms: O_19  and  C_20
REMARK    9  A    between atoms: C_20  and  C_41
REMARK                            x       y       z     vdW  Elec       q    Type
REMARK                         _______ _______ _______ _____ _____    ______ ____
ROOT
ATOM      1  N   UNL     1      47.155  34.158  43.076  0.00  0.00    +0.000 NA
ATOM      2  C   UNL     1      46.648  35.353  42.519  0.00  0.00    +0.000 C 
ATOM      3  C   UNL     1      45.155  35.566  42.720  0.00  0.00    +0.000 C 
ATOM      4  C   UNL     1      44.647  35.045  44.040  0.00  0.00    +0.000 C 
ATOM      5  C   UNL     1      45.772  34.492  44.900  0.00  0.00    +0.000 C 
ATOM      6  C   UNL     1      46.425  33.400  43.959  0.00  0.00    +0.000 C 
ATOM      7  H   UNL     1      46.833  35.516  41.453  0.00  0.00    +0.000 HD
ATOM      8  H   UNL     1      47.134  36.222  43.033  0.00  0.00    +0.000 HD
ATOM      9  H   UNL     1      44.635  35.066  41.861  0.00  0.00    +0.000 HD
ATOM     10  H   UNL     1      44.943  36.651  42.615  0.00  0.00    +0.000 HD
ATOM     11  H   UNL     1      44.068  35.797  44.613  0.00  0.00    +0.000 HD
ATOM     12  H   UNL     1      43.962  34.186  43.861  0.00  0.00    +0.000 HD
ATOM     13  H   UNL     1      45.343  33.994  45.771  0.00  0.00    +0.000 HD
ATOM     14  H   UNL     1      46.536  35.248  45.119  0.00  0.00    +0.000 HD
ATOM     15  H   UNL     1      45.599  32.775  43.579  0.00  0.00    +0.000 HD
ENDROOT
BRANCH   1  16
ATOM     16  C   UNL     1      48.151  33.501  42.265  0.00  0.00    +0.000 C 
ATOM     17  H   UNL     1      48.855  34.237  41.854  0.00  0.00    +0.000 HD
ATOM     18  H   UNL     1      48.747  32.824  42.937  0.00  0.00    +0.000 HD
BRANCH  16  19
ATOM     19  C   UNL     1      47.453  32.659  41.262  0.00  0.00    +0.000 C 
ATOM     20  H   UNL     1      46.368  32.912  41.189  0.00  0.00    +0.000 HD
ATOM     21  H   UNL     1      47.499  31.567  41.461  0.00  0.00    +0.000 HD
BRANCH  19  24
ATOM     22  C   UNL     1      49.348  32.272  38.034  0.00  0.00    +0.000 A 
ATOM     23  C   UNL     1      48.819  32.025  39.313  0.00  0.00    +0.000 A 
ATOM     24  C   UNL     1      48.002  32.940  39.907  0.00  0.00    +0.000 A 
ATOM     25  N   UNL     1      47.730  34.066  39.228  0.00  0.00    +0.000 NA
ATOM     26  C   UNL     1      48.229  34.310  38.008  0.00  0.00    +0.000 A 
ATOM     27  N   UNL     1      49.038  33.426  37.398  0.00  0.00    +0.000 NA
ATOM     28  H   UNL     1      49.996  31.532  37.578  0.00  0.00    +0.000 HD
ATOM     29  H   UNL     1      49.098  31.084  39.782  0.00  0.00    +0.000 HD
ATOM     30  H   UNL     1      47.911  35.261  37.604  0.00  0.00    +0.000 HD
ENDBRANCH  19  24
ENDBRANCH  16  19
ENDBRANCH   1  16
BRANCH   6  31
ATOM     31  O   UNL     1      47.210  32.715  44.866  0.00  0.00    +0.000 OA
BRANCH  31  33
ATOM     32  O   UNL     1      46.031  30.543  43.878  0.00  0.00    +0.000 OA
ATOM     33  P   UNL     1      46.691  31.147  45.128  0.00  0.00    +0.000 P 
BRANCH  33  34
ATOM     34  O   UNL     1      45.404  31.267  46.262  0.00  0.00    +0.000 OA
ATOM     35  H   UNL     1      44.550  31.437  45.826  0.00  0.00    +0.000 HD
ENDBRANCH  33  34
BRANCH  33  36
ATOM     36  O   UNL     1      47.849  30.146  45.788  0.00  0.00    +0.000 OA
BRANCH  36  37
ATOM     37  C   UNL     1      47.746  28.896  45.206  0.00  0.00    +0.000 C 
ATOM     38  H   UNL     1      46.732  28.522  45.442  0.00  0.00    +0.000 HD
ATOM     39  H   UNL     1      47.860  28.932  44.098  0.00  0.00    +0.000 HD
BRANCH  37  41
ATOM     40  C   UNL     1      49.462  28.284  46.953  0.00  0.00    +0.000 A 
ATOM     41  C   UNL     1      48.771  27.986  45.782  0.00  0.00    +0.000 A 
ATOM     42  C   UNL     1      49.014  26.799  45.082  0.00  0.00    +0.000 A 
ATOM     43  H   UNL     1      48.492  26.546  44.174  0.00  0.00    +0.000 HD
ATOM     44  C   UNL     1      49.960  25.925  45.583  0.00  0.00    +0.000 A 
ATOM     45  N   UNL     1      50.406  24.719  45.136  0.00  0.00    +0.000 N 
ATOM     46  H   UNL     1      50.035  24.272  44.261  0.00  0.00    +0.000 HD
ATOM     47  N   UNL     1      51.329  24.271  45.974  0.00  0.00    +0.000 NA
ATOM     48  C   UNL     1      51.514  25.156  46.979  0.00  0.00    +0.000 A 
ATOM     49  H   UNL     1      52.215  25.030  47.799  0.00  0.00    +0.000 HD
ATOM     50  C   UNL     1      50.650  26.223  46.753  0.00  0.00    +0.000 A 
ATOM     51  C   UNL     1      50.416  27.390  47.446  0.00  0.00    +0.000 A 
ENDBRANCH  37  41
ENDBRANCH  36  37
ENDBRANCH  33  36
ENDBRANCH  31  33
ENDBRANCH   6  31
TORSDOF 9
