
     RDKit          3D

 53 56  0  0  0  0  0  0  0  0999 V2000
   47.1550   34.1585   43.0761 N   0  0  0  0  0  0  0  0  0  0  0  0
   46.6481   35.3530   42.5190 C   0  0  0  0  0  0  0  0  0  0  0  0
   45.1550   35.5661   42.7197 C   0  0  0  0  0  0  0  0  0  0  0  0
   44.6471   35.0450   44.0399 C   0  0  0  0  0  0  0  0  0  0  0  0
   45.7716   34.4922   44.8999 C   0  0  0  0  0  0  0  0  0  0  0  0
   46.4247   33.3997   43.9585 C   0  0  2  0  0  0  0  0  0  0  0  0
   48.1506   33.5011   42.2646 C   0  0  0  0  0  0  0  0  0  0  0  0
   47.4528   32.6588   41.2620 C   0  0  0  0  0  0  0  0  0  0  0  0
   49.3478   32.2717   38.0342 C   0  0  0  0  0  0  0  0  0  0  0  0
   48.8194   32.0248   39.3130 C   0  0  0  0  0  0  0  0  0  0  0  0
   48.0019   32.9401   39.9069 C   0  0  0  0  0  0  0  0  0  0  0  0
   47.7297   34.0658   39.2284 N   0  0  0  0  0  0  0  0  0  0  0  0
   48.2291   34.3100   38.0082 C   0  0  0  0  0  0  0  0  0  0  0  0
   49.0380   33.4260   37.3975 N   0  0  0  0  0  0  0  0  0  0  0  0
   47.2102   32.7147   44.8656 O   0  0  0  0  0  0  0  0  0  0  0  0
   46.0310   30.5433   43.8781 O   0  0  0  0  0  0  0  0  0  0  0  0
   46.6912   31.1469   45.1283 P   0  0  2  0  0  0  0  0  0  0  0  0
   45.4036   31.2672   46.2616 O   0  0  0  0  0  0  0  0  0  0  0  0
   47.8490   30.1464   45.7884 O   0  0  0  0  0  0  0  0  0  0  0  0
   47.7460   28.8957   45.2062 C   0  0  0  0  0  0  0  0  0  0  0  0
   46.8325   35.5163   41.4529 H   0  0  0  0  0  0  0  0  0  0  0  0
   47.1342   36.2219   43.0335 H   0  0  0  0  0  0  0  0  0  0  0  0
   44.6346   35.0662   41.8610 H   0  0  0  0  0  0  0  0  0  0  0  0
   44.9427   36.6505   42.6148 H   0  0  0  0  0  0  0  0  0  0  0  0
   44.0679   35.7968   44.6134 H   0  0  0  0  0  0  0  0  0  0  0  0
   43.9619   34.1862   43.8611 H   0  0  0  0  0  0  0  0  0  0  0  0
   45.3434   33.9944   45.7707 H   0  0  0  0  0  0  0  0  0  0  0  0
   46.5363   35.2476   45.1189 H   0  0  0  0  0  0  0  0  0  0  0  0
   45.5991   32.7746   43.5788 H   0  0  0  0  0  0  0  0  0  0  0  0
   48.8545   34.2371   41.8537 H   0  0  0  0  0  0  0  0  0  0  0  0
   48.7466   32.8241   42.9366 H   0  0  0  0  0  0  0  0  0  0  0  0
   46.3682   32.9121   41.1892 H   0  0  0  0  0  0  0  0  0  0  0  0
   47.4991   31.5667   41.4606 H   0  0  0  0  0  0  0  0  0  0  0  0
   49.9961   31.5322   37.5780 H   0  0  0  0  0  0  0  0  0  0  0  0
   49.0980   31.0838   39.7820 H   0  0  0  0  0  0  0  0  0  0  0  0
   47.9113   35.2610   37.6038 H   0  0  0  0  0  0  0  0  0  0  0  0
   44.5500   31.4372   45.8257 H   0  0  0  0  0  0  0  0  0  0  0  0
   46.7321   28.5217   45.4420 H   0  0  0  0  0  0  0  0  0  0  0  0
   47.8600   28.9317   44.0981 H   0  0  0  0  0  0  0  0  0  0  0  0
   49.1120   26.7734   45.1901 C   0  0  0  0  0  0  0  0  0  0  0  0
   48.7714   27.9862   45.7819 C   0  0  0  0  0  0  0  0  0  0  0  0
   49.3874   28.4120   46.9638 C   0  0  0  0  0  0  0  0  0  0  0  0
   49.1414   29.3455   47.4408 H   0  0  0  0  0  0  0  0  0  0  0  0
   50.3474   27.5957   47.5330 C   0  0  0  0  0  0  0  0  0  0  0  0
   51.1046   27.7342   48.6549 N   0  0  0  0  0  0  0  0  0  0  0  0
   51.0319   28.5748   49.2816 H   0  0  0  0  0  0  0  0  0  0  0  0
   51.8851   26.6710   48.7742 N   0  0  0  0  0  0  0  0  0  0  0  0
   51.6667   25.8165   47.7502 C   0  0  0  0  0  0  0  0  0  0  0  0
   52.1771   24.8679   47.6103 H   0  0  0  0  0  0  0  0  0  0  0  0
   50.6873   26.3838   46.9411 C   0  0  0  0  0  0  0  0  0  0  0  0
   50.0841   25.9599   45.7777 C   0  0  0  0  0  0  0  0  0  0  0  0
   48.6175   26.4683   44.2726 H   0  0  0  0  0  0  0  0  0  0  0  0
   50.3716   25.0119   45.3432 H   0  0  0  0  0  0  0  0  0  0  0  0
  1  6  1  0
  2  3  1  0
  2  1  1  0
  3  4  1  0
  4  5  1  0
  6 15  1  0
  6  5  1  0
  7  1  1  0
  8  7  1  0
  9 10  2  0
 10 11  1  0
 11  8  1  0
 12 11  2  0
 13 12  1  0
 14 13  2  0
 14  9  1  0
 17 15  1  6
 17 16  2  0
 17 19  1  0
 17 18  1  0
 20 19  1  0
  2 21  1  0
  2 22  1  0
  3 23  1  0
  3 24  1  0
  4 25  1  0
  4 26  1  0
  5 27  1  0
  5 28  1  0
  6 29  1  6
  7 30  1  0
  7 31  1  0
  8 32  1  0
  8 33  1  0
  9 34  1  0
 10 35  1  0
 13 36  1  0
 18 37  1  0
 20 38  1  0
 20 39  1  0
 40 41  2  0
 41 42  1  0
 42 43  1  0
 42 44  2  0
 44 45  1  0
 45 46  1  0
 45 47  1  0
 47 48  2  0
 48 49  1  0
 48 50  1  0
 50 51  2  0
 51 40  1  0
 50 44  1  0
 40 52  1  0
 51 53  1  0
 20 41  1  0
M  ISO  8  21  13  22  13  23  13  24  13  25  13  26  13  27  13  28  13
M  ISO  8  29  13  30   8  31   8  32   8  33   8  34  14  35  14  36  14
M  ISO  6  37   3  38   8  39   8  43  16  46   5  49  15
M  END
>  <DihAtoms>  (1) 
18,19,40,39

>  <DihDeg>  (1) 
-89.99908483684925

$$$$
