
 OpenBabel03252509043D

 51 54  0  0  1  0  0  0  0  0999 V2000
   46.5510   34.5250   43.7250 N   0  0  0  0  0  0  0  0  0  0  0  0
   46.1590   35.2380   42.5700 C   0  0  0  0  0  0  0  0  0  0  0  0
   44.6600   35.2590   42.3130 C   0  0  0  0  0  0  0  0  0  0  0  0
   43.8350   35.3050   43.5730 C   0  0  0  0  0  0  0  0  0  0  0  0
   44.7070   35.3970   44.8160 C   0  0  0  0  0  0  0  0  0  0  0  0
   45.6440   34.1290   44.6780 C   0  0  2  0  0  0  0  0  0  0  0  0
   46.6210   34.9370   41.6250 H   0  0  0  0  0  0  0  0  0  0  0  0
   46.4430   36.3140   42.7000 H   0  0  0  0  0  0  0  0  0  0  0  0
   44.4200   34.3470   41.7060 H   0  0  0  0  0  0  0  0  0  0  0  0
   44.4330   36.1280   41.6600 H   0  0  0  0  0  0  0  0  0  0  0  0
   43.0860   36.1220   43.5760 H   0  0  0  0  0  0  0  0  0  0  0  0
   43.2680   34.3530   43.6800 H   0  0  0  0  0  0  0  0  0  0  0  0
   44.0800   35.2750   45.7010 H   0  0  0  0  0  0  0  0  0  0  0  0
   45.3440   36.2890   44.8090 H   0  0  0  0  0  0  0  0  0  0  0  0
   44.9850   33.2690   44.4710 H   0  0  0  0  0  0  0  0  0  0  0  0
   47.7620   33.7570   43.5660 C   0  0  0  0  0  0  0  0  0  0  0  0
   48.5320   34.3570   43.0630 H   0  0  0  0  0  0  0  0  0  0  0  0
   48.1550   33.5210   44.5930 H   0  0  0  0  0  0  0  0  0  0  0  0
   47.4160   32.4770   42.8980 C   0  0  0  0  0  0  0  0  0  0  0  0
   46.3530   32.4590   42.5580 H   0  0  0  0  0  0  0  0  0  0  0  0
   47.5500   31.5740   43.5300 H   0  0  0  0  0  0  0  0  0  0  0  0
   50.1150   31.4210   40.4980 C   0  0  0  0  0  0  0  0  0  0  0  0
   49.3450   31.5680   41.6650 C   0  0  0  0  0  0  0  0  0  0  0  0
   48.2170   32.3340   41.6510 C   0  0  0  0  0  0  0  0  0  0  0  0
   47.8810   32.9280   40.4950 N   0  0  0  0  0  0  0  0  0  0  0  0
   48.6090   32.7930   39.3780 C   0  0  0  0  0  0  0  0  0  0  0  0
   49.7260   32.0450   39.3620 N   0  0  0  0  0  0  0  0  0  0  0  0
   51.0090   30.8080   40.5290 H   0  0  0  0  0  0  0  0  0  0  0  0
   49.6990   31.0480   42.5520 H   0  0  0  0  0  0  0  0  0  0  0  0
   48.1990   33.3360   38.5380 H   0  0  0  0  0  0  0  0  0  0  0  0
   46.1830   34.0680   45.9490 O   0  0  0  0  0  0  0  0  0  0  0  0
   45.4280   31.5280   45.7040 O   0  0  0  0  0  0  0  0  0  0  0  0
   45.9470   32.5880   46.6890 P   0  0  2  0  0  0  0  0  0  0  0  0
   44.6380   32.8170   47.7810 O   0  0  0  0  0  0  0  0  0  0  0  0
   43.7760   32.6950   47.3460 H   0  0  0  0  0  0  0  0  0  0  0  0
   47.2520   32.0520   47.5760 O   0  0  0  0  0  0  0  0  0  0  0  0
   47.6870   30.8490   47.0530 C   0  0  0  0  0  0  0  0  0  0  0  0
   46.7820   30.2420   46.8660 H   0  0  0  0  0  0  0  0  0  0  0  0
   48.2320   30.9760   46.0900 H   0  0  0  0  0  0  0  0  0  0  0  0
   48.9240   28.8220   47.9110 C   0  0  0  0  0  3  0  0  0  0  0  0
   48.5670   30.1610   48.0350 C   0  0  0  0  0  0  0  0  0  0  0  0
   49.0270   30.9350   49.1070 C   0  0  0  0  0  0  0  0  0  0  0  0
   48.7660   31.9730   49.2250 H   0  0  0  0  0  0  0  0  0  0  0  0
   49.8480   30.3350   50.0430 C   0  0  0  0  0  0  0  0  0  0  0  0
   50.4400   30.8170   51.1690 N   0  0  0  0  0  0  0  0  0  0  0  0
   50.3240   31.8120   51.4840 H   0  0  0  0  0  0  0  0  0  0  0  0
   51.1370   29.8410   51.7330 N   0  0  0  0  0  0  0  0  0  0  0  0
   51.0240   28.7090   51.0050 C   0  0  0  0  0  0  0  0  0  0  0  0
   51.4970   27.7610   51.2480 H   0  0  0  0  0  0  0  0  0  0  0  0
   50.2050   28.9970   49.9180 C   0  0  0  0  0  0  0  0  0  0  0  0
   49.7550   28.2310   48.8660 C   0  0  0  0  0  3  0  0  0  0  0  0
  1  6  1  0  0  0  0
  2  8  1  0  0  0  0
  2  1  1  0  0  0  0
  3  2  1  0  0  0  0
  3  4  1  0  0  0  0
  4 11  1  0  0  0  0
  4 12  1  0  0  0  0
  4  5  1  0  0  0  0
  5 13  1  0  0  0  0
  6 15  1  6  0  0  0
  6  5  1  0  0  0  0
  6 31  1  0  0  0  0
  7  2  1  0  0  0  0
  9  3  1  0  0  0  0
 10  3  1  0  0  0  0
 14  5  1  0  0  0  0
 16  1  1  0  0  0  0
 16 18  1  0  0  0  0
 17 16  1  0  0  0  0
 19 21  1  0  0  0  0
 19 16  1  0  0  0  0
 20 19  1  0  0  0  0
 22 28  1  0  0  0  0
 22 23  1  0  0  0  0
 23 29  1  0  0  0  0
 24 23  2  0  0  0  0
 24 19  1  0  0  0  0
 25 24  1  0  0  0  0
 26 25  2  0  0  0  0
 27 26  1  0  0  0  0
 27 22  2  0  0  0  0
 30 26  1  0  0  0  0
 31 33  1  0  0  0  0
 33 32  2  6  0  0  0
 33 36  1  0  0  0  0
 33 34  1  0  0  0  0
 35 34  1  0  0  0  0
 37 36  1  0  0  0  0
 37 41  1  0  0  0  0
 38 37  1  0  0  0  0
 39 37  1  0  0  0  0
 40 41  2  0  0  0  0
 40 51  1  0  0  0  0
 41 42  1  0  0  0  0
 42 43  1  0  0  0  0
 42 44  2  0  0  0  0
 44 45  1  0  0  0  0
 45 46  1  0  0  0  0
 45 47  1  0  0  0  0
 48 49  1  0  0  0  0
 48 47  2  0  0  0  0
 50 44  1  0  0  0  0
 50 48  1  0  0  0  0
 51 50  2  0  0  0  0
M  END
>  <minimizedAffinity>
-5.26937675

>  <minimizedRMSD>
2.90774012

$$$$
