
 OpenBabel03252508373D

 44 48  0  0  0  0  0  0  0  0999 V2000
   45.0270   33.9910   40.8120 C   0  0  0  0  0  0  0  0  0  0  0  0
   43.9720   33.5830   40.0460 C   0  0  0  0  0  0  0  0  0  0  0  0
   44.2740   32.9380   38.8640 C   0  0  0  0  0  0  0  0  0  0  0  0
   45.5560   32.6970   38.4340 C   0  0  0  0  0  0  0  0  0  0  0  0
   46.5800   33.1260   39.2370 C   0  0  0  0  0  0  0  0  0  0  0  0
   46.3450   33.7690   40.4210 C   0  0  0  0  0  0  0  0  0  0  0  0
   43.4370   32.6120   38.2510 H   0  0  0  0  0  0  0  0  0  0  0  0
   45.7380   32.1800   37.4850 H   0  0  0  0  0  0  0  0  0  0  0  0
   47.5960   32.9340   38.8950 H   0  0  0  0  0  0  0  0  0  0  0  0
   40.7380   35.3560   40.8400 C   0  0  0  0  0  0  0  0  0  0  0  0
   42.0340   35.1080   40.3580 C   0  0  0  0  0  0  0  0  0  0  0  0
   42.6420   33.8540   40.5330 C   0  0  0  0  0  0  0  0  0  0  0  0
   41.8870   32.9420   41.1830 N   0  0  0  0  0  0  0  0  0  0  0  0
   40.6580   33.1810   41.6380 C   0  0  0  0  0  0  0  0  0  0  0  0
   40.0880   34.3770   41.4680 N   0  0  0  0  0  0  0  0  0  0  0  0
   40.1840   36.6350   40.6350 N   0  0  0  0  0  0  0  0  0  0  0  0
   42.5990   35.8810   39.8400 H   0  0  0  0  0  0  0  0  0  0  0  0
   40.1110   32.3840   42.1570 H   0  0  0  0  0  0  0  0  0  0  0  0
   40.2010   37.0770   39.6760 H   0  0  0  0  0  0  0  0  0  0  0  0
   39.7680   37.0990   41.4830 H   0  0  0  0  0  0  0  0  0  0  0  0
   47.4930   34.1850   41.1950 C   0  0  0  0  0  0  0  0  0  0  0  0
   48.0970   35.3530   40.7900 C   0  0  0  0  0  0  0  0  0  0  0  0
   49.2090   35.9270   41.4030 C   0  0  0  0  0  0  0  0  0  0  0  0
   49.7320   35.2630   42.4940 C   0  0  0  0  0  0  0  0  0  0  0  0
   49.1540   34.0830   42.9320 C   0  0  0  0  0  0  0  0  0  0  0  0
   48.0450   33.5530   42.2850 C   0  0  0  0  0  0  0  0  0  0  0  0
   47.7330   35.9290   39.9320 H   0  0  0  0  0  0  0  0  0  0  0  0
   49.6730   36.8390   41.0820 H   0  0  0  0  0  0  0  0  0  0  0  0
   50.5920   35.6020   43.0580 H   0  0  0  0  0  0  0  0  0  0  0  0
   49.5100   33.5090   43.7770 H   0  0  0  0  0  0  0  0  0  0  0  0
   47.6150   31.1510   42.0050 C   0  0  0  0  0  0  0  0  0  0  0  0
   47.4230   32.3140   42.7210 C   0  0  0  0  0  0  0  0  0  0  0  0
   46.6200   32.2440   43.8530 C   0  0  0  0  0  0  0  0  0  0  0  0
   46.4400   33.1500   44.4510 H   0  0  0  0  0  0  0  0  0  0  0  0
   46.0470   31.0190   44.2180 C   0  0  0  0  0  0  0  0  0  0  0  0
   45.2410   30.6810   45.2530 N   0  0  0  0  0  0  0  0  0  0  0  0
   44.8770   31.3110   46.0130 H   0  0  0  0  0  0  0  0  0  0  0  0
   44.9650   29.3890   45.1660 N   0  0  0  0  0  0  0  0  0  0  0  0
   45.5630   28.8300   44.0930 C   0  0  0  0  0  0  0  0  0  0  0  0
   45.5190   27.7970   43.7660 H   0  0  0  0  0  0  0  0  0  0  0  0
   46.2590   29.8730   43.4810 C   0  0  0  0  0  0  0  0  0  0  0  0
   47.0550   29.9160   42.3490 C   0  0  0  0  0  0  0  0  0  0  0  0
   44.6170   35.2350   43.0710 N   0  0  0  0  0  0  0  0  0  0  0  0
   44.7970   34.6720   42.0630 C   0  0  0  0  0  0  0  0  0  0  0  0
  1 44  1  0  0  0  0
  2 12  1  0  0  0  0
  2  1  2  0  0  0  0
  3  2  1  0  0  0  0
  4  3  2  0  0  0  0
  4  5  1  0  0  0  0
  5  6  2  0  0  0  0
  6  1  1  0  0  0  0
  6 21  1  0  0  0  0
  7  3  1  0  0  0  0
  8  4  1  0  0  0  0
  9  5  1  0  0  0  0
 10 15  1  0  0  0  0
 11 12  1  0  0  0  0
 11 10  2  0  0  0  0
 12 13  2  0  0  0  0
 13 14  1  0  0  0  0
 14 18  1  0  0  0  0
 15 14  2  0  0  0  0
 16 10  1  0  0  0  0
 16 20  1  0  0  0  0
 17 11  1  0  0  0  0
 19 16  1  0  0  0  0
 21 26  1  0  0  0  0
 22 21  2  0  0  0  0
 22 23  1  0  0  0  0
 23 24  2  0  0  0  0
 24 25  1  0  0  0  0
 24 29  1  0  0  0  0
 25 30  1  0  0  0  0
 26 32  1  0  0  0  0
 26 25  2  0  0  0  0
 27 22  1  0  0  0  0
 28 23  1  0  0  0  0
 31 42  2  0  0  0  0
 31 32  1  0  0  0  0
 32 33  2  0  0  0  0
 33 35  1  0  0  0  0
 33 34  1  0  0  0  0
 35 36  1  0  0  0  0
 36 37  1  0  0  0  0
 38 36  1  0  0  0  0
 39 38  2  0  0  0  0
 40 39  1  0  0  0  0
 41 39  1  0  0  0  0
 41 35  2  0  0  0  0
 42 41  1  0  0  0  0
 44 43  3  0  0  0  0
M  END
>  <minimizedAffinity>
-6.46755981

>  <minimizedRMSD>
1.28805113

$$$$
