
 OpenBabel03242516313D

 49 54  0  0  0  0  0  0  0  0999 V2000
   37.6960   31.3260   39.1810 C   0  0  0  0  0  0  0  0  0  0  0  0
   38.0280   31.9030   37.9830 N   0  0  0  0  0  0  0  0  0  0  0  0
   37.6700   31.4130   36.8010 C   0  0  0  0  0  0  0  0  0  0  0  0
   36.9430   30.2900   36.7960 N   0  0  0  0  0  0  0  0  0  0  0  0
   36.5750   29.6610   37.9210 C   0  0  0  0  0  0  0  0  0  0  0  0
   35.8150   28.4940   37.9290 C   0  0  0  0  0  0  0  0  0  0  0  0
   35.4530   27.8770   39.0810 C   0  0  0  0  0  0  0  0  0  0  0  0
   35.8380   28.4010   40.2730 C   0  0  0  0  0  0  0  0  0  0  0  0
   36.6040   29.5730   40.3320 C   0  0  0  0  0  0  0  0  0  0  0  0
   36.9540   30.1790   39.1660 C   0  0  0  0  0  0  0  0  0  0  0  0
   37.9810   31.9400   35.9170 H   0  0  0  0  0  0  0  0  0  0  0  0
   35.5320   28.1110   36.9620 H   0  0  0  0  0  0  0  0  0  0  0  0
   34.8600   26.9690   39.0250 H   0  0  0  0  0  0  0  0  0  0  0  0
   35.5190   27.8600   41.1680 H   0  0  0  0  0  0  0  0  0  0  0  0
   36.9820   30.0280   41.6860 C   0  0  0  0  0  0  0  0  0  0  0  0
   36.1490   30.0470   42.4190 H   0  0  0  0  0  0  0  0  0  0  0  0
   37.7080   30.8470   41.7280 H   0  0  0  0  0  0  0  0  0  0  0  0
   37.3480   28.1930   43.4610 C   0  0  0  0  0  3  0  0  0  0  0  0
   37.8080   28.9560   42.3790 C   0  0  0  0  0  0  0  0  0  0  0  0
   39.0990   28.6440   41.9810 C   0  0  0  0  0  0  0  0  0  0  0  0
   39.5040   29.2040   41.1470 H   0  0  0  0  0  0  0  0  0  0  0  0
   39.9110   27.6890   42.5480 C   0  0  0  0  0  0  0  0  0  0  0  0
   41.1620   27.2680   42.2900 N   0  0  0  0  0  0  0  0  0  0  0  0
   41.7990   27.6330   41.5350 H   0  0  0  0  0  0  0  0  0  0  0  0
   41.4370   26.3080   43.1670 N   0  0  0  0  0  0  0  0  0  0  0  0
   40.3810   26.1070   43.9850 C   0  0  0  0  0  0  0  0  0  0  0  0
   40.3180   25.3790   44.8030 H   0  0  0  0  0  0  0  0  0  0  0  0
   39.3840   26.9820   43.6080 C   0  0  0  0  0  0  0  0  0  0  0  0
   38.1100   27.2240   44.0720 C   0  0  0  0  0  3  0  0  0  0  0  0
   38.1520   32.0420   40.6800 S   0  0  0  0  0  0  0  0  0  0  0  0
   41.2440   34.5720   40.4990 C   0  0  0  0  0  0  0  0  0  0  0  0
   40.4600   33.4420   40.6250 C   0  0  0  0  0  0  0  0  0  0  0  0
   39.0910   33.5080   40.4790 C   0  0  0  0  0  0  0  0  0  0  0  0
   38.4760   34.7060   40.2040 C   0  0  0  0  0  0  0  0  0  0  0  0
   39.2060   35.8490   40.0710 C   0  0  0  0  0  0  0  0  0  0  0  0
   40.5700   35.7670   40.2190 C   0  0  0  0  0  0  0  0  0  0  0  0
   40.9820   32.5170   40.8420 H   0  0  0  0  0  0  0  0  0  0  0  0
   37.3840   34.6920   40.0990 H   0  0  0  0  0  0  0  0  0  0  0  0
   38.7090   36.7850   39.8530 H   0  0  0  0  0  0  0  0  0  0  0  0
   41.1440   36.6740   40.1130 H   0  0  0  0  0  0  0  0  0  0  0  0
   44.5540   35.0900   41.9400 C   0  0  0  0  0  0  0  0  0  0  0  0
   45.4120   34.4110   41.0320 C   0  0  0  0  0  0  0  0  0  0  0  0
   44.8420   33.7840   39.9370 C   0  0  0  0  0  0  0  0  0  0  0  0
   43.4830   33.8240   39.7430 N   0  0  0  0  0  0  0  0  0  0  0  0
   42.6980   34.4960   40.6540 C   0  0  0  0  0  0  0  0  0  0  0  0
   43.2200   35.1270   41.7470 N   0  0  0  0  0  0  0  0  0  0  0  0
   44.9910   35.5850   42.8040 H   0  0  0  0  0  0  0  0  0  0  0  0
   46.4710   34.3760   41.1770 H   0  0  0  0  0  0  0  0  0  0  0  0
   45.4320   33.2500   39.2070 H   0  0  0  0  0  0  0  0  0  0  0  0
  1 30  1  0  0  0  0
  2  1  2  0  0  0  0
  3  2  1  0  0  0  0
  4  3  2  0  0  0  0
  4  5  1  0  0  0  0
  5  6  2  0  0  0  0
  5 10  1  0  0  0  0
  6  7  1  0  0  0  0
  7  8  2  0  0  0  0
  8  9  1  0  0  0  0
  8 14  1  0  0  0  0
  9 15  1  0  0  0  0
 10  1  1  0  0  0  0
 10  9  2  0  0  0  0
 11  3  1  0  0  0  0
 12  6  1  0  0  0  0
 13  7  1  0  0  0  0
 15 17  1  0  0  0  0
 15 19  1  0  0  0  0
 15 16  1  0  0  0  0
 18 29  1  0  0  0  0
 19 18  2  0  0  0  0
 20 19  1  0  0  0  0
 20 22  2  0  0  0  0
 21 20  1  0  0  0  0
 22 28  1  0  0  0  0
 23 22  1  0  0  0  0
 23 25  1  0  0  0  0
 24 23  1  0  0  0  0
 25 26  2  0  0  0  0
 26 27  1  0  0  0  0
 28 26  1  0  0  0  0
 28 29  2  0  0  0  0
 31 32  1  0  0  0  0
 31 45  1  0  0  0  0
 32 37  1  0  0  0  0
 33 32  2  0  0  0  0
 33 30  1  0  0  0  0
 34 33  1  0  0  0  0
 35 34  2  0  0  0  0
 35 36  1  0  0  0  0
 36 31  2  0  0  0  0
 38 34  1  0  0  0  0
 39 35  1  0  0  0  0
 40 36  1  0  0  0  0
 41 47  1  0  0  0  0
 42 48  1  0  0  0  0
 42 41  2  0  0  0  0
 43 42  1  0  0  0  0
 44 43  2  0  0  0  0
 44 45  1  0  0  0  0
 45 46  2  0  0  0  0
 46 41  1  0  0  0  0
 49 43  1  0  0  0  0
M  END
>  <minimizedAffinity>
-7.59548187

$$$$

 OpenBabel03242516313D

 49 54  0  0  0  0  0  0  0  0999 V2000
   38.7790   30.0420   42.2710 C   0  0  0  0  0  0  0  0  0  0  0  0
   40.0330   30.2330   42.7900 N   0  0  0  0  0  0  0  0  0  0  0  0
   40.8850   31.1510   42.3480 C   0  0  0  0  0  0  0  0  0  0  0  0
   40.4800   31.9280   41.3360 N   0  0  0  0  0  0  0  0  0  0  0  0
   39.2710   31.8080   40.7700 C   0  0  0  0  0  0  0  0  0  0  0  0
   38.8370   32.6120   39.7190 C   0  0  0  0  0  0  0  0  0  0  0  0
   37.6080   32.4730   39.1640 C   0  0  0  0  0  0  0  0  0  0  0  0
   36.7620   31.5220   39.6370 C   0  0  0  0  0  0  0  0  0  0  0  0
   37.1390   30.6800   40.6920 C   0  0  0  0  0  0  0  0  0  0  0  0
   38.3750   30.8380   41.2370 C   0  0  0  0  0  0  0  0  0  0  0  0
   41.8470   31.2220   42.8210 H   0  0  0  0  0  0  0  0  0  0  0  0
   39.5400   33.3540   39.3740 H   0  0  0  0  0  0  0  0  0  0  0  0
   37.3250   33.1300   38.3470 H   0  0  0  0  0  0  0  0  0  0  0  0
   35.7850   31.4550   39.1500 H   0  0  0  0  0  0  0  0  0  0  0  0
   36.1420   29.6690   41.0980 C   0  0  0  0  0  0  0  0  0  0  0  0
   35.1610   30.0840   41.4100 H   0  0  0  0  0  0  0  0  0  0  0  0
   36.5300   28.8170   41.6650 H   0  0  0  0  0  0  0  0  0  0  0  0
   36.3480   27.8840   39.2480 C   0  0  0  0  0  3  0  0  0  0  0  0
   35.6400   28.9190   39.8740 C   0  0  0  0  0  0  0  0  0  0  0  0
   34.4220   29.2060   39.2780 C   0  0  0  0  0  0  0  0  0  0  0  0
   33.8330   29.9990   39.7230 H   0  0  0  0  0  0  0  0  0  0  0  0
   33.8930   28.5770   38.1750 C   0  0  0  0  0  0  0  0  0  0  0  0
   32.7500   28.7280   37.4830 N   0  0  0  0  0  0  0  0  0  0  0  0
   31.9860   29.4240   37.6870 H   0  0  0  0  0  0  0  0  0  0  0  0
   32.7710   27.8350   36.5000 N   0  0  0  0  0  0  0  0  0  0  0  0
   33.9110   27.1120   36.5480 C   0  0  0  0  0  0  0  0  0  0  0  0
   34.2020   26.3050   35.8650 H   0  0  0  0  0  0  0  0  0  0  0  0
   34.6520   27.5690   37.6180 C   0  0  0  0  0  0  0  0  0  0  0  0
   35.8750   27.2150   38.1430 C   0  0  0  0  0  3  0  0  0  0  0  0
   37.7060   28.8630   42.9250 S   0  0  0  0  0  0  0  0  0  0  0  0
   38.2770   25.0220   41.9660 C   0  0  0  0  0  0  0  0  0  0  0  0
   37.8080   26.3200   42.0220 C   0  0  0  0  0  0  0  0  0  0  0  0
   38.3670   27.2400   42.8830 C   0  0  0  0  0  0  0  0  0  0  0  0
   39.4070   26.8820   43.7070 C   0  0  0  0  0  0  0  0  0  0  0  0
   39.9040   25.6130   43.6890 C   0  0  0  0  0  0  0  0  0  0  0  0
   39.3370   24.7080   42.8250 C   0  0  0  0  0  0  0  0  0  0  0  0
   36.9870   26.5640   41.3580 H   0  0  0  0  0  0  0  0  0  0  0  0
   39.8080   27.6600   44.3680 H   0  0  0  0  0  0  0  0  0  0  0  0
   40.7250   25.3450   44.3430 H   0  0  0  0  0  0  0  0  0  0  0  0
   39.7330   23.7050   42.8140 H   0  0  0  0  0  0  0  0  0  0  0  0
   35.8560   23.5130   39.6950 C   0  0  0  0  0  0  0  0  0  0  0  0
   36.4790   22.2900   39.3230 C   0  0  0  0  0  0  0  0  0  0  0  0
   37.7220   22.0000   39.8590 C   0  0  0  0  0  0  0  0  0  0  0  0
   38.3280   22.8790   40.7240 N   0  0  0  0  0  0  0  0  0  0  0  0
   37.6800   24.0500   41.0490 C   0  0  0  0  0  0  0  0  0  0  0  0
   36.4530   24.3730   40.5450 N   0  0  0  0  0  0  0  0  0  0  0  0
   34.8790   23.7510   39.2800 H   0  0  0  0  0  0  0  0  0  0  0  0
   36.0120   21.6030   38.6500 H   0  0  0  0  0  0  0  0  0  0  0  0
   38.2530   21.0910   39.6210 H   0  0  0  0  0  0  0  0  0  0  0  0
  1  2  1  0  0  0  0
  1 30  1  0  0  0  0
  3  2  2  0  0  0  0
  3 11  1  0  0  0  0
  4  3  1  0  0  0  0
  5 10  1  0  0  0  0
  5  4  2  0  0  0  0
  6  5  1  0  0  0  0
  7  8  1  0  0  0  0
  7  6  2  0  0  0  0
  8  9  2  0  0  0  0
  9 15  1  0  0  0  0
  9 10  1  0  0  0  0
 10  1  2  0  0  0  0
 12  6  1  0  0  0  0
 13  7  1  0  0  0  0
 14  8  1  0  0  0  0
 15 16  1  0  0  0  0
 15 17  1  0  0  0  0
 18 19  1  0  0  0  0
 19 15  1  0  0  0  0
 20 21  1  0  0  0  0
 20 19  2  0  0  0  0
 22 20  1  0  0  0  0
 23 24  1  0  0  0  0
 23 22  1  0  0  0  0
 25 26  2  0  0  0  0
 25 23  1  0  0  0  0
 26 28  1  0  0  0  0
 27 26  1  0  0  0  0
 28 29  1  0  0  0  0
 28 22  2  0  0  0  0
 29 18  2  0  0  0  0
 31 32  2  0  0  0  0
 31 36  1  0  0  0  0
 32 33  1  0  0  0  0
 33 30  1  0  0  0  0
 33 34  2  0  0  0  0
 34 38  1  0  0  0  0
 35 34  1  0  0  0  0
 35 39  1  0  0  0  0
 36 35  2  0  0  0  0
 37 32  1  0  0  0  0
 40 36  1  0  0  0  0
 41 46  1  0  0  0  0
 42 41  2  0  0  0  0
 42 43  1  0  0  0  0
 43 44  2  0  0  0  0
 44 45  1  0  0  0  0
 45 31  1  0  0  0  0
 46 45  2  0  0  0  0
 47 41  1  0  0  0  0
 48 42  1  0  0  0  0
 49 43  1  0  0  0  0
M  END
>  <minimizedAffinity>
-7.43981075

$$$$

 OpenBabel03242516313D

 49 54  0  0  0  0  0  0  0  0999 V2000
   36.5980   28.4620   40.3250 C   0  0  0  0  0  0  0  0  0  0  0  0
   36.1310   28.7840   39.0770 N   0  0  0  0  0  0  0  0  0  0  0  0
   35.8230   27.8860   38.1490 C   0  0  0  0  0  0  0  0  0  0  0  0
   35.9820   26.5950   38.4640 N   0  0  0  0  0  0  0  0  0  0  0  0
   36.4330   26.1930   39.6610 C   0  0  0  0  0  0  0  0  0  0  0  0
   36.5990   24.8530   40.0030 C   0  0  0  0  0  0  0  0  0  0  0  0
   37.0560   24.4710   41.2210 C   0  0  0  0  0  0  0  0  0  0  0  0
   37.3660   25.4140   42.1480 C   0  0  0  0  0  0  0  0  0  0  0  0
   37.2210   26.7790   41.8650 C   0  0  0  0  0  0  0  0  0  0  0  0
   36.7590   27.1420   40.6380 C   0  0  0  0  0  0  0  0  0  0  0  0
   35.4640   28.2390   37.1980 H   0  0  0  0  0  0  0  0  0  0  0  0
   36.3420   24.1380   39.2380 H   0  0  0  0  0  0  0  0  0  0  0  0
   37.1650   23.4110   41.4310 H   0  0  0  0  0  0  0  0  0  0  0  0
   37.7310   25.0470   43.1120 H   0  0  0  0  0  0  0  0  0  0  0  0
   37.6170   27.7070   42.9450 C   0  0  0  0  0  0  0  0  0  0  0  0
   37.2760   27.4110   43.9580 H   0  0  0  0  0  0  0  0  0  0  0  0
   37.5850   28.7710   42.6940 H   0  0  0  0  0  0  0  0  0  0  0  0
   39.6730   26.6030   44.0440 C   0  0  0  0  0  3  0  0  0  0  0  0
   39.1090   27.5800   43.2120 C   0  0  0  0  0  0  0  0  0  0  0  0
   40.0380   28.4340   42.6380 C   0  0  0  0  0  0  0  0  0  0  0  0
   39.6550   29.2080   41.9850 H   0  0  0  0  0  0  0  0  0  0  0  0
   41.4010   28.3870   42.8230 C   0  0  0  0  0  0  0  0  0  0  0  0
   42.4230   29.1230   42.3530 N   0  0  0  0  0  0  0  0  0  0  0  0
   42.3500   29.9440   41.6960 H   0  0  0  0  0  0  0  0  0  0  0  0
   43.5370   28.6170   42.8720 N   0  0  0  0  0  0  0  0  0  0  0  0
   43.2450   27.5680   43.6700 C   0  0  0  0  0  0  0  0  0  0  0  0
   43.9610   26.9550   44.2310 H   0  0  0  0  0  0  0  0  0  0  0  0
   41.8760   27.3970   43.6560 C   0  0  0  0  0  0  0  0  0  0  0  0
   41.0260   26.5040   44.2700 C   0  0  0  0  0  3  0  0  0  0  0  0
   36.9340   29.6760   41.5000 S   0  0  0  0  0  0  0  0  0  0  0  0
   39.4490   32.6540   40.6000 C   0  0  0  0  0  0  0  0  0  0  0  0
   38.8880   31.4980   41.1080 C   0  0  0  0  0  0  0  0  0  0  0  0
   37.5940   31.1410   40.7990 C   0  0  0  0  0  0  0  0  0  0  0  0
   36.8300   31.9330   39.9730 C   0  0  0  0  0  0  0  0  0  0  0  0
   37.3380   33.0830   39.4480 C   0  0  0  0  0  0  0  0  0  0  0  0
   38.6300   33.4250   39.7650 C   0  0  0  0  0  0  0  0  0  0  0  0
   39.5210   30.9020   41.7540 H   0  0  0  0  0  0  0  0  0  0  0  0
   35.8080   31.5930   39.7650 H   0  0  0  0  0  0  0  0  0  0  0  0
   36.7250   33.6960   38.7980 H   0  0  0  0  0  0  0  0  0  0  0  0
   39.0270   34.3360   39.3470 H   0  0  0  0  0  0  0  0  0  0  0  0
   42.4580   34.6940   40.8740 C   0  0  0  0  0  0  0  0  0  0  0  0
   43.3830   33.8220   41.5110 C   0  0  0  0  0  0  0  0  0  0  0  0
   42.9600   32.5450   41.8380 C   0  0  0  0  0  0  0  0  0  0  0  0
   41.6790   32.1420   41.5490 N   0  0  0  0  0  0  0  0  0  0  0  0
   40.8240   33.0280   40.9320 C   0  0  0  0  0  0  0  0  0  0  0  0
   41.2010   34.2960   40.5920 N   0  0  0  0  0  0  0  0  0  0  0  0
   42.7790   35.7000   40.6130 H   0  0  0  0  0  0  0  0  0  0  0  0
   44.3820   34.1300   41.7380 H   0  0  0  0  0  0  0  0  0  0  0  0
   43.6090   31.8310   42.3230 H   0  0  0  0  0  0  0  0  0  0  0  0
  1 10  1  0  0  0  0
  1 30  1  0  0  0  0
  2  1  2  0  0  0  0
  3  4  2  0  0  0  0
  3  2  1  0  0  0  0
  4  5  1  0  0  0  0
  5  6  2  0  0  0  0
  5 10  1  0  0  0  0
  6  7  1  0  0  0  0
  7 13  1  0  0  0  0
  7  8  2  0  0  0  0
  8 14  1  0  0  0  0
  9  8  1  0  0  0  0
  9 15  1  0  0  0  0
 10  9  2  0  0  0  0
 11  3  1  0  0  0  0
 12  6  1  0  0  0  0
 15 19  1  0  0  0  0
 15 16  1  0  0  0  0
 17 15  1  0  0  0  0
 18 29  1  0  0  0  0
 19 18  2  0  0  0  0
 20 22  2  0  0  0  0
 20 19  1  0  0  0  0
 21 20  1  0  0  0  0
 22 28  1  0  0  0  0
 23 22  1  0  0  0  0
 23 25  1  0  0  0  0
 24 23  1  0  0  0  0
 25 26  2  0  0  0  0
 26 27  1  0  0  0  0
 28 26  1  0  0  0  0
 28 29  2  0  0  0  0
 31 45  1  0  0  0  0
 31 32  1  0  0  0  0
 32 37  1  0  0  0  0
 33 32  2  0  0  0  0
 33 30  1  0  0  0  0
 34 33  1  0  0  0  0
 35 36  1  0  0  0  0
 35 34  2  0  0  0  0
 36 31  2  0  0  0  0
 38 34  1  0  0  0  0
 39 35  1  0  0  0  0
 40 36  1  0  0  0  0
 41 42  1  0  0  0  0
 42 48  1  0  0  0  0
 42 43  2  0  0  0  0
 43 49  1  0  0  0  0
 44 43  1  0  0  0  0
 45 44  2  0  0  0  0
 46 41  2  0  0  0  0
 46 45  1  0  0  0  0
 47 41  1  0  0  0  0
M  END
>  <minimizedAffinity>
-7.36291981

$$$$

 OpenBabel03242516313D

 49 54  0  0  0  0  0  0  0  0999 V2000
   39.3940   30.1880   41.0640 C   0  0  0  0  0  0  0  0  0  0  0  0
   40.6670   30.1460   41.5690 N   0  0  0  0  0  0  0  0  0  0  0  0
   41.0580   29.3070   42.5210 C   0  0  0  0  0  0  0  0  0  0  0  0
   40.1450   28.4570   43.0050 N   0  0  0  0  0  0  0  0  0  0  0  0
   38.8780   28.4310   42.5680 C   0  0  0  0  0  0  0  0  0  0  0  0
   37.9180   27.5500   43.0600 C   0  0  0  0  0  0  0  0  0  0  0  0
   36.6440   27.5410   42.6000 C   0  0  0  0  0  0  0  0  0  0  0  0
   36.2750   28.4140   41.6280 C   0  0  0  0  0  0  0  0  0  0  0  0
   37.1930   29.3270   41.0910 C   0  0  0  0  0  0  0  0  0  0  0  0
   38.4680   29.3180   41.5640 C   0  0  0  0  0  0  0  0  0  0  0  0
   42.0810   29.3530   42.8520 H   0  0  0  0  0  0  0  0  0  0  0  0
   38.2540   26.8740   43.8310 H   0  0  0  0  0  0  0  0  0  0  0  0
   35.9400   26.8300   43.0220 H   0  0  0  0  0  0  0  0  0  0  0  0
   35.2330   28.3620   41.2980 H   0  0  0  0  0  0  0  0  0  0  0  0
   36.6630   30.2430   40.0600 C   0  0  0  0  0  0  0  0  0  0  0  0
   37.4380   30.7640   39.4610 H   0  0  0  0  0  0  0  0  0  0  0  0
   35.7750   30.8160   40.3430 H   0  0  0  0  0  0  0  0  0  0  0  0
   36.8210   28.7690   37.9490 C   0  0  0  0  0  3  0  0  0  0  0  0
   36.0610   29.4400   38.9180 C   0  0  0  0  0  0  0  0  0  0  0  0
   34.6920   29.3050   38.7490 C   0  0  0  0  0  0  0  0  0  0  0  0
   34.0570   29.8040   39.4710 H   0  0  0  0  0  0  0  0  0  0  0  0
   34.0660   28.5970   37.7490 C   0  0  0  0  0  0  0  0  0  0  0  0
   32.7760   28.3690   37.4450 N   0  0  0  0  0  0  0  0  0  0  0  0
   31.9390   28.7300   37.9730 H   0  0  0  0  0  0  0  0  0  0  0  0
   32.7630   27.6060   36.3570 N   0  0  0  0  0  0  0  0  0  0  0  0
   34.0250   27.3400   35.9570 C   0  0  0  0  0  0  0  0  0  0  0  0
   34.3220   26.7360   35.0920 H   0  0  0  0  0  0  0  0  0  0  0  0
   34.8840   27.9660   36.8360 C   0  0  0  0  0  0  0  0  0  0  0  0
   36.2570   28.0450   36.9250 C   0  0  0  0  0  3  0  0  0  0  0  0
   38.9670   31.2700   39.7940 S   0  0  0  0  0  0  0  0  0  0  0  0
   41.2090   34.4510   40.7180 C   0  0  0  0  0  0  0  0  0  0  0  0
   40.7740   33.1700   40.4390 C   0  0  0  0  0  0  0  0  0  0  0  0
   39.4590   32.9230   40.1100 C   0  0  0  0  0  0  0  0  0  0  0  0
   38.5490   33.9520   40.0520 C   0  0  0  0  0  0  0  0  0  0  0  0
   38.9290   35.2330   40.3200 C   0  0  0  0  0  0  0  0  0  0  0  0
   40.2440   35.4630   40.6470 C   0  0  0  0  0  0  0  0  0  0  0  0
   41.5210   32.3870   40.4950 H   0  0  0  0  0  0  0  0  0  0  0  0
   37.5180   33.6890   39.7840 H   0  0  0  0  0  0  0  0  0  0  0  0
   38.2020   36.0330   40.2710 H   0  0  0  0  0  0  0  0  0  0  0  0
   40.5400   36.4780   40.8580 H   0  0  0  0  0  0  0  0  0  0  0  0
   44.8480   34.2660   40.5860 C   0  0  0  0  0  0  0  0  0  0  0  0
   45.2540   35.1250   41.6430 C   0  0  0  0  0  0  0  0  0  0  0  0
   44.2730   35.7560   42.3880 C   0  0  0  0  0  0  0  0  0  0  0  0
   42.9450   35.5500   42.1030 N   0  0  0  0  0  0  0  0  0  0  0  0
   42.6070   34.7080   41.0670 C   0  0  0  0  0  0  0  0  0  0  0  0
   43.5440   34.0660   40.3090 N   0  0  0  0  0  0  0  0  0  0  0  0
   45.6110   33.7650   39.9940 H   0  0  0  0  0  0  0  0  0  0  0  0
   46.2870   35.2890   41.8700 H   0  0  0  0  0  0  0  0  0  0  0  0
   44.5090   36.4220   43.2040 H   0  0  0  0  0  0  0  0  0  0  0  0
  1 10  2  0  0  0  0
  1  2  1  0  0  0  0
  2  3  2  0  0  0  0
  3 11  1  0  0  0  0
  3  4  1  0  0  0  0
  5  4  2  0  0  0  0
  5  6  1  0  0  0  0
  6 12  1  0  0  0  0
  7 13  1  0  0  0  0
  7  6  2  0  0  0  0
  8  7  1  0  0  0  0
  9 10  1  0  0  0  0
  9  8  2  0  0  0  0
 10  5  1  0  0  0  0
 14  8  1  0  0  0  0
 15 17  1  0  0  0  0
 15  9  1  0  0  0  0
 16 15  1  0  0  0  0
 18 19  1  0  0  0  0
 19 15  1  0  0  0  0
 20 19  2  0  0  0  0
 20 21  1  0  0  0  0
 22 20  1  0  0  0  0
 23 22  1  0  0  0  0
 23 24  1  0  0  0  0
 25 23  1  0  0  0  0
 26 25  2  0  0  0  0
 26 28  1  0  0  0  0
 27 26  1  0  0  0  0
 28 29  1  0  0  0  0
 28 22  2  0  0  0  0
 29 18  2  0  0  0  0
 30 33  1  0  0  0  0
 30  1  1  0  0  0  0
 31 45  1  0  0  0  0
 32 37  1  0  0  0  0
 32 31  2  0  0  0  0
 33 32  1  0  0  0  0
 34 33  2  0  0  0  0
 34 35  1  0  0  0  0
 35 36  2  0  0  0  0
 36 31  1  0  0  0  0
 36 40  1  0  0  0  0
 38 34  1  0  0  0  0
 39 35  1  0  0  0  0
 41 42  1  0  0  0  0
 42 48  1  0  0  0  0
 42 43  2  0  0  0  0
 43 49  1  0  0  0  0
 44 43  1  0  0  0  0
 45 44  2  0  0  0  0
 46 41  2  0  0  0  0
 46 45  1  0  0  0  0
 47 41  1  0  0  0  0
M  END
>  <minimizedAffinity>
-7.31339741

$$$$

 OpenBabel03242516313D

 49 54  0  0  0  0  0  0  0  0999 V2000
   36.9040   26.8200   39.6960 C   0  0  0  0  0  0  0  0  0  0  0  0
   36.9250   25.4500   39.7230 N   0  0  0  0  0  0  0  0  0  0  0  0
   37.0500   24.7340   40.8350 C   0  0  0  0  0  0  0  0  0  0  0  0
   37.1630   25.4030   41.9880 N   0  0  0  0  0  0  0  0  0  0  0  0
   37.1530   26.7420   42.0510 C   0  0  0  0  0  0  0  0  0  0  0  0
   37.2650   27.4500   43.2460 C   0  0  0  0  0  0  0  0  0  0  0  0
   37.2500   28.8050   43.2840 C   0  0  0  0  0  0  0  0  0  0  0  0
   37.1230   29.5080   42.1300 C   0  0  0  0  0  0  0  0  0  0  0  0
   37.0070   28.8550   40.8960 C   0  0  0  0  0  0  0  0  0  0  0  0
   37.0210   27.4950   40.8780 C   0  0  0  0  0  0  0  0  0  0  0  0
   37.0560   23.6620   40.7510 H   0  0  0  0  0  0  0  0  0  0  0  0
   37.3640   26.8530   44.1380 H   0  0  0  0  0  0  0  0  0  0  0  0
   37.3410   29.3020   44.2460 H   0  0  0  0  0  0  0  0  0  0  0  0
   37.1190   30.5990   42.2230 H   0  0  0  0  0  0  0  0  0  0  0  0
   36.9020   29.7310   39.7100 C   0  0  0  0  0  0  0  0  0  0  0  0
   35.9590   30.3110   39.6450 H   0  0  0  0  0  0  0  0  0  0  0  0
   37.3080   29.3220   38.7790 H   0  0  0  0  0  0  0  0  0  0  0  0
   39.2220   30.8060   40.0480 C   0  0  0  0  0  3  0  0  0  0  0  0
   37.8370   30.9200   39.8640 C   0  0  0  0  0  0  0  0  0  0  0  0
   37.3820   32.2290   39.8280 C   0  0  0  0  0  0  0  0  0  0  0  0
   36.3170   32.3740   39.6870 H   0  0  0  0  0  0  0  0  0  0  0  0
   38.1570   33.3580   39.9540 C   0  0  0  0  0  0  0  0  0  0  0  0
   37.8810   34.6750   39.9430 N   0  0  0  0  0  0  0  0  0  0  0  0
   36.9300   35.1110   39.8230 H   0  0  0  0  0  0  0  0  0  0  0  0
   39.0350   35.3130   40.1110 N   0  0  0  0  0  0  0  0  0  0  0  0
   40.0460   34.4270   40.2300 C   0  0  0  0  0  0  0  0  0  0  0  0
   41.1070   34.6640   40.3770 H   0  0  0  0  0  0  0  0  0  0  0  0
   39.5090   33.1610   40.1330 C   0  0  0  0  0  0  0  0  0  0  0  0
   40.0510   31.8950   40.1810 C   0  0  0  0  0  3  0  0  0  0  0  0
   36.6890   27.6870   38.2230 S   0  0  0  0  0  0  0  0  0  0  0  0
   33.1310   28.2720   36.4920 C   0  0  0  0  0  0  0  0  0  0  0  0
   34.3720   28.4570   37.0700 C   0  0  0  0  0  0  0  0  0  0  0  0
   35.1350   27.3820   37.4710 C   0  0  0  0  0  0  0  0  0  0  0  0
   34.6750   26.0970   37.3020 C   0  0  0  0  0  0  0  0  0  0  0  0
   33.4570   25.8630   36.7380 C   0  0  0  0  0  0  0  0  0  0  0  0
   32.7080   26.9450   36.3440 C   0  0  0  0  0  0  0  0  0  0  0  0
   34.7000   29.4830   37.1860 H   0  0  0  0  0  0  0  0  0  0  0  0
   35.3300   25.2860   37.6420 H   0  0  0  0  0  0  0  0  0  0  0  0
   33.1070   24.8470   36.6110 H   0  0  0  0  0  0  0  0  0  0  0  0
   31.7440   26.7550   35.8980 H   0  0  0  0  0  0  0  0  0  0  0  0
   30.7350   31.0140   36.6790 C   0  0  0  0  0  0  0  0  0  0  0  0
   30.7730   31.5660   35.3690 C   0  0  0  0  0  0  0  0  0  0  0  0
   31.6200   30.9880   34.4390 C   0  0  0  0  0  0  0  0  0  0  0  0
   32.4000   29.9110   34.7850 N   0  0  0  0  0  0  0  0  0  0  0  0
   32.3250   29.4170   36.0680 C   0  0  0  0  0  0  0  0  0  0  0  0
   31.5020   29.9570   37.0150 N   0  0  0  0  0  0  0  0  0  0  0  0
   30.0740   31.4610   37.4170 H   0  0  0  0  0  0  0  0  0  0  0  0
   30.1680   32.4040   35.0940 H   0  0  0  0  0  0  0  0  0  0  0  0
   31.7000   31.3550   33.4270 H   0  0  0  0  0  0  0  0  0  0  0  0
  1  2  2  0  0  0  0
  1 10  1  0  0  0  0
  2  3  1  0  0  0  0
  3  4  2  0  0  0  0
  4  5  1  0  0  0  0
  5  6  1  0  0  0  0
  6  7  2  0  0  0  0
  6 12  1  0  0  0  0
  7 13  1  0  0  0  0
  8 14  1  0  0  0  0
  8  7  1  0  0  0  0
  9  8  2  0  0  0  0
 10  9  1  0  0  0  0
 10  5  2  0  0  0  0
 11  3  1  0  0  0  0
 15 19  1  0  0  0  0
 15  9  1  0  0  0  0
 16 15  1  0  0  0  0
 17 15  1  0  0  0  0
 18 29  1  0  0  0  0
 19 18  2  0  0  0  0
 20 19  1  0  0  0  0
 20 22  2  0  0  0  0
 21 20  1  0  0  0  0
 22 28  1  0  0  0  0
 23 22  1  0  0  0  0
 23 25  1  0  0  0  0
 24 23  1  0  0  0  0
 25 26  2  0  0  0  0
 26 27  1  0  0  0  0
 28 29  2  0  0  0  0
 28 26  1  0  0  0  0
 30  1  1  0  0  0  0
 31 32  1  0  0  0  0
 32 37  1  0  0  0  0
 32 33  2  0  0  0  0
 33 30  1  0  0  0  0
 34 33  1  0  0  0  0
 34 38  1  0  0  0  0
 35 34  2  0  0  0  0
 36 31  2  0  0  0  0
 36 35  1  0  0  0  0
 39 35  1  0  0  0  0
 40 36  1  0  0  0  0
 41 46  1  0  0  0  0
 41 47  1  0  0  0  0
 42 41  2  0  0  0  0
 43 44  2  0  0  0  0
 43 42  1  0  0  0  0
 44 45  1  0  0  0  0
 45 31  1  0  0  0  0
 45 46  2  0  0  0  0
 48 42  1  0  0  0  0
 49 43  1  0  0  0  0
M  END
>  <minimizedAffinity>
-7.21383429

$$$$

 OpenBabel03242516313D

 49 54  0  0  0  0  0  0  0  0999 V2000
   37.4040   27.5700   41.1990 C   0  0  0  0  0  0  0  0  0  0  0  0
   36.6640   26.7680   40.3710 N   0  0  0  0  0  0  0  0  0  0  0  0
   36.7840   25.4460   40.3210 C   0  0  0  0  0  0  0  0  0  0  0  0
   37.6840   24.8790   41.1320 N   0  0  0  0  0  0  0  0  0  0  0  0
   38.4490   25.5900   41.9720 C   0  0  0  0  0  0  0  0  0  0  0  0
   39.3870   25.0110   42.8250 C   0  0  0  0  0  0  0  0  0  0  0  0
   40.1490   25.7510   43.6670 C   0  0  0  0  0  0  0  0  0  0  0  0
   40.0040   27.1010   43.6920 C   0  0  0  0  0  0  0  0  0  0  0  0
   39.0790   27.7440   42.8590 C   0  0  0  0  0  0  0  0  0  0  0  0
   38.3220   26.9840   42.0230 C   0  0  0  0  0  0  0  0  0  0  0  0
   36.1560   24.9040   39.6360 H   0  0  0  0  0  0  0  0  0  0  0  0
   39.4700   23.9370   42.7720 H   0  0  0  0  0  0  0  0  0  0  0  0
   40.8630   25.2440   44.3090 H   0  0  0  0  0  0  0  0  0  0  0  0
   40.6470   27.6460   44.3910 H   0  0  0  0  0  0  0  0  0  0  0  0
   39.0350   29.2170   42.9590 C   0  0  0  0  0  0  0  0  0  0  0  0
   39.1960   29.6170   43.9820 H   0  0  0  0  0  0  0  0  0  0  0  0
   38.2870   29.7150   42.3360 H   0  0  0  0  0  0  0  0  0  0  0  0
   41.0150   29.1980   41.3070 C   0  0  0  0  0  3  0  0  0  0  0  0
   40.2860   29.8140   42.3330 C   0  0  0  0  0  0  0  0  0  0  0  0
   40.8050   31.0340   42.7360 C   0  0  0  0  0  0  0  0  0  0  0  0
   40.2790   31.5540   43.5280 H   0  0  0  0  0  0  0  0  0  0  0  0
   41.9260   31.6460   42.2230 C   0  0  0  0  0  0  0  0  0  0  0  0
   42.5530   32.8040   42.4930 N   0  0  0  0  0  0  0  0  0  0  0  0
   42.2660   33.5140   43.2160 H   0  0  0  0  0  0  0  0  0  0  0  0
   43.5980   32.8790   41.6750 N   0  0  0  0  0  0  0  0  0  0  0  0
   43.6520   31.7860   40.8840 C   0  0  0  0  0  0  0  0  0  0  0  0
   44.4030   31.5740   40.1140 H   0  0  0  0  0  0  0  0  0  0  0  0
   42.5860   30.9750   41.2150 C   0  0  0  0  0  0  0  0  0  0  0  0
   42.1430   29.7560   40.7510 C   0  0  0  0  0  3  0  0  0  0  0  0
   37.1640   29.2760   41.2480 S   0  0  0  0  0  0  0  0  0  0  0  0
   38.9070   31.5800   38.4810 C   0  0  0  0  0  0  0  0  0  0  0  0
   38.5960   30.9190   39.6540 C   0  0  0  0  0  0  0  0  0  0  0  0
   37.5210   30.0600   39.7210 C   0  0  0  0  0  0  0  0  0  0  0  0
   36.7320   29.8420   38.6160 C   0  0  0  0  0  0  0  0  0  0  0  0
   36.9980   30.4710   37.4370 C   0  0  0  0  0  0  0  0  0  0  0  0
   38.0730   31.3240   37.3860 C   0  0  0  0  0  0  0  0  0  0  0  0
   39.2410   31.1180   40.5020 H   0  0  0  0  0  0  0  0  0  0  0  0
   35.8920   29.1470   38.7350 H   0  0  0  0  0  0  0  0  0  0  0  0
   36.3680   30.2890   36.5750 H   0  0  0  0  0  0  0  0  0  0  0  0
   38.2790   31.8190   36.4500 H   0  0  0  0  0  0  0  0  0  0  0  0
   41.1770   34.2790   39.4080 C   0  0  0  0  0  0  0  0  0  0  0  0
   42.1590   34.2430   38.3800 C   0  0  0  0  0  0  0  0  0  0  0  0
   42.0270   33.2920   37.3820 C   0  0  0  0  0  0  0  0  0  0  0  0
   40.9730   32.4120   37.3960 N   0  0  0  0  0  0  0  0  0  0  0  0
   40.0500   32.4910   38.4160 C   0  0  0  0  0  0  0  0  0  0  0  0
   40.1430   33.4130   39.4180 N   0  0  0  0  0  0  0  0  0  0  0  0
   41.2710   35.0210   40.1970 H   0  0  0  0  0  0  0  0  0  0  0  0
   42.9820   34.9250   38.3630 H   0  0  0  0  0  0  0  0  0  0  0  0
   42.7350   33.2080   36.5710 H   0  0  0  0  0  0  0  0  0  0  0  0
  1 30  1  0  0  0  0
  1 10  1  0  0  0  0
  2  1  2  0  0  0  0
  3  2  1  0  0  0  0
  3  4  2  0  0  0  0
  4  5  1  0  0  0  0
  5 10  2  0  0  0  0
  5  6  1  0  0  0  0
  6  7  2  0  0  0  0
  7  8  1  0  0  0  0
  7 13  1  0  0  0  0
  8 14  1  0  0  0  0
  9 15  1  0  0  0  0
  9  8  2  0  0  0  0
 10  9  1  0  0  0  0
 11  3  1  0  0  0  0
 12  6  1  0  0  0  0
 15 16  1  0  0  0  0
 17 15  1  0  0  0  0
 18 19  1  0  0  0  0
 19 20  2  0  0  0  0
 19 15  1  0  0  0  0
 20 21  1  0  0  0  0
 22 23  1  0  0  0  0
 22 20  1  0  0  0  0
 23 24  1  0  0  0  0
 25 23  1  0  0  0  0
 26 28  1  0  0  0  0
 26 25  2  0  0  0  0
 27 26  1  0  0  0  0
 28 22  2  0  0  0  0
 29 28  1  0  0  0  0
 29 18  2  0  0  0  0
 31 32  1  0  0  0  0
 32 33  2  0  0  0  0
 32 37  1  0  0  0  0
 33 30  1  0  0  0  0
 34 38  1  0  0  0  0
 34 33  1  0  0  0  0
 35 34  2  0  0  0  0
 36 35  1  0  0  0  0
 36 31  2  0  0  0  0
 39 35  1  0  0  0  0
 40 36  1  0  0  0  0
 41 46  1  0  0  0  0
 41 47  1  0  0  0  0
 42 41  2  0  0  0  0
 43 44  2  0  0  0  0
 43 42  1  0  0  0  0
 44 45  1  0  0  0  0
 45 31  1  0  0  0  0
 45 46  2  0  0  0  0
 48 42  1  0  0  0  0
 49 43  1  0  0  0  0
M  END
>  <minimizedAffinity>
-6.99736738

$$$$

 OpenBabel03242516313D

 49 54  0  0  0  0  0  0  0  0999 V2000
   38.9320   30.3180   42.1130 C   0  0  0  0  0  0  0  0  0  0  0  0
   40.2050   30.5720   42.5510 N   0  0  0  0  0  0  0  0  0  0  0  0
   40.9850   31.5230   42.0470 C   0  0  0  0  0  0  0  0  0  0  0  0
   40.4830   32.2680   41.0550 N   0  0  0  0  0  0  0  0  0  0  0  0
   39.2480   32.0860   40.5670 C   0  0  0  0  0  0  0  0  0  0  0  0
   38.7130   32.8570   39.5380 C   0  0  0  0  0  0  0  0  0  0  0  0
   37.4600   32.6550   39.0630 C   0  0  0  0  0  0  0  0  0  0  0  0
   36.6890   31.6720   39.5970 C   0  0  0  0  0  0  0  0  0  0  0  0
   37.1700   30.8620   40.6340 C   0  0  0  0  0  0  0  0  0  0  0  0
   38.4290   31.0820   41.0990 C   0  0  0  0  0  0  0  0  0  0  0  0
   41.9710   31.6440   42.4590 H   0  0  0  0  0  0  0  0  0  0  0  0
   39.3580   33.6250   39.1420 H   0  0  0  0  0  0  0  0  0  0  0  0
   37.0970   33.2880   38.2580 H   0  0  0  0  0  0  0  0  0  0  0  0
   35.6880   31.5550   39.1720 H   0  0  0  0  0  0  0  0  0  0  0  0
   36.2470   29.8110   41.1110 C   0  0  0  0  0  0  0  0  0  0  0  0
   35.2250   30.1680   41.3550 H   0  0  0  0  0  0  0  0  0  0  0  0
   36.6860   29.0540   41.7680 H   0  0  0  0  0  0  0  0  0  0  0  0
   36.6460   27.8550   39.4780 C   0  0  0  0  0  3  0  0  0  0  0  0
   35.8520   28.9080   39.9540 C   0  0  0  0  0  0  0  0  0  0  0  0
   34.6540   29.0580   39.2730 C   0  0  0  0  0  0  0  0  0  0  0  0
   34.0000   29.8580   39.6010 H   0  0  0  0  0  0  0  0  0  0  0  0
   34.2190   28.2850   38.2210 C   0  0  0  0  0  0  0  0  0  0  0  0
   33.1070   28.2950   37.4640 N   0  0  0  0  0  0  0  0  0  0  0  0
   32.2980   28.9620   37.5550 H   0  0  0  0  0  0  0  0  0  0  0  0
   33.2280   27.3050   36.5860 N   0  0  0  0  0  0  0  0  0  0  0  0
   34.4000   26.6600   36.7670 C   0  0  0  0  0  0  0  0  0  0  0  0
   34.7700   25.8030   36.1900 H   0  0  0  0  0  0  0  0  0  0  0  0
   35.0580   27.2700   37.8140 C   0  0  0  0  0  0  0  0  0  0  0  0
   36.2690   27.0460   38.4320 C   0  0  0  0  0  3  0  0  0  0  0  0
   37.9570   29.1000   42.8440 S   0  0  0  0  0  0  0  0  0  0  0  0
   40.7670   26.3020   43.3680 C   0  0  0  0  0  0  0  0  0  0  0  0
   40.0840   27.5010   43.3060 C   0  0  0  0  0  0  0  0  0  0  0  0
   38.7590   27.5430   42.9290 C   0  0  0  0  0  0  0  0  0  0  0  0
   38.0880   26.3870   42.6060 C   0  0  0  0  0  0  0  0  0  0  0  0
   38.7190   25.1810   42.6520 C   0  0  0  0  0  0  0  0  0  0  0  0
   40.0400   25.1550   43.0290 C   0  0  0  0  0  0  0  0  0  0  0  0
   40.6460   28.3890   43.5680 H   0  0  0  0  0  0  0  0  0  0  0  0
   37.0350   26.4890   42.3150 H   0  0  0  0  0  0  0  0  0  0  0  0
   38.1780   24.2780   42.3950 H   0  0  0  0  0  0  0  0  0  0  0  0
   40.5350   24.1970   43.0640 H   0  0  0  0  0  0  0  0  0  0  0  0
   44.2990   25.3950   43.3420 C   0  0  0  0  0  0  0  0  0  0  0  0
   44.8280   26.1230   44.4430 C   0  0  0  0  0  0  0  0  0  0  0  0
   43.9640   26.9150   45.1800 C   0  0  0  0  0  0  0  0  0  0  0  0
   42.6340   26.9880   44.8460 N   0  0  0  0  0  0  0  0  0  0  0  0
   42.1740   26.2630   43.7690 C   0  0  0  0  0  0  0  0  0  0  0  0
   42.9920   25.4690   43.0170 N   0  0  0  0  0  0  0  0  0  0  0  0
   44.9680   24.7690   42.7560 H   0  0  0  0  0  0  0  0  0  0  0  0
   45.8630   26.0690   44.7080 H   0  0  0  0  0  0  0  0  0  0  0  0
   44.2970   27.4950   46.0280 H   0  0  0  0  0  0  0  0  0  0  0  0
  1  2  1  0  0  0  0
  1 30  1  0  0  0  0
  3 11  1  0  0  0  0
  3  2  2  0  0  0  0
  4  3  1  0  0  0  0
  5  4  2  0  0  0  0
  5 10  1  0  0  0  0
  6  5  1  0  0  0  0
  7  6  2  0  0  0  0
  7  8  1  0  0  0  0
  8  9  2  0  0  0  0
  9 10  1  0  0  0  0
  9 15  1  0  0  0  0
 10  1  2  0  0  0  0
 12  6  1  0  0  0  0
 13  7  1  0  0  0  0
 14  8  1  0  0  0  0
 15 16  1  0  0  0  0
 15 17  1  0  0  0  0
 18 19  1  0  0  0  0
 19 15  1  0  0  0  0
 20 21  1  0  0  0  0
 20 19  2  0  0  0  0
 22 20  1  0  0  0  0
 23 24  1  0  0  0  0
 23 22  1  0  0  0  0
 25 26  2  0  0  0  0
 25 23  1  0  0  0  0
 26 28  1  0  0  0  0
 27 26  1  0  0  0  0
 28 22  2  0  0  0  0
 28 29  1  0  0  0  0
 29 18  2  0  0  0  0
 30 33  1  0  0  0  0
 31 45  1  0  0  0  0
 32 31  1  0  0  0  0
 32 37  1  0  0  0  0
 33 32  2  0  0  0  0
 34 35  2  0  0  0  0
 34 33  1  0  0  0  0
 35 36  1  0  0  0  0
 36 40  1  0  0  0  0
 36 31  2  0  0  0  0
 38 34  1  0  0  0  0
 39 35  1  0  0  0  0
 41 42  1  0  0  0  0
 42 48  1  0  0  0  0
 42 43  2  0  0  0  0
 43 49  1  0  0  0  0
 44 43  1  0  0  0  0
 45 44  2  0  0  0  0
 46 41  2  0  0  0  0
 46 45  1  0  0  0  0
 47 41  1  0  0  0  0
M  END
>  <minimizedAffinity>
-6.99383783

$$$$

 OpenBabel03242516313D

 49 54  0  0  0  0  0  0  0  0999 V2000
   36.2780   28.0400   40.0830 C   0  0  0  0  0  0  0  0  0  0  0  0
   35.7080   28.1530   38.8430 N   0  0  0  0  0  0  0  0  0  0  0  0
   35.5160   27.1280   38.0200 C   0  0  0  0  0  0  0  0  0  0  0  0
   35.9070   25.9200   38.4420 N   0  0  0  0  0  0  0  0  0  0  0  0
   36.4730   25.7200   39.6400 C   0  0  0  0  0  0  0  0  0  0  0  0
   36.8800   24.4670   40.0930 C   0  0  0  0  0  0  0  0  0  0  0  0
   37.4490   24.2900   41.3100 C   0  0  0  0  0  0  0  0  0  0  0  0
   37.6350   25.3600   42.1260 C   0  0  0  0  0  0  0  0  0  0  0  0
   37.2470   26.6470   41.7300 C   0  0  0  0  0  0  0  0  0  0  0  0
   36.6760   26.8030   40.5050 C   0  0  0  0  0  0  0  0  0  0  0  0
   35.0600   27.3210   37.0650 H   0  0  0  0  0  0  0  0  0  0  0  0
   36.7150   23.6460   39.4130 H   0  0  0  0  0  0  0  0  0  0  0  0
   37.7460   23.2890   41.6090 H   0  0  0  0  0  0  0  0  0  0  0  0
   38.1000   25.1560   43.0960 H   0  0  0  0  0  0  0  0  0  0  0  0
   37.5270   27.7300   42.6940 C   0  0  0  0  0  0  0  0  0  0  0  0
   37.2490   27.5000   43.7430 H   0  0  0  0  0  0  0  0  0  0  0  0
   37.3410   28.7470   42.3350 H   0  0  0  0  0  0  0  0  0  0  0  0
   39.8530   28.7560   42.2590 C   0  0  0  0  0  3  0  0  0  0  0  0
   39.0260   27.8410   42.9250 C   0  0  0  0  0  0  0  0  0  0  0  0
   39.6970   27.0330   43.8290 C   0  0  0  0  0  0  0  0  0  0  0  0
   39.1040   26.3070   44.3720 H   0  0  0  0  0  0  0  0  0  0  0  0
   41.0460   27.0690   44.1000 C   0  0  0  0  0  0  0  0  0  0  0  0
   41.8410   26.3710   44.9310 N   0  0  0  0  0  0  0  0  0  0  0  0
   41.5380   25.6000   45.5810 H   0  0  0  0  0  0  0  0  0  0  0  0
   43.0740   26.8410   44.7720 N   0  0  0  0  0  0  0  0  0  0  0  0
   43.0830   27.8290   43.8530 C   0  0  0  0  0  0  0  0  0  0  0  0
   43.9560   28.4020   43.5180 H   0  0  0  0  0  0  0  0  0  0  0  0
   41.7890   27.9970   43.4040 C   0  0  0  0  0  0  0  0  0  0  0  0
   41.2080   28.8420   42.4850 C   0  0  0  0  0  3  0  0  0  0  0  0
   36.4540   29.4050   41.1200 S   0  0  0  0  0  0  0  0  0  0  0  0
   39.3670   31.4460   39.2900 C   0  0  0  0  0  0  0  0  0  0  0  0
   38.6060   30.4460   39.8640 C   0  0  0  0  0  0  0  0  0  0  0  0
   37.3570   30.7130   40.3790 C   0  0  0  0  0  0  0  0  0  0  0  0
   36.8390   31.9860   40.3310 C   0  0  0  0  0  0  0  0  0  0  0  0
   37.5520   33.0060   39.7760 C   0  0  0  0  0  0  0  0  0  0  0  0
   38.7960   32.7240   39.2660 C   0  0  0  0  0  0  0  0  0  0  0  0
   39.0480   29.4570   39.8830 H   0  0  0  0  0  0  0  0  0  0  0  0
   35.8390   32.1320   40.7580 H   0  0  0  0  0  0  0  0  0  0  0  0
   37.1320   34.0030   39.7450 H   0  0  0  0  0  0  0  0  0  0  0  0
   39.3560   33.5350   38.8280 H   0  0  0  0  0  0  0  0  0  0  0  0
   42.9870   31.0270   39.1610 C   0  0  0  0  0  0  0  0  0  0  0  0
   43.2200   30.6370   37.8140 C   0  0  0  0  0  0  0  0  0  0  0  0
   42.1300   30.5230   36.9670 C   0  0  0  0  0  0  0  0  0  0  0  0
   40.8630   30.7830   37.4290 N   0  0  0  0  0  0  0  0  0  0  0  0
   40.6940   31.1570   38.7440 C   0  0  0  0  0  0  0  0  0  0  0  0
   41.7420   31.2810   39.6110 N   0  0  0  0  0  0  0  0  0  0  0  0
   43.8360   31.1190   39.8350 H   0  0  0  0  0  0  0  0  0  0  0  0
   44.2040   30.4340   37.4490 H   0  0  0  0  0  0  0  0  0  0  0  0
   42.2330   30.2320   35.9330 H   0  0  0  0  0  0  0  0  0  0  0  0
  1 10  1  0  0  0  0
  1 30  1  0  0  0  0
  2  1  2  0  0  0  0
  3  4  2  0  0  0  0
  3  2  1  0  0  0  0
  4  5  1  0  0  0  0
  5  6  2  0  0  0  0
  5 10  1  0  0  0  0
  6  7  1  0  0  0  0
  7 13  1  0  0  0  0
  7  8  2  0  0  0  0
  8 14  1  0  0  0  0
  9  8  1  0  0  0  0
  9 15  1  0  0  0  0
 10  9  2  0  0  0  0
 11  3  1  0  0  0  0
 12  6  1  0  0  0  0
 15 19  1  0  0  0  0
 15 16  1  0  0  0  0
 17 15  1  0  0  0  0
 18 29  2  0  0  0  0
 18 19  1  0  0  0  0
 19 20  2  0  0  0  0
 20 22  1  0  0  0  0
 20 21  1  0  0  0  0
 22 23  1  0  0  0  0
 23 24  1  0  0  0  0
 25 23  1  0  0  0  0
 26 25  2  0  0  0  0
 27 26  1  0  0  0  0
 28 26  1  0  0  0  0
 28 22  2  0  0  0  0
 29 28  1  0  0  0  0
 31 32  1  0  0  0  0
 32 37  1  0  0  0  0
 32 33  2  0  0  0  0
 33 30  1  0  0  0  0
 34 33  1  0  0  0  0
 34 38  1  0  0  0  0
 35 34  2  0  0  0  0
 36 31  2  0  0  0  0
 36 35  1  0  0  0  0
 39 35  1  0  0  0  0
 40 36  1  0  0  0  0
 41 46  1  0  0  0  0
 41 47  1  0  0  0  0
 42 41  2  0  0  0  0
 43 44  2  0  0  0  0
 43 42  1  0  0  0  0
 44 45  1  0  0  0  0
 45 31  1  0  0  0  0
 45 46  2  0  0  0  0
 48 42  1  0  0  0  0
 49 43  1  0  0  0  0
M  END
>  <minimizedAffinity>
-6.91481924

$$$$

 OpenBabel03242516313D

 49 54  0  0  0  0  0  0  0  0999 V2000
   39.4110   29.8280   42.4170 C   0  0  0  0  0  0  0  0  0  0  0  0
   40.3020   30.8580   42.2620 N   0  0  0  0  0  0  0  0  0  0  0  0
   41.5960   30.7650   42.5460 C   0  0  0  0  0  0  0  0  0  0  0  0
   42.0410   29.5910   43.0080 N   0  0  0  0  0  0  0  0  0  0  0  0
   41.2380   28.5330   43.1890 C   0  0  0  0  0  0  0  0  0  0  0  0
   41.6890   27.3050   43.6660 C   0  0  0  0  0  0  0  0  0  0  0  0
   40.8580   26.2480   43.8390 C   0  0  0  0  0  0  0  0  0  0  0  0
   39.5390   26.3770   43.5430 C   0  0  0  0  0  0  0  0  0  0  0  0
   39.0220   27.5870   43.0600 C   0  0  0  0  0  0  0  0  0  0  0  0
   39.8730   28.6340   42.8910 C   0  0  0  0  0  0  0  0  0  0  0  0
   42.2140   31.6310   42.3910 H   0  0  0  0  0  0  0  0  0  0  0  0
   42.7430   27.2460   43.8890 H   0  0  0  0  0  0  0  0  0  0  0  0
   41.2670   25.3150   44.2140 H   0  0  0  0  0  0  0  0  0  0  0  0
   38.9160   25.4920   43.7040 H   0  0  0  0  0  0  0  0  0  0  0  0
   37.5670   27.6090   42.8010 C   0  0  0  0  0  0  0  0  0  0  0  0
   37.2240   28.4460   42.1580 H   0  0  0  0  0  0  0  0  0  0  0  0
   36.9290   27.3270   43.6440 H   0  0  0  0  0  0  0  0  0  0  0  0
   36.9390   25.1680   42.2550 C   0  0  0  0  0  3  0  0  0  0  0  0
   37.1970   26.4840   41.8470 C   0  0  0  0  0  0  0  0  0  0  0  0
   37.0800   26.6810   40.4800 C   0  0  0  0  0  0  0  0  0  0  0  0
   37.2680   27.6820   40.1110 H   0  0  0  0  0  0  0  0  0  0  0  0
   36.7460   25.7230   39.5510 C   0  0  0  0  0  0  0  0  0  0  0  0
   36.5930   25.7450   38.2150 N   0  0  0  0  0  0  0  0  0  0  0  0
   36.7130   26.5830   37.5880 H   0  0  0  0  0  0  0  0  0  0  0  0
   36.2610   24.5130   37.8430 N   0  0  0  0  0  0  0  0  0  0  0  0
   36.2000   23.7000   38.9190 C   0  0  0  0  0  0  0  0  0  0  0  0
   35.9510   22.6320   38.9170 H   0  0  0  0  0  0  0  0  0  0  0  0
   36.5080   24.4540   40.0330 C   0  0  0  0  0  0  0  0  0  0  0  0
   36.6010   24.1650   41.3760 C   0  0  0  0  0  3  0  0  0  0  0  0
   37.7520   30.0030   41.9830 S   0  0  0  0  0  0  0  0  0  0  0  0
   36.4700   29.9950   38.1950 C   0  0  0  0  0  0  0  0  0  0  0  0
   36.6660   29.7000   39.5300 C   0  0  0  0  0  0  0  0  0  0  0  0
   37.5280   30.4480   40.3030 C   0  0  0  0  0  0  0  0  0  0  0  0
   38.2130   31.5080   39.7570 C   0  0  0  0  0  0  0  0  0  0  0  0
   38.0540   31.8380   38.4450 C   0  0  0  0  0  0  0  0  0  0  0  0
   37.1910   31.0830   37.6880 C   0  0  0  0  0  0  0  0  0  0  0  0
   36.1090   28.8580   39.9220 H   0  0  0  0  0  0  0  0  0  0  0  0
   38.8830   32.0630   40.4260 H   0  0  0  0  0  0  0  0  0  0  0  0
   38.6000   32.6760   38.0290 H   0  0  0  0  0  0  0  0  0  0  0  0
   37.0690   31.3480   36.6490 H   0  0  0  0  0  0  0  0  0  0  0  0
   34.8470   28.6380   35.2250 C   0  0  0  0  0  0  0  0  0  0  0  0
   33.8790   27.7480   35.7640 C   0  0  0  0  0  0  0  0  0  0  0  0
   33.7950   27.6260   37.1410 C   0  0  0  0  0  0  0  0  0  0  0  0
   34.6320   28.3510   37.9540 N   0  0  0  0  0  0  0  0  0  0  0  0
   35.5530   29.1980   37.3790 C   0  0  0  0  0  0  0  0  0  0  0  0
   35.6680   29.3480   36.0260 N   0  0  0  0  0  0  0  0  0  0  0  0
   34.9220   28.7410   34.1450 H   0  0  0  0  0  0  0  0  0  0  0  0
   33.2240   27.1810   35.1360 H   0  0  0  0  0  0  0  0  0  0  0  0
   33.0840   26.9700   37.6190 H   0  0  0  0  0  0  0  0  0  0  0  0
  1 10  1  0  0  0  0
  2  1  2  0  0  0  0
  2  3  1  0  0  0  0
  3  4  2  0  0  0  0
  4  5  1  0  0  0  0
  5  6  1  0  0  0  0
  6  7  2  0  0  0  0
  6 12  1  0  0  0  0
  7 13  1  0  0  0  0
  8 14  1  0  0  0  0
  8  7  1  0  0  0  0
  9  8  2  0  0  0  0
 10  9  1  0  0  0  0
 10  5  2  0  0  0  0
 11  3  1  0  0  0  0
 15  9  1  0  0  0  0
 15 17  1  0  0  0  0
 16 15  1  0  0  0  0
 19 18  1  0  0  0  0
 19 15  1  0  0  0  0
 20 19  2  0  0  0  0
 21 20  1  0  0  0  0
 22 28  2  0  0  0  0
 22 20  1  0  0  0  0
 23 22  1  0  0  0  0
 24 23  1  0  0  0  0
 25 23  1  0  0  0  0
 25 26  2  0  0  0  0
 26 28  1  0  0  0  0
 27 26  1  0  0  0  0
 28 29  1  0  0  0  0
 29 18  2  0  0  0  0
 30  1  1  0  0  0  0
 31 32  1  0  0  0  0
 32 37  1  0  0  0  0
 32 33  2  0  0  0  0
 33 30  1  0  0  0  0
 34 33  1  0  0  0  0
 34 38  1  0  0  0  0
 35 34  2  0  0  0  0
 36 31  2  0  0  0  0
 36 35  1  0  0  0  0
 39 35  1  0  0  0  0
 40 36  1  0  0  0  0
 41 42  2  0  0  0  0
 41 46  1  0  0  0  0
 42 43  1  0  0  0  0
 43 49  1  0  0  0  0
 43 44  2  0  0  0  0
 45 44  1  0  0  0  0
 45 31  1  0  0  0  0
 46 45  2  0  0  0  0
 47 41  1  0  0  0  0
 48 42  1  0  0  0  0
M  END
>  <minimizedAffinity>
-6.90888834

$$$$
