
 OpenBabel03252509033D

 51 54  0  0  1  0  0  0  0  0999 V2000
   46.7030   34.4030   43.4740 N   0  0  0  0  0  0  0  0  0  0  0  0
   46.4540   34.9550   42.1980 C   0  0  0  0  0  0  0  0  0  0  0  0
   44.9920   34.9480   41.7750 C   0  0  0  0  0  0  0  0  0  0  0  0
   44.0360   35.1680   42.9190 C   0  0  0  0  0  0  0  0  0  0  0  0
   44.7680   35.4230   44.2270 C   0  0  0  0  0  0  0  0  0  0  0  0
   45.6900   34.1440   44.3650 C   0  0  2  0  0  0  0  0  0  0  0  0
   47.0100   34.5260   41.3590 H   0  0  0  0  0  0  0  0  0  0  0  0
   46.7430   36.0370   42.2130 H   0  0  0  0  0  0  0  0  0  0  0  0
   44.8020   33.9640   41.2730 H   0  0  0  0  0  0  0  0  0  0  0  0
   44.8550   35.7220   40.9910 H   0  0  0  0  0  0  0  0  0  0  0  0
   43.3070   35.9820   42.7290 H   0  0  0  0  0  0  0  0  0  0  0  0
   43.4410   34.2430   43.0890 H   0  0  0  0  0  0  0  0  0  0  0  0
   44.0460   35.4260   45.0450 H   0  0  0  0  0  0  0  0  0  0  0  0
   45.4200   36.3040   44.1720 H   0  0  0  0  0  0  0  0  0  0  0  0
   45.0400   33.2670   44.2030 H   0  0  0  0  0  0  0  0  0  0  0  0
   47.9080   33.6140   43.5540 C   0  0  0  0  0  0  0  0  0  0  0  0
   48.7760   34.2080   43.2370 H   0  0  0  0  0  0  0  0  0  0  0  0
   48.0740   33.3520   44.6350 H   0  0  0  0  0  0  0  0  0  0  0  0
   47.6900   32.3540   42.8010 C   0  0  0  0  0  0  0  0  0  0  0  0
   46.7860   32.4100   42.1480 H   0  0  0  0  0  0  0  0  0  0  0  0
   47.5530   31.4520   43.4350 H   0  0  0  0  0  0  0  0  0  0  0  0
   51.1850   32.1340   41.4230 C   0  0  0  0  0  0  0  0  0  0  0  0
   50.1010   32.3370   42.2950 C   0  0  0  0  0  0  0  0  0  0  0  0
   48.8250   32.1320   41.8620 C   0  0  0  0  0  0  0  0  0  0  0  0
   48.6540   31.7340   40.5910 N   0  0  0  0  0  0  0  0  0  0  0  0
   49.6810   31.5370   39.7540 C   0  0  0  0  0  0  0  0  0  0  0  0
   50.9510   31.7320   40.1520 N   0  0  0  0  0  0  0  0  0  0  0  0
   52.1930   32.3020   41.7860 H   0  0  0  0  0  0  0  0  0  0  0  0
   50.3420   32.6600   43.3050 H   0  0  0  0  0  0  0  0  0  0  0  0
   49.3690   31.2180   38.7690 H   0  0  0  0  0  0  0  0  0  0  0  0
   46.0850   34.2530   45.6840 O   0  0  0  0  0  0  0  0  0  0  0  0
   45.6200   31.6340   45.5890 O   0  0  0  0  0  0  0  0  0  0  0  0
   46.0270   32.7980   46.5070 P   0  0  2  0  0  0  0  0  0  0  0  0
   44.7130   32.9390   47.6070 O   0  0  0  0  0  0  0  0  0  0  0  0
   43.8650   32.6970   47.1950 H   0  0  0  0  0  0  0  0  0  0  0  0
   47.3950   32.4630   47.3990 O   0  0  0  0  0  0  0  0  0  0  0  0
   47.7480   31.1410   47.1990 C   0  0  0  0  0  0  0  0  0  0  0  0
   46.8040   30.5640   47.1750 H   0  0  0  0  0  0  0  0  0  0  0  0
   48.2820   30.9850   46.2340 H   0  0  0  0  0  0  0  0  0  0  0  0
   49.1380   31.5430   49.2670 C   0  0  0  0  0  3  0  0  0  0  0  0
   48.6020   30.6730   48.3220 C   0  0  0  0  0  0  0  0  0  0  0  0
   48.8470   29.2970   48.3850 C   0  0  0  0  0  0  0  0  0  0  0  0
   48.4450   28.6040   47.6670 H   0  0  0  0  0  0  0  0  0  0  0  0
   49.6380   28.8190   49.4140 C   0  0  0  0  0  0  0  0  0  0  0  0
   50.0450   27.5610   49.7340 N   0  0  0  0  0  0  0  0  0  0  0  0
   49.7700   26.7200   49.1670 H   0  0  0  0  0  0  0  0  0  0  0  0
   50.7980   27.6220   50.8220 N   0  0  0  0  0  0  0  0  0  0  0  0
   50.9060   28.9020   51.2410 C   0  0  0  0  0  0  0  0  0  0  0  0
   51.4680   29.2270   52.1120 H   0  0  0  0  0  0  0  0  0  0  0  0
   50.1730   29.6890   50.3580 C   0  0  0  0  0  0  0  0  0  0  0  0
   49.9350   31.0440   50.3010 C   0  0  0  0  0  3  0  0  0  0  0  0
  1 16  1  0  0  0  0
  1  6  1  0  0  0  0
  2  8  1  0  0  0  0
  2  1  1  0  0  0  0
  3  2  1  0  0  0  0
  3  4  1  0  0  0  0
  4 12  1  0  0  0  0
  4  5  1  0  0  0  0
  5  6  1  0  0  0  0
  5 13  1  0  0  0  0
  6 15  1  6  0  0  0
  6 31  1  0  0  0  0
  7  2  1  0  0  0  0
  9  3  1  0  0  0  0
 10  3  1  0  0  0  0
 11  4  1  0  0  0  0
 14  5  1  0  0  0  0
 16 18  1  0  0  0  0
 17 16  1  0  0  0  0
 19 21  1  0  0  0  0
 19 16  1  0  0  0  0
 20 19  1  0  0  0  0
 22 28  1  0  0  0  0
 22 23  1  0  0  0  0
 23 29  1  0  0  0  0
 24 23  2  0  0  0  0
 24 19  1  0  0  0  0
 25 24  1  0  0  0  0
 26 27  1  0  0  0  0
 26 25  2  0  0  0  0
 27 22  2  0  0  0  0
 30 26  1  0  0  0  0
 31 33  1  0  0  0  0
 33 32  2  6  0  0  0
 33 36  1  0  0  0  0
 33 34  1  0  0  0  0
 35 34  1  0  0  0  0
 37 36  1  0  0  0  0
 37 41  1  0  0  0  0
 38 37  1  0  0  0  0
 39 37  1  0  0  0  0
 40 51  1  0  0  0  0
 41 42  1  0  0  0  0
 41 40  2  0  0  0  0
 42 44  2  0  0  0  0
 43 42  1  0  0  0  0
 44 45  1  0  0  0  0
 44 50  1  0  0  0  0
 45 47  1  0  0  0  0
 46 45  1  0  0  0  0
 47 48  2  0  0  0  0
 48 49  1  0  0  0  0
 50 48  1  0  0  0  0
 51 50  2  0  0  0  0
M  END
>  <minimizedAffinity>
-5.58919573

>  <minimizedRMSD>
3.37708712

$$$$
