
 OpenBabel03242516013D

 31 34  0  0  0  0  0  0  0  0999 V2000
   38.3970   27.7800   39.6210 Cl  0  0  0  0  0  0  0  0  0  0  0  0
   37.6810   27.5190   41.1960 C   0  0  0  0  0  0  0  0  0  0  0  0
   37.2940   26.2840   41.6020 C   0  0  0  0  0  0  0  0  0  0  0  0
   36.7440   26.1920   42.8580 C   0  0  0  0  0  0  0  0  0  0  0  0
   36.5800   27.2550   43.6780 C   0  0  0  0  0  0  0  0  0  0  0  0
   36.9730   28.5020   43.2670 C   0  0  0  0  0  0  0  0  0  0  0  0
   37.5290   28.6250   42.0090 C   0  0  0  0  0  0  0  0  0  0  0  0
   36.4230   25.2060   43.2080 H   0  0  0  0  0  0  0  0  0  0  0  0
   36.1430   27.1440   44.6620 H   0  0  0  0  0  0  0  0  0  0  0  0
   36.8350   29.3410   43.9320 H   0  0  0  0  0  0  0  0  0  0  0  0
   39.2130   30.3720   42.0150 C   0  0  0  0  0  3  0  0  0  0  0  0
   37.9270   29.9770   41.6250 C   0  0  0  0  0  0  0  0  0  0  0  0
   37.1510   30.8610   40.9290 C   0  0  0  0  0  0  0  0  0  0  0  0
   36.1750   30.5570   40.6350 H   0  0  0  0  0  0  0  0  0  0  0  0
   37.5650   32.1310   40.5860 C   0  0  0  0  0  0  0  0  0  0  0  0
   36.9700   33.1440   39.9140 N   0  0  0  0  0  0  0  0  0  0  0  0
   36.0020   33.0650   39.5320 H   0  0  0  0  0  0  0  0  0  0  0  0
   37.8320   34.1610   39.8660 N   0  0  0  0  0  0  0  0  0  0  0  0
   38.9760   33.8120   40.5000 C   0  0  0  0  0  0  0  0  0  0  0  0
   39.8450   34.4500   40.6110 H   0  0  0  0  0  0  0  0  0  0  0  0
   38.8430   32.5220   40.9720 C   0  0  0  0  0  0  0  0  0  0  0  0
   39.6570   31.6540   41.6790 C   0  0  0  0  0  3  0  0  0  0  0  0
   36.7390   23.6720   38.9120 C   0  0  0  0  0  0  0  0  0  0  0  0
   36.5250   24.7640   39.7700 C   0  0  0  0  0  0  0  0  0  0  0  0
   37.4820   25.1620   40.7010 C   0  0  0  0  0  0  0  0  0  0  0  0
   38.6290   24.4230   40.7190 N   0  0  0  0  0  0  0  0  0  0  0  0
   38.8200   23.3800   39.8910 C   0  0  0  0  0  0  0  0  0  0  0  0
   37.8890   23.0000   38.9910 N   0  0  0  0  0  0  0  0  0  0  0  0
   35.8840   23.5230   38.2660 H   0  0  0  0  0  0  0  0  0  0  0  0
   35.6300   25.3710   39.7830 H   0  0  0  0  0  0  0  0  0  0  0  0
   39.7340   22.7920   39.9050 H   0  0  0  0  0  0  0  0  0  0  0  0
  1  2  1  0  0  0  0
  2  3  2  0  0  0  0
  2  7  1  0  0  0  0
  3  4  1  0  0  0  0
  4  8  1  0  0  0  0
  4  5  2  0  0  0  0
  5  9  1  0  0  0  0
  6  5  1  0  0  0  0
  6 10  1  0  0  0  0
  7  6  2  0  0  0  0
 12  7  1  0  0  0  0
 12 11  2  0  0  0  0
 13 12  1  0  0  0  0
 14 13  1  0  0  0  0
 15 13  2  0  0  0  0
 15 21  1  0  0  0  0
 16 15  1  0  0  0  0
 17 16  1  0  0  0  0
 18 16  1  0  0  0  0
 18 19  2  0  0  0  0
 19 20  1  0  0  0  0
 19 21  1  0  0  0  0
 21 22  2  0  0  0  0
 22 11  1  0  0  0  0
 23 28  2  0  0  0  0
 23 24  1  0  0  0  0
 24 30  1  0  0  0  0
 24 25  2  0  0  0  0
 25 26  1  0  0  0  0
 25  3  1  0  0  0  0
 27 31  1  0  0  0  0
 27 26  2  0  0  0  0
 28 27  1  0  0  0  0
 29 23  1  0  0  0  0
M  END
>  <minimizedAffinity>
-6.14550066

$$$$

 OpenBabel03242516013D

 31 34  0  0  0  0  0  0  0  0999 V2000
   38.1960   27.9670   39.4350 Cl  0  0  0  0  0  0  0  0  0  0  0  0
   37.6630   27.7380   41.0860 C   0  0  0  0  0  0  0  0  0  0  0  0
   37.3800   26.5030   41.5730 C   0  0  0  0  0  0  0  0  0  0  0  0
   36.9700   26.4370   42.8840 C   0  0  0  0  0  0  0  0  0  0  0  0
   36.8450   27.5230   43.6800 C   0  0  0  0  0  0  0  0  0  0  0  0
   37.1330   28.7690   43.1870 C   0  0  0  0  0  0  0  0  0  0  0  0
   37.5460   28.8670   41.8730 C   0  0  0  0  0  0  0  0  0  0  0  0
   36.7340   25.4520   43.2990 H   0  0  0  0  0  0  0  0  0  0  0  0
   36.5200   27.4320   44.7080 H   0  0  0  0  0  0  0  0  0  0  0  0
   37.0270   29.6270   43.8340 H   0  0  0  0  0  0  0  0  0  0  0  0
   36.7980   30.8720   40.7300 C   0  0  0  0  0  3  0  0  0  0  0  0
   37.8380   30.2190   41.4020 C   0  0  0  0  0  0  0  0  0  0  0  0
   39.0270   30.8720   41.5680 C   0  0  0  0  0  0  0  0  0  0  0  0
   39.8140   30.3710   42.0790 H   0  0  0  0  0  0  0  0  0  0  0  0
   39.2630   32.1510   41.1060 C   0  0  0  0  0  0  0  0  0  0  0  0
   40.3420   32.9660   41.1620 N   0  0  0  0  0  0  0  0  0  0  0  0
   41.2340   32.6770   41.6210 H   0  0  0  0  0  0  0  0  0  0  0  0
   40.0210   34.1070   40.5510 N   0  0  0  0  0  0  0  0  0  0  0  0
   38.7450   34.0340   40.1030 C   0  0  0  0  0  0  0  0  0  0  0  0
   38.2280   34.8230   39.5700 H   0  0  0  0  0  0  0  0  0  0  0  0
   38.2290   32.7990   40.4400 C   0  0  0  0  0  0  0  0  0  0  0  0
   37.0110   32.1690   40.2530 C   0  0  0  0  0  3  0  0  0  0  0  0
   38.7810   23.4680   39.7880 C   0  0  0  0  0  0  0  0  0  0  0  0
   38.6740   24.5730   40.6490 C   0  0  0  0  0  0  0  0  0  0  0  0
   37.5230   25.3560   40.6960 C   0  0  0  0  0  0  0  0  0  0  0  0
   36.5180   24.9780   39.8550 N   0  0  0  0  0  0  0  0  0  0  0  0
   36.6340   23.9170   39.0360 C   0  0  0  0  0  0  0  0  0  0  0  0
   37.7520   23.1620   38.9950 N   0  0  0  0  0  0  0  0  0  0  0  0
   39.7450   22.9910   39.8980 H   0  0  0  0  0  0  0  0  0  0  0  0
   39.4490   24.9020   41.3280 H   0  0  0  0  0  0  0  0  0  0  0  0
   35.8330   23.6140   38.3660 H   0  0  0  0  0  0  0  0  0  0  0  0
  1  2  1  0  0  0  0
  2  3  2  0  0  0  0
  2  7  1  0  0  0  0
  3  4  1  0  0  0  0
  4  8  1  0  0  0  0
  4  5  2  0  0  0  0
  5  9  1  0  0  0  0
  6  5  1  0  0  0  0
  6 10  1  0  0  0  0
  7  6  2  0  0  0  0
 11 12  1  0  0  0  0
 12 13  2  0  0  0  0
 12  7  1  0  0  0  0
 13 14  1  0  0  0  0
 15 16  1  0  0  0  0
 15 13  1  0  0  0  0
 16 17  1  0  0  0  0
 18 16  1  0  0  0  0
 19 21  1  0  0  0  0
 19 18  2  0  0  0  0
 20 19  1  0  0  0  0
 21 15  2  0  0  0  0
 22 21  1  0  0  0  0
 22 11  2  0  0  0  0
 23 29  1  0  0  0  0
 23 24  1  0  0  0  0
 24 25  2  0  0  0  0
 24 30  1  0  0  0  0
 25  3  1  0  0  0  0
 26 25  1  0  0  0  0
 27 26  2  0  0  0  0
 28 27  1  0  0  0  0
 28 23  2  0  0  0  0
 31 27  1  0  0  0  0
M  END
>  <minimizedAffinity>
-5.97051334

$$$$

 OpenBabel03242516013D

 31 34  0  0  0  0  0  0  0  0999 V2000
   39.4670   28.2000   40.1110 Cl  0  0  0  0  0  0  0  0  0  0  0  0
   37.8620   28.8740   40.2890 C   0  0  0  0  0  0  0  0  0  0  0  0
   36.7950   28.0910   40.5840 C   0  0  0  0  0  0  0  0  0  0  0  0
   35.5790   28.7240   40.7020 C   0  0  0  0  0  0  0  0  0  0  0  0
   35.4160   30.0560   40.5390 C   0  0  0  0  0  0  0  0  0  0  0  0
   36.4960   30.8470   40.2410 C   0  0  0  0  0  0  0  0  0  0  0  0
   37.7290   30.2380   40.1170 C   0  0  0  0  0  0  0  0  0  0  0  0
   34.7030   28.1130   40.9390 H   0  0  0  0  0  0  0  0  0  0  0  0
   34.4440   30.5200   40.6400 H   0  0  0  0  0  0  0  0  0  0  0  0
   36.3500   31.9080   40.1140 H   0  0  0  0  0  0  0  0  0  0  0  0
   39.5440   31.6490   40.8930 C   0  0  0  0  0  3  0  0  0  0  0  0
   38.8430   31.1290   39.7980 C   0  0  0  0  0  0  0  0  0  0  0  0
   39.2360   31.4810   38.5380 C   0  0  0  0  0  0  0  0  0  0  0  0
   38.6990   31.0840   37.7100 H   0  0  0  0  0  0  0  0  0  0  0  0
   40.2940   32.3280   38.2790 C   0  0  0  0  0  0  0  0  0  0  0  0
   40.8410   32.7960   37.1330 N   0  0  0  0  0  0  0  0  0  0  0  0
   40.4700   32.5340   36.1930 H   0  0  0  0  0  0  0  0  0  0  0  0
   41.8590   33.5910   37.4640 N   0  0  0  0  0  0  0  0  0  0  0  0
   41.9740   33.6380   38.8130 C   0  0  0  0  0  0  0  0  0  0  0  0
   42.7190   34.2090   39.3530 H   0  0  0  0  0  0  0  0  0  0  0  0
   40.9910   32.8420   39.3670 C   0  0  0  0  0  0  0  0  0  0  0  0
   40.6220   32.5090   40.6580 C   0  0  0  0  0  3  0  0  0  0  0  0
   37.4150   24.6830   42.1220 C   0  0  0  0  0  0  0  0  0  0  0  0
   37.2200   26.0690   41.9930 C   0  0  0  0  0  0  0  0  0  0  0  0
   37.0000   26.6640   40.7540 C   0  0  0  0  0  0  0  0  0  0  0  0
   36.9870   25.8160   39.6850 N   0  0  0  0  0  0  0  0  0  0  0  0
   37.1760   24.4910   39.8240 C   0  0  0  0  0  0  0  0  0  0  0  0
   37.3880   23.9200   41.0280 N   0  0  0  0  0  0  0  0  0  0  0  0
   37.5690   24.4160   43.1590 H   0  0  0  0  0  0  0  0  0  0  0  0
   37.2230   26.7710   42.8160 H   0  0  0  0  0  0  0  0  0  0  0  0
   37.1650   23.8140   38.9730 H   0  0  0  0  0  0  0  0  0  0  0  0
  1  2  1  0  0  0  0
  2  3  1  0  0  0  0
  3  4  2  0  0  0  0
  3 25  1  0  0  0  0
  4  8  1  0  0  0  0
  5  9  1  0  0  0  0
  5  4  1  0  0  0  0
  6  5  2  0  0  0  0
  7  6  1  0  0  0  0
  7  2  2  0  0  0  0
 10  6  1  0  0  0  0
 12  7  1  0  0  0  0
 12 11  2  0  0  0  0
 13 12  1  0  0  0  0
 14 13  1  0  0  0  0
 15 13  2  0  0  0  0
 15 21  1  0  0  0  0
 16 18  1  0  0  0  0
 16 15  1  0  0  0  0
 17 16  1  0  0  0  0
 18 19  2  0  0  0  0
 19 20  1  0  0  0  0
 19 21  1  0  0  0  0
 21 22  2  0  0  0  0
 22 11  1  0  0  0  0
 23 29  1  0  0  0  0
 24 23  1  0  0  0  0
 24 30  1  0  0  0  0
 25 24  2  0  0  0  0
 26 27  2  0  0  0  0
 26 25  1  0  0  0  0
 27 28  1  0  0  0  0
 28 23  2  0  0  0  0
 31 27  1  0  0  0  0
M  END
>  <minimizedAffinity>
-5.64161301

$$$$

 OpenBabel03242516013D

 31 34  0  0  0  0  0  0  0  0999 V2000
   39.8150   26.9030   40.5990 Cl  0  0  0  0  0  0  0  0  0  0  0  0
   38.5650   27.2110   41.7850 C   0  0  0  0  0  0  0  0  0  0  0  0
   37.4940   26.3880   41.9140 C   0  0  0  0  0  0  0  0  0  0  0  0
   36.5720   26.7240   42.8780 C   0  0  0  0  0  0  0  0  0  0  0  0
   36.6920   27.8090   43.6760 C   0  0  0  0  0  0  0  0  0  0  0  0
   37.7750   28.6390   43.5450 C   0  0  0  0  0  0  0  0  0  0  0  0
   38.7170   28.3270   42.5850 C   0  0  0  0  0  0  0  0  0  0  0  0
   35.6990   26.0760   43.0010 H   0  0  0  0  0  0  0  0  0  0  0  0
   35.9460   28.0410   44.4250 H   0  0  0  0  0  0  0  0  0  0  0  0
   37.8570   29.5010   44.1890 H   0  0  0  0  0  0  0  0  0  0  0  0
   41.0700   28.7680   42.9820 C   0  0  0  0  0  3  0  0  0  0  0  0
   39.8490   29.2460   42.4900 C   0  0  0  0  0  0  0  0  0  0  0  0
   39.7990   30.5080   41.9670 C   0  0  0  0  0  0  0  0  0  0  0  0
   38.8690   30.8660   41.5950 H   0  0  0  0  0  0  0  0  0  0  0  0
   40.8930   31.3460   41.8970 C   0  0  0  0  0  0  0  0  0  0  0  0
   41.0600   32.6050   41.4280 N   0  0  0  0  0  0  0  0  0  0  0  0
   40.2740   33.1530   41.0150 H   0  0  0  0  0  0  0  0  0  0  0  0
   42.3390   32.9380   41.6070 N   0  0  0  0  0  0  0  0  0  0  0  0
   42.9970   31.9050   42.1850 C   0  0  0  0  0  0  0  0  0  0  0  0
   44.0490   31.9050   42.4420 H   0  0  0  0  0  0  0  0  0  0  0  0
   42.1050   30.8700   42.3850 C   0  0  0  0  0  0  0  0  0  0  0  0
   42.1940   29.5980   42.9210 C   0  0  0  0  0  3  0  0  0  0  0  0
   36.6060   24.1030   39.0250 C   0  0  0  0  0  0  0  0  0  0  0  0
   36.6850   25.2410   39.8450 C   0  0  0  0  0  0  0  0  0  0  0  0
   37.3920   25.2310   41.0440 C   0  0  0  0  0  0  0  0  0  0  0  0
   37.9970   24.0500   41.3630 N   0  0  0  0  0  0  0  0  0  0  0  0
   37.9120   22.9680   40.5680 C   0  0  0  0  0  0  0  0  0  0  0  0
   37.2260   22.9840   39.4070 N   0  0  0  0  0  0  0  0  0  0  0  0
   36.0160   24.3090   38.1420 H   0  0  0  0  0  0  0  0  0  0  0  0
   36.2200   26.1920   39.6240 H   0  0  0  0  0  0  0  0  0  0  0  0
   38.3950   22.0280   40.8220 H   0  0  0  0  0  0  0  0  0  0  0  0
  1  2  1  0  0  0  0
  2  3  2  0  0  0  0
  2  7  1  0  0  0  0
  3  4  1  0  0  0  0
  4  8  1  0  0  0  0
  4  5  2  0  0  0  0
  5  9  1  0  0  0  0
  6  5  1  0  0  0  0
  6 10  1  0  0  0  0
  7  6  2  0  0  0  0
 12  7  1  0  0  0  0
 12 11  2  0  0  0  0
 13 12  1  0  0  0  0
 14 13  1  0  0  0  0
 15 13  2  0  0  0  0
 15 21  1  0  0  0  0
 16 18  1  0  0  0  0
 16 15  1  0  0  0  0
 17 16  1  0  0  0  0
 18 19  2  0  0  0  0
 19 21  1  0  0  0  0
 19 20  1  0  0  0  0
 21 22  2  0  0  0  0
 22 11  1  0  0  0  0
 23 28  2  0  0  0  0
 23 24  1  0  0  0  0
 24 25  2  0  0  0  0
 25 26  1  0  0  0  0
 25  3  1  0  0  0  0
 27 31  1  0  0  0  0
 27 26  2  0  0  0  0
 28 27  1  0  0  0  0
 29 23  1  0  0  0  0
 30 24  1  0  0  0  0
M  END
>  <minimizedAffinity>
-5.59855509

$$$$

 OpenBabel03242516013D

 31 34  0  0  0  0  0  0  0  0999 V2000
   38.8890   29.1930   39.9020 Cl  0  0  0  0  0  0  0  0  0  0  0  0
   38.0640   28.5640   41.3110 C   0  0  0  0  0  0  0  0  0  0  0  0
   36.8220   28.0250   41.2220 C   0  0  0  0  0  0  0  0  0  0  0  0
   36.2660   27.5600   42.3910 C   0  0  0  0  0  0  0  0  0  0  0  0
   36.8940   27.6180   43.5870 C   0  0  0  0  0  0  0  0  0  0  0  0
   38.1500   28.1620   43.6750 C   0  0  0  0  0  0  0  0  0  0  0  0
   38.7320   28.6370   42.5170 C   0  0  0  0  0  0  0  0  0  0  0  0
   35.2640   27.1230   42.3450 H   0  0  0  0  0  0  0  0  0  0  0  0
   36.4250   27.2420   44.4860 H   0  0  0  0  0  0  0  0  0  0  0  0
   38.6380   28.2020   44.6370 H   0  0  0  0  0  0  0  0  0  0  0  0
   41.0970   28.2920   42.9400 C   0  0  0  0  0  3  0  0  0  0  0  0
   40.0690   29.2050   42.6710 C   0  0  0  0  0  0  0  0  0  0  0  0
   40.3780   30.5330   42.5740 C   0  0  0  0  0  0  0  0  0  0  0  0
   39.5950   31.2230   42.3700 H   0  0  0  0  0  0  0  0  0  0  0  0
   41.6570   31.0300   42.7280 C   0  0  0  0  0  0  0  0  0  0  0  0
   42.1720   32.2800   42.6720 N   0  0  0  0  0  0  0  0  0  0  0  0
   41.5790   33.1180   42.4830 H   0  0  0  0  0  0  0  0  0  0  0  0
   43.4830   32.1890   42.8960 N   0  0  0  0  0  0  0  0  0  0  0  0
   43.8180   30.8920   43.0940 C   0  0  0  0  0  0  0  0  0  0  0  0
   44.8190   30.5330   43.2970 H   0  0  0  0  0  0  0  0  0  0  0  0
   42.6760   30.1220   42.9940 C   0  0  0  0  0  0  0  0  0  0  0  0
   42.4010   28.7700   43.0990 C   0  0  0  0  0  3  0  0  0  0  0  0
   35.6480   26.8790   37.8060 C   0  0  0  0  0  0  0  0  0  0  0  0
   36.2900   26.8950   39.0550 C   0  0  0  0  0  0  0  0  0  0  0  0
   36.1720   27.9760   39.9250 C   0  0  0  0  0  0  0  0  0  0  0  0
   35.3970   29.0080   39.4820 N   0  0  0  0  0  0  0  0  0  0  0  0
   34.7880   28.9780   38.2830 C   0  0  0  0  0  0  0  0  0  0  0  0
   34.9060   27.9280   37.4450 N   0  0  0  0  0  0  0  0  0  0  0  0
   35.8600   25.9580   37.2800 H   0  0  0  0  0  0  0  0  0  0  0  0
   36.9110   26.0960   39.4390 H   0  0  0  0  0  0  0  0  0  0  0  0
   34.1700   29.8000   37.9300 H   0  0  0  0  0  0  0  0  0  0  0  0
  1  2  1  0  0  0  0
  2  7  1  0  0  0  0
  3  2  2  0  0  0  0
  3  4  1  0  0  0  0
  4  5  2  0  0  0  0
  5  6  1  0  0  0  0
  5  9  1  0  0  0  0
  6 10  1  0  0  0  0
  7 12  1  0  0  0  0
  7  6  2  0  0  0  0
  8  4  1  0  0  0  0
 11 22  1  0  0  0  0
 12 11  2  0  0  0  0
 13 12  1  0  0  0  0
 13 15  2  0  0  0  0
 14 13  1  0  0  0  0
 15 21  1  0  0  0  0
 16 15  1  0  0  0  0
 16 18  1  0  0  0  0
 17 16  1  0  0  0  0
 18 19  2  0  0  0  0
 19 20  1  0  0  0  0
 21 19  1  0  0  0  0
 21 22  2  0  0  0  0
 23 24  1  0  0  0  0
 24 30  1  0  0  0  0
 24 25  2  0  0  0  0
 25  3  1  0  0  0  0
 26 25  1  0  0  0  0
 27 26  2  0  0  0  0
 28 23  2  0  0  0  0
 28 27  1  0  0  0  0
 29 23  1  0  0  0  0
 31 27  1  0  0  0  0
M  END
>  <minimizedAffinity>
-5.58547974

$$$$

 OpenBabel03242516013D

 31 34  0  0  0  0  0  0  0  0999 V2000
   40.5480   30.0790   41.0150 Cl  0  0  0  0  0  0  0  0  0  0  0  0
   39.1590   31.0510   40.5840 C   0  0  0  0  0  0  0  0  0  0  0  0
   37.8970   30.6550   40.8850 C   0  0  0  0  0  0  0  0  0  0  0  0
   36.8790   31.4950   40.5000 C   0  0  0  0  0  0  0  0  0  0  0  0
   37.0850   32.6650   39.8530 C   0  0  0  0  0  0  0  0  0  0  0  0
   38.3600   33.0650   39.5510 C   0  0  0  0  0  0  0  0  0  0  0  0
   39.4030   32.2410   39.9250 C   0  0  0  0  0  0  0  0  0  0  0  0
   35.8520   31.1970   40.7300 H   0  0  0  0  0  0  0  0  0  0  0  0
   36.2580   33.3010   39.5670 H   0  0  0  0  0  0  0  0  0  0  0  0
   38.5090   34.0010   39.0350 H   0  0  0  0  0  0  0  0  0  0  0  0
   41.3630   33.5400   40.5220 C   0  0  0  0  0  3  0  0  0  0  0  0
   40.7400   32.7170   39.5770 C   0  0  0  0  0  0  0  0  0  0  0  0
   41.4060   32.4210   38.4210 C   0  0  0  0  0  0  0  0  0  0  0  0
   40.9280   31.7960   37.7060 H   0  0  0  0  0  0  0  0  0  0  0  0
   42.6690   32.8930   38.1290 C   0  0  0  0  0  0  0  0  0  0  0  0
   43.4930   32.7260   37.0680 N   0  0  0  0  0  0  0  0  0  0  0  0
   43.2250   32.1460   36.2420 H   0  0  0  0  0  0  0  0  0  0  0  0
   44.6100   33.4130   37.3080 N   0  0  0  0  0  0  0  0  0  0  0  0
   44.5140   34.0200   38.5160 C   0  0  0  0  0  0  0  0  0  0  0  0
   45.2810   34.6430   38.9600 H   0  0  0  0  0  0  0  0  0  0  0  0
   43.2880   33.7100   39.0690 C   0  0  0  0  0  0  0  0  0  0  0  0
   42.6440   34.0310   40.2510 C   0  0  0  0  0  3  0  0  0  0  0  0
   37.5150   28.0470   43.6080 C   0  0  0  0  0  0  0  0  0  0  0  0
   37.7020   29.2840   42.9670 C   0  0  0  0  0  0  0  0  0  0  0  0
   37.7070   29.3950   41.5790 C   0  0  0  0  0  0  0  0  0  0  0  0
   37.5190   28.2300   40.8930 N   0  0  0  0  0  0  0  0  0  0  0  0
   37.3410   27.0530   41.5210 C   0  0  0  0  0  0  0  0  0  0  0  0
   37.3370   26.9520   42.8660 N   0  0  0  0  0  0  0  0  0  0  0  0
   37.5420   28.1680   44.6830 H   0  0  0  0  0  0  0  0  0  0  0  0
   37.8530   30.2250   43.4770 H   0  0  0  0  0  0  0  0  0  0  0  0
   37.1910   26.1260   40.9750 H   0  0  0  0  0  0  0  0  0  0  0  0
  2  3  1  0  0  0  0
  2  1  1  0  0  0  0
  3 25  1  0  0  0  0
  4  8  1  0  0  0  0
  4  3  2  0  0  0  0
  5  4  1  0  0  0  0
  6  5  2  0  0  0  0
  6  7  1  0  0  0  0
  7  2  2  0  0  0  0
  9  5  1  0  0  0  0
 10  6  1  0  0  0  0
 12  7  1  0  0  0  0
 12 11  2  0  0  0  0
 13 12  1  0  0  0  0
 14 13  1  0  0  0  0
 15 13  2  0  0  0  0
 15 21  1  0  0  0  0
 16 18  1  0  0  0  0
 16 15  1  0  0  0  0
 17 16  1  0  0  0  0
 18 19  2  0  0  0  0
 19 20  1  0  0  0  0
 19 21  1  0  0  0  0
 21 22  2  0  0  0  0
 22 11  1  0  0  0  0
 23 29  1  0  0  0  0
 24 30  1  0  0  0  0
 24 23  1  0  0  0  0
 25 24  2  0  0  0  0
 26 27  2  0  0  0  0
 26 25  1  0  0  0  0
 27 28  1  0  0  0  0
 28 23  2  0  0  0  0
 31 27  1  0  0  0  0
M  END
>  <minimizedAffinity>
-5.49163389

$$$$

 OpenBabel03242516013D

 31 34  0  0  0  0  0  0  0  0999 V2000
   40.5150   29.9950   40.1110 Cl  0  0  0  0  0  0  0  0  0  0  0  0
   39.1590   31.0960   40.0080 C   0  0  0  0  0  0  0  0  0  0  0  0
   39.3070   32.3580   39.5320 C   0  0  0  0  0  0  0  0  0  0  0  0
   38.1750   33.1390   39.4950 C   0  0  0  0  0  0  0  0  0  0  0  0
   36.9600   32.7080   39.9010 C   0  0  0  0  0  0  0  0  0  0  0  0
   36.8120   31.4320   40.3800 C   0  0  0  0  0  0  0  0  0  0  0  0
   37.9310   30.6250   40.4300 C   0  0  0  0  0  0  0  0  0  0  0  0
   38.2700   34.1620   39.1160 H   0  0  0  0  0  0  0  0  0  0  0  0
   36.0910   33.3510   39.8550 H   0  0  0  0  0  0  0  0  0  0  0  0
   35.8360   31.1020   40.7010 H   0  0  0  0  0  0  0  0  0  0  0  0
   37.7950   29.1350   42.3410 C   0  0  0  0  0  3  0  0  0  0  0  0
   37.7140   29.2770   40.9500 C   0  0  0  0  0  0  0  0  0  0  0  0
   37.4450   28.1730   40.1910 C   0  0  0  0  0  0  0  0  0  0  0  0
   37.3840   28.2850   39.1350 H   0  0  0  0  0  0  0  0  0  0  0  0
   37.2460   26.9140   40.7220 C   0  0  0  0  0  0  0  0  0  0  0  0
   36.9730   25.7120   40.1640 N   0  0  0  0  0  0  0  0  0  0  0  0
   36.8700   25.5880   39.1330 H   0  0  0  0  0  0  0  0  0  0  0  0
   36.8790   24.8190   41.1500 N   0  0  0  0  0  0  0  0  0  0  0  0
   37.0890   25.4360   42.3380 C   0  0  0  0  0  0  0  0  0  0  0  0
   37.0700   24.9460   43.3040 H   0  0  0  0  0  0  0  0  0  0  0  0
   37.3260   26.7750   42.1030 C   0  0  0  0  0  0  0  0  0  0  0  0
   37.5970   27.8710   42.9040 C   0  0  0  0  0  3  0  0  0  0  0  0
   42.3380   33.1510   37.4000 C   0  0  0  0  0  0  0  0  0  0  0  0
   41.0560   32.7200   37.7820 C   0  0  0  0  0  0  0  0  0  0  0  0
   40.6230   32.7940   39.1040 C   0  0  0  0  0  0  0  0  0  0  0  0
   41.5220   33.3100   39.9910 N   0  0  0  0  0  0  0  0  0  0  0  0
   42.7460   33.7180   39.6100 C   0  0  0  0  0  0  0  0  0  0  0  0
   43.1600   33.6440   38.3290 N   0  0  0  0  0  0  0  0  0  0  0  0
   42.4850   33.0130   36.3380 H   0  0  0  0  0  0  0  0  0  0  0  0
   40.3190   32.3070   37.1070 H   0  0  0  0  0  0  0  0  0  0  0  0
   43.4620   34.1300   40.3170 H   0  0  0  0  0  0  0  0  0  0  0  0
  2  1  1  0  0  0  0
  2  7  1  0  0  0  0
  3  2  2  0  0  0  0
  4  3  1  0  0  0  0
  4  5  2  0  0  0  0
  5  6  1  0  0  0  0
  6  7  2  0  0  0  0
  6 10  1  0  0  0  0
  7 12  1  0  0  0  0
  8  4  1  0  0  0  0
  9  5  1  0  0  0  0
 11 22  1  0  0  0  0
 12 11  2  0  0  0  0
 13 15  2  0  0  0  0
 13 12  1  0  0  0  0
 14 13  1  0  0  0  0
 15 21  1  0  0  0  0
 16 15  1  0  0  0  0
 16 18  1  0  0  0  0
 17 16  1  0  0  0  0
 18 19  2  0  0  0  0
 19 20  1  0  0  0  0
 21 19  1  0  0  0  0
 21 22  2  0  0  0  0
 23 24  2  0  0  0  0
 23 28  1  0  0  0  0
 24 25  1  0  0  0  0
 25  3  1  0  0  0  0
 25 26  2  0  0  0  0
 27 26  1  0  0  0  0
 27 31  1  0  0  0  0
 28 27  2  0  0  0  0
 29 23  1  0  0  0  0
 30 24  1  0  0  0  0
M  END
>  <minimizedAffinity>
-5.43157911

$$$$

 OpenBabel03242516013D

 31 34  0  0  0  0  0  0  0  0999 V2000
   37.1290   30.8570   38.4330 Cl  0  0  0  0  0  0  0  0  0  0  0  0
   37.1500   30.0570   39.9890 C   0  0  0  0  0  0  0  0  0  0  0  0
   37.9420   30.4960   41.0000 C   0  0  0  0  0  0  0  0  0  0  0  0
   37.8810   29.7940   42.1810 C   0  0  0  0  0  0  0  0  0  0  0  0
   37.0840   28.7170   42.3650 C   0  0  0  0  0  0  0  0  0  0  0  0
   36.2830   28.2760   41.3440 C   0  0  0  0  0  0  0  0  0  0  0  0
   36.3240   28.9610   40.1450 C   0  0  0  0  0  0  0  0  0  0  0  0
   38.5110   30.1280   43.0100 H   0  0  0  0  0  0  0  0  0  0  0  0
   37.0610   28.1900   43.3090 H   0  0  0  0  0  0  0  0  0  0  0  0
   35.6530   27.4140   41.5050 H   0  0  0  0  0  0  0  0  0  0  0  0
   35.8880   27.2820   38.4490 C   0  0  0  0  0  3  0  0  0  0  0  0
   35.4510   28.4460   39.0940 C   0  0  0  0  0  0  0  0  0  0  0  0
   34.2680   29.0080   38.7050 C   0  0  0  0  0  0  0  0  0  0  0  0
   33.9400   29.8920   39.1970 H   0  0  0  0  0  0  0  0  0  0  0  0
   33.4710   28.4890   37.7040 C   0  0  0  0  0  0  0  0  0  0  0  0
   32.2880   28.8780   37.1740 N   0  0  0  0  0  0  0  0  0  0  0  0
   31.7810   29.7270   37.5080 H   0  0  0  0  0  0  0  0  0  0  0  0
   31.9640   28.0030   36.2210 N   0  0  0  0  0  0  0  0  0  0  0  0
   32.9270   27.0550   36.1330 C   0  0  0  0  0  0  0  0  0  0  0  0
   32.9170   26.2220   35.4400 H   0  0  0  0  0  0  0  0  0  0  0  0
   33.9060   27.3330   37.0660 C   0  0  0  0  0  0  0  0  0  0  0  0
   35.0990   26.7360   37.4320 C   0  0  0  0  0  3  0  0  0  0  0  0
   40.9400   32.7030   40.2890 C   0  0  0  0  0  0  0  0  0  0  0  0
   40.1500   31.5600   40.5030 C   0  0  0  0  0  0  0  0  0  0  0  0
   38.7870   31.6540   40.7730 C   0  0  0  0  0  0  0  0  0  0  0  0
   38.2790   32.9200   40.8130 N   0  0  0  0  0  0  0  0  0  0  0  0
   39.0480   34.0040   40.6050 C   0  0  0  0  0  0  0  0  0  0  0  0
   40.3680   33.9070   40.3440 N   0  0  0  0  0  0  0  0  0  0  0  0
   41.9670   32.4240   40.0950 H   0  0  0  0  0  0  0  0  0  0  0  0
   40.5180   30.5440   40.4790 H   0  0  0  0  0  0  0  0  0  0  0  0
   38.6430   35.0120   40.6360 H   0  0  0  0  0  0  0  0  0  0  0  0
  1  2  1  0  0  0  0
  2  7  2  0  0  0  0
  2  3  1  0  0  0  0
  3  4  2  0  0  0  0
  4  5  1  0  0  0  0
  4  8  1  0  0  0  0
  5  9  1  0  0  0  0
  6 10  1  0  0  0  0
  6  5  2  0  0  0  0
  7  6  1  0  0  0  0
 11 12  1  0  0  0  0
 12  7  1  0  0  0  0
 13 12  2  0  0  0  0
 13 14  1  0  0  0  0
 15 13  1  0  0  0  0
 16 17  1  0  0  0  0
 16 15  1  0  0  0  0
 18 16  1  0  0  0  0
 19 18  2  0  0  0  0
 19 21  1  0  0  0  0
 20 19  1  0  0  0  0
 21 22  1  0  0  0  0
 21 15  2  0  0  0  0
 22 11  2  0  0  0  0
 23 28  2  0  0  0  0
 23 24  1  0  0  0  0
 24 25  2  0  0  0  0
 25 26  1  0  0  0  0
 25  3  1  0  0  0  0
 27 31  1  0  0  0  0
 27 26  2  0  0  0  0
 28 27  1  0  0  0  0
 29 23  1  0  0  0  0
 30 24  1  0  0  0  0
M  END
>  <minimizedAffinity>
-5.43046427

$$$$

 OpenBabel03242516013D

 31 34  0  0  0  0  0  0  0  0999 V2000
   38.1590   27.8760   39.2850 Cl  0  0  0  0  0  0  0  0  0  0  0  0
   37.8470   28.0470   40.9980 C   0  0  0  0  0  0  0  0  0  0  0  0
   37.8400   29.2640   41.5980 C   0  0  0  0  0  0  0  0  0  0  0  0
   37.5830   29.2830   42.9490 C   0  0  0  0  0  0  0  0  0  0  0  0
   37.3450   28.1690   43.6760 C   0  0  0  0  0  0  0  0  0  0  0  0
   37.3510   26.9400   43.0680 C   0  0  0  0  0  0  0  0  0  0  0  0
   37.6060   26.8900   41.7120 C   0  0  0  0  0  0  0  0  0  0  0  0
   37.5730   30.2530   43.4560 H   0  0  0  0  0  0  0  0  0  0  0  0
   37.1460   28.2230   44.7390 H   0  0  0  0  0  0  0  0  0  0  0  0
   37.1590   26.0590   43.6620 H   0  0  0  0  0  0  0  0  0  0  0  0
   38.8080   24.8470   41.1900 C   0  0  0  0  0  3  0  0  0  0  0  0
   37.6010   25.5550   41.1190 C   0  0  0  0  0  0  0  0  0  0  0  0
   36.5270   24.9650   40.5130 C   0  0  0  0  0  0  0  0  0  0  0  0
   35.6130   25.5060   40.4610 H   0  0  0  0  0  0  0  0  0  0  0  0
   36.5640   23.7000   39.9630 C   0  0  0  0  0  0  0  0  0  0  0  0
   35.6370   22.9430   39.3320 N   0  0  0  0  0  0  0  0  0  0  0  0
   34.6620   23.2780   39.1690 H   0  0  0  0  0  0  0  0  0  0  0  0
   36.2130   21.7860   39.0020 N   0  0  0  0  0  0  0  0  0  0  0  0
   37.5030   21.7910   39.4170 C   0  0  0  0  0  0  0  0  0  0  0  0
   38.2030   20.9760   39.2790 H   0  0  0  0  0  0  0  0  0  0  0  0
   37.7620   22.9980   40.0350 C   0  0  0  0  0  0  0  0  0  0  0  0
   38.8710   23.5630   40.6400 C   0  0  0  0  0  3  0  0  0  0  0  0
   37.3730   32.3510   39.4510 C   0  0  0  0  0  0  0  0  0  0  0  0
   37.0870   31.2150   40.2270 C   0  0  0  0  0  0  0  0  0  0  0  0
   38.0990   30.4420   40.7920 C   0  0  0  0  0  0  0  0  0  0  0  0
   39.3730   30.8620   40.5410 N   0  0  0  0  0  0  0  0  0  0  0  0
   39.6300   31.9530   39.7960 C   0  0  0  0  0  0  0  0  0  0  0  0
   38.6460   32.6980   39.2520 N   0  0  0  0  0  0  0  0  0  0  0  0
   36.4590   32.8140   39.1040 H   0  0  0  0  0  0  0  0  0  0  0  0
   36.0920   30.8530   40.4460 H   0  0  0  0  0  0  0  0  0  0  0  0
   40.6450   32.2880   39.5970 H   0  0  0  0  0  0  0  0  0  0  0  0
  1  2  1  0  0  0  0
  2  3  2  0  0  0  0
  2  7  1  0  0  0  0
  3  4  1  0  0  0  0
  4  8  1  0  0  0  0
  4  5  2  0  0  0  0
  5  9  1  0  0  0  0
  6 10  1  0  0  0  0
  6  5  1  0  0  0  0
  7  6  2  0  0  0  0
 12 11  1  0  0  0  0
 12  7  1  0  0  0  0
 13 12  2  0  0  0  0
 14 13  1  0  0  0  0
 15 21  2  0  0  0  0
 15 13  1  0  0  0  0
 16 15  1  0  0  0  0
 17 16  1  0  0  0  0
 18 16  1  0  0  0  0
 18 19  2  0  0  0  0
 19 21  1  0  0  0  0
 20 19  1  0  0  0  0
 21 22  1  0  0  0  0
 22 11  2  0  0  0  0
 23 24  1  0  0  0  0
 24 30  1  0  0  0  0
 24 25  2  0  0  0  0
 25  3  1  0  0  0  0
 26 25  1  0  0  0  0
 27 26  2  0  0  0  0
 28 23  2  0  0  0  0
 28 27  1  0  0  0  0
 29 23  1  0  0  0  0
 31 27  1  0  0  0  0
M  END
>  <minimizedAffinity>
-5.3741188

$$$$
