
 OpenBabel03252504123D

 28 30  0  0  0  0  0  0  0  0999 V2000
   37.6880   26.5370   41.4760 C   0  0  0  0  0  0  0  0  0  0  0  0
   37.0480   25.7850   40.4860 C   0  0  0  0  0  0  0  0  0  0  0  0
   36.5660   26.4600   39.3590 C   0  0  0  0  0  0  0  0  0  0  0  0
   36.7410   27.7990   39.2830 N   0  0  0  0  0  0  0  0  0  0  0  0
   37.3660   28.4900   40.2600 C   0  0  0  0  0  0  0  0  0  0  0  0
   37.8390   27.8640   41.3570 N   0  0  0  0  0  0  0  0  0  0  0  0
   36.0660   25.8830   38.5840 H   0  0  0  0  0  0  0  0  0  0  0  0
   36.7940   30.6360   39.2130 C   0  0  0  0  0  3  0  0  0  0  0  0
   37.5470   29.9460   40.1570 C   0  0  0  0  0  0  0  0  0  0  0  0
   38.4390   30.6120   40.9730 C   0  0  0  0  0  0  0  0  0  0  0  0
   39.0230   30.1020   41.7000 H   0  0  0  0  0  0  0  0  0  0  0  0
   38.5840   31.9830   40.8500 C   0  0  0  0  0  0  0  0  0  0  0  0
   39.3330   32.9510   41.4520 N   0  0  0  0  0  0  0  0  0  0  0  0
   39.9970   32.6790   42.2140 H   0  0  0  0  0  0  0  0  0  0  0  0
   39.0620   34.1340   40.9240 N   0  0  0  0  0  0  0  0  0  0  0  0
   38.1340   34.0260   39.9540 C   0  0  0  0  0  0  0  0  0  0  0  0
   37.7160   34.8280   39.3470 H   0  0  0  0  0  0  0  0  0  0  0  0
   37.8310   32.6810   39.9040 C   0  0  0  0  0  0  0  0  0  0  0  0
   36.9390   32.0160   39.0880 C   0  0  0  0  0  3  0  0  0  0  0  0
   36.9050   24.3220   40.6650 C   0  0  0  0  0  0  0  0  0  0  0  0
   36.2010   24.0580   41.8400 F   0  0  0  0  0  0  0  0  0  0  0  0
   36.1330   23.8320   39.6380 F   0  0  0  0  0  0  0  0  0  0  0  0
   38.0760   23.6420   40.7220 F   0  0  0  0  0  0  0  0  0  0  0  0
   38.1490   25.8830   42.5560 O   0  0  0  0  0  0  0  0  0  0  0  0
   39.4890   25.6800   42.9410 C   0  0  0  0  0  0  0  0  0  0  0  0
   40.2320   25.5140   41.7710 F   0  0  0  0  0  0  0  0  0  0  0  0
   39.9120   26.7490   43.6800 F   0  0  0  0  0  0  0  0  0  0  0  0
   39.6220   24.4880   43.6160 F   0  0  0  0  0  0  0  0  0  0  0  0
  1 24  1  0  0  0  0
  2 20  1  0  0  0  0
  2  1  2  0  0  0  0
  3  2  1  0  0  0  0
  4  3  2  0  0  0  0
  4  5  1  0  0  0  0
  5  6  2  0  0  0  0
  6  1  1  0  0  0  0
  7  3  1  0  0  0  0
  8  9  1  0  0  0  0
  9  5  1  0  0  0  0
  9 10  2  0  0  0  0
 10 11  1  0  0  0  0
 12 10  1  0  0  0  0
 12 13  1  0  0  0  0
 13 14  1  0  0  0  0
 15 13  1  0  0  0  0
 16 15  2  0  0  0  0
 17 16  1  0  0  0  0
 18 16  1  0  0  0  0
 18 12  2  0  0  0  0
 19  8  2  0  0  0  0
 19 18  1  0  0  0  0
 20 23  1  0  0  0  0
 20 21  1  0  0  0  0
 22 20  1  0  0  0  0
 24 25  1  0  0  0  0
 25 28  1  0  0  0  0
 25 27  1  0  0  0  0
 26 25  1  0  0  0  0
M  END
>  <minimizedAffinity>
-5.83207512

$$$$

 OpenBabel03252504123D

 28 30  0  0  0  0  0  0  0  0999 V2000
   37.8610   29.0860   41.9490 C   0  0  0  0  0  0  0  0  0  0  0  0
   38.2630   27.8330   42.4220 C   0  0  0  0  0  0  0  0  0  0  0  0
   39.6080   27.6610   42.7630 C   0  0  0  0  0  0  0  0  0  0  0  0
   40.4510   28.7100   42.6200 N   0  0  0  0  0  0  0  0  0  0  0  0
   40.0250   29.9050   42.1610 C   0  0  0  0  0  0  0  0  0  0  0  0
   38.7330   30.0970   41.8240 N   0  0  0  0  0  0  0  0  0  0  0  0
   39.9300   26.6900   43.1320 H   0  0  0  0  0  0  0  0  0  0  0  0
   40.7490   31.9220   40.9630 C   0  0  0  0  0  3  0  0  0  0  0  0
   40.9570   31.0340   42.0130 C   0  0  0  0  0  0  0  0  0  0  0  0
   42.0090   31.2070   42.8890 C   0  0  0  0  0  0  0  0  0  0  0  0
   42.1830   30.5380   43.6960 H   0  0  0  0  0  0  0  0  0  0  0  0
   42.8670   32.2810   42.7200 C   0  0  0  0  0  0  0  0  0  0  0  0
   43.9730   32.7660   43.3550 N   0  0  0  0  0  0  0  0  0  0  0  0
   44.3380   32.2600   44.1950 H   0  0  0  0  0  0  0  0  0  0  0  0
   44.4070   33.8590   42.7480 N   0  0  0  0  0  0  0  0  0  0  0  0
   43.6290   34.1610   41.6900 C   0  0  0  0  0  0  0  0  0  0  0  0
   43.7420   35.0010   41.0060 H   0  0  0  0  0  0  0  0  0  0  0  0
   42.6640   33.1770   41.6690 C   0  0  0  0  0  0  0  0  0  0  0  0
   41.6120   33.0030   40.7920 C   0  0  0  0  0  3  0  0  0  0  0  0
   37.2620   26.7470   42.5410 C   0  0  0  0  0  0  0  0  0  0  0  0
   37.8950   25.5630   42.9170 F   0  0  0  0  0  0  0  0  0  0  0  0
   36.3990   27.0620   43.5650 F   0  0  0  0  0  0  0  0  0  0  0  0
   36.5580   26.5010   41.4090 F   0  0  0  0  0  0  0  0  0  0  0  0
   36.5670   29.2440   41.6230 O   0  0  0  0  0  0  0  0  0  0  0  0
   36.0230   29.5660   40.3630 C   0  0  0  0  0  0  0  0  0  0  0  0
   35.9280   30.9570   40.3000 F   0  0  0  0  0  0  0  0  0  0  0  0
   36.8250   29.0530   39.3820 F   0  0  0  0  0  0  0  0  0  0  0  0
   34.7250   29.1180   40.2690 F   0  0  0  0  0  0  0  0  0  0  0  0
  1  2  1  0  0  0  0
  2 20  1  0  0  0  0
  2  3  2  0  0  0  0
  3  7  1  0  0  0  0
  4  3  1  0  0  0  0
  5  4  2  0  0  0  0
  6  1  2  0  0  0  0
  6  5  1  0  0  0  0
  8  9  1  0  0  0  0
  9  5  1  0  0  0  0
  9 10  2  0  0  0  0
 10 11  1  0  0  0  0
 12 10  1  0  0  0  0
 12 13  1  0  0  0  0
 13 14  1  0  0  0  0
 15 13  1  0  0  0  0
 16 15  2  0  0  0  0
 17 16  1  0  0  0  0
 18 16  1  0  0  0  0
 18 12  2  0  0  0  0
 19  8  2  0  0  0  0
 19 18  1  0  0  0  0
 20 21  1  0  0  0  0
 20 22  1  0  0  0  0
 23 20  1  0  0  0  0
 24  1  1  0  0  0  0
 25 24  1  0  0  0  0
 26 25  1  0  0  0  0
 27 25  1  0  0  0  0
 28 25  1  0  0  0  0
M  END
>  <minimizedAffinity>
-5.57548618

$$$$

 OpenBabel03252504123D

 28 30  0  0  0  0  0  0  0  0999 V2000
   38.1500   27.9730   42.4440 C   0  0  0  0  0  0  0  0  0  0  0  0
   38.3570   26.5910   42.4430 C   0  0  0  0  0  0  0  0  0  0  0  0
   39.6640   26.1230   42.6180 C   0  0  0  0  0  0  0  0  0  0  0  0
   40.6580   27.0270   42.7790 N   0  0  0  0  0  0  0  0  0  0  0  0
   40.4170   28.3550   42.7750 C   0  0  0  0  0  0  0  0  0  0  0  0
   39.1670   28.8320   42.6070 N   0  0  0  0  0  0  0  0  0  0  0  0
   39.8360   25.0490   42.6180 H   0  0  0  0  0  0  0  0  0  0  0  0
   42.7080   28.8650   43.4970 C   0  0  0  0  0  3  0  0  0  0  0  0
   41.5120   29.3220   42.9520 C   0  0  0  0  0  0  0  0  0  0  0  0
   41.3600   30.6440   42.5890 C   0  0  0  0  0  0  0  0  0  0  0  0
   40.4540   31.0110   42.1710 H   0  0  0  0  0  0  0  0  0  0  0  0
   42.4120   31.5260   42.7690 C   0  0  0  0  0  0  0  0  0  0  0  0
   42.6330   32.8530   42.5420 N   0  0  0  0  0  0  0  0  0  0  0  0
   41.8660   33.4320   42.1260 H   0  0  0  0  0  0  0  0  0  0  0  0
   43.8590   33.1830   42.9140 N   0  0  0  0  0  0  0  0  0  0  0  0
   44.5160   32.1140   43.4040 C   0  0  0  0  0  0  0  0  0  0  0  0
   45.5360   32.0830   43.7850 H   0  0  0  0  0  0  0  0  0  0  0  0
   43.6140   31.0750   43.3160 C   0  0  0  0  0  0  0  0  0  0  0  0
   43.7670   29.7520   43.6790 C   0  0  0  0  0  3  0  0  0  0  0  0
   37.2010   25.6840   42.2580 C   0  0  0  0  0  0  0  0  0  0  0  0
   36.1940   26.0140   43.1640 F   0  0  0  0  0  0  0  0  0  0  0  0
   36.6750   25.9000   41.0050 F   0  0  0  0  0  0  0  0  0  0  0  0
   37.4840   24.3680   42.4140 F   0  0  0  0  0  0  0  0  0  0  0  0
   36.8920   28.4150   42.2750 O   0  0  0  0  0  0  0  0  0  0  0  0
   36.3710   29.1580   41.1970 C   0  0  0  0  0  0  0  0  0  0  0  0
   36.3580   30.4980   41.5890 F   0  0  0  0  0  0  0  0  0  0  0  0
   37.1440   28.9460   40.0890 F   0  0  0  0  0  0  0  0  0  0  0  0
   35.0490   28.8400   40.9850 F   0  0  0  0  0  0  0  0  0  0  0  0
  1  6  1  0  0  0  0
  2  1  2  0  0  0  0
  2  3  1  0  0  0  0
  3  4  2  0  0  0  0
  5  4  1  0  0  0  0
  5  9  1  0  0  0  0
  6  5  2  0  0  0  0
  7  3  1  0  0  0  0
  8 19  1  0  0  0  0
  9  8  2  0  0  0  0
 10 12  2  0  0  0  0
 10  9  1  0  0  0  0
 11 10  1  0  0  0  0
 12 18  1  0  0  0  0
 13 12  1  0  0  0  0
 13 15  1  0  0  0  0
 14 13  1  0  0  0  0
 15 16  2  0  0  0  0
 16 17  1  0  0  0  0
 18 16  1  0  0  0  0
 18 19  2  0  0  0  0
 20 23  1  0  0  0  0
 20  2  1  0  0  0  0
 20 21  1  0  0  0  0
 22 20  1  0  0  0  0
 24  1  1  0  0  0  0
 25 26  1  0  0  0  0
 25 24  1  0  0  0  0
 27 25  1  0  0  0  0
 28 25  1  0  0  0  0
M  END
>  <minimizedAffinity>
-5.5584836

$$$$

 OpenBabel03252504123D

 28 30  0  0  0  0  0  0  0  0999 V2000
   37.7730   26.5500   41.3380 C   0  0  0  0  0  0  0  0  0  0  0  0
   38.7410   25.9330   42.1360 C   0  0  0  0  0  0  0  0  0  0  0  0
   39.7720   26.7280   42.6490 C   0  0  0  0  0  0  0  0  0  0  0  0
   39.7830   28.0470   42.3500 N   0  0  0  0  0  0  0  0  0  0  0  0
   38.8290   28.6060   41.5750 C   0  0  0  0  0  0  0  0  0  0  0  0
   37.8240   27.8630   41.0680 N   0  0  0  0  0  0  0  0  0  0  0  0
   40.5310   26.2560   43.2710 H   0  0  0  0  0  0  0  0  0  0  0  0
   40.0420   30.7380   41.4800 C   0  0  0  0  0  3  0  0  0  0  0  0
   38.8580   30.0430   41.2620 C   0  0  0  0  0  0  0  0  0  0  0  0
   37.7420   30.6860   40.7650 C   0  0  0  0  0  0  0  0  0  0  0  0
   36.8280   30.1710   40.5920 H   0  0  0  0  0  0  0  0  0  0  0  0
   37.8050   32.0400   40.4800 C   0  0  0  0  0  0  0  0  0  0  0  0
   36.9470   32.9840   39.9970 N   0  0  0  0  0  0  0  0  0  0  0  0
   35.9690   32.7030   39.7520 H   0  0  0  0  0  0  0  0  0  0  0  0
   37.5530   34.1590   39.9240 N   0  0  0  0  0  0  0  0  0  0  0  0
   38.8290   34.0670   40.3480 C   0  0  0  0  0  0  0  0  0  0  0  0
   39.5660   34.8670   40.4010 H   0  0  0  0  0  0  0  0  0  0  0  0
   38.9910   32.7430   40.6970 C   0  0  0  0  0  0  0  0  0  0  0  0
   40.1070   32.1010   41.1940 C   0  0  0  0  0  3  0  0  0  0  0  0
   38.6410   24.4800   42.4050 C   0  0  0  0  0  0  0  0  0  0  0  0
   39.0750   23.7640   41.2890 F   0  0  0  0  0  0  0  0  0  0  0  0
   39.5100   24.1660   43.4230 F   0  0  0  0  0  0  0  0  0  0  0  0
   37.3950   24.0470   42.7170 F   0  0  0  0  0  0  0  0  0  0  0  0
   36.7860   25.7810   40.8490 O   0  0  0  0  0  0  0  0  0  0  0  0
   36.5740   25.3880   39.5120 C   0  0  0  0  0  0  0  0  0  0  0  0
   37.8230   25.3560   38.8900 F   0  0  0  0  0  0  0  0  0  0  0  0
   35.9510   24.1710   39.4940 F   0  0  0  0  0  0  0  0  0  0  0  0
   35.8650   26.3520   38.8330 F   0  0  0  0  0  0  0  0  0  0  0  0
  1  2  1  0  0  0  0
  2 20  1  0  0  0  0
  2  3  2  0  0  0  0
  3  7  1  0  0  0  0
  4  3  1  0  0  0  0
  5  4  2  0  0  0  0
  6  1  2  0  0  0  0
  6  5  1  0  0  0  0
  9  8  1  0  0  0  0
  9  5  1  0  0  0  0
 10  9  2  0  0  0  0
 11 10  1  0  0  0  0
 12 18  2  0  0  0  0
 12 10  1  0  0  0  0
 13 12  1  0  0  0  0
 14 13  1  0  0  0  0
 15 13  1  0  0  0  0
 15 16  2  0  0  0  0
 16 17  1  0  0  0  0
 16 18  1  0  0  0  0
 18 19  1  0  0  0  0
 19  8  2  0  0  0  0
 20 23  1  0  0  0  0
 20 22  1  0  0  0  0
 21 20  1  0  0  0  0
 24  1  1  0  0  0  0
 25 24  1  0  0  0  0
 26 25  1  0  0  0  0
 27 25  1  0  0  0  0
 28 25  1  0  0  0  0
M  END
>  <minimizedAffinity>
-5.52881908

$$$$

 OpenBabel03252504123D

 28 30  0  0  0  0  0  0  0  0999 V2000
   37.4230   26.6210   40.7270 C   0  0  0  0  0  0  0  0  0  0  0  0
   37.3480   25.2420   40.5110 C   0  0  0  0  0  0  0  0  0  0  0  0
   37.1110   24.7940   39.2070 C   0  0  0  0  0  0  0  0  0  0  0  0
   36.9660   25.7120   38.2240 N   0  0  0  0  0  0  0  0  0  0  0  0
   37.0450   27.0370   38.4720 C   0  0  0  0  0  0  0  0  0  0  0  0
   37.2730   27.4940   39.7200 N   0  0  0  0  0  0  0  0  0  0  0  0
   37.0510   23.7220   39.0290 H   0  0  0  0  0  0  0  0  0  0  0  0
   36.7650   29.3610   37.7340 C   0  0  0  0  0  3  0  0  0  0  0  0
   36.8850   28.0190   37.3890 C   0  0  0  0  0  0  0  0  0  0  0  0
   36.8530   27.6230   36.0680 C   0  0  0  0  0  0  0  0  0  0  0  0
   36.9440   26.6020   35.7860 H   0  0  0  0  0  0  0  0  0  0  0  0
   36.7020   28.5750   35.0740 C   0  0  0  0  0  0  0  0  0  0  0  0
   36.6280   28.5720   33.7120 N   0  0  0  0  0  0  0  0  0  0  0  0
   36.6940   27.6600   33.2020 H   0  0  0  0  0  0  0  0  0  0  0  0
   36.4770   29.8060   33.2590 N   0  0  0  0  0  0  0  0  0  0  0  0
   36.4410   30.6890   34.2750 C   0  0  0  0  0  0  0  0  0  0  0  0
   36.3260   31.7700   34.2070 H   0  0  0  0  0  0  0  0  0  0  0  0
   36.5810   29.9240   35.4130 C   0  0  0  0  0  0  0  0  0  0  0  0
   36.6120   30.3200   36.7350 C   0  0  0  0  0  3  0  0  0  0  0  0
   37.5200   24.3180   41.6560 C   0  0  0  0  0  0  0  0  0  0  0  0
   37.5940   23.0040   41.1930 F   0  0  0  0  0  0  0  0  0  0  0  0
   38.7310   24.5830   42.2510 F   0  0  0  0  0  0  0  0  0  0  0  0
   36.5330   24.3760   42.5830 F   0  0  0  0  0  0  0  0  0  0  0  0
   37.6510   27.0440   41.9820 O   0  0  0  0  0  0  0  0  0  0  0  0
   36.8030   27.8100   42.8070 C   0  0  0  0  0  0  0  0  0  0  0  0
   36.1250   26.9200   43.6400 F   0  0  0  0  0  0  0  0  0  0  0  0
   37.5530   28.7130   43.5090 F   0  0  0  0  0  0  0  0  0  0  0  0
   35.8190   28.4140   42.0580 F   0  0  0  0  0  0  0  0  0  0  0  0
  1 24  1  0  0  0  0
  2  1  1  0  0  0  0
  2 20  1  0  0  0  0
  3  2  2  0  0  0  0
  4  5  2  0  0  0  0
  4  3  1  0  0  0  0
  5  6  1  0  0  0  0
  6  1  2  0  0  0  0
  7  3  1  0  0  0  0
  9  8  1  0  0  0  0
  9  5  1  0  0  0  0
 10  9  2  0  0  0  0
 11 10  1  0  0  0  0
 12 18  2  0  0  0  0
 12 10  1  0  0  0  0
 13 12  1  0  0  0  0
 14 13  1  0  0  0  0
 15 13  1  0  0  0  0
 15 16  2  0  0  0  0
 16 18  1  0  0  0  0
 17 16  1  0  0  0  0
 18 19  1  0  0  0  0
 19  8  2  0  0  0  0
 20 22  1  0  0  0  0
 20 23  1  0  0  0  0
 21 20  1  0  0  0  0
 24 25  1  0  0  0  0
 25 27  1  0  0  0  0
 25 26  1  0  0  0  0
 28 25  1  0  0  0  0
M  END
>  <minimizedAffinity>
-5.4863286

$$$$

 OpenBabel03252504123D

 28 30  0  0  0  0  0  0  0  0999 V2000
   37.8310   28.6670   41.0090 C   0  0  0  0  0  0  0  0  0  0  0  0
   38.2780   29.9400   41.3750 C   0  0  0  0  0  0  0  0  0  0  0  0
   37.8350   31.0330   40.6210 C   0  0  0  0  0  0  0  0  0  0  0  0
   37.0010   30.8050   39.5800 N   0  0  0  0  0  0  0  0  0  0  0  0
   36.5920   29.5590   39.2580 C   0  0  0  0  0  0  0  0  0  0  0  0
   37.0040   28.4900   39.9690 N   0  0  0  0  0  0  0  0  0  0  0  0
   38.1780   32.0270   40.8970 H   0  0  0  0  0  0  0  0  0  0  0  0
   36.1910   29.4890   36.8370 C   0  0  0  0  0  3  0  0  0  0  0  0
   35.6840   29.3320   38.1230 C   0  0  0  0  0  0  0  0  0  0  0  0
   34.3660   28.9760   38.3250 C   0  0  0  0  0  0  0  0  0  0  0  0
   33.9620   28.8520   39.3000 H   0  0  0  0  0  0  0  0  0  0  0  0
   33.5400   28.7700   37.2340 C   0  0  0  0  0  0  0  0  0  0  0  0
   32.2360   28.4220   37.0390 N   0  0  0  0  0  0  0  0  0  0  0  0
   31.6270   28.2460   37.8720 H   0  0  0  0  0  0  0  0  0  0  0  0
   31.9650   28.3680   35.7440 N   0  0  0  0  0  0  0  0  0  0  0  0
   33.0540   28.6720   35.0130 C   0  0  0  0  0  0  0  0  0  0  0  0
   33.1320   28.7090   33.9270 H   0  0  0  0  0  0  0  0  0  0  0  0
   34.0430   28.9240   35.9400 C   0  0  0  0  0  0  0  0  0  0  0  0
   35.3600   29.2820   35.7370 C   0  0  0  0  0  3  0  0  0  0  0  0
   39.1920   30.0850   42.5310 C   0  0  0  0  0  0  0  0  0  0  0  0
   39.6060   31.4120   42.6420 F   0  0  0  0  0  0  0  0  0  0  0  0
   38.4880   29.8050   43.6790 F   0  0  0  0  0  0  0  0  0  0  0  0
   40.3010   29.3080   42.4750 F   0  0  0  0  0  0  0  0  0  0  0  0
   38.2610   27.6230   41.7380 O   0  0  0  0  0  0  0  0  0  0  0  0
   37.5340   26.8620   42.6760 C   0  0  0  0  0  0  0  0  0  0  0  0
   38.4280   26.4850   43.6800 F   0  0  0  0  0  0  0  0  0  0  0  0
   36.4970   27.6120   43.1560 F   0  0  0  0  0  0  0  0  0  0  0  0
   37.1120   25.6790   42.1150 F   0  0  0  0  0  0  0  0  0  0  0  0
  1  2  1  0  0  0  0
  1 24  1  0  0  0  0
  2 20  1  0  0  0  0
  3  7  1  0  0  0  0
  3  2  2  0  0  0  0
  4  3  1  0  0  0  0
  5  4  2  0  0  0  0
  5  6  1  0  0  0  0
  6  1  2  0  0  0  0
  8  9  1  0  0  0  0
  9 10  2  0  0  0  0
  9  5  1  0  0  0  0
 10 11  1  0  0  0  0
 12 10  1  0  0  0  0
 13 12  1  0  0  0  0
 13 14  1  0  0  0  0
 15 13  1  0  0  0  0
 16 15  2  0  0  0  0
 16 18  1  0  0  0  0
 17 16  1  0  0  0  0
 18 12  2  0  0  0  0
 19 18  1  0  0  0  0
 19  8  2  0  0  0  0
 20 21  1  0  0  0  0
 20 22  1  0  0  0  0
 23 20  1  0  0  0  0
 24 25  1  0  0  0  0
 25 27  1  0  0  0  0
 25 26  1  0  0  0  0
 28 25  1  0  0  0  0
M  END
>  <minimizedAffinity>
-5.46476126

$$$$

 OpenBabel03252504123D

 28 30  0  0  0  0  0  0  0  0999 V2000
   37.0670   29.7930   40.7080 C   0  0  0  0  0  0  0  0  0  0  0  0
   36.4230   29.7960   39.4670 C   0  0  0  0  0  0  0  0  0  0  0  0
   36.9730   30.5750   38.4440 C   0  0  0  0  0  0  0  0  0  0  0  0
   38.0960   31.2840   38.7030 N   0  0  0  0  0  0  0  0  0  0  0  0
   38.6890   31.2550   39.9150 C   0  0  0  0  0  0  0  0  0  0  0  0
   38.1780   30.5130   40.9180 N   0  0  0  0  0  0  0  0  0  0  0  0
   36.4790   30.5840   37.4750 H   0  0  0  0  0  0  0  0  0  0  0  0
   40.3250   32.9460   39.2140 C   0  0  0  0  0  3  0  0  0  0  0  0
   39.9100   32.0330   40.1770 C   0  0  0  0  0  0  0  0  0  0  0  0
   40.6260   31.8620   41.3450 C   0  0  0  0  0  0  0  0  0  0  0  0
   40.3250   31.1690   42.0910 H   0  0  0  0  0  0  0  0  0  0  0  0
   41.7700   32.6120   41.5590 C   0  0  0  0  0  0  0  0  0  0  0  0
   42.7050   32.7200   42.5470 N   0  0  0  0  0  0  0  0  0  0  0  0
   42.6130   32.1220   43.4000 H   0  0  0  0  0  0  0  0  0  0  0  0
   43.6150   33.6240   42.2190 N   0  0  0  0  0  0  0  0  0  0  0  0
   43.3450   34.1610   41.0130 C   0  0  0  0  0  0  0  0  0  0  0  0
   43.9160   34.9260   40.4880 H   0  0  0  0  0  0  0  0  0  0  0  0
   42.1920   33.5310   40.5960 C   0  0  0  0  0  0  0  0  0  0  0  0
   41.4760   33.7010   39.4280 C   0  0  0  0  0  3  0  0  0  0  0  0
   35.1960   28.9850   39.2840 C   0  0  0  0  0  0  0  0  0  0  0  0
   34.2750   29.2920   40.2860 F   0  0  0  0  0  0  0  0  0  0  0  0
   34.6070   29.3510   38.0960 F   0  0  0  0  0  0  0  0  0  0  0  0
   35.3970   27.6450   39.3010 F   0  0  0  0  0  0  0  0  0  0  0  0
   36.5320   29.0430   41.6860 O   0  0  0  0  0  0  0  0  0  0  0  0
   37.1130   27.9460   42.3540 C   0  0  0  0  0  0  0  0  0  0  0  0
   37.5270   27.0410   41.3760 F   0  0  0  0  0  0  0  0  0  0  0  0
   38.1500   28.3890   43.1270 F   0  0  0  0  0  0  0  0  0  0  0  0
   36.1650   27.2680   43.0840 F   0  0  0  0  0  0  0  0  0  0  0  0
  1  6  1  0  0  0  0
  1 24  1  0  0  0  0
  2  1  2  0  0  0  0
  3  4  2  0  0  0  0
  3  2  1  0  0  0  0
  4  5  1  0  0  0  0
  5  9  1  0  0  0  0
  5  6  2  0  0  0  0
  7  3  1  0  0  0  0
  8 19  2  0  0  0  0
  8  9  1  0  0  0  0
  9 10  2  0  0  0  0
 10 12  1  0  0  0  0
 10 11  1  0  0  0  0
 12 13  1  0  0  0  0
 13 14  1  0  0  0  0
 15 13  1  0  0  0  0
 16 15  2  0  0  0  0
 17 16  1  0  0  0  0
 18 16  1  0  0  0  0
 18 12  2  0  0  0  0
 19 18  1  0  0  0  0
 20 23  1  0  0  0  0
 20  2  1  0  0  0  0
 20 21  1  0  0  0  0
 22 20  1  0  0  0  0
 24 25  1  0  0  0  0
 25 28  1  0  0  0  0
 25 27  1  0  0  0  0
 26 25  1  0  0  0  0
M  END
>  <minimizedAffinity>
-5.46259499

$$$$

 OpenBabel03252504123D

 28 30  0  0  0  0  0  0  0  0999 V2000
   37.8890   29.1070   40.3700 C   0  0  0  0  0  0  0  0  0  0  0  0
   36.7630   29.3450   39.5760 C   0  0  0  0  0  0  0  0  0  0  0  0
   36.8630   30.3100   38.5680 C   0  0  0  0  0  0  0  0  0  0  0  0
   38.0380   30.9630   38.4120 N   0  0  0  0  0  0  0  0  0  0  0  0
   39.1040   30.7040   39.1990 C   0  0  0  0  0  0  0  0  0  0  0  0
   39.0330   29.7790   40.1780 N   0  0  0  0  0  0  0  0  0  0  0  0
   35.9920   30.5030   37.9460 H   0  0  0  0  0  0  0  0  0  0  0  0
   41.3930   31.2040   39.9320 C   0  0  0  0  0  3  0  0  0  0  0  0
   40.3730   31.4240   39.0120 C   0  0  0  0  0  0  0  0  0  0  0  0
   40.5480   32.2960   37.9570 C   0  0  0  0  0  0  0  0  0  0  0  0
   39.7800   32.4760   37.2450 H   0  0  0  0  0  0  0  0  0  0  0  0
   41.7560   32.9560   37.8110 C   0  0  0  0  0  0  0  0  0  0  0  0
   42.2860   33.8560   36.9330 N   0  0  0  0  0  0  0  0  0  0  0  0
   41.7010   34.1880   36.1320 H   0  0  0  0  0  0  0  0  0  0  0  0
   43.5260   34.1610   37.2830 N   0  0  0  0  0  0  0  0  0  0  0  0
   43.8880   33.4950   38.3960 C   0  0  0  0  0  0  0  0  0  0  0  0
   44.8460   33.5450   38.9130 H   0  0  0  0  0  0  0  0  0  0  0  0
   42.7850   32.7390   38.7310 C   0  0  0  0  0  0  0  0  0  0  0  0
   42.6090   31.8690   39.7870 C   0  0  0  0  0  3  0  0  0  0  0  0
   35.5210   28.5770   39.8280 C   0  0  0  0  0  0  0  0  0  0  0  0
   34.5610   28.9090   38.8730 F   0  0  0  0  0  0  0  0  0  0  0  0
   35.7930   27.2410   39.6500 F   0  0  0  0  0  0  0  0  0  0  0  0
   34.9750   28.7730   41.0530 F   0  0  0  0  0  0  0  0  0  0  0  0
   37.7850   28.1780   41.3360 O   0  0  0  0  0  0  0  0  0  0  0  0
   37.7820   28.3750   42.7310 C   0  0  0  0  0  0  0  0  0  0  0  0
   36.7690   27.5720   43.2570 F   0  0  0  0  0  0  0  0  0  0  0  0
   39.0130   28.0580   43.2340 F   0  0  0  0  0  0  0  0  0  0  0  0
   37.4050   29.6630   43.0360 F   0  0  0  0  0  0  0  0  0  0  0  0
  1 24  1  0  0  0  0
  2 20  1  0  0  0  0
  2  1  2  0  0  0  0
  3  2  1  0  0  0  0
  4  3  2  0  0  0  0
  4  5  1  0  0  0  0
  5  6  2  0  0  0  0
  6  1  1  0  0  0  0
  7  3  1  0  0  0  0
  9  5  1  0  0  0  0
  9  8  2  0  0  0  0
 10  9  1  0  0  0  0
 11 10  1  0  0  0  0
 12 10  2  0  0  0  0
 12 18  1  0  0  0  0
 13 15  1  0  0  0  0
 13 12  1  0  0  0  0
 14 13  1  0  0  0  0
 15 16  2  0  0  0  0
 16 18  1  0  0  0  0
 16 17  1  0  0  0  0
 18 19  2  0  0  0  0
 19  8  1  0  0  0  0
 20 23  1  0  0  0  0
 21 20  1  0  0  0  0
 22 20  1  0  0  0  0
 24 25  1  0  0  0  0
 25 28  1  0  0  0  0
 25 27  1  0  0  0  0
 25 26  1  0  0  0  0
M  END
>  <minimizedAffinity>
-5.40924788

$$$$

 OpenBabel03252504123D

 28 30  0  0  0  0  0  0  0  0999 V2000
   37.9040   28.9310   40.8750 C   0  0  0  0  0  0  0  0  0  0  0  0
   38.2920   28.1860   41.9910 C   0  0  0  0  0  0  0  0  0  0  0  0
   39.5820   28.3830   42.4960 C   0  0  0  0  0  0  0  0  0  0  0  0
   40.3860   29.2820   41.8830 N   0  0  0  0  0  0  0  0  0  0  0  0
   39.9740   29.9840   40.8060 C   0  0  0  0  0  0  0  0  0  0  0  0
   38.7360   29.8120   40.2990 N   0  0  0  0  0  0  0  0  0  0  0  0
   39.8930   27.8070   43.3640 H   0  0  0  0  0  0  0  0  0  0  0  0
   42.1140   31.1840   40.7180 C   0  0  0  0  0  3  0  0  0  0  0  0
   40.8630   30.9570   40.1530 C   0  0  0  0  0  0  0  0  0  0  0  0
   40.4710   31.6270   39.0120 C   0  0  0  0  0  0  0  0  0  0  0  0
   39.5190   31.4660   38.5660 H   0  0  0  0  0  0  0  0  0  0  0  0
   41.3340   32.5360   38.4240 C   0  0  0  0  0  0  0  0  0  0  0  0
   41.3040   33.3570   37.3350 N   0  0  0  0  0  0  0  0  0  0  0  0
   40.4500   33.3700   36.7320 H   0  0  0  0  0  0  0  0  0  0  0  0
   42.4400   34.0310   37.2400 N   0  0  0  0  0  0  0  0  0  0  0  0
   43.2780   33.7040   38.2420 C   0  0  0  0  0  0  0  0  0  0  0  0
   44.2780   34.0950   38.4210 H   0  0  0  0  0  0  0  0  0  0  0  0
   42.5900   32.7680   38.9860 C   0  0  0  0  0  0  0  0  0  0  0  0
   42.9830   32.0990   40.1270 C   0  0  0  0  0  3  0  0  0  0  0  0
   37.3370   27.2250   42.5900 C   0  0  0  0  0  0  0  0  0  0  0  0
   37.0760   26.1950   41.6870 F   0  0  0  0  0  0  0  0  0  0  0  0
   37.9370   26.6360   43.6790 F   0  0  0  0  0  0  0  0  0  0  0  0
   36.1490   27.7640   42.9600 F   0  0  0  0  0  0  0  0  0  0  0  0
   36.6630   28.7360   40.3950 O   0  0  0  0  0  0  0  0  0  0  0  0
   35.6420   29.6910   40.2180 C   0  0  0  0  0  0  0  0  0  0  0  0
   34.4270   29.0360   40.4270 F   0  0  0  0  0  0  0  0  0  0  0  0
   35.8340   30.7240   41.0920 F   0  0  0  0  0  0  0  0  0  0  0  0
   35.5960   30.1120   38.9090 F   0  0  0  0  0  0  0  0  0  0  0  0
  1  2  1  0  0  0  0
  2  3  2  0  0  0  0
  2 20  1  0  0  0  0
  3  7  1  0  0  0  0
  4  3  1  0  0  0  0
  5  4  2  0  0  0  0
  6  5  1  0  0  0  0
  6  1  2  0  0  0  0
  9  8  1  0  0  0  0
  9  5  1  0  0  0  0
 10  9  2  0  0  0  0
 11 10  1  0  0  0  0
 12 18  2  0  0  0  0
 12 10  1  0  0  0  0
 13 12  1  0  0  0  0
 14 13  1  0  0  0  0
 15 13  1  0  0  0  0
 15 16  2  0  0  0  0
 16 17  1  0  0  0  0
 16 18  1  0  0  0  0
 18 19  1  0  0  0  0
 19  8  2  0  0  0  0
 20 23  1  0  0  0  0
 20 22  1  0  0  0  0
 21 20  1  0  0  0  0
 24  1  1  0  0  0  0
 25 24  1  0  0  0  0
 25 26  1  0  0  0  0
 25 27  1  0  0  0  0
 28 25  1  0  0  0  0
M  END
>  <minimizedAffinity>
-5.40120649

$$$$
