
 OpenBabel03252509063D

 51 54  0  0  1  0  0  0  0  0999 V2000
   36.5880   25.8580   40.2750 N   0  0  0  0  0  0  0  0  0  0  0  0
   36.5860   24.6490   39.5440 C   0  0  0  0  0  0  0  0  0  0  0  0
   37.6660   23.6580   39.9500 C   0  0  0  0  0  0  0  0  0  0  0  0
   37.9730   23.6750   41.4260 C   0  0  0  0  0  0  0  0  0  0  0  0
   37.0680   24.6360   42.1800 C   0  0  0  0  0  0  0  0  0  0  0  0
   37.3150   26.0080   41.4310 C   0  0  2  0  0  0  0  0  0  0  0  0
   36.6500   24.7330   38.4550 H   0  0  0  0  0  0  0  0  0  0  0  0
   35.6190   24.1160   39.7370 H   0  0  0  0  0  0  0  0  0  0  0  0
   38.5780   23.9030   39.3450 H   0  0  0  0  0  0  0  0  0  0  0  0
   37.3470   22.6450   39.6240 H   0  0  0  0  0  0  0  0  0  0  0  0
   37.9310   22.6710   41.8930 H   0  0  0  0  0  0  0  0  0  0  0  0
   39.0070   24.0560   41.5850 H   0  0  0  0  0  0  0  0  0  0  0  0
   37.4230   24.7270   43.2080 H   0  0  0  0  0  0  0  0  0  0  0  0
   36.0070   24.3780   42.0690 H   0  0  0  0  0  0  0  0  0  0  0  0
   38.4090   26.1410   41.3670 H   0  0  0  0  0  0  0  0  0  0  0  0
   36.3040   27.0300   39.4840 C   0  0  0  0  0  0  0  0  0  0  0  0
   35.4340   26.8540   38.8380 H   0  0  0  0  0  0  0  0  0  0  0  0
   36.0200   27.8590   40.1900 H   0  0  0  0  0  0  0  0  0  0  0  0
   37.5480   27.4290   38.7800 C   0  0  0  0  0  0  0  0  0  0  0  0
   38.1150   26.5440   38.4030 H   0  0  0  0  0  0  0  0  0  0  0  0
   38.2650   28.0100   39.3990 H   0  0  0  0  0  0  0  0  0  0  0  0
   37.0300   30.3170   36.4230 C   0  0  0  0  0  0  0  0  0  0  0  0
   37.3520   29.5630   37.5660 C   0  0  0  0  0  0  0  0  0  0  0  0
   37.2020   28.2080   37.5600 C   0  0  0  0  0  0  0  0  0  0  0  0
   36.7430   27.6370   36.4350 N   0  0  0  0  0  0  0  0  0  0  0  0
   36.4340   28.3480   35.3400 C   0  0  0  0  0  0  0  0  0  0  0  0
   36.5710   29.6850   35.3180 N   0  0  0  0  0  0  0  0  0  0  0  0
   37.1560   31.3930   36.4470 H   0  0  0  0  0  0  0  0  0  0  0  0
   37.7170   30.1170   38.4280 H   0  0  0  0  0  0  0  0  0  0  0  0
   36.0790   27.7330   34.5250 H   0  0  0  0  0  0  0  0  0  0  0  0
   36.7430   26.8940   42.3230 O   0  0  0  0  0  0  0  0  0  0  0  0
   38.9800   27.3770   43.6820 O   0  0  0  0  0  0  0  0  0  0  0  0
   37.8250   28.0290   42.9040 P   0  0  2  0  0  0  0  0  0  0  0  0
   36.9680   28.9190   44.0990 O   0  0  0  0  0  0  0  0  0  0  0  0
   37.0080   28.4890   44.9720 H   0  0  0  0  0  0  0  0  0  0  0  0
   38.3580   29.1140   41.7560 O   0  0  0  0  0  0  0  0  0  0  0  0
   37.2980   29.9130   41.3680 C   0  0  0  0  0  0  0  0  0  0  0  0
   36.8050   29.3930   40.5250 H   0  0  0  0  0  0  0  0  0  0  0  0
   36.5500   30.0530   42.1820 H   0  0  0  0  0  0  0  0  0  0  0  0
   37.0310   32.1170   40.1680 C   0  0  0  0  0  3  0  0  0  0  0  0
   37.8030   31.2390   40.9230 C   0  0  0  0  0  0  0  0  0  0  0  0
   39.1070   31.5690   41.3060 C   0  0  0  0  0  0  0  0  0  0  0  0
   39.7230   30.9060   41.8900 H   0  0  0  0  0  0  0  0  0  0  0  0
   39.6160   32.7930   40.9130 C   0  0  0  0  0  0  0  0  0  0  0  0
   40.8230   33.3830   41.1260 N   0  0  0  0  0  0  0  0  0  0  0  0
   41.5870   32.9160   41.6760 H   0  0  0  0  0  0  0  0  0  0  0  0
   40.8240   34.5700   40.5400 N   0  0  0  0  0  0  0  0  0  0  0  0
   39.6370   34.7920   39.9340 C   0  0  0  0  0  0  0  0  0  0  0  0
   39.3770   35.6910   39.3820 H   0  0  0  0  0  0  0  0  0  0  0  0
   38.8450   33.6700   40.1580 C   0  0  0  0  0  0  0  0  0  0  0  0
   37.5600   33.3510   39.7790 C   0  0  0  0  0  3  0  0  0  0  0  0
  1  6  1  0  0  0  0
  2  8  1  0  0  0  0
  2  3  1  0  0  0  0
  2  1  1  0  0  0  0
  3  4  1  0  0  0  0
  4 12  1  0  0  0  0
  4 11  1  0  0  0  0
  4  5  1  0  0  0  0
  5 13  1  0  0  0  0
  6 15  1  6  0  0  0
  6  5  1  0  0  0  0
  6 31  1  0  0  0  0
  7  2  1  0  0  0  0
  9  3  1  0  0  0  0
 10  3  1  0  0  0  0
 14  5  1  0  0  0  0
 16 18  1  0  0  0  0
 16  1  1  0  0  0  0
 17 16  1  0  0  0  0
 19 21  1  0  0  0  0
 19 16  1  0  0  0  0
 20 19  1  0  0  0  0
 22 28  1  0  0  0  0
 22 23  1  0  0  0  0
 23 29  1  0  0  0  0
 24 23  2  0  0  0  0
 24 19  1  0  0  0  0
 25 24  1  0  0  0  0
 26 25  2  0  0  0  0
 27 26  1  0  0  0  0
 27 22  2  0  0  0  0
 30 26  1  0  0  0  0
 31 33  1  0  0  0  0
 33 32  2  1  0  0  0
 33 34  1  0  0  0  0
 34 35  1  0  0  0  0
 36 33  1  0  0  0  0
 37 36  1  0  0  0  0
 37 39  1  0  0  0  0
 38 37  1  0  0  0  0
 40 41  1  0  0  0  0
 41 42  2  0  0  0  0
 41 37  1  0  0  0  0
 42 43  1  0  0  0  0
 44 45  1  0  0  0  0
 44 42  1  0  0  0  0
 45 46  1  0  0  0  0
 47 45  1  0  0  0  0
 48 50  1  0  0  0  0
 48 47  2  0  0  0  0
 49 48  1  0  0  0  0
 50 44  2  0  0  0  0
 51 50  1  0  0  0  0
 51 40  2  0  0  0  0
M  END
>  <minimizedAffinity>
-6.04393387

$$$$

 OpenBabel03252509063D

 51 54  0  0  1  0  0  0  0  0999 V2000
   36.7440   26.2210   40.3300 N   0  0  0  0  0  0  0  0  0  0  0  0
   36.7800   25.0470   39.5460 C   0  0  0  0  0  0  0  0  0  0  0  0
   37.7010   23.9560   40.0730 C   0  0  0  0  0  0  0  0  0  0  0  0
   37.7510   23.8900   41.5780 C   0  0  0  0  0  0  0  0  0  0  0  0
   36.8010   24.8890   42.2200 C   0  0  0  0  0  0  0  0  0  0  0  0
   37.2710   26.2650   41.5980 C   0  0  2  0  0  0  0  0  0  0  0  0
   37.0350   25.1690   38.4890 H   0  0  0  0  0  0  0  0  0  0  0  0
   35.7590   24.5850   39.5450 H   0  0  0  0  0  0  0  0  0  0  0  0
   38.7180   24.1520   39.6430 H   0  0  0  0  0  0  0  0  0  0  0  0
   37.3700   22.9870   39.6450 H   0  0  0  0  0  0  0  0  0  0  0  0
   37.5570   22.8740   41.9780 H   0  0  0  0  0  0  0  0  0  0  0  0
   38.7670   24.1800   41.9290 H   0  0  0  0  0  0  0  0  0  0  0  0
   36.9810   24.9100   43.2960 H   0  0  0  0  0  0  0  0  0  0  0  0
   35.7590   24.7210   41.9200 H   0  0  0  0  0  0  0  0  0  0  0  0
   38.3660   26.3130   41.7250 H   0  0  0  0  0  0  0  0  0  0  0  0
   36.6840   27.4430   39.5660 C   0  0  0  0  0  0  0  0  0  0  0  0
   36.0090   27.3250   38.7080 H   0  0  0  0  0  0  0  0  0  0  0  0
   36.2340   28.2360   40.2240 H   0  0  0  0  0  0  0  0  0  0  0  0
   38.0720   27.8510   39.2330 C   0  0  0  0  0  0  0  0  0  0  0  0
   38.4870   27.2580   38.3830 H   0  0  0  0  0  0  0  0  0  0  0  0
   38.7990   27.7430   40.0650 H   0  0  0  0  0  0  0  0  0  0  0  0
   36.9470   31.3630   38.4830 C   0  0  0  0  0  0  0  0  0  0  0  0
   36.9640   30.0310   38.9300 C   0  0  0  0  0  0  0  0  0  0  0  0
   38.0750   29.2600   38.7520 C   0  0  0  0  0  0  0  0  0  0  0  0
   39.1310   29.8220   38.1420 N   0  0  0  0  0  0  0  0  0  0  0  0
   39.1240   31.0920   37.7130 C   0  0  0  0  0  0  0  0  0  0  0  0
   38.0430   31.8750   37.8750 N   0  0  0  0  0  0  0  0  0  0  0  0
   36.0550   31.9600   38.6340 H   0  0  0  0  0  0  0  0  0  0  0  0
   36.0600   29.6670   39.4120 H   0  0  0  0  0  0  0  0  0  0  0  0
   40.0540   31.3840   37.2450 H   0  0  0  0  0  0  0  0  0  0  0  0
   36.6200   27.1580   42.4270 O   0  0  0  0  0  0  0  0  0  0  0  0
   38.9010   27.4890   43.7570 O   0  0  0  0  0  0  0  0  0  0  0  0
   37.6620   28.2100   43.2030 P   0  0  2  0  0  0  0  0  0  0  0  0
   36.8250   28.7390   44.6090 O   0  0  0  0  0  0  0  0  0  0  0  0
   36.9470   28.1270   45.3570 H   0  0  0  0  0  0  0  0  0  0  0  0
   38.0530   29.5640   42.3140 O   0  0  0  0  0  0  0  0  0  0  0  0
   39.4280   29.7080   42.2970 C   0  0  0  0  0  0  0  0  0  0  0  0
   39.7530   29.7440   43.3540 H   0  0  0  0  0  0  0  0  0  0  0  0
   39.9400   28.8530   41.7990 H   0  0  0  0  0  0  0  0  0  0  0  0
   41.0360   31.1680   41.0100 C   0  0  0  0  0  3  0  0  0  0  0  0
   39.7940   30.9750   41.6090 C   0  0  0  0  0  0  0  0  0  0  0  0
   38.8190   31.9770   41.5900 C   0  0  0  0  0  0  0  0  0  0  0  0
   37.8510   31.8510   42.0460 H   0  0  0  0  0  0  0  0  0  0  0  0
   39.1180   33.1710   40.9590 C   0  0  0  0  0  0  0  0  0  0  0  0
   38.3920   34.3070   40.7800 N   0  0  0  0  0  0  0  0  0  0  0  0
   37.4110   34.4110   41.1440 H   0  0  0  0  0  0  0  0  0  0  0  0
   39.1270   35.1780   40.1050 N   0  0  0  0  0  0  0  0  0  0  0  0
   40.3380   34.6480   39.8260 C   0  0  0  0  0  0  0  0  0  0  0  0
   41.1300   35.1540   39.2810 H   0  0  0  0  0  0  0  0  0  0  0  0
   40.3580   33.3630   40.3610 C   0  0  0  0  0  0  0  0  0  0  0  0
   41.3220   32.3800   40.3770 C   0  0  0  0  0  3  0  0  0  0  0  0
  1  6  1  0  0  0  0
  2  3  1  0  0  0  0
  2  1  1  0  0  0  0
  3  4  1  0  0  0  0
  4 12  1  0  0  0  0
  4 11  1  0  0  0  0
  4  5  1  0  0  0  0
  5 13  1  0  0  0  0
  6 15  1  1  0  0  0
  6  5  1  0  0  0  0
  6 31  1  0  0  0  0
  7  2  1  0  0  0  0
  8  2  1  0  0  0  0
  9  3  1  0  0  0  0
 10  3  1  0  0  0  0
 14  5  1  0  0  0  0
 16 18  1  0  0  0  0
 16  1  1  0  0  0  0
 17 16  1  0  0  0  0
 19 16  1  0  0  0  0
 19 21  1  0  0  0  0
 20 19  1  0  0  0  0
 22 28  1  0  0  0  0
 22 23  1  0  0  0  0
 23 29  1  0  0  0  0
 24 23  2  0  0  0  0
 24 19  1  0  0  0  0
 25 24  1  0  0  0  0
 26 27  1  0  0  0  0
 26 25  2  0  0  0  0
 27 22  2  0  0  0  0
 30 26  1  0  0  0  0
 31 33  1  0  0  0  0
 33 32  2  1  0  0  0
 33 34  1  0  0  0  0
 34 35  1  0  0  0  0
 36 33  1  0  0  0  0
 37 36  1  0  0  0  0
 37 38  1  0  0  0  0
 39 37  1  0  0  0  0
 40 41  1  0  0  0  0
 41 37  1  0  0  0  0
 42 41  2  0  0  0  0
 42 43  1  0  0  0  0
 44 42  1  0  0  0  0
 45 44  1  0  0  0  0
 45 46  1  0  0  0  0
 47 45  1  0  0  0  0
 48 47  2  0  0  0  0
 48 50  1  0  0  0  0
 49 48  1  0  0  0  0
 50 51  1  0  0  0  0
 50 44  2  0  0  0  0
 51 40  2  0  0  0  0
M  END
>  <minimizedAffinity>
-6.02066231

$$$$

 OpenBabel03252509063D

 51 54  0  0  1  0  0  0  0  0999 V2000
   37.1850   31.2890   39.9630 N   0  0  0  0  0  0  0  0  0  0  0  0
   36.9640   31.6090   38.6050 C   0  0  0  0  0  0  0  0  0  0  0  0
   36.8640   30.4080   37.6760 C   0  0  0  0  0  0  0  0  0  0  0  0
   36.2040   29.2110   38.3120 C   0  0  0  0  0  0  0  0  0  0  0  0
   35.7220   29.5140   39.7210 C   0  0  0  0  0  0  0  0  0  0  0  0
   37.0400   30.0100   40.4420 C   0  0  2  0  0  0  0  0  0  0  0  0
   37.6810   32.2910   38.1370 H   0  0  0  0  0  0  0  0  0  0  0  0
   35.9740   32.1250   38.5150 H   0  0  0  0  0  0  0  0  0  0  0  0
   37.9070   30.1650   37.3430 H   0  0  0  0  0  0  0  0  0  0  0  0
   36.3170   30.7230   36.7620 H   0  0  0  0  0  0  0  0  0  0  0  0
   35.3710   28.7990   37.7070 H   0  0  0  0  0  0  0  0  0  0  0  0
   36.9500   28.3930   38.4240 H   0  0  0  0  0  0  0  0  0  0  0  0
   35.3910   28.5870   40.1920 H   0  0  0  0  0  0  0  0  0  0  0  0
   34.9970   30.3370   39.7430 H   0  0  0  0  0  0  0  0  0  0  0  0
   37.8210   29.2610   40.2240 H   0  0  0  0  0  0  0  0  0  0  0  0
   38.0960   32.1790   40.6420 C   0  0  0  0  0  0  0  0  0  0  0  0
   37.7250   32.4080   41.6500 H   0  0  0  0  0  0  0  0  0  0  0  0
   39.0720   31.6350   40.7720 H   0  0  0  0  0  0  0  0  0  0  0  0
   38.3350   33.3550   39.7690 C   0  0  0  0  0  0  0  0  0  0  0  0
   37.7460   34.2450   40.0990 H   0  0  0  0  0  0  0  0  0  0  0  0
   38.0770   33.1990   38.7000 H   0  0  0  0  0  0  0  0  0  0  0  0
   42.0800   33.3910   39.4020 C   0  0  0  0  0  0  0  0  0  0  0  0
   40.7290   33.0100   39.3080 C   0  0  0  0  0  0  0  0  0  0  0  0
   39.7580   33.7770   39.8790 C   0  0  0  0  0  0  0  0  0  0  0  0
   40.1420   34.8910   40.5230 N   0  0  0  0  0  0  0  0  0  0  0  0
   41.4260   35.2620   40.6170 C   0  0  0  0  0  0  0  0  0  0  0  0
   42.4060   34.5260   40.0640 N   0  0  0  0  0  0  0  0  0  0  0  0
   42.8380   32.7680   38.9410 H   0  0  0  0  0  0  0  0  0  0  0  0
   40.5190   32.0910   38.7660 H   0  0  0  0  0  0  0  0  0  0  0  0
   41.5610   36.1830   41.1680 H   0  0  0  0  0  0  0  0  0  0  0  0
   36.6430   29.9660   41.7640 O   0  0  0  0  0  0  0  0  0  0  0  0
   37.8790   27.6450   42.1750 O   0  0  0  0  0  0  0  0  0  0  0  0
   37.6710   29.0640   42.7270 P   0  0  2  0  0  0  0  0  0  0  0  0
   36.8270   28.8180   44.2050 O   0  0  0  0  0  0  0  0  0  0  0  0
   36.2430   28.0400   44.1640 H   0  0  0  0  0  0  0  0  0  0  0  0
   39.1080   29.8260   43.0920 O   0  0  0  0  0  0  0  0  0  0  0  0
   40.1300   29.2180   42.3870 C   0  0  0  0  0  0  0  0  0  0  0  0
   40.1160   28.1490   42.6730 H   0  0  0  0  0  0  0  0  0  0  0  0
   39.9880   29.2900   41.2840 H   0  0  0  0  0  0  0  0  0  0  0  0
   42.4780   29.0840   43.3010 C   0  0  0  0  0  3  0  0  0  0  0  0
   41.4330   29.8280   42.7620 C   0  0  0  0  0  0  0  0  0  0  0  0
   41.5630   31.2030   42.5420 C   0  0  0  0  0  0  0  0  0  0  0  0
   40.7680   31.7990   42.1260 H   0  0  0  0  0  0  0  0  0  0  0  0
   42.7590   31.8110   42.8770 C   0  0  0  0  0  0  0  0  0  0  0  0
   43.1760   33.1020   42.7830 N   0  0  0  0  0  0  0  0  0  0  0  0
   42.5630   33.8640   42.4010 H   0  0  0  0  0  0  0  0  0  0  0  0
   44.4180   33.1800   43.2370 N   0  0  0  0  0  0  0  0  0  0  0  0
   44.8460   31.9620   43.6360 C   0  0  0  0  0  0  0  0  0  0  0  0
   45.8280   31.7500   44.0490 H   0  0  0  0  0  0  0  0  0  0  0  0
   43.8030   31.0670   43.4160 C   0  0  0  0  0  0  0  0  0  0  0  0
   43.6810   29.7130   43.6340 C   0  0  0  0  0  3  0  0  0  0  0  0
  1  6  1  0  0  0  0
  1 16  1  0  0  0  0
  2  1  1  0  0  0  0
  3  4  1  0  0  0  0
  3  2  1  0  0  0  0
  4 12  1  0  0  0  0
  4  5  1  0  0  0  0
  5 14  1  0  0  0  0
  5 13  1  0  0  0  0
  5  6  1  0  0  0  0
  6 15  1  6  0  0  0
  6 31  1  0  0  0  0
  7  2  1  0  0  0  0
  8  2  1  0  0  0  0
  9  3  1  0  0  0  0
 10  3  1  0  0  0  0
 11  4  1  0  0  0  0
 16 18  1  0  0  0  0
 16 17  1  0  0  0  0
 19 24  1  0  0  0  0
 19 20  1  0  0  0  0
 19 16  1  0  0  0  0
 21 19  1  0  0  0  0
 22 27  1  0  0  0  0
 23 22  2  0  0  0  0
 23 24  1  0  0  0  0
 24 25  2  0  0  0  0
 25 26  1  0  0  0  0
 26 30  1  0  0  0  0
 27 26  2  0  0  0  0
 28 22  1  0  0  0  0
 29 23  1  0  0  0  0
 31 33  1  0  0  0  0
 33 32  2  6  0  0  0
 33 36  1  0  0  0  0
 33 34  1  0  0  0  0
 35 34  1  0  0  0  0
 37 38  1  0  0  0  0
 37 41  1  0  0  0  0
 37 36  1  0  0  0  0
 39 37  1  0  0  0  0
 40 51  1  0  0  0  0
 41 40  2  0  0  0  0
 42 41  1  0  0  0  0
 42 44  2  0  0  0  0
 43 42  1  0  0  0  0
 44 50  1  0  0  0  0
 45 44  1  0  0  0  0
 45 47  1  0  0  0  0
 46 45  1  0  0  0  0
 47 48  2  0  0  0  0
 48 49  1  0  0  0  0
 50 51  2  0  0  0  0
 50 48  1  0  0  0  0
M  END
>  <minimizedAffinity>
-5.92513561

$$$$

 OpenBabel03252509063D

 51 54  0  0  1  0  0  0  0  0999 V2000
   37.0900   26.5690   41.5910 N   0  0  0  0  0  0  0  0  0  0  0  0
   37.3380   25.2730   42.0930 C   0  0  0  0  0  0  0  0  0  0  0  0
   36.7410   24.1440   41.2650 C   0  0  0  0  0  0  0  0  0  0  0  0
   36.7470   24.4200   39.7840 C   0  0  0  0  0  0  0  0  0  0  0  0
   37.4240   25.7410   39.4570 C   0  0  0  0  0  0  0  0  0  0  0  0
   36.6010   26.7780   40.3240 C   0  0  2  0  0  0  0  0  0  0  0  0
   37.0340   25.0790   43.1260 H   0  0  0  0  0  0  0  0  0  0  0  0
   38.4430   25.0870   42.0770 H   0  0  0  0  0  0  0  0  0  0  0  0
   35.6970   23.9790   41.6420 H   0  0  0  0  0  0  0  0  0  0  0  0
   37.3000   23.2130   41.4970 H   0  0  0  0  0  0  0  0  0  0  0  0
   37.2050   23.6030   39.1890 H   0  0  0  0  0  0  0  0  0  0  0  0
   35.6990   24.5260   39.4220 H   0  0  0  0  0  0  0  0  0  0  0  0
   37.2710   25.9680   38.4000 H   0  0  0  0  0  0  0  0  0  0  0  0
   38.4660   25.7680   39.7980 H   0  0  0  0  0  0  0  0  0  0  0  0
   35.5340   26.5840   40.1200 H   0  0  0  0  0  0  0  0  0  0  0  0
   36.8150   27.5570   42.6060 C   0  0  0  0  0  0  0  0  0  0  0  0
   36.5630   28.5200   42.1430 H   0  0  0  0  0  0  0  0  0  0  0  0
   35.9020   27.2210   43.1710 H   0  0  0  0  0  0  0  0  0  0  0  0
   37.9590   27.5850   43.5510 C   0  0  0  0  0  0  0  0  0  0  0  0
   38.4970   26.6070   43.5810 H   0  0  0  0  0  0  0  0  0  0  0  0
   37.6860   27.8150   44.6030 H   0  0  0  0  0  0  0  0  0  0  0  0
   39.5150   30.7440   42.2260 C   0  0  0  0  0  0  0  0  0  0  0  0
   38.5720   29.8050   42.6780 C   0  0  0  0  0  0  0  0  0  0  0  0
   38.9740   28.5650   43.0750 C   0  0  0  0  0  0  0  0  0  0  0  0
   40.2860   28.2860   43.0160 N   0  0  0  0  0  0  0  0  0  0  0  0
   41.1920   29.1760   42.5870 C   0  0  0  0  0  0  0  0  0  0  0  0
   40.8250   30.4060   42.1890 N   0  0  0  0  0  0  0  0  0  0  0  0
   39.1750   31.7260   41.9140 H   0  0  0  0  0  0  0  0  0  0  0  0
   37.5320   30.1250   42.6890 H   0  0  0  0  0  0  0  0  0  0  0  0
   42.2020   28.7910   42.6030 H   0  0  0  0  0  0  0  0  0  0  0  0
   37.0210   27.9700   39.7680 O   0  0  0  0  0  0  0  0  0  0  0  0
   34.7070   29.2370   40.1210 O   0  0  0  0  0  0  0  0  0  0  0  0
   35.7730   28.8490   39.0840 P   0  0  2  0  0  0  0  0  0  0  0  0
   34.9570   27.7580   38.0340 O   0  0  0  0  0  0  0  0  0  0  0  0
   34.2820   27.2370   38.5050 H   0  0  0  0  0  0  0  0  0  0  0  0
   36.2760   30.1460   38.1660 O   0  0  0  0  0  0  0  0  0  0  0  0
   37.6540   30.2330   38.2280 C   0  0  0  0  0  0  0  0  0  0  0  0
   37.9920   29.4080   38.8830 H   0  0  0  0  0  0  0  0  0  0  0  0
   38.1340   30.1110   37.2300 H   0  0  0  0  0  0  0  0  0  0  0  0
   37.1270   32.4210   39.3710 C   0  0  0  0  0  3  0  0  0  0  0  0
   38.0510   31.5410   38.8140 C   0  0  0  0  0  0  0  0  0  0  0  0
   39.4140   31.8510   38.7790 C   0  0  0  0  0  0  0  0  0  0  0  0
   40.1480   31.1870   38.3540 H   0  0  0  0  0  0  0  0  0  0  0  0
   39.8260   33.0580   39.3140 C   0  0  0  0  0  0  0  0  0  0  0  0
   41.0570   33.6270   39.4230 N   0  0  0  0  0  0  0  0  0  0  0  0
   41.9280   33.1550   39.0740 H   0  0  0  0  0  0  0  0  0  0  0  0
   40.9280   34.8040   40.0170 N   0  0  0  0  0  0  0  0  0  0  0  0
   39.6300   35.0390   40.3100 C   0  0  0  0  0  0  0  0  0  0  0  0
   39.2530   35.9330   40.7990 H   0  0  0  0  0  0  0  0  0  0  0  0
   38.9030   33.9370   39.8700 C   0  0  0  0  0  0  0  0  0  0  0  0
   37.5600   33.6370   39.9070 C   0  0  0  0  0  3  0  0  0  0  0  0
  1  2  1  0  0  0  0
  1 16  1  0  0  0  0
  2  7  1  0  0  0  0
  3 10  1  0  0  0  0
  3  9  1  0  0  0  0
  3  2  1  0  0  0  0
  4  3  1  0  0  0  0
  5  4  1  0  0  0  0
  5 14  1  0  0  0  0
  5  6  1  0  0  0  0
  6 15  1  6  0  0  0
  6  1  1  0  0  0  0
  8  2  1  0  0  0  0
 11  4  1  0  0  0  0
 12  4  1  0  0  0  0
 13  5  1  0  0  0  0
 16 18  1  0  0  0  0
 16 19  1  0  0  0  0
 17 16  1  0  0  0  0
 19 20  1  0  0  0  0
 19 21  1  0  0  0  0
 22 23  1  0  0  0  0
 23 29  1  0  0  0  0
 23 24  2  0  0  0  0
 24 19  1  0  0  0  0
 25 24  1  0  0  0  0
 26 30  1  0  0  0  0
 26 25  2  0  0  0  0
 27 22  2  0  0  0  0
 27 26  1  0  0  0  0
 28 22  1  0  0  0  0
 31  6  1  0  0  0  0
 33 31  1  0  0  0  0
 33 32  2  1  0  0  0
 34 35  1  0  0  0  0
 34 33  1  0  0  0  0
 36 37  1  0  0  0  0
 36 33  1  0  0  0  0
 37 41  1  0  0  0  0
 37 38  1  0  0  0  0
 39 37  1  0  0  0  0
 40 51  1  0  0  0  0
 41 40  2  0  0  0  0
 42 41  1  0  0  0  0
 42 44  2  0  0  0  0
 43 42  1  0  0  0  0
 44 45  1  0  0  0  0
 44 50  1  0  0  0  0
 45 47  1  0  0  0  0
 46 45  1  0  0  0  0
 47 48  2  0  0  0  0
 48 49  1  0  0  0  0
 50 51  2  0  0  0  0
 50 48  1  0  0  0  0
M  END
>  <minimizedAffinity>
-5.9128232

$$$$

 OpenBabel03252509063D

 51 54  0  0  1  0  0  0  0  0999 V2000
   41.0250   30.0610   39.5500 N   0  0  0  0  0  0  0  0  0  0  0  0
   41.1670   28.9830   38.6470 C   0  0  0  0  0  0  0  0  0  0  0  0
   41.2970   29.3890   37.1870 C   0  0  0  0  0  0  0  0  0  0  0  0
   42.0530   30.6780   36.9870 C   0  0  0  0  0  0  0  0  0  0  0  0
   42.5780   31.2350   38.3010 C   0  0  0  0  0  0  0  0  0  0  0  0
   41.2650   31.3600   39.1750 C   0  0  2  0  0  0  0  0  0  0  0  0
   40.3920   28.2120   38.6760 H   0  0  0  0  0  0  0  0  0  0  0  0
   42.1210   28.4440   38.8820 H   0  0  0  0  0  0  0  0  0  0  0  0
   40.2560   29.4630   36.7750 H   0  0  0  0  0  0  0  0  0  0  0  0
   41.7840   28.5560   36.6380 H   0  0  0  0  0  0  0  0  0  0  0  0
   42.8810   30.5900   36.2560 H   0  0  0  0  0  0  0  0  0  0  0  0
   41.3610   31.4560   36.5920 H   0  0  0  0  0  0  0  0  0  0  0  0
   42.9820   32.2330   38.1280 H   0  0  0  0  0  0  0  0  0  0  0  0
   43.2540   30.5340   38.8070 H   0  0  0  0  0  0  0  0  0  0  0  0
   40.5210   31.8890   38.5550 H   0  0  0  0  0  0  0  0  0  0  0  0
   40.0940   29.8150   40.6250 C   0  0  0  0  0  0  0  0  0  0  0  0
   40.6140   29.8340   41.5920 H   0  0  0  0  0  0  0  0  0  0  0  0
   39.3560   30.6640   40.6380 H   0  0  0  0  0  0  0  0  0  0  0  0
   39.3560   28.5640   40.3240 C   0  0  0  0  0  0  0  0  0  0  0  0
   40.0440   27.6930   40.2040 H   0  0  0  0  0  0  0  0  0  0  0  0
   38.7430   28.5990   39.3980 H   0  0  0  0  0  0  0  0  0  0  0  0
   36.9890   26.6690   42.5530 C   0  0  0  0  0  0  0  0  0  0  0  0
   37.8140   27.0230   41.4710 C   0  0  0  0  0  0  0  0  0  0  0  0
   38.4880   28.2080   41.4800 C   0  0  0  0  0  0  0  0  0  0  0  0
   38.3320   29.0050   42.5490 N   0  0  0  0  0  0  0  0  0  0  0  0
   37.5480   28.6760   43.5860 C   0  0  0  0  0  0  0  0  0  0  0  0
   36.8710   27.5140   43.6040 N   0  0  0  0  0  0  0  0  0  0  0  0
   36.4610   25.7220   42.5280 H   0  0  0  0  0  0  0  0  0  0  0  0
   37.8750   26.3100   40.6520 H   0  0  0  0  0  0  0  0  0  0  0  0
   37.5350   29.4280   44.3610 H   0  0  0  0  0  0  0  0  0  0  0  0
   41.7220   32.1500   40.2130 O   0  0  0  0  0  0  0  0  0  0  0  0
   41.0340   34.4150   38.9970 O   0  0  0  0  0  0  0  0  0  0  0  0
   40.9350   33.6220   40.3100 P   0  0  2  0  0  0  0  0  0  0  0  0
   41.8410   34.5600   41.4310 O   0  0  0  0  0  0  0  0  0  0  0  0
   42.5800   35.0260   41.0020 H   0  0  0  0  0  0  0  0  0  0  0  0
   39.3730   33.5250   40.8840 O   0  0  0  0  0  0  0  0  0  0  0  0
   38.4970   33.7620   39.8410 C   0  0  0  0  0  0  0  0  0  0  0  0
   37.7940   34.5420   40.1910 H   0  0  0  0  0  0  0  0  0  0  0  0
   39.0130   34.1370   38.9280 H   0  0  0  0  0  0  0  0  0  0  0  0
   37.8090   31.9200   38.2590 C   0  0  0  0  0  3  0  0  0  0  0  0
   37.7530   32.5170   39.5150 C   0  0  0  0  0  0  0  0  0  0  0  0
   36.9840   31.9630   40.5450 C   0  0  0  0  0  0  0  0  0  0  0  0
   36.9250   32.4070   41.5250 H   0  0  0  0  0  0  0  0  0  0  0  0
   36.2760   30.8040   40.2840 C   0  0  0  0  0  0  0  0  0  0  0  0
   35.4590   30.0480   41.0650 N   0  0  0  0  0  0  0  0  0  0  0  0
   35.2540   30.2910   42.0660 H   0  0  0  0  0  0  0  0  0  0  0  0
   35.0170   29.0250   40.3490 N   0  0  0  0  0  0  0  0  0  0  0  0
   35.5220   29.0790   39.0970 C   0  0  0  0  0  0  0  0  0  0  0  0
   35.3170   28.3590   38.3100 H   0  0  0  0  0  0  0  0  0  0  0  0
   36.3330   30.2080   39.0290 C   0  0  0  0  0  0  0  0  0  0  0  0
   37.0880   30.7480   38.0120 C   0  0  0  0  0  3  0  0  0  0  0  0
  1 16  1  0  0  0  0
  2  7  1  0  0  0  0
  2  8  1  0  0  0  0
  2  1  1  0  0  0  0
  3  2  1  0  0  0  0
  4  3  1  0  0  0  0
  4  5  1  0  0  0  0
  5 14  1  0  0  0  0
  5  6  1  0  0  0  0
  6 15  1  6  0  0  0
  6  1  1  0  0  0  0
  6 31  1  0  0  0  0
  9  3  1  0  0  0  0
 10  3  1  0  0  0  0
 11  4  1  0  0  0  0
 12  4  1  0  0  0  0
 13  5  1  0  0  0  0
 16 18  1  0  0  0  0
 16 17  1  0  0  0  0
 19 16  1  0  0  0  0
 19 24  1  0  0  0  0
 20 19  1  0  0  0  0
 21 19  1  0  0  0  0
 22 27  1  0  0  0  0
 23 24  1  0  0  0  0
 23 22  2  0  0  0  0
 24 25  2  0  0  0  0
 25 26  1  0  0  0  0
 26 27  2  0  0  0  0
 26 30  1  0  0  0  0
 28 22  1  0  0  0  0
 29 23  1  0  0  0  0
 31 33  1  0  0  0  0
 33 32  2  6  0  0  0
 33 36  1  0  0  0  0
 33 34  1  0  0  0  0
 35 34  1  0  0  0  0
 37 38  1  0  0  0  0
 37 36  1  0  0  0  0
 39 37  1  0  0  0  0
 40 41  1  0  0  0  0
 41 37  1  0  0  0  0
 41 42  2  0  0  0  0
 42 43  1  0  0  0  0
 44 42  1  0  0  0  0
 44 45  1  0  0  0  0
 45 46  1  0  0  0  0
 47 45  1  0  0  0  0
 48 47  2  0  0  0  0
 49 48  1  0  0  0  0
 50 48  1  0  0  0  0
 50 44  2  0  0  0  0
 51 40  2  0  0  0  0
 51 50  1  0  0  0  0
M  END
>  <minimizedAffinity>
-5.90223885

$$$$

 OpenBabel03252509063D

 51 54  0  0  1  0  0  0  0  0999 V2000
   37.8410   25.4160   41.2290 N   0  0  0  0  0  0  0  0  0  0  0  0
   37.4230   24.2600   40.5340 C   0  0  0  0  0  0  0  0  0  0  0  0
   36.2570   24.4770   39.5810 C   0  0  0  0  0  0  0  0  0  0  0  0
   36.2740   25.8260   38.9090 C   0  0  0  0  0  0  0  0  0  0  0  0
   37.5060   26.6310   39.2900 C   0  0  0  0  0  0  0  0  0  0  0  0
   37.4210   26.6730   40.8690 C   0  0  2  0  0  0  0  0  0  0  0  0
   37.1550   23.3900   41.1410 H   0  0  0  0  0  0  0  0  0  0  0  0
   38.2650   23.9100   39.8830 H   0  0  0  0  0  0  0  0  0  0  0  0
   35.3170   24.3330   40.1760 H   0  0  0  0  0  0  0  0  0  0  0  0
   36.2690   23.6600   38.8280 H   0  0  0  0  0  0  0  0  0  0  0  0
   36.1870   25.7660   37.8060 H   0  0  0  0  0  0  0  0  0  0  0  0
   35.4070   26.4280   39.2640 H   0  0  0  0  0  0  0  0  0  0  0  0
   37.4010   27.6470   38.9050 H   0  0  0  0  0  0  0  0  0  0  0  0
   38.4370   26.1180   39.0170 H   0  0  0  0  0  0  0  0  0  0  0  0
   36.3950   26.9920   41.1220 H   0  0  0  0  0  0  0  0  0  0  0  0
   38.2080   25.1800   42.6050 C   0  0  0  0  0  0  0  0  0  0  0  0
   38.2860   26.1320   43.1470 H   0  0  0  0  0  0  0  0  0  0  0  0
   37.3730   24.6010   43.0870 H   0  0  0  0  0  0  0  0  0  0  0  0
   39.4280   24.3360   42.6230 C   0  0  0  0  0  0  0  0  0  0  0  0
   39.7150   23.9970   41.5980 H   0  0  0  0  0  0  0  0  0  0  0  0
   39.3440   23.4140   43.2370 H   0  0  0  0  0  0  0  0  0  0  0  0
   41.4500   26.9780   44.3800 C   0  0  0  0  0  0  0  0  0  0  0  0
   40.3690   26.2030   43.9230 C   0  0  0  0  0  0  0  0  0  0  0  0
   40.5860   25.1430   43.0950 C   0  0  0  0  0  0  0  0  0  0  0  0
   41.8540   24.8770   42.7420 N   0  0  0  0  0  0  0  0  0  0  0  0
   42.8910   25.6100   43.1730 C   0  0  0  0  0  0  0  0  0  0  0  0
   42.7070   26.6610   43.9900 N   0  0  0  0  0  0  0  0  0  0  0  0
   41.2570   27.8180   45.0390 H   0  0  0  0  0  0  0  0  0  0  0  0
   39.3800   26.4980   44.2650 H   0  0  0  0  0  0  0  0  0  0  0  0
   43.8410   25.2600   42.7950 H   0  0  0  0  0  0  0  0  0  0  0  0
   38.3480   27.6580   41.1510 O   0  0  0  0  0  0  0  0  0  0  0  0
   38.5030   29.1340   43.3600 O   0  0  0  0  0  0  0  0  0  0  0  0
   37.7150   28.9110   42.0590 P   0  0  2  0  0  0  0  0  0  0  0  0
   36.1740   28.3670   42.5940 O   0  0  0  0  0  0  0  0  0  0  0  0
   36.2360   27.8510   43.4170 H   0  0  0  0  0  0  0  0  0  0  0  0
   37.4800   30.3230   41.2040 O   0  0  0  0  0  0  0  0  0  0  0  0
   36.1280   30.4770   40.9570 C   0  0  0  0  0  0  0  0  0  0  0  0
   35.5980   29.8760   41.7200 H   0  0  0  0  0  0  0  0  0  0  0  0
   35.7970   31.5370   41.0520 H   0  0  0  0  0  0  0  0  0  0  0  0
   34.6720   29.2080   39.3340 C   0  0  0  0  0  3  0  0  0  0  0  0
   35.8030   29.9740   39.5960 C   0  0  0  0  0  0  0  0  0  0  0  0
   36.6990   30.3130   38.5770 C   0  0  0  0  0  0  0  0  0  0  0  0
   37.5820   30.9050   38.7560 H   0  0  0  0  0  0  0  0  0  0  0  0
   36.4350   29.8660   37.2960 C   0  0  0  0  0  0  0  0  0  0  0  0
   37.1050   30.0280   36.1230 N   0  0  0  0  0  0  0  0  0  0  0  0
   38.0000   30.5760   36.0590 H   0  0  0  0  0  0  0  0  0  0  0  0
   36.4410   29.4020   35.1650 N   0  0  0  0  0  0  0  0  0  0  0  0
   35.3320   28.8170   35.6710 C   0  0  0  0  0  0  0  0  0  0  0  0
   34.6130   28.2400   35.0970 H   0  0  0  0  0  0  0  0  0  0  0  0
   35.3050   29.1000   37.0340 C   0  0  0  0  0  0  0  0  0  0  0  0
   34.4190   28.7630   38.0330 C   0  0  0  0  0  3  0  0  0  0  0  0
  1 16  1  0  0  0  0
  2  7  1  0  0  0  0
  2  1  1  0  0  0  0
  3  9  1  0  0  0  0
  3  2  1  0  0  0  0
  4 12  1  0  0  0  0
  4  5  1  0  0  0  0
  4  3  1  0  0  0  0
  5  6  1  0  0  0  0
  6 15  1  1  0  0  0
  6 31  1  0  0  0  0
  6  1  1  0  0  0  0
  8  2  1  0  0  0  0
 10  3  1  0  0  0  0
 11  4  1  0  0  0  0
 13  5  1  0  0  0  0
 14  5  1  0  0  0  0
 16 19  1  0  0  0  0
 16 18  1  0  0  0  0
 16 17  1  0  0  0  0
 19 24  1  0  0  0  0
 19 21  1  0  0  0  0
 20 19  1  0  0  0  0
 22 28  1  0  0  0  0
 23 29  1  0  0  0  0
 23 22  2  0  0  0  0
 24 23  1  0  0  0  0
 25 24  2  0  0  0  0
 25 26  1  0  0  0  0
 26 27  2  0  0  0  0
 27 22  1  0  0  0  0
 30 26  1  0  0  0  0
 31 33  1  0  0  0  0
 33 34  1  0  0  0  0
 33 32  2  1  0  0  0
 34 35  1  0  0  0  0
 36 33  1  0  0  0  0
 37 39  1  0  0  0  0
 37 36  1  0  0  0  0
 37 38  1  0  0  0  0
 40 41  1  0  0  0  0
 41 37  1  0  0  0  0
 42 43  1  0  0  0  0
 42 41  2  0  0  0  0
 44 42  1  0  0  0  0
 45 44  1  0  0  0  0
 46 45  1  0  0  0  0
 47 48  2  0  0  0  0
 47 45  1  0  0  0  0
 48 50  1  0  0  0  0
 49 48  1  0  0  0  0
 50 44  2  0  0  0  0
 50 51  1  0  0  0  0
 51 40  2  0  0  0  0
M  END
>  <minimizedAffinity>
-5.86009598

$$$$

 OpenBabel03252509063D

 51 54  0  0  1  0  0  0  0  0999 V2000
   36.7060   30.2250   39.8920 N   0  0  0  0  0  0  0  0  0  0  0  0
   36.5800   30.2520   38.4860 C   0  0  0  0  0  0  0  0  0  0  0  0
   37.2280   29.0800   37.7650 C   0  0  0  0  0  0  0  0  0  0  0  0
   37.1420   27.7840   38.5300 C   0  0  0  0  0  0  0  0  0  0  0  0
   36.3520   27.9400   39.8190 C   0  0  0  0  0  0  0  0  0  0  0  0
   37.1260   29.1030   40.5630 C   0  0  2  0  0  0  0  0  0  0  0  0
   36.9390   31.1520   37.9770 H   0  0  0  0  0  0  0  0  0  0  0  0
   35.4930   30.1860   38.2220 H   0  0  0  0  0  0  0  0  0  0  0  0
   38.2960   29.3650   37.5720 H   0  0  0  0  0  0  0  0  0  0  0  0
   36.7540   28.9820   36.7660 H   0  0  0  0  0  0  0  0  0  0  0  0
   36.7250   26.9500   37.9300 H   0  0  0  0  0  0  0  0  0  0  0  0
   38.1620   27.4700   38.8440 H   0  0  0  0  0  0  0  0  0  0  0  0
   36.4430   27.0250   40.4070 H   0  0  0  0  0  0  0  0  0  0  0  0
   35.3260   28.2820   39.6380 H   0  0  0  0  0  0  0  0  0  0  0  0
   38.1960   28.8320   40.5450 H   0  0  0  0  0  0  0  0  0  0  0  0
   36.9450   31.5150   40.4920 C   0  0  0  0  0  0  0  0  0  0  0  0
   36.1040   31.7960   41.1410 H   0  0  0  0  0  0  0  0  0  0  0  0
   37.8480   31.4220   41.1560 H   0  0  0  0  0  0  0  0  0  0  0  0
   37.2630   32.4790   39.4100 C   0  0  0  0  0  0  0  0  0  0  0  0
   36.4530   33.2360   39.2750 H   0  0  0  0  0  0  0  0  0  0  0  0
   37.4210   32.0200   38.4110 H   0  0  0  0  0  0  0  0  0  0  0  0
   40.8350   33.3990   40.1560 C   0  0  0  0  0  0  0  0  0  0  0  0
   39.6880   32.6680   39.8020 C   0  0  0  0  0  0  0  0  0  0  0  0
   38.4660   33.2720   39.7870 C   0  0  0  0  0  0  0  0  0  0  0  0
   38.4100   34.5720   40.1190 N   0  0  0  0  0  0  0  0  0  0  0  0
   39.4980   35.2770   40.4570 C   0  0  0  0  0  0  0  0  0  0  0  0
   40.7160   34.7070   40.4810 N   0  0  0  0  0  0  0  0  0  0  0  0
   41.7980   32.9010   40.1610 H   0  0  0  0  0  0  0  0  0  0  0  0
   39.8360   31.6200   39.5490 H   0  0  0  0  0  0  0  0  0  0  0  0
   39.2770   36.3080   40.6960 H   0  0  0  0  0  0  0  0  0  0  0  0
   36.5930   28.9960   41.8330 O   0  0  0  0  0  0  0  0  0  0  0  0
   37.0680   28.0120   44.2600 O   0  0  0  0  0  0  0  0  0  0  0  0
   37.7250   28.5640   42.9850 P   0  0  2  0  0  0  0  0  0  0  0  0
   38.4530   30.0360   43.4950 O   0  0  0  0  0  0  0  0  0  0  0  0
   37.9470   30.4640   44.2080 H   0  0  0  0  0  0  0  0  0  0  0  0
   38.9400   27.5760   42.4120 O   0  0  0  0  0  0  0  0  0  0  0  0
   38.8060   26.3240   42.9820 C   0  0  0  0  0  0  0  0  0  0  0  0
   39.8190   26.0130   43.3000 H   0  0  0  0  0  0  0  0  0  0  0  0
   38.1420   26.3330   43.8770 H   0  0  0  0  0  0  0  0  0  0  0  0
   36.9490   24.9370   41.9840 C   0  0  0  0  0  3  0  0  0  0  0  0
   38.2720   25.3670   41.9760 C   0  0  0  0  0  0  0  0  0  0  0  0
   39.1740   24.9140   41.0080 C   0  0  0  0  0  0  0  0  0  0  0  0
   40.2030   25.2320   40.9820 H   0  0  0  0  0  0  0  0  0  0  0  0
   38.7190   24.0220   40.0540 C   0  0  0  0  0  0  0  0  0  0  0  0
   39.3450   23.4170   39.0090 N   0  0  0  0  0  0  0  0  0  0  0  0
   40.3590   23.5820   38.7890 H   0  0  0  0  0  0  0  0  0  0  0  0
   38.4710   22.6440   38.3830 N   0  0  0  0  0  0  0  0  0  0  0  0
   37.2650   22.7160   38.9890 C   0  0  0  0  0  0  0  0  0  0  0  0
   36.3750   22.1790   38.6740 H   0  0  0  0  0  0  0  0  0  0  0  0
   37.3970   23.5930   40.0620 C   0  0  0  0  0  0  0  0  0  0  0  0
   36.5040   24.0360   41.0120 C   0  0  0  0  0  3  0  0  0  0  0  0
  1 16  1  0  0  0  0
  1  6  1  0  0  0  0
  2  1  1  0  0  0  0
  3  2  1  0  0  0  0
  3  4  1  0  0  0  0
  4 12  1  0  0  0  0
  4  5  1  0  0  0  0
  5 13  1  0  0  0  0
  5  6  1  0  0  0  0
  6 15  1  6  0  0  0
  6 31  1  0  0  0  0
  7  2  1  0  0  0  0
  8  2  1  0  0  0  0
  9  3  1  0  0  0  0
 10  3  1  0  0  0  0
 11  4  1  0  0  0  0
 14  5  1  0  0  0  0
 16 17  1  0  0  0  0
 16 18  1  0  0  0  0
 19 24  1  0  0  0  0
 19 16  1  0  0  0  0
 20 19  1  0  0  0  0
 21 19  1  0  0  0  0
 22 28  1  0  0  0  0
 22 27  1  0  0  0  0
 23 22  2  0  0  0  0
 24 23  1  0  0  0  0
 24 25  2  0  0  0  0
 25 26  1  0  0  0  0
 26 27  2  0  0  0  0
 26 30  1  0  0  0  0
 29 23  1  0  0  0  0
 31 33  1  0  0  0  0
 33 34  1  0  0  0  0
 33 32  2  1  0  0  0
 34 35  1  0  0  0  0
 36 37  1  0  0  0  0
 36 33  1  0  0  0  0
 37 38  1  0  0  0  0
 37 39  1  0  0  0  0
 41 40  1  0  0  0  0
 41 37  1  0  0  0  0
 42 41  2  0  0  0  0
 43 42  1  0  0  0  0
 44 50  2  0  0  0  0
 44 42  1  0  0  0  0
 45 44  1  0  0  0  0
 46 45  1  0  0  0  0
 47 48  2  0  0  0  0
 47 45  1  0  0  0  0
 48 50  1  0  0  0  0
 49 48  1  0  0  0  0
 50 51  1  0  0  0  0
 51 40  2  0  0  0  0
M  END
>  <minimizedAffinity>
-5.81629848

$$$$

 OpenBabel03252509063D

 51 54  0  0  1  0  0  0  0  0999 V2000
   38.7520   28.1840   41.8750 N   0  0  0  0  0  0  0  0  0  0  0  0
   39.1820   27.4930   43.0300 C   0  0  0  0  0  0  0  0  0  0  0  0
   38.2390   27.5920   44.2200 C   0  0  0  0  0  0  0  0  0  0  0  0
   36.7830   27.6280   43.8300 C   0  0  0  0  0  0  0  0  0  0  0  0
   36.5960   27.4780   42.3290 C   0  0  0  0  0  0  0  0  0  0  0  0
   37.4710   28.6630   41.7490 C   0  0  2  0  0  0  0  0  0  0  0  0
   40.1750   27.7460   43.4130 H   0  0  0  0  0  0  0  0  0  0  0  0
   39.2330   26.3990   42.7940 H   0  0  0  0  0  0  0  0  0  0  0  0
   38.5270   28.5150   44.7890 H   0  0  0  0  0  0  0  0  0  0  0  0
   38.4460   26.7380   44.8980 H   0  0  0  0  0  0  0  0  0  0  0  0
   36.1690   26.8750   44.3640 H   0  0  0  0  0  0  0  0  0  0  0  0
   36.3560   28.6240   44.0840 H   0  0  0  0  0  0  0  0  0  0  0  0
   35.5490   27.6600   42.0800 H   0  0  0  0  0  0  0  0  0  0  0  0
   37.0130   26.5370   41.9510 H   0  0  0  0  0  0  0  0  0  0  0  0
   37.1780   29.5720   42.3020 H   0  0  0  0  0  0  0  0  0  0  0  0
   39.8090   28.8490   41.1530 C   0  0  0  0  0  0  0  0  0  0  0  0
   40.4270   28.1150   40.6190 H   0  0  0  0  0  0  0  0  0  0  0  0
   39.3320   29.5000   40.3700 H   0  0  0  0  0  0  0  0  0  0  0  0
   40.5400   29.7260   42.1020 C   0  0  0  0  0  0  0  0  0  0  0  0
   41.6090   29.4240   42.2090 H   0  0  0  0  0  0  0  0  0  0  0  0
   40.1230   29.7450   43.1310 H   0  0  0  0  0  0  0  0  0  0  0  0
   39.4480   33.0860   40.8040 C   0  0  0  0  0  0  0  0  0  0  0  0
   39.4230   31.7760   41.3150 C   0  0  0  0  0  0  0  0  0  0  0  0
   40.5880   31.1130   41.5610 C   0  0  0  0  0  0  0  0  0  0  0  0
   41.7380   31.7550   41.2990 N   0  0  0  0  0  0  0  0  0  0  0  0
   41.7710   33.0030   40.8130 C   0  0  0  0  0  0  0  0  0  0  0  0
   40.6380   33.6820   40.5600 N   0  0  0  0  0  0  0  0  0  0  0  0
   38.5110   33.5970   40.6150 H   0  0  0  0  0  0  0  0  0  0  0  0
   38.4420   31.3410   41.4940 H   0  0  0  0  0  0  0  0  0  0  0  0
   42.7770   33.3700   40.6600 H   0  0  0  0  0  0  0  0  0  0  0  0
   37.0280   28.6940   40.4410 O   0  0  0  0  0  0  0  0  0  0  0  0
   36.0830   31.0440   41.2570 O   0  0  0  0  0  0  0  0  0  0  0  0
   36.0840   30.0310   40.1010 P   0  0  2  0  0  0  0  0  0  0  0  0
   34.4640   29.4560   40.0490 O   0  0  0  0  0  0  0  0  0  0  0  0
   34.0560   29.4400   40.9330 H   0  0  0  0  0  0  0  0  0  0  0  0
   36.4110   30.7410   38.6280 O   0  0  0  0  0  0  0  0  0  0  0  0
   37.0360   29.8150   37.8130 C   0  0  0  0  0  0  0  0  0  0  0  0
   36.9170   28.8320   38.3060 H   0  0  0  0  0  0  0  0  0  0  0  0
   36.5760   29.7610   36.8000 H   0  0  0  0  0  0  0  0  0  0  0  0
   39.4730   29.1760   37.6680 C   0  0  0  0  0  3  0  0  0  0  0  0
   38.4800   30.1500   37.6870 C   0  0  0  0  0  0  0  0  0  0  0  0
   38.7970   31.5080   37.5840 C   0  0  0  0  0  0  0  0  0  0  0  0
   38.0460   32.2800   37.5950 H   0  0  0  0  0  0  0  0  0  0  0  0
   40.1280   31.8630   37.4640 C   0  0  0  0  0  0  0  0  0  0  0  0
   40.7360   33.0750   37.3480 N   0  0  0  0  0  0  0  0  0  0  0  0
   40.1950   33.9750   37.3350 H   0  0  0  0  0  0  0  0  0  0  0  0
   42.0430   32.8860   37.2610 N   0  0  0  0  0  0  0  0  0  0  0  0
   42.3290   31.5670   37.3160 C   0  0  0  0  0  0  0  0  0  0  0  0
   43.3280   31.1420   37.2660 H   0  0  0  0  0  0  0  0  0  0  0  0
   41.1210   30.8890   37.4450 C   0  0  0  0  0  0  0  0  0  0  0  0
   40.8140   29.5510   37.5460 C   0  0  0  0  0  3  0  0  0  0  0  0
  1  2  1  0  0  0  0
  2  7  1  0  0  0  0
  2  3  1  0  0  0  0
  3  9  1  0  0  0  0
  3 10  1  0  0  0  0
  4 12  1  0  0  0  0
  4  3  1  0  0  0  0
  4 11  1  0  0  0  0
  5  4  1  0  0  0  0
  6  1  1  0  0  0  0
  6 15  1  1  0  0  0
  6  5  1  0  0  0  0
  8  2  1  0  0  0  0
 13  5  1  0  0  0  0
 14  5  1  0  0  0  0
 16  1  1  0  0  0  0
 16 19  1  0  0  0  0
 17 16  1  0  0  0  0
 18 16  1  0  0  0  0
 19 20  1  0  0  0  0
 19 21  1  0  0  0  0
 22 23  1  0  0  0  0
 23 29  1  0  0  0  0
 23 24  2  0  0  0  0
 24 19  1  0  0  0  0
 25 24  1  0  0  0  0
 26 25  2  0  0  0  0
 27 22  2  0  0  0  0
 27 26  1  0  0  0  0
 28 22  1  0  0  0  0
 30 26  1  0  0  0  0
 31  6  1  0  0  0  0
 33 31  1  0  0  0  0
 33 32  2  1  0  0  0
 34 33  1  0  0  0  0
 34 35  1  0  0  0  0
 36 33  1  0  0  0  0
 37 38  1  0  0  0  0
 37 36  1  0  0  0  0
 39 37  1  0  0  0  0
 40 41  1  0  0  0  0
 41 37  1  0  0  0  0
 42 43  1  0  0  0  0
 42 41  2  0  0  0  0
 44 42  1  0  0  0  0
 45 44  1  0  0  0  0
 46 45  1  0  0  0  0
 47 48  2  0  0  0  0
 47 45  1  0  0  0  0
 48 50  1  0  0  0  0
 49 48  1  0  0  0  0
 50 44  2  0  0  0  0
 50 51  1  0  0  0  0
 51 40  2  0  0  0  0
M  END
>  <minimizedAffinity>
-5.77447462

$$$$

 OpenBabel03252509063D

 51 54  0  0  1  0  0  0  0  0999 V2000
   37.5710   31.1880   39.8930 N   0  0  0  0  0  0  0  0  0  0  0  0
   37.0460   31.4550   38.6090 C   0  0  0  0  0  0  0  0  0  0  0  0
   36.4890   30.2390   37.8840 C   0  0  0  0  0  0  0  0  0  0  0  0
   35.8310   29.2420   38.8020 C   0  0  0  0  0  0  0  0  0  0  0  0
   35.8120   29.7270   40.2430 C   0  0  0  0  0  0  0  0  0  0  0  0
   37.3430   29.9970   40.5390 C   0  0  2  0  0  0  0  0  0  0  0  0
   37.7150   31.9480   37.8970 H   0  0  0  0  0  0  0  0  0  0  0  0
   36.1740   32.1500   38.7160 H   0  0  0  0  0  0  0  0  0  0  0  0
   37.3420   29.7720   37.3250 H   0  0  0  0  0  0  0  0  0  0  0  0
   35.7760   30.5940   37.1100 H   0  0  0  0  0  0  0  0  0  0  0  0
   34.8060   28.9640   38.4840 H   0  0  0  0  0  0  0  0  0  0  0  0
   36.4250   28.3000   38.8150 H   0  0  0  0  0  0  0  0  0  0  0  0
   35.4670   28.9170   40.8870 H   0  0  0  0  0  0  0  0  0  0  0  0
   35.2750   30.6770   40.3530 H   0  0  0  0  0  0  0  0  0  0  0  0
   37.8910   29.0960   40.2180 H   0  0  0  0  0  0  0  0  0  0  0  0
   38.7720   31.9220   40.2070 C   0  0  0  0  0  0  0  0  0  0  0  0
   38.5750   33.0030   40.1900 H   0  0  0  0  0  0  0  0  0  0  0  0
   39.0650   31.6640   41.2620 H   0  0  0  0  0  0  0  0  0  0  0  0
   39.8520   31.4570   39.3020 C   0  0  0  0  0  0  0  0  0  0  0  0
   39.4450   31.0200   38.3590 H   0  0  0  0  0  0  0  0  0  0  0  0
   40.5190   30.6820   39.7350 H   0  0  0  0  0  0  0  0  0  0  0  0
   41.3900   34.8900   39.1790 C   0  0  0  0  0  0  0  0  0  0  0  0
   40.6280   33.7780   39.5800 C   0  0  0  0  0  0  0  0  0  0  0  0
   40.6680   32.6220   38.8600 C   0  0  0  0  0  0  0  0  0  0  0  0
   41.4530   32.5930   37.7710 N   0  0  0  0  0  0  0  0  0  0  0  0
   42.1840   33.6470   37.3820 C   0  0  0  0  0  0  0  0  0  0  0  0
   42.1640   34.8000   38.0720 N   0  0  0  0  0  0  0  0  0  0  0  0
   41.3450   35.8010   39.7650 H   0  0  0  0  0  0  0  0  0  0  0  0
   40.0220   33.9010   40.4760 H   0  0  0  0  0  0  0  0  0  0  0  0
   42.7590   33.4540   36.4870 H   0  0  0  0  0  0  0  0  0  0  0  0
   37.3210   30.1210   41.9150 O   0  0  0  0  0  0  0  0  0  0  0  0
   37.4160   28.5630   44.0710 O   0  0  0  0  0  0  0  0  0  0  0  0
   38.0530   28.8380   42.6990 P   0  0  2  0  0  0  0  0  0  0  0  0
   39.6430   29.3720   43.0770 O   0  0  0  0  0  0  0  0  0  0  0  0
   39.6730   29.8560   43.9220 H   0  0  0  0  0  0  0  0  0  0  0  0
   38.1940   27.4610   41.7700 O   0  0  0  0  0  0  0  0  0  0  0  0
   37.2650   26.5320   42.2020 C   0  0  0  0  0  0  0  0  0  0  0  0
   37.6230   26.1610   43.1810 H   0  0  0  0  0  0  0  0  0  0  0  0
   36.2530   26.9760   42.3410 H   0  0  0  0  0  0  0  0  0  0  0  0
   36.5820   25.5410   39.9840 C   0  0  0  0  0  3  0  0  0  0  0  0
   37.1870   25.4090   41.2300 C   0  0  0  0  0  0  0  0  0  0  0  0
   37.7580   24.1970   41.6320 C   0  0  0  0  0  0  0  0  0  0  0  0
   38.2320   24.0710   42.5910 H   0  0  0  0  0  0  0  0  0  0  0  0
   37.7080   23.1270   40.7580 C   0  0  0  0  0  0  0  0  0  0  0  0
   38.1650   21.8500   40.8620 N   0  0  0  0  0  0  0  0  0  0  0  0
   38.6650   21.5000   41.7170 H   0  0  0  0  0  0  0  0  0  0  0  0
   37.8700   21.2020   39.7460 N   0  0  0  0  0  0  0  0  0  0  0  0
   37.2190   22.0200   38.8890 C   0  0  0  0  0  0  0  0  0  0  0  0
   36.8660   21.7360   37.9020 H   0  0  0  0  0  0  0  0  0  0  0  0
   37.1030   23.2590   39.5120 C   0  0  0  0  0  0  0  0  0  0  0  0
   36.5390   24.4500   39.1120 C   0  0  0  0  0  3  0  0  0  0  0  0
  1 16  1  0  0  0  0
  1  6  1  0  0  0  0
  2  8  1  0  0  0  0
  2  1  1  0  0  0  0
  3  2  1  0  0  0  0
  3  4  1  0  0  0  0
  4 12  1  0  0  0  0
  4  5  1  0  0  0  0
  5 14  1  0  0  0  0
  5  6  1  0  0  0  0
  5 13  1  0  0  0  0
  6 15  1  6  0  0  0
  6 31  1  0  0  0  0
  7  2  1  0  0  0  0
  9  3  1  0  0  0  0
 10  3  1  0  0  0  0
 11  4  1  0  0  0  0
 16 18  1  0  0  0  0
 17 16  1  0  0  0  0
 19 21  1  0  0  0  0
 19 16  1  0  0  0  0
 20 19  1  0  0  0  0
 22 23  1  0  0  0  0
 22 28  1  0  0  0  0
 23 29  1  0  0  0  0
 24 19  1  0  0  0  0
 24 23  2  0  0  0  0
 25 24  1  0  0  0  0
 26 25  2  0  0  0  0
 26 27  1  0  0  0  0
 27 22  2  0  0  0  0
 30 26  1  0  0  0  0
 31 33  1  0  0  0  0
 33 34  1  0  0  0  0
 33 32  2  1  0  0  0
 34 35  1  0  0  0  0
 36 37  1  0  0  0  0
 36 33  1  0  0  0  0
 37 39  1  0  0  0  0
 37 38  1  0  0  0  0
 40 41  1  0  0  0  0
 41 42  2  0  0  0  0
 41 37  1  0  0  0  0
 42 43  1  0  0  0  0
 44 45  1  0  0  0  0
 44 42  1  0  0  0  0
 45 46  1  0  0  0  0
 47 45  1  0  0  0  0
 48 50  1  0  0  0  0
 48 47  2  0  0  0  0
 49 48  1  0  0  0  0
 50 44  2  0  0  0  0
 51 50  1  0  0  0  0
 51 40  2  0  0  0  0
M  END
>  <minimizedAffinity>
-5.74738169

$$$$
