
 OpenBabel03252509033D

 51 54  0  0  1  0  0  0  0  0999 V2000
   46.7010   34.3810   43.4700 N   0  0  0  0  0  0  0  0  0  0  0  0
   46.4440   34.9400   42.1980 C   0  0  0  0  0  0  0  0  0  0  0  0
   44.9770   34.9650   41.7970 C   0  0  0  0  0  0  0  0  0  0  0  0
   44.0420   35.2030   42.9550 C   0  0  0  0  0  0  0  0  0  0  0  0
   44.7990   35.4410   44.2520 C   0  0  0  0  0  0  0  0  0  0  0  0
   45.6960   34.1430   44.3750 C   0  0  2  0  0  0  0  0  0  0  0  0
   46.9790   34.5010   41.3510 H   0  0  0  0  0  0  0  0  0  0  0  0
   46.7560   36.0160   42.2100 H   0  0  0  0  0  0  0  0  0  0  0  0
   44.7580   33.9850   41.2970 H   0  0  0  0  0  0  0  0  0  0  0  0
   44.8440   35.7420   41.0160 H   0  0  0  0  0  0  0  0  0  0  0  0
   43.3280   36.0320   42.7770 H   0  0  0  0  0  0  0  0  0  0  0  0
   43.4310   34.2900   43.1330 H   0  0  0  0  0  0  0  0  0  0  0  0
   44.0890   35.4570   45.0810 H   0  0  0  0  0  0  0  0  0  0  0  0
   45.4680   36.3070   44.1880 H   0  0  0  0  0  0  0  0  0  0  0  0
   45.0260   33.2800   44.2230 H   0  0  0  0  0  0  0  0  0  0  0  0
   47.8900   33.5670   43.5310 C   0  0  0  0  0  0  0  0  0  0  0  0
   48.7730   34.1600   43.2570 H   0  0  0  0  0  0  0  0  0  0  0  0
   48.0330   33.2510   44.6010 H   0  0  0  0  0  0  0  0  0  0  0  0
   47.6630   32.3490   42.7150 C   0  0  0  0  0  0  0  0  0  0  0  0
   46.7940   32.4670   42.0240 H   0  0  0  0  0  0  0  0  0  0  0  0
   47.4620   31.4280   43.3040 H   0  0  0  0  0  0  0  0  0  0  0  0
   51.2040   32.1920   41.4520 C   0  0  0  0  0  0  0  0  0  0  0  0
   50.0860   32.3990   42.2790 C   0  0  0  0  0  0  0  0  0  0  0  0
   48.8330   32.1220   41.8230 C   0  0  0  0  0  0  0  0  0  0  0  0
   48.7150   31.6500   40.5710 N   0  0  0  0  0  0  0  0  0  0  0  0
   49.7750   31.4480   39.7750 C   0  0  0  0  0  0  0  0  0  0  0  0
   51.0230   31.7140   40.1980 N   0  0  0  0  0  0  0  0  0  0  0  0
   52.1930   32.4190   41.8330 H   0  0  0  0  0  0  0  0  0  0  0  0
   50.2840   32.7850   43.2770 H   0  0  0  0  0  0  0  0  0  0  0  0
   49.5040   31.0650   38.8010 H   0  0  0  0  0  0  0  0  0  0  0  0
   46.1120   34.2410   45.6890 O   0  0  0  0  0  0  0  0  0  0  0  0
   45.6440   31.6230   45.5850 O   0  0  0  0  0  0  0  0  0  0  0  0
   46.0430   32.7850   46.5080 P   0  0  2  0  0  0  0  0  0  0  0  0
   44.7190   32.9270   47.5960 O   0  0  0  0  0  0  0  0  0  0  0  0
   43.8750   32.6870   47.1750 H   0  0  0  0  0  0  0  0  0  0  0  0
   47.4010   32.4470   47.4140 O   0  0  0  0  0  0  0  0  0  0  0  0
   47.7540   31.1240   47.2150 C   0  0  0  0  0  0  0  0  0  0  0  0
   46.8110   30.5470   47.1930 H   0  0  0  0  0  0  0  0  0  0  0  0
   48.2870   30.9670   46.2490 H   0  0  0  0  0  0  0  0  0  0  0  0
   49.1480   31.5300   49.2800 C   0  0  0  0  0  3  0  0  0  0  0  0
   48.6110   30.6580   48.3370 C   0  0  0  0  0  0  0  0  0  0  0  0
   48.8560   29.2820   48.4030 C   0  0  0  0  0  0  0  0  0  0  0  0
   48.4520   28.5880   47.6860 H   0  0  0  0  0  0  0  0  0  0  0  0
   49.6480   28.8070   49.4310 C   0  0  0  0  0  0  0  0  0  0  0  0
   50.0570   27.5490   49.7540 N   0  0  0  0  0  0  0  0  0  0  0  0
   49.7810   26.7060   49.1880 H   0  0  0  0  0  0  0  0  0  0  0  0
   50.8110   27.6120   50.8400 N   0  0  0  0  0  0  0  0  0  0  0  0
   50.9190   28.8930   51.2570 C   0  0  0  0  0  0  0  0  0  0  0  0
   51.4830   29.2200   52.1260 H   0  0  0  0  0  0  0  0  0  0  0  0
   50.1850   29.6780   50.3740 C   0  0  0  0  0  0  0  0  0  0  0  0
   49.9460   31.0330   50.3130 C   0  0  0  0  0  3  0  0  0  0  0  0
  1 16  1  0  0  0  0
  1  6  1  0  0  0  0
  2  8  1  0  0  0  0
  2  1  1  0  0  0  0
  3  2  1  0  0  0  0
  3  4  1  0  0  0  0
  4 12  1  0  0  0  0
  4  5  1  0  0  0  0
  5  6  1  0  0  0  0
  5 13  1  0  0  0  0
  6 15  1  6  0  0  0
  6 31  1  0  0  0  0
  7  2  1  0  0  0  0
  9  3  1  0  0  0  0
 10  3  1  0  0  0  0
 11  4  1  0  0  0  0
 14  5  1  0  0  0  0
 16 18  1  0  0  0  0
 17 16  1  0  0  0  0
 19 21  1  0  0  0  0
 19 16  1  0  0  0  0
 20 19  1  0  0  0  0
 22 28  1  0  0  0  0
 22 23  1  0  0  0  0
 23 29  1  0  0  0  0
 24 23  2  0  0  0  0
 24 19  1  0  0  0  0
 25 24  1  0  0  0  0
 26 27  1  0  0  0  0
 26 25  2  0  0  0  0
 27 22  2  0  0  0  0
 30 26  1  0  0  0  0
 31 33  1  0  0  0  0
 33 32  2  6  0  0  0
 33 36  1  0  0  0  0
 33 34  1  0  0  0  0
 35 34  1  0  0  0  0
 37 36  1  0  0  0  0
 37 41  1  0  0  0  0
 38 37  1  0  0  0  0
 39 37  1  0  0  0  0
 40 51  1  0  0  0  0
 41 42  1  0  0  0  0
 41 40  2  0  0  0  0
 42 44  2  0  0  0  0
 43 42  1  0  0  0  0
 44 45  1  0  0  0  0
 44 50  1  0  0  0  0
 45 47  1  0  0  0  0
 46 45  1  0  0  0  0
 47 48  2  0  0  0  0
 48 49  1  0  0  0  0
 50 48  1  0  0  0  0
 51 50  2  0  0  0  0
M  END
>  <minimizedAffinity>
-5.59405375

>  <minimizedRMSD>
3.2200861

$$$$
