
 OpenBabel03242514313D

 41 45  0  0  0  0  0  0  0  0999 V2000
   40.3170   30.7200   40.6820 Cl  0  0  0  0  0  0  0  0  0  0  0  0
   39.2230   30.9260   39.3280 C   0  0  0  0  0  0  0  0  0  0  0  0
   39.4910   31.8630   38.3890 C   0  0  0  0  0  0  0  0  0  0  0  0
   38.5040   32.0260   37.4360 C   0  0  0  0  0  0  0  0  0  0  0  0
   37.3190   31.3200   37.3890 C   0  0  0  0  0  0  0  0  0  0  0  0
   37.0850   30.3670   38.3650 C   0  0  0  0  0  0  0  0  0  0  0  0
   38.0560   30.1750   39.3410 C   0  0  0  0  0  0  0  0  0  0  0  0
   38.7570   32.8000   36.6900 H   0  0  0  0  0  0  0  0  0  0  0  0
   36.7030   31.6150   36.5610 H   0  0  0  0  0  0  0  0  0  0  0  0
   36.1510   29.8510   38.2720 H   0  0  0  0  0  0  0  0  0  0  0  0
   37.6570   27.7920   40.1820 C   0  0  0  0  0  3  0  0  0  0  0  0
   37.7480   29.1600   40.3380 C   0  0  0  0  0  0  0  0  0  0  0  0
   37.5110   29.6370   41.6330 C   0  0  0  0  0  0  0  0  0  0  0  0
   37.5650   30.7150   41.8480 H   0  0  0  0  0  0  0  0  0  0  0  0
   37.2040   28.8350   42.7120 C   0  0  0  0  0  0  0  0  0  0  0  0
   36.9470   29.0960   44.0050 N   0  0  0  0  0  0  0  0  0  0  0  0
   36.9340   30.0470   44.4700 H   0  0  0  0  0  0  0  0  0  0  0  0
   36.7090   27.9310   44.6120 N   0  0  0  0  0  0  0  0  0  0  0  0
   36.8020   26.9070   43.7440 C   0  0  0  0  0  0  0  0  0  0  0  0
   36.6650   25.8640   43.9330 H   0  0  0  0  0  0  0  0  0  0  0  0
   37.1180   27.4710   42.5260 C   0  0  0  0  0  0  0  0  0  0  0  0
   37.3490   26.9830   41.2550 C   0  0  0  0  0  3  0  0  0  0  0  0
   42.7670   33.3590   37.3990 C   0  0  0  0  0  0  0  0  0  0  0  0
   41.5570   32.6550   37.3060 C   0  0  0  0  0  0  0  0  0  0  0  0
   40.7130   32.6210   38.4080 C   0  0  0  0  0  0  0  0  0  0  0  0
   41.1080   33.2850   39.5190 N   0  0  0  0  0  0  0  0  0  0  0  0
   42.2630   33.9630   39.6040 C   0  0  0  0  0  0  0  0  0  0  0  0
   43.1020   34.0010   38.5420 N   0  0  0  0  0  0  0  0  0  0  0  0
   43.5180   33.4660   36.6310 H   0  0  0  0  0  0  0  0  0  0  0  0
   41.4970   32.2900   36.3320 H   0  0  0  0  0  0  0  0  0  0  0  0
   40.5280   36.3930   40.2390 Cl  0  0  0  0  0  0  0  0  0  0  0  0
   41.8960   35.8410   41.1760 C   0  0  0  0  0  0  0  0  0  0  0  0
   42.6170   34.7110   40.7900 C   0  0  0  0  0  0  0  0  0  0  0  0
   43.6550   34.3720   41.5920 C   0  0  0  0  0  0  0  0  0  0  0  0
   44.0160   35.0760   42.7360 C   0  0  0  0  0  0  0  0  0  0  0  0
   43.2900   36.1820   43.0900 C   0  0  0  0  0  0  0  0  0  0  0  0
   43.8520   36.9710   44.5500 Cl  0  0  0  0  0  0  0  0  0  0  0  0
   42.2360   36.5620   42.3150 C   0  0  0  0  0  0  0  0  0  0  0  0
   44.2240   33.4950   41.3030 H   0  0  0  0  0  0  0  0  0  0  0  0
   44.8710   34.6890   43.2830 H   0  0  0  0  0  0  0  0  0  0  0  0
   41.7000   37.4390   42.6410 H   0  0  0  0  0  0  0  0  0  0  0  0
  2  7  1  0  0  0  0
  2  1  1  0  0  0  0
  3 25  1  0  0  0  0
  3  2  2  0  0  0  0
  4  3  1  0  0  0  0
  5  4  2  0  0  0  0
  5  6  1  0  0  0  0
  6  7  2  0  0  0  0
  7 12  1  0  0  0  0
  8  4  1  0  0  0  0
  9  5  1  0  0  0  0
 10  6  1  0  0  0  0
 11 12  2  0  0  0  0
 11 22  1  0  0  0  0
 12 13  1  0  0  0  0
 13 14  1  0  0  0  0
 13 15  2  0  0  0  0
 15 16  1  0  0  0  0
 16 17  1  0  0  0  0
 16 18  1  0  0  0  0
 19 20  1  0  0  0  0
 19 18  2  0  0  0  0
 21 15  1  0  0  0  0
 21 19  1  0  0  0  0
 22 21  2  0  0  0  0
 23 28  1  0  0  0  0
 24 23  2  0  0  0  0
 24 25  1  0  0  0  0
 25 26  2  0  0  0  0
 26 27  1  0  0  0  0
 27 33  1  0  0  0  0
 28 27  2  0  0  0  0
 29 23  1  0  0  0  0
 30 24  1  0  0  0  0
 31 32  1  0  0  0  0
 32 38  1  0  0  0  0
 33 32  2  0  0  0  0
 33 34  1  0  0  0  0
 34 35  2  0  0  0  0
 35 36  1  0  0  0  0
 35 40  1  0  0  0  0
 36 37  1  0  0  0  0
 38 41  1  0  0  0  0
 38 36  2  0  0  0  0
 39 34  1  0  0  0  0
M  END
>  <minimizedAffinity>
-7.93903017

$$$$

 OpenBabel03242514313D

 41 45  0  0  0  0  0  0  0  0999 V2000
   39.4590   32.9450   40.9810 Cl  0  0  0  0  0  0  0  0  0  0  0  0
   40.3400   33.0430   39.4680 C   0  0  0  0  0  0  0  0  0  0  0  0
   40.0390   32.1880   38.4630 C   0  0  0  0  0  0  0  0  0  0  0  0
   40.8740   32.2700   37.3650 C   0  0  0  0  0  0  0  0  0  0  0  0
   41.9430   33.1340   37.2410 C   0  0  0  0  0  0  0  0  0  0  0  0
   42.2140   33.9960   38.2890 C   0  0  0  0  0  0  0  0  0  0  0  0
   41.3950   33.9420   39.4110 C   0  0  0  0  0  0  0  0  0  0  0  0
   40.6000   31.5560   36.5690 H   0  0  0  0  0  0  0  0  0  0  0  0
   42.4500   33.0210   36.3020 H   0  0  0  0  0  0  0  0  0  0  0  0
   43.0520   34.6430   38.1310 H   0  0  0  0  0  0  0  0  0  0  0  0
   41.1600   36.0920   40.7790 C   0  0  0  0  0  3  0  0  0  0  0  0
   41.7340   34.8740   40.4780 C   0  0  0  0  0  0  0  0  0  0  0  0
   42.7890   34.4800   41.3120 C   0  0  0  0  0  0  0  0  0  0  0  0
   43.3030   33.5210   41.1440 H   0  0  0  0  0  0  0  0  0  0  0  0
   43.2570   35.2230   42.3740 C   0  0  0  0  0  0  0  0  0  0  0  0
   44.2360   35.0240   43.2720 N   0  0  0  0  0  0  0  0  0  0  0  0
   44.8800   34.1850   43.3330 H   0  0  0  0  0  0  0  0  0  0  0  0
   44.2570   36.0790   44.0890 N   0  0  0  0  0  0  0  0  0  0  0  0
   43.3110   36.9730   43.7460 C   0  0  0  0  0  0  0  0  0  0  0  0
   43.0860   37.9100   44.2080 H   0  0  0  0  0  0  0  0  0  0  0  0
   42.6650   36.4380   42.6510 C   0  0  0  0  0  0  0  0  0  0  0  0
   41.6240   36.8420   41.8390 C   0  0  0  0  0  3  0  0  0  0  0  0
   36.6640   30.6300   38.0990 C   0  0  0  0  0  0  0  0  0  0  0  0
   37.7290   31.5280   37.9230 C   0  0  0  0  0  0  0  0  0  0  0  0
   38.9360   31.2710   38.5590 C   0  0  0  0  0  0  0  0  0  0  0  0
   39.0190   30.1520   39.3150 N   0  0  0  0  0  0  0  0  0  0  0  0
   38.0010   29.2920   39.4780 C   0  0  0  0  0  0  0  0  0  0  0  0
   36.8150   29.5300   38.8710 N   0  0  0  0  0  0  0  0  0  0  0  0
   35.6760   30.7040   37.6740 H   0  0  0  0  0  0  0  0  0  0  0  0
   37.3970   32.2600   37.2610 H   0  0  0  0  0  0  0  0  0  0  0  0
   37.6890   29.5500   42.5040 Cl  0  0  0  0  0  0  0  0  0  0  0  0
   38.0350   28.0740   41.6340 C   0  0  0  0  0  0  0  0  0  0  0  0
   38.1530   28.0750   40.2450 C   0  0  0  0  0  0  0  0  0  0  0  0
   38.4190   26.8750   39.6760 C   0  0  0  0  0  0  0  0  0  0  0  0
   38.5730   25.6920   40.3910 C   0  0  0  0  0  0  0  0  0  0  0  0
   38.4510   25.7220   41.7540 C   0  0  0  0  0  0  0  0  0  0  0  0
   38.6670   24.1640   42.5270 Cl  0  0  0  0  0  0  0  0  0  0  0  0
   38.1840   26.9060   42.3730 C   0  0  0  0  0  0  0  0  0  0  0  0
   38.5140   26.8620   38.5950 H   0  0  0  0  0  0  0  0  0  0  0  0
   38.7850   24.8040   39.8020 H   0  0  0  0  0  0  0  0  0  0  0  0
   38.0980   26.8710   43.4470 H   0  0  0  0  0  0  0  0  0  0  0  0
  2  1  1  0  0  0  0
  3 25  1  0  0  0  0
  3  2  2  0  0  0  0
  4  3  1  0  0  0  0
  5  4  2  0  0  0  0
  5  6  1  0  0  0  0
  6  7  2  0  0  0  0
  7  2  1  0  0  0  0
  7 12  1  0  0  0  0
  8  4  1  0  0  0  0
  9  5  1  0  0  0  0
 10  6  1  0  0  0  0
 11 22  1  0  0  0  0
 12 11  2  0  0  0  0
 12 13  1  0  0  0  0
 13 15  2  0  0  0  0
 14 13  1  0  0  0  0
 15 21  1  0  0  0  0
 15 16  1  0  0  0  0
 16 17  1  0  0  0  0
 16 18  1  0  0  0  0
 19 18  2  0  0  0  0
 19 20  1  0  0  0  0
 21 19  1  0  0  0  0
 22 21  2  0  0  0  0
 23 28  1  0  0  0  0
 24 23  2  0  0  0  0
 24 25  1  0  0  0  0
 25 26  2  0  0  0  0
 26 27  1  0  0  0  0
 27 33  1  0  0  0  0
 28 27  2  0  0  0  0
 29 23  1  0  0  0  0
 30 24  1  0  0  0  0
 32 38  1  0  0  0  0
 32 31  1  0  0  0  0
 33 32  2  0  0  0  0
 34 33  1  0  0  0  0
 34 35  2  0  0  0  0
 35 36  1  0  0  0  0
 36 38  2  0  0  0  0
 36 37  1  0  0  0  0
 38 41  1  0  0  0  0
 39 34  1  0  0  0  0
 40 35  1  0  0  0  0
M  END
>  <minimizedAffinity>
-7.81050634

$$$$

 OpenBabel03242514313D

 41 45  0  0  0  0  0  0  0  0999 V2000
   40.3270   29.9310   41.0540 Cl  0  0  0  0  0  0  0  0  0  0  0  0
   38.9130   30.7660   40.4400 C   0  0  0  0  0  0  0  0  0  0  0  0
   39.0520   31.9870   39.8710 C   0  0  0  0  0  0  0  0  0  0  0  0
   37.8630   32.6060   39.5360 C   0  0  0  0  0  0  0  0  0  0  0  0
   36.6050   32.0760   39.7340 C   0  0  0  0  0  0  0  0  0  0  0  0
   36.5060   30.8220   40.3140 C   0  0  0  0  0  0  0  0  0  0  0  0
   37.6810   30.1690   40.6660 C   0  0  0  0  0  0  0  0  0  0  0  0
   38.0170   33.6000   39.0780 H   0  0  0  0  0  0  0  0  0  0  0  0
   35.8280   32.7340   39.3970 H   0  0  0  0  0  0  0  0  0  0  0  0
   35.5050   30.4650   40.4390 H   0  0  0  0  0  0  0  0  0  0  0  0
   37.4580   28.5190   42.6090 C   0  0  0  0  0  3  0  0  0  0  0  0
   37.5090   28.8560   41.2720 C   0  0  0  0  0  0  0  0  0  0  0  0
   37.3790   27.7880   40.3750 C   0  0  0  0  0  0  0  0  0  0  0  0
   37.4070   27.9670   39.2890 H   0  0  0  0  0  0  0  0  0  0  0  0
   37.2090   26.4730   40.7530 C   0  0  0  0  0  0  0  0  0  0  0  0
   37.0690   25.3310   40.0600 N   0  0  0  0  0  0  0  0  0  0  0  0
   37.0610   25.2240   39.0060 H   0  0  0  0  0  0  0  0  0  0  0  0
   36.9360   24.3370   40.9410 N   0  0  0  0  0  0  0  0  0  0  0  0
   36.9880   24.8020   42.2030 C   0  0  0  0  0  0  0  0  0  0  0  0
   36.9130   24.2510   43.1160 H   0  0  0  0  0  0  0  0  0  0  0  0
   37.1620   26.1660   42.0970 C   0  0  0  0  0  0  0  0  0  0  0  0
   37.2890   27.2060   42.9950 C   0  0  0  0  0  3  0  0  0  0  0  0
   42.3090   32.9400   38.3120 C   0  0  0  0  0  0  0  0  0  0  0  0
   41.0220   32.3980   38.4520 C   0  0  0  0  0  0  0  0  0  0  0  0
   40.3460   32.5730   39.6520 C   0  0  0  0  0  0  0  0  0  0  0  0
   40.9720   33.2720   40.6260 N   0  0  0  0  0  0  0  0  0  0  0  0
   42.2020   33.7940   40.4890 C   0  0  0  0  0  0  0  0  0  0  0  0
   42.8780   33.6280   39.3280 N   0  0  0  0  0  0  0  0  0  0  0  0
   42.9490   32.8780   37.4460 H   0  0  0  0  0  0  0  0  0  0  0  0
   40.7800   31.9610   37.5380 H   0  0  0  0  0  0  0  0  0  0  0  0
   41.0060   36.5650   40.9520 Cl  0  0  0  0  0  0  0  0  0  0  0  0
   42.3470   35.8700   41.8320 C   0  0  0  0  0  0  0  0  0  0  0  0
   42.8080   34.5880   41.5350 C   0  0  0  0  0  0  0  0  0  0  0  0
   43.8500   34.1490   42.2820 C   0  0  0  0  0  0  0  0  0  0  0  0
   44.4520   34.8930   43.2910 C   0  0  0  0  0  0  0  0  0  0  0  0
   43.9770   36.1490   43.5600 C   0  0  0  0  0  0  0  0  0  0  0  0
   44.8250   36.9740   44.8530 Cl  0  0  0  0  0  0  0  0  0  0  0  0
   42.9310   36.6350   42.8360 C   0  0  0  0  0  0  0  0  0  0  0  0
   44.2190   33.1530   42.0600 H   0  0  0  0  0  0  0  0  0  0  0  0
   45.2780   34.4140   43.8070 H   0  0  0  0  0  0  0  0  0  0  0  0
   42.5980   37.6280   43.0910 H   0  0  0  0  0  0  0  0  0  0  0  0
  2  7  1  0  0  0  0
  2  1  1  0  0  0  0
  3  2  2  0  0  0  0
  4  5  2  0  0  0  0
  4  3  1  0  0  0  0
  5  6  1  0  0  0  0
  6 10  1  0  0  0  0
  6  7  2  0  0  0  0
  7 12  1  0  0  0  0
  8  4  1  0  0  0  0
  9  5  1  0  0  0  0
 11 22  1  0  0  0  0
 12 11  2  0  0  0  0
 13 15  2  0  0  0  0
 13 12  1  0  0  0  0
 14 13  1  0  0  0  0
 15 21  1  0  0  0  0
 16 15  1  0  0  0  0
 16 18  1  0  0  0  0
 17 16  1  0  0  0  0
 18 19  2  0  0  0  0
 19 20  1  0  0  0  0
 21 19  1  0  0  0  0
 21 22  2  0  0  0  0
 23 24  2  0  0  0  0
 23 28  1  0  0  0  0
 24 25  1  0  0  0  0
 25  3  1  0  0  0  0
 25 26  2  0  0  0  0
 27 26  1  0  0  0  0
 27 33  1  0  0  0  0
 28 27  2  0  0  0  0
 29 23  1  0  0  0  0
 30 24  1  0  0  0  0
 31 32  1  0  0  0  0
 32 38  1  0  0  0  0
 33 32  2  0  0  0  0
 33 34  1  0  0  0  0
 34 35  2  0  0  0  0
 35 36  1  0  0  0  0
 35 40  1  0  0  0  0
 36 37  1  0  0  0  0
 38 41  1  0  0  0  0
 38 36  2  0  0  0  0
 39 34  1  0  0  0  0
M  END
>  <minimizedAffinity>
-7.52396202

$$$$

 OpenBabel03242514313D

 41 45  0  0  0  0  0  0  0  0999 V2000
   39.7690   28.7590   39.7240 Cl  0  0  0  0  0  0  0  0  0  0  0  0
   38.2300   29.5340   40.0460 C   0  0  0  0  0  0  0  0  0  0  0  0
   38.1150   30.8750   39.9030 C   0  0  0  0  0  0  0  0  0  0  0  0
   36.8980   31.3960   40.3000 C   0  0  0  0  0  0  0  0  0  0  0  0
   35.8460   30.6620   40.8080 C   0  0  0  0  0  0  0  0  0  0  0  0
   36.0020   29.2930   40.9340 C   0  0  0  0  0  0  0  0  0  0  0  0
   37.2130   28.7330   40.5440 C   0  0  0  0  0  0  0  0  0  0  0  0
   36.8430   32.4920   40.1710 H   0  0  0  0  0  0  0  0  0  0  0  0
   35.0010   31.2780   41.0500 H   0  0  0  0  0  0  0  0  0  0  0  0
   35.1500   28.7800   41.3300 H   0  0  0  0  0  0  0  0  0  0  0  0
   37.7820   26.5680   41.7830 C   0  0  0  0  0  3  0  0  0  0  0  0
   37.3140   27.2890   40.7040 C   0  0  0  0  0  0  0  0  0  0  0  0
   36.8790   26.5280   39.6110 C   0  0  0  0  0  0  0  0  0  0  0  0
   36.4890   27.0230   38.7090 H   0  0  0  0  0  0  0  0  0  0  0  0
   36.8960   25.1500   39.5690 C   0  0  0  0  0  0  0  0  0  0  0  0
   36.5300   24.2570   38.6350 N   0  0  0  0  0  0  0  0  0  0  0  0
   36.1270   24.4680   37.6790 H   0  0  0  0  0  0  0  0  0  0  0  0
   36.7660   23.0390   39.1270 N   0  0  0  0  0  0  0  0  0  0  0  0
   37.2810   23.1110   40.3680 C   0  0  0  0  0  0  0  0  0  0  0  0
   37.5700   22.3090   41.0130 H   0  0  0  0  0  0  0  0  0  0  0  0
   37.3700   24.4560   40.6620 C   0  0  0  0  0  0  0  0  0  0  0  0
   37.8030   25.1890   41.7480 C   0  0  0  0  0  3  0  0  0  0  0  0
   40.6510   32.3600   37.5980 C   0  0  0  0  0  0  0  0  0  0  0  0
   39.5530   31.6070   38.0420 C   0  0  0  0  0  0  0  0  0  0  0  0
   39.1910   31.6730   39.3810 C   0  0  0  0  0  0  0  0  0  0  0  0
   39.9220   32.4760   40.1880 N   0  0  0  0  0  0  0  0  0  0  0  0
   40.9690   33.2000   39.7600 C   0  0  0  0  0  0  0  0  0  0  0  0
   41.3400   33.1430   38.4590 N   0  0  0  0  0  0  0  0  0  0  0  0
   41.0460   32.4030   36.5950 H   0  0  0  0  0  0  0  0  0  0  0  0
   39.1590   31.1290   37.2050 H   0  0  0  0  0  0  0  0  0  0  0  0
   39.8720   36.0390   39.9930 Cl  0  0  0  0  0  0  0  0  0  0  0  0
   41.2750   35.4140   40.8260 C   0  0  0  0  0  0  0  0  0  0  0  0
   41.6840   34.0930   40.6440 C   0  0  0  0  0  0  0  0  0  0  0  0
   42.7820   33.7150   41.3420 C   0  0  0  0  0  0  0  0  0  0  0  0
   43.4880   34.5550   42.1970 C   0  0  0  0  0  0  0  0  0  0  0  0
   43.0630   35.8470   42.3550 C   0  0  0  0  0  0  0  0  0  0  0  0
   44.0420   36.7930   43.4590 Cl  0  0  0  0  0  0  0  0  0  0  0  0
   41.9630   36.2750   41.6740 C   0  0  0  0  0  0  0  0  0  0  0  0
   43.1100   32.6900   41.2100 H   0  0  0  0  0  0  0  0  0  0  0  0
   44.3500   34.1170   42.6910 H   0  0  0  0  0  0  0  0  0  0  0  0
   41.6730   37.3000   41.8370 H   0  0  0  0  0  0  0  0  0  0  0  0
  1  2  1  0  0  0  0
  2  7  1  0  0  0  0
  3  2  2  0  0  0  0
  3  4  1  0  0  0  0
  4  5  2  0  0  0  0
  5  6  1  0  0  0  0
  5  9  1  0  0  0  0
  6 10  1  0  0  0  0
  7 12  1  0  0  0  0
  7  6  2  0  0  0  0
  8  4  1  0  0  0  0
 12 11  2  0  0  0  0
 13 12  1  0  0  0  0
 14 13  1  0  0  0  0
 15 13  2  0  0  0  0
 15 21  1  0  0  0  0
 16 18  1  0  0  0  0
 16 15  1  0  0  0  0
 17 16  1  0  0  0  0
 18 19  2  0  0  0  0
 19 21  1  0  0  0  0
 19 20  1  0  0  0  0
 21 22  2  0  0  0  0
 22 11  1  0  0  0  0
 23 24  2  0  0  0  0
 23 28  1  0  0  0  0
 24 25  1  0  0  0  0
 25  3  1  0  0  0  0
 25 26  2  0  0  0  0
 27 26  1  0  0  0  0
 27 33  1  0  0  0  0
 28 27  2  0  0  0  0
 29 23  1  0  0  0  0
 30 24  1  0  0  0  0
 31 32  1  0  0  0  0
 32 38  1  0  0  0  0
 33 32  2  0  0  0  0
 33 34  1  0  0  0  0
 34 35  2  0  0  0  0
 35 36  1  0  0  0  0
 35 40  1  0  0  0  0
 36 37  1  0  0  0  0
 38 41  1  0  0  0  0
 38 36  2  0  0  0  0
 39 34  1  0  0  0  0
M  END
>  <minimizedAffinity>
-7.34019852

$$$$

 OpenBabel03242514313D

 41 45  0  0  0  0  0  0  0  0999 V2000
   36.7180   30.6650   37.6610 Cl  0  0  0  0  0  0  0  0  0  0  0  0
   36.6860   29.8300   39.2030 C   0  0  0  0  0  0  0  0  0  0  0  0
   35.7940   28.8320   39.4030 C   0  0  0  0  0  0  0  0  0  0  0  0
   35.7700   28.3280   40.6900 C   0  0  0  0  0  0  0  0  0  0  0  0
   36.5670   28.7620   41.7290 C   0  0  0  0  0  0  0  0  0  0  0  0
   37.4700   29.7810   41.4810 C   0  0  0  0  0  0  0  0  0  0  0  0
   37.5220   30.3140   40.1990 C   0  0  0  0  0  0  0  0  0  0  0  0
   35.0290   27.5180   40.8150 H   0  0  0  0  0  0  0  0  0  0  0  0
   36.3760   28.2260   42.6390 H   0  0  0  0  0  0  0  0  0  0  0  0
   38.0610   30.0710   42.3260 H   0  0  0  0  0  0  0  0  0  0  0  0
   39.6420   31.3810   39.2450 C   0  0  0  0  0  3  0  0  0  0  0  0
   38.4910   31.3840   40.0040 C   0  0  0  0  0  0  0  0  0  0  0  0
   38.2170   32.5770   40.6830 C   0  0  0  0  0  0  0  0  0  0  0  0
   37.3180   32.6670   41.3120 H   0  0  0  0  0  0  0  0  0  0  0  0
   39.0130   33.7020   40.6280 C   0  0  0  0  0  0  0  0  0  0  0  0
   38.9240   34.9170   41.1940 N   0  0  0  0  0  0  0  0  0  0  0  0
   38.1600   35.2620   41.8410 H   0  0  0  0  0  0  0  0  0  0  0  0
   39.9810   35.6270   40.7940 N   0  0  0  0  0  0  0  0  0  0  0  0
   40.7670   34.9040   39.9750 C   0  0  0  0  0  0  0  0  0  0  0  0
   41.6770   35.1980   39.4990 H   0  0  0  0  0  0  0  0  0  0  0  0
   40.1590   33.6700   39.8610 C   0  0  0  0  0  0  0  0  0  0  0  0
   40.4440   32.5020   39.1850 C   0  0  0  0  0  3  0  0  0  0  0  0
   34.2140   26.6510   36.8160 C   0  0  0  0  0  0  0  0  0  0  0  0
   35.0230   27.0460   37.8920 C   0  0  0  0  0  0  0  0  0  0  0  0
   34.9440   28.3560   38.3450 C   0  0  0  0  0  0  0  0  0  0  0  0
   34.0750   29.1840   37.7200 N   0  0  0  0  0  0  0  0  0  0  0  0
   33.2990   28.8020   36.6930 C   0  0  0  0  0  0  0  0  0  0  0  0
   33.3670   27.5300   36.2340 N   0  0  0  0  0  0  0  0  0  0  0  0
   34.1730   25.6750   36.3580 H   0  0  0  0  0  0  0  0  0  0  0  0
   35.5470   26.2000   38.2000 H   0  0  0  0  0  0  0  0  0  0  0  0
   31.0940   29.8470   38.5280 Cl  0  0  0  0  0  0  0  0  0  0  0  0
   31.2870   30.2390   36.8360 C   0  0  0  0  0  0  0  0  0  0  0  0
   32.3390   29.7030   36.0940 C   0  0  0  0  0  0  0  0  0  0  0  0
   32.3940   30.0780   34.7930 C   0  0  0  0  0  0  0  0  0  0  0  0
   31.4820   30.9400   34.1940 C   0  0  0  0  0  0  0  0  0  0  0  0
   30.4590   31.4510   34.9480 C   0  0  0  0  0  0  0  0  0  0  0  0
   29.3870   32.5220   34.0680 Cl  0  0  0  0  0  0  0  0  0  0  0  0
   30.3620   31.1040   36.2610 C   0  0  0  0  0  0  0  0  0  0  0  0
   33.2070   29.6670   34.2050 H   0  0  0  0  0  0  0  0  0  0  0  0
   31.6490   31.1530   33.1420 H   0  0  0  0  0  0  0  0  0  0  0  0
   29.5390   31.5360   36.8060 H   0  0  0  0  0  0  0  0  0  0  0  0
  1  2  1  0  0  0  0
  2  3  2  0  0  0  0
  2  7  1  0  0  0  0
  3  4  1  0  0  0  0
  4  8  1  0  0  0  0
  4  5  2  0  0  0  0
  5  9  1  0  0  0  0
  6  5  1  0  0  0  0
  6 10  1  0  0  0  0
  7  6  2  0  0  0  0
 11 12  1  0  0  0  0
 12  7  1  0  0  0  0
 12 13  2  0  0  0  0
 13 14  1  0  0  0  0
 15 13  1  0  0  0  0
 15 16  1  0  0  0  0
 16 17  1  0  0  0  0
 18 16  1  0  0  0  0
 19 18  2  0  0  0  0
 20 19  1  0  0  0  0
 21 19  1  0  0  0  0
 21 15  2  0  0  0  0
 22 11  2  0  0  0  0
 22 21  1  0  0  0  0
 23 24  1  0  0  0  0
 24 30  1  0  0  0  0
 24 25  2  0  0  0  0
 25  3  1  0  0  0  0
 26 25  1  0  0  0  0
 27 26  2  0  0  0  0
 28 27  1  0  0  0  0
 28 23  2  0  0  0  0
 29 23  1  0  0  0  0
 32 31  1  0  0  0  0
 33 27  1  0  0  0  0
 33 32  2  0  0  0  0
 34 33  1  0  0  0  0
 35 34  2  0  0  0  0
 35 36  1  0  0  0  0
 36 38  2  0  0  0  0
 37 36  1  0  0  0  0
 38 41  1  0  0  0  0
 38 32  1  0  0  0  0
 39 34  1  0  0  0  0
 40 35  1  0  0  0  0
M  END
>  <minimizedAffinity>
-7.32238817

$$$$

 OpenBabel03242514313D

 41 45  0  0  0  0  0  0  0  0999 V2000
   37.8060   28.3770   39.1710 Cl  0  0  0  0  0  0  0  0  0  0  0  0
   37.6040   28.3470   40.9130 C   0  0  0  0  0  0  0  0  0  0  0  0
   37.7950   29.4820   41.6270 C   0  0  0  0  0  0  0  0  0  0  0  0
   37.7330   29.3190   42.9970 C   0  0  0  0  0  0  0  0  0  0  0  0
   37.4960   28.1260   43.6470 C   0  0  0  0  0  0  0  0  0  0  0  0
   37.3000   26.9890   42.8810 C   0  0  0  0  0  0  0  0  0  0  0  0
   37.3560   27.1140   41.4980 C   0  0  0  0  0  0  0  0  0  0  0  0
   37.8960   30.2650   43.5450 H   0  0  0  0  0  0  0  0  0  0  0  0
   37.4920   28.2380   44.7140 H   0  0  0  0  0  0  0  0  0  0  0  0
   37.1180   26.0960   43.4430 H   0  0  0  0  0  0  0  0  0  0  0  0
   36.3880   25.6790   39.6140 C   0  0  0  0  0  3  0  0  0  0  0  0
   37.1440   25.8830   40.7500 C   0  0  0  0  0  0  0  0  0  0  0  0
   37.7950   24.7500   41.2540 C   0  0  0  0  0  0  0  0  0  0  0  0
   38.4200   24.8230   42.1570 H   0  0  0  0  0  0  0  0  0  0  0  0
   37.7170   23.4950   40.6890 C   0  0  0  0  0  0  0  0  0  0  0  0
   38.2550   22.3070   41.0150 N   0  0  0  0  0  0  0  0  0  0  0  0
   38.8920   22.1030   41.8350 H   0  0  0  0  0  0  0  0  0  0  0  0
   37.8430   21.4150   40.1110 N   0  0  0  0  0  0  0  0  0  0  0  0
   37.0420   21.9910   39.1960 C   0  0  0  0  0  0  0  0  0  0  0  0
   36.5610   21.5360   38.3560 H   0  0  0  0  0  0  0  0  0  0  0  0
   36.9530   23.3210   39.5540 C   0  0  0  0  0  0  0  0  0  0  0  0
   36.3050   24.4260   39.0430 C   0  0  0  0  0  3  0  0  0  0  0  0
   37.3090   32.7450   39.8770 C   0  0  0  0  0  0  0  0  0  0  0  0
   37.0070   31.5540   40.5530 C   0  0  0  0  0  0  0  0  0  0  0  0
   38.0480   30.7430   40.9840 C   0  0  0  0  0  0  0  0  0  0  0  0
   39.3110   31.1590   40.7310 N   0  0  0  0  0  0  0  0  0  0  0  0
   39.5980   32.3020   40.0880 C   0  0  0  0  0  0  0  0  0  0  0  0
   38.5950   33.1010   39.6550 N   0  0  0  0  0  0  0  0  0  0  0  0
   36.6090   33.4650   39.4830 H   0  0  0  0  0  0  0  0  0  0  0  0
   35.9700   31.5170   40.6460 H   0  0  0  0  0  0  0  0  0  0  0  0
   40.8360   31.7030   37.3620 Cl  0  0  0  0  0  0  0  0  0  0  0  0
   41.6310   32.5150   38.6890 C   0  0  0  0  0  0  0  0  0  0  0  0
   40.9630   32.7380   39.8930 C   0  0  0  0  0  0  0  0  0  0  0  0
   41.6750   33.3800   40.8520 C   0  0  0  0  0  0  0  0  0  0  0  0
   42.9880   33.8070   40.6900 C   0  0  0  0  0  0  0  0  0  0  0  0
   43.6180   33.5730   39.4970 C   0  0  0  0  0  0  0  0  0  0  0  0
   45.2670   34.1640   39.4300 Cl  0  0  0  0  0  0  0  0  0  0  0  0
   42.9440   32.9320   38.5020 C   0  0  0  0  0  0  0  0  0  0  0  0
   41.1670   33.5590   41.7930 H   0  0  0  0  0  0  0  0  0  0  0  0
   43.4340   34.3080   41.5440 H   0  0  0  0  0  0  0  0  0  0  0  0
   43.4880   32.7760   37.5850 H   0  0  0  0  0  0  0  0  0  0  0  0
  1  2  1  0  0  0  0
  2  7  2  0  0  0  0
  2  3  1  0  0  0  0
  3  4  2  0  0  0  0
  4  8  1  0  0  0  0
  4  5  1  0  0  0  0
  5  9  1  0  0  0  0
  6 10  1  0  0  0  0
  6  5  2  0  0  0  0
  7  6  1  0  0  0  0
 11 12  1  0  0  0  0
 12 13  2  0  0  0  0
 12  7  1  0  0  0  0
 13 14  1  0  0  0  0
 15 16  1  0  0  0  0
 15 13  1  0  0  0  0
 16 17  1  0  0  0  0
 18 16  1  0  0  0  0
 19 21  1  0  0  0  0
 19 18  2  0  0  0  0
 20 19  1  0  0  0  0
 21 15  2  0  0  0  0
 22 21  1  0  0  0  0
 22 11  2  0  0  0  0
 23 24  1  0  0  0  0
 24 30  1  0  0  0  0
 24 25  2  0  0  0  0
 25  3  1  0  0  0  0
 26 25  1  0  0  0  0
 27 26  2  0  0  0  0
 28 23  2  0  0  0  0
 28 27  1  0  0  0  0
 29 23  1  0  0  0  0
 31 32  1  0  0  0  0
 32 33  1  0  0  0  0
 33 27  1  0  0  0  0
 33 34  2  0  0  0  0
 34 39  1  0  0  0  0
 35 34  1  0  0  0  0
 35 40  1  0  0  0  0
 36 35  2  0  0  0  0
 37 36  1  0  0  0  0
 38 32  2  0  0  0  0
 38 36  1  0  0  0  0
 41 38  1  0  0  0  0
M  END
>  <minimizedAffinity>
-7.20583963

$$$$

 OpenBabel03242514313D

 41 45  0  0  0  0  0  0  0  0999 V2000
   38.4900   29.5580   37.4670 Cl  0  0  0  0  0  0  0  0  0  0  0  0
   37.5350   30.1920   38.7950 C   0  0  0  0  0  0  0  0  0  0  0  0
   37.9750   31.2760   39.4760 C   0  0  0  0  0  0  0  0  0  0  0  0
   37.2120   31.6150   40.5770 C   0  0  0  0  0  0  0  0  0  0  0  0
   36.0810   30.9450   40.9980 C   0  0  0  0  0  0  0  0  0  0  0  0
   35.6620   29.8450   40.2710 C   0  0  0  0  0  0  0  0  0  0  0  0
   36.4050   29.4730   39.1570 C   0  0  0  0  0  0  0  0  0  0  0  0
   37.6030   32.5010   41.1080 H   0  0  0  0  0  0  0  0  0  0  0  0
   35.6520   31.3860   41.8770 H   0  0  0  0  0  0  0  0  0  0  0  0
   34.7780   29.3710   40.6460 H   0  0  0  0  0  0  0  0  0  0  0  0
   35.1210   28.2580   37.3080 C   0  0  0  0  0  3  0  0  0  0  0  0
   35.9130   28.3070   38.4370 C   0  0  0  0  0  0  0  0  0  0  0  0
   36.2920   27.0660   38.9630 C   0  0  0  0  0  0  0  0  0  0  0  0
   36.9250   27.0140   39.8620 H   0  0  0  0  0  0  0  0  0  0  0  0
   35.9270   25.8500   38.4270 C   0  0  0  0  0  0  0  0  0  0  0  0
   36.1830   24.5790   38.7770 N   0  0  0  0  0  0  0  0  0  0  0  0
   36.7630   24.2520   39.5990 H   0  0  0  0  0  0  0  0  0  0  0  0
   35.5710   23.7860   37.8940 N   0  0  0  0  0  0  0  0  0  0  0  0
   34.9150   24.5100   36.9690 C   0  0  0  0  0  0  0  0  0  0  0  0
   34.3370   24.1590   36.1410 H   0  0  0  0  0  0  0  0  0  0  0  0
   35.1340   25.8310   37.2980 C   0  0  0  0  0  0  0  0  0  0  0  0
   34.7500   27.0450   36.7650 C   0  0  0  0  0  3  0  0  0  0  0  0
   40.8440   32.5540   37.4540 C   0  0  0  0  0  0  0  0  0  0  0  0
   39.6580   31.8770   37.7820 C   0  0  0  0  0  0  0  0  0  0  0  0
   39.1510   31.9960   39.0690 C   0  0  0  0  0  0  0  0  0  0  0  0
   39.8330   32.7740   39.9410 N   0  0  0  0  0  0  0  0  0  0  0  0
   40.9640   33.4240   39.6240 C   0  0  0  0  0  0  0  0  0  0  0  0
   41.4770   33.3150   38.3760 N   0  0  0  0  0  0  0  0  0  0  0  0
   41.3530   32.5490   36.5030 H   0  0  0  0  0  0  0  0  0  0  0  0
   39.3350   31.4030   36.9130 H   0  0  0  0  0  0  0  0  0  0  0  0
   39.7700   36.2130   39.9640 Cl  0  0  0  0  0  0  0  0  0  0  0  0
   41.1710   35.5920   40.8040 C   0  0  0  0  0  0  0  0  0  0  0  0
   41.6270   34.2950   40.5700 C   0  0  0  0  0  0  0  0  0  0  0  0
   42.7180   33.9170   41.2790 C   0  0  0  0  0  0  0  0  0  0  0  0
   43.3740   34.7360   42.1920 C   0  0  0  0  0  0  0  0  0  0  0  0
   42.9030   36.0050   42.4000 C   0  0  0  0  0  0  0  0  0  0  0  0
   43.8220   36.9250   43.5750 Cl  0  0  0  0  0  0  0  0  0  0  0  0
   41.8080   36.4310   41.7110 C   0  0  0  0  0  0  0  0  0  0  0  0
   43.0830   32.9100   41.1050 H   0  0  0  0  0  0  0  0  0  0  0  0
   44.2370   34.3000   42.6870 H   0  0  0  0  0  0  0  0  0  0  0  0
   41.4810   37.4370   41.9150 H   0  0  0  0  0  0  0  0  0  0  0  0
  1  2  1  0  0  0  0
  2  7  2  0  0  0  0
  2  3  1  0  0  0  0
  3  4  2  0  0  0  0
  4  5  1  0  0  0  0
  4  8  1  0  0  0  0
  5  9  1  0  0  0  0
  6 10  1  0  0  0  0
  6  5  2  0  0  0  0
  7  6  1  0  0  0  0
 11 12  1  0  0  0  0
 12 13  2  0  0  0  0
 12  7  1  0  0  0  0
 13 14  1  0  0  0  0
 15 16  1  0  0  0  0
 15 13  1  0  0  0  0
 16 17  1  0  0  0  0
 18 16  1  0  0  0  0
 19 21  1  0  0  0  0
 19 18  2  0  0  0  0
 20 19  1  0  0  0  0
 21 15  2  0  0  0  0
 22 21  1  0  0  0  0
 22 11  2  0  0  0  0
 23 24  2  0  0  0  0
 23 28  1  0  0  0  0
 24 25  1  0  0  0  0
 25  3  1  0  0  0  0
 25 26  2  0  0  0  0
 27 26  1  0  0  0  0
 27 33  1  0  0  0  0
 28 27  2  0  0  0  0
 29 23  1  0  0  0  0
 30 24  1  0  0  0  0
 31 32  1  0  0  0  0
 32 38  1  0  0  0  0
 33 32  2  0  0  0  0
 33 34  1  0  0  0  0
 34 35  2  0  0  0  0
 35 36  1  0  0  0  0
 35 40  1  0  0  0  0
 36 37  1  0  0  0  0
 38 41  1  0  0  0  0
 38 36  2  0  0  0  0
 39 34  1  0  0  0  0
M  END
>  <minimizedAffinity>
-7.1840167

$$$$

 OpenBabel03242514313D

 41 45  0  0  0  0  0  0  0  0999 V2000
   41.0230   31.3520   40.0250 Cl  0  0  0  0  0  0  0  0  0  0  0  0
   40.1920   32.8890   40.1770 C   0  0  0  0  0  0  0  0  0  0  0  0
   38.8530   32.9070   40.3770 C   0  0  0  0  0  0  0  0  0  0  0  0
   38.2840   34.1660   40.3570 C   0  0  0  0  0  0  0  0  0  0  0  0
   38.9690   35.3460   40.1580 C   0  0  0  0  0  0  0  0  0  0  0  0
   40.3380   35.2850   39.9620 C   0  0  0  0  0  0  0  0  0  0  0  0
   40.9460   34.0350   39.9740 C   0  0  0  0  0  0  0  0  0  0  0  0
   37.1910   34.1400   40.5210 H   0  0  0  0  0  0  0  0  0  0  0  0
   38.3210   36.2010   40.1820 H   0  0  0  0  0  0  0  0  0  0  0  0
   40.8120   36.2340   39.8160 H   0  0  0  0  0  0  0  0  0  0  0  0
   43.3980   34.2290   40.6800 C   0  0  0  0  0  3  0  0  0  0  0  0
   42.3870   34.0390   39.7610 C   0  0  0  0  0  0  0  0  0  0  0  0
   42.8030   33.8220   38.4410 C   0  0  0  0  0  0  0  0  0  0  0  0
   42.0620   33.6600   37.6440 H   0  0  0  0  0  0  0  0  0  0  0  0
   44.1210   33.7910   38.0380 C   0  0  0  0  0  0  0  0  0  0  0  0
   44.7110   33.6020   36.8460 N   0  0  0  0  0  0  0  0  0  0  0  0
   44.2290   33.4260   35.9200 H   0  0  0  0  0  0  0  0  0  0  0  0
   46.0310   33.6730   37.0330 N   0  0  0  0  0  0  0  0  0  0  0  0
   46.3230   33.9070   38.3260 C   0  0  0  0  0  0  0  0  0  0  0  0
   47.2850   34.0150   38.7790 H   0  0  0  0  0  0  0  0  0  0  0  0
   45.1100   33.9850   38.9790 C   0  0  0  0  0  0  0  0  0  0  0  0
   44.7190   34.2000   40.2850 C   0  0  0  0  0  3  0  0  0  0  0  0
   37.5060   29.7720   41.8960 C   0  0  0  0  0  0  0  0  0  0  0  0
   38.2100   30.9800   41.7690 C   0  0  0  0  0  0  0  0  0  0  0  0
   38.1050   31.6960   40.5840 C   0  0  0  0  0  0  0  0  0  0  0  0
   37.3140   31.1870   39.6130 N   0  0  0  0  0  0  0  0  0  0  0  0
   36.6370   30.0350   39.7380 C   0  0  0  0  0  0  0  0  0  0  0  0
   36.7320   29.3190   40.8830 N   0  0  0  0  0  0  0  0  0  0  0  0
   37.4980   29.1120   42.7490 H   0  0  0  0  0  0  0  0  0  0  0  0
   38.6900   31.1430   42.6790 H   0  0  0  0  0  0  0  0  0  0  0  0
   37.6920   30.2120   36.8790 Cl  0  0  0  0  0  0  0  0  0  0  0  0
   36.1280   29.5950   37.3550 C   0  0  0  0  0  0  0  0  0  0  0  0
   35.7530   29.5590   38.6970 C   0  0  0  0  0  0  0  0  0  0  0  0
   34.5200   29.0570   38.9510 C   0  0  0  0  0  0  0  0  0  0  0  0
   33.6510   28.5950   37.9680 C   0  0  0  0  0  0  0  0  0  0  0  0
   34.0470   28.6440   36.6580 C   0  0  0  0  0  0  0  0  0  0  0  0
   32.8570   28.0310   35.5270 Cl  0  0  0  0  0  0  0  0  0  0  0  0
   35.2780   29.1400   36.3530 C   0  0  0  0  0  0  0  0  0  0  0  0
   34.2160   29.0240   39.9920 H   0  0  0  0  0  0  0  0  0  0  0  0
   32.6930   28.2200   38.3180 H   0  0  0  0  0  0  0  0  0  0  0  0
   35.5380   29.1530   35.3070 H   0  0  0  0  0  0  0  0  0  0  0  0
  1  2  1  0  0  0  0
  2  3  1  0  0  0  0
  3 25  1  0  0  0  0
  4  3  2  0  0  0  0
  4  8  1  0  0  0  0
  5  9  1  0  0  0  0
  5  4  1  0  0  0  0
  6  7  1  0  0  0  0
  6  5  2  0  0  0  0
  7  2  2  0  0  0  0
 10  6  1  0  0  0  0
 12  7  1  0  0  0  0
 12 11  2  0  0  0  0
 13 12  1  0  0  0  0
 14 13  1  0  0  0  0
 15 13  2  0  0  0  0
 15 21  1  0  0  0  0
 16 18  1  0  0  0  0
 16 15  1  0  0  0  0
 17 16  1  0  0  0  0
 18 19  2  0  0  0  0
 19 20  1  0  0  0  0
 19 21  1  0  0  0  0
 21 22  2  0  0  0  0
 22 11  1  0  0  0  0
 23 29  1  0  0  0  0
 24 23  1  0  0  0  0
 24 30  1  0  0  0  0
 25 24  2  0  0  0  0
 26 27  2  0  0  0  0
 26 25  1  0  0  0  0
 27 28  1  0  0  0  0
 28 23  2  0  0  0  0
 31 32  1  0  0  0  0
 32 33  1  0  0  0  0
 33 34  2  0  0  0  0
 33 27  1  0  0  0  0
 34 39  1  0  0  0  0
 35 40  1  0  0  0  0
 35 34  1  0  0  0  0
 36 35  2  0  0  0  0
 37 36  1  0  0  0  0
 38 36  1  0  0  0  0
 38 32  2  0  0  0  0
 41 38  1  0  0  0  0
M  END
>  <minimizedAffinity>
-7.07793999

$$$$

 OpenBabel03242514313D

 41 45  0  0  0  0  0  0  0  0999 V2000
   38.6530   30.2320   41.4490 Cl  0  0  0  0  0  0  0  0  0  0  0  0
   37.7780   30.1370   39.9330 C   0  0  0  0  0  0  0  0  0  0  0  0
   37.7020   31.2280   39.1360 C   0  0  0  0  0  0  0  0  0  0  0  0
   36.8870   31.0800   38.0300 C   0  0  0  0  0  0  0  0  0  0  0  0
   36.1840   29.9380   37.7070 C   0  0  0  0  0  0  0  0  0  0  0  0
   36.2920   28.8420   38.5450 C   0  0  0  0  0  0  0  0  0  0  0  0
   37.1030   28.9540   39.6680 C   0  0  0  0  0  0  0  0  0  0  0  0
   36.8480   31.9910   37.4060 H   0  0  0  0  0  0  0  0  0  0  0  0
   35.6160   30.0520   36.8030 H   0  0  0  0  0  0  0  0  0  0  0  0
   35.7260   27.9860   38.2390 H   0  0  0  0  0  0  0  0  0  0  0  0
   36.7820   27.6130   41.8230 C   0  0  0  0  0  3  0  0  0  0  0  0
   37.1740   27.7670   40.5090 C   0  0  0  0  0  0  0  0  0  0  0  0
   37.7150   26.6270   39.9020 C   0  0  0  0  0  0  0  0  0  0  0  0
   38.0530   26.6620   38.8550 H   0  0  0  0  0  0  0  0  0  0  0  0
   37.8670   25.4100   40.5320 C   0  0  0  0  0  0  0  0  0  0  0  0
   38.3540   24.2240   40.1300 N   0  0  0  0  0  0  0  0  0  0  0  0
   38.7420   23.9890   39.1740 H   0  0  0  0  0  0  0  0  0  0  0  0
   38.2610   23.3800   41.1600 N   0  0  0  0  0  0  0  0  0  0  0  0
   37.7230   23.9860   42.2340 C   0  0  0  0  0  0  0  0  0  0  0  0
   37.5250   23.5720   43.1990 H   0  0  0  0  0  0  0  0  0  0  0  0
   37.4670   25.2850   41.8460 C   0  0  0  0  0  0  0  0  0  0  0  0
   36.9310   26.3990   42.4600 C   0  0  0  0  0  3  0  0  0  0  0  0
   38.5020   34.7180   40.1970 C   0  0  0  0  0  0  0  0  0  0  0  0
   37.7680   33.5430   39.9740 C   0  0  0  0  0  0  0  0  0  0  0  0
   38.4180   32.4370   39.4430 C   0  0  0  0  0  0  0  0  0  0  0  0
   39.7390   32.5550   39.1760 N   0  0  0  0  0  0  0  0  0  0  0  0
   40.4390   33.6790   39.3960 C   0  0  0  0  0  0  0  0  0  0  0  0
   39.8220   34.7690   39.9070 N   0  0  0  0  0  0  0  0  0  0  0  0
   38.1310   35.6500   40.5970 H   0  0  0  0  0  0  0  0  0  0  0  0
   36.8000   33.7260   40.3120 H   0  0  0  0  0  0  0  0  0  0  0  0
   42.2400   32.6650   41.6430 Cl  0  0  0  0  0  0  0  0  0  0  0  0
   42.7820   33.3090   40.1110 C   0  0  0  0  0  0  0  0  0  0  0  0
   41.8650   33.7420   39.1540 C   0  0  0  0  0  0  0  0  0  0  0  0
   42.3960   34.2190   38.0020 C   0  0  0  0  0  0  0  0  0  0  0  0
   43.7610   34.2920   37.7470 C   0  0  0  0  0  0  0  0  0  0  0  0
   44.6370   33.8600   38.7060 C   0  0  0  0  0  0  0  0  0  0  0  0
   46.3240   34.0080   38.2540 Cl  0  0  0  0  0  0  0  0  0  0  0  0
   44.1520   33.3710   39.8810 C   0  0  0  0  0  0  0  0  0  0  0  0
   41.6920   34.5590   37.2500 H   0  0  0  0  0  0  0  0  0  0  0  0
   44.0430   34.6980   36.7800 H   0  0  0  0  0  0  0  0  0  0  0  0
   44.8860   33.0450   40.5990 H   0  0  0  0  0  0  0  0  0  0  0  0
  2  1  1  0  0  0  0
  3 25  1  0  0  0  0
  3  2  2  0  0  0  0
  4  3  1  0  0  0  0
  5  4  2  0  0  0  0
  5  6  1  0  0  0  0
  6  7  2  0  0  0  0
  7  2  1  0  0  0  0
  7 12  1  0  0  0  0
  8  4  1  0  0  0  0
  9  5  1  0  0  0  0
 10  6  1  0  0  0  0
 11 22  1  0  0  0  0
 12 11  2  0  0  0  0
 13 12  1  0  0  0  0
 13 15  2  0  0  0  0
 14 13  1  0  0  0  0
 15 21  1  0  0  0  0
 16 15  1  0  0  0  0
 16 18  1  0  0  0  0
 17 16  1  0  0  0  0
 18 19  2  0  0  0  0
 19 20  1  0  0  0  0
 21 19  1  0  0  0  0
 21 22  2  0  0  0  0
 23 29  1  0  0  0  0
 24 23  1  0  0  0  0
 24 30  1  0  0  0  0
 25 24  2  0  0  0  0
 26 27  2  0  0  0  0
 26 25  1  0  0  0  0
 27 28  1  0  0  0  0
 28 23  2  0  0  0  0
 32 31  1  0  0  0  0
 33 27  1  0  0  0  0
 33 32  2  0  0  0  0
 34 33  1  0  0  0  0
 35 34  2  0  0  0  0
 35 36  1  0  0  0  0
 36 38  2  0  0  0  0
 37 36  1  0  0  0  0
 38 32  1  0  0  0  0
 38 41  1  0  0  0  0
 39 34  1  0  0  0  0
 40 35  1  0  0  0  0
M  END
>  <minimizedAffinity>
-6.97733688

$$$$
