
 OpenBabel03242514293D

 41 45  0  0  0  0  0  0  0  0999 V2000
   48.9400   33.3820   37.6750 Cl  0  0  0  0  0  0  0  0  0  0  0  0
   47.2040   33.1300   37.6880 C   0  0  0  0  0  0  0  0  0  0  0  0
   46.5000   33.3920   38.8140 C   0  0  0  0  0  0  0  0  0  0  0  0
   45.1640   33.0420   38.7540 C   0  0  0  0  0  0  0  0  0  0  0  0
   44.5390   32.4710   37.6640 C   0  0  0  0  0  0  0  0  0  0  0  0
   45.2940   32.2230   36.5310 C   0  0  0  0  0  0  0  0  0  0  0  0
   46.6420   32.5620   36.5540 C   0  0  0  0  0  0  0  0  0  0  0  0
   44.6230   33.2690   39.6900 H   0  0  0  0  0  0  0  0  0  0  0  0
   43.4980   32.2850   37.8450 H   0  0  0  0  0  0  0  0  0  0  0  0
   44.7520   31.7830   35.7190 H   0  0  0  0  0  0  0  0  0  0  0  0
   48.5960   32.7770   34.9160 C   0  0  0  0  0  0  0  0  0  0  0  0
   47.3800   32.2740   35.3320 C   0  0  0  0  0  0  0  0  0  0  0  0
   46.7720   31.3650   34.4580 C   0  0  0  0  0  0  0  0  0  0  0  0
   45.8000   30.9140   34.7120 H   0  0  0  0  0  0  0  0  0  0  0  0
   47.3110   30.9670   33.2530 C   0  0  0  0  0  0  0  0  0  0  0  0
   46.8910   30.1240   32.2950 N   0  0  0  0  0  0  0  0  0  0  0  0
   45.9940   29.5630   32.2920 H   0  0  0  0  0  0  0  0  0  0  0  0
   47.8170   30.1130   31.3330 N   0  0  0  0  0  0  0  0  0  0  0  0
   48.8390   30.9340   31.6380 C   0  0  0  0  0  0  0  0  0  0  0  0
   49.7200   31.1350   31.0670 H   0  0  0  0  0  0  0  0  0  0  0  0
   48.5270   31.4860   32.8630 C   0  0  0  0  0  0  0  0  0  0  0  0
   49.1420   32.3840   33.7120 C   0  0  0  0  0  0  0  0  0  0  0  0
   48.8090   35.3390   41.0100 C   0  0  0  0  0  0  0  0  0  0  0  0
   48.2050   34.8380   39.8460 C   0  0  0  0  0  0  0  0  0  0  0  0
   47.1180   33.9830   39.9700 C   0  0  0  0  0  0  0  0  0  0  0  0
   46.6940   33.6850   41.2190 N   0  0  0  0  0  0  0  0  0  0  0  0
   47.2710   34.1700   42.3310 C   0  0  0  0  0  0  0  0  0  0  0  0
   48.3360   34.9990   42.2300 N   0  0  0  0  0  0  0  0  0  0  0  0
   49.6580   36.0030   41.0670 H   0  0  0  0  0  0  0  0  0  0  0  0
   48.7040   35.2690   39.0400 H   0  0  0  0  0  0  0  0  0  0  0  0
   45.0430   35.9960   43.3420 Cl  0  0  0  0  0  0  0  0  0  0  0  0
   45.7300   34.6440   44.2100 C   0  0  0  0  0  0  0  0  0  0  0  0
   46.7460   33.8740   43.6460 C   0  0  0  0  0  0  0  0  0  0  0  0
   47.2010   32.8490   44.4070 C   0  0  0  0  0  0  0  0  0  0  0  0
   46.7150   32.5470   45.6740 C   0  0  0  0  0  0  0  0  0  0  0  0
   45.7160   33.3200   46.2030 C   0  0  0  0  0  0  0  0  0  0  0  0
   45.1990   32.8280   47.8030 Cl  0  0  0  0  0  0  0  0  0  0  0  0
   45.2260   34.3620   45.4760 C   0  0  0  0  0  0  0  0  0  0  0  0
   47.9920   32.2430   43.9790 H   0  0  0  0  0  0  0  0  0  0  0  0
   47.1750   31.6960   46.1690 H   0  0  0  0  0  0  0  0  0  0  0  0
   44.4410   34.9370   45.9400 H   0  0  0  0  0  0  0  0  0  0  0  0
  1  2  1  0  0  0  0
  2  3  1  0  0  0  0
  3 25  1  0  0  0  0
  4  3  2  0  0  0  0
  4  8  1  0  0  0  0
  5  9  1  0  0  0  0
  5  4  1  0  0  0  0
  6  7  1  0  0  0  0
  6  5  2  0  0  0  0
  7  2  2  0  0  0  0
 10  6  1  0  0  0  0
 11 12  1  0  0  0  0
 12  7  1  0  0  0  0
 13 14  1  0  0  0  0
 13 12  2  0  0  0  0
 15 13  1  0  0  0  0
 16 15  1  0  0  0  0
 17 16  1  0  0  0  0
 18 19  2  0  0  0  0
 18 16  1  0  0  0  0
 19 21  1  0  0  0  0
 20 19  1  0  0  0  0
 21 15  2  0  0  0  0
 21 22  1  0  0  0  0
 22 11  2  0  0  0  0
 23 29  1  0  0  0  0
 23 28  1  0  0  0  0
 24 25  1  0  0  0  0
 24 23  2  0  0  0  0
 25 26  2  0  0  0  0
 26 27  1  0  0  0  0
 27 33  1  0  0  0  0
 28 27  2  0  0  0  0
 30 24  1  0  0  0  0
 31 32  1  0  0  0  0
 32 38  1  0  0  0  0
 33 32  2  0  0  0  0
 33 34  1  0  0  0  0
 34 35  2  0  0  0  0
 35 40  1  0  0  0  0
 35 36  1  0  0  0  0
 36 37  1  0  0  0  0
 38 41  1  0  0  0  0
 38 36  2  0  0  0  0
 39 34  1  0  0  0  0
M  END
>  <minimizedAffinity>
-7.45847368

>  <minimizedRMSD>
0.720907211

$$$$
