
 OpenBabel03252500353D

 49 53  0  0  1  0  0  0  0  0999 V2000
   45.7340   35.2920   43.3870 C   0  0  1  0  0  0  0  0  0  0  0  0
   44.6960   34.9340   44.2490 C   0  0  0  0  0  0  0  0  0  0  0  0
   46.0100   34.3710   44.6110 C   0  0  1  0  0  0  0  0  0  0  0  0
   46.2060   36.3120   43.4510 H   0  0  0  0  0  0  0  0  0  0  0  0
   43.9280   34.1670   43.9390 H   0  0  0  0  0  0  0  0  0  0  0  0
   44.1870   35.7190   44.8790 H   0  0  0  0  0  0  0  0  0  0  0  0
   46.7130   34.8580   45.3000 H   0  0  0  0  0  0  0  0  0  0  0  0
   44.9180   34.1520   41.3200 C   0  0  0  0  0  0  0  0  0  0  0  0
   46.0260   34.7050   42.0410 C   0  0  0  0  0  0  0  0  0  0  0  0
   47.2710   34.6790   41.5000 C   0  0  0  0  0  0  0  0  0  0  0  0
   47.4010   34.1060   40.2540 N   0  0  0  0  0  0  0  0  0  0  0  0
   46.3470   33.5890   39.5870 C   0  0  0  0  0  0  0  0  0  0  0  0
   45.0680   33.5940   40.0980 N   0  0  0  0  0  0  0  0  0  0  0  0
   43.9580   34.1940   41.7850 H   0  0  0  0  0  0  0  0  0  0  0  0
   48.0900   35.0950   42.0460 H   0  0  0  0  0  0  0  0  0  0  0  0
   47.6720   32.2000   38.0380 C   0  0  0  0  0  0  0  0  0  0  0  0
   46.5720   32.9990   38.2710 C   0  0  0  0  0  0  0  0  0  0  0  0
   45.6510   33.2720   37.2820 C   0  0  0  0  0  0  0  0  0  0  0  0
   44.7890   33.9010   37.4700 H   0  0  0  0  0  0  0  0  0  0  0  0
   45.7930   32.7500   36.0020 C   0  0  0  0  0  0  0  0  0  0  0  0
   45.0360   32.8730   34.8870 N   0  0  0  0  0  0  0  0  0  0  0  0
   44.1520   33.4200   34.7910 H   0  0  0  0  0  0  0  0  0  0  0  0
   45.6380   32.1560   33.9260 N   0  0  0  0  0  0  0  0  0  0  0  0
   46.7460   31.5940   34.4200 C   0  0  0  0  0  0  0  0  0  0  0  0
   47.4640   30.9500   33.9020 H   0  0  0  0  0  0  0  0  0  0  0  0
   46.8910   31.9440   35.7450 C   0  0  0  0  0  0  0  0  0  0  0  0
   47.7780   31.7060   36.7700 C   0  0  0  0  0  0  0  0  0  0  0  0
   46.2970   32.9330   44.3850 C   0  0  0  0  0  0  0  0  0  0  0  0
   47.4090   32.8100   44.3650 H   0  0  0  0  0  0  0  0  0  0  0  0
   45.8860   32.5880   43.4350 H   0  0  0  0  0  0  0  0  0  0  0  0
   45.8100   32.2250   45.5140 N   0  0  0  0  0  0  0  0  0  0  0  0
   45.9190   32.8250   46.7730 C   0  0  0  0  0  0  0  0  0  0  0  0
   47.2450   32.4380   47.4630 C   0  0  0  0  0  0  0  0  0  0  0  0
   47.1500   30.9700   47.7720 C   0  0  0  0  0  0  0  0  0  0  0  0
   46.9930   30.2620   46.4570 C   0  0  0  0  0  0  0  0  0  0  0  0
   45.9320   30.8310   45.5590 C   0  0  2  0  0  0  0  0  0  0  0  0
   45.1560   32.2990   47.4240 H   0  0  0  0  0  0  0  0  0  0  0  0
   45.6650   33.8720   46.8950 H   0  0  0  0  0  0  0  0  0  0  0  0
   48.0780   32.5940   46.7670 H   0  0  0  0  0  0  0  0  0  0  0  0
   47.3800   33.0320   48.3740 H   0  0  0  0  0  0  0  0  0  0  0  0
   46.3790   30.7160   48.5080 H   0  0  0  0  0  0  0  0  0  0  0  0
   48.1340   30.6600   48.1800 H   0  0  0  0  0  0  0  0  0  0  0  0
   47.9480   30.1930   45.9160 H   0  0  0  0  0  0  0  0  0  0  0  0
   46.7020   29.2020   46.6950 H   0  0  0  0  0  0  0  0  0  0  0  0
   44.9610   30.3940   45.8960 H   0  0  0  0  0  0  0  0  0  0  0  0
   46.1630   30.2340   44.1780 C   0  0  0  0  0  0  0  0  0  0  0  0
   47.1860   30.5130   43.8600 H   0  0  0  0  0  0  0  0  0  0  0  0
   45.4140   30.6430   43.4640 H   0  0  0  0  0  0  0  0  0  0  0  0
   46.0720   29.1390   44.2810 H   0  0  0  0  0  0  0  0  0  0  0  0
  1  4  1  1  0  0  0
  1  2  1  0  0  0  0
  1  3  1  0  0  0  0
  2  3  1  0  0  0  0
  2  6  1  0  0  0  0
  3  7  1  1  0  0  0
  5  2  1  0  0  0  0
  8 14  1  0  0  0  0
  8  9  1  0  0  0  0
  9  1  1  0  0  0  0
 10  9  2  0  0  0  0
 10 15  1  0  0  0  0
 11 10  1  0  0  0  0
 12 13  1  0  0  0  0
 12 11  2  0  0  0  0
 13  8  2  0  0  0  0
 16 17  1  0  0  0  0
 17 12  1  0  0  0  0
 18 19  1  0  0  0  0
 18 17  2  0  0  0  0
 20 18  1  0  0  0  0
 21 20  1  0  0  0  0
 22 21  1  0  0  0  0
 23 24  2  0  0  0  0
 23 21  1  0  0  0  0
 24 26  1  0  0  0  0
 25 24  1  0  0  0  0
 26 20  2  0  0  0  0
 26 27  1  0  0  0  0
 27 16  2  0  0  0  0
 28  3  1  0  0  0  0
 28 31  1  0  0  0  0
 29 28  1  0  0  0  0
 30 28  1  0  0  0  0
 31 36  1  0  0  0  0
 31 32  1  0  0  0  0
 32 38  1  0  0  0  0
 32 37  1  0  0  0  0
 32 33  1  0  0  0  0
 33 34  1  0  0  0  0
 33 40  1  0  0  0  0
 34 42  1  0  0  0  0
 34 41  1  0  0  0  0
 35 44  1  0  0  0  0
 35 34  1  0  0  0  0
 36 45  1  1  0  0  0
 36 35  1  0  0  0  0
 39 33  1  0  0  0  0
 43 35  1  0  0  0  0
 46 49  1  0  0  0  0
 46 36  1  0  0  0  0
 47 46  1  0  0  0  0
 48 46  1  0  0  0  0
M  END
>  <minimizedAffinity>
-5.53954649

>  <minimizedRMSD>
2.59557199

$$$$
