
 OpenBabel03252502223D

 36 39  0  0  1  0  0  0  0  0999 V2000
   37.5930   27.9460   40.9150 N   0  0  0  0  0  0  0  0  0  0  0  0
   37.9160   26.6270   41.4610 C   0  0  0  0  0  0  0  0  0  0  0  0
   36.8810   26.4450   42.5910 C   0  0  0  0  0  0  0  0  0  0  0  0
   37.0790   27.4720   43.6720 C   0  0  0  0  0  0  0  0  0  0  0  0
   37.5560   28.7910   43.2020 C   0  0  0  0  0  0  0  0  0  0  0  0
   37.1890   29.0380   41.7560 C   0  0  1  0  0  0  0  0  0  0  0  0
   37.6490   25.8800   40.7030 H   0  0  0  0  0  0  0  0  0  0  0  0
   38.9200   26.5600   41.8800 H   0  0  0  0  0  0  0  0  0  0  0  0
   36.9380   25.4260   42.9860 H   0  0  0  0  0  0  0  0  0  0  0  0
   35.8730   26.6440   42.1410 H   0  0  0  0  0  0  0  0  0  0  0  0
   37.8040   27.0370   44.4010 H   0  0  0  0  0  0  0  0  0  0  0  0
   36.0890   27.5420   44.2120 H   0  0  0  0  0  0  0  0  0  0  0  0
   38.6800   28.8550   43.2550 H   0  0  0  0  0  0  0  0  0  0  0  0
   37.1120   29.6030   43.7970 H   0  0  0  0  0  0  0  0  0  0  0  0
   36.0780   29.0120   41.7480 H   0  0  0  0  0  0  0  0  0  0  0  0
   36.7270   31.1790   40.5580 C   0  0  0  0  0  3  0  0  0  0  0  0
   37.6040   30.3710   41.2940 C   0  0  0  0  0  0  0  0  0  0  0  0
   38.8360   30.9510   41.5170 C   0  0  0  0  0  0  0  0  0  0  0  0
   39.5600   30.3900   42.0740 H   0  0  0  0  0  0  0  0  0  0  0  0
   39.2010   32.1970   41.0760 C   0  0  0  0  0  0  0  0  0  0  0  0
   40.3310   32.9270   41.1890 N   0  0  0  0  0  0  0  0  0  0  0  0
   41.2140   32.6250   41.6880 H   0  0  0  0  0  0  0  0  0  0  0  0
   40.1690   34.0890   40.5750 N   0  0  0  0  0  0  0  0  0  0  0  0
   38.9350   34.1520   40.0460 C   0  0  0  0  0  0  0  0  0  0  0  0
   38.4890   34.9670   39.4820 H   0  0  0  0  0  0  0  0  0  0  0  0
   38.3090   32.9620   40.3560 C   0  0  0  0  0  0  0  0  0  0  0  0
   37.0720   32.4360   40.1050 C   0  0  0  0  0  3  0  0  0  0  0  0
   36.6800   28.3470   37.3200 C   0  0  0  0  0  0  0  0  0  0  0  0
   36.5500   28.1120   38.6850 C   0  0  0  0  0  0  0  0  0  0  0  0
   37.6730   28.1760   39.5180 C   0  0  0  0  0  0  0  0  0  0  0  0
   38.8480   28.4720   38.9070 N   0  0  0  0  0  0  0  0  0  0  0  0
   38.9610   28.6980   37.5830 C   0  0  0  0  0  0  0  0  0  0  0  0
   37.8740   28.6330   36.7960 N   0  0  0  0  0  0  0  0  0  0  0  0
   35.7740   28.2870   36.7060 H   0  0  0  0  0  0  0  0  0  0  0  0
   35.5870   27.8820   39.1000 H   0  0  0  0  0  0  0  0  0  0  0  0
   39.9640   28.9310   37.1940 H   0  0  0  0  0  0  0  0  0  0  0  0
  1  2  1  0  0  0  0
  1  6  1  0  0  0  0
  2  8  1  0  0  0  0
  2  3  1  0  0  0  0
  3  9  1  0  0  0  0
  3  4  1  0  0  0  0
  4 12  1  0  0  0  0
  4 11  1  0  0  0  0
  5 13  1  0  0  0  0
  5  4  1  0  0  0  0
  5 14  1  0  0  0  0
  6 15  1  6  0  0  0
  6  5  1  0  0  0  0
  7  2  1  0  0  0  0
 10  3  1  0  0  0  0
 16 17  1  0  0  0  0
 17 18  2  0  0  0  0
 17  6  1  0  0  0  0
 18 19  1  0  0  0  0
 20 21  1  0  0  0  0
 20 18  1  0  0  0  0
 21 22  1  0  0  0  0
 23 21  1  0  0  0  0
 24 26  1  0  0  0  0
 24 23  2  0  0  0  0
 25 24  1  0  0  0  0
 26 20  2  0  0  0  0
 27 26  1  0  0  0  0
 27 16  2  0  0  0  0
 28 29  1  0  0  0  0
 29 35  1  0  0  0  0
 29 30  2  0  0  0  0
 30  1  1  0  0  0  0
 31 30  1  0  0  0  0
 32 31  2  0  0  0  0
 33 28  2  0  0  0  0
 33 32  1  0  0  0  0
 34 28  1  0  0  0  0
 36 32  1  0  0  0  0
M  END
>  <minimizedAffinity>
-5.75008821

$$$$

 OpenBabel03252502223D

 36 39  0  0  1  0  0  0  0  0999 V2000
   38.5340   31.3800   40.6760 N   0  0  0  0  0  0  0  0  0  0  0  0
   39.6880   32.2810   40.6580 C   0  0  0  0  0  0  0  0  0  0  0  0
   39.0820   33.6470   41.0430 C   0  0  0  0  0  0  0  0  0  0  0  0
   38.0960   34.1100   40.0050 C   0  0  0  0  0  0  0  0  0  0  0  0
   37.3320   33.0310   39.3430 C   0  0  0  0  0  0  0  0  0  0  0  0
   37.2410   31.7950   40.2090 C   0  0  1  0  0  0  0  0  0  0  0  0
   40.3360   32.0070   41.4990 H   0  0  0  0  0  0  0  0  0  0  0  0
   40.1650   32.3630   39.6810 H   0  0  0  0  0  0  0  0  0  0  0  0
   39.8820   34.3780   41.1970 H   0  0  0  0  0  0  0  0  0  0  0  0
   38.4990   33.4870   41.9880 H   0  0  0  0  0  0  0  0  0  0  0  0
   38.6750   34.6930   39.2480 H   0  0  0  0  0  0  0  0  0  0  0  0
   37.4250   34.8520   40.5300 H   0  0  0  0  0  0  0  0  0  0  0  0
   37.8360   32.7080   38.3880 H   0  0  0  0  0  0  0  0  0  0  0  0
   36.3030   33.3560   39.1250 H   0  0  0  0  0  0  0  0  0  0  0  0
   36.7020   32.1380   41.1180 H   0  0  0  0  0  0  0  0  0  0  0  0
   35.4840   30.0250   40.3380 C   0  0  0  0  0  3  0  0  0  0  0  0
   36.4310   30.7360   39.5880 C   0  0  0  0  0  0  0  0  0  0  0  0
   36.5030   30.3390   38.2680 C   0  0  0  0  0  0  0  0  0  0  0  0
   37.2060   30.8380   37.6330 H   0  0  0  0  0  0  0  0  0  0  0  0
   35.7370   29.3480   37.7100 C   0  0  0  0  0  0  0  0  0  0  0  0
   35.6570   28.8230   36.4690 N   0  0  0  0  0  0  0  0  0  0  0  0
   36.2360   29.1220   35.6340 H   0  0  0  0  0  0  0  0  0  0  0  0
   34.7400   27.8690   36.4500 N   0  0  0  0  0  0  0  0  0  0  0  0
   34.1950   27.7420   37.6730 C   0  0  0  0  0  0  0  0  0  0  0  0
   33.4170   27.0540   37.9910 H   0  0  0  0  0  0  0  0  0  0  0  0
   34.8150   28.6720   38.4820 C   0  0  0  0  0  0  0  0  0  0  0  0
   34.7020   29.0250   39.7980 C   0  0  0  0  0  3  0  0  0  0  0  0
   38.5100   28.3980   42.9170 C   0  0  0  0  0  0  0  0  0  0  0  0
   38.3570   29.7120   42.4840 C   0  0  0  0  0  0  0  0  0  0  0  0
   38.6730   30.0570   41.1650 C   0  0  0  0  0  0  0  0  0  0  0  0
   39.1210   29.0460   40.3800 N   0  0  0  0  0  0  0  0  0  0  0  0
   39.2650   27.7770   40.8100 C   0  0  0  0  0  0  0  0  0  0  0  0
   38.9580   27.4610   42.0800 N   0  0  0  0  0  0  0  0  0  0  0  0
   38.2500   28.1740   43.9580 H   0  0  0  0  0  0  0  0  0  0  0  0
   37.9970   30.4610   43.1640 H   0  0  0  0  0  0  0  0  0  0  0  0
   39.6370   27.0360   40.0860 H   0  0  0  0  0  0  0  0  0  0  0  0
  1 30  1  0  0  0  0
  2  1  1  0  0  0  0
  2  3  1  0  0  0  0
  2  7  1  0  0  0  0
  3  9  1  0  0  0  0
  3 10  1  0  0  0  0
  4 12  1  0  0  0  0
  4  3  1  0  0  0  0
  5  4  1  0  0  0  0
  5  6  1  0  0  0  0
  6  1  1  0  0  0  0
  6 15  1  1  0  0  0
  8  2  1  0  0  0  0
 11  4  1  0  0  0  0
 13  5  1  0  0  0  0
 14  5  1  0  0  0  0
 17  6  1  0  0  0  0
 17 16  2  0  0  0  0
 18 17  1  0  0  0  0
 19 18  1  0  0  0  0
 20 18  2  0  0  0  0
 20 26  1  0  0  0  0
 21 20  1  0  0  0  0
 22 21  1  0  0  0  0
 23 21  1  0  0  0  0
 23 24  2  0  0  0  0
 24 25  1  0  0  0  0
 24 26  1  0  0  0  0
 26 27  2  0  0  0  0
 27 16  1  0  0  0  0
 28 34  1  0  0  0  0
 29 28  1  0  0  0  0
 29 35  1  0  0  0  0
 30 29  2  0  0  0  0
 31 32  2  0  0  0  0
 31 30  1  0  0  0  0
 32 33  1  0  0  0  0
 33 28  2  0  0  0  0
 36 32  1  0  0  0  0
M  END
>  <minimizedAffinity>
-5.58961153

$$$$

 OpenBabel03252502223D

 36 39  0  0  1  0  0  0  0  0999 V2000
   37.7450   29.3540   41.3680 N   0  0  0  0  0  0  0  0  0  0  0  0
   37.6060   29.2930   42.8240 C   0  0  0  0  0  0  0  0  0  0  0  0
   38.2190   27.9230   43.1840 C   0  0  0  0  0  0  0  0  0  0  0  0
   37.4200   26.8010   42.5790 C   0  0  0  0  0  0  0  0  0  0  0  0
   36.8070   27.1050   41.2690 C   0  0  0  0  0  0  0  0  0  0  0  0
   37.5560   28.1970   40.5380 C   0  0  1  0  0  0  0  0  0  0  0  0
   38.2900   30.0360   43.2530 H   0  0  0  0  0  0  0  0  0  0  0  0
   36.5730   29.3250   43.1670 H   0  0  0  0  0  0  0  0  0  0  0  0
   38.2950   27.8260   44.2720 H   0  0  0  0  0  0  0  0  0  0  0  0
   39.2330   27.8870   42.7070 H   0  0  0  0  0  0  0  0  0  0  0  0
   36.6300   26.5310   43.3210 H   0  0  0  0  0  0  0  0  0  0  0  0
   38.1230   25.9180   42.5300 H   0  0  0  0  0  0  0  0  0  0  0  0
   35.7520   27.4810   41.3950 H   0  0  0  0  0  0  0  0  0  0  0  0
   36.8060   26.2160   40.6200 H   0  0  0  0  0  0  0  0  0  0  0  0
   38.5750   27.7780   40.3920 H   0  0  0  0  0  0  0  0  0  0  0  0
   35.6290   28.7440   39.0480 C   0  0  0  0  0  3  0  0  0  0  0  0
   36.9930   28.4670   39.2060 C   0  0  0  0  0  0  0  0  0  0  0  0
   37.7030   28.4780   38.0220 C   0  0  0  0  0  0  0  0  0  0  0  0
   38.7540   28.2740   38.0660 H   0  0  0  0  0  0  0  0  0  0  0  0
   37.1570   28.7330   36.7900 C   0  0  0  0  0  0  0  0  0  0  0  0
   37.6680   28.7900   35.5420 N   0  0  0  0  0  0  0  0  0  0  0  0
   38.6820   28.6290   35.2830 H   0  0  0  0  0  0  0  0  0  0  0  0
   36.7040   29.0780   34.6830 N   0  0  0  0  0  0  0  0  0  0  0  0
   35.5390   29.2170   35.3400 C   0  0  0  0  0  0  0  0  0  0  0  0
   34.5620   29.4540   34.9280 H   0  0  0  0  0  0  0  0  0  0  0  0
   35.8100   29.0020   36.6760 C   0  0  0  0  0  0  0  0  0  0  0  0
   35.0580   29.0040   37.8180 C   0  0  0  0  0  3  0  0  0  0  0  0
   37.5310   32.8110   39.9810 C   0  0  0  0  0  0  0  0  0  0  0  0
   37.1570   31.6270   40.6090 C   0  0  0  0  0  0  0  0  0  0  0  0
   38.0770   30.5790   40.7360 C   0  0  0  0  0  0  0  0  0  0  0  0
   39.3080   30.8070   40.2160 N   0  0  0  0  0  0  0  0  0  0  0  0
   39.6590   31.9580   39.6090 C   0  0  0  0  0  0  0  0  0  0  0  0
   38.7650   32.9550   39.4950 N   0  0  0  0  0  0  0  0  0  0  0  0
   36.7780   33.6040   39.9050 H   0  0  0  0  0  0  0  0  0  0  0  0
   36.1620   31.5170   40.9980 H   0  0  0  0  0  0  0  0  0  0  0  0
   40.6870   32.0340   39.2230 H   0  0  0  0  0  0  0  0  0  0  0  0
  1  2  1  0  0  0  0
  2  8  1  0  0  0  0
  2  3  1  0  0  0  0
  2  7  1  0  0  0  0
  3  9  1  0  0  0  0
  4  3  1  0  0  0  0
  4 11  1  0  0  0  0
  5 13  1  0  0  0  0
  5  4  1  0  0  0  0
  6 15  1  6  0  0  0
  6  5  1  0  0  0  0
  6  1  1  0  0  0  0
 10  3  1  0  0  0  0
 12  4  1  0  0  0  0
 14  5  1  0  0  0  0
 16 17  1  0  0  0  0
 17  6  1  0  0  0  0
 18 19  1  0  0  0  0
 18 17  2  0  0  0  0
 20 18  1  0  0  0  0
 21 20  1  0  0  0  0
 22 21  1  0  0  0  0
 23 24  2  0  0  0  0
 23 21  1  0  0  0  0
 24 26  1  0  0  0  0
 25 24  1  0  0  0  0
 26 20  2  0  0  0  0
 26 27  1  0  0  0  0
 27 16  2  0  0  0  0
 28 29  1  0  0  0  0
 29 30  2  0  0  0  0
 29 35  1  0  0  0  0
 30  1  1  0  0  0  0
 31 30  1  0  0  0  0
 32 31  2  0  0  0  0
 33 32  1  0  0  0  0
 33 28  2  0  0  0  0
 34 28  1  0  0  0  0
 36 32  1  0  0  0  0
M  END
>  <minimizedAffinity>
-5.51384068

$$$$

 OpenBabel03252502223D

 36 39  0  0  1  0  0  0  0  0999 V2000
   36.1100   29.2720   37.1200 N   0  0  0  0  0  0  0  0  0  0  0  0
   35.8170   29.0620   35.7010 C   0  0  0  0  0  0  0  0  0  0  0  0
   34.2940   29.2900   35.6130 C   0  0  0  0  0  0  0  0  0  0  0  0
   33.5480   28.2570   36.4140 C   0  0  0  0  0  0  0  0  0  0  0  0
   34.2380   27.7970   37.6380 C   0  0  0  0  0  0  0  0  0  0  0  0
   35.2160   28.8290   38.1530 C   0  0  1  0  0  0  0  0  0  0  0  0
   36.2650   29.8930   35.1440 H   0  0  0  0  0  0  0  0  0  0  0  0
   36.0510   28.0570   35.3500 H   0  0  0  0  0  0  0  0  0  0  0  0
   33.9790   29.2940   34.5650 H   0  0  0  0  0  0  0  0  0  0  0  0
   34.0870   30.2800   36.0970 H   0  0  0  0  0  0  0  0  0  0  0  0
   33.3580   27.3950   35.7300 H   0  0  0  0  0  0  0  0  0  0  0  0
   32.5390   28.7130   36.6360 H   0  0  0  0  0  0  0  0  0  0  0  0
   34.8430   26.8680   37.4340 H   0  0  0  0  0  0  0  0  0  0  0  0
   33.5160   27.5970   38.4430 H   0  0  0  0  0  0  0  0  0  0  0  0
   34.5830   29.7120   38.3850 H   0  0  0  0  0  0  0  0  0  0  0  0
   36.4020   27.1220   39.5360 C   0  0  0  0  0  3  0  0  0  0  0  0
   35.8640   28.4090   39.4050 C   0  0  0  0  0  0  0  0  0  0  0  0
   36.0120   29.1900   40.5340 C   0  0  0  0  0  0  0  0  0  0  0  0
   35.6250   30.1880   40.5060 H   0  0  0  0  0  0  0  0  0  0  0  0
   36.6210   28.7770   41.6910 C   0  0  0  0  0  0  0  0  0  0  0  0
   36.8610   29.3740   42.8770 N   0  0  0  0  0  0  0  0  0  0  0  0
   36.5890   30.3640   43.1360 H   0  0  0  0  0  0  0  0  0  0  0  0
   37.4930   28.5300   43.6770 N   0  0  0  0  0  0  0  0  0  0  0  0
   37.6840   27.3620   43.0400 C   0  0  0  0  0  0  0  0  0  0  0  0
   38.1710   26.4650   43.4160 H   0  0  0  0  0  0  0  0  0  0  0  0
   37.1380   27.5020   41.7810 C   0  0  0  0  0  0  0  0  0  0  0  0
   37.0190   26.6850   40.6910 C   0  0  0  0  0  3  0  0  0  0  0  0
   38.5220   31.8780   38.2640 C   0  0  0  0  0  0  0  0  0  0  0  0
   37.3240   31.2770   37.8890 C   0  0  0  0  0  0  0  0  0  0  0  0
   37.3040   29.9300   37.5100 C   0  0  0  0  0  0  0  0  0  0  0  0
   38.4990   29.2890   37.5380 N   0  0  0  0  0  0  0  0  0  0  0  0
   39.6530   29.8820   37.9040 C   0  0  0  0  0  0  0  0  0  0  0  0
   39.6560   31.1770   38.2650 N   0  0  0  0  0  0  0  0  0  0  0  0
   38.4890   32.9360   38.5530 H   0  0  0  0  0  0  0  0  0  0  0  0
   36.4140   31.8480   37.8900 H   0  0  0  0  0  0  0  0  0  0  0  0
   40.5640   29.2660   37.8900 H   0  0  0  0  0  0  0  0  0  0  0  0
  1 30  1  0  0  0  0
  1  6  1  0  0  0  0
  2  1  1  0  0  0  0
  3  2  1  0  0  0  0
  3 10  1  0  0  0  0
  3  4  1  0  0  0  0
  4 12  1  0  0  0  0
  4  5  1  0  0  0  0
  5  6  1  0  0  0  0
  5 14  1  0  0  0  0
  6 15  1  1  0  0  0
  6 17  1  0  0  0  0
  7  2  1  0  0  0  0
  8  2  1  0  0  0  0
  9  3  1  0  0  0  0
 11  4  1  0  0  0  0
 13  5  1  0  0  0  0
 16 27  1  0  0  0  0
 17 16  2  0  0  0  0
 17 18  1  0  0  0  0
 18 20  2  0  0  0  0
 19 18  1  0  0  0  0
 20 26  1  0  0  0  0
 20 21  1  0  0  0  0
 21 22  1  0  0  0  0
 21 23  1  0  0  0  0
 24 25  1  0  0  0  0
 24 23  2  0  0  0  0
 26 24  1  0  0  0  0
 27 26  2  0  0  0  0
 28 33  1  0  0  0  0
 28 34  1  0  0  0  0
 29 35  1  0  0  0  0
 29 28  2  0  0  0  0
 30 31  2  0  0  0  0
 30 29  1  0  0  0  0
 31 32  1  0  0  0  0
 32 33  2  0  0  0  0
 36 32  1  0  0  0  0
M  END
>  <minimizedAffinity>
-5.50399351

$$$$

 OpenBabel03252502223D

 36 39  0  0  1  0  0  0  0  0999 V2000
   37.9280   29.3420   41.5350 N   0  0  0  0  0  0  0  0  0  0  0  0
   38.1600   29.3700   42.9800 C   0  0  0  0  0  0  0  0  0  0  0  0
   38.8240   28.0070   43.2620 C   0  0  0  0  0  0  0  0  0  0  0  0
   37.8830   26.8750   42.9500 C   0  0  0  0  0  0  0  0  0  0  0  0
   36.9630   27.1200   41.8190 C   0  0  0  0  0  0  0  0  0  0  0  0
   37.5190   28.1450   40.8550 C   0  0  1  0  0  0  0  0  0  0  0  0
   38.9400   30.1160   43.1750 H   0  0  0  0  0  0  0  0  0  0  0  0
   37.2470   29.4540   43.5680 H   0  0  0  0  0  0  0  0  0  0  0  0
   39.1720   27.9710   44.2990 H   0  0  0  0  0  0  0  0  0  0  0  0
   39.6850   27.9130   42.5490 H   0  0  0  0  0  0  0  0  0  0  0  0
   37.3030   26.6730   43.8830 H   0  0  0  0  0  0  0  0  0  0  0  0
   38.5380   25.9700   42.7830 H   0  0  0  0  0  0  0  0  0  0  0  0
   35.9800   27.5340   42.1810 H   0  0  0  0  0  0  0  0  0  0  0  0
   36.7870   26.1950   41.2500 H   0  0  0  0  0  0  0  0  0  0  0  0
   38.4620   27.6870   40.4850 H   0  0  0  0  0  0  0  0  0  0  0  0
   37.1550   28.2970   38.3900 C   0  0  0  0  0  3  0  0  0  0  0  0
   36.6430   28.3530   39.6930 C   0  0  0  0  0  0  0  0  0  0  0  0
   35.2880   28.6120   39.7450 C   0  0  0  0  0  0  0  0  0  0  0  0
   34.8260   28.6700   40.7100 H   0  0  0  0  0  0  0  0  0  0  0  0
   34.4890   28.8030   38.6470 C   0  0  0  0  0  0  0  0  0  0  0  0
   33.1740   29.0620   38.4890 N   0  0  0  0  0  0  0  0  0  0  0  0
   32.4680   29.1720   39.2710 H   0  0  0  0  0  0  0  0  0  0  0  0
   32.8940   29.1580   37.1990 N   0  0  0  0  0  0  0  0  0  0  0  0
   34.0120   28.9670   36.4790 C   0  0  0  0  0  0  0  0  0  0  0  0
   34.1230   28.9800   35.3980 H   0  0  0  0  0  0  0  0  0  0  0  0
   35.0310   28.7400   37.3810 C   0  0  0  0  0  0  0  0  0  0  0  0
   36.3700   28.4850   37.2700 C   0  0  0  0  0  3  0  0  0  0  0  0
   39.3900   31.9170   39.2650 C   0  0  0  0  0  0  0  0  0  0  0  0
   39.2620   30.7470   40.0070 C   0  0  0  0  0  0  0  0  0  0  0  0
   38.1060   30.5180   40.7630 C   0  0  0  0  0  0  0  0  0  0  0  0
   37.1630   31.4920   40.7120 N   0  0  0  0  0  0  0  0  0  0  0  0
   37.2980   32.6210   39.9890 C   0  0  0  0  0  0  0  0  0  0  0  0
   38.4140   32.8270   39.2680 N   0  0  0  0  0  0  0  0  0  0  0  0
   40.3120   32.0540   38.6880 H   0  0  0  0  0  0  0  0  0  0  0  0
   40.0520   30.0190   40.0000 H   0  0  0  0  0  0  0  0  0  0  0  0
   36.4690   33.3440   40.0200 H   0  0  0  0  0  0  0  0  0  0  0  0
  1  2  1  0  0  0  0
  2  7  1  0  0  0  0
  2  3  1  0  0  0  0
  2  8  1  0  0  0  0
  3  9  1  0  0  0  0
  4  3  1  0  0  0  0
  4 11  1  0  0  0  0
  5 13  1  0  0  0  0
  5  4  1  0  0  0  0
  6 15  1  6  0  0  0
  6  1  1  0  0  0  0
  6  5  1  0  0  0  0
 10  3  1  0  0  0  0
 12  4  1  0  0  0  0
 14  5  1  0  0  0  0
 16 17  1  0  0  0  0
 17 18  2  0  0  0  0
 17  6  1  0  0  0  0
 18 19  1  0  0  0  0
 20 18  1  0  0  0  0
 21 20  1  0  0  0  0
 21 22  1  0  0  0  0
 23 21  1  0  0  0  0
 24 23  2  0  0  0  0
 24 26  1  0  0  0  0
 25 24  1  0  0  0  0
 26 20  2  0  0  0  0
 27 26  1  0  0  0  0
 27 16  2  0  0  0  0
 28 33  2  0  0  0  0
 28 29  1  0  0  0  0
 29 30  2  0  0  0  0
 30  1  1  0  0  0  0
 31 30  1  0  0  0  0
 32 36  1  0  0  0  0
 32 31  2  0  0  0  0
 33 32  1  0  0  0  0
 34 28  1  0  0  0  0
 35 29  1  0  0  0  0
M  END
>  <minimizedAffinity>
-5.30861378

$$$$

 OpenBabel03252502223D

 36 39  0  0  1  0  0  0  0  0999 V2000
   37.5150   30.5640   40.4460 N   0  0  0  0  0  0  0  0  0  0  0  0
   37.4760   32.0080   40.6800 C   0  0  0  0  0  0  0  0  0  0  0  0
   38.9640   32.4130   40.6690 C   0  0  0  0  0  0  0  0  0  0  0  0
   39.7070   31.7640   41.8050 C   0  0  0  0  0  0  0  0  0  0  0  0
   39.2270   30.4160   42.1760 C   0  0  0  0  0  0  0  0  0  0  0  0
   38.5320   29.7290   41.0220 C   0  0  1  0  0  0  0  0  0  0  0  0
   37.0430   32.4770   39.7870 H   0  0  0  0  0  0  0  0  0  0  0  0
   37.0350   32.2850   41.6370 H   0  0  0  0  0  0  0  0  0  0  0  0
   39.0530   33.5040   40.6980 H   0  0  0  0  0  0  0  0  0  0  0  0
   39.4040   32.0010   39.7230 H   0  0  0  0  0  0  0  0  0  0  0  0
   39.6280   32.4560   42.6780 H   0  0  0  0  0  0  0  0  0  0  0  0
   40.7940   31.7640   41.4990 H   0  0  0  0  0  0  0  0  0  0  0  0
   38.4680   30.4730   43.0080 H   0  0  0  0  0  0  0  0  0  0  0  0
   40.0640   29.7730   42.4850 H   0  0  0  0  0  0  0  0  0  0  0  0
   39.3170   29.6490   40.2400 H   0  0  0  0  0  0  0  0  0  0  0  0
   37.4050   28.1040   42.5460 C   0  0  0  0  0  3  0  0  0  0  0  0
   38.1040   28.3630   41.3590 C   0  0  0  0  0  0  0  0  0  0  0  0
   38.3260   27.2390   40.5900 C   0  0  0  0  0  0  0  0  0  0  0  0
   38.8560   27.3610   39.6660 H   0  0  0  0  0  0  0  0  0  0  0  0
   37.9170   25.9740   40.9250 C   0  0  0  0  0  0  0  0  0  0  0  0
   38.0340   24.7710   40.3220 N   0  0  0  0  0  0  0  0  0  0  0  0
   38.5110   24.5880   39.3950 H   0  0  0  0  0  0  0  0  0  0  0  0
   37.4570   23.8450   41.0710 N   0  0  0  0  0  0  0  0  0  0  0  0
   36.9490   24.4110   42.1800 C   0  0  0  0  0  0  0  0  0  0  0  0
   36.4150   23.9290   42.9940 H   0  0  0  0  0  0  0  0  0  0  0  0
   37.2320   25.7590   42.1010 C   0  0  0  0  0  0  0  0  0  0  0  0
   36.9840   26.8390   42.9030 C   0  0  0  0  0  3  0  0  0  0  0  0
   34.3330   29.0080   39.2730 C   0  0  0  0  0  0  0  0  0  0  0  0
   35.2640   29.6100   40.1140 C   0  0  0  0  0  0  0  0  0  0  0  0
   36.5320   29.9490   39.6290 C   0  0  0  0  0  0  0  0  0  0  0  0
   36.7670   29.6510   38.3270 N   0  0  0  0  0  0  0  0  0  0  0  0
   35.8580   29.0670   37.5210 C   0  0  0  0  0  0  0  0  0  0  0  0
   34.6430   28.7480   38.0010 N   0  0  0  0  0  0  0  0  0  0  0  0
   33.3520   28.7610   39.6960 H   0  0  0  0  0  0  0  0  0  0  0  0
   35.0070   29.8170   41.1370 H   0  0  0  0  0  0  0  0  0  0  0  0
   36.1560   28.8720   36.4800 H   0  0  0  0  0  0  0  0  0  0  0  0
  1  2  1  0  0  0  0
  1  6  1  0  0  0  0
  2  8  1  0  0  0  0
  3  2  1  0  0  0  0
  3  9  1  0  0  0  0
  3  4  1  0  0  0  0
  4  5  1  0  0  0  0
  4 11  1  0  0  0  0
  5 14  1  0  0  0  0
  5 13  1  0  0  0  0
  6 15  1  6  0  0  0
  6 17  1  0  0  0  0
  6  5  1  0  0  0  0
  7  2  1  0  0  0  0
 10  3  1  0  0  0  0
 12  4  1  0  0  0  0
 16 27  1  0  0  0  0
 17 16  2  0  0  0  0
 18 20  2  0  0  0  0
 18 17  1  0  0  0  0
 19 18  1  0  0  0  0
 20 26  1  0  0  0  0
 21 20  1  0  0  0  0
 21 23  1  0  0  0  0
 22 21  1  0  0  0  0
 23 24  2  0  0  0  0
 24 25  1  0  0  0  0
 26 24  1  0  0  0  0
 26 27  2  0  0  0  0
 28 34  1  0  0  0  0
 28 29  1  0  0  0  0
 29 35  1  0  0  0  0
 30 29  2  0  0  0  0
 30  1  1  0  0  0  0
 31 30  1  0  0  0  0
 32 33  1  0  0  0  0
 32 31  2  0  0  0  0
 33 28  2  0  0  0  0
 36 32  1  0  0  0  0
M  END
>  <minimizedAffinity>
-5.23416424

$$$$

 OpenBabel03252502223D

 36 39  0  0  1  0  0  0  0  0999 V2000
   38.0520   28.7600   41.1860 N   0  0  0  0  0  0  0  0  0  0  0  0
   38.0210   30.1240   40.6560 C   0  0  0  0  0  0  0  0  0  0  0  0
   36.6570   30.6630   41.1320 C   0  0  0  0  0  0  0  0  0  0  0  0
   35.5260   29.8850   40.5160 C   0  0  0  0  0  0  0  0  0  0  0  0
   35.8060   28.4510   40.2860 C   0  0  0  0  0  0  0  0  0  0  0  0
   36.8780   27.9310   41.2180 C   0  0  1  0  0  0  0  0  0  0  0  0
   38.7700   30.7090   41.2050 H   0  0  0  0  0  0  0  0  0  0  0  0
   38.0670   30.1720   39.5690 H   0  0  0  0  0  0  0  0  0  0  0  0
   36.5820   31.7320   40.9100 H   0  0  0  0  0  0  0  0  0  0  0  0
   36.6050   30.4800   42.2380 H   0  0  0  0  0  0  0  0  0  0  0  0
   35.2760   30.3890   39.5520 H   0  0  0  0  0  0  0  0  0  0  0  0
   34.6380   30.0450   41.1960 H   0  0  0  0  0  0  0  0  0  0  0  0
   36.1900   28.2780   39.2410 H   0  0  0  0  0  0  0  0  0  0  0  0
   34.9030   27.8440   40.4530 H   0  0  0  0  0  0  0  0  0  0  0  0
   36.4510   28.0760   42.2330 H   0  0  0  0  0  0  0  0  0  0  0  0
   37.0720   25.6180   42.1350 C   0  0  0  0  0  3  0  0  0  0  0  0
   37.1230   26.4920   41.0410 C   0  0  0  0  0  0  0  0  0  0  0  0
   37.4150   25.8680   39.8450 C   0  0  0  0  0  0  0  0  0  0  0  0
   37.4700   26.4750   38.9640 H   0  0  0  0  0  0  0  0  0  0  0  0
   37.6390   24.5220   39.7040 C   0  0  0  0  0  0  0  0  0  0  0  0
   37.9320   23.7360   38.6470 N   0  0  0  0  0  0  0  0  0  0  0  0
   38.0490   24.0640   37.6470 H   0  0  0  0  0  0  0  0  0  0  0  0
   38.0520   22.4810   39.0500 N   0  0  0  0  0  0  0  0  0  0  0  0
   37.8430   22.4100   40.3760 C   0  0  0  0  0  0  0  0  0  0  0  0
   37.8690   21.5290   41.0120 H   0  0  0  0  0  0  0  0  0  0  0  0
   37.5800   23.6950   40.8050 C   0  0  0  0  0  0  0  0  0  0  0  0
   37.2940   24.2610   42.0170 C   0  0  0  0  0  3  0  0  0  0  0  0
   40.7070   27.5420   43.5070 C   0  0  0  0  0  0  0  0  0  0  0  0
   39.5030   28.0800   43.0620 C   0  0  0  0  0  0  0  0  0  0  0  0
   39.2610   28.2190   41.6900 C   0  0  0  0  0  0  0  0  0  0  0  0
   40.2570   27.8040   40.8680 N   0  0  0  0  0  0  0  0  0  0  0  0
   41.4200   27.2840   41.3110 C   0  0  0  0  0  0  0  0  0  0  0  0
   41.6370   27.1570   42.6320 N   0  0  0  0  0  0  0  0  0  0  0  0
   40.8530   27.4530   44.5900 H   0  0  0  0  0  0  0  0  0  0  0  0
   38.7590   28.3880   43.7720 H   0  0  0  0  0  0  0  0  0  0  0  0
   42.1580   26.9790   40.5550 H   0  0  0  0  0  0  0  0  0  0  0  0
  1  6  1  0  0  0  0
  1 30  1  0  0  0  0
  2  3  1  0  0  0  0
  2  1  1  0  0  0  0
  2  7  1  0  0  0  0
  3 10  1  0  0  0  0
  4  3  1  0  0  0  0
  4 12  1  0  0  0  0
  5 14  1  0  0  0  0
  5  4  1  0  0  0  0
  5  6  1  0  0  0  0
  6 15  1  1  0  0  0
  8  2  1  0  0  0  0
  9  3  1  0  0  0  0
 11  4  1  0  0  0  0
 13  5  1  0  0  0  0
 17  6  1  0  0  0  0
 17 16  2  0  0  0  0
 18 17  1  0  0  0  0
 19 18  1  0  0  0  0
 20 18  2  0  0  0  0
 20 26  1  0  0  0  0
 21 23  1  0  0  0  0
 21 20  1  0  0  0  0
 22 21  1  0  0  0  0
 23 24  2  0  0  0  0
 24 26  1  0  0  0  0
 24 25  1  0  0  0  0
 26 27  2  0  0  0  0
 27 16  1  0  0  0  0
 28 34  1  0  0  0  0
 29 28  1  0  0  0  0
 29 35  1  0  0  0  0
 30 29  2  0  0  0  0
 31 32  2  0  0  0  0
 31 30  1  0  0  0  0
 32 33  1  0  0  0  0
 33 28  2  0  0  0  0
 36 32  1  0  0  0  0
M  END
>  <minimizedAffinity>
-5.14900208

$$$$

 OpenBabel03252502223D

 36 39  0  0  1  0  0  0  0  0999 V2000
   36.2390   29.3260   36.9500 N   0  0  0  0  0  0  0  0  0  0  0  0
   35.9320   28.8010   35.6190 C   0  0  0  0  0  0  0  0  0  0  0  0
   34.4760   29.2520   35.3820 C   0  0  0  0  0  0  0  0  0  0  0  0
   33.5460   28.6100   36.3760 C   0  0  0  0  0  0  0  0  0  0  0  0
   34.1250   28.3800   37.7170 C   0  0  0  0  0  0  0  0  0  0  0  0
   35.2650   29.3310   38.0070 C   0  0  1  0  0  0  0  0  0  0  0  0
   36.5300   29.3670   34.8940 H   0  0  0  0  0  0  0  0  0  0  0  0
   35.9870   27.7150   35.5540 H   0  0  0  0  0  0  0  0  0  0  0  0
   34.1820   29.0310   34.3510 H   0  0  0  0  0  0  0  0  0  0  0  0
   34.4440   30.3550   35.5800 H   0  0  0  0  0  0  0  0  0  0  0  0
   33.2140   27.6430   35.9280 H   0  0  0  0  0  0  0  0  0  0  0  0
   32.6320   29.2730   36.4110 H   0  0  0  0  0  0  0  0  0  0  0  0
   34.5570   27.3420   37.7970 H   0  0  0  0  0  0  0  0  0  0  0  0
   33.3680   28.5260   38.5010 H   0  0  0  0  0  0  0  0  0  0  0  0
   34.7980   30.3380   37.9630 H   0  0  0  0  0  0  0  0  0  0  0  0
   35.9890   30.2550   40.2100 C   0  0  0  0  0  3  0  0  0  0  0  0
   35.8100   29.1540   39.3610 C   0  0  0  0  0  0  0  0  0  0  0  0
   36.1880   27.9520   39.9240 C   0  0  0  0  0  0  0  0  0  0  0  0
   36.0800   27.0660   39.3320 H   0  0  0  0  0  0  0  0  0  0  0  0
   36.6940   27.8110   41.1910 C   0  0  0  0  0  0  0  0  0  0  0  0
   37.1130   26.7480   41.9100 N   0  0  0  0  0  0  0  0  0  0  0  0
   37.1210   25.7430   41.5780 H   0  0  0  0  0  0  0  0  0  0  0  0
   37.5170   27.1540   43.1030 N   0  0  0  0  0  0  0  0  0  0  0  0
   37.3760   28.4870   43.1990 C   0  0  0  0  0  0  0  0  0  0  0  0
   37.6140   29.1270   44.0440 H   0  0  0  0  0  0  0  0  0  0  0  0
   36.8550   28.9180   41.9960 C   0  0  0  0  0  0  0  0  0  0  0  0
   36.4960   30.1360   41.4880 C   0  0  0  0  0  3  0  0  0  0  0  0
   39.0510   31.6960   37.5780 C   0  0  0  0  0  0  0  0  0  0  0  0
   37.7700   31.2290   37.3000 C   0  0  0  0  0  0  0  0  0  0  0  0
   37.5250   29.8530   37.2290 C   0  0  0  0  0  0  0  0  0  0  0  0
   38.5970   29.0490   37.4430 N   0  0  0  0  0  0  0  0  0  0  0  0
   39.8340   29.5130   37.7100 C   0  0  0  0  0  0  0  0  0  0  0  0
   40.0530   30.8380   37.7760 N   0  0  0  0  0  0  0  0  0  0  0  0
   39.1960   32.7820   37.6240 H   0  0  0  0  0  0  0  0  0  0  0  0
   36.9680   31.9250   37.1420 H   0  0  0  0  0  0  0  0  0  0  0  0
   40.6300   28.7700   37.8680 H   0  0  0  0  0  0  0  0  0  0  0  0
  1 30  1  0  0  0  0
  1  6  1  0  0  0  0
  2  1  1  0  0  0  0
  3 10  1  0  0  0  0
  3  2  1  0  0  0  0
  3  4  1  0  0  0  0
  4 12  1  0  0  0  0
  4  5  1  0  0  0  0
  5 13  1  0  0  0  0
  5  6  1  0  0  0  0
  5 14  1  0  0  0  0
  6 15  1  6  0  0  0
  6 17  1  0  0  0  0
  7  2  1  0  0  0  0
  8  2  1  0  0  0  0
  9  3  1  0  0  0  0
 11  4  1  0  0  0  0
 16 27  1  0  0  0  0
 17 18  1  0  0  0  0
 17 16  2  0  0  0  0
 18 20  2  0  0  0  0
 19 18  1  0  0  0  0
 20 21  1  0  0  0  0
 20 26  1  0  0  0  0
 21 23  1  0  0  0  0
 22 21  1  0  0  0  0
 23 24  2  0  0  0  0
 24 25  1  0  0  0  0
 26 24  1  0  0  0  0
 27 26  2  0  0  0  0
 28 34  1  0  0  0  0
 28 33  1  0  0  0  0
 29 28  2  0  0  0  0
 30 29  1  0  0  0  0
 30 31  2  0  0  0  0
 31 32  1  0  0  0  0
 32 33  2  0  0  0  0
 32 36  1  0  0  0  0
 35 29  1  0  0  0  0
M  END
>  <minimizedAffinity>
-5.14896679

$$$$

 OpenBabel03252502223D

 36 39  0  0  1  0  0  0  0  0999 V2000
   38.3000   27.5950   41.6320 N   0  0  0  0  0  0  0  0  0  0  0  0
   38.4610   26.1540   41.8340 C   0  0  0  0  0  0  0  0  0  0  0  0
   38.7870   26.0370   43.3370 C   0  0  0  0  0  0  0  0  0  0  0  0
   40.0920   26.7130   43.6590 C   0  0  0  0  0  0  0  0  0  0  0  0
   40.3920   27.9110   42.8460 C   0  0  0  0  0  0  0  0  0  0  0  0
   39.1340   28.5520   42.3040 C   0  0  1  0  0  0  0  0  0  0  0  0
   37.4730   25.6910   41.7170 H   0  0  0  0  0  0  0  0  0  0  0  0
   39.2740   25.7180   41.2550 H   0  0  0  0  0  0  0  0  0  0  0  0
   38.7930   24.9840   43.6350 H   0  0  0  0  0  0  0  0  0  0  0  0
   37.9900   26.6030   43.8860 H   0  0  0  0  0  0  0  0  0  0  0  0
   40.8930   25.9470   43.5270 H   0  0  0  0  0  0  0  0  0  0  0  0
   40.0530   26.9430   44.7640 H   0  0  0  0  0  0  0  0  0  0  0  0
   41.0170   27.6420   41.9470 H   0  0  0  0  0  0  0  0  0  0  0  0
   40.9170   28.6700   43.4450 H   0  0  0  0  0  0  0  0  0  0  0  0
   38.5640   28.8440   43.2120 H   0  0  0  0  0  0  0  0  0  0  0  0
   40.2780   29.7590   40.4410 C   0  0  0  0  0  3  0  0  0  0  0  0
   39.4140   29.7800   41.5440 C   0  0  0  0  0  0  0  0  0  0  0  0
   38.8890   31.0280   41.8130 C   0  0  0  0  0  0  0  0  0  0  0  0
   38.2190   31.1210   42.6450 H   0  0  0  0  0  0  0  0  0  0  0  0
   39.1640   32.1600   41.0910 C   0  0  0  0  0  0  0  0  0  0  0  0
   38.7620   33.4450   41.1890 N   0  0  0  0  0  0  0  0  0  0  0  0
   38.0980   33.8300   41.9180 H   0  0  0  0  0  0  0  0  0  0  0  0
   39.3270   34.1600   40.2290 N   0  0  0  0  0  0  0  0  0  0  0  0
   40.1120   33.3670   39.4790 C   0  0  0  0  0  0  0  0  0  0  0  0
   40.7120   33.6430   38.6150 H   0  0  0  0  0  0  0  0  0  0  0  0
   40.0190   32.0980   40.0110 C   0  0  0  0  0  0  0  0  0  0  0  0
   40.5690   30.8850   39.6990 C   0  0  0  0  0  3  0  0  0  0  0  0
   35.1800   29.1650   40.3210 C   0  0  0  0  0  0  0  0  0  0  0  0
   36.1330   28.7010   41.2230 C   0  0  0  0  0  0  0  0  0  0  0  0
   37.2990   28.0830   40.7550 C   0  0  0  0  0  0  0  0  0  0  0  0
   37.4140   27.9790   39.4080 N   0  0  0  0  0  0  0  0  0  0  0  0
   36.4840   28.4320   38.5440 C   0  0  0  0  0  0  0  0  0  0  0  0
   35.3700   29.0240   39.0080 N   0  0  0  0  0  0  0  0  0  0  0  0
   34.2830   29.6420   40.7330 H   0  0  0  0  0  0  0  0  0  0  0  0
   35.9740   28.8180   42.2790 H   0  0  0  0  0  0  0  0  0  0  0  0
   36.6810   28.2950   37.4710 H   0  0  0  0  0  0  0  0  0  0  0  0
  1  2  1  0  0  0  0
  1  6  1  0  0  0  0
  2  3  1  0  0  0  0
  3  9  1  0  0  0  0
  3  4  1  0  0  0  0
  3 10  1  0  0  0  0
  4 12  1  0  0  0  0
  5 14  1  0  0  0  0
  5  4  1  0  0  0  0
  6  5  1  0  0  0  0
  6 15  1  1  0  0  0
  7  2  1  0  0  0  0
  8  2  1  0  0  0  0
 11  4  1  0  0  0  0
 13  5  1  0  0  0  0
 16 17  1  0  0  0  0
 17 18  2  0  0  0  0
 17  6  1  0  0  0  0
 18 19  1  0  0  0  0
 20 21  1  0  0  0  0
 20 18  1  0  0  0  0
 21 22  1  0  0  0  0
 23 21  1  0  0  0  0
 24 26  1  0  0  0  0
 24 23  2  0  0  0  0
 25 24  1  0  0  0  0
 26 20  2  0  0  0  0
 27 26  1  0  0  0  0
 27 16  2  0  0  0  0
 28 34  1  0  0  0  0
 28 29  1  0  0  0  0
 29 35  1  0  0  0  0
 30 29  2  0  0  0  0
 30  1  1  0  0  0  0
 31 30  1  0  0  0  0
 32 33  1  0  0  0  0
 32 31  2  0  0  0  0
 33 28  2  0  0  0  0
 36 32  1  0  0  0  0
M  END
>  <minimizedAffinity>
-5.12492085

$$$$
