REMARK  Name = 
REMARK  5 active torsions:
REMARK  status: ('A' for Active; 'I' for Inactive)
REMARK    1  A    between atoms: C_3  and  N_9
REMARK    2  A    between atoms: C_7  and  C_24
REMARK    3  A    between atoms: C_14  and  C_16
REMARK    4  A    between atoms: C_17  and  C_18
REMARK    5  A    between atoms: C_18  and  O_20
REMARK                            x       y       z     vdW  Elec       q    Type
REMARK                         _______ _______ _______ _____ _____    ______ ____
ROOT
ATOM      1  C   UNL     1      48.627  30.296  38.888  0.00  0.00    +0.000 C 
ATOM      2  C   UNL     1      49.321  31.411  39.041  0.00  0.00    +0.000 C 
ATOM      3  N   UNL     1      48.670  32.633  39.352  0.00  0.00    +0.000 N 
ATOM      4  C   UNL     1      48.666  33.864  40.038  0.00  0.00    +0.000 C 
ATOM      5  O   UNL     1      49.489  34.521  40.757  0.00  0.00    +0.000 OA
ATOM      6  C   UNL     1      47.277  34.210  39.637  0.00  0.00    +0.000 C 
ATOM      7  C   UNL     1      47.368  32.982  38.805  0.00  0.00    +0.000 C 
ATOM      8  S   UNL     1      46.251  31.637  39.273  0.00  0.00    +0.000 S 
ATOM      9  C   UNL     1      47.162  30.116  39.009  0.00  0.00    +0.000 C 
ATOM     10  H   UNL     1      46.946  29.342  39.789  0.00  0.00    +0.000 HD
ENDROOT
BRANCH   6  11
ATOM     11  C   UNL     1      46.377  34.201  40.789  0.00  0.00    +0.000 C 
ATOM     12  O   UNL     1      45.227  33.716  40.934  0.00  0.00    +0.000 OA
ATOM     13  N   UNL     1      46.893  34.857  41.952  0.00  0.00    +0.000 N 
ATOM     14  H   UNL     1      47.837  35.308  42.021  0.00  0.00    +0.000 HD
BRANCH  13  17
ATOM     15  C   UNL     1      44.538  36.046  44.566  0.00  0.00    +0.000 A 
ATOM     16  C   UNL     1      45.256  36.007  43.361  0.00  0.00    +0.000 A 
ATOM     17  C   UNL     1      46.137  34.953  43.153  0.00  0.00    +0.000 A 
ATOM     18  N   UNL     1      46.276  34.010  44.101  0.00  0.00    +0.000 NA
ATOM     19  C   UNL     1      45.568  34.066  45.270  0.00  0.00    +0.000 A 
ATOM     20  N   UNL     1      44.712  35.084  45.480  0.00  0.00    +0.000 NA
ATOM     21  H   UNL     1      43.877  36.904  44.637  0.00  0.00    +0.000 HD
ATOM     22  H   UNL     1      45.177  36.742  42.569  0.00  0.00    +0.000 HD
ATOM     23  H   UNL     1      45.690  33.288  46.039  0.00  0.00    +0.000 HD
ENDBRANCH  13  17
ENDBRANCH   6  11
BRANCH   1  24
ATOM     24  C   UNL     1      49.433  29.094  38.561  0.00  0.00    +0.000 C 
ATOM     25  H   UNL     1      49.952  29.340  37.588  0.00  0.00    +0.000 HD
ENDBRANCH   1  24
BRANCH   2  26
ATOM     26  C   UNL     1      50.777  31.438  38.895  0.00  0.00    +0.000 C 
ATOM     27  O   UNL     1      51.464  32.480  39.035  0.00  0.00    +0.000 OA
BRANCH  26  28
ATOM     28  O   UNL     1      51.720  30.470  38.601  0.00  0.00    +0.000 OA
ATOM     29  H   UNL     1      52.385  30.222  39.317  0.00  0.00    +0.000 HD
ENDBRANCH  26  28
ENDBRANCH   2  26
TORSDOF 5
