
 OpenBabel03242520453D

 29 31  0  0  1  0  0  0  0  0999 V2000
   42.6280   32.3560   40.3500 C   0  0  0  0  0  0  0  0  0  0  0  0
   43.3130   33.4490   40.6440 C   0  0  0  0  0  0  0  0  0  0  0  0
   44.5200   33.3220   41.3830 N   0  0  0  0  0  0  0  0  0  0  0  0
   45.9240   33.6680   41.4950 C   0  0  0  0  0  0  0  0  0  0  0  0
   46.6560   34.6040   41.0190 O   0  0  0  0  0  0  0  0  0  0  0  0
   46.1470   32.4740   42.3940 C   0  0  2  0  0  3  0  0  0  0  0  0
   44.6530   32.5450   42.6260 C   0  0  2  0  0  3  0  0  0  0  0  0
   43.7500   31.0010   42.3870 S   0  0  0  0  0  0  0  0  0  0  0  0
   43.0430   30.9940   40.7220 C   0  0  0  0  0  3  0  0  0  0  0  0
   42.1900   30.2930   40.6340 H   0  0  0  0  0  0  0  0  0  0  0  0
   46.9920   32.8290   43.5790 C   0  0  0  0  0  0  0  0  0  0  0  0
   48.1890   33.1060   43.3370 O   0  0  0  0  0  0  0  0  0  0  0  0
   45.0470   34.0290   46.4940 C   0  0  0  0  0  0  0  0  0  0  0  0
   45.6360   33.9700   45.2110 C   0  0  0  0  0  0  0  0  0  0  0  0
   46.4170   32.8400   44.8900 C   0  0  0  0  0  0  0  0  0  0  0  0
   46.5510   31.8780   45.8420 N   0  0  0  0  0  0  0  0  0  0  0  0
   45.9680   31.9780   47.0570 C   0  0  0  0  0  0  0  0  0  0  0  0
   45.2310   33.0450   47.3590 N   0  0  0  0  0  0  0  0  0  0  0  0
   44.2620   35.1580   46.8300 N   0  0  0  0  0  0  0  0  0  0  0  0
   45.4740   34.7880   44.5160 H   0  0  0  0  0  0  0  0  0  0  0  0
   46.1090   31.1790   47.7760 H   0  0  0  0  0  0  0  0  0  0  0  0
   44.9230   35.9760   46.9690 H   0  0  0  0  0  0  0  0  0  0  0  0
   43.2110   35.2180   46.9330 H   0  0  0  0  0  0  0  0  0  0  0  0
   41.3880   32.5350   39.5980 C   0  0  0  0  0  2  0  0  0  0  0  0
   40.6590   33.1660   40.1420 H   0  0  0  0  0  0  0  0  0  0  0  0
   42.8770   34.7830   40.2470 C   0  0  0  0  0  0  0  0  0  0  0  0
   42.2200   35.6080   40.9050 O   0  0  0  0  0  0  0  0  0  0  0  0
   43.0930   35.4360   39.0470 O   0  0  0  0  0  0  0  0  0  0  0  0
   42.3650   35.7740   38.4370 H   0  0  0  0  0  0  0  0  0  0  0  0
  1  2  2  0  0  0  0
  1  9  1  0  0  0  0
  2  3  1  0  0  0  0
  3  4  1  0  0  0  0
  3  7  1  0  0  0  0
  4  6  1  0  0  0  0
  5  4  2  0  0  0  0
  6  7  1  0  0  0  0
  6 11  1  1  0  0  0
  7  8  1  6  0  0  0
  9  8  1  0  0  0  0
 10  9  1  0  0  0  0
 11 15  1  0  0  0  0
 12 11  2  0  0  0  0
 13 19  1  0  0  0  0
 13 18  1  0  0  0  0
 14 13  2  0  0  0  0
 15 14  1  0  0  0  0
 15 16  2  0  0  0  0
 16 17  1  0  0  0  0
 17 18  2  0  0  0  0
 17 21  1  0  0  0  0
 19 23  1  0  0  0  0
 19 22  1  0  0  0  0
 20 14  1  0  0  0  0
 24 25  1  0  0  0  0
 24  1  1  0  0  0  0
 26  2  1  0  0  0  0
 26 27  2  0  0  0  0
 28 26  1  0  0  0  0
 29 28  1  0  0  0  0
M  END
>  <minimizedAffinity>
-5.08324051

>  <minimizedRMSD>
3.3640399

$$$$
