REMARK  Name = 
REMARK  6 active torsions:
REMARK  status: ('A' for Active; 'I' for Inactive)
REMARK    1  A    between atoms: C_2  and  C_13
REMARK    2  A    between atoms: C_3  and  C_7
REMARK    3  A    between atoms: C_13  and  C_31
REMARK    4  A    between atoms: C_21  and  C_23
REMARK    5  A    between atoms: C_24  and  C_25
REMARK    6  A    between atoms: C_25  and  O_27
REMARK                            x       y       z     vdW  Elec       q    Type
REMARK                         _______ _______ _______ _____ _____    ______ ____
ROOT
ATOM      1  C   UNL     1      45.269  36.166  43.170  0.00  0.00    +0.000 A 
ATOM      2  C   UNL     1      45.869  34.912  42.908  0.00  0.00    +0.000 A 
ATOM      3  C   UNL     1      45.830  33.950  43.892  0.00  0.00    +0.000 A 
ATOM      4  N   UNL     1      45.225  34.224  45.073  0.00  0.00    +0.000 NA
ATOM      5  C   UNL     1      44.648  35.442  45.312  0.00  0.00    +0.000 A 
ATOM      6  N   UNL     1      44.684  36.369  44.370  0.00  0.00    +0.000 NA
ATOM      7  H   UNL     1      45.279  36.948  42.421  0.00  0.00    +0.000 HD
ATOM      8  H   UNL     1      44.178  35.611  46.270  0.00  0.00    +0.000 HD
ENDROOT
BRANCH   3   9
ATOM      9  C   UNL     1      46.446  32.657  43.628  0.00  0.00    +0.000 A 
ATOM     10  C   UNL     1      45.667  31.575  43.296  0.00  0.00    +0.000 A 
ATOM     11  C   UNL     1      46.283  30.368  43.053  0.00  0.00    +0.000 A 
ATOM     12  C   UNL     1      47.655  30.183  43.126  0.00  0.00    +0.000 A 
ATOM     13  C   UNL     1      48.375  31.305  43.462  0.00  0.00    +0.000 A 
ATOM     14  N   UNL     1      47.764  32.486  43.699  0.00  0.00    +0.000 NA
ATOM     15  H   UNL     1      44.612  31.658  43.226  0.00  0.00    +0.000 HD
ATOM     16  H   UNL     1      45.669  29.493  42.787  0.00  0.00    +0.000 HD
ATOM     17  H   UNL     1      48.157  29.259  42.942  0.00  0.00    +0.000 HD
ATOM     18  H   UNL     1      49.448  31.248  43.540  0.00  0.00    +0.000 HD
ENDBRANCH   3   9
BRANCH   2  19
ATOM     19  C   UNL     1      46.493  34.684  41.639  0.00  0.00    +0.000 C 
ATOM     20  O   UNL     1      47.663  35.137  41.480  0.00  0.00    +0.000 OA
BRANCH  19  26
ATOM     21  C   UNL     1      41.691  34.093  40.750  0.00  0.00    +0.000 C 
ATOM     22  C   UNL     1      42.482  33.080  40.495  0.00  0.00    +0.000 C 
ATOM     23  N   UNL     1      43.896  33.227  40.525  0.00  0.00    +0.000 N 
ATOM     24  C   UNL     1      45.191  32.707  40.801  0.00  0.00    +0.000 C 
ATOM     25  O   UNL     1      45.655  31.585  41.173  0.00  0.00    +0.000 OA
ATOM     26  C   UNL     1      45.880  33.962  40.503  0.00  0.00    +0.000 C 
ATOM     27  C   UNL     1      44.547  34.474  40.090  0.00  0.00    +0.000 C 
ATOM     28  S   UNL     1      43.842  35.792  41.063  0.00  0.00    +0.000 S 
ATOM     29  C   UNL     1      42.089  35.456  41.087  0.00  0.00    +0.000 C 
ATOM     30  H   UNL     1      41.749  35.639  42.149  0.00  0.00    +0.000 HD
BRANCH  21  31
ATOM     31  C   UNL     1      40.252  33.825  40.689  0.00  0.00    +0.000 C 
ATOM     32  H   UNL     1      39.897  33.530  39.658  0.00  0.00    +0.000 HD
ENDBRANCH  21  31
BRANCH  22  33
ATOM     33  C   UNL     1      41.951  31.761  40.170  0.00  0.00    +0.000 C 
ATOM     34  O   UNL     1      40.751  31.402  40.086  0.00  0.00    +0.000 OA
BRANCH  33  35
ATOM     35  O   UNL     1      42.748  30.661  39.895  0.00  0.00    +0.000 OA
ATOM     36  H   UNL     1      42.543  29.705  40.137  0.00  0.00    +0.000 HD
ENDBRANCH  33  35
ENDBRANCH  22  33
ENDBRANCH  19  26
ENDBRANCH   2  19
TORSDOF 6
