
     RDKit          3D

 48 52  0  0  0  0  0  0  0  0999 V2000
   46.0457   31.7446   45.1523 C   0  0  0  0  0  0  0  0  0  0  0  0
   45.7530   33.0376   45.5619 C   0  0  0  0  0  0  0  0  0  0  0  0
   45.4690   33.2781   46.8884 C   0  0  0  0  0  0  0  0  0  0  0  0
   45.4777   32.2401   47.7921 C   0  0  0  0  0  0  0  0  0  0  0  0
   45.2474   32.1689   49.1117 N   0  0  0  0  0  0  0  0  0  0  0  0
   45.3833   30.8905   49.5429 C   0  0  0  0  0  0  0  0  0  0  0  0
   45.7136   30.1008   48.4677 C   0  0  0  0  0  0  0  0  0  0  0  0
   45.7725   30.9390   47.3787 C   0  0  0  0  0  0  0  0  0  0  0  0
   46.0571   30.6940   46.0530 C   0  0  0  0  0  0  0  0  0  0  0  0
   46.7155   34.9999   42.6487 C   0  0  0  0  0  0  0  0  0  0  0  0
   45.8242   36.0403   42.6377 C   0  0  0  0  0  0  0  0  0  0  0  0
   44.8604   36.0933   43.6419 C   0  0  0  0  0  0  0  0  0  0  0  0
   44.8673   35.1021   44.5741 N   0  0  0  0  0  0  0  0  0  0  0  0
   45.7607   34.0987   44.5477 C   0  0  0  0  0  0  0  0  0  0  0  0
   46.7002   34.0398   43.5755 N   0  0  0  0  0  0  0  0  0  0  0  0
   47.6762   35.0192   41.5793 C   0  0  0  0  0  0  0  0  0  0  0  0
   48.7918   35.6324   41.5773 O   0  0  0  0  0  0  0  0  0  0  0  0
   47.1297   34.2147   40.5221 N   0  0  0  0  0  0  0  0  0  0  0  0
   46.2757   31.4806   44.1418 H   0  0  0  0  0  0  0  0  0  0  0  0
   45.2388   34.2929   47.2121 H   0  0  0  0  0  0  0  0  0  0  0  0
   44.9962   32.9898   49.7281 H   0  0  0  0  0  0  0  0  0  0  0  0
   45.2389   30.6140   50.5833 H   0  0  0  0  0  0  0  0  0  0  0  0
   45.8908   29.0352   48.4785 H   0  0  0  0  0  0  0  0  0  0  0  0
   46.2801   29.6976   45.7514 H   0  0  0  0  0  0  0  0  0  0  0  0
   45.7865   36.8370   41.9239 H   0  0  0  0  0  0  0  0  0  0  0  0
   47.6871   33.3451   40.6762 H   0  0  0  0  0  0  0  0  0  0  0  0
   46.3863   34.5347   39.8576 H   0  0  0  0  0  0  0  0  0  0  0  0
   43.8272   37.1598   43.7612 C   0  0  0  0  0  0  0  0  0  0  0  0
   44.1352   38.1245   44.8229 C   0  0  0  0  0  0  0  0  0  0  0  0
   44.3029   39.4177   44.6173 C   0  0  0  0  0  0  0  0  0  0  0  0
   44.2066   40.0829   43.2968 C   0  0  0  0  0  0  0  0  0  0  0  0
   43.9753   39.7090   42.1410 O   0  0  0  0  0  0  0  0  0  0  0  0
   44.3856   41.4152   43.1277 O   0  0  0  0  0  0  0  0  0  0  0  0
   44.5931   40.2259   45.7385 N   0  0  0  0  0  0  0  0  0  0  0  0
   44.4275   41.4924   46.4073 C   0  0  0  0  0  0  0  0  0  0  0  0
   43.9703   42.6405   46.0948 O   0  0  0  0  0  0  0  0  0  0  0  0
   44.9958   41.0182   47.6705 C   0  0  1  0  0  0  0  0  0  0  0  0
   45.8189   41.6276   48.0975 H   0  0  0  0  0  0  0  0  0  0  0  0
   45.4103   39.8278   46.8697 C   0  0  1  0  0  0  0  0  0  0  0  0
   44.5517   38.3534   47.5432 S   0  0  0  0  0  0  0  0  0  0  0  0
   44.2165   37.3768   46.0805 C   0  0  1  0  0  0  0  0  0  0  0  0
   43.3595   36.6650   46.2478 H   0  0  0  0  0  0  0  0  0  0  0  0
   43.5889   37.6281   42.8123 H   0  0  0  0  0  0  0  0  0  0  0  0
   42.8727   36.6254   44.0608 H   0  0  0  0  0  0  0  0  0  0  0  0
   44.9605   41.8258   42.4199 H   0  0  0  0  0  0  0  0  0  0  0  0
   44.2305   40.8837   48.4447 H   0  0  0  0  0  0  0  0  0  0  0  0
   46.4728   39.6703   46.6762 H   0  0  0  0  0  0  0  0  0  0  0  0
   45.0972   36.6724   45.9748 H   0  0  0  0  0  0  0  0  0  0  0  0
  1  2  2  0
  1  9  1  0
  2  3  1  0
  3  4  2  0
  4  5  1  0
  5  6  1  0
  7  6  2  0
  8  4  1  0
  8  7  1  0
  9  8  2  0
 10 15  2  0
 11 10  1  0
 11 12  2  0
 12 13  1  0
 14 13  2  0
 14  2  1  0
 15 14  1  0
 16 10  1  0
 17 16  2  0
 18 16  1  0
  1 19  1  0
  3 20  1  0
  5 21  1  0
  6 22  1  0
  7 23  1  0
  9 24  1  0
 11 25  1  0
 18 26  1  0
 18 27  1  0
 28 29  1  0
 29 30  2  0
 30 31  1  0
 31 32  2  0
 31 33  1  0
 30 34  1  0
 34 35  1  0
 35 36  2  0
 35 37  1  0
 37 38  1  1
 37 39  1  0
 39 40  1  0
 40 41  1  0
 41 42  1  1
 41 29  1  0
 39 34  1  0
 28 43  1  0
 28 44  1  0
 33 45  1  0
 37 46  1  0
 39 47  1  6
 41 48  1  0
 12 28  1  0
M  ISO  8  19  14  20  14  21   9  22  14  23  14  24  14  25  14  38  15
M  ISO  1  42  15
M  END
>  <DihAtoms>  (1) 
10,11,27,28

>  <DihDeg>  (1) 
90.94905064347596

$$$$
