
     RDKit          3D

 34 36  0  0  0  0  0  0  0  0999 V2000
   44.9152   35.1335   44.0487 C   0  0  0  0  0  0  0  0  0  0  0  0
   45.7361   35.3894   42.9283 C   0  0  0  0  0  0  0  0  0  0  0  0
   46.9483   34.6758   42.8160 C   0  0  0  0  0  0  0  0  0  0  0  0
   47.2458   33.7851   43.7994 N   0  0  0  0  0  0  0  0  0  0  0  0
   46.4294   33.5727   44.8540 C   0  0  0  0  0  0  0  0  0  0  0  0
   45.2849   34.2474   44.9589 N   0  0  0  0  0  0  0  0  0  0  0  0
   43.6969   35.8415   44.1746 N   0  0  0  0  0  0  0  0  0  0  0  0
   47.7426   34.9722   41.6629 C   0  0  0  0  0  0  0  0  0  0  0  0
   48.6678   35.8174   41.6482 O   0  0  0  0  0  0  0  0  0  0  0  0
   45.4150   36.1202   42.1927 H   0  0  0  0  0  0  0  0  0  0  0  0
   46.7182   32.8498   45.6085 H   0  0  0  0  0  0  0  0  0  0  0  0
   43.9360   36.8433   44.4333 H   0  0  0  0  0  0  0  0  0  0  0  0
   42.7113   35.4799   44.0444 H   0  0  0  0  0  0  0  0  0  0  0  0
   47.1600   29.6622   37.3274 C   0  0  0  0  0  0  0  0  0  0  0  0
   47.3145   28.7826   37.9838 H   0  0  0  0  0  0  0  0  0  0  0  0
   47.3721   30.9207   38.0380 C   0  0  0  0  0  0  0  0  0  0  0  0
   46.5919   31.1612   39.0777 C   0  0  0  0  0  0  0  0  0  0  0  0
   45.5566   30.2324   39.5181 C   0  0  0  0  0  0  0  0  0  0  0  0
   44.7691   30.3499   40.4719 O   0  0  0  0  0  0  0  0  0  0  0  0
   45.2144   29.0068   38.9734 O   0  0  0  0  0  0  0  0  0  0  0  0
   46.7717   32.3702   39.8042 N   0  0  0  0  0  0  0  0  0  0  0  0
   46.1538   33.5453   40.3889 C   0  0  0  0  0  0  0  0  0  0  0  0
   44.9653   33.8415   40.7589 O   0  0  0  0  0  0  0  0  0  0  0  0
   47.4887   34.2535   40.3733 C   0  0  2  0  0  0  0  0  0  0  0  0
   48.0723   32.8587   40.2895 C   0  0  2  0  0  0  0  0  0  0  0  0
   49.2680   32.5900   38.9662 S   0  0  0  0  0  0  0  0  0  0  0  0
   48.4172   31.8390   37.5582 C   0  0  1  0  0  0  0  0  0  0  0  0
   49.1173   31.3086   36.8828 H   0  0  0  0  0  0  0  0  0  0  0  0
   47.8352   29.5507   36.4479 H   0  0  0  0  0  0  0  0  0  0  0  0
   46.1221   29.5578   36.8968 H   0  0  0  0  0  0  0  0  0  0  0  0
   45.2370   28.1307   39.4721 H   0  0  0  0  0  0  0  0  0  0  0  0
   47.6897   34.8339   39.4719 H   0  0  0  0  0  0  0  0  0  0  0  0
   48.3497   32.4181   41.2585 H   0  0  0  0  0  0  0  0  0  0  0  0
   47.9848   32.6909   36.9645 H   0  0  0  0  0  0  0  0  0  0  0  0
  1  7  1  0
  1  6  2  0
  2  1  1  0
  3  2  2  0
  3  4  1  0
  4  5  2  0
  5  6  1  0
  8  3  1  0
  9  8  2  0
  2 10  1  0
  5 11  1  0
  7 12  1  0
  7 13  1  0
 14 15  1  0
 14 16  1  0
 16 17  2  0
 17 18  1  0
 18 19  2  0
 18 20  1  0
 17 21  1  0
 21 22  1  0
 22 23  2  0
 22 24  1  0
 24 25  1  0
 25 26  1  0
 26 27  1  0
 27 28  1  6
 27 16  1  0
 25 21  1  0
 14 29  1  0
 14 30  1  0
 20 31  1  0
 24 32  1  6
 25 33  1  1
 27 34  1  0
  8 24  1  0
M  ISO  4  10  14  11  14  15   8  28  15
M  END
>  <DihAtoms>  (1) 
2,7,23,21

>  <DihDeg>  (1) 
-179.99765998644892

$$$$
