
 OpenBabel03252503093D

 34 38  0  0  1  0  0  0  0  0999 V2000
   46.3580   34.8080   41.7910 C   0  0  2  0  0  3  0  0  0  0  0  0
   47.5970   35.1480   41.7130 O   0  0  0  0  0  1  0  0  0  0  0  0
   44.7870   32.1900   37.4270 C   0  0  0  0  0  0  0  0  0  0  0  0
   44.1480   32.1540   38.5610 C   0  0  0  0  0  0  0  0  0  0  0  0
   44.5560   32.8560   39.7290 N   0  0  0  0  0  0  0  0  0  0  0  0
   44.3310   33.5850   40.9320 C   0  0  2  0  0  0  0  0  0  0  0  0
   43.4350   33.4770   41.8060 O   0  0  0  0  0  1  0  0  0  0  0  0
   45.5180   34.3700   40.6050 C   0  0  2  0  0  3  0  0  0  0  0  0
   45.9560   33.0330   40.0390 C   0  0  2  0  0  0  0  0  0  0  0  0
   47.0100   33.2540   38.6260 S   0  0  0  0  0  0  0  0  0  0  0  0
   46.0070   32.9510   37.1780 C   0  0  0  0  0  3  0  0  0  0  0  0
   46.6280   32.3610   36.4550 H   0  0  0  0  0  0  0  0  0  0  0  0
   44.1550   31.3730   36.3800 C   0  0  0  0  0  2  0  0  0  0  0  0
   44.5270   31.7290   35.3760 H   0  0  0  0  0  0  0  0  0  0  0  0
   42.9390   31.3430   38.6480 C   0  0  0  0  0  0  0  0  0  0  0  0
   42.4340   30.9060   39.7390 O   0  0  0  0  0  0  0  0  0  0  0  0
   41.8000   30.6030   38.4830 O   0  0  0  0  0  0  0  0  0  0  0  0
   41.4190   30.3920   37.5500 H   0  0  0  0  0  0  0  0  0  0  0  0
   45.1060   36.0270   43.5030 C   0  0  0  0  0  0  0  0  0  0  0  0
   45.8280   34.8880   43.0970 C   0  0  0  0  0  0  0  0  0  0  0  0
   45.9300   33.8930   44.0740 C   0  0  0  0  0  0  0  0  0  0  0  0
   45.3790   34.0200   45.2930 N   0  0  0  0  0  0  0  0  0  0  0  0
   44.6900   35.1460   45.6300 C   0  0  0  0  0  0  0  0  0  0  0  0
   44.5580   36.1440   44.7290 N   0  0  0  0  0  0  0  0  0  0  0  0
   45.0050   36.8250   42.7710 H   0  0  0  0  0  0  0  0  0  0  0  0
   44.2700   35.1950   46.6210 H   0  0  0  0  0  0  0  0  0  0  0  0
   46.6350   32.7360   43.7630 C   0  0  0  0  0  0  0  0  0  0  0  0
   47.9640   32.4080   43.6320 C   0  0  0  0  0  0  0  0  0  0  0  0
   48.4200   31.2220   43.3170 C   0  0  0  0  0  0  0  0  0  0  0  0
   47.4600   30.2510   43.1120 C   0  0  0  0  0  0  0  0  0  0  0  0
   45.8730   31.1780   43.4040 S   0  0  0  0  0  0  0  0  0  0  0  0
   48.8210   33.0430   43.7980 H   0  0  0  0  0  0  0  0  0  0  0  0
   49.3420   30.7100   43.1540 H   0  0  0  0  0  0  0  0  0  0  0  0
   47.3110   29.2140   42.8570 H   0  0  0  0  0  0  0  0  0  0  0  0
  1  2  1  6  0  0  0
  1 20  1  0  0  0  0
  3  4  2  0  0  0  0
  4 15  1  0  0  0  0
  4  5  1  0  0  0  0
  5  9  1  0  0  0  0
  5  6  1  0  0  0  0
  6  7  1  1  0  0  0
  8  6  1  0  0  0  0
  8  1  1  1  0  0  0
  9 10  1  1  0  0  0
  9  8  1  0  0  0  0
  9  6  1  0  0  0  0
 11  3  1  0  0  0  0
 11 10  1  0  0  0  0
 12 11  1  0  0  0  0
 13  3  1  0  0  0  0
 14 13  1  0  0  0  0
 15 16  2  0  0  0  0
 17 15  1  0  0  0  0
 18 17  1  0  0  0  0
 19 24  1  0  0  0  0
 20 19  2  0  0  0  0
 20 21  1  0  0  0  0
 21 22  2  0  0  0  0
 22 23  1  0  0  0  0
 23 26  1  0  0  0  0
 24 23  2  0  0  0  0
 25 19  1  0  0  0  0
 27 21  1  0  0  0  0
 28 27  2  0  0  0  0
 28 32  1  0  0  0  0
 29 28  1  0  0  0  0
 30 29  2  0  0  0  0
 30 31  1  0  0  0  0
 31 27  1  0  0  0  0
 33 29  1  0  0  0  0
 34 30  1  0  0  0  0
M  END
>  <minimizedAffinity>
-4.79183722

>  <minimizedRMSD>
1.84016943

$$$$
