REMARK  Name = 
REMARK  9 active torsions:
REMARK  status: ('A' for Active; 'I' for Inactive)
REMARK    1  A    between atoms: C_1  and  O_14
REMARK    2  A    between atoms: C_2  and  C_11
REMARK    3  A    between atoms: C_6  and  O_15
REMARK    4  A    between atoms: C_7  and  O_13
REMARK    5  A    between atoms: O_15  and  C_18
REMARK    6  A    between atoms: C_22  and  C_37
REMARK    7  A    between atoms: C_37  and  C_38
REMARK    8  A    between atoms: C_39  and  C_40
REMARK    9  A    between atoms: C_40  and  O_42
REMARK                            x       y       z     vdW  Elec       q    Type
REMARK                         _______ _______ _______ _____ _____    ______ ____
ROOT
ATOM      1  O   UNL     1      47.455  31.302  45.998  0.00  0.00    +0.000 OA
ENDROOT
BRANCH   1   7
ATOM      2  C   UNL     1      47.410  33.016  44.404  0.00  0.00    +0.000 C 
ATOM      3  C   UNL     1      47.227  33.291  42.954  0.00  0.00    +0.000 C 
ATOM      4  C   UNL     1      47.049  32.009  42.141  0.00  0.00    +0.000 C 
ATOM      5  O   UNL     1      48.161  31.234  42.466  0.00  0.00    +0.000 OA
ATOM      6  C   UNL     1      48.073  30.723  43.743  0.00  0.00    +0.000 C 
ATOM      7  C   UNL     1      47.196  31.512  44.662  0.00  0.00    +0.000 C 
ATOM      8  H   UNL     1      48.458  33.212  44.694  0.00  0.00    +0.000 HD
ATOM      9  H   UNL     1      48.133  33.808  42.541  0.00  0.00    +0.000 HD
ATOM     10  H   UNL     1      46.090  31.510  42.371  0.00  0.00    +0.000 HD
ATOM     11  H   UNL     1      47.072  32.230  41.060  0.00  0.00    +0.000 HD
ATOM     12  H   UNL     1      47.701  29.663  43.693  0.00  0.00    +0.000 HD
ATOM     13  H   UNL     1      49.098  30.654  44.190  0.00  0.00    +0.000 HD
ATOM     14  H   UNL     1      46.133  31.272  44.445  0.00  0.00    +0.000 HD
BRANCH   3  19
ATOM     15  C   UNL     1      44.976  36.172  42.778  0.00  0.00    +0.000 A 
ATOM     16  C   UNL     1      43.891  35.717  41.989  0.00  0.00    +0.000 A 
ATOM     17  C   UNL     1      43.981  34.372  41.527  0.00  0.00    +0.000 A 
ATOM     18  N   UNL     1      45.065  33.638  41.862  0.00  0.00    +0.000 NA
ATOM     19  C   UNL     1      46.066  34.129  42.616  0.00  0.00    +0.000 A 
ATOM     20  N   UNL     1      46.017  35.403  43.075  0.00  0.00    +0.000 NA
ATOM     21  H   UNL     1      43.075  36.360  41.770  0.00  0.00    +0.000 HD
ATOM     22  H   UNL     1      43.160  34.013  40.924  0.00  0.00    +0.000 HD
BRANCH  15  23
ATOM     23  O   UNL     1      44.891  37.455  43.220  0.00  0.00    +0.000 OA
ATOM     24  H   UNL     1      44.510  37.697  44.131  0.00  0.00    +0.000 HD
ENDBRANCH  15  23
ENDBRANCH   3  19
BRANCH   2  25
ATOM     25  O   UNL     1      46.539  33.727  45.229  0.00  0.00    +0.000 OA
ATOM     26  H   UNL     1      45.691  33.236  45.325  0.00  0.00    +0.000 HD
ENDBRANCH   2  25
ENDBRANCH   1   7
BRANCH   1  29
ATOM     27  F   UNL     1      45.918  29.100  46.282  0.00  0.00    +0.000 F 
ATOM     28  C   UNL     1      45.996  30.100  47.179  0.00  0.00    +0.000 A 
ATOM     29  C   UNL     1      46.746  31.252  47.114  0.00  0.00    +0.000 A 
ATOM     30  C   UNL     1      46.616  32.108  48.201  0.00  0.00    +0.000 A 
ATOM     31  C   UNL     1      45.823  31.905  49.300  0.00  0.00    +0.000 A 
ATOM     32  C   UNL     1      45.105  30.745  49.303  0.00  0.00    +0.000 A 
ATOM     33  C   UNL     1      45.161  29.804  48.255  0.00  0.00    +0.000 A 
ATOM     34  H   UNL     1      47.242  33.006  48.082  0.00  0.00    +0.000 HD
ATOM     35  H   UNL     1      45.831  32.660  50.052  0.00  0.00    +0.000 HD
ATOM     36  H   UNL     1      44.496  30.662  50.215  0.00  0.00    +0.000 HD
BRANCH  33  37
ATOM     37  C   UNL     1      44.294  28.642  48.589  0.00  0.00    +0.000 C 
BRANCH  37  38
ATOM     38  C   UNL     1      44.423  27.486  47.688  0.00  0.00    +0.000 C 
ATOM     39  C   UNL     1      44.852  26.333  48.187  0.00  0.00    +0.000 C 
ATOM     40  N   UNL     1      45.016  25.196  47.343  0.00  0.00    +0.000 N 
ATOM     41  C   UNL     1      45.146  23.826  47.205  0.00  0.00    +0.000 C 
ATOM     42  O   UNL     1      45.367  22.812  47.886  0.00  0.00    +0.000 OA
ATOM     43  C   UNL     1      44.913  23.858  45.759  0.00  0.00    +0.000 C 
ATOM     44  H   UNL     1      43.871  23.657  45.429  0.00  0.00    +0.000 HD
ATOM     45  C   UNL     1      45.121  25.317  45.921  0.00  0.00    +0.000 C 
ATOM     46  S   UNL     1      43.776  26.363  45.321  0.00  0.00    +0.000 S 
ATOM     47  C   UNL     1      44.030  27.833  46.331  0.00  0.00    +0.000 C 
ATOM     48  H   UNL     1      43.008  28.343  46.309  0.00  0.00    +0.000 HD
BRANCH  39  49
ATOM     49  C   UNL     1      45.221  26.097  49.608  0.00  0.00    +0.000 C 
ATOM     50  O   UNL     1      45.269  26.766  50.670  0.00  0.00    +0.000 OA
BRANCH  49  51
ATOM     51  O   UNL     1      45.653  24.885  50.090  0.00  0.00    +0.000 OA
ATOM     52  H   UNL     1      45.263  24.466  50.915  0.00  0.00    +0.000 HD
ENDBRANCH  49  51
ENDBRANCH  39  49
ENDBRANCH  37  38
ENDBRANCH  33  37
ENDBRANCH   1  29
TORSDOF 9
