
     RDKit          3D

 32 34  0  0  0  0  0  0  0  0999 V2000
   46.2202   34.8362   43.1906 C   0  0  0  0  0  0  0  0  0  0  0  0
   45.3267   35.9021   43.2813 C   0  0  0  0  0  0  0  0  0  0  0  0
   44.5561   36.0118   44.4525 C   0  0  0  0  0  0  0  0  0  0  0  0
   44.7414   35.0615   45.4184 N   0  0  0  0  0  0  0  0  0  0  0  0
   45.6133   34.0534   45.2866 C   0  0  0  0  0  0  0  0  0  0  0  0
   46.3542   33.9424   44.1677 N   0  0  0  0  0  0  0  0  0  0  0  0
   46.9562   34.8077   41.9687 C   0  0  0  0  0  0  0  0  0  0  0  0
   48.0589   35.3879   41.7282 O   0  0  0  0  0  0  0  0  0  0  0  0
   45.1859   36.6514   42.5107 H   0  0  0  0  0  0  0  0  0  0  0  0
   43.8459   36.8195   44.5780 H   0  0  0  0  0  0  0  0  0  0  0  0
   45.6609   33.3700   46.1278 H   0  0  0  0  0  0  0  0  0  0  0  0
   42.4552   36.4881   37.7168 C   0  0  0  0  0  0  0  0  0  0  0  0
   41.6324   37.0488   38.2034 H   0  0  0  0  0  0  0  0  0  0  0  0
   43.3922   36.0013   38.7620 C   0  0  0  0  0  0  0  0  0  0  0  0
   44.4058   35.3110   38.3106 C   0  0  0  0  0  0  0  0  0  0  0  0
   44.5973   35.0423   36.8780 C   0  0  0  0  0  0  0  0  0  0  0  0
   43.8746   35.4003   35.9159 O   0  0  0  0  0  0  0  0  0  0  0  0
   45.6591   34.3183   36.3681 O   0  0  0  0  0  0  0  0  0  0  0  0
   45.3693   34.7853   39.2162 N   0  0  0  0  0  0  0  0  0  0  0  0
   46.7656   34.5309   39.4789 C   0  0  0  0  0  0  0  0  0  0  0  0
   47.8764   34.6651   38.8599 O   0  0  0  0  0  0  0  0  0  0  0  0
   46.4187   34.0257   40.8116 C   0  0  2  0  0  0  0  0  0  0  0  0
   44.9742   34.1965   40.5081 C   0  0  1  0  0  0  0  0  0  0  0  0
   44.0980   35.4833   41.3823 S   0  0  0  0  0  0  0  0  0  0  0  0
   43.0927   36.3433   40.1687 C   0  0  2  0  0  0  0  0  0  0  0  0
   42.0288   36.0060   40.3428 H   0  0  0  0  0  0  0  0  0  0  0  0
   42.9270   37.2097   37.0155 H   0  0  0  0  0  0  0  0  0  0  0  0
   41.9564   35.6278   37.2003 H   0  0  0  0  0  0  0  0  0  0  0  0
   46.1472   34.5882   35.5278 H   0  0  0  0  0  0  0  0  0  0  0  0
   46.7617   32.9603   40.8818 H   0  0  0  0  0  0  0  0  0  0  0  0
   44.4770   33.2181   40.4068 H   0  0  0  0  0  0  0  0  0  0  0  0
   43.0504   37.4386   40.3409 H   0  0  0  0  0  0  0  0  0  0  0  0
  1  2  2  0
  1  6  1  0
  2  3  1  0
  3  4  2  0
  5  4  1  0
  6  5  2  0
  7  1  1  0
  8  7  2  0
  2  9  1  0
  3 10  1  0
  5 11  1  0
 12 13  1  0
 12 14  1  0
 14 15  2  0
 15 16  1  0
 16 17  2  0
 16 18  1  0
 15 19  1  0
 19 20  1  0
 20 21  2  0
 20 22  1  0
 22 23  1  0
 23 24  1  0
 24 25  1  0
 25 26  1  1
 25 14  1  0
 23 19  1  0
 12 27  1  0
 12 28  1  0
 18 29  1  0
 22 30  1  6
 23 31  1  6
 25 32  1  0
  7 22  1  0
M  ISO  5   9  14  10  14  11  14  13   8  26  15
M  END
>  <DihAtoms>  (1) 
0,6,21,19

>  <DihDeg>  (1) 
-59.99983712908399

$$$$
