
 OpenBabel03242518483D

 52 56  0  0  1  0  0  0  0  0999 V2000
   38.3870   32.7910   40.9330 O   0  0  0  0  0  0  0  0  0  0  0  0
   40.4560   33.5320   40.1250 C   0  0  2  0  0  0  0  0  0  0  0  0
   41.3130   34.7370   39.9710 C   0  0  1  0  0  0  0  0  0  0  0  0
   40.6160   36.0080   40.4570 C   0  0  0  0  0  0  0  0  0  0  0  0
   39.4140   36.0360   39.7520 O   0  0  0  0  0  0  0  0  0  0  0  0
   38.5290   35.0850   40.2120 C   0  0  0  0  0  0  0  0  0  0  0  0
   39.1750   33.9200   40.8890 C   0  0  1  0  0  0  0  0  0  0  0  0
   40.1080   33.1900   39.1340 H   0  0  0  0  0  0  0  0  0  0  0  0
   41.5590   34.9020   38.8890 H   0  0  0  0  0  0  0  0  0  0  0  0
   40.4760   36.0030   41.5530 H   0  0  0  0  0  0  0  0  0  0  0  0
   41.2080   36.9000   40.1890 H   0  0  0  0  0  0  0  0  0  0  0  0
   37.8000   35.5690   40.9180 H   0  0  0  0  0  0  0  0  0  0  0  0
   37.9060   34.7100   39.3590 H   0  0  0  0  0  0  0  0  0  0  0  0
   39.4640   34.2140   41.9210 H   0  0  0  0  0  0  0  0  0  0  0  0
   43.8090   35.2000   42.6080 C   0  0  0  0  0  0  0  0  0  0  0  0
   44.9880   34.6220   42.0760 C   0  0  0  0  0  0  0  0  0  0  0  0
   44.8720   34.0700   40.7670 C   0  0  0  0  0  0  0  0  0  0  0  0
   43.6780   34.1320   40.1360 N   0  0  0  0  0  0  0  0  0  0  0  0
   42.5920   34.6950   40.6970 C   0  0  0  0  0  0  0  0  0  0  0  0
   42.6620   35.2310   41.9400 N   0  0  0  0  0  0  0  0  0  0  0  0
   45.8880   34.6130   42.6390 H   0  0  0  0  0  0  0  0  0  0  0  0
   45.7630   33.6260   40.3500 H   0  0  0  0  0  0  0  0  0  0  0  0
   43.9190   35.7280   43.8560 O   0  0  0  0  0  0  0  0  0  0  0  0
   44.1220   36.7100   44.0200 H   0  0  0  0  0  0  0  0  0  0  0  0
   41.0710   32.4840   40.8100 O   0  0  0  0  0  0  0  0  0  0  0  0
   40.9460   32.5980   41.7800 H   0  0  0  0  0  0  0  0  0  0  0  0
   37.0950   30.6640   41.9810 F   0  0  0  0  0  0  0  0  0  0  0  0
   37.1590   30.9500   40.6670 C   0  0  0  0  0  0  0  0  0  0  0  0
   37.7940   32.0040   40.0500 C   0  0  0  0  0  0  0  0  0  0  0  0
   37.6870   32.0330   38.6650 C   0  0  0  0  0  0  0  0  0  0  0  0
   37.0230   31.1230   37.8850 C   0  0  0  0  0  0  0  0  0  0  0  0
   36.4160   30.1030   38.5580 C   0  0  0  0  0  0  0  0  0  0  0  0
   36.4570   29.9750   39.9610 C   0  0  0  0  0  0  0  0  0  0  0  0
   38.2170   32.9000   38.2400 H   0  0  0  0  0  0  0  0  0  0  0  0
   37.0350   31.2840   36.8320 H   0  0  0  0  0  0  0  0  0  0  0  0
   35.9100   29.4190   37.8600 H   0  0  0  0  0  0  0  0  0  0  0  0
   35.6670   28.7830   40.3710 C   0  0  0  0  0  2  0  0  0  0  0  0
   36.3440   27.4900   40.1860 C   0  0  0  0  0  0  0  0  0  0  0  0
   37.0110   26.9670   41.2090 C   0  0  0  0  0  0  0  0  0  0  0  0
   37.7030   25.7300   41.0650 N   0  0  0  0  0  0  0  0  0  0  0  0
   38.2940   24.6230   41.6460 C   0  0  0  0  0  0  0  0  0  0  0  0
   38.6870   24.2170   42.7510 O   0  0  0  0  0  0  0  0  0  0  0  0
   38.3640   23.8830   40.3830 C   0  0  0  0  0  3  0  0  0  0  0  0
   37.5330   23.1710   40.1900 H   0  0  0  0  0  0  0  0  0  0  0  0
   38.0520   25.2020   39.7810 C   0  0  1  0  0  3  0  0  0  0  0  0
   36.5930   25.2420   38.7150 S   0  0  0  0  0  0  0  0  0  0  0  0
   36.1460   26.9830   38.8380 C   0  0  0  0  0  3  0  0  0  0  0  0
   35.0410   26.9880   38.5470 H   0  0  0  0  0  0  0  0  0  0  0  0
   37.1380   27.5850   42.5570 C   0  0  0  0  0  0  0  0  0  0  0  0
   38.0450   28.1200   43.2410 O   0  0  0  0  0  0  0  0  0  0  0  0
   36.0950   27.6930   43.4430 O   0  0  0  0  0  0  0  0  0  0  0  0
   35.8730   28.5570   43.9060 H   0  0  0  0  0  0  0  0  0  0  0  0
  2  8  1  6  0  0  0
  2 25  1  0  0  0  0
  2  7  1  0  0  0  0
  3  9  1  6  0  0  0
  3  2  1  0  0  0  0
  3  4  1  0  0  0  0
  3 19  1  0  0  0  0
  4 10  1  0  0  0  0
  5  6  1  0  0  0  0
  5  4  1  0  0  0  0
  6  7  1  0  0  0  0
  6 12  1  0  0  0  0
  7  1  1  0  0  0  0
  7 14  1  1  0  0  0
 11  4  1  0  0  0  0
 13  6  1  0  0  0  0
 15 23  1  0  0  0  0
 16 15  1  0  0  0  0
 16 21  1  0  0  0  0
 17 16  2  0  0  0  0
 18 19  2  0  0  0  0
 18 17  1  0  0  0  0
 19 20  1  0  0  0  0
 20 15  2  0  0  0  0
 22 17  1  0  0  0  0
 23 24  1  0  0  0  0
 25 26  1  0  0  0  0
 28 27  1  0  0  0  0
 29 28  1  0  0  0  0
 29  1  1  0  0  0  0
 30 29  2  0  0  0  0
 31 32  2  0  0  0  0
 31 30  1  0  0  0  0
 32 33  1  0  0  0  0
 33 37  1  0  0  0  0
 33 28  2  0  0  0  0
 34 30  1  0  0  0  0
 35 31  1  0  0  0  0
 36 32  1  0  0  0  0
 38 37  1  0  0  0  0
 38 39  2  0  0  0  0
 39 49  1  0  0  0  0
 40 39  1  0  0  0  0
 40 41  1  0  0  0  0
 41 42  2  0  0  0  0
 43 41  1  0  0  0  0
 44 43  1  0  0  0  0
 45 46  1  6  0  0  0
 45 43  1  0  0  0  0
 45 40  1  0  0  0  0
 46 47  1  0  0  0  0
 47 38  1  0  0  0  0
 48 47  1  0  0  0  0
 49 50  2  0  0  0  0
 49 51  1  0  0  0  0
 51 52  1  0  0  0  0
M  END
>  <minimizedAffinity>
-7.8722167

$$$$

 OpenBabel03242518483D

 52 56  0  0  1  0  0  0  0  0999 V2000
   43.0730   29.8410   42.6080 O   0  0  0  0  0  0  0  0  0  0  0  0
   42.9000   31.9730   41.6570 C   0  0  2  0  0  0  0  0  0  0  0  0
   42.5710   32.6940   40.3990 C   0  0  1  0  0  0  0  0  0  0  0  0
   42.2770   31.7370   39.2450 C   0  0  0  0  0  0  0  0  0  0  0  0
   43.3990   30.9110   39.1840 O   0  0  0  0  0  0  0  0  0  0  0  0
   43.4340   30.0180   40.2330 C   0  0  0  0  0  0  0  0  0  0  0  0
   42.6790   30.4630   41.4450 C   0  0  1  0  0  0  0  0  0  0  0  0
   43.9780   32.0780   41.8800 H   0  0  0  0  0  0  0  0  0  0  0  0
   43.4410   33.3260   40.0770 H   0  0  0  0  0  0  0  0  0  0  0  0
   41.3370   31.1800   39.4060 H   0  0  0  0  0  0  0  0  0  0  0  0
   42.1910   32.2910   38.2940 H   0  0  0  0  0  0  0  0  0  0  0  0
   43.0340   29.0250   39.8890 H   0  0  0  0  0  0  0  0  0  0  0  0
   44.4990   29.8220   40.5210 H   0  0  0  0  0  0  0  0  0  0  0  0
   41.5930   30.2930   41.2790 H   0  0  0  0  0  0  0  0  0  0  0  0
   39.0970   33.8270   40.6080 C   0  0  0  0  0  0  0  0  0  0  0  0
   39.1930   35.2410   40.6130 C   0  0  0  0  0  0  0  0  0  0  0  0
   40.5130   35.7740   40.5410 C   0  0  0  0  0  0  0  0  0  0  0  0
   41.5580   34.9200   40.4740 N   0  0  0  0  0  0  0  0  0  0  0  0
   41.4020   33.5830   40.4730 C   0  0  0  0  0  0  0  0  0  0  0  0
   40.1630   33.0380   40.5400 N   0  0  0  0  0  0  0  0  0  0  0  0
   38.3190   35.8410   40.6700 H   0  0  0  0  0  0  0  0  0  0  0  0
   40.5990   36.8500   40.5450 H   0  0  0  0  0  0  0  0  0  0  0  0
   37.8390   33.3180   40.6760 O   0  0  0  0  0  0  0  0  0  0  0  0
   37.3040   33.0630   39.8490 H   0  0  0  0  0  0  0  0  0  0  0  0
   42.1390   32.3740   42.7550 O   0  0  0  0  0  0  0  0  0  0  0  0
   41.2950   31.8690   42.7810 H   0  0  0  0  0  0  0  0  0  0  0  0
   40.4910   29.0600   42.7370 F   0  0  0  0  0  0  0  0  0  0  0  0
   41.5320   28.3440   43.2030 C   0  0  0  0  0  0  0  0  0  0  0  0
   42.8700   28.6650   43.1810 C   0  0  0  0  0  0  0  0  0  0  0  0
   43.7170   27.7200   43.7460 C   0  0  0  0  0  0  0  0  0  0  0  0
   43.3390   26.5290   44.3090 C   0  0  0  0  0  0  0  0  0  0  0  0
   42.0000   26.2710   44.2990 C   0  0  0  0  0  0  0  0  0  0  0  0
   41.0500   27.1570   43.7520 C   0  0  0  0  0  0  0  0  0  0  0  0
   44.7690   28.0420   43.6940 H   0  0  0  0  0  0  0  0  0  0  0  0
   44.1120   25.9100   44.7040 H   0  0  0  0  0  0  0  0  0  0  0  0
   41.7830   25.3010   44.7700 H   0  0  0  0  0  0  0  0  0  0  0  0
   39.6930   26.5580   43.8670 C   0  0  0  0  0  2  0  0  0  0  0  0
   38.9080   26.5460   42.6230 C   0  0  0  0  0  0  0  0  0  0  0  0
   37.8180   27.3030   42.5490 C   0  0  0  0  0  0  0  0  0  0  0  0
   37.0150   27.3010   41.3710 N   0  0  0  0  0  0  0  0  0  0  0  0
   36.0530   27.9100   40.5870 C   0  0  0  0  0  0  0  0  0  0  0  0
   35.2020   28.8120   40.6440 O   0  0  0  0  0  0  0  0  0  0  0  0
   36.3300   27.0600   39.4260 C   0  0  0  0  0  3  0  0  0  0  0  0
   37.0230   27.4830   38.6680 H   0  0  0  0  0  0  0  0  0  0  0  0
   37.0870   26.2460   40.4070 C   0  0  1  0  0  3  0  0  0  0  0  0
   38.8200   25.9470   39.9930 S   0  0  0  0  0  0  0  0  0  0  0  0
   39.5040   25.6610   41.6360 C   0  0  0  0  0  3  0  0  0  0  0  0
   40.6160   25.8790   41.4950 H   0  0  0  0  0  0  0  0  0  0  0  0
   37.3080   28.1810   43.6350 C   0  0  0  0  0  0  0  0  0  0  0  0
   36.8140   28.0350   44.7800 O   0  0  0  0  0  0  0  0  0  0  0  0
   37.2850   29.5520   43.5550 O   0  0  0  0  0  0  0  0  0  0  0  0
   37.6430   30.1380   44.2880 H   0  0  0  0  0  0  0  0  0  0  0  0
  1 29  1  0  0  0  0
  2  8  1  1  0  0  0
  2 25  1  0  0  0  0
  3  9  1  6  0  0  0
  3 19  1  0  0  0  0
  3  2  1  0  0  0  0
  4 10  1  0  0  0  0
  4  3  1  0  0  0  0
  5  4  1  0  0  0  0
  5  6  1  0  0  0  0
  6 13  1  0  0  0  0
  6  7  1  0  0  0  0
  7 14  1  6  0  0  0
  7  2  1  0  0  0  0
  7  1  1  0  0  0  0
 11  4  1  0  0  0  0
 12  6  1  0  0  0  0
 15 16  1  0  0  0  0
 15 23  1  0  0  0  0
 16 21  1  0  0  0  0
 17 22  1  0  0  0  0
 17 16  2  0  0  0  0
 18 17  1  0  0  0  0
 19 18  2  0  0  0  0
 19 20  1  0  0  0  0
 20 15  2  0  0  0  0
 24 23  1  0  0  0  0
 25 26  1  0  0  0  0
 27 28  1  0  0  0  0
 28 33  1  0  0  0  0
 29 28  2  0  0  0  0
 29 30  1  0  0  0  0
 30 31  2  0  0  0  0
 31 35  1  0  0  0  0
 32 31  1  0  0  0  0
 32 36  1  0  0  0  0
 33 37  1  0  0  0  0
 33 32  2  0  0  0  0
 34 30  1  0  0  0  0
 38 37  1  0  0  0  0
 39 38  2  0  0  0  0
 39 49  1  0  0  0  0
 40 39  1  0  0  0  0
 41 42  2  0  0  0  0
 41 40  1  0  0  0  0
 43 41  1  0  0  0  0
 44 43  1  0  0  0  0
 45 43  1  6  0  0  0
 45 40  1  0  0  0  0
 46 45  1  0  0  0  0
 46 47  1  0  0  0  0
 47 38  1  0  0  0  0
 48 47  1  0  0  0  0
 49 50  2  0  0  0  0
 51 49  1  0  0  0  0
 51 52  1  0  0  0  0
M  END
>  <minimizedAffinity>
-7.48288345

$$$$

 OpenBabel03242518483D

 52 56  0  0  1  0  0  0  0  0999 V2000
   41.9020   29.3990   42.4540 O   0  0  0  0  0  0  0  0  0  0  0  0
   42.0110   31.6310   41.7570 C   0  0  2  0  0  0  0  0  0  0  0  0
   42.0200   32.5050   40.5540 C   0  0  1  0  0  0  0  0  0  0  0  0
   42.0070   31.6990   39.2550 C   0  0  0  0  0  0  0  0  0  0  0  0
   43.0930   30.8330   39.3720 O   0  0  0  0  0  0  0  0  0  0  0  0
   42.8490   29.8270   40.2810 C   0  0  0  0  0  0  0  0  0  0  0  0
   41.8230   30.1670   41.3140 C   0  0  1  0  0  0  0  0  0  0  0  0
   43.0000   31.6590   42.2490 H   0  0  0  0  0  0  0  0  0  0  0  0
   42.9530   33.1270   40.5350 H   0  0  0  0  0  0  0  0  0  0  0  0
   41.0460   31.1730   39.1100 H   0  0  0  0  0  0  0  0  0  0  0  0
   42.1720   32.3610   38.3870 H   0  0  0  0  0  0  0  0  0  0  0  0
   42.5300   28.9000   39.7310 H   0  0  0  0  0  0  0  0  0  0  0  0
   43.8040   29.5490   40.7970 H   0  0  0  0  0  0  0  0  0  0  0  0
   40.8110   30.0690   40.8670 H   0  0  0  0  0  0  0  0  0  0  0  0
   38.5890   33.7650   40.3570 C   0  0  0  0  0  0  0  0  0  0  0  0
   38.7410   35.1680   40.2410 C   0  0  0  0  0  0  0  0  0  0  0  0
   40.0820   35.6490   40.2350 C   0  0  0  0  0  0  0  0  0  0  0  0
   41.0950   34.7590   40.3360 N   0  0  0  0  0  0  0  0  0  0  0  0
   40.8850   33.4340   40.4450 C   0  0  0  0  0  0  0  0  0  0  0  0
   39.6240   32.9380   40.4540 N   0  0  0  0  0  0  0  0  0  0  0  0
   37.8900   35.8000   40.1670 H   0  0  0  0  0  0  0  0  0  0  0  0
   40.2120   36.7180   40.1470 H   0  0  0  0  0  0  0  0  0  0  0  0
   37.3090   33.3050   40.3620 O   0  0  0  0  0  0  0  0  0  0  0  0
   36.8360   32.9910   39.5190 H   0  0  0  0  0  0  0  0  0  0  0  0
   41.0060   31.9410   42.6730 O   0  0  0  0  0  0  0  0  0  0  0  0
   40.1730   31.4760   42.4280 H   0  0  0  0  0  0  0  0  0  0  0  0
   39.2080   29.4600   42.2790 F   0  0  0  0  0  0  0  0  0  0  0  0
   39.9180   28.4450   42.8040 C   0  0  0  0  0  0  0  0  0  0  0  0
   41.2830   28.3320   42.9340 C   0  0  0  0  0  0  0  0  0  0  0  0
   41.7290   27.1560   43.5250 C   0  0  0  0  0  0  0  0  0  0  0  0
   40.9420   26.1290   43.9770 C   0  0  0  0  0  0  0  0  0  0  0  0
   39.5980   26.3020   43.8190 C   0  0  0  0  0  0  0  0  0  0  0  0
   39.0360   27.4540   43.2320 C   0  0  0  0  0  0  0  0  0  0  0  0
   42.8280   27.1340   43.5970 H   0  0  0  0  0  0  0  0  0  0  0  0
   41.4370   25.2910   44.4100 H   0  0  0  0  0  0  0  0  0  0  0  0
   39.0420   25.4370   44.2080 H   0  0  0  0  0  0  0  0  0  0  0  0
   37.5570   27.3060   43.1760 C   0  0  0  0  0  2  0  0  0  0  0  0
   36.9580   27.5180   41.8490 C   0  0  0  0  0  0  0  0  0  0  0  0
   36.9840   26.5210   40.9710 C   0  0  0  0  0  0  0  0  0  0  0  0
   36.4380   26.6910   39.6660 N   0  0  0  0  0  0  0  0  0  0  0  0
   35.9490   26.1340   38.4980 C   0  0  0  0  0  0  0  0  0  0  0  0
   35.9010   25.0440   37.9050 O   0  0  0  0  0  0  0  0  0  0  0  0
   35.3830   27.3980   38.0230 C   0  0  0  0  0  3  0  0  0  0  0  0
   34.3060   27.5610   38.2390 H   0  0  0  0  0  0  0  0  0  0  0  0
   36.2100   27.9880   39.1030 C   0  0  1  0  0  3  0  0  0  0  0  0
   35.3130   28.9970   40.3040 S   0  0  0  0  0  0  0  0  0  0  0  0
   36.4050   28.8570   41.7300 C   0  0  0  0  0  3  0  0  0  0  0  0
   35.7180   29.1050   42.6080 H   0  0  0  0  0  0  0  0  0  0  0  0
   37.5790   25.1790   41.2130 C   0  0  0  0  0  0  0  0  0  0  0  0
   38.6400   24.5760   40.9170 O   0  0  0  0  0  0  0  0  0  0  0  0
   36.9540   24.1900   41.9330 O   0  0  0  0  0  0  0  0  0  0  0  0
   37.4180   23.6880   42.6690 H   0  0  0  0  0  0  0  0  0  0  0  0
  1 29  1  0  0  0  0
  2  8  1  1  0  0  0
  2 25  1  0  0  0  0
  3  9  1  1  0  0  0
  3  2  1  0  0  0  0
  4  5  1  0  0  0  0
  4  3  1  0  0  0  0
  5  6  1  0  0  0  0
  6 13  1  0  0  0  0
  6  7  1  0  0  0  0
  7 14  1  6  0  0  0
  7  2  1  0  0  0  0
  7  1  1  0  0  0  0
 10  4  1  0  0  0  0
 11  4  1  0  0  0  0
 12  6  1  0  0  0  0
 15 23  1  0  0  0  0
 15 20  1  0  0  0  0
 16 15  2  0  0  0  0
 17 16  1  0  0  0  0
 17 18  2  0  0  0  0
 18 19  1  0  0  0  0
 19 20  2  0  0  0  0
 19  3  1  0  0  0  0
 21 16  1  0  0  0  0
 22 17  1  0  0  0  0
 24 23  1  0  0  0  0
 26 25  1  0  0  0  0
 27 28  1  0  0  0  0
 28 29  2  0  0  0  0
 28 33  1  0  0  0  0
 29 30  1  0  0  0  0
 30 34  1  0  0  0  0
 30 31  2  0  0  0  0
 31 35  1  0  0  0  0
 32 31  1  0  0  0  0
 32 36  1  0  0  0  0
 33 32  2  0  0  0  0
 37 33  1  0  0  0  0
 38 37  1  0  0  0  0
 39 49  1  0  0  0  0
 39 38  2  0  0  0  0
 40 39  1  0  0  0  0
 41 40  1  0  0  0  0
 42 41  2  0  0  0  0
 43 44  1  0  0  0  0
 43 41  1  0  0  0  0
 45 43  1  6  0  0  0
 45 40  1  0  0  0  0
 45 46  1  0  0  0  0
 46 47  1  0  0  0  0
 47 38  1  0  0  0  0
 47 48  1  0  0  0  0
 49 51  1  0  0  0  0
 50 49  2  0  0  0  0
 51 52  1  0  0  0  0
M  END
>  <minimizedAffinity>
-7.42803764

$$$$

 OpenBabel03242518483D

 52 56  0  0  1  0  0  0  0  0999 V2000
   37.3570   27.8090   41.5390 O   0  0  0  0  0  0  0  0  0  0  0  0
   38.7870   26.9630   43.1890 C   0  0  2  0  0  0  0  0  0  0  0  0
   39.5940   25.7740   43.5720 C   0  0  1  0  0  0  0  0  0  0  0  0
   39.4260   24.6200   42.5830 C   0  0  0  0  0  0  0  0  0  0  0  0
   38.0490   24.4130   42.5210 O   0  0  0  0  0  0  0  0  0  0  0  0
   37.4110   25.4180   41.8270 C   0  0  0  0  0  0  0  0  0  0  0  0
   38.1520   26.7170   41.8060 C   0  0  1  0  0  0  0  0  0  0  0  0
   37.9340   27.0780   43.8820 H   0  0  0  0  0  0  0  0  0  0  0  0
   39.2630   25.3880   44.5720 H   0  0  0  0  0  0  0  0  0  0  0  0
   39.8740   24.8560   41.6010 H   0  0  0  0  0  0  0  0  0  0  0  0
   39.9070   23.7060   42.9710 H   0  0  0  0  0  0  0  0  0  0  0  0
   37.2250   25.0790   40.7710 H   0  0  0  0  0  0  0  0  0  0  0  0
   36.3940   25.5880   42.2650 H   0  0  0  0  0  0  0  0  0  0  0  0
   38.9700   26.6570   41.0560 H   0  0  0  0  0  0  0  0  0  0  0  0
   43.1710   25.6140   42.8140 C   0  0  0  0  0  0  0  0  0  0  0  0
   43.7730   26.4200   43.8110 C   0  0  0  0  0  0  0  0  0  0  0  0
   42.8820   27.0140   44.7500 C   0  0  0  0  0  0  0  0  0  0  0  0
   41.5570   26.7780   44.6330 N   0  0  0  0  0  0  0  0  0  0  0  0
   41.0440   26.0020   43.6600 C   0  0  0  0  0  0  0  0  0  0  0  0
   41.8590   25.4180   42.7480 N   0  0  0  0  0  0  0  0  0  0  0  0
   44.8260   26.5560   43.8330 H   0  0  0  0  0  0  0  0  0  0  0  0
   43.3290   27.6310   45.5160 H   0  0  0  0  0  0  0  0  0  0  0  0
   44.0210   25.0460   41.9170 O   0  0  0  0  0  0  0  0  0  0  0  0
   44.3930   24.1070   42.0340 H   0  0  0  0  0  0  0  0  0  0  0  0
   39.5210   28.1480   43.1250 O   0  0  0  0  0  0  0  0  0  0  0  0
   39.9330   28.2410   42.2360 H   0  0  0  0  0  0  0  0  0  0  0  0
   38.2910   30.3070   41.1130 F   0  0  0  0  0  0  0  0  0  0  0  0
   37.4140   29.6710   40.3150 C   0  0  0  0  0  0  0  0  0  0  0  0
   36.8860   28.4080   40.4580 C   0  0  0  0  0  0  0  0  0  0  0  0
   35.9910   28.0230   39.4670 C   0  0  0  0  0  0  0  0  0  0  0  0
   35.6010   28.7770   38.3910 C   0  0  0  0  0  0  0  0  0  0  0  0
   36.1600   30.0190   38.3080 C   0  0  0  0  0  0  0  0  0  0  0  0
   37.0800   30.5120   39.2550 C   0  0  0  0  0  0  0  0  0  0  0  0
   35.6100   27.0050   39.6440 H   0  0  0  0  0  0  0  0  0  0  0  0
   34.9020   28.3380   37.7170 H   0  0  0  0  0  0  0  0  0  0  0  0
   35.7930   30.5560   37.4220 H   0  0  0  0  0  0  0  0  0  0  0  0
   37.5220   31.8740   38.8500 C   0  0  0  0  0  2  0  0  0  0  0  0
   38.9720   32.0260   38.6520 C   0  0  0  0  0  0  0  0  0  0  0  0
   39.6020   33.0110   39.2840 C   0  0  0  0  0  0  0  0  0  0  0  0
   41.0010   33.2100   39.1000 N   0  0  0  0  0  0  0  0  0  0  0  0
   42.1920   33.7590   39.5390 C   0  0  0  0  0  0  0  0  0  0  0  0
   42.6180   34.5960   40.3500 O   0  0  0  0  0  0  0  0  0  0  0  0
   43.0060   32.9510   38.6270 C   0  0  0  0  0  3  0  0  0  0  0  0
   43.4340   32.0190   39.0530 H   0  0  0  0  0  0  0  0  0  0  0  0
   41.7030   32.6620   37.9810 C   0  0  1  0  0  3  0  0  0  0  0  0
   41.2860   30.9100   37.8280 S   0  0  0  0  0  0  0  0  0  0  0  0
   39.4880   31.0080   37.7530 C   0  0  0  0  0  3  0  0  0  0  0  0
   39.1580   29.9620   38.0710 H   0  0  0  0  0  0  0  0  0  0  0  0
   38.9590   33.9970   40.1940 C   0  0  0  0  0  0  0  0  0  0  0  0
   38.4210   35.1270   40.0930 O   0  0  0  0  0  0  0  0  0  0  0  0
   38.8190   33.8030   41.5460 O   0  0  0  0  0  0  0  0  0  0  0  0
   37.9440   33.9400   42.0200 H   0  0  0  0  0  0  0  0  0  0  0  0
  1  7  1  0  0  0  0
  2  3  1  0  0  0  0
  2  8  1  1  0  0  0
  3 19  1  0  0  0  0
  3  9  1  1  0  0  0
  4 11  1  0  0  0  0
  4  3  1  0  0  0  0
  5  4  1  0  0  0  0
  6 13  1  0  0  0  0
  6  5  1  0  0  0  0
  7 14  1  6  0  0  0
  7  6  1  0  0  0  0
  7  2  1  0  0  0  0
 10  4  1  0  0  0  0
 12  6  1  0  0  0  0
 15 16  1  0  0  0  0
 16 21  1  0  0  0  0
 16 17  2  0  0  0  0
 17 22  1  0  0  0  0
 18 17  1  0  0  0  0
 19 18  2  0  0  0  0
 20 15  2  0  0  0  0
 20 19  1  0  0  0  0
 23 24  1  0  0  0  0
 23 15  1  0  0  0  0
 25  2  1  0  0  0  0
 26 25  1  0  0  0  0
 28 29  1  0  0  0  0
 28 27  1  0  0  0  0
 29  1  1  0  0  0  0
 30 34  1  0  0  0  0
 30 29  2  0  0  0  0
 31 30  1  0  0  0  0
 32 31  2  0  0  0  0
 32 33  1  0  0  0  0
 33 28  2  0  0  0  0
 35 31  1  0  0  0  0
 36 32  1  0  0  0  0
 37 33  1  0  0  0  0
 38 37  1  0  0  0  0
 38 39  2  0  0  0  0
 39 49  1  0  0  0  0
 40 39  1  0  0  0  0
 40 41  1  0  0  0  0
 41 42  2  0  0  0  0
 43 44  1  0  0  0  0
 43 41  1  0  0  0  0
 45 46  1  1  0  0  0
 45 43  1  0  0  0  0
 45 40  1  0  0  0  0
 47 46  1  0  0  0  0
 47 48  1  0  0  0  0
 47 38  1  0  0  0  0
 49 51  1  0  0  0  0
 50 49  2  0  0  0  0
 51 52  1  0  0  0  0
M  END
>  <minimizedAffinity>
-7.25753975

$$$$

 OpenBabel03242518483D

 52 56  0  0  1  0  0  0  0  0999 V2000
   36.6450   30.3510   41.6780 O   0  0  0  0  0  0  0  0  0  0  0  0
   38.4100   31.3170   40.4800 C   0  0  2  0  0  0  0  0  0  0  0  0
   38.7310   32.1160   39.2680 C   0  0  1  0  0  0  0  0  0  0  0  0
   37.4930   32.3990   38.4180 C   0  0  0  0  0  0  0  0  0  0  0  0
   36.9420   31.1420   38.1760 O   0  0  0  0  0  0  0  0  0  0  0  0
   36.3450   30.6190   39.3030 C   0  0  0  0  0  0  0  0  0  0  0  0
   36.8810   31.1610   40.5900 C   0  0  1  0  0  0  0  0  0  0  0  0
   38.7970   30.2880   40.3660 H   0  0  0  0  0  0  0  0  0  0  0  0
   39.4460   31.5530   38.6120 H   0  0  0  0  0  0  0  0  0  0  0  0
   36.7950   33.0870   38.9300 H   0  0  0  0  0  0  0  0  0  0  0  0
   37.7800   32.8540   37.4550 H   0  0  0  0  0  0  0  0  0  0  0  0
   35.2370   30.8020   39.2550 H   0  0  0  0  0  0  0  0  0  0  0  0
   36.4590   29.5040   39.3040 H   0  0  0  0  0  0  0  0  0  0  0  0
   36.4430   32.1660   40.7710 H   0  0  0  0  0  0  0  0  0  0  0  0
   41.2220   34.7830   39.5460 C   0  0  0  0  0  0  0  0  0  0  0  0
   40.4830   35.9010   40.0050 C   0  0  0  0  0  0  0  0  0  0  0  0
   39.0900   35.6820   40.2110 C   0  0  0  0  0  0  0  0  0  0  0  0
   38.5780   34.4570   39.9630 N   0  0  0  0  0  0  0  0  0  0  0  0
   39.3340   33.4320   39.5260 C   0  0  0  0  0  0  0  0  0  0  0  0
   40.6630   33.6010   39.3190 N   0  0  0  0  0  0  0  0  0  0  0  0
   40.9620   36.8330   40.1760 H   0  0  0  0  0  0  0  0  0  0  0  0
   38.5150   36.5270   40.5610 H   0  0  0  0  0  0  0  0  0  0  0  0
   42.5510   34.9910   39.3500 O   0  0  0  0  0  0  0  0  0  0  0  0
   43.2490   34.7880   40.0610 H   0  0  0  0  0  0  0  0  0  0  0  0
   38.8760   31.8790   41.6680 O   0  0  0  0  0  0  0  0  0  0  0  0
   38.2170   32.5230   42.0160 H   0  0  0  0  0  0  0  0  0  0  0  0
   35.7710   27.9830   40.7170 F   0  0  0  0  0  0  0  0  0  0  0  0
   36.7110   28.1230   41.6700 C   0  0  0  0  0  0  0  0  0  0  0  0
   37.2110   29.2830   42.2160 C   0  0  0  0  0  0  0  0  0  0  0  0
   38.1830   29.1080   43.1940 C   0  0  0  0  0  0  0  0  0  0  0  0
   38.6690   27.9100   43.6460 C   0  0  0  0  0  0  0  0  0  0  0  0
   38.1330   26.7980   43.0650 C   0  0  0  0  0  0  0  0  0  0  0  0
   37.1430   26.8570   42.0630 C   0  0  0  0  0  0  0  0  0  0  0  0
   38.5370   30.0750   43.5860 H   0  0  0  0  0  0  0  0  0  0  0  0
   39.4160   27.9430   44.4060 H   0  0  0  0  0  0  0  0  0  0  0  0
   38.5740   25.8830   43.4850 H   0  0  0  0  0  0  0  0  0  0  0  0
   36.8080   25.4770   41.6190 C   0  0  0  0  0  2  0  0  0  0  0  0
   37.2940   25.1170   40.2780 C   0  0  0  0  0  0  0  0  0  0  0  0
   38.5230   24.6290   40.1550 C   0  0  0  0  0  0  0  0  0  0  0  0
   39.0430   24.2910   38.8720 N   0  0  0  0  0  0  0  0  0  0  0  0
   39.9700   23.6090   38.1060 C   0  0  0  0  0  0  0  0  0  0  0  0
   41.0460   23.0010   38.2220 O   0  0  0  0  0  0  0  0  0  0  0  0
   39.2310   23.8180   36.8580 C   0  0  0  0  0  3  0  0  0  0  0  0
   38.5610   22.9890   36.5450 H   0  0  0  0  0  0  0  0  0  0  0  0
   38.4720   24.8050   37.6650 C   0  0  1  0  0  3  0  0  0  0  0  0
   36.6820   24.5560   37.7110 S   0  0  0  0  0  0  0  0  0  0  0  0
   36.2800   25.3690   39.2680 C   0  0  0  0  0  3  0  0  0  0  0  0
   35.2780   24.8990   39.5540 H   0  0  0  0  0  0  0  0  0  0  0  0
   39.4760   24.4080   41.2770 C   0  0  0  0  0  0  0  0  0  0  0  0
   40.5920   24.8560   41.6360 O   0  0  0  0  0  0  0  0  0  0  0  0
   39.2560   23.5130   42.2940 O   0  0  0  0  0  0  0  0  0  0  0  0
   39.3600   23.7640   43.2610 H   0  0  0  0  0  0  0  0  0  0  0  0
  1 29  1  0  0  0  0
  2  8  1  6  0  0  0
  2  7  1  0  0  0  0
  2 25  1  0  0  0  0
  3  9  1  6  0  0  0
  3 19  1  0  0  0  0
  3  2  1  0  0  0  0
  4 10  1  0  0  0  0
  4  3  1  0  0  0  0
  5  4  1  0  0  0  0
  5  6  1  0  0  0  0
  6 13  1  0  0  0  0
  6  7  1  0  0  0  0
  7 14  1  1  0  0  0
  7  1  1  0  0  0  0
 11  4  1  0  0  0  0
 12  6  1  0  0  0  0
 15 16  1  0  0  0  0
 16 21  1  0  0  0  0
 16 17  2  0  0  0  0
 17 22  1  0  0  0  0
 18 17  1  0  0  0  0
 19 18  2  0  0  0  0
 20 19  1  0  0  0  0
 20 15  2  0  0  0  0
 23 15  1  0  0  0  0
 23 24  1  0  0  0  0
 25 26  1  0  0  0  0
 27 28  1  0  0  0  0
 28 33  2  0  0  0  0
 28 29  1  0  0  0  0
 29 30  2  0  0  0  0
 30 34  1  0  0  0  0
 30 31  1  0  0  0  0
 31 35  1  0  0  0  0
 32 36  1  0  0  0  0
 32 31  2  0  0  0  0
 33 32  1  0  0  0  0
 37 33  1  0  0  0  0
 38 37  1  0  0  0  0
 39 38  2  0  0  0  0
 39 49  1  0  0  0  0
 40 39  1  0  0  0  0
 41 42  2  0  0  0  0
 41 40  1  0  0  0  0
 43 41  1  0  0  0  0
 44 43  1  0  0  0  0
 45 43  1  6  0  0  0
 45 46  1  0  0  0  0
 45 40  1  0  0  0  0
 46 47  1  0  0  0  0
 47 48  1  0  0  0  0
 47 38  1  0  0  0  0
 49 50  2  0  0  0  0
 49 51  1  0  0  0  0
 51 52  1  0  0  0  0
M  END
>  <minimizedAffinity>
-7.23117161

$$$$

 OpenBabel03242518483D

 52 56  0  0  1  0  0  0  0  0999 V2000
   37.9690   28.0540   42.1230 O   0  0  0  0  0  0  0  0  0  0  0  0
   39.6370   26.9220   43.3130 C   0  0  2  0  0  0  0  0  0  0  0  0
   40.3710   25.6320   43.4030 C   0  0  1  0  0  0  0  0  0  0  0  0
   39.8500   24.6010   42.4020 C   0  0  0  0  0  0  0  0  0  0  0  0
   38.4820   24.5290   42.6580 O   0  0  0  0  0  0  0  0  0  0  0  0
   37.8180   25.6520   42.2130 C   0  0  0  0  0  0  0  0  0  0  0  0
   38.6760   26.8720   42.1100 C   0  0  1  0  0  0  0  0  0  0  0  0
   38.9860   27.0460   44.1980 H   0  0  0  0  0  0  0  0  0  0  0  0
   40.2390   25.1820   44.4220 H   0  0  0  0  0  0  0  0  0  0  0  0
   40.0820   24.8890   41.3610 H   0  0  0  0  0  0  0  0  0  0  0  0
   40.3010   23.6120   42.5950 H   0  0  0  0  0  0  0  0  0  0  0  0
   37.3560   25.4360   41.2110 H   0  0  0  0  0  0  0  0  0  0  0  0
   36.9550   25.8710   42.8930 H   0  0  0  0  0  0  0  0  0  0  0  0
   39.2860   26.8110   41.1830 H   0  0  0  0  0  0  0  0  0  0  0  0
   43.9650   25.9880   43.9970 C   0  0  0  0  0  0  0  0  0  0  0  0
   44.5430   25.8720   42.7090 C   0  0  0  0  0  0  0  0  0  0  0  0
   43.6290   25.6670   41.6350 C   0  0  0  0  0  0  0  0  0  0  0  0
   42.3070   25.5980   41.9080 N   0  0  0  0  0  0  0  0  0  0  0  0
   41.8190   25.7150   43.1560 C   0  0  0  0  0  0  0  0  0  0  0  0
   42.6550   25.9120   44.2040 N   0  0  0  0  0  0  0  0  0  0  0  0
   45.5950   25.9370   42.5810 H   0  0  0  0  0  0  0  0  0  0  0  0
   44.0570   25.5760   40.6480 H   0  0  0  0  0  0  0  0  0  0  0  0
   44.8360   26.1850   45.0230 O   0  0  0  0  0  0  0  0  0  0  0  0
   45.0750   27.1110   45.3690 H   0  0  0  0  0  0  0  0  0  0  0  0
   40.4650   28.0340   43.1630 O   0  0  0  0  0  0  0  0  0  0  0  0
   40.6680   28.1760   42.2100 H   0  0  0  0  0  0  0  0  0  0  0  0
   39.2060   29.7990   40.4740 F   0  0  0  0  0  0  0  0  0  0  0  0
   37.8810   29.5650   40.4860 C   0  0  0  0  0  0  0  0  0  0  0  0
   37.1710   28.7010   41.2890 C   0  0  0  0  0  0  0  0  0  0  0  0
   35.7990   28.6780   41.0700 C   0  0  0  0  0  0  0  0  0  0  0  0
   35.1150   29.4260   40.1480 C   0  0  0  0  0  0  0  0  0  0  0  0
   35.8760   30.2620   39.3840 C   0  0  0  0  0  0  0  0  0  0  0  0
   37.2750   30.3650   39.5190 C   0  0  0  0  0  0  0  0  0  0  0  0
   35.2970   27.9680   41.7450 H   0  0  0  0  0  0  0  0  0  0  0  0
   34.0580   29.2950   40.1030 H   0  0  0  0  0  0  0  0  0  0  0  0
   35.2510   30.8250   38.6750 H   0  0  0  0  0  0  0  0  0  0  0  0
   37.7970   31.3310   38.5160 C   0  0  0  0  0  2  0  0  0  0  0  0
   38.5990   32.4340   39.0680 C   0  0  0  0  0  0  0  0  0  0  0  0
   39.8780   32.5300   38.7220 C   0  0  0  0  0  0  0  0  0  0  0  0
   40.6960   33.5680   39.2540 N   0  0  0  0  0  0  0  0  0  0  0  0
   41.8440   34.3360   39.1770 C   0  0  0  0  0  0  0  0  0  0  0  0
   42.9370   34.3660   38.5910 O   0  0  0  0  0  0  0  0  0  0  0  0
   41.3650   35.3140   40.1570 C   0  0  0  0  0  3  0  0  0  0  0  0
   40.8870   36.2260   39.7410 H   0  0  0  0  0  0  0  0  0  0  0  0
   40.3340   34.2850   40.4380 C   0  0  1  0  0  3  0  0  0  0  0  0
   38.6220   34.8420   40.2860 S   0  0  0  0  0  0  0  0  0  0  0  0
   37.7990   33.2770   39.9420 C   0  0  0  0  0  3  0  0  0  0  0  0
   36.8270   33.6000   39.4370 H   0  0  0  0  0  0  0  0  0  0  0  0
   40.5900   31.6010   37.8040 C   0  0  0  0  0  0  0  0  0  0  0  0
   41.0140   30.4200   37.8380 O   0  0  0  0  0  0  0  0  0  0  0  0
   40.9760   31.9400   36.5300 O   0  0  0  0  0  0  0  0  0  0  0  0
   40.7770   31.3570   35.7370 H   0  0  0  0  0  0  0  0  0  0  0  0
  2  3  1  0  0  0  0
  2  8  1  1  0  0  0
  3  9  1  1  0  0  0
  4 11  1  0  0  0  0
  4  5  1  0  0  0  0
  4  3  1  0  0  0  0
  6  5  1  0  0  0  0
  6 13  1  0  0  0  0
  7 14  1  6  0  0  0
  7  1  1  0  0  0  0
  7  6  1  0  0  0  0
  7  2  1  0  0  0  0
 10  4  1  0  0  0  0
 12  6  1  0  0  0  0
 15 20  1  0  0  0  0
 15 23  1  0  0  0  0
 16 15  2  0  0  0  0
 17 18  2  0  0  0  0
 17 16  1  0  0  0  0
 18 19  1  0  0  0  0
 19  3  1  0  0  0  0
 19 20  2  0  0  0  0
 21 16  1  0  0  0  0
 22 17  1  0  0  0  0
 23 24  1  0  0  0  0
 25  2  1  0  0  0  0
 26 25  1  0  0  0  0
 27 28  1  0  0  0  0
 28 29  1  0  0  0  0
 29  1  1  0  0  0  0
 30 29  2  0  0  0  0
 30 34  1  0  0  0  0
 31 30  1  0  0  0  0
 32 33  1  0  0  0  0
 32 31  2  0  0  0  0
 33 28  2  0  0  0  0
 35 31  1  0  0  0  0
 36 32  1  0  0  0  0
 37 38  1  0  0  0  0
 37 33  1  0  0  0  0
 38 47  1  0  0  0  0
 39 38  2  0  0  0  0
 39 40  1  0  0  0  0
 40 45  1  0  0  0  0
 41 40  1  0  0  0  0
 41 43  1  0  0  0  0
 42 41  2  0  0  0  0
 44 43  1  0  0  0  0
 45 43  1  6  0  0  0
 46 45  1  0  0  0  0
 47 46  1  0  0  0  0
 48 47  1  0  0  0  0
 49 50  2  0  0  0  0
 49 39  1  0  0  0  0
 51 49  1  0  0  0  0
 52 51  1  0  0  0  0
M  END
>  <minimizedAffinity>
-7.08594227

$$$$

 OpenBabel03242518483D

 52 56  0  0  1  0  0  0  0  0999 V2000
   38.7580   32.4590   39.9470 O   0  0  0  0  0  0  0  0  0  0  0  0
   40.6570   33.7970   39.6500 C   0  0  2  0  0  0  0  0  0  0  0  0
   41.2650   35.1030   40.0210 C   0  0  1  0  0  0  0  0  0  0  0  0
   40.3240   35.9580   40.8700 C   0  0  0  0  0  0  0  0  0  0  0  0
   39.1530   36.0360   40.1190 O   0  0  0  0  0  0  0  0  0  0  0  0
   38.4620   34.8430   40.1220 C   0  0  0  0  0  0  0  0  0  0  0  0
   39.3120   33.6410   40.3860 C   0  0  1  0  0  0  0  0  0  0  0  0
   40.4000   33.7940   38.5760 H   0  0  0  0  0  0  0  0  0  0  0  0
   41.4930   35.6990   39.0980 H   0  0  0  0  0  0  0  0  0  0  0  0
   40.1690   35.5200   41.8720 H   0  0  0  0  0  0  0  0  0  0  0  0
   40.7350   36.9740   40.9970 H   0  0  0  0  0  0  0  0  0  0  0  0
   37.6400   34.8930   40.8880 H   0  0  0  0  0  0  0  0  0  0  0  0
   37.9400   34.7100   39.1390 H   0  0  0  0  0  0  0  0  0  0  0  0
   39.5190   33.5750   41.4750 H   0  0  0  0  0  0  0  0  0  0  0  0
   43.6830   35.4970   42.7400 C   0  0  0  0  0  0  0  0  0  0  0  0
   44.8540   34.8630   42.2570 C   0  0  0  0  0  0  0  0  0  0  0  0
   44.7610   34.2980   40.9520 C   0  0  0  0  0  0  0  0  0  0  0  0
   43.5950   34.4010   40.2780 N   0  0  0  0  0  0  0  0  0  0  0  0
   42.5140   35.0170   40.7930 C   0  0  0  0  0  0  0  0  0  0  0  0
   42.5630   35.5660   42.0300 N   0  0  0  0  0  0  0  0  0  0  0  0
   45.7330   34.8240   42.8520 H   0  0  0  0  0  0  0  0  0  0  0  0
   45.6480   33.8120   40.5720 H   0  0  0  0  0  0  0  0  0  0  0  0
   43.7710   36.0360   43.9850 O   0  0  0  0  0  0  0  0  0  0  0  0
   44.0100   37.0110   44.1440 H   0  0  0  0  0  0  0  0  0  0  0  0
   41.4520   32.6940   39.9610 O   0  0  0  0  0  0  0  0  0  0  0  0
   41.2910   32.4150   40.8910 H   0  0  0  0  0  0  0  0  0  0  0  0
   39.9020   30.7000   41.6470 F   0  0  0  0  0  0  0  0  0  0  0  0
   38.6020   30.6920   41.2960 C   0  0  0  0  0  0  0  0  0  0  0  0
   37.9410   31.5440   40.4410 C   0  0  0  0  0  0  0  0  0  0  0  0
   36.5870   31.2820   40.2720 C   0  0  0  0  0  0  0  0  0  0  0  0
   35.8770   30.2740   40.8690 C   0  0  0  0  0  0  0  0  0  0  0  0
   36.5900   29.4650   41.7040 C   0  0  0  0  0  0  0  0  0  0  0  0
   37.9670   29.6380   41.9510 C   0  0  0  0  0  0  0  0  0  0  0  0
   36.1230   32.0000   39.5770 H   0  0  0  0  0  0  0  0  0  0  0  0
   34.8400   30.2040   40.6340 H   0  0  0  0  0  0  0  0  0  0  0  0
   35.9490   28.6840   42.1380 H   0  0  0  0  0  0  0  0  0  0  0  0
   38.4240   28.6190   42.9340 C   0  0  0  0  0  2  0  0  0  0  0  0
   39.5660   27.8000   42.4990 C   0  0  0  0  0  0  0  0  0  0  0  0
   39.3480   26.8030   41.6470 C   0  0  0  0  0  0  0  0  0  0  0  0
   40.4220   25.9690   41.2200 N   0  0  0  0  0  0  0  0  0  0  0  0
   40.9330   25.0600   40.3120 C   0  0  0  0  0  0  0  0  0  0  0  0
   40.5640   24.3220   39.3850 O   0  0  0  0  0  0  0  0  0  0  0  0
   42.3060   25.2000   40.8050 C   0  0  0  0  0  3  0  0  0  0  0  0
   42.9510   25.9140   40.2510 H   0  0  0  0  0  0  0  0  0  0  0  0
   41.6530   25.8880   41.9460 C   0  0  1  0  0  3  0  0  0  0  0  0
   42.2450   27.5610   42.2840 S   0  0  0  0  0  0  0  0  0  0  0  0
   40.8030   28.2580   43.1100 C   0  0  0  0  0  3  0  0  0  0  0  0
   40.9450   29.3830   42.9740 H   0  0  0  0  0  0  0  0  0  0  0  0
   38.0240   26.4320   41.0800 C   0  0  0  0  0  0  0  0  0  0  0  0
   37.4050   26.6020   40.0010 O   0  0  0  0  0  0  0  0  0  0  0  0
   37.0800   25.7080   41.7670 O   0  0  0  0  0  0  0  0  0  0  0  0
   36.6240   24.9080   41.3670 H   0  0  0  0  0  0  0  0  0  0  0  0
  1  7  1  0  0  0  0
  1 29  1  0  0  0  0
  2  8  1  6  0  0  0
  2 25  1  0  0  0  0
  2  3  1  0  0  0  0
  2  7  1  0  0  0  0
  3  9  1  6  0  0  0
  3 19  1  0  0  0  0
  3  4  1  0  0  0  0
  4 11  1  0  0  0  0
  4 10  1  0  0  0  0
  5  6  1  0  0  0  0
  5  4  1  0  0  0  0
  6  7  1  0  0  0  0
  6 12  1  0  0  0  0
  7 14  1  1  0  0  0
 13  6  1  0  0  0  0
 15 23  1  0  0  0  0
 16 15  1  0  0  0  0
 16 21  1  0  0  0  0
 17 16  2  0  0  0  0
 18 19  2  0  0  0  0
 18 17  1  0  0  0  0
 19 20  1  0  0  0  0
 20 15  2  0  0  0  0
 22 17  1  0  0  0  0
 23 24  1  0  0  0  0
 25 26  1  0  0  0  0
 28 27  1  0  0  0  0
 28 33  1  0  0  0  0
 29 28  2  0  0  0  0
 30 29  1  0  0  0  0
 30 31  2  0  0  0  0
 31 32  1  0  0  0  0
 32 33  2  0  0  0  0
 32 36  1  0  0  0  0
 33 37  1  0  0  0  0
 34 30  1  0  0  0  0
 35 31  1  0  0  0  0
 38 37  1  0  0  0  0
 38 47  1  0  0  0  0
 39 38  2  0  0  0  0
 40 39  1  0  0  0  0
 40 45  1  0  0  0  0
 41 43  1  0  0  0  0
 41 40  1  0  0  0  0
 42 41  2  0  0  0  0
 44 43  1  0  0  0  0
 45 43  1  6  0  0  0
 45 46  1  0  0  0  0
 46 47  1  0  0  0  0
 48 47  1  0  0  0  0
 49 39  1  0  0  0  0
 49 51  1  0  0  0  0
 50 49  2  0  0  0  0
 52 51  1  0  0  0  0
M  END
>  <minimizedAffinity>
-7.04933691

$$$$

 OpenBabel03242518483D

 52 56  0  0  1  0  0  0  0  0999 V2000
   38.8950   32.3010   40.6920 O   0  0  0  0  0  0  0  0  0  0  0  0
   40.4380   33.2930   39.2380 C   0  0  2  0  0  0  0  0  0  0  0  0
   41.2810   34.5020   39.0380 C   0  0  1  0  0  0  0  0  0  0  0  0
   41.0640   35.5450   40.1340 C   0  0  0  0  0  0  0  0  0  0  0  0
   39.6880   35.7700   40.1320 O   0  0  0  0  0  0  0  0  0  0  0  0
   38.9960   34.7070   40.6710 C   0  0  0  0  0  0  0  0  0  0  0  0
   39.7180   33.4000   40.5960 C   0  0  1  0  0  0  0  0  0  0  0  0
   39.6300   33.2710   38.4850 H   0  0  0  0  0  0  0  0  0  0  0  0
   41.0200   35.0000   38.0670 H   0  0  0  0  0  0  0  0  0  0  0  0
   41.4450   35.1960   41.1110 H   0  0  0  0  0  0  0  0  0  0  0  0
   41.5790   36.4870   39.8790 H   0  0  0  0  0  0  0  0  0  0  0  0
   38.7470   34.9330   41.7440 H   0  0  0  0  0  0  0  0  0  0  0  0
   38.0060   34.6050   40.1550 H   0  0  0  0  0  0  0  0  0  0  0  0
   40.4870   33.3640   41.3980 H   0  0  0  0  0  0  0  0  0  0  0  0
   44.6620   33.8630   37.7890 C   0  0  0  0  0  0  0  0  0  0  0  0
   45.4580   33.8010   38.9590 C   0  0  0  0  0  0  0  0  0  0  0  0
   44.7670   33.9890   40.1910 C   0  0  0  0  0  0  0  0  0  0  0  0
   43.4340   34.2100   40.1640 N   0  0  0  0  0  0  0  0  0  0  0  0
   42.7320   34.2590   39.0160 C   0  0  0  0  0  0  0  0  0  0  0  0
   43.3530   34.0830   37.8250 N   0  0  0  0  0  0  0  0  0  0  0  0
   46.5030   33.6240   38.8930 H   0  0  0  0  0  0  0  0  0  0  0  0
   45.3630   33.9440   41.0900 H   0  0  0  0  0  0  0  0  0  0  0  0
   45.3200   33.6820   36.6130 O   0  0  0  0  0  0  0  0  0  0  0  0
   45.3930   32.7750   36.1600 H   0  0  0  0  0  0  0  0  0  0  0  0
   41.1520   32.0960   39.2170 O   0  0  0  0  0  0  0  0  0  0  0  0
   41.5050   31.8990   40.1150 H   0  0  0  0  0  0  0  0  0  0  0  0
   36.7130   30.7520   40.3300 F   0  0  0  0  0  0  0  0  0  0  0  0
   37.7660   30.4230   41.1000 C   0  0  0  0  0  0  0  0  0  0  0  0
   38.9110   31.1480   41.3410 C   0  0  0  0  0  0  0  0  0  0  0  0
   39.8290   30.5430   42.1910 C   0  0  0  0  0  0  0  0  0  0  0  0
   39.6910   29.3200   42.7930 C   0  0  0  0  0  0  0  0  0  0  0  0
   38.5340   28.6530   42.5140 C   0  0  0  0  0  0  0  0  0  0  0  0
   37.5350   29.1700   41.6640 C   0  0  0  0  0  0  0  0  0  0  0  0
   40.7170   31.1770   42.3390 H   0  0  0  0  0  0  0  0  0  0  0  0
   40.4860   28.9940   43.4230 H   0  0  0  0  0  0  0  0  0  0  0  0
   38.5020   27.6850   43.0360 H   0  0  0  0  0  0  0  0  0  0  0  0
   36.4310   28.1800   41.5430 C   0  0  0  0  0  2  0  0  0  0  0  0
   36.4890   27.3240   40.3470 C   0  0  0  0  0  0  0  0  0  0  0  0
   36.8810   26.0620   40.4840 C   0  0  0  0  0  0  0  0  0  0  0  0
   36.9750   25.2060   39.3490 N   0  0  0  0  0  0  0  0  0  0  0  0
   37.0440   23.9280   38.8240 C   0  0  0  0  0  0  0  0  0  0  0  0
   37.2400   22.7560   39.1830 O   0  0  0  0  0  0  0  0  0  0  0  0
   36.7760   24.3760   37.4550 C   0  0  0  0  0  3  0  0  0  0  0  0
   35.7190   24.3130   37.1210 H   0  0  0  0  0  0  0  0  0  0  0  0
   37.0500   25.7220   38.0160 C   0  0  1  0  0  3  0  0  0  0  0  0
   35.7350   26.9400   37.7850 S   0  0  0  0  0  0  0  0  0  0  0  0
   36.0760   28.0530   39.1600 C   0  0  0  0  0  3  0  0  0  0  0  0
   35.0760   28.5820   39.3190 H   0  0  0  0  0  0  0  0  0  0  0  0
   37.2760   25.4200   41.7670 C   0  0  0  0  0  0  0  0  0  0  0  0
   38.3260   25.2830   42.4410 O   0  0  0  0  0  0  0  0  0  0  0  0
   36.3990   24.7450   42.5800 O   0  0  0  0  0  0  0  0  0  0  0  0
   36.3380   24.9220   43.5670 H   0  0  0  0  0  0  0  0  0  0  0  0
  1 29  1  0  0  0  0
  2  8  1  6  0  0  0
  2  7  1  0  0  0  0
  3  9  1  6  0  0  0
  3  2  1  0  0  0  0
  3  4  1  0  0  0  0
  4 10  1  0  0  0  0
  5  4  1  0  0  0  0
  5  6  1  0  0  0  0
  6 12  1  0  0  0  0
  7  6  1  0  0  0  0
  7  1  1  0  0  0  0
  7 14  1  1  0  0  0
 11  4  1  0  0  0  0
 13  6  1  0  0  0  0
 15 20  2  0  0  0  0
 15 16  1  0  0  0  0
 16 17  2  0  0  0  0
 17 22  1  0  0  0  0
 18 17  1  0  0  0  0
 19  3  1  0  0  0  0
 19 18  2  0  0  0  0
 20 19  1  0  0  0  0
 21 16  1  0  0  0  0
 23 15  1  0  0  0  0
 24 23  1  0  0  0  0
 25  2  1  0  0  0  0
 25 26  1  0  0  0  0
 27 28  1  0  0  0  0
 28 29  2  0  0  0  0
 28 33  1  0  0  0  0
 29 30  1  0  0  0  0
 30 34  1  0  0  0  0
 30 31  2  0  0  0  0
 31 35  1  0  0  0  0
 32 31  1  0  0  0  0
 32 36  1  0  0  0  0
 33 32  2  0  0  0  0
 37 33  1  0  0  0  0
 38 39  2  0  0  0  0
 38 37  1  0  0  0  0
 39 49  1  0  0  0  0
 40 39  1  0  0  0  0
 41 42  2  0  0  0  0
 41 40  1  0  0  0  0
 43 41  1  0  0  0  0
 44 43  1  0  0  0  0
 45 43  1  6  0  0  0
 45 40  1  0  0  0  0
 46 45  1  0  0  0  0
 46 47  1  0  0  0  0
 47 48  1  0  0  0  0
 47 38  1  0  0  0  0
 49 50  2  0  0  0  0
 49 51  1  0  0  0  0
 51 52  1  0  0  0  0
M  END
>  <minimizedAffinity>
-7.01244402

$$$$

 OpenBabel03242518483D

 52 56  0  0  1  0  0  0  0  0999 V2000
   38.4800   24.6280   40.4490 O   0  0  0  0  0  0  0  0  0  0  0  0
   36.9490   23.9340   38.8200 C   0  0  2  0  0  0  0  0  0  0  0  0
   36.1490   22.7690   38.3540 C   0  0  1  0  0  0  0  0  0  0  0  0
   36.4300   21.5110   39.1760 C   0  0  0  0  0  0  0  0  0  0  0  0
   37.8130   21.3520   39.1070 O   0  0  0  0  0  0  0  0  0  0  0  0
   38.4740   22.2890   39.8700 C   0  0  0  0  0  0  0  0  0  0  0  0
   37.6990   23.5460   40.1090 C   0  0  1  0  0  0  0  0  0  0  0  0
   37.7400   24.1650   38.0840 H   0  0  0  0  0  0  0  0  0  0  0  0
   36.4100   22.5210   37.2910 H   0  0  0  0  0  0  0  0  0  0  0  0
   36.0550   21.6080   40.2110 H   0  0  0  0  0  0  0  0  0  0  0  0
   35.9460   20.6320   38.7150 H   0  0  0  0  0  0  0  0  0  0  0  0
   38.7540   21.8320   40.8590 H   0  0  0  0  0  0  0  0  0  0  0  0
   39.4480   22.5510   39.3820 H   0  0  0  0  0  0  0  0  0  0  0  0
   36.9460   23.3630   40.9050 H   0  0  0  0  0  0  0  0  0  0  0  0
   32.7160   22.8380   39.6220 C   0  0  0  0  0  0  0  0  0  0  0  0
   31.9480   23.2820   38.5180 C   0  0  0  0  0  0  0  0  0  0  0  0
   32.6760   23.5530   37.3240 C   0  0  0  0  0  0  0  0  0  0  0  0
   34.0150   23.3730   37.3210 N   0  0  0  0  0  0  0  0  0  0  0  0
   34.6900   22.9490   38.4050 C   0  0  0  0  0  0  0  0  0  0  0  0
   34.0330   22.6800   39.5600 N   0  0  0  0  0  0  0  0  0  0  0  0
   30.8960   23.3980   38.6040 H   0  0  0  0  0  0  0  0  0  0  0  0
   32.1010   23.8930   36.4750 H   0  0  0  0  0  0  0  0  0  0  0  0
   32.0220   22.5780   40.7620 O   0  0  0  0  0  0  0  0  0  0  0  0
   31.6850   21.6490   40.9990 H   0  0  0  0  0  0  0  0  0  0  0  0
   36.1880   25.0720   39.0860 O   0  0  0  0  0  0  0  0  0  0  0  0
   35.8460   25.0400   40.0080 H   0  0  0  0  0  0  0  0  0  0  0  0
   37.6830   27.1940   40.7120 F   0  0  0  0  0  0  0  0  0  0  0  0
   38.4090   26.5210   41.6230 C   0  0  0  0  0  0  0  0  0  0  0  0
   38.8580   25.2210   41.5690 C   0  0  0  0  0  0  0  0  0  0  0  0
   39.5950   24.8000   42.6700 C   0  0  0  0  0  0  0  0  0  0  0  0
   39.9040   25.5540   43.7720 C   0  0  0  0  0  0  0  0  0  0  0  0
   39.4300   26.8330   43.7640 C   0  0  0  0  0  0  0  0  0  0  0  0
   38.6710   27.3640   42.7020 C   0  0  0  0  0  0  0  0  0  0  0  0
   39.9210   23.7550   42.5590 H   0  0  0  0  0  0  0  0  0  0  0  0
   40.4830   25.0860   44.5350 H   0  0  0  0  0  0  0  0  0  0  0  0
   39.7240   27.3670   44.6790 H   0  0  0  0  0  0  0  0  0  0  0  0
   38.2810   28.7630   43.0250 C   0  0  0  0  0  2  0  0  0  0  0  0
   38.8240   29.7880   42.1200 C   0  0  0  0  0  0  0  0  0  0  0  0
   37.9920   30.4170   41.2970 C   0  0  0  0  0  0  0  0  0  0  0  0
   38.4800   31.3980   40.3850 N   0  0  0  0  0  0  0  0  0  0  0  0
   38.2340   32.4730   39.5500 C   0  0  0  0  0  0  0  0  0  0  0  0
   37.2880   33.0700   39.0120 O   0  0  0  0  0  0  0  0  0  0  0  0
   39.6530   32.8130   39.4190 C   0  0  0  0  0  3  0  0  0  0  0  0
   40.0290   33.6020   40.1040 H   0  0  0  0  0  0  0  0  0  0  0  0
   39.8630   31.4750   40.0250 C   0  0  1  0  0  3  0  0  0  0  0  0
   40.8630   31.4540   41.5300 S   0  0  0  0  0  0  0  0  0  0  0  0
   40.2570   29.9430   42.3020 C   0  0  0  0  0  3  0  0  0  0  0  0
   40.5260   30.0900   43.4030 H   0  0  0  0  0  0  0  0  0  0  0  0
   36.5270   30.1730   41.2050 C   0  0  0  0  0  0  0  0  0  0  0  0
   35.7720   29.2320   40.8600 O   0  0  0  0  0  0  0  0  0  0  0  0
   35.5800   31.1080   41.5430 O   0  0  0  0  0  0  0  0  0  0  0  0
   34.8070   30.8930   42.1480 H   0  0  0  0  0  0  0  0  0  0  0  0
  1 29  1  0  0  0  0
  2  8  1  6  0  0  0
  2 25  1  0  0  0  0
  2  7  1  0  0  0  0
  3  9  1  6  0  0  0
  3 19  1  0  0  0  0
  3  2  1  0  0  0  0
  3  4  1  0  0  0  0
  4 10  1  0  0  0  0
  5  4  1  0  0  0  0
  5  6  1  0  0  0  0
  6  7  1  0  0  0  0
  6 12  1  0  0  0  0
  7  1  1  0  0  0  0
  7 14  1  1  0  0  0
 11  4  1  0  0  0  0
 13  6  1  0  0  0  0
 15 23  1  0  0  0  0
 16 21  1  0  0  0  0
 16 15  2  0  0  0  0
 17 16  1  0  0  0  0
 18 17  2  0  0  0  0
 18 19  1  0  0  0  0
 19 20  2  0  0  0  0
 20 15  1  0  0  0  0
 22 17  1  0  0  0  0
 23 24  1  0  0  0  0
 25 26  1  0  0  0  0
 27 28  1  0  0  0  0
 28 33  1  0  0  0  0
 29 28  2  0  0  0  0
 29 30  1  0  0  0  0
 30 31  2  0  0  0  0
 31 35  1  0  0  0  0
 32 31  1  0  0  0  0
 32 36  1  0  0  0  0
 33 37  1  0  0  0  0
 33 32  2  0  0  0  0
 34 30  1  0  0  0  0
 38 47  1  0  0  0  0
 38 37  1  0  0  0  0
 39 38  2  0  0  0  0
 40 39  1  0  0  0  0
 41 40  1  0  0  0  0
 42 41  2  0  0  0  0
 43 41  1  0  0  0  0
 43 44  1  0  0  0  0
 45 43  1  1  0  0  0
 45 40  1  0  0  0  0
 45 46  1  0  0  0  0
 46 47  1  0  0  0  0
 47 48  1  0  0  0  0
 49 39  1  0  0  0  0
 49 51  1  0  0  0  0
 50 49  2  0  0  0  0
 51 52  1  0  0  0  0
M  END
>  <minimizedAffinity>
-7.0049262

$$$$
