
 OpenBabel03252503353D

 29 31  0  0  1  0  0  0  0  0999 V2000
   46.6190   31.1850   36.8310 C   0  0  0  0  0  0  0  0  0  0  0  0
   47.8260   31.4200   37.3170 C   0  0  0  0  0  0  0  0  0  0  0  0
   48.0150   32.3670   38.3570 N   0  0  0  0  0  0  0  0  0  0  0  0
   48.6870   32.7580   39.5330 C   0  0  0  0  0  0  0  0  0  0  0  0
   49.6660   32.3200   40.2220 O   0  0  0  0  0  0  0  0  0  0  0  0
   47.8330   33.9530   39.7560 C   0  0  1  0  0  3  0  0  0  0  0  0
   47.2450   33.5980   38.4390 C   0  0  2  0  0  3  0  0  0  0  0  0
   45.5050   33.1010   38.4660 S   0  0  0  0  0  0  0  0  0  0  0  0
   45.3360   31.8010   37.2460 C   0  0  0  0  0  3  0  0  0  0  0  0
   44.6250   30.9970   37.5650 H   0  0  0  0  0  0  0  0  0  0  0  0
   47.0040   33.7930   40.9500 C   0  0  0  0  0  0  0  0  0  0  0  0
   46.2760   32.8410   41.3280 O   0  0  0  0  0  0  0  0  0  0  0  0
   47.0230   34.9130   41.8420 N   0  0  0  0  0  0  0  0  0  0  0  0
   47.5810   35.7890   41.6980 H   0  0  0  0  0  0  0  0  0  0  0  0
   44.5100   35.8050   44.4260 C   0  0  0  0  0  0  0  0  0  0  0  0
   45.2300   35.8420   43.2220 C   0  0  0  0  0  0  0  0  0  0  0  0
   46.2580   34.9260   43.0410 C   0  0  0  0  0  0  0  0  0  0  0  0
   46.5330   34.0390   44.0130 N   0  0  0  0  0  0  0  0  0  0  0  0
   45.8210   34.0200   45.1810 C   0  0  0  0  0  0  0  0  0  0  0  0
   44.8230   34.9040   45.3650 N   0  0  0  0  0  0  0  0  0  0  0  0
   43.7290   36.5570   44.4760 H   0  0  0  0  0  0  0  0  0  0  0  0
   45.0440   36.5370   42.4110 H   0  0  0  0  0  0  0  0  0  0  0  0
   46.0550   33.2890   45.9690 H   0  0  0  0  0  0  0  0  0  0  0  0
   46.5650   30.1750   35.7440 C   0  0  0  0  0  2  0  0  0  0  0  0
   47.2180   30.5900   34.9210 H   0  0  0  0  0  0  0  0  0  0  0  0
   49.0090   30.7270   36.8090 C   0  0  0  0  0  0  0  0  0  0  0  0
   49.7830   31.2210   35.9520 O   0  0  0  0  0  0  0  0  0  0  0  0
   49.5700   29.4900   37.0690 O   0  0  0  0  0  0  0  0  0  0  0  0
   50.4720   29.4620   37.5180 H   0  0  0  0  0  0  0  0  0  0  0  0
  1  9  1  0  0  0  0
  1  2  2  0  0  0  0
  2  3  1  0  0  0  0
  3  7  1  0  0  0  0
  3  4  1  0  0  0  0
  4  6  1  0  0  0  0
  4  5  2  0  0  0  0
  6 11  1  1  0  0  0
  7  8  1  1  0  0  0
  7  6  1  0  0  0  0
  9 10  1  0  0  0  0
  9  8  1  0  0  0  0
 11 12  2  0  0  0  0
 11 13  1  0  0  0  0
 13 17  1  0  0  0  0
 14 13  1  0  0  0  0
 15 21  1  0  0  0  0
 15 20  1  0  0  0  0
 16 15  2  0  0  0  0
 17 16  1  0  0  0  0
 17 18  2  0  0  0  0
 18 19  1  0  0  0  0
 19 20  2  0  0  0  0
 19 23  1  0  0  0  0
 22 16  1  0  0  0  0
 24  1  1  0  0  0  0
 25 24  1  0  0  0  0
 26 28  1  0  0  0  0
 26  2  1  0  0  0  0
 27 26  2  0  0  0  0
 28 29  1  0  0  0  0
M  END
>  <minimizedAffinity>
-4.55363226

>  <minimizedRMSD>
0.942087293

$$$$
