
     RDKit          3D

 34 36  0  0  0  0  0  0  0  0999 V2000
   44.5385   36.0457   44.5663 C   0  0  0  0  0  0  0  0  0  0  0  0
   45.2559   36.0070   43.3605 C   0  0  0  0  0  0  0  0  0  0  0  0
   46.1366   34.9535   43.1527 C   0  0  0  0  0  0  0  0  0  0  0  0
   46.2764   34.0102   44.1011 N   0  0  0  0  0  0  0  0  0  0  0  0
   45.5678   34.0659   45.2697 C   0  0  0  0  0  0  0  0  0  0  0  0
   44.7116   35.0838   45.4799 N   0  0  0  0  0  0  0  0  0  0  0  0
   46.3775   34.2014   40.7893 C   0  0  0  0  0  0  0  0  0  0  0  0
   45.2270   33.7164   40.9342 O   0  0  0  0  0  0  0  0  0  0  0  0
   46.8926   34.8572   41.9524 N   0  0  0  0  0  0  0  0  0  0  0  0
   43.8772   36.9041   44.6372 H   0  0  0  0  0  0  0  0  0  0  0  0
   45.1767   36.7422   42.5694 H   0  0  0  0  0  0  0  0  0  0  0  0
   45.6902   33.2885   46.0388 H   0  0  0  0  0  0  0  0  0  0  0  0
   47.8373   35.3079   42.0211 H   0  0  0  0  0  0  0  0  0  0  0  0
   46.3330   29.8626   36.1459 C   0  0  0  0  0  0  0  0  0  0  0  0
   47.0294   30.1725   35.3119 H   0  0  0  0  0  0  0  0  0  0  0  0
   46.3001   31.0184   37.0759 C   0  0  0  0  0  0  0  0  0  0  0  0
   47.4693   31.3540   37.5942 C   0  0  0  0  0  0  0  0  0  0  0  0
   48.6951   30.6267   37.2637 C   0  0  0  0  0  0  0  0  0  0  0  0
   49.8197   30.9201   37.7401 O   0  0  0  0  0  0  0  0  0  0  0  0
   48.9666   29.5464   36.4448 O   0  0  0  0  0  0  0  0  0  0  0  0
   47.5757   32.4445   38.4958 N   0  0  0  0  0  0  0  0  0  0  0  0
   48.1648   33.0181   39.6404 C   0  0  0  0  0  0  0  0  0  0  0  0
   49.1060   32.7103   40.4442 O   0  0  0  0  0  0  0  0  0  0  0  0
   47.2772   34.2097   39.6371 C   0  0  1  0  0  0  0  0  0  0  0  0
   46.7809   33.6536   38.3516 C   0  0  2  0  0  0  0  0  0  0  0  0
   45.0513   33.1199   38.3472 S   0  0  0  0  0  0  0  0  0  0  0  0
   44.9835   31.6532   37.3193 C   0  0  2  0  0  0  0  0  0  0  0  0
   44.2675   30.8858   37.7089 H   0  0  0  0  0  0  0  0  0  0  0  0
   45.3629   29.7151   35.6546 H   0  0  0  0  0  0  0  0  0  0  0  0
   46.7234   28.9376   36.6209 H   0  0  0  0  0  0  0  0  0  0  0  0
   49.2734   28.6887   36.8762 H   0  0  0  0  0  0  0  0  0  0  0  0
   47.8200   35.1750   39.5437 H   0  0  0  0  0  0  0  0  0  0  0  0
   47.0865   34.2370   37.4688 H   0  0  0  0  0  0  0  0  0  0  0  0
   44.6306   31.9877   36.3001 H   0  0  0  0  0  0  0  0  0  0  0  0
  1  6  2  0
  2  1  1  0
  3  2  2  0
  3  4  1  0
  4  5  2  0
  5  6  1  0
  7  8  2  0
  7  9  1  0
  9  3  1  0
  1 10  1  0
  2 11  1  0
  5 12  1  0
  9 13  1  0
 14 15  1  0
 14 16  1  0
 16 17  2  0
 17 18  1  0
 18 19  2  0
 18 20  1  0
 17 21  1  0
 21 22  1  0
 22 23  2  0
 22 24  1  0
 24 25  1  0
 25 26  1  0
 26 27  1  0
 27 28  1  1
 27 16  1  0
 25 21  1  0
 14 29  1  0
 14 30  1  0
 20 31  1  0
 24 32  1  6
 25 33  1  6
 27 34  1  0
  7 24  1  0
M  ISO  5  10  14  11  14  12  14  15   8  28  15
M  END
>  <DihAtoms>  (1) 
7,6,23,21

>  <DihDeg>  (1) 
-119.99373654688416

$$$$
