
     RDKit          3D

 34 36  0  0  0  0  0  0  0  0999 V2000
   44.9152   35.1335   44.0487 C   0  0  0  0  0  0  0  0  0  0  0  0
   45.7361   35.3894   42.9283 C   0  0  0  0  0  0  0  0  0  0  0  0
   46.9483   34.6758   42.8160 C   0  0  0  0  0  0  0  0  0  0  0  0
   47.2458   33.7851   43.7994 N   0  0  0  0  0  0  0  0  0  0  0  0
   46.4294   33.5727   44.8540 C   0  0  0  0  0  0  0  0  0  0  0  0
   45.2849   34.2474   44.9589 N   0  0  0  0  0  0  0  0  0  0  0  0
   43.6969   35.8415   44.1746 N   0  0  0  0  0  0  0  0  0  0  0  0
   47.7426   34.9722   41.6629 C   0  0  0  0  0  0  0  0  0  0  0  0
   48.6678   35.8174   41.6482 O   0  0  0  0  0  0  0  0  0  0  0  0
   45.4150   36.1202   42.1927 H   0  0  0  0  0  0  0  0  0  0  0  0
   46.7182   32.8498   45.6085 H   0  0  0  0  0  0  0  0  0  0  0  0
   43.9360   36.8433   44.4333 H   0  0  0  0  0  0  0  0  0  0  0  0
   42.7113   35.4799   44.0444 H   0  0  0  0  0  0  0  0  0  0  0  0
   49.1968   31.5550   35.8716 C   0  0  0  0  0  0  0  0  0  0  0  0
   50.2937   31.4086   35.9338 H   0  0  0  0  0  0  0  0  0  0  0  0
   48.6917   32.3858   36.9616 C   0  0  0  0  0  0  0  0  0  0  0  0
   48.8820   31.9413   38.1921 C   0  0  0  0  0  0  0  0  0  0  0  0
   49.5600   30.6819   38.4794 C   0  0  0  0  0  0  0  0  0  0  0  0
   49.7940   30.1659   39.5851 O   0  0  0  0  0  0  0  0  0  0  0  0
   50.0981   29.7729   37.5849 O   0  0  0  0  0  0  0  0  0  0  0  0
   48.4151   32.7243   39.2833 N   0  0  0  0  0  0  0  0  0  0  0  0
   47.6699   32.7611   40.5274 C   0  0  0  0  0  0  0  0  0  0  0  0
   47.3200   31.8811   41.3878 O   0  0  0  0  0  0  0  0  0  0  0  0
   47.4887   34.2535   40.3733 C   0  0  2  0  0  0  0  0  0  0  0  0
   48.6800   34.1630   39.4429 C   0  0  2  0  0  0  0  0  0  0  0  0
   48.4659   34.9256   37.8225 S   0  0  0  0  0  0  0  0  0  0  0  0
   48.0020   33.6438   36.6341 C   0  0  1  0  0  0  0  0  0  0  0  0
   48.2211   33.9443   35.5904 H   0  0  0  0  0  0  0  0  0  0  0  0
   48.9692   31.9840   34.8685 H   0  0  0  0  0  0  0  0  0  0  0  0
   48.7405   30.5233   35.8433 H   0  0  0  0  0  0  0  0  0  0  0  0
   51.0652   29.4878   37.5683 H   0  0  0  0  0  0  0  0  0  0  0  0
   46.5821   34.5536   39.8461 H   0  0  0  0  0  0  0  0  0  0  0  0
   49.6514   34.3592   39.9204 H   0  0  0  0  0  0  0  0  0  0  0  0
   46.8845   33.5395   36.7082 H   0  0  0  0  0  0  0  0  0  0  0  0
  1  7  1  0
  1  6  2  0
  2  1  1  0
  3  2  2  0
  3  4  1  0
  4  5  2  0
  5  6  1  0
  8  3  1  0
  9  8  2  0
  2 10  1  0
  5 11  1  0
  7 12  1  0
  7 13  1  0
 14 15  1  0
 14 16  1  0
 16 17  2  0
 17 18  1  0
 18 19  2  0
 18 20  1  0
 17 21  1  0
 21 22  1  0
 22 23  2  0
 22 24  1  0
 24 25  1  0
 25 26  1  0
 26 27  1  0
 27 28  1  6
 27 16  1  0
 25 21  1  0
 14 29  1  0
 14 30  1  0
 20 31  1  0
 24 32  1  6
 25 33  1  1
 27 34  1  0
  8 24  1  0
M  ISO  4  10  14  11  14  15   8  28  15
M  END
>  <DihAtoms>  (1) 
2,7,23,21

>  <DihDeg>  (1) 
-179.99765998644892

$$$$
