
 OpenBabel03242512343D

 27 29  0  0  1  0  0  0  0  0999 V2000
   43.1260   33.2050   39.2820 C   0  0  0  0  0  0  0  0  0  0  0  0
   44.3950   33.1600   38.9750 C   0  0  0  0  0  0  0  0  0  0  0  0
   45.3790   33.2490   39.9990 N   0  0  0  0  0  0  0  0  0  0  0  0
   46.6550   33.7890   40.4030 C   0  0  0  0  0  0  0  0  0  0  0  0
   47.5860   34.4900   39.8780 O   0  0  0  0  0  0  0  0  0  0  0  0
   46.4800   33.1960   41.7340 C   0  0  2  0  0  3  0  0  0  0  0  0
   45.2130   32.5590   41.2910 C   0  0  1  0  0  3  0  0  0  0  0  0
   43.6920   33.1850   41.9850 S   0  0  0  0  0  0  0  0  0  0  0  0
   42.5300   33.3520   40.6270 C   0  0  0  0  0  3  0  0  0  0  0  0
   41.7980   32.4980   40.7290 H   0  0  0  0  0  0  0  0  0  0  0  0
   46.3810   34.1610   42.8730 C   0  0  0  0  0  0  0  0  0  0  0  0
   46.3350   35.3770   42.5120 O   0  0  0  0  0  0  0  0  0  0  0  0
   46.3480   33.6600   44.2080 C   0  0  0  0  0  0  0  0  0  0  0  0
   45.4210   34.3060   45.0250 C   0  0  0  0  0  0  0  0  0  0  0  0
   45.3180   33.8790   46.3620 C   0  0  0  0  0  0  0  0  0  0  0  0
   46.1370   32.8590   46.7600 N   0  0  0  0  0  0  0  0  0  0  0  0
   47.0140   32.2670   45.9380 C   0  0  0  0  0  0  0  0  0  0  0  0
   47.1180   32.6720   44.6580 N   0  0  0  0  0  0  0  0  0  0  0  0
   44.7760   35.1130   44.7010 H   0  0  0  0  0  0  0  0  0  0  0  0
   44.6160   34.3430   47.0410 H   0  0  0  0  0  0  0  0  0  0  0  0
   47.6020   31.4720   46.3830 H   0  0  0  0  0  0  0  0  0  0  0  0
   42.2010   33.0960   38.1230 C   0  0  0  0  0  2  0  0  0  0  0  0
   41.1570   33.1330   38.4920 H   0  0  0  0  0  0  0  0  0  0  0  0
   44.8630   33.0160   37.5890 C   0  0  0  0  0  0  0  0  0  0  0  0
   45.1820   31.9650   36.9800 O   0  0  0  0  0  0  0  0  0  0  0  0
   45.0220   34.0790   36.7180 O   0  0  0  0  0  0  0  0  0  0  0  0
   44.7500   34.0310   35.7480 H   0  0  0  0  0  0  0  0  0  0  0  0
  1  9  1  0  0  0  0
  2  1  2  0  0  0  0
  2  3  1  0  0  0  0
  3  4  1  0  0  0  0
  3  7  1  0  0  0  0
  4  6  1  0  0  0  0
  5  4  2  0  0  0  0
  6 11  1  1  0  0  0
  7  6  1  0  0  0  0
  7  8  1  1  0  0  0
  9 10  1  0  0  0  0
  9  8  1  0  0  0  0
 11 13  1  0  0  0  0
 12 11  2  0  0  0  0
 13 18  2  0  0  0  0
 13 14  1  0  0  0  0
 14 15  2  0  0  0  0
 15 16  1  0  0  0  0
 15 20  1  0  0  0  0
 17 21  1  0  0  0  0
 17 16  2  0  0  0  0
 18 17  1  0  0  0  0
 19 14  1  0  0  0  0
 22 23  1  0  0  0  0
 22  1  1  0  0  0  0
 24  2  1  0  0  0  0
 25 24  2  0  0  0  0
 26 24  1  0  0  0  0
 27 26  1  0  0  0  0
M  END
>  <minimizedAffinity>
-4.59899569

>  <minimizedRMSD>
2.08616424

$$$$
