
 OpenBabel03242512073D

 34 38  0  0  1  0  0  0  0  0999 V2000
   37.0050   29.5570   40.3850 C   0  0  1  0  0  0  0  0  0  0  0  0
   35.4990   29.9590   40.2460 C   0  0  0  0  0  0  0  0  0  0  0  0
   36.5680   30.9070   40.6530 C   0  0  2  0  0  0  0  0  0  0  0  0
   37.2460   29.0460   39.4160 H   0  0  0  0  0  0  0  0  0  0  0  0
   35.0710   30.0520   39.2480 H   0  0  0  0  0  0  0  0  0  0  0  0
   34.7990   29.5330   40.9910 H   0  0  0  0  0  0  0  0  0  0  0  0
   36.4980   31.1520   41.7660 H   0  0  0  0  0  0  0  0  0  0  0  0
   37.2330   28.5950   41.5110 C   0  0  0  0  0  0  0  0  0  0  0  0
   37.5510   29.0930   42.6010 O   0  0  0  0  0  0  0  0  0  0  0  0
   37.1260   26.3630   42.4870 C   0  0  0  0  0  0  0  0  0  0  0  0
   37.0980   27.1860   41.3980 C   0  0  0  0  0  0  0  0  0  0  0  0
   36.9120   26.6070   40.1280 C   0  0  0  0  0  0  0  0  0  0  0  0
   36.7700   25.2710   40.0150 N   0  0  0  0  0  0  0  0  0  0  0  0
   36.8030   24.4660   41.1290 C   0  0  0  0  0  0  0  0  0  0  0  0
   36.9780   25.0220   42.3180 N   0  0  0  0  0  0  0  0  0  0  0  0
   37.2620   26.7130   43.4860 H   0  0  0  0  0  0  0  0  0  0  0  0
   36.8930   27.2780   39.2780 H   0  0  0  0  0  0  0  0  0  0  0  0
   36.6800   23.4010   40.9480 H   0  0  0  0  0  0  0  0  0  0  0  0
   36.9200   32.1330   39.8770 C   0  0  0  0  0  2  0  0  0  0  0  0
   38.3650   32.3140   39.6030 C   0  0  0  0  0  0  0  0  0  0  0  0
   38.9410   32.1120   38.4350 C   0  0  0  0  0  0  0  0  0  0  0  0
   40.3290   32.3080   38.1960 N   0  0  0  0  0  0  0  0  0  0  0  0
   41.5100   32.1590   37.4070 C   0  0  1  0  0  0  0  0  0  0  0  0
   41.8900   31.1260   36.7580 O   0  0  0  0  0  1  0  0  0  0  0  0
   41.7720   33.5940   37.8220 C   0  0  0  0  0  3  0  0  0  0  0  0
   41.0060   34.2600   37.3610 H   0  0  0  0  0  0  0  0  0  0  0  0
   41.2360   33.0170   39.0820 C   0  0  1  0  0  0  0  0  0  0  0  0
   40.2510   34.0590   40.1670 S   0  0  0  0  0  0  0  0  0  0  0  0
   39.0810   32.7750   40.8130 C   0  0  0  0  0  3  0  0  0  0  0  0
   38.4830   33.3000   41.5500 H   0  0  0  0  0  0  0  0  0  0  0  0
   38.1940   31.6710   37.2390 C   0  0  0  0  0  0  0  0  0  0  0  0
   37.4890   30.6770   36.9450 O   0  0  0  0  0  0  0  0  0  0  0  0
   38.1290   32.3720   36.0590 O   0  0  0  0  0  0  0  0  0  0  0  0
   38.1870   32.0000   35.1270 H   0  0  0  0  0  0  0  0  0  0  0  0
  1  4  1  6  0  0  0
  1  3  1  0  0  0  0
  1  8  1  0  0  0  0
  2  1  1  0  0  0  0
  2  3  1  0  0  0  0
  2  6  1  0  0  0  0
  3  7  1  1  0  0  0
  5  2  1  0  0  0  0
  8  9  2  0  0  0  0
 10 16  1  0  0  0  0
 11  8  1  0  0  0  0
 11 10  2  0  0  0  0
 12 11  1  0  0  0  0
 13 12  2  0  0  0  0
 13 14  1  0  0  0  0
 14 15  2  0  0  0  0
 15 10  1  0  0  0  0
 17 12  1  0  0  0  0
 18 14  1  0  0  0  0
 19  3  1  0  0  0  0
 20 19  1  0  0  0  0
 20 29  1  0  0  0  0
 21 20  2  0  0  0  0
 22 21  1  0  0  0  0
 22 27  1  0  0  0  0
 23 24  1  6  0  0  0
 23 25  1  0  0  0  0
 23 22  1  0  0  0  0
 23 27  1  0  0  0  0
 26 25  1  0  0  0  0
 27 25  1  6  0  0  0
 27 28  1  0  0  0  0
 28 29  1  0  0  0  0
 29 30  1  0  0  0  0
 31 21  1  0  0  0  0
 32 31  2  0  0  0  0
 33 31  1  0  0  0  0
 34 33  1  0  0  0  0
M  END
>  <minimizedAffinity>
-5.91537142

$$$$

 OpenBabel03242512073D

 34 38  0  0  1  0  0  0  0  0999 V2000
   37.6410   26.8590   42.2460 C   0  0  1  0  0  0  0  0  0  0  0  0
   36.5910   27.0400   43.3910 C   0  0  0  0  0  0  0  0  0  0  0  0
   37.9010   27.7380   43.3610 C   0  0  2  0  0  0  0  0  0  0  0  0
   37.0560   27.0270   41.3040 H   0  0  0  0  0  0  0  0  0  0  0  0
   35.6870   27.6150   43.1890 H   0  0  0  0  0  0  0  0  0  0  0  0
   36.4220   26.1690   44.0540 H   0  0  0  0  0  0  0  0  0  0  0  0
   38.6190   27.2990   44.1310 H   0  0  0  0  0  0  0  0  0  0  0  0
   38.2170   25.4760   42.2180 C   0  0  0  0  0  0  0  0  0  0  0  0
   39.1280   25.2460   43.0280 O   0  0  0  0  0  0  0  0  0  0  0  0
   36.5080   24.4060   40.8470 C   0  0  0  0  0  0  0  0  0  0  0  0
   37.7800   24.4450   41.3450 C   0  0  0  0  0  0  0  0  0  0  0  0
   38.6790   23.4340   40.9590 C   0  0  0  0  0  0  0  0  0  0  0  0
   38.2740   22.4600   40.1200 N   0  0  0  0  0  0  0  0  0  0  0  0
   36.9880   22.4440   39.6340 C   0  0  0  0  0  0  0  0  0  0  0  0
   36.1500   23.4010   40.0030 N   0  0  0  0  0  0  0  0  0  0  0  0
   35.7600   25.1280   41.0850 H   0  0  0  0  0  0  0  0  0  0  0  0
   39.6830   23.4860   41.3660 H   0  0  0  0  0  0  0  0  0  0  0  0
   36.7450   21.6240   38.9630 H   0  0  0  0  0  0  0  0  0  0  0  0
   38.0400   29.2250   43.3170 C   0  0  0  0  0  2  0  0  0  0  0  0
   38.5930   29.7690   42.0550 C   0  0  0  0  0  0  0  0  0  0  0  0
   37.8710   30.1700   41.0270 C   0  0  0  0  0  0  0  0  0  0  0  0
   38.4280   30.7040   39.8330 N   0  0  0  0  0  0  0  0  0  0  0  0
   38.3360   31.1120   38.4660 C   0  0  1  0  0  0  0  0  0  0  0  0
   37.7210   30.5220   37.5150 O   0  0  0  0  0  1  0  0  0  0  0  0
   39.1910   32.2770   38.9290 C   0  0  0  0  0  3  0  0  0  0  0  0
   38.6020   32.9150   39.6270 H   0  0  0  0  0  0  0  0  0  0  0  0
   39.8020   31.1490   39.6790 C   0  0  1  0  0  0  0  0  0  0  0  0
   40.4720   31.4570   41.3180 S   0  0  0  0  0  0  0  0  0  0  0  0
   40.0700   29.8260   42.1030 C   0  0  0  0  0  3  0  0  0  0  0  0
   40.5130   29.8850   43.0910 H   0  0  0  0  0  0  0  0  0  0  0  0
   36.3940   30.1190   41.0170 C   0  0  0  0  0  0  0  0  0  0  0  0
   35.5340   29.2690   40.6870 O   0  0  0  0  0  0  0  0  0  0  0  0
   35.5780   31.1450   41.4270 O   0  0  0  0  0  0  0  0  0  0  0  0
   34.7330   31.4630   40.9840 H   0  0  0  0  0  0  0  0  0  0  0  0
  1  4  1  6  0  0  0
  1  3  1  0  0  0  0
  1  2  1  0  0  0  0
  2  6  1  0  0  0  0
  3  2  1  0  0  0  0
  3  7  1  1  0  0  0
  5  2  1  0  0  0  0
  8  1  1  0  0  0  0
  8  9  2  0  0  0  0
 10 16  1  0  0  0  0
 10 11  1  0  0  0  0
 11  8  1  0  0  0  0
 12 11  2  0  0  0  0
 12 17  1  0  0  0  0
 13 12  1  0  0  0  0
 14 15  1  0  0  0  0
 14 13  2  0  0  0  0
 15 10  2  0  0  0  0
 18 14  1  0  0  0  0
 19  3  1  0  0  0  0
 20 29  1  0  0  0  0
 20 19  1  0  0  0  0
 21 20  2  0  0  0  0
 22 21  1  0  0  0  0
 23 24  1  6  0  0  0
 23 25  1  0  0  0  0
 23 27  1  0  0  0  0
 23 22  1  0  0  0  0
 25 26  1  0  0  0  0
 27 25  1  1  0  0  0
 27 22  1  0  0  0  0
 27 28  1  0  0  0  0
 28 29  1  0  0  0  0
 29 30  1  0  0  0  0
 31 21  1  0  0  0  0
 31 33  1  0  0  0  0
 32 31  2  0  0  0  0
 34 33  1  0  0  0  0
M  END
>  <minimizedAffinity>
-5.89256811

$$$$

 OpenBabel03242512073D

 34 38  0  0  1  0  0  0  0  0999 V2000
   37.0390   26.9450   42.1800 C   0  0  1  0  0  0  0  0  0  0  0  0
   36.5720   27.3750   43.6100 C   0  0  0  0  0  0  0  0  0  0  0  0
   37.5980   28.1080   42.8250 C   0  0  2  0  0  0  0  0  0  0  0  0
   36.0850   26.8170   41.6040 H   0  0  0  0  0  0  0  0  0  0  0  0
   35.5850   27.8230   43.7270 H   0  0  0  0  0  0  0  0  0  0  0  0
   36.8600   26.7120   44.4480 H   0  0  0  0  0  0  0  0  0  0  0  0
   38.6430   27.9370   43.2520 H   0  0  0  0  0  0  0  0  0  0  0  0
   37.7770   25.6410   42.1930 C   0  0  0  0  0  0  0  0  0  0  0  0
   37.0810   24.6190   42.2830 O   0  0  0  0  0  0  0  0  0  0  0  0
   39.8660   25.7920   40.9440 C   0  0  0  0  0  0  0  0  0  0  0  0
   39.1890   25.5210   42.0990 C   0  0  0  0  0  0  0  0  0  0  0  0
   39.9280   25.1260   43.2290 C   0  0  0  0  0  0  0  0  0  0  0  0
   41.2700   25.0230   43.1500 N   0  0  0  0  0  0  0  0  0  0  0  0
   41.9260   25.3020   41.9760 C   0  0  0  0  0  0  0  0  0  0  0  0
   41.2210   25.6730   40.9180 N   0  0  0  0  0  0  0  0  0  0  0  0
   39.3900   26.0970   40.0400 H   0  0  0  0  0  0  0  0  0  0  0  0
   39.3700   24.9160   44.1340 H   0  0  0  0  0  0  0  0  0  0  0  0
   43.0080   25.1940   42.0000 H   0  0  0  0  0  0  0  0  0  0  0  0
   37.4450   29.5310   42.3970 C   0  0  0  0  0  2  0  0  0  0  0  0
   38.6500   30.1400   41.7870 C   0  0  0  0  0  0  0  0  0  0  0  0
   38.6330   31.0940   40.8780 C   0  0  0  0  0  0  0  0  0  0  0  0
   39.8060   31.6720   40.3200 N   0  0  0  0  0  0  0  0  0  0  0  0
   40.4840   32.4680   39.3460 C   0  0  1  0  0  0  0  0  0  0  0  0
   40.2740   32.5070   38.0870 O   0  0  0  0  0  1  0  0  0  0  0  0
   41.2730   32.9660   40.5420 C   0  0  0  0  0  3  0  0  0  0  0  0
   40.6020   33.5530   41.2110 H   0  0  0  0  0  0  0  0  0  0  0  0
   41.1480   31.5190   40.8560 C   0  0  1  0  0  0  0  0  0  0  0  0
   41.0040   31.0100   42.5740 S   0  0  0  0  0  0  0  0  0  0  0  0
   39.8850   29.5500   42.3480 C   0  0  0  0  0  3  0  0  0  0  0  0
   39.8000   29.1190   43.3390 H   0  0  0  0  0  0  0  0  0  0  0  0
   37.3820   31.6780   40.3520 C   0  0  0  0  0  0  0  0  0  0  0  0
   36.3980   31.2430   39.7080 O   0  0  0  0  0  0  0  0  0  0  0  0
   37.0180   32.9950   40.4920 O   0  0  0  0  0  0  0  0  0  0  0  0
   36.5990   33.5870   39.7950 H   0  0  0  0  0  0  0  0  0  0  0  0
  1  4  1  6  0  0  0
  1  8  1  0  0  0  0
  1  3  1  0  0  0  0
  1  2  1  0  0  0  0
  2  5  1  0  0  0  0
  2  6  1  0  0  0  0
  3  7  1  1  0  0  0
  3  2  1  0  0  0  0
  8  9  2  0  0  0  0
 10 11  1  0  0  0  0
 11  8  1  0  0  0  0
 11 12  2  0  0  0  0
 12 17  1  0  0  0  0
 13 12  1  0  0  0  0
 14 18  1  0  0  0  0
 14 13  2  0  0  0  0
 15 10  2  0  0  0  0
 15 14  1  0  0  0  0
 16 10  1  0  0  0  0
 19  3  1  0  0  0  0
 20 29  1  0  0  0  0
 20 19  1  0  0  0  0
 21 20  2  0  0  0  0
 22 27  1  0  0  0  0
 22 21  1  0  0  0  0
 23 24  1  6  0  0  0
 23 22  1  0  0  0  0
 23 25  1  0  0  0  0
 23 27  1  0  0  0  0
 25 26  1  0  0  0  0
 27 25  1  1  0  0  0
 27 28  1  0  0  0  0
 29 28  1  0  0  0  0
 29 30  1  0  0  0  0
 31 33  1  0  0  0  0
 31 21  1  0  0  0  0
 32 31  2  0  0  0  0
 34 33  1  0  0  0  0
M  END
>  <minimizedAffinity>
-5.7202487

$$$$

 OpenBabel03242512073D

 34 38  0  0  1  0  0  0  0  0999 V2000
   37.5400   30.5300   39.7160 C   0  0  1  0  0  0  0  0  0  0  0  0
   36.5680   31.3180   40.6550 C   0  0  0  0  0  0  0  0  0  0  0  0
   36.1430   30.1780   39.8030 C   0  0  2  0  0  0  0  0  0  0  0  0
   38.4050   30.2580   40.3760 H   0  0  0  0  0  0  0  0  0  0  0  0
   36.6420   31.1660   41.7320 H   0  0  0  0  0  0  0  0  0  0  0  0
   36.3370   32.3620   40.3700 H   0  0  0  0  0  0  0  0  0  0  0  0
   35.5240   30.5370   38.9140 H   0  0  0  0  0  0  0  0  0  0  0  0
   38.0410   31.3730   38.5830 C   0  0  0  0  0  0  0  0  0  0  0  0
   37.3510   31.3740   37.5530 O   0  0  0  0  0  0  0  0  0  0  0  0
   39.4730   33.0350   39.6470 C   0  0  0  0  0  0  0  0  0  0  0  0
   39.2250   32.1560   38.6320 C   0  0  0  0  0  0  0  0  0  0  0  0
   40.1900   32.0200   37.6160 C   0  0  0  0  0  0  0  0  0  0  0  0
   41.3220   32.7510   37.6650 N   0  0  0  0  0  0  0  0  0  0  0  0
   41.5460   33.6280   38.6980 C   0  0  0  0  0  0  0  0  0  0  0  0
   40.6310   33.7480   39.6490 N   0  0  0  0  0  0  0  0  0  0  0  0
   38.8000   33.2040   40.4580 H   0  0  0  0  0  0  0  0  0  0  0  0
   39.9720   31.3170   36.8210 H   0  0  0  0  0  0  0  0  0  0  0  0
   42.4840   34.1760   38.6590 H   0  0  0  0  0  0  0  0  0  0  0  0
   35.5710   28.9110   40.3500 C   0  0  0  0  0  2  0  0  0  0  0  0
   36.5010   27.7580   40.3750 C   0  0  0  0  0  0  0  0  0  0  0  0
   37.1760   27.3580   41.4350 C   0  0  0  0  0  0  0  0  0  0  0  0
   38.0500   26.2380   41.4360 N   0  0  0  0  0  0  0  0  0  0  0  0
   39.0780   25.4360   42.0200 C   0  0  1  0  0  0  0  0  0  0  0  0
   40.1350   25.8340   42.6160 O   0  0  0  0  0  1  0  0  0  0  0  0
   38.2210   24.2790   41.5390 C   0  0  0  0  0  3  0  0  0  0  0  0
   37.2640   24.2650   42.1090 H   0  0  0  0  0  0  0  0  0  0  0  0
   38.1080   25.2230   40.3970 C   0  0  1  0  0  0  0  0  0  0  0  0
   36.5680   25.2890   39.4730 S   0  0  0  0  0  0  0  0  0  0  0  0
   36.5600   27.0940   39.0550 C   0  0  0  0  0  3  0  0  0  0  0  0
   35.6920   27.2210   38.4180 H   0  0  0  0  0  0  0  0  0  0  0  0
   37.0790   28.0310   42.7470 C   0  0  0  0  0  0  0  0  0  0  0  0
   37.7440   28.9050   43.3510 O   0  0  0  0  0  0  0  0  0  0  0  0
   36.1000   27.7820   43.6790 O   0  0  0  0  0  0  0  0  0  0  0  0
   36.2180   27.6950   44.6740 H   0  0  0  0  0  0  0  0  0  0  0  0
  1  3  1  0  0  0  0
  1  4  1  1  0  0  0
  1  2  1  0  0  0  0
  2  5  1  0  0  0  0
  3  7  1  6  0  0  0
  3 19  1  0  0  0  0
  3  2  1  0  0  0  0
  6  2  1  0  0  0  0
  8 11  1  0  0  0  0
  8  1  1  0  0  0  0
  9  8  2  0  0  0  0
 10 15  1  0  0  0  0
 10 16  1  0  0  0  0
 11 10  2  0  0  0  0
 12 13  2  0  0  0  0
 12 11  1  0  0  0  0
 13 14  1  0  0  0  0
 14 15  2  0  0  0  0
 17 12  1  0  0  0  0
 18 14  1  0  0  0  0
 19 20  1  0  0  0  0
 20 21  2  0  0  0  0
 21 22  1  0  0  0  0
 21 31  1  0  0  0  0
 22 23  1  0  0  0  0
 23 24  1  1  0  0  0
 25 23  1  0  0  0  0
 25 26  1  0  0  0  0
 27 28  1  6  0  0  0
 27 22  1  0  0  0  0
 27 25  1  0  0  0  0
 27 23  1  0  0  0  0
 29 28  1  0  0  0  0
 29 20  1  0  0  0  0
 30 29  1  0  0  0  0
 31 32  2  0  0  0  0
 31 33  1  0  0  0  0
 33 34  1  0  0  0  0
M  END
>  <minimizedAffinity>
-5.5126152

$$$$

 OpenBabel03242512073D

 34 38  0  0  1  0  0  0  0  0999 V2000
   37.3980   31.9750   39.0400 C   0  0  1  0  0  0  0  0  0  0  0  0
   37.6230   32.0870   37.4960 C   0  0  0  0  0  0  0  0  0  0  0  0
   38.0350   30.9100   38.3030 C   0  0  2  0  0  0  0  0  0  0  0  0
   36.3120   32.2190   39.1800 H   0  0  0  0  0  0  0  0  0  0  0  0
   36.7640   31.9900   36.8320 H   0  0  0  0  0  0  0  0  0  0  0  0
   38.3660   32.8330   37.1540 H   0  0  0  0  0  0  0  0  0  0  0  0
   39.1680   30.8770   38.4340 H   0  0  0  0  0  0  0  0  0  0  0  0
   38.2210   32.9660   39.8060 C   0  0  0  0  0  0  0  0  0  0  0  0
   37.7520   34.1090   39.9010 O   0  0  0  0  0  0  0  0  0  0  0  0
   39.5790   31.7590   41.4320 C   0  0  0  0  0  0  0  0  0  0  0  0
   39.4670   32.6660   40.4180 C   0  0  0  0  0  0  0  0  0  0  0  0
   40.6350   33.3070   39.9630 C   0  0  0  0  0  0  0  0  0  0  0  0
   41.8230   33.0180   40.5320 N   0  0  0  0  0  0  0  0  0  0  0  0
   41.9060   32.1000   41.5510 C   0  0  0  0  0  0  0  0  0  0  0  0
   40.8010   31.5030   41.9710 N   0  0  0  0  0  0  0  0  0  0  0  0
   38.7490   31.2270   41.8410 H   0  0  0  0  0  0  0  0  0  0  0  0
   40.5220   34.0230   39.1580 H   0  0  0  0  0  0  0  0  0  0  0  0
   42.9020   31.9260   41.9510 H   0  0  0  0  0  0  0  0  0  0  0  0
   37.5030   29.5320   38.0790 C   0  0  0  0  0  2  0  0  0  0  0  0
   37.7260   28.5810   39.1930 C   0  0  0  0  0  0  0  0  0  0  0  0
   36.8950   28.3930   40.1990 C   0  0  0  0  0  0  0  0  0  0  0  0
   37.1260   27.4610   41.2480 N   0  0  0  0  0  0  0  0  0  0  0  0
   36.8450   26.9120   42.5370 C   0  0  1  0  0  0  0  0  0  0  0  0
   36.5780   27.5440   43.6140 O   0  0  0  0  0  1  0  0  0  0  0  0
   37.0470   25.5830   41.8330 C   0  0  0  0  0  3  0  0  0  0  0  0
   36.2290   25.4280   41.0910 H   0  0  0  0  0  0  0  0  0  0  0  0
   38.1230   26.4050   41.2220 C   0  0  1  0  0  0  0  0  0  0  0  0
   38.5750   26.1120   39.5070 S   0  0  0  0  0  0  0  0  0  0  0  0
   38.9990   27.8490   39.0210 C   0  0  0  0  0  3  0  0  0  0  0  0
   39.3660   27.7640   38.0040 H   0  0  0  0  0  0  0  0  0  0  0  0
   35.6180   29.1250   40.3330 C   0  0  0  0  0  0  0  0  0  0  0  0
   34.4970   29.0690   39.7750 O   0  0  0  0  0  0  0  0  0  0  0  0
   35.3980   30.1510   41.2200 O   0  0  0  0  0  0  0  0  0  0  0  0
   34.9040   31.0090   41.0460 H   0  0  0  0  0  0  0  0  0  0  0  0
  1  4  1  1  0  0  0
  1  8  1  0  0  0  0
  2  3  1  0  0  0  0
  2  1  1  0  0  0  0
  3  7  1  1  0  0  0
  3  1  1  0  0  0  0
  5  2  1  0  0  0  0
  6  2  1  0  0  0  0
  8  9  2  0  0  0  0
  8 11  1  0  0  0  0
 10 16  1  0  0  0  0
 10 15  1  0  0  0  0
 11 10  2  0  0  0  0
 12 11  1  0  0  0  0
 12 13  2  0  0  0  0
 13 14  1  0  0  0  0
 14 18  1  0  0  0  0
 14 15  2  0  0  0  0
 17 12  1  0  0  0  0
 19  3  1  0  0  0  0
 19 20  1  0  0  0  0
 20 21  2  0  0  0  0
 21 31  1  0  0  0  0
 21 22  1  0  0  0  0
 22 23  1  0  0  0  0
 23 24  1  1  0  0  0
 25 23  1  0  0  0  0
 26 25  1  0  0  0  0
 27 28  1  6  0  0  0
 27 22  1  0  0  0  0
 27 25  1  0  0  0  0
 27 23  1  0  0  0  0
 29 20  1  0  0  0  0
 29 28  1  0  0  0  0
 30 29  1  0  0  0  0
 31 33  1  0  0  0  0
 32 31  2  0  0  0  0
 34 33  1  0  0  0  0
M  END
>  <minimizedAffinity>
-5.32513523

$$$$

 OpenBabel03242512073D

 34 38  0  0  1  0  0  0  0  0999 V2000
   37.9650   28.8150   43.3200 C   0  0  1  0  0  0  0  0  0  0  0  0
   39.3930   28.2250   43.0720 C   0  0  0  0  0  0  0  0  0  0  0  0
   38.9180   29.5020   42.4810 C   0  0  2  0  0  0  0  0  0  0  0  0
   37.8490   28.8030   44.4350 H   0  0  0  0  0  0  0  0  0  0  0  0
   40.1230   28.2630   43.8810 H   0  0  0  0  0  0  0  0  0  0  0  0
   39.4510   27.3010   42.4660 H   0  0  0  0  0  0  0  0  0  0  0  0
   38.7120   29.3860   41.3640 H   0  0  0  0  0  0  0  0  0  0  0  0
   36.8890   27.9690   42.7110 C   0  0  0  0  0  0  0  0  0  0  0  0
   36.3610   27.1330   43.4580 O   0  0  0  0  0  0  0  0  0  0  0  0
   35.6680   29.1190   40.9400 C   0  0  0  0  0  0  0  0  0  0  0  0
   36.4490   28.0820   41.3650 C   0  0  0  0  0  0  0  0  0  0  0  0
   36.8370   27.1090   40.4250 C   0  0  0  0  0  0  0  0  0  0  0  0
   36.4340   27.2170   39.1430 N   0  0  0  0  0  0  0  0  0  0  0  0
   35.6480   28.2710   38.7420 C   0  0  0  0  0  0  0  0  0  0  0  0
   35.2890   29.1810   39.6350 N   0  0  0  0  0  0  0  0  0  0  0  0
   35.3270   29.9000   41.5810 H   0  0  0  0  0  0  0  0  0  0  0  0
   37.4560   26.2960   40.7840 H   0  0  0  0  0  0  0  0  0  0  0  0
   35.3690   28.2810   37.6910 H   0  0  0  0  0  0  0  0  0  0  0  0
   39.5620   30.8220   42.7500 C   0  0  0  0  0  2  0  0  0  0  0  0
   40.4160   31.3430   41.6580 C   0  0  0  0  0  0  0  0  0  0  0  0
   39.9680   31.8170   40.5120 C   0  0  0  0  0  0  0  0  0  0  0  0
   40.8110   32.3250   39.4860 N   0  0  0  0  0  0  0  0  0  0  0  0
   41.0510   32.7630   38.1470 C   0  0  1  0  0  0  0  0  0  0  0  0
   40.6170   32.2400   37.0650 O   0  0  0  0  0  1  0  0  0  0  0  0
   41.8670   33.8480   38.8230 C   0  0  0  0  0  3  0  0  0  0  0  0
   41.1890   34.5190   39.3980 H   0  0  0  0  0  0  0  0  0  0  0  0
   42.2140   32.6630   39.6490 C   0  0  1  0  0  0  0  0  0  0  0  0
   42.5300   32.8880   41.4040 S   0  0  0  0  0  0  0  0  0  0  0  0
   41.8470   31.2810   42.0270 C   0  0  0  0  0  3  0  0  0  0  0  0
   42.0660   31.2880   43.0890 H   0  0  0  0  0  0  0  0  0  0  0  0
   38.5300   31.8840   40.1800 C   0  0  0  0  0  0  0  0  0  0  0  0
   37.5760   32.6300   40.5030 O   0  0  0  0  0  0  0  0  0  0  0  0
   37.8840   31.0140   39.3360 O   0  0  0  0  0  0  0  0  0  0  0  0
   36.9760   30.6040   39.4660 H   0  0  0  0  0  0  0  0  0  0  0  0
  1  4  1  1  0  0  0
  2  1  1  0  0  0  0
  2  5  1  0  0  0  0
  3  7  1  6  0  0  0
  3 19  1  0  0  0  0
  3  2  1  0  0  0  0
  3  1  1  0  0  0  0
  6  2  1  0  0  0  0
  8  1  1  0  0  0  0
  8  9  2  0  0  0  0
 10 11  1  0  0  0  0
 10 16  1  0  0  0  0
 11  8  1  0  0  0  0
 12 17  1  0  0  0  0
 12 11  2  0  0  0  0
 13 12  1  0  0  0  0
 14 13  2  0  0  0  0
 14 15  1  0  0  0  0
 15 10  2  0  0  0  0
 18 14  1  0  0  0  0
 20 29  1  0  0  0  0
 20 19  1  0  0  0  0
 21 20  2  0  0  0  0
 22 27  1  0  0  0  0
 22 21  1  0  0  0  0
 23 24  1  6  0  0  0
 23 25  1  0  0  0  0
 23 22  1  0  0  0  0
 23 27  1  0  0  0  0
 25 26  1  0  0  0  0
 27 25  1  1  0  0  0
 27 28  1  0  0  0  0
 28 29  1  0  0  0  0
 29 30  1  0  0  0  0
 31 32  2  0  0  0  0
 31 21  1  0  0  0  0
 33 34  1  0  0  0  0
 33 31  1  0  0  0  0
M  END
>  <minimizedAffinity>
-5.24984169

$$$$

 OpenBabel03242512073D

 34 38  0  0  1  0  0  0  0  0999 V2000
   36.3950   28.5160   39.6850 C   0  0  1  0  0  0  0  0  0  0  0  0
   34.9560   28.9080   40.1580 C   0  0  0  0  0  0  0  0  0  0  0  0
   36.1750   29.1040   40.9840 C   0  0  2  0  0  0  0  0  0  0  0  0
   36.4950   28.9930   38.6740 H   0  0  0  0  0  0  0  0  0  0  0  0
   34.4790   29.7830   39.7150 H   0  0  0  0  0  0  0  0  0  0  0  0
   34.2550   28.0760   40.3610 H   0  0  0  0  0  0  0  0  0  0  0  0
   36.2160   28.3500   41.8400 H   0  0  0  0  0  0  0  0  0  0  0  0
   36.5600   27.0330   39.5400 C   0  0  0  0  0  0  0  0  0  0  0  0
   35.9610   26.5060   38.5910 O   0  0  0  0  0  0  0  0  0  0  0  0
   38.6880   26.4470   40.5750 C   0  0  0  0  0  0  0  0  0  0  0  0
   37.3510   26.2290   40.4030 C   0  0  0  0  0  0  0  0  0  0  0  0
   36.7470   25.1810   41.1210 C   0  0  0  0  0  0  0  0  0  0  0  0
   37.4900   24.4220   41.9520 N   0  0  0  0  0  0  0  0  0  0  0  0
   38.8340   24.6630   42.1060 C   0  0  0  0  0  0  0  0  0  0  0  0
   39.3920   25.6520   41.4250 N   0  0  0  0  0  0  0  0  0  0  0  0
   39.2290   27.2160   40.0720 H   0  0  0  0  0  0  0  0  0  0  0  0
   35.6850   25.0270   40.9690 H   0  0  0  0  0  0  0  0  0  0  0  0
   39.3580   24.0050   42.7960 H   0  0  0  0  0  0  0  0  0  0  0  0
   36.6440   30.4420   41.4540 C   0  0  0  0  0  2  0  0  0  0  0  0
   38.0700   30.7400   41.1870 C   0  0  0  0  0  0  0  0  0  0  0  0
   38.5030   31.6570   40.3440 C   0  0  0  0  0  0  0  0  0  0  0  0
   39.8790   31.9330   40.1190 N   0  0  0  0  0  0  0  0  0  0  0  0
   40.9450   32.5310   39.3780 C   0  0  1  0  0  0  0  0  0  0  0  0
   41.0710   32.6000   38.1090 O   0  0  0  0  0  1  0  0  0  0  0  0
   41.5040   32.8470   40.7520 C   0  0  0  0  0  3  0  0  0  0  0  0
   40.8420   33.5860   41.2610 H   0  0  0  0  0  0  0  0  0  0  0  0
   40.9710   31.4760   40.9610 C   0  0  1  0  0  0  0  0  0  0  0  0
   40.2900   31.0410   42.5660 S   0  0  0  0  0  0  0  0  0  0  0  0
   38.9550   29.8830   42.0070 C   0  0  0  0  0  3  0  0  0  0  0  0
   38.5270   29.4990   42.9260 H   0  0  0  0  0  0  0  0  0  0  0  0
   37.5940   32.5120   39.5540 C   0  0  0  0  0  0  0  0  0  0  0  0
   37.1100   32.4670   38.3980 O   0  0  0  0  0  0  0  0  0  0  0  0
   37.0330   33.6810   40.0080 O   0  0  0  0  0  0  0  0  0  0  0  0
   36.9250   34.5410   39.4980 H   0  0  0  0  0  0  0  0  0  0  0  0
  1  4  1  6  0  0  0
  1  2  1  0  0  0  0
  1  3  1  0  0  0  0
  2  6  1  0  0  0  0
  2  3  1  0  0  0  0
  3 19  1  0  0  0  0
  3  7  1  1  0  0  0
  5  2  1  0  0  0  0
  8  1  1  0  0  0  0
  8 11  1  0  0  0  0
  9  8  2  0  0  0  0
 10 15  1  0  0  0  0
 11 10  2  0  0  0  0
 11 12  1  0  0  0  0
 12 13  2  0  0  0  0
 13 14  1  0  0  0  0
 14 18  1  0  0  0  0
 15 14  2  0  0  0  0
 16 10  1  0  0  0  0
 17 12  1  0  0  0  0
 20 19  1  0  0  0  0
 20 29  1  0  0  0  0
 21 20  2  0  0  0  0
 22 21  1  0  0  0  0
 22 27  1  0  0  0  0
 23 24  1  6  0  0  0
 23 22  1  0  0  0  0
 23 25  1  0  0  0  0
 23 27  1  0  0  0  0
 25 26  1  0  0  0  0
 27 25  1  1  0  0  0
 27 28  1  0  0  0  0
 29 28  1  0  0  0  0
 29 30  1  0  0  0  0
 31 33  1  0  0  0  0
 31 21  1  0  0  0  0
 32 31  2  0  0  0  0
 34 33  1  0  0  0  0
M  END
>  <minimizedAffinity>
-5.20131063

$$$$

 OpenBabel03242512073D

 34 38  0  0  1  0  0  0  0  0999 V2000
   36.6770   29.8690   37.9690 C   0  0  1  0  0  0  0  0  0  0  0  0
   37.3890   28.5890   37.4190 C   0  0  0  0  0  0  0  0  0  0  0  0
   37.2450   28.8910   38.8660 C   0  0  2  0  0  0  0  0  0  0  0  0
   35.6890   29.8860   37.4380 H   0  0  0  0  0  0  0  0  0  0  0  0
   36.7800   27.7940   36.9880 H   0  0  0  0  0  0  0  0  0  0  0  0
   38.3530   28.7420   36.8960 H   0  0  0  0  0  0  0  0  0  0  0  0
   38.2420   29.2130   39.3200 H   0  0  0  0  0  0  0  0  0  0  0  0
   37.4270   31.1220   37.6370 C   0  0  0  0  0  0  0  0  0  0  0  0
   37.4590   31.4410   36.4390 O   0  0  0  0  0  0  0  0  0  0  0  0
   39.4240   31.8910   38.8060 C   0  0  0  0  0  0  0  0  0  0  0  0
   38.0760   31.9430   38.5970 C   0  0  0  0  0  0  0  0  0  0  0  0
   37.3180   32.8550   39.3560 C   0  0  0  0  0  0  0  0  0  0  0  0
   37.9290   33.6460   40.2600 N   0  0  0  0  0  0  0  0  0  0  0  0
   39.2880   33.5730   40.4500 C   0  0  0  0  0  0  0  0  0  0  0  0
   39.9920   32.7120   39.7310 N   0  0  0  0  0  0  0  0  0  0  0  0
   40.0770   31.2320   38.2790 H   0  0  0  0  0  0  0  0  0  0  0  0
   36.2500   32.8790   39.1740 H   0  0  0  0  0  0  0  0  0  0  0  0
   39.6990   34.2470   41.1980 H   0  0  0  0  0  0  0  0  0  0  0  0
   36.5050   28.0130   39.8200 C   0  0  0  0  0  2  0  0  0  0  0  0
   37.2290   27.6880   41.0710 C   0  0  0  0  0  0  0  0  0  0  0  0
   38.1270   26.7310   41.1940 C   0  0  0  0  0  0  0  0  0  0  0  0
   38.8190   26.4510   42.4040 N   0  0  0  0  0  0  0  0  0  0  0  0
   39.6440   25.6240   43.2270 C   0  0  1  0  0  0  0  0  0  0  0  0
   39.5940   24.3550   43.3580 O   0  0  0  0  0  1  0  0  0  0  0  0
   40.2970   26.9400   43.6100 C   0  0  0  0  0  3  0  0  0  0  0  0
   40.8270   27.3620   42.7250 H   0  0  0  0  0  0  0  0  0  0  0  0
   38.8630   27.3270   43.5630 C   0  0  1  0  0  0  0  0  0  0  0  0
   38.4260   28.9840   43.0220 S   0  0  0  0  0  0  0  0  0  0  0  0
   36.8280   28.5960   42.1680 C   0  0  0  0  0  3  0  0  0  0  0  0
   36.4390   29.5630   41.8690 H   0  0  0  0  0  0  0  0  0  0  0  0
   38.5220   25.8540   40.0730 C   0  0  0  0  0  0  0  0  0  0  0  0
   39.3640   25.9170   39.1470 O   0  0  0  0  0  0  0  0  0  0  0  0
   37.9550   24.6320   39.8030 O   0  0  0  0  0  0  0  0  0  0  0  0
   37.7060   24.2640   38.9020 H   0  0  0  0  0  0  0  0  0  0  0  0
  1  4  1  6  0  0  0
  1  3  1  0  0  0  0
  2  1  1  0  0  0  0
  2  3  1  0  0  0  0
  3  7  1  1  0  0  0
  3 19  1  0  0  0  0
  5  2  1  0  0  0  0
  6  2  1  0  0  0  0
  8  1  1  0  0  0  0
  8 11  1  0  0  0  0
  9  8  2  0  0  0  0
 10 15  1  0  0  0  0
 11 10  2  0  0  0  0
 11 12  1  0  0  0  0
 12 13  2  0  0  0  0
 13 14  1  0  0  0  0
 14 18  1  0  0  0  0
 15 14  2  0  0  0  0
 16 10  1  0  0  0  0
 17 12  1  0  0  0  0
 19 20  1  0  0  0  0
 20 21  2  0  0  0  0
 20 29  1  0  0  0  0
 21 22  1  0  0  0  0
 22 23  1  0  0  0  0
 22 27  1  0  0  0  0
 23 24  1  1  0  0  0
 23 27  1  0  0  0  0
 23 25  1  0  0  0  0
 26 25  1  0  0  0  0
 27 28  1  1  0  0  0
 27 25  1  0  0  0  0
 29 28  1  0  0  0  0
 30 29  1  0  0  0  0
 31 21  1  0  0  0  0
 32 31  2  0  0  0  0
 33 31  1  0  0  0  0
 34 33  1  0  0  0  0
M  END
>  <minimizedAffinity>
-5.13885212

$$$$

 OpenBabel03242512073D

 34 38  0  0  1  0  0  0  0  0999 V2000
   37.0750   27.9670   40.6830 C   0  0  1  0  0  0  0  0  0  0  0  0
   36.2850   27.1150   39.6360 C   0  0  0  0  0  0  0  0  0  0  0  0
   35.8140   28.4250   40.1520 C   0  0  2  0  0  0  0  0  0  0  0  0
   38.1120   28.0330   40.2620 H   0  0  0  0  0  0  0  0  0  0  0  0
   36.6610   27.0600   38.6130 H   0  0  0  0  0  0  0  0  0  0  0  0
   35.8440   26.1660   39.9970 H   0  0  0  0  0  0  0  0  0  0  0  0
   34.9390   28.2930   40.8720 H   0  0  0  0  0  0  0  0  0  0  0  0
   37.1370   27.3020   42.0240 C   0  0  0  0  0  0  0  0  0  0  0  0
   36.2620   27.6280   42.8390 O   0  0  0  0  0  0  0  0  0  0  0  0
   38.1230   25.0760   41.8700 C   0  0  0  0  0  0  0  0  0  0  0  0
   38.1130   26.3380   42.3930 C   0  0  0  0  0  0  0  0  0  0  0  0
   39.1180   26.6860   43.3150 C   0  0  0  0  0  0  0  0  0  0  0  0
   40.0550   25.7790   43.6600 N   0  0  0  0  0  0  0  0  0  0  0  0
   40.0400   24.5170   43.1180 C   0  0  0  0  0  0  0  0  0  0  0  0
   39.0900   24.2000   42.2510 N   0  0  0  0  0  0  0  0  0  0  0  0
   37.4020   24.7250   41.1670 H   0  0  0  0  0  0  0  0  0  0  0  0
   39.0910   27.6920   43.7170 H   0  0  0  0  0  0  0  0  0  0  0  0
   40.8320   23.8490   43.4500 H   0  0  0  0  0  0  0  0  0  0  0  0
   35.5880   29.6190   39.2830 C   0  0  0  0  0  2  0  0  0  0  0  0
   35.2660   29.3180   37.8680 C   0  0  0  0  0  0  0  0  0  0  0  0
   36.1200   29.3970   36.8680 C   0  0  0  0  0  0  0  0  0  0  0  0
   35.7880   29.0860   35.5210 N   0  0  0  0  0  0  0  0  0  0  0  0
   36.0560   29.0970   34.1170 C   0  0  1  0  0  0  0  0  0  0  0  0
   36.5410   30.0520   33.4220 O   0  0  0  0  0  1  0  0  0  0  0  0
   35.5190   27.6780   34.1710 C   0  0  0  0  0  3  0  0  0  0  0  0
   36.2190   27.0380   34.7560 H   0  0  0  0  0  0  0  0  0  0  0  0
   34.5920   28.3790   35.0980 C   0  0  1  0  0  0  0  0  0  0  0  0
   33.9440   27.4880   36.5180 S   0  0  0  0  0  0  0  0  0  0  0  0
   33.8560   28.8930   37.7230 C   0  0  0  0  0  3  0  0  0  0  0  0
   33.3940   28.4640   38.6060 H   0  0  0  0  0  0  0  0  0  0  0  0
   37.5290   29.8050   37.0480 C   0  0  0  0  0  0  0  0  0  0  0  0
   38.5700   29.2480   37.4700 O   0  0  0  0  0  0  0  0  0  0  0  0
   38.0250   31.0490   36.7420 O   0  0  0  0  0  0  0  0  0  0  0  0
   38.6750   31.5930   37.2820 H   0  0  0  0  0  0  0  0  0  0  0  0
  1  4  1  6  0  0  0
  1  8  1  0  0  0  0
  2  6  1  0  0  0  0
  2  3  1  0  0  0  0
  2  1  1  0  0  0  0
  3  1  1  0  0  0  0
  3  7  1  1  0  0  0
  5  2  1  0  0  0  0
  8 11  1  0  0  0  0
  8  9  2  0  0  0  0
 10 15  2  0  0  0  0
 10 11  1  0  0  0  0
 11 12  2  0  0  0  0
 12 13  1  0  0  0  0
 12 17  1  0  0  0  0
 14 18  1  0  0  0  0
 14 13  2  0  0  0  0
 15 14  1  0  0  0  0
 16 10  1  0  0  0  0
 19  3  1  0  0  0  0
 20 19  1  0  0  0  0
 21 31  1  0  0  0  0
 21 20  2  0  0  0  0
 22 21  1  0  0  0  0
 23 24  1  6  0  0  0
 23 25  1  0  0  0  0
 23 27  1  0  0  0  0
 23 22  1  0  0  0  0
 25 26  1  0  0  0  0
 27 25  1  1  0  0  0
 27 22  1  0  0  0  0
 27 28  1  0  0  0  0
 28 29  1  0  0  0  0
 29 20  1  0  0  0  0
 29 30  1  0  0  0  0
 31 32  2  0  0  0  0
 33 31  1  0  0  0  0
 33 34  1  0  0  0  0
M  END
>  <minimizedAffinity>
-5.12832355

$$$$
