
 OpenBabel03242518373D

 42 46  0  0  1  0  0  0  0  0999 V2000
   38.3150   30.6160   41.0770 C   0  0  2  0  0  0  0  0  0  0  0  0
   39.1960   29.6470   40.3960 C   0  0  0  0  0  0  0  0  0  0  0  0
   37.7480   29.6660   40.0380 C   0  0  1  0  0  0  0  0  0  0  0  0
   38.0420   30.4470   42.1270 H   0  0  0  0  0  0  0  0  0  0  0  0
   39.9070   30.1210   39.6690 H   0  0  0  0  0  0  0  0  0  0  0  0
   39.6730   28.8340   40.9410 H   0  0  0  0  0  0  0  0  0  0  0  0
   37.5430   30.0930   39.0250 H   0  0  0  0  0  0  0  0  0  0  0  0
   39.0410   34.0510   40.3450 C   0  0  0  0  0  0  0  0  0  0  0  0
   37.7350   33.9580   39.8620 C   0  0  0  0  0  0  0  0  0  0  0  0
   37.2680   32.6710   40.0580 C   0  0  0  0  0  0  0  0  0  0  0  0
   38.3310   32.0450   40.6560 C   0  0  0  0  0  0  0  0  0  0  0  0
   39.3660   32.8410   40.8260 O   0  0  0  0  0  0  0  0  0  0  0  0
   37.2280   34.7990   39.4170 H   0  0  0  0  0  0  0  0  0  0  0  0
   36.2970   32.2790   39.7930 H   0  0  0  0  0  0  0  0  0  0  0  0
   39.9450   35.1250   40.3850 O   0  0  0  0  0  0  0  0  0  0  0  0
   41.2950   34.9140   40.0180 C   0  0  0  0  0  0  0  0  0  0  0  0
   41.5080   34.7190   38.7930 O   0  0  0  0  0  0  0  0  0  0  0  0
   42.2420   34.9500   41.0780 C   0  0  0  0  0  0  0  0  0  0  0  0
   42.2480   36.1130   41.8090 C   0  0  0  0  0  0  0  0  0  0  0  0
   43.1500   36.2230   42.8650 C   0  0  0  0  0  0  0  0  0  0  0  0
   43.9690   35.1890   43.1210 N   0  0  0  0  0  0  0  0  0  0  0  0
   43.9300   34.0640   42.3770 C   0  0  0  0  0  0  0  0  0  0  0  0
   43.0670   33.9610   41.3670 N   0  0  0  0  0  0  0  0  0  0  0  0
   41.6060   36.9520   41.6260 H   0  0  0  0  0  0  0  0  0  0  0  0
   43.1820   37.1370   43.4690 H   0  0  0  0  0  0  0  0  0  0  0  0
   44.5730   33.2000   42.5450 H   0  0  0  0  0  0  0  0  0  0  0  0
   36.7830   28.6470   40.4950 C   0  0  0  0  0  2  0  0  0  0  0  0
   37.1530   27.2300   40.3720 C   0  0  0  0  0  0  0  0  0  0  0  0
   37.3170   26.6240   41.5770 C   0  0  0  0  0  0  0  0  0  0  0  0
   37.6520   25.2190   41.7120 N   0  0  0  0  0  0  0  0  0  0  0  0
   38.5590   24.2600   42.2730 C   0  0  0  0  0  0  0  0  0  0  0  0
   39.3110   24.2870   43.2970 O   0  0  0  0  0  0  0  0  0  0  0  0
   38.1480   23.3720   41.1240 C   0  0  0  0  0  3  0  0  0  0  0  0
   37.9540   22.3480   41.4870 H   0  0  0  0  0  0  0  0  0  0  0  0
   36.8500   24.1460   41.0710 C   0  0  2  0  0  3  0  0  0  0  0  0
   36.3970   24.8160   39.4470 S   0  0  0  0  0  0  0  0  0  0  0  0
   37.4560   26.2990   39.2590 C   0  0  0  0  0  3  0  0  0  0  0  0
   37.3680   26.7820   38.3010 H   0  0  0  0  0  0  0  0  0  0  0  0
   37.1330   27.3640   42.8440 C   0  0  0  0  0  0  0  0  0  0  0  0
   38.0410   27.7310   43.6750 O   0  0  0  0  0  0  0  0  0  0  0  0
   36.5630   28.0230   43.8900 O   0  0  0  0  0  0  0  0  0  0  0  0
   35.7610   27.5890   44.3780 H   0  0  0  0  0  0  0  0  0  0  0  0
  1  4  1  1  0  0  0
  2  6  1  0  0  0  0
  2  1  1  0  0  0  0
  3  7  1  6  0  0  0
  3  2  1  0  0  0  0
  3 27  1  0  0  0  0
  3  1  1  0  0  0  0
  5  2  1  0  0  0  0
  8 15  1  0  0  0  0
  8 12  1  0  0  0  0
  9 10  1  0  0  0  0
  9  8  2  0  0  0  0
 10 11  2  0  0  0  0
 11 12  1  0  0  0  0
 11  1  1  0  0  0  0
 13  9  1  0  0  0  0
 14 10  1  0  0  0  0
 16 15  1  0  0  0  0
 16 18  1  0  0  0  0
 17 16  2  0  0  0  0
 18 23  2  0  0  0  0
 18 19  1  0  0  0  0
 19 20  2  0  0  0  0
 20 21  1  0  0  0  0
 20 25  1  0  0  0  0
 22 26  1  0  0  0  0
 22 21  2  0  0  0  0
 23 22  1  0  0  0  0
 24 19  1  0  0  0  0
 28 27  1  0  0  0  0
 28 29  2  0  0  0  0
 29 30  1  0  0  0  0
 29 39  1  0  0  0  0
 30 31  1  0  0  0  0
 31 32  2  0  0  0  0
 33 34  1  0  0  0  0
 33 31  1  0  0  0  0
 35 36  1  6  0  0  0
 35 33  1  0  0  0  0
 35 30  1  0  0  0  0
 37 36  1  0  0  0  0
 37 28  1  0  0  0  0
 38 37  1  0  0  0  0
 39 40  2  0  0  0  0
 39 41  1  0  0  0  0
 41 42  1  0  0  0  0
M  END
>  <minimizedAffinity>
-6.69299126

$$$$

 OpenBabel03242518373D

 42 46  0  0  1  0  0  0  0  0999 V2000
   36.9110   28.2690   42.6410 C   0  0  2  0  0  0  0  0  0  0  0  0
   37.0600   27.7840   44.0260 C   0  0  0  0  0  0  0  0  0  0  0  0
   37.6250   26.9600   42.9180 C   0  0  1  0  0  0  0  0  0  0  0  0
   35.9250   28.2220   42.1590 H   0  0  0  0  0  0  0  0  0  0  0  0
   37.7860   28.3830   44.6370 H   0  0  0  0  0  0  0  0  0  0  0  0
   36.1960   27.4880   44.6190 H   0  0  0  0  0  0  0  0  0  0  0  0
   38.7420   26.9760   42.8730 H   0  0  0  0  0  0  0  0  0  0  0  0
   38.6440   30.8320   40.8260 C   0  0  0  0  0  0  0  0  0  0  0  0
   39.3530   30.8480   42.0290 C   0  0  0  0  0  0  0  0  0  0  0  0
   38.8170   29.9020   42.8840 C   0  0  0  0  0  0  0  0  0  0  0  0
   37.7990   29.3580   42.1440 C   0  0  0  0  0  0  0  0  0  0  0  0
   37.6920   29.8940   40.9460 O   0  0  0  0  0  0  0  0  0  0  0  0
   40.1790   31.5190   42.1970 H   0  0  0  0  0  0  0  0  0  0  0  0
   39.1410   29.6690   43.8880 H   0  0  0  0  0  0  0  0  0  0  0  0
   38.7890   31.5850   39.6500 O   0  0  0  0  0  0  0  0  0  0  0  0
   38.3270   32.9220   39.6150 C   0  0  0  0  0  0  0  0  0  0  0  0
   37.0890   33.0720   39.4520 O   0  0  0  0  0  0  0  0  0  0  0  0
   39.3200   33.9280   39.7690 C   0  0  0  0  0  0  0  0  0  0  0  0
   38.8530   35.1370   40.2240 C   0  0  0  0  0  0  0  0  0  0  0  0
   39.7670   36.1740   40.4000 C   0  0  0  0  0  0  0  0  0  0  0  0
   41.0600   35.9440   40.1180 N   0  0  0  0  0  0  0  0  0  0  0  0
   41.4770   34.7400   39.6720 C   0  0  0  0  0  0  0  0  0  0  0  0
   40.6010   33.7500   39.5050 N   0  0  0  0  0  0  0  0  0  0  0  0
   37.8270   35.3460   40.4570 H   0  0  0  0  0  0  0  0  0  0  0  0
   39.4280   37.1510   40.7620 H   0  0  0  0  0  0  0  0  0  0  0  0
   42.5130   34.5060   39.4300 H   0  0  0  0  0  0  0  0  0  0  0  0
   36.9960   25.7190   42.4240 C   0  0  0  0  0  2  0  0  0  0  0  0
   37.2560   25.3090   41.0360 C   0  0  0  0  0  0  0  0  0  0  0  0
   38.3750   24.5480   40.9150 C   0  0  0  0  0  0  0  0  0  0  0  0
   38.8190   23.9990   39.6480 N   0  0  0  0  0  0  0  0  0  0  0  0
   39.9000   23.8900   38.7110 C   0  0  0  0  0  0  0  0  0  0  0  0
   41.1610   23.9630   38.8440 O   0  0  0  0  0  0  0  0  0  0  0  0
   38.8240   23.6760   37.6730 C   0  0  0  0  0  3  0  0  0  0  0  0
   39.0980   22.8380   37.0100 H   0  0  0  0  0  0  0  0  0  0  0  0
   37.9350   23.1710   38.7880 C   0  0  2  0  0  3  0  0  0  0  0  0
   36.3040   23.9550   38.9120 S   0  0  0  0  0  0  0  0  0  0  0  0
   36.6380   25.5670   39.7140 C   0  0  0  0  0  3  0  0  0  0  0  0
   35.7730   26.2030   39.7960 H   0  0  0  0  0  0  0  0  0  0  0  0
   39.2060   24.2040   42.0890 C   0  0  0  0  0  0  0  0  0  0  0  0
   40.3730   24.6540   42.3800 O   0  0  0  0  0  0  0  0  0  0  0  0
   39.6380   23.6460   43.2530 O   0  0  0  0  0  0  0  0  0  0  0  0
   39.5940   22.6190   43.3620 H   0  0  0  0  0  0  0  0  0  0  0  0
  1  4  1  6  0  0  0
  1  3  1  0  0  0  0
  1  2  1  0  0  0  0
  2  6  1  0  0  0  0
  2  5  1  0  0  0  0
  3  7  1  6  0  0  0
  3  2  1  0  0  0  0
  8 12  1  0  0  0  0
  8  9  2  0  0  0  0
  9 13  1  0  0  0  0
  9 10  1  0  0  0  0
 10 14  1  0  0  0  0
 11  1  1  0  0  0  0
 11 10  2  0  0  0  0
 12 11  1  0  0  0  0
 15  8  1  0  0  0  0
 16 15  1  0  0  0  0
 16 18  1  0  0  0  0
 17 16  2  0  0  0  0
 18 19  1  0  0  0  0
 19 20  2  0  0  0  0
 19 24  1  0  0  0  0
 20 25  1  0  0  0  0
 21 20  1  0  0  0  0
 22 21  2  0  0  0  0
 23 22  1  0  0  0  0
 23 18  2  0  0  0  0
 26 22  1  0  0  0  0
 27  3  1  0  0  0  0
 28 27  1  0  0  0  0
 29 28  2  0  0  0  0
 29 39  1  0  0  0  0
 30 29  1  0  0  0  0
 31 32  2  0  0  0  0
 31 30  1  0  0  0  0
 33 31  1  0  0  0  0
 34 33  1  0  0  0  0
 35 33  1  6  0  0  0
 35 36  1  0  0  0  0
 35 30  1  0  0  0  0
 36 37  1  0  0  0  0
 37 38  1  0  0  0  0
 37 28  1  0  0  0  0
 39 40  2  0  0  0  0
 39 41  1  0  0  0  0
 41 42  1  0  0  0  0
M  END
>  <minimizedAffinity>
-6.52573776

$$$$

 OpenBabel03242518373D

 42 46  0  0  1  0  0  0  0  0999 V2000
   36.9060   30.8820   38.6110 C   0  0  2  0  0  0  0  0  0  0  0  0
   37.1680   30.2050   37.3260 C   0  0  0  0  0  0  0  0  0  0  0  0
   38.3130   30.8320   38.0480 C   0  0  1  0  0  0  0  0  0  0  0  0
   36.3890   31.8520   38.6100 H   0  0  0  0  0  0  0  0  0  0  0  0
   37.0810   29.0880   37.3810 H   0  0  0  0  0  0  0  0  0  0  0  0
   36.7620   30.5860   36.3910 H   0  0  0  0  0  0  0  0  0  0  0  0
   39.0130   30.0900   38.5070 H   0  0  0  0  0  0  0  0  0  0  0  0
   37.0340   29.2860   41.8190 C   0  0  0  0  0  0  0  0  0  0  0  0
   35.9220   28.6520   41.2650 C   0  0  0  0  0  0  0  0  0  0  0  0
   35.7040   29.1480   39.9920 C   0  0  0  0  0  0  0  0  0  0  0  0
   36.7090   30.0690   39.8430 C   0  0  0  0  0  0  0  0  0  0  0  0
   37.4870   30.1550   40.9030 O   0  0  0  0  0  0  0  0  0  0  0  0
   35.3650   27.9010   41.8000 H   0  0  0  0  0  0  0  0  0  0  0  0
   34.9220   28.8630   39.3030 H   0  0  0  0  0  0  0  0  0  0  0  0
   37.6620   29.1420   43.0670 O   0  0  0  0  0  0  0  0  0  0  0  0
   37.5070   27.9350   43.7910 C   0  0  0  0  0  0  0  0  0  0  0  0
   36.6530   27.9540   44.7150 O   0  0  0  0  0  0  0  0  0  0  0  0
   38.3350   26.8540   43.3830 C   0  0  0  0  0  0  0  0  0  0  0  0
   39.5890   26.8430   43.9420 C   0  0  0  0  0  0  0  0  0  0  0  0
   40.4600   25.8130   43.5900 C   0  0  0  0  0  0  0  0  0  0  0  0
   40.0330   24.8800   42.7230 N   0  0  0  0  0  0  0  0  0  0  0  0
   38.7910   24.9290   42.1960 C   0  0  0  0  0  0  0  0  0  0  0  0
   37.9600   25.9150   42.5340 N   0  0  0  0  0  0  0  0  0  0  0  0
   39.9540   27.5750   44.6370 H   0  0  0  0  0  0  0  0  0  0  0  0
   41.4680   25.7740   44.0180 H   0  0  0  0  0  0  0  0  0  0  0  0
   38.4000   24.1970   41.4900 H   0  0  0  0  0  0  0  0  0  0  0  0
   38.9340   32.1070   37.6380 C   0  0  0  0  0  2  0  0  0  0  0  0
   40.2940   32.4050   38.1100 C   0  0  0  0  0  0  0  0  0  0  0  0
   40.3050   33.0470   39.3080 C   0  0  0  0  0  0  0  0  0  0  0  0
   41.5300   33.4170   39.9900 N   0  0  0  0  0  0  0  0  0  0  0  0
   42.2860   34.4800   40.5870 C   0  0  0  0  0  0  0  0  0  0  0  0
   41.9440   35.5820   41.1190 O   0  0  0  0  0  0  0  0  0  0  0  0
   43.5000   33.6440   40.2610 C   0  0  0  0  0  3  0  0  0  0  0  0
   44.1870   33.6200   41.1240 H   0  0  0  0  0  0  0  0  0  0  0  0
   42.5970   32.4300   40.2970 C   0  0  2  0  0  3  0  0  0  0  0  0
   42.6650   31.3540   38.8390 S   0  0  0  0  0  0  0  0  0  0  0  0
   41.6680   32.2360   37.5800 C   0  0  0  0  0  3  0  0  0  0  0  0
   41.6660   31.7650   36.6130 H   0  0  0  0  0  0  0  0  0  0  0  0
   39.0510   33.3880   40.0120 C   0  0  0  0  0  0  0  0  0  0  0  0
   38.5070   34.5460   40.1270 O   0  0  0  0  0  0  0  0  0  0  0  0
   37.9010   33.2900   40.7340 O   0  0  0  0  0  0  0  0  0  0  0  0
   37.9210   32.7930   41.6410 H   0  0  0  0  0  0  0  0  0  0  0  0
  1  4  1  6  0  0  0
  1 11  1  0  0  0  0
  2  5  1  0  0  0  0
  2  3  1  0  0  0  0
  2  1  1  0  0  0  0
  3  7  1  1  0  0  0
  3  1  1  0  0  0  0
  6  2  1  0  0  0  0
  8 15  1  0  0  0  0
  9 13  1  0  0  0  0
  9  8  2  0  0  0  0
 10  9  1  0  0  0  0
 11 10  2  0  0  0  0
 11 12  1  0  0  0  0
 12  8  1  0  0  0  0
 14 10  1  0  0  0  0
 15 16  1  0  0  0  0
 16 17  2  0  0  0  0
 18 16  1  0  0  0  0
 18 19  1  0  0  0  0
 19 24  1  0  0  0  0
 20 19  2  0  0  0  0
 20 25  1  0  0  0  0
 21 20  1  0  0  0  0
 22 23  1  0  0  0  0
 22 21  2  0  0  0  0
 23 18  2  0  0  0  0
 26 22  1  0  0  0  0
 27  3  1  0  0  0  0
 27 28  1  0  0  0  0
 28 29  2  0  0  0  0
 29 30  1  0  0  0  0
 29 39  1  0  0  0  0
 30 35  1  0  0  0  0
 30 31  1  0  0  0  0
 31 32  2  0  0  0  0
 33 35  1  0  0  0  0
 33 31  1  0  0  0  0
 33 34  1  0  0  0  0
 35 36  1  6  0  0  0
 37 28  1  0  0  0  0
 37 36  1  0  0  0  0
 38 37  1  0  0  0  0
 39 40  2  0  0  0  0
 39 41  1  0  0  0  0
 41 42  1  0  0  0  0
M  END
>  <minimizedAffinity>
-6.48919868

$$$$

 OpenBabel03242518373D

 42 46  0  0  1  0  0  0  0  0999 V2000
   36.5240   30.2530   41.3450 C   0  0  2  0  0  0  0  0  0  0  0  0
   35.6840   30.0760   40.1440 C   0  0  0  0  0  0  0  0  0  0  0  0
   37.1330   30.3820   39.9620 C   0  0  1  0  0  0  0  0  0  0  0  0
   36.4170   31.1680   41.9440 H   0  0  0  0  0  0  0  0  0  0  0  0
   35.3620   29.0160   39.9740 H   0  0  0  0  0  0  0  0  0  0  0  0
   34.8850   30.7750   39.9040 H   0  0  0  0  0  0  0  0  0  0  0  0
   37.7310   29.5120   39.5920 H   0  0  0  0  0  0  0  0  0  0  0  0
   37.1650   27.0040   42.7210 C   0  0  0  0  0  0  0  0  0  0  0  0
   37.9800   27.7910   43.5360 C   0  0  0  0  0  0  0  0  0  0  0  0
   37.8670   29.1140   43.1490 C   0  0  0  0  0  0  0  0  0  0  0  0
   36.9790   29.0560   42.1060 C   0  0  0  0  0  0  0  0  0  0  0  0
   36.5670   27.8320   41.8510 O   0  0  0  0  0  0  0  0  0  0  0  0
   38.5770   27.3680   44.3270 H   0  0  0  0  0  0  0  0  0  0  0  0
   38.3700   29.9670   43.5810 H   0  0  0  0  0  0  0  0  0  0  0  0
   36.9230   25.6210   42.7040 O   0  0  0  0  0  0  0  0  0  0  0  0
   37.6380   24.7990   41.8000 C   0  0  0  0  0  0  0  0  0  0  0  0
   36.9420   24.0360   41.0820 O   0  0  0  0  0  0  0  0  0  0  0  0
   39.0530   24.9380   41.8180 C   0  0  0  0  0  0  0  0  0  0  0  0
   39.6170   25.2680   40.6100 C   0  0  0  0  0  0  0  0  0  0  0  0
   41.0000   25.4210   40.5470 C   0  0  0  0  0  0  0  0  0  0  0  0
   41.7170   25.2400   41.6690 N   0  0  0  0  0  0  0  0  0  0  0  0
   41.1230   24.9160   42.8360 C   0  0  0  0  0  0  0  0  0  0  0  0
   39.7990   24.7700   42.8930 N   0  0  0  0  0  0  0  0  0  0  0  0
   39.0670   25.4180   39.7010 H   0  0  0  0  0  0  0  0  0  0  0  0
   41.4830   25.6840   39.5990 H   0  0  0  0  0  0  0  0  0  0  0  0
   41.6610   24.7590   43.7700 H   0  0  0  0  0  0  0  0  0  0  0  0
   37.6410   31.7080   39.5570 C   0  0  0  0  0  2  0  0  0  0  0  0
   38.9570   31.7820   38.9060 C   0  0  0  0  0  0  0  0  0  0  0  0
   39.6890   32.8500   39.3230 C   0  0  0  0  0  0  0  0  0  0  0  0
   41.0320   33.1160   38.8470 N   0  0  0  0  0  0  0  0  0  0  0  0
   41.9110   34.0700   38.2350 C   0  0  0  0  0  0  0  0  0  0  0  0
   41.9100   35.3400   38.2030 O   0  0  0  0  0  0  0  0  0  0  0  0
   42.6880   32.8700   37.7500 C   0  0  0  0  0  3  0  0  0  0  0  0
   43.7690   33.0300   37.9040 H   0  0  0  0  0  0  0  0  0  0  0  0
   42.1170   32.1040   38.9230 C   0  0  2  0  0  3  0  0  0  0  0  0
   41.3110   30.5300   38.5200 S   0  0  0  0  0  0  0  0  0  0  0  0
   39.6740   31.0190   37.8570 C   0  0  0  0  0  3  0  0  0  0  0  0
   39.0850   30.1950   37.4920 H   0  0  0  0  0  0  0  0  0  0  0  0
   39.1620   33.8020   40.3230 C   0  0  0  0  0  0  0  0  0  0  0  0
   38.7920   35.0170   40.1280 O   0  0  0  0  0  0  0  0  0  0  0  0
   38.7370   34.3500   41.4950 O   0  0  0  0  0  0  0  0  0  0  0  0
   39.3400   34.2710   42.3320 H   0  0  0  0  0  0  0  0  0  0  0  0
  1  4  1  1  0  0  0
  1 11  1  0  0  0  0
  2  1  1  0  0  0  0
  3  7  1  6  0  0  0
  3  2  1  0  0  0  0
  3  1  1  0  0  0  0
  5  2  1  0  0  0  0
  6  2  1  0  0  0  0
  8  9  2  0  0  0  0
  9 13  1  0  0  0  0
 10  9  1  0  0  0  0
 10 14  1  0  0  0  0
 11 10  2  0  0  0  0
 12 11  1  0  0  0  0
 12  8  1  0  0  0  0
 15  8  1  0  0  0  0
 16 18  1  0  0  0  0
 16 15  1  0  0  0  0
 17 16  2  0  0  0  0
 18 23  1  0  0  0  0
 19 18  2  0  0  0  0
 20 19  1  0  0  0  0
 20 21  2  0  0  0  0
 21 22  1  0  0  0  0
 22 23  2  0  0  0  0
 22 26  1  0  0  0  0
 24 19  1  0  0  0  0
 25 20  1  0  0  0  0
 27  3  1  0  0  0  0
 28 29  2  0  0  0  0
 28 27  1  0  0  0  0
 29 39  1  0  0  0  0
 30 35  1  0  0  0  0
 30 29  1  0  0  0  0
 31 30  1  0  0  0  0
 32 31  2  0  0  0  0
 33 34  1  0  0  0  0
 33 31  1  0  0  0  0
 35 33  1  6  0  0  0
 36 35  1  0  0  0  0
 37 36  1  0  0  0  0
 37 28  1  0  0  0  0
 38 37  1  0  0  0  0
 39 41  1  0  0  0  0
 40 39  2  0  0  0  0
 41 42  1  0  0  0  0
M  END
>  <minimizedAffinity>
-6.45534372

$$$$

 OpenBabel03242518373D

 42 46  0  0  1  0  0  0  0  0999 V2000
   36.6110   30.2310   41.4140 C   0  0  2  0  0  0  0  0  0  0  0  0
   35.7100   30.1900   40.2460 C   0  0  0  0  0  0  0  0  0  0  0  0
   37.1620   30.4440   40.0170 C   0  0  1  0  0  0  0  0  0  0  0  0
   36.5760   31.0980   42.0880 H   0  0  0  0  0  0  0  0  0  0  0  0
   35.3280   29.1630   40.0080 H   0  0  0  0  0  0  0  0  0  0  0  0
   34.9360   30.9420   40.1000 H   0  0  0  0  0  0  0  0  0  0  0  0
   37.6990   29.5810   39.5510 H   0  0  0  0  0  0  0  0  0  0  0  0
   38.2310   27.5620   43.1780 C   0  0  0  0  0  0  0  0  0  0  0  0
   37.0990   26.9010   42.6990 C   0  0  0  0  0  0  0  0  0  0  0  0
   36.3270   27.7890   41.9740 C   0  0  0  0  0  0  0  0  0  0  0  0
   37.0400   28.9570   42.0550 C   0  0  0  0  0  0  0  0  0  0  0  0
   38.1490   28.8330   42.7550 O   0  0  0  0  0  0  0  0  0  0  0  0
   36.9190   25.8570   42.8990 H   0  0  0  0  0  0  0  0  0  0  0  0
   35.3900   27.5870   41.4750 H   0  0  0  0  0  0  0  0  0  0  0  0
   39.3120   27.1150   43.9540 O   0  0  0  0  0  0  0  0  0  0  0  0
   40.5530   26.8430   43.3300 C   0  0  0  0  0  0  0  0  0  0  0  0
   40.5020   26.1460   42.2840 O   0  0  0  0  0  0  0  0  0  0  0  0
   41.7020   27.3910   43.9640 C   0  0  0  0  0  0  0  0  0  0  0  0
   42.1730   28.5530   43.4040 C   0  0  0  0  0  0  0  0  0  0  0  0
   43.2970   29.1500   43.9700 C   0  0  0  0  0  0  0  0  0  0  0  0
   43.8680   28.5630   45.0360 N   0  0  0  0  0  0  0  0  0  0  0  0
   43.3730   27.4200   45.5550 C   0  0  0  0  0  0  0  0  0  0  0  0
   42.2970   26.8510   45.0110 N   0  0  0  0  0  0  0  0  0  0  0  0
   41.7360   29.0410   42.5540 H   0  0  0  0  0  0  0  0  0  0  0  0
   43.6990   30.0780   43.5480 H   0  0  0  0  0  0  0  0  0  0  0  0
   43.8000   26.9080   46.4160 H   0  0  0  0  0  0  0  0  0  0  0  0
   37.7160   31.7740   39.6930 C   0  0  0  0  0  2  0  0  0  0  0  0
   39.0240   31.8410   39.0250 C   0  0  0  0  0  0  0  0  0  0  0  0
   39.7470   32.9300   39.3980 C   0  0  0  0  0  0  0  0  0  0  0  0
   41.0820   33.1960   38.8970 N   0  0  0  0  0  0  0  0  0  0  0  0
   41.9430   34.1390   38.2440 C   0  0  0  0  0  0  0  0  0  0  0  0
   41.9270   35.4070   38.1700 O   0  0  0  0  0  0  0  0  0  0  0  0
   42.7280   32.9320   37.7890 C   0  0  0  0  0  3  0  0  0  0  0  0
   43.8090   33.1100   37.9250 H   0  0  0  0  0  0  0  0  0  0  0  0
   42.1790   32.1990   38.9940 C   0  0  2  0  0  3  0  0  0  0  0  0
   41.3870   30.6040   38.6510 S   0  0  0  0  0  0  0  0  0  0  0  0
   39.7370   31.0520   37.9930 C   0  0  0  0  0  3  0  0  0  0  0  0
   39.1530   30.2100   37.6620 H   0  0  0  0  0  0  0  0  0  0  0  0
   39.2220   33.9090   40.3730 C   0  0  0  0  0  0  0  0  0  0  0  0
   38.9260   35.1410   40.1630 O   0  0  0  0  0  0  0  0  0  0  0  0
   38.7670   34.4780   41.5230 O   0  0  0  0  0  0  0  0  0  0  0  0
   39.3210   34.3680   42.3890 H   0  0  0  0  0  0  0  0  0  0  0  0
  1 11  1  0  0  0  0
  1  4  1  1  0  0  0
  2  1  1  0  0  0  0
  3  7  1  6  0  0  0
  3  2  1  0  0  0  0
  3  1  1  0  0  0  0
  5  2  1  0  0  0  0
  6  2  1  0  0  0  0
  8 15  1  0  0  0  0
  9 13  1  0  0  0  0
  9  8  2  0  0  0  0
 10 11  2  0  0  0  0
 10  9  1  0  0  0  0
 11 12  1  0  0  0  0
 12  8  1  0  0  0  0
 14 10  1  0  0  0  0
 16 15  1  0  0  0  0
 16 18  1  0  0  0  0
 17 16  2  0  0  0  0
 18 23  1  0  0  0  0
 19 18  2  0  0  0  0
 19 20  1  0  0  0  0
 20 21  2  0  0  0  0
 21 22  1  0  0  0  0
 22 26  1  0  0  0  0
 23 22  2  0  0  0  0
 24 19  1  0  0  0  0
 25 20  1  0  0  0  0
 27  3  1  0  0  0  0
 28 29  2  0  0  0  0
 28 27  1  0  0  0  0
 29 39  1  0  0  0  0
 30 35  1  0  0  0  0
 30 29  1  0  0  0  0
 31 30  1  0  0  0  0
 32 31  2  0  0  0  0
 33 34  1  0  0  0  0
 33 31  1  0  0  0  0
 35 33  1  6  0  0  0
 36 35  1  0  0  0  0
 37 36  1  0  0  0  0
 37 28  1  0  0  0  0
 38 37  1  0  0  0  0
 39 41  1  0  0  0  0
 40 39  2  0  0  0  0
 41 42  1  0  0  0  0
M  END
>  <minimizedAffinity>
-6.38797092

$$$$

 OpenBabel03242518373D

 42 46  0  0  1  0  0  0  0  0999 V2000
   36.7160   30.6040   40.3930 C   0  0  2  0  0  0  0  0  0  0  0  0
   36.3480   30.1080   39.0520 C   0  0  0  0  0  0  0  0  0  0  0  0
   37.6770   30.7630   39.2300 C   0  0  1  0  0  0  0  0  0  0  0  0
   36.2310   31.5100   40.7820 H   0  0  0  0  0  0  0  0  0  0  0  0
   36.3380   28.9900   38.9750 H   0  0  0  0  0  0  0  0  0  0  0  0
   35.5280   30.5510   38.4890 H   0  0  0  0  0  0  0  0  0  0  0  0
   38.5370   30.0490   39.1870 H   0  0  0  0  0  0  0  0  0  0  0  0
   37.3150   27.8250   42.5790 C   0  0  0  0  0  0  0  0  0  0  0  0
   38.1940   28.7660   43.1170 C   0  0  0  0  0  0  0  0  0  0  0  0
   38.1070   29.9380   42.3880 C   0  0  0  0  0  0  0  0  0  0  0  0
   37.1680   29.6400   41.4340 C   0  0  0  0  0  0  0  0  0  0  0  0
   36.7040   28.4120   41.5390 O   0  0  0  0  0  0  0  0  0  0  0  0
   38.8150   28.5480   43.9700 H   0  0  0  0  0  0  0  0  0  0  0  0
   38.6580   30.8530   42.5510 H   0  0  0  0  0  0  0  0  0  0  0  0
   37.0270   26.5020   42.9490 O   0  0  0  0  0  0  0  0  0  0  0  0
   37.5230   25.4340   42.1640 C   0  0  0  0  0  0  0  0  0  0  0  0
   36.6650   24.6190   41.7380 O   0  0  0  0  0  0  0  0  0  0  0  0
   38.9300   25.4150   41.9560 C   0  0  0  0  0  0  0  0  0  0  0  0
   39.6720   25.0350   43.0470 C   0  0  0  0  0  0  0  0  0  0  0  0
   41.0590   24.9940   42.9200 C   0  0  0  0  0  0  0  0  0  0  0  0
   41.6050   25.3260   41.7380 N   0  0  0  0  0  0  0  0  0  0  0  0
   40.8390   25.6940   40.6910 C   0  0  0  0  0  0  0  0  0  0  0  0
   39.5120   25.7340   40.8150 N   0  0  0  0  0  0  0  0  0  0  0  0
   39.2600   24.7650   44.0000 H   0  0  0  0  0  0  0  0  0  0  0  0
   41.6810   24.6950   43.7710 H   0  0  0  0  0  0  0  0  0  0  0  0
   41.2350   25.9730   39.7140 H   0  0  0  0  0  0  0  0  0  0  0  0
   37.9780   32.1330   38.7710 C   0  0  0  0  0  2  0  0  0  0  0  0
   38.8830   32.9590   39.5850 C   0  0  0  0  0  0  0  0  0  0  0  0
   40.1410   33.0190   39.0720 C   0  0  0  0  0  0  0  0  0  0  0  0
   41.2010   33.7980   39.6820 N   0  0  0  0  0  0  0  0  0  0  0  0
   42.5350   33.7860   40.2080 C   0  0  0  0  0  0  0  0  0  0  0  0
   43.5430   33.0480   39.9770 O   0  0  0  0  0  0  0  0  0  0  0  0
   42.0910   34.9640   41.0440 C   0  0  0  0  0  3  0  0  0  0  0  0
   42.8620   35.7530   41.0260 H   0  0  0  0  0  0  0  0  0  0  0  0
   41.0510   35.2450   39.9820 C   0  0  2  0  0  3  0  0  0  0  0  0
   39.3460   35.4200   40.5750 S   0  0  0  0  0  0  0  0  0  0  0  0
   38.7910   33.6990   40.8650 C   0  0  0  0  0  3  0  0  0  0  0  0
   37.8090   33.6220   41.2990 H   0  0  0  0  0  0  0  0  0  0  0  0
   40.5020   32.3070   37.8280 C   0  0  0  0  0  0  0  0  0  0  0  0
   41.2000   31.2340   37.7150 O   0  0  0  0  0  0  0  0  0  0  0  0
   40.6130   31.9640   36.5150 O   0  0  0  0  0  0  0  0  0  0  0  0
   40.9150   32.6820   35.8340 H   0  0  0  0  0  0  0  0  0  0  0  0
  1  4  1  1  0  0  0
  1 11  1  0  0  0  0
  2  3  1  0  0  0  0
  2  1  1  0  0  0  0
  3  7  1  1  0  0  0
  3  1  1  0  0  0  0
  5  2  1  0  0  0  0
  6  2  1  0  0  0  0
  8 15  1  0  0  0  0
  8  9  2  0  0  0  0
  9 13  1  0  0  0  0
 10 14  1  0  0  0  0
 10  9  1  0  0  0  0
 11 12  1  0  0  0  0
 11 10  2  0  0  0  0
 12  8  1  0  0  0  0
 16 15  1  0  0  0  0
 17 16  2  0  0  0  0
 18 16  1  0  0  0  0
 18 19  1  0  0  0  0
 19 24  1  0  0  0  0
 20 19  2  0  0  0  0
 20 25  1  0  0  0  0
 21 20  1  0  0  0  0
 22 23  1  0  0  0  0
 22 21  2  0  0  0  0
 23 18  2  0  0  0  0
 26 22  1  0  0  0  0
 27  3  1  0  0  0  0
 27 28  1  0  0  0  0
 28 37  1  0  0  0  0
 29 28  2  0  0  0  0
 29 30  1  0  0  0  0
 30 35  1  0  0  0  0
 30 31  1  0  0  0  0
 31 33  1  0  0  0  0
 32 31  2  0  0  0  0
 34 33  1  0  0  0  0
 35 36  1  1  0  0  0
 35 33  1  0  0  0  0
 36 37  1  0  0  0  0
 37 38  1  0  0  0  0
 39 29  1  0  0  0  0
 40 39  2  0  0  0  0
 41 39  1  0  0  0  0
 42 41  1  0  0  0  0
M  END
>  <minimizedAffinity>
-6.37628078

$$$$

 OpenBabel03242518373D

 42 46  0  0  1  0  0  0  0  0999 V2000
   38.7510   33.4720   39.4510 C   0  0  2  0  0  0  0  0  0  0  0  0
   37.3040   33.7510   39.5400 C   0  0  0  0  0  0  0  0  0  0  0  0
   37.8830   32.7050   40.4320 C   0  0  1  0  0  0  0  0  0  0  0  0
   39.1390   32.9270   38.5800 H   0  0  0  0  0  0  0  0  0  0  0  0
   37.0660   34.7430   40.0050 H   0  0  0  0  0  0  0  0  0  0  0  0
   36.6330   33.5330   38.7110 H   0  0  0  0  0  0  0  0  0  0  0  0
   37.9430   33.0150   41.5050 H   0  0  0  0  0  0  0  0  0  0  0  0
   41.5500   35.1430   40.9450 C   0  0  0  0  0  0  0  0  0  0  0  0
   40.5920   36.1570   40.9930 C   0  0  0  0  0  0  0  0  0  0  0  0
   39.4110   35.6930   40.4450 C   0  0  0  0  0  0  0  0  0  0  0  0
   39.7200   34.4050   40.0900 C   0  0  0  0  0  0  0  0  0  0  0  0
   40.9630   34.0790   40.3770 O   0  0  0  0  0  0  0  0  0  0  0  0
   40.8080   37.1290   41.4070 H   0  0  0  0  0  0  0  0  0  0  0  0
   38.4820   36.2340   40.3350 H   0  0  0  0  0  0  0  0  0  0  0  0
   42.8880   35.1050   41.3690 O   0  0  0  0  0  0  0  0  0  0  0  0
   43.5640   33.8630   41.4350 C   0  0  0  0  0  0  0  0  0  0  0  0
   43.3890   33.1970   42.4880 O   0  0  0  0  0  0  0  0  0  0  0  0
   44.3560   33.5250   40.3040 C   0  0  0  0  0  0  0  0  0  0  0  0
   44.1410   32.2640   39.8030 C   0  0  0  0  0  0  0  0  0  0  0  0
   44.8820   31.8590   38.6950 C   0  0  0  0  0  0  0  0  0  0  0  0
   45.7690   32.7190   38.1670 N   0  0  0  0  0  0  0  0  0  0  0  0
   45.9490   33.9490   38.6900 C   0  0  0  0  0  0  0  0  0  0  0  0
   45.2400   34.3340   39.7510 N   0  0  0  0  0  0  0  0  0  0  0  0
   43.4400   31.5590   40.2060 H   0  0  0  0  0  0  0  0  0  0  0  0
   44.7350   30.8600   38.2700 H   0  0  0  0  0  0  0  0  0  0  0  0
   46.6560   34.6800   38.2980 H   0  0  0  0  0  0  0  0  0  0  0  0
   37.7100   31.2560   40.2080 C   0  0  0  0  0  2  0  0  0  0  0  0
   38.2550   30.3260   41.2070 C   0  0  0  0  0  0  0  0  0  0  0  0
   37.3710   29.3520   41.5540 C   0  0  0  0  0  0  0  0  0  0  0  0
   37.6910   28.3000   42.4990 N   0  0  0  0  0  0  0  0  0  0  0  0
   37.3110   27.6300   43.7080 C   0  0  0  0  0  0  0  0  0  0  0  0
   36.1910   27.4750   44.2880 O   0  0  0  0  0  0  0  0  0  0  0  0
   38.7760   27.2880   43.8420 C   0  0  0  0  0  3  0  0  0  0  0  0
   38.8940   26.2290   44.1260 H   0  0  0  0  0  0  0  0  0  0  0  0
   38.8810   27.4250   42.3390 C   0  0  2  0  0  3  0  0  0  0  0  0
   40.1890   28.5290   41.7380 S   0  0  0  0  0  0  0  0  0  0  0  0
   39.5100   30.2110   41.9870 C   0  0  0  0  0  3  0  0  0  0  0  0
   40.2000   31.0020   41.7490 H   0  0  0  0  0  0  0  0  0  0  0  0
   36.0200   29.2900   40.9580 C   0  0  0  0  0  0  0  0  0  0  0  0
   35.6050   28.4930   40.0390 O   0  0  0  0  0  0  0  0  0  0  0  0
   34.7120   29.5450   40.6800 O   0  0  0  0  0  0  0  0  0  0  0  0
   34.4210   30.5190   40.4900 H   0  0  0  0  0  0  0  0  0  0  0  0
  1  4  1  6  0  0  0
  1  2  1  0  0  0  0
  1 11  1  0  0  0  0
  1  3  1  0  0  0  0
  2  5  1  0  0  0  0
  2  3  1  0  0  0  0
  3  7  1  1  0  0  0
  6  2  1  0  0  0  0
  8  9  2  0  0  0  0
  8 15  1  0  0  0  0
  9 13  1  0  0  0  0
 10  9  1  0  0  0  0
 11 12  1  0  0  0  0
 11 10  2  0  0  0  0
 12  8  1  0  0  0  0
 14 10  1  0  0  0  0
 15 16  1  0  0  0  0
 16 17  2  0  0  0  0
 18 16  1  0  0  0  0
 19 24  1  0  0  0  0
 19 18  1  0  0  0  0
 20 19  2  0  0  0  0
 21 22  2  0  0  0  0
 21 20  1  0  0  0  0
 22 23  1  0  0  0  0
 23 18  2  0  0  0  0
 25 20  1  0  0  0  0
 26 22  1  0  0  0  0
 27  3  1  0  0  0  0
 27 28  1  0  0  0  0
 28 29  2  0  0  0  0
 28 37  1  0  0  0  0
 29 30  1  0  0  0  0
 30 31  1  0  0  0  0
 31 33  1  0  0  0  0
 31 32  2  0  0  0  0
 33 34  1  0  0  0  0
 35 36  1  1  0  0  0
 35 30  1  0  0  0  0
 35 33  1  0  0  0  0
 36 37  1  0  0  0  0
 38 37  1  0  0  0  0
 39 29  1  0  0  0  0
 40 39  2  0  0  0  0
 41 39  1  0  0  0  0
 42 41  1  0  0  0  0
M  END
>  <minimizedAffinity>
-6.35617638

$$$$

 OpenBabel03242518373D

 42 46  0  0  1  0  0  0  0  0999 V2000
   37.7170   29.3150   38.9920 C   0  0  2  0  0  0  0  0  0  0  0  0
   36.3430   29.8520   38.9680 C   0  0  0  0  0  0  0  0  0  0  0  0
   36.8650   29.2880   40.2460 C   0  0  1  0  0  0  0  0  0  0  0  0
   37.9290   28.3580   38.4960 H   0  0  0  0  0  0  0  0  0  0  0  0
   36.2980   30.9690   38.8840 H   0  0  0  0  0  0  0  0  0  0  0  0
   35.5610   29.3800   38.3750 H   0  0  0  0  0  0  0  0  0  0  0  0
   37.0850   30.0640   41.0210 H   0  0  0  0  0  0  0  0  0  0  0  0
   39.9750   32.1010   39.0680 C   0  0  0  0  0  0  0  0  0  0  0  0
   40.8740   31.0410   39.1930 C   0  0  0  0  0  0  0  0  0  0  0  0
   40.1740   29.8490   39.1850 C   0  0  0  0  0  0  0  0  0  0  0  0
   38.8720   30.2550   39.0550 C   0  0  0  0  0  0  0  0  0  0  0  0
   38.7480   31.5650   38.9880 O   0  0  0  0  0  0  0  0  0  0  0  0
   41.9370   31.1990   39.2770 H   0  0  0  0  0  0  0  0  0  0  0  0
   40.5800   28.8510   39.2650 H   0  0  0  0  0  0  0  0  0  0  0  0
   40.1740   33.4900   39.0210 O   0  0  0  0  0  0  0  0  0  0  0  0
   41.4850   34.0030   38.8780 C   0  0  0  0  0  0  0  0  0  0  0  0
   42.0050   33.8740   37.7400 O   0  0  0  0  0  0  0  0  0  0  0  0
   42.0500   34.6000   40.0380 C   0  0  0  0  0  0  0  0  0  0  0  0
   41.2890   35.5900   40.6090 C   0  0  0  0  0  0  0  0  0  0  0  0
   41.7770   36.2230   41.7490 C   0  0  0  0  0  0  0  0  0  0  0  0
   42.9680   35.8370   42.2380 N   0  0  0  0  0  0  0  0  0  0  0  0
   43.6840   34.8590   41.6460 C   0  0  0  0  0  0  0  0  0  0  0  0
   43.2150   34.2550   40.5540 N   0  0  0  0  0  0  0  0  0  0  0  0
   40.3360   35.9170   40.2380 H   0  0  0  0  0  0  0  0  0  0  0  0
   41.1950   37.0180   42.2300 H   0  0  0  0  0  0  0  0  0  0  0  0
   44.6530   34.5110   42.0040 H   0  0  0  0  0  0  0  0  0  0  0  0
   36.4690   27.9690   40.7770 C   0  0  0  0  0  2  0  0  0  0  0  0
   37.5220   26.9770   41.0390 C   0  0  0  0  0  0  0  0  0  0  0  0
   37.9160   26.9610   42.3400 C   0  0  0  0  0  0  0  0  0  0  0  0
   38.9200   26.0450   42.8460 N   0  0  0  0  0  0  0  0  0  0  0  0
   40.1630   25.9110   43.5490 C   0  0  0  0  0  0  0  0  0  0  0  0
   40.7430   26.6400   44.4130 O   0  0  0  0  0  0  0  0  0  0  0  0
   40.3250   24.6210   42.7820 C   0  0  0  0  0  3  0  0  0  0  0  0
   40.6680   23.8190   43.4570 H   0  0  0  0  0  0  0  0  0  0  0  0
   38.8170   24.5750   42.6640 C   0  0  2  0  0  3  0  0  0  0  0  0
   38.1640   24.3610   40.9860 S   0  0  0  0  0  0  0  0  0  0  0  0
   38.3150   26.0220   40.2280 C   0  0  0  0  0  3  0  0  0  0  0  0
   38.0370   26.0570   39.1890 H   0  0  0  0  0  0  0  0  0  0  0  0
   37.3160   27.8710   43.3390 C   0  0  0  0  0  0  0  0  0  0  0  0
   36.3830   27.6040   44.1800 O   0  0  0  0  0  0  0  0  0  0  0  0
   37.0400   28.9740   44.0880 O   0  0  0  0  0  0  0  0  0  0  0  0
   36.8660   29.8740   43.6090 H   0  0  0  0  0  0  0  0  0  0  0  0
  1  4  1  6  0  0  0
  1 11  1  0  0  0  0
  1  3  1  0  0  0  0
  2  1  1  0  0  0  0
  2  3  1  0  0  0  0
  3 27  1  0  0  0  0
  3  7  1  1  0  0  0
  5  2  1  0  0  0  0
  6  2  1  0  0  0  0
  8  9  2  0  0  0  0
  9 13  1  0  0  0  0
 10  9  1  0  0  0  0
 10 14  1  0  0  0  0
 11 10  2  0  0  0  0
 12 11  1  0  0  0  0
 12  8  1  0  0  0  0
 15  8  1  0  0  0  0
 16 15  1  0  0  0  0
 16 18  1  0  0  0  0
 17 16  2  0  0  0  0
 18 23  2  0  0  0  0
 18 19  1  0  0  0  0
 19 20  2  0  0  0  0
 20 25  1  0  0  0  0
 20 21  1  0  0  0  0
 22 26  1  0  0  0  0
 22 21  2  0  0  0  0
 23 22  1  0  0  0  0
 24 19  1  0  0  0  0
 27 28  1  0  0  0  0
 28 29  2  0  0  0  0
 29 30  1  0  0  0  0
 29 39  1  0  0  0  0
 30 31  1  0  0  0  0
 31 32  2  0  0  0  0
 33 34  1  0  0  0  0
 33 31  1  0  0  0  0
 35 36  1  6  0  0  0
 35 33  1  0  0  0  0
 35 30  1  0  0  0  0
 37 36  1  0  0  0  0
 37 28  1  0  0  0  0
 38 37  1  0  0  0  0
 39 41  1  0  0  0  0
 39 40  2  0  0  0  0
 42 41  1  0  0  0  0
M  END
>  <minimizedAffinity>
-6.35384274

$$$$

 OpenBabel03242518373D

 42 46  0  0  1  0  0  0  0  0999 V2000
   37.0310   27.6250   42.2320 C   0  0  2  0  0  0  0  0  0  0  0  0
   36.4120   27.3090   43.5340 C   0  0  0  0  0  0  0  0  0  0  0  0
   37.7580   27.9530   43.5220 C   0  0  1  0  0  0  0  0  0  0  0  0
   37.4280   26.8080   41.6140 H   0  0  0  0  0  0  0  0  0  0  0  0
   35.5370   27.9640   43.7850 H   0  0  0  0  0  0  0  0  0  0  0  0
   36.2380   26.2800   43.8440 H   0  0  0  0  0  0  0  0  0  0  0  0
   37.7460   29.0220   43.8490 H   0  0  0  0  0  0  0  0  0  0  0  0
   36.5080   30.8260   40.7020 C   0  0  0  0  0  0  0  0  0  0  0  0
   35.4190   30.1190   40.1900 C   0  0  0  0  0  0  0  0  0  0  0  0
   35.4490   28.8250   40.6780 C   0  0  0  0  0  0  0  0  0  0  0  0
   36.5690   28.8180   41.4680 C   0  0  0  0  0  0  0  0  0  0  0  0
   37.1910   29.9790   41.4860 O   0  0  0  0  0  0  0  0  0  0  0  0
   34.7040   30.5730   39.5240 H   0  0  0  0  0  0  0  0  0  0  0  0
   34.7470   28.0310   40.4700 H   0  0  0  0  0  0  0  0  0  0  0  0
   36.9250   32.1550   40.5190 O   0  0  0  0  0  0  0  0  0  0  0  0
   37.8500   32.4610   39.4930 C   0  0  0  0  0  0  0  0  0  0  0  0
   37.6120   31.9550   38.3670 O   0  0  0  0  0  0  0  0  0  0  0  0
   38.9350   33.3030   39.8650 C   0  0  0  0  0  0  0  0  0  0  0  0
   38.5810   34.5840   40.2100 C   0  0  0  0  0  0  0  0  0  0  0  0
   39.5900   35.4690   40.5850 C   0  0  0  0  0  0  0  0  0  0  0  0
   40.8590   35.0290   40.5920 N   0  0  0  0  0  0  0  0  0  0  0  0
   41.1640   33.7610   40.2450 C   0  0  0  0  0  0  0  0  0  0  0  0
   40.1970   32.9170   39.8860 N   0  0  0  0  0  0  0  0  0  0  0  0
   37.5760   34.9590   40.2130 H   0  0  0  0  0  0  0  0  0  0  0  0
   39.3420   36.4980   40.8670 H   0  0  0  0  0  0  0  0  0  0  0  0
   42.1760   33.3590   40.2350 H   0  0  0  0  0  0  0  0  0  0  0  0
   39.0110   27.2260   43.8070 C   0  0  0  0  0  2  0  0  0  0  0  0
   40.2290   27.6250   43.0860 C   0  0  0  0  0  0  0  0  0  0  0  0
   40.8730   26.5710   42.5200 C   0  0  0  0  0  0  0  0  0  0  0  0
   42.0810   26.7190   41.7310 N   0  0  0  0  0  0  0  0  0  0  0  0
   43.4450   26.3130   41.5550 C   0  0  0  0  0  0  0  0  0  0  0  0
   44.0730   25.2550   41.8720 O   0  0  0  0  0  0  0  0  0  0  0  0
   43.6370   27.6550   40.8900 C   0  0  0  0  0  3  0  0  0  0  0  0
   44.2220   27.5370   39.9620 H   0  0  0  0  0  0  0  0  0  0  0  0
   42.1600   27.6350   40.5640 C   0  0  2  0  0  3  0  0  0  0  0  0
   41.2220   29.1040   41.0660 S   0  0  0  0  0  0  0  0  0  0  0  0
   40.9740   28.8870   42.8680 C   0  0  0  0  0  3  0  0  0  0  0  0
   40.4920   29.7220   43.3480 H   0  0  0  0  0  0  0  0  0  0  0  0
   40.3580   25.1910   42.6520 C   0  0  0  0  0  0  0  0  0  0  0  0
   39.7450   24.4960   41.7630 O   0  0  0  0  0  0  0  0  0  0  0  0
   40.0450   23.9660   43.1580 O   0  0  0  0  0  0  0  0  0  0  0  0
   39.5670   23.9100   44.0730 H   0  0  0  0  0  0  0  0  0  0  0  0
  1  4  1  6  0  0  0
  1  3  1  0  0  0  0
  1  2  1  0  0  0  0
  2  5  1  0  0  0  0
  2  6  1  0  0  0  0
  3  2  1  0  0  0  0
  3 27  1  0  0  0  0
  3  7  1  1  0  0  0
  8 12  1  0  0  0  0
  9 10  1  0  0  0  0
  9  8  2  0  0  0  0
 10 11  2  0  0  0  0
 11 12  1  0  0  0  0
 11  1  1  0  0  0  0
 13  9  1  0  0  0  0
 14 10  1  0  0  0  0
 15  8  1  0  0  0  0
 16 18  1  0  0  0  0
 16 15  1  0  0  0  0
 17 16  2  0  0  0  0
 18 23  2  0  0  0  0
 18 19  1  0  0  0  0
 19 24  1  0  0  0  0
 19 20  2  0  0  0  0
 20 21  1  0  0  0  0
 20 25  1  0  0  0  0
 22 21  2  0  0  0  0
 23 22  1  0  0  0  0
 26 22  1  0  0  0  0
 28 27  1  0  0  0  0
 29 39  1  0  0  0  0
 29 28  2  0  0  0  0
 30 29  1  0  0  0  0
 31 30  1  0  0  0  0
 31 32  2  0  0  0  0
 33 31  1  0  0  0  0
 34 33  1  0  0  0  0
 35 33  1  1  0  0  0
 35 36  1  0  0  0  0
 35 30  1  0  0  0  0
 36 37  1  0  0  0  0
 37 28  1  0  0  0  0
 37 38  1  0  0  0  0
 39 41  1  0  0  0  0
 40 39  2  0  0  0  0
 41 42  1  0  0  0  0
M  END
>  <minimizedAffinity>
-6.30656576

$$$$
