
     RDKit          3D

 32 34  0  0  0  0  0  0  0  0999 V2000
   46.2202   34.8362   43.1906 C   0  0  0  0  0  0  0  0  0  0  0  0
   45.3267   35.9021   43.2813 C   0  0  0  0  0  0  0  0  0  0  0  0
   44.5561   36.0118   44.4525 C   0  0  0  0  0  0  0  0  0  0  0  0
   44.7414   35.0615   45.4184 N   0  0  0  0  0  0  0  0  0  0  0  0
   45.6133   34.0534   45.2866 C   0  0  0  0  0  0  0  0  0  0  0  0
   46.3542   33.9424   44.1677 N   0  0  0  0  0  0  0  0  0  0  0  0
   46.9562   34.8077   41.9687 C   0  0  0  0  0  0  0  0  0  0  0  0
   48.0589   35.3879   41.7282 O   0  0  0  0  0  0  0  0  0  0  0  0
   45.1859   36.6514   42.5107 H   0  0  0  0  0  0  0  0  0  0  0  0
   43.8459   36.8195   44.5780 H   0  0  0  0  0  0  0  0  0  0  0  0
   45.6609   33.3700   46.1278 H   0  0  0  0  0  0  0  0  0  0  0  0
   41.6479   35.8537   38.5206 C   0  0  0  0  0  0  0  0  0  0  0  0
   40.8113   36.1919   39.1638 H   0  0  0  0  0  0  0  0  0  0  0  0
   42.8027   35.4896   39.3816 C   0  0  0  0  0  0  0  0  0  0  0  0
   43.8546   35.0615   38.7353 C   0  0  0  0  0  0  0  0  0  0  0  0
   43.8852   34.9525   37.2695 C   0  0  0  0  0  0  0  0  0  0  0  0
   42.9753   35.2286   36.4498 O   0  0  0  0  0  0  0  0  0  0  0  0
   44.9819   34.5061   36.5558 O   0  0  0  0  0  0  0  0  0  0  0  0
   45.0224   34.6761   39.4512 N   0  0  0  0  0  0  0  0  0  0  0  0
   46.4646   34.6956   39.5074 C   0  0  0  0  0  0  0  0  0  0  0  0
   47.4269   35.1049   38.7715 O   0  0  0  0  0  0  0  0  0  0  0  0
   46.4187   34.0257   40.8116 C   0  0  2  0  0  0  0  0  0  0  0  0
   44.9401   33.9180   40.7122 C   0  0  1  0  0  0  0  0  0  0  0  0
   43.9671   34.9227   41.8219 S   0  0  0  0  0  0  0  0  0  0  0  0
   42.6493   35.6499   40.8433 C   0  0  2  0  0  0  0  0  0  0  0  0
   41.7076   35.0874   41.1128 H   0  0  0  0  0  0  0  0  0  0  0  0
   41.8644   36.7104   37.8466 H   0  0  0  0  0  0  0  0  0  0  0  0
   41.2559   34.9525   37.9821 H   0  0  0  0  0  0  0  0  0  0  0  0
   45.2816   34.9366   35.6944 H   0  0  0  0  0  0  0  0  0  0  0  0
   46.9681   33.0519   40.7240 H   0  0  0  0  0  0  0  0  0  0  0  0
   44.6325   32.8691   40.5704 H   0  0  0  0  0  0  0  0  0  0  0  0
   42.4211   36.6957   41.1354 H   0  0  0  0  0  0  0  0  0  0  0  0
  1  2  2  0
  1  6  1  0
  2  3  1  0
  3  4  2  0
  5  4  1  0
  6  5  2  0
  7  1  1  0
  8  7  2  0
  2  9  1  0
  3 10  1  0
  5 11  1  0
 12 13  1  0
 12 14  1  0
 14 15  2  0
 15 16  1  0
 16 17  2  0
 16 18  1  0
 15 19  1  0
 19 20  1  0
 20 21  2  0
 20 22  1  0
 22 23  1  0
 23 24  1  0
 24 25  1  0
 25 26  1  1
 25 14  1  0
 23 19  1  0
 12 27  1  0
 12 28  1  0
 18 29  1  0
 22 30  1  6
 23 31  1  6
 25 32  1  0
  7 22  1  0
M  ISO  5   9  14  10  14  11  14  13   8  26  15
M  END
>  <DihAtoms>  (1) 
0,6,21,19

>  <DihDeg>  (1) 
-59.99983712908399

$$$$
