
     RDKit          3D

 34 36  0  0  0  0  0  0  0  0999 V2000
   44.9152   35.1335   44.0487 C   0  0  0  0  0  0  0  0  0  0  0  0
   45.7361   35.3894   42.9283 C   0  0  0  0  0  0  0  0  0  0  0  0
   46.9483   34.6758   42.8160 C   0  0  0  0  0  0  0  0  0  0  0  0
   47.2458   33.7851   43.7994 N   0  0  0  0  0  0  0  0  0  0  0  0
   46.4294   33.5727   44.8540 C   0  0  0  0  0  0  0  0  0  0  0  0
   45.2849   34.2474   44.9589 N   0  0  0  0  0  0  0  0  0  0  0  0
   43.6969   35.8415   44.1746 N   0  0  0  0  0  0  0  0  0  0  0  0
   47.7426   34.9722   41.6629 C   0  0  0  0  0  0  0  0  0  0  0  0
   48.6678   35.8174   41.6482 O   0  0  0  0  0  0  0  0  0  0  0  0
   45.4150   36.1202   42.1927 H   0  0  0  0  0  0  0  0  0  0  0  0
   46.7182   32.8498   45.6085 H   0  0  0  0  0  0  0  0  0  0  0  0
   43.9360   36.8433   44.4333 H   0  0  0  0  0  0  0  0  0  0  0  0
   42.7113   35.4799   44.0444 H   0  0  0  0  0  0  0  0  0  0  0  0
   48.9388   32.7195   35.2734 C   0  0  0  0  0  0  0  0  0  0  0  0
   49.9705   33.0705   35.0712 H   0  0  0  0  0  0  0  0  0  0  0  0
   48.4337   33.2097   36.5533 C   0  0  0  0  0  0  0  0  0  0  0  0
   49.1048   32.8588   37.6369 C   0  0  0  0  0  0  0  0  0  0  0  0
   50.2975   32.0201   37.5884 C   0  0  0  0  0  0  0  0  0  0  0  0
   51.0045   31.6281   38.5320 O   0  0  0  0  0  0  0  0  0  0  0  0
   50.9149   31.4686   36.4791 O   0  0  0  0  0  0  0  0  0  0  0  0
   48.6533   33.3229   38.9028 N   0  0  0  0  0  0  0  0  0  0  0  0
   48.3124   32.9905   40.2731 C   0  0  0  0  0  0  0  0  0  0  0  0
   48.6005   32.0215   41.0574 O   0  0  0  0  0  0  0  0  0  0  0  0
   47.4887   34.2535   40.3733 C   0  0  2  0  0  0  0  0  0  0  0  0
   48.3215   34.7255   39.2001 C   0  0  2  0  0  0  0  0  0  0  0  0
   47.3950   35.3625   37.7898 S   0  0  0  0  0  0  0  0  0  0  0  0
   47.2209   34.0432   36.5653 C   0  0  1  0  0  0  0  0  0  0  0  0
   47.0147   34.4401   35.5516 H   0  0  0  0  0  0  0  0  0  0  0  0
   48.3006   33.0334   34.4153 H   0  0  0  0  0  0  0  0  0  0  0  0
   48.9673   31.5937   35.2021 H   0  0  0  0  0  0  0  0  0  0  0  0
   51.8715   31.6402   36.2100 H   0  0  0  0  0  0  0  0  0  0  0  0
   46.4374   34.1381   40.1062 H   0  0  0  0  0  0  0  0  0  0  0  0
   49.2081   35.3161   39.4744 H   0  0  0  0  0  0  0  0  0  0  0  0
   46.3119   33.4543   36.8684 H   0  0  0  0  0  0  0  0  0  0  0  0
  1  7  1  0
  1  6  2  0
  2  1  1  0
  3  2  2  0
  3  4  1  0
  4  5  2  0
  5  6  1  0
  8  3  1  0
  9  8  2  0
  2 10  1  0
  5 11  1  0
  7 12  1  0
  7 13  1  0
 14 15  1  0
 14 16  1  0
 16 17  2  0
 17 18  1  0
 18 19  2  0
 18 20  1  0
 17 21  1  0
 21 22  1  0
 22 23  2  0
 22 24  1  0
 24 25  1  0
 25 26  1  0
 26 27  1  0
 27 28  1  6
 27 16  1  0
 25 21  1  0
 14 29  1  0
 14 30  1  0
 20 31  1  0
 24 32  1  6
 25 33  1  1
 27 34  1  0
  8 24  1  0
M  ISO  4  10  14  11  14  15   8  28  15
M  END
>  <DihAtoms>  (1) 
2,7,23,21

>  <DihDeg>  (1) 
-179.99765998644892

$$$$
