
 OpenBabel03242520453D

 29 31  0  0  1  0  0  0  0  0999 V2000
   48.5100   30.1890   39.2700 C   0  0  0  0  0  0  0  0  0  0  0  0
   47.4100   30.7160   39.7820 C   0  0  0  0  0  0  0  0  0  0  0  0
   47.4520   32.0480   40.2730 N   0  0  0  0  0  0  0  0  0  0  0  0
   46.8400   33.3630   40.2880 C   0  0  0  0  0  0  0  0  0  0  0  0
   45.6710   33.8090   40.0210 O   0  0  0  0  0  0  0  0  0  0  0  0
   48.1490   33.9670   40.7440 C   0  0  2  0  0  3  0  0  0  0  0  0
   48.4820   32.5590   41.1920 C   0  0  2  0  0  3  0  0  0  0  0  0
   50.0690   31.9150   40.6250 S   0  0  0  0  0  0  0  0  0  0  0  0
   49.7900   30.9040   39.1510 C   0  0  0  0  0  3  0  0  0  0  0  0
   50.6180   30.1880   38.9750 H   0  0  0  0  0  0  0  0  0  0  0  0
   47.9400   34.9530   41.8530 C   0  0  0  0  0  0  0  0  0  0  0  0
   48.5610   36.0360   41.7480 O   0  0  0  0  0  0  0  0  0  0  0  0
   44.9800   35.0880   44.0750 C   0  0  0  0  0  0  0  0  0  0  0  0
   45.8710   35.3690   43.0150 C   0  0  0  0  0  0  0  0  0  0  0  0
   47.0710   34.6310   42.9440 C   0  0  0  0  0  0  0  0  0  0  0  0
   47.2900   33.6930   43.9040 N   0  0  0  0  0  0  0  0  0  0  0  0
   46.4070   33.4600   44.9000 C   0  0  0  0  0  0  0  0  0  0  0  0
   45.2750   34.1570   44.9670 N   0  0  0  0  0  0  0  0  0  0  0  0
   43.7730   35.8220   44.1590 N   0  0  0  0  0  0  0  0  0  0  0  0
   45.6110   36.1370   42.2940 H   0  0  0  0  0  0  0  0  0  0  0  0
   46.6350   32.7000   45.6390 H   0  0  0  0  0  0  0  0  0  0  0  0
   44.0190   36.8060   44.4720 H   0  0  0  0  0  0  0  0  0  0  0  0
   42.7880   35.4910   43.9560 H   0  0  0  0  0  0  0  0  0  0  0  0
   48.4230   28.8130   38.7860 C   0  0  0  0  0  2  0  0  0  0  0  0
   48.1420   28.1070   39.5910 H   0  0  0  0  0  0  0  0  0  0  0  0
   46.1530   29.9800   39.8720 C   0  0  0  0  0  0  0  0  0  0  0  0
   45.7290   29.2910   40.8140 O   0  0  0  0  0  0  0  0  0  0  0  0
   45.1460   29.8820   38.9280 O   0  0  0  0  0  0  0  0  0  0  0  0
   44.8200   29.0160   38.5260 H   0  0  0  0  0  0  0  0  0  0  0  0
  1  2  2  0  0  0  0
  2 26  1  0  0  0  0
  2  3  1  0  0  0  0
  3  4  1  0  0  0  0
  3  7  1  0  0  0  0
  4  6  1  0  0  0  0
  5  4  2  0  0  0  0
  6  7  1  0  0  0  0
  6 11  1  1  0  0  0
  7  8  1  6  0  0  0
  9  1  1  0  0  0  0
  9  8  1  0  0  0  0
 10  9  1  0  0  0  0
 11 15  1  0  0  0  0
 12 11  2  0  0  0  0
 13 19  1  0  0  0  0
 13 18  1  0  0  0  0
 14 13  2  0  0  0  0
 15 14  1  0  0  0  0
 15 16  2  0  0  0  0
 16 17  1  0  0  0  0
 17 18  2  0  0  0  0
 17 21  1  0  0  0  0
 19 22  1  0  0  0  0
 20 14  1  0  0  0  0
 23 19  1  0  0  0  0
 24  1  1  0  0  0  0
 24 25  1  0  0  0  0
 26 27  2  0  0  0  0
 28 26  1  0  0  0  0
 29 28  1  0  0  0  0
M  END
>  <minimizedAffinity>
-4.6027627

>  <minimizedRMSD>
1.29535472

$$$$
