REMARK  Name = 
REMARK  5 active torsions:
REMARK  status: ('A' for Active; 'I' for Inactive)
REMARK    1  A    between atoms: C_5  and  C_7
REMARK    2  A    between atoms: C_7  and  C_22
REMARK    3  A    between atoms: C_12  and  C_14
REMARK    4  A    between atoms: C_15  and  C_16
REMARK    5  A    between atoms: C_16  and  O_18
REMARK                            x       y       z     vdW  Elec       q    Type
REMARK                         _______ _______ _______ _____ _____    ______ ____
ROOT
ATOM      1  C   UNL     1      49.274  33.069  42.905  0.00  0.00    +0.000 C 
ATOM      2  C   UNL     1      48.782  31.889  43.226  0.00  0.00    +0.000 C 
ATOM      3  N   UNL     1      47.958  31.796  44.379  0.00  0.00    +0.000 N 
ATOM      4  C   UNL     1      46.852  31.224  45.060  0.00  0.00    +0.000 C 
ATOM      5  O   UNL     1      46.008  30.301  44.795  0.00  0.00    +0.000 OA
ATOM      6  C   UNL     1      46.986  32.089  46.259  0.00  0.00    +0.000 C 
ATOM      7  C   UNL     1      48.196  32.620  45.578  0.00  0.00    +0.000 C 
ATOM      8  S   UNL     1      48.004  34.332  44.941  0.00  0.00    +0.000 S 
ATOM      9  C   UNL     1      49.136  34.395  43.536  0.00  0.00    +0.000 C 
ATOM     10  H   UNL     1      50.152  34.620  43.977  0.00  0.00    +0.000 HD
ENDROOT
BRANCH   6  11
ATOM     11  C   UNL     1      45.872  33.048  46.450  0.00  0.00    +0.000 C 
ATOM     12  O   UNL     1      45.161  33.023  47.486  0.00  0.00    +0.000 OA
BRANCH  11  17
ATOM     13  C   UNL     1      44.515  35.911  44.678  0.00  0.00    +0.000 A 
ATOM     14  C   UNL     1      45.153  35.892  43.434  0.00  0.00    +0.000 A 
ATOM     15  C   UNL     1      46.072  34.865  43.205  0.00  0.00    +0.000 A 
ATOM     16  N   UNL     1      46.302  33.951  44.177  0.00  0.00    +0.000 NA
ATOM     17  C   UNL     1      45.666  34.004  45.364  0.00  0.00    +0.000 A 
ATOM     18  N   UNL     1      44.769  34.995  45.604  0.00  0.00    +0.000 NA
ATOM     19  H   UNL     1      43.817  36.734  44.783  0.00  0.00    +0.000 HD
ATOM     20  H   UNL     1      45.022  36.583  42.612  0.00  0.00    +0.000 HD
ATOM     21  H   UNL     1      46.655  34.704  42.293  0.00  0.00    +0.000 HD
ENDBRANCH  11  17
ENDBRANCH   6  11
BRANCH   1  22
ATOM     22  C   UNL     1      50.133  33.074  41.676  0.00  0.00    +0.000 C 
ATOM     23  H   UNL     1      51.001  32.405  41.810  0.00  0.00    +0.000 HD
ENDBRANCH   1  22
BRANCH   2  24
ATOM     24  C   UNL     1      49.043  30.683  42.457  0.00  0.00    +0.000 C 
ATOM     25  O   UNL     1      49.718  30.511  41.437  0.00  0.00    +0.000 OA
BRANCH  24  26
ATOM     26  O   UNL     1      48.509  29.464  42.820  0.00  0.00    +0.000 OA
ATOM     27  H   UNL     1      48.214  28.747  42.180  0.00  0.00    +0.000 HD
ENDBRANCH  24  26
ENDBRANCH   2  24
TORSDOF 5
