
     RDKit          3D

 31 33  0  0  0  0  0  0  0  0999 V2000
   44.5371   36.0288   44.5364 C   0  0  0  0  0  0  0  0  0  0  0  0
   45.2660   35.8862   43.3183 C   0  0  0  0  0  0  0  0  0  0  0  0
   46.1357   34.7898   43.2041 C   0  0  0  0  0  0  0  0  0  0  0  0
   46.2319   33.9385   44.2469 N   0  0  0  0  0  0  0  0  0  0  0  0
   45.5235   34.1040   45.3918 C   0  0  0  0  0  0  0  0  0  0  0  0
   44.6873   35.1410   45.5265 N   0  0  0  0  0  0  0  0  0  0  0  0
   47.0695   34.5647   41.7050 S   0  0  0  0  0  0  0  0  0  0  0  0
   43.8738   36.8571   44.6349 H   0  0  0  0  0  0  0  0  0  0  0  0
   45.1367   36.6054   42.5310 H   0  0  0  0  0  0  0  0  0  0  0  0
   47.1756   33.2080   41.3475 H   0  0  0  0  0  0  0  0  0  0  0  0
   45.7980   33.0308   46.4071 C   0  0  0  0  0  0  0  0  0  0  0  0
   45.4630   31.6874   45.9117 C   0  0  0  0  0  0  0  0  0  0  0  0
   46.3482   30.7380   45.8149 C   0  0  0  0  0  0  0  0  0  0  0  0
   47.7443   30.9250   46.1888 C   0  0  0  0  0  0  0  0  0  0  0  0
   48.6593   30.0662   46.1281 O   0  0  0  0  0  0  0  0  0  0  0  0
   48.7287   31.7639   46.6724 O   0  0  0  0  0  0  0  0  0  0  0  0
   46.0214   29.4502   45.3371 N   0  0  0  0  0  0  0  0  0  0  0  0
   46.2001   28.0485   45.3423 C   0  0  0  0  0  0  0  0  0  0  0  0
   47.0077   27.2011   45.8547 O   0  0  0  0  0  0  0  0  0  0  0  0
   45.0477   27.7727   44.4787 C   0  0  2  0  0  0  0  0  0  0  0  0
   44.2138   27.3151   45.0501 H   0  0  0  0  0  0  0  0  0  0  0  0
   45.0078   29.2524   44.3207 C   0  0  1  0  0  0  0  0  0  0  0  0
   43.4818   29.9912   45.0197 S   0  0  0  0  0  0  0  0  0  0  0  0
   44.0400   31.6000   45.5648 C   0  0  2  0  0  0  0  0  0  0  0  0
   43.8500   32.3300   44.7297 H   0  0  0  0  0  0  0  0  0  0  0  0
   45.1564   33.3254   47.2891 H   0  0  0  0  0  0  0  0  0  0  0  0
   46.8314   33.1175   46.8015 H   0  0  0  0  0  0  0  0  0  0  0  0
   48.8014   32.0045   47.6696 H   0  0  0  0  0  0  0  0  0  0  0  0
   45.3723   27.2214   43.5646 H   0  0  0  0  0  0  0  0  0  0  0  0
   45.2059   29.6932   43.3422 H   0  0  0  0  0  0  0  0  0  0  0  0
   43.3802   31.9541   46.3814 H   0  0  0  0  0  0  0  0  0  0  0  0
  1  6  2  0
  2  1  1  0
  3  2  2  0
  3  4  1  0
  4  5  2  0
  5  6  1  0
  7  3  1  0
  1  8  1  0
  2  9  1  0
  7 10  1  0
 11 12  1  0
 12 13  2  0
 13 14  1  0
 14 15  2  0
 14 16  1  0
 13 17  1  0
 17 18  1  0
 18 19  2  0
 18 20  1  0
 20 21  1  1
 20 22  1  0
 22 23  1  0
 23 24  1  0
 24 25  1  6
 24 12  1  0
 22 17  1  0
 11 26  1  0
 11 27  1  0
 16 28  1  0
 20 29  1  0
 22 30  1  6
 24 31  1  0
  5 11  1  0
M  ISO  5   8  14   9  14  10  11  21  15  25  15
M  END
>  <DihAtoms>  (1) 
3,4,10,11

>  <DihDeg>  (1) 
-90.01976915318161

$$$$
