
     RDKit          3D

 34 36  0  0  0  0  0  0  0  0999 V2000
   44.9152   35.1335   44.0487 C   0  0  0  0  0  0  0  0  0  0  0  0
   45.7361   35.3894   42.9283 C   0  0  0  0  0  0  0  0  0  0  0  0
   46.9483   34.6758   42.8160 C   0  0  0  0  0  0  0  0  0  0  0  0
   47.2458   33.7851   43.7994 N   0  0  0  0  0  0  0  0  0  0  0  0
   46.4294   33.5727   44.8540 C   0  0  0  0  0  0  0  0  0  0  0  0
   45.2849   34.2474   44.9589 N   0  0  0  0  0  0  0  0  0  0  0  0
   43.6969   35.8415   44.1746 N   0  0  0  0  0  0  0  0  0  0  0  0
   47.7426   34.9722   41.6629 C   0  0  0  0  0  0  0  0  0  0  0  0
   48.6678   35.8174   41.6482 O   0  0  0  0  0  0  0  0  0  0  0  0
   45.4150   36.1202   42.1927 H   0  0  0  0  0  0  0  0  0  0  0  0
   46.7182   32.8498   45.6085 H   0  0  0  0  0  0  0  0  0  0  0  0
   43.9360   36.8433   44.4333 H   0  0  0  0  0  0  0  0  0  0  0  0
   42.7113   35.4799   44.0444 H   0  0  0  0  0  0  0  0  0  0  0  0
   49.1527   32.1452   35.5513 C   0  0  0  0  0  0  0  0  0  0  0  0
   50.2535   32.2482   35.4738 H   0  0  0  0  0  0  0  0  0  0  0  0
   48.6223   32.8078   36.7401 C   0  0  0  0  0  0  0  0  0  0  0  0
   49.0629   32.3813   37.9113 C   0  0  0  0  0  0  0  0  0  0  0  0
   50.0327   31.2993   38.0422 C   0  0  0  0  0  0  0  0  0  0  0  0
   50.5153   30.8167   39.0805 O   0  0  0  0  0  0  0  0  0  0  0  0
   50.6375   30.5621   37.0389 O   0  0  0  0  0  0  0  0  0  0  0  0
   48.5802   33.0059   39.0939 N   0  0  0  0  0  0  0  0  0  0  0  0
   48.0122   32.8366   40.4180 C   0  0  0  0  0  0  0  0  0  0  0  0
   47.9786   31.8751   41.2615 O   0  0  0  0  0  0  0  0  0  0  0  0
   47.4887   34.2535   40.3733 C   0  0  2  0  0  0  0  0  0  0  0  0
   48.5403   34.4619   39.3039 C   0  0  2  0  0  0  0  0  0  0  0  0
   47.9562   35.2044   37.7674 S   0  0  0  0  0  0  0  0  0  0  0  0
   47.6362   33.8870   36.5706 C   0  0  1  0  0  0  0  0  0  0  0  0
   47.6472   34.2601   35.5274 H   0  0  0  0  0  0  0  0  0  0  0  0
   48.7087   32.5415   34.6091 H   0  0  0  0  0  0  0  0  0  0  0  0
   48.9348   31.0385   35.5179 H   0  0  0  0  0  0  0  0  0  0  0  0
   51.6332   30.5032   36.8906 H   0  0  0  0  0  0  0  0  0  0  0  0
   46.4780   34.3569   39.9763 H   0  0  0  0  0  0  0  0  0  0  0  0
   49.4981   34.8578   39.6728 H   0  0  0  0  0  0  0  0  0  0  0  0
   46.5883   33.5311   36.7712 H   0  0  0  0  0  0  0  0  0  0  0  0
  1  7  1  0
  1  6  2  0
  2  1  1  0
  3  2  2  0
  3  4  1  0
  4  5  2  0
  5  6  1  0
  8  3  1  0
  9  8  2  0
  2 10  1  0
  5 11  1  0
  7 12  1  0
  7 13  1  0
 14 15  1  0
 14 16  1  0
 16 17  2  0
 17 18  1  0
 18 19  2  0
 18 20  1  0
 17 21  1  0
 21 22  1  0
 22 23  2  0
 22 24  1  0
 24 25  1  0
 25 26  1  0
 26 27  1  0
 27 28  1  6
 27 16  1  0
 25 21  1  0
 14 29  1  0
 14 30  1  0
 20 31  1  0
 24 32  1  6
 25 33  1  1
 27 34  1  0
  8 24  1  0
M  ISO  4  10  14  11  14  15   8  28  15
M  END
>  <DihAtoms>  (1) 
2,7,23,21

>  <DihDeg>  (1) 
-179.99765998644892

$$$$
