
     RDKit          3D

 39 42  0  0  0  0  0  0  0  0999 V2000
   45.3708   36.0642   43.1917 C   0  0  0  0  0  0  0  0  0  0  0  0
   46.1171   34.8774   43.0623 C   0  0  0  0  0  0  0  0  0  0  0  0
   46.0835   34.0502   44.1889 C   0  0  0  0  0  0  0  0  0  0  0  0
   45.3934   34.3681   45.2969 N   0  0  0  0  0  0  0  0  0  0  0  0
   44.6885   35.5306   45.3646 C   0  0  0  0  0  0  0  0  0  0  0  0
   44.6818   36.3732   44.3095 N   0  0  0  0  0  0  0  0  0  0  0  0
   46.8021   32.8596   44.1530 C   0  0  0  0  0  0  0  0  0  0  0  0
   47.8103   32.3512   43.3678 C   0  0  0  0  0  0  0  0  0  0  0  0
   48.3518   31.1675   43.5114 C   0  0  0  0  0  0  0  0  0  0  0  0
   47.8459   30.4031   44.5419 C   0  0  0  0  0  0  0  0  0  0  0  0
   46.5455   31.5135   45.2751 S   0  0  0  0  0  0  0  0  0  0  0  0
   46.7987   34.5924   41.8592 C   0  0  0  0  0  0  0  0  0  0  0  0
   47.8395   35.3250   41.6679 O   0  0  0  0  0  0  0  0  0  0  0  0
   45.3716   36.7357   42.3374 H   0  0  0  0  0  0  0  0  0  0  0  0
   44.1522   35.7358   46.2783 H   0  0  0  0  0  0  0  0  0  0  0  0
   48.3275   32.8409   42.5578 H   0  0  0  0  0  0  0  0  0  0  0  0
   49.1028   30.5478   43.0754 H   0  0  0  0  0  0  0  0  0  0  0  0
   47.9294   29.4508   45.0429 H   0  0  0  0  0  0  0  0  0  0  0  0
   46.6926   29.1816   37.7795 C   0  0  0  0  0  0  0  0  0  0  0  0
   46.9556   29.3657   36.6976 H   0  0  0  0  0  0  0  0  0  0  0  0
   46.8342   30.4481   38.5142 C   0  0  0  0  0  0  0  0  0  0  0  0
   46.1857   30.4600   39.6437 C   0  0  0  0  0  0  0  0  0  0  0  0
   45.4332   29.2693   40.0220 C   0  0  0  0  0  0  0  0  0  0  0  0
   44.7558   29.1509   41.0999 O   0  0  0  0  0  0  0  0  0  0  0  0
   44.8095   28.0598   40.1638 O   0  0  0  0  0  0  0  0  0  0  0  0
   46.1644   31.5651   40.5386 N   0  0  0  0  0  0  0  0  0  0  0  0
   45.5578   32.4321   41.4934 C   0  0  0  0  0  0  0  0  0  0  0  0
   44.7295   32.1994   42.4081 O   0  0  0  0  0  0  0  0  0  0  0  0
   46.3196   33.5234   40.8935 C   0  0  2  0  0  0  0  0  0  0  0  0
   47.3278   32.4045   40.7113 C   0  0  2  0  0  0  0  0  0  0  0  0
   48.2935   32.6512   39.2413 S   0  0  0  0  0  0  0  0  0  0  0  0
   47.6302   31.5550   37.9944 C   0  0  1  0  0  0  0  0  0  0  0  0
   48.4968   31.1124   37.4384 H   0  0  0  0  0  0  0  0  0  0  0  0
   47.4125   28.4108   38.1608 H   0  0  0  0  0  0  0  0  0  0  0  0
   45.6455   28.8051   37.7401 H   0  0  0  0  0  0  0  0  0  0  0  0
   44.9221   27.3062   39.4702 H   0  0  0  0  0  0  0  0  0  0  0  0
   45.9877   33.8757   39.9274 H   0  0  0  0  0  0  0  0  0  0  0  0
   47.9105   32.1021   41.5741 H   0  0  0  0  0  0  0  0  0  0  0  0
   47.0744   32.1213   37.2058 H   0  0  0  0  0  0  0  0  0  0  0  0
  1  6  2  0
  2  1  1  0
  2  3  2  0
  3  4  1  0
  4  5  2  0
  6  5  1  0
  7  3  1  0
  7 11  1  0
  8  9  1  0
  8  7  2  0
  9 10  2  0
 10 11  1  0
 12  2  1  0
 13 12  2  0
  1 14  1  0
  5 15  1  0
  8 16  1  0
  9 17  1  0
 10 18  1  0
 19 20  1  0
 19 21  1  0
 21 22  2  0
 22 23  1  0
 23 24  2  0
 23 25  1  0
 22 26  1  0
 26 27  1  0
 27 28  2  0
 27 29  1  0
 29 30  1  0
 30 31  1  0
 31 32  1  0
 32 33  1  6
 32 21  1  0
 30 26  1  0
 19 34  1  0
 19 35  1  0
 25 36  1  0
 29 37  1  6
 30 38  1  1
 32 39  1  0
 12 29  1  0
M  ISO  7  14  14  15  14  16  14  17  14  18  14  20   8  33  15
M  END
>  <DihAtoms>  (1) 
1,11,28,26

>  <DihDeg>  (1) 
-177.27013985963197

$$$$
