
     RDKit          3D

 41 43  0  0  0  0  0  0  0  0999 V2000
   48.0858   32.9081   41.9029 O   0  0  0  0  0  0  0  0  0  0  0  0
   47.2022   34.0215   41.3331 P   0  0  2  0  0  0  0  0  0  0  0  0
   45.6051   33.8170   41.9203 O   0  0  0  0  0  0  0  0  0  0  0  0
   44.3535   35.9198   44.6232 C   0  0  0  0  0  0  0  0  0  0  0  0
   44.6623   35.4574   43.3234 C   0  0  0  0  0  0  0  0  0  0  0  0
   45.3213   34.2314   43.2044 C   0  0  0  0  0  0  0  0  0  0  0  0
   45.6310   33.5482   44.3284 N   0  0  0  0  0  0  0  0  0  0  0  0
   45.3256   34.0102   45.5613 C   0  0  0  0  0  0  0  0  0  0  0  0
   44.6947   35.1801   45.7225 N   0  0  0  0  0  0  0  0  0  0  0  0
   47.1911   33.9336   39.6757 O   0  0  0  0  0  0  0  0  0  0  0  0
   46.5327   33.0411   38.8718 C   0  0  0  0  0  0  0  0  0  0  0  0
   45.8999   33.4931   37.8020 O   0  0  0  0  0  0  0  0  0  0  0  0
   47.7905   35.4579   41.9067 O   0  0  0  0  0  0  0  0  0  0  0  0
   49.0448   35.7695   41.4048 C   0  0  0  0  0  0  0  0  0  0  0  0
   49.4500   37.0578   41.7255 F   0  0  0  0  0  0  0  0  0  0  0  0
   49.9506   34.8299   41.7800 F   0  0  0  0  0  0  0  0  0  0  0  0
   48.9248   35.7444   40.0219 F   0  0  0  0  0  0  0  0  0  0  0  0
   43.8464   36.8599   44.7543 H   0  0  0  0  0  0  0  0  0  0  0  0
   44.3640   36.0894   42.5227 H   0  0  0  0  0  0  0  0  0  0  0  0
   45.6297   33.3659   46.3754 H   0  0  0  0  0  0  0  0  0  0  0  0
   45.0858   27.4619   35.3981 C   0  0  0  0  0  0  0  0  0  0  0  0
   44.5816   27.6236   34.4200 H   0  0  0  0  0  0  0  0  0  0  0  0
   45.4184   28.7012   36.0957 C   0  0  0  0  0  0  0  0  0  0  0  0
   45.9617   28.6447   37.2833 C   0  0  0  0  0  0  0  0  0  0  0  0
   46.2443   27.3692   37.9310 C   0  0  0  0  0  0  0  0  0  0  0  0
   46.0286   26.2368   37.4861 O   0  0  0  0  0  0  0  0  0  0  0  0
   46.8140   27.2030   39.1808 O   0  0  0  0  0  0  0  0  0  0  0  0
   46.2974   29.8356   37.9796 N   0  0  0  0  0  0  0  0  0  0  0  0
   46.3799   30.5822   39.1814 C   0  0  0  0  0  0  0  0  0  0  0  0
   46.6734   30.1525   40.3438 O   0  0  0  0  0  0  0  0  0  0  0  0
   46.0031   31.7802   38.3427 C   0  0  2  0  0  0  0  0  0  0  0  0
   46.8464   31.0107   37.3632 C   0  0  2  0  0  0  0  0  0  0  0  0
   46.4196   31.2045   35.6386 S   0  0  0  0  0  0  0  0  0  0  0  0
   45.1285   29.9742   35.4412 C   0  0  2  0  0  0  0  0  0  0  0  0
   44.2091   30.4081   35.9346 H   0  0  0  0  0  0  0  0  0  0  0  0
   45.9469   26.7774   35.2224 H   0  0  0  0  0  0  0  0  0  0  0  0
   44.3523   26.8961   36.0091 H   0  0  0  0  0  0  0  0  0  0  0  0
   46.5010   26.5649   39.8812 H   0  0  0  0  0  0  0  0  0  0  0  0
   44.9286   31.7841   38.0632 H   0  0  0  0  0  0  0  0  0  0  0  0
   47.9283   31.1369   37.6044 H   0  0  0  0  0  0  0  0  0  0  0  0
   44.8242   29.8304   34.3871 H   0  0  0  0  0  0  0  0  0  0  0  0
  2  1  2  0
  2  3  1  1
  2 13  1  0
  3  6  1  0
  4  9  2  0
  5  4  1  0
  6  5  2  0
  6  7  1  0
  7  8  2  0
  8  9  1  0
 10  2  1  0
 11 10  1  0
 12 11  2  0
 14 16  1  0
 14 15  1  0
 14 13  1  0
 17 14  1  0
  4 18  1  0
  5 19  1  0
  8 20  1  0
 21 22  1  0
 21 23  1  0
 23 24  2  0
 24 25  1  0
 25 26  2  0
 25 27  1  0
 24 28  1  0
 28 29  1  0
 29 30  2  0
 29 31  1  0
 31 32  1  0
 32 33  1  0
 33 34  1  0
 34 35  1  1
 34 23  1  0
 32 28  1  0
 21 36  1  0
 21 37  1  0
 27 38  1  0
 31 39  1  6
 32 40  1  6
 34 41  1  0
 11 31  1  0
M  ISO  5  18  14  19  14  20  14  22   8  35  15
M  END
>  <DihAtoms>  (1) 
9,10,30,28

>  <DihDeg>  (1) 
-179.80090144961642

$$$$
