
 OpenBabel03242519553D

 47 50  0  0  1  0  0  0  0  0999 V2000
   47.1860   33.9910   42.5690 C   0  0  2  0  0  0  0  0  0  0  0  0
   48.6000   34.3920   42.7430 C   0  0  0  0  0  0  0  0  0  0  0  0
   48.9980   35.5090   41.8390 C   0  0  0  0  0  0  0  0  0  0  0  0
   48.7190   35.2390   40.3850 C   0  0  0  0  0  0  0  0  0  0  0  0
   47.4640   34.4650   40.1320 C   0  0  2  0  0  0  0  0  0  0  0  0
   46.5370   34.5050   41.3300 C   0  0  0  0  0  0  0  0  0  0  0  0
   47.2020   32.8560   42.5090 H   0  0  0  0  0  0  0  0  0  0  0  0
   49.3330   33.5680   42.6350 H   0  0  0  0  0  0  0  0  0  0  0  0
   48.7190   34.7630   43.7880 H   0  0  0  0  0  0  0  0  0  0  0  0
   50.1150   35.6160   41.9400 H   0  0  0  0  0  0  0  0  0  0  0  0
   48.5850   36.4660   42.1990 H   0  0  0  0  0  0  0  0  0  0  0  0
   48.7080   36.2450   39.8730 H   0  0  0  0  0  0  0  0  0  0  0  0
   49.6050   34.7220   39.9330 H   0  0  0  0  0  0  0  0  0  0  0  0
   46.9300   34.9840   39.3030 H   0  0  0  0  0  0  0  0  0  0  0  0
   46.0830   35.4770   41.3290 H   0  0  0  0  0  0  0  0  0  0  0  0
   45.6950   33.7780   41.1110 H   0  0  0  0  0  0  0  0  0  0  0  0
   46.3360   34.2950   43.7300 C   0  0  0  0  0  0  0  0  0  0  0  0
   45.4840   35.3780   43.5350 C   0  0  0  0  0  0  0  0  0  0  0  0
   44.6060   35.7660   44.5510 C   0  0  0  0  0  0  0  0  0  0  0  0
   44.6530   35.0180   45.7150 N   0  0  0  0  0  0  0  0  0  0  0  0
   45.4960   33.9780   45.8620 C   0  0  0  0  0  0  0  0  0  0  0  0
   46.3220   33.6290   44.8740 N   0  0  0  0  0  0  0  0  0  0  0  0
   45.2850   36.0920   42.7490 H   0  0  0  0  0  0  0  0  0  0  0  0
   43.8830   36.5470   44.6140 H   0  0  0  0  0  0  0  0  0  0  0  0
   45.4940   33.4240   46.7940 H   0  0  0  0  0  0  0  0  0  0  0  0
   47.7960   33.0960   39.6930 C   0  0  0  0  0  0  0  0  0  0  0  0
   48.8710   32.8940   39.8770 H   0  0  0  0  0  0  0  0  0  0  0  0
   47.6980   33.0690   38.5740 H   0  0  0  0  0  0  0  0  0  0  0  0
   47.0150   31.9900   40.2640 C   0  0  0  0  0  0  0  0  0  0  0  0
   47.7110   31.2060   40.6210 H   0  0  0  0  0  0  0  0  0  0  0  0
   46.4560   32.3420   41.1550 H   0  0  0  0  0  0  0  0  0  0  0  0
   42.4430   32.8000   40.9320 C   0  0  0  0  0  0  0  0  0  0  0  0
   42.9080   32.8590   39.7030 C   0  0  0  0  0  0  0  0  0  0  0  0
   44.1440   32.3070   39.3550 N   0  0  0  0  0  0  0  0  0  0  0  0
   45.3150   32.3730   38.5910 C   0  0  0  0  0  0  0  0  0  0  0  0
   45.7280   33.0430   37.5890 O   0  0  0  0  0  0  0  0  0  0  0  0
   46.0280   31.3160   39.3670 C   0  0  2  0  0  3  0  0  0  0  0  0
   44.6510   31.0940   39.9380 C   0  0  1  0  0  3  0  0  0  0  0  0
   44.5470   31.2100   41.7270 S   0  0  0  0  0  0  0  0  0  0  0  0
   43.0930   32.1820   42.1110 C   0  0  0  0  0  3  0  0  0  0  0  0
   42.3370   31.4600   42.5360 H   0  0  0  0  0  0  0  0  0  0  0  0
   41.1300   33.3920   41.2680 C   0  0  0  0  0  2  0  0  0  0  0  0
   40.4610   33.5150   40.3890 H   0  0  0  0  0  0  0  0  0  0  0  0
   42.1110   33.5170   38.6780 C   0  0  0  0  0  0  0  0  0  0  0  0
   41.3430   32.9060   37.8940 O   0  0  0  0  0  0  0  0  0  0  0  0
   41.5110   34.4110   37.8400 O   0  0  0  0  0  0  0  0  0  0  0  0
   41.9980   35.2540   37.5660 H   0  0  0  0  0  0  0  0  0  0  0  0
  1  7  1  6  0  0  0
  1  2  1  0  0  0  0
  1 17  1  0  0  0  0
  2  9  1  0  0  0  0
  3 10  1  0  0  0  0
  3 11  1  0  0  0  0
  3  2  1  0  0  0  0
  4  3  1  0  0  0  0
  5 14  1  6  0  0  0
  5  4  1  0  0  0  0
  5  6  1  0  0  0  0
  6  1  1  0  0  0  0
  8  2  1  0  0  0  0
 12  4  1  0  0  0  0
 13  4  1  0  0  0  0
 15  6  1  0  0  0  0
 16  6  1  0  0  0  0
 17 22  1  0  0  0  0
 18 17  2  0  0  0  0
 18 19  1  0  0  0  0
 19 24  1  0  0  0  0
 19 20  2  0  0  0  0
 20 21  1  0  0  0  0
 21 25  1  0  0  0  0
 22 21  2  0  0  0  0
 23 18  1  0  0  0  0
 26 27  1  0  0  0  0
 26  5  1  0  0  0  0
 26 29  1  0  0  0  0
 28 26  1  0  0  0  0
 29 30  1  0  0  0  0
 29 31  1  0  0  0  0
 32 42  1  0  0  0  0
 32 40  1  0  0  0  0
 33 32  2  0  0  0  0
 34 33  1  0  0  0  0
 34 38  1  0  0  0  0
 35 34  1  0  0  0  0
 35 37  1  0  0  0  0
 36 35  2  0  0  0  0
 37 38  1  0  0  0  0
 37 29  1  1  0  0  0
 38 39  1  1  0  0  0
 39 40  1  0  0  0  0
 40 41  1  0  0  0  0
 43 42  1  0  0  0  0
 44 33  1  0  0  0  0
 45 44  2  0  0  0  0
 46 44  1  0  0  0  0
 47 46  1  0  0  0  0
M  END
>  <minimizedAffinity>
-6.11502886

>  <minimizedRMSD>
1.32847738

$$$$
