REMARK  Name = 
REMARK  5 active torsions:
REMARK  status: ('A' for Active; 'I' for Inactive)
REMARK    1  A    between atoms: C_3  and  C_7
REMARK    2  A    between atoms: C_12  and  C_26
REMARK    3  A    between atoms: C_26  and  C_27
REMARK    4  A    between atoms: C_28  and  C_29
REMARK    5  A    between atoms: C_29  and  O_31
REMARK                            x       y       z     vdW  Elec       q    Type
REMARK                         _______ _______ _______ _____ _____    ______ ____
ROOT
ATOM      1  C   UNL     1      46.957  34.293  42.240  0.00  0.00    +0.000 C 
ATOM      2  C   UNL     1      46.152  34.187  40.974  0.00  0.00    +0.000 C 
ATOM      3  C   UNL     1      47.112  33.592  39.950  0.00  0.00    +0.000 C 
ATOM      4  C   UNL     1      48.115  34.683  39.639  0.00  0.00    +0.000 C 
ATOM      5  C   UNL     1      48.813  35.219  40.831  0.00  0.00    +0.000 C 
ATOM      6  C   UNL     1      48.017  35.364  42.062  0.00  0.00    +0.000 C 
ATOM      7  H   UNL     1      47.451  33.342  42.421  0.00  0.00    +0.000 HD
ATOM      8  H   UNL     1      45.826  35.214  40.651  0.00  0.00    +0.000 HD
ATOM      9  H   UNL     1      45.325  33.472  41.068  0.00  0.00    +0.000 HD
ATOM     10  H   UNL     1      46.610  33.288  39.035  0.00  0.00    +0.000 HD
ATOM     11  H   UNL     1      47.623  32.746  40.480  0.00  0.00    +0.000 HD
ATOM     12  H   UNL     1      47.498  35.526  39.209  0.00  0.00    +0.000 HD
ATOM     13  H   UNL     1      48.824  34.413  38.857  0.00  0.00    +0.000 HD
ATOM     14  H   UNL     1      49.687  34.552  41.044  0.00  0.00    +0.000 HD
ATOM     15  H   UNL     1      49.231  36.205  40.541  0.00  0.00    +0.000 HD
ATOM     16  H   UNL     1      47.469  36.327  42.032  0.00  0.00    +0.000 HD
ENDROOT
BRANCH   1  19
ATOM     17  C   UNL     1      44.527  36.009  44.612  0.00  0.00    +0.000 A 
ATOM     18  C   UNL     1      45.264  35.784  43.449  0.00  0.00    +0.000 A 
ATOM     19  C   UNL     1      46.111  34.660  43.405  0.00  0.00    +0.000 A 
ATOM     20  N   UNL     1      46.142  33.878  44.515  0.00  0.00    +0.000 NA
ATOM     21  C   UNL     1      45.426  34.117  45.615  0.00  0.00    +0.000 A 
ATOM     22  N   UNL     1      44.614  35.175  45.683  0.00  0.00    +0.000 NA
ATOM     23  H   UNL     1      43.894  36.883  44.591  0.00  0.00    +0.000 HD
ATOM     24  H   UNL     1      45.247  36.389  42.577  0.00  0.00    +0.000 HD
ATOM     25  H   UNL     1      45.558  33.406  46.413  0.00  0.00    +0.000 HD
ENDBRANCH   1  19
BRANCH   6  26
ATOM     26  C   UNL     1      48.899  35.317  43.318  0.00  0.00    +0.000 C 
BRANCH  26  27
ATOM     27  C   UNL     1      49.555  34.011  43.514  0.00  0.00    +0.000 C 
ATOM     28  C   UNL     1      49.370  33.224  44.558  0.00  0.00    +0.000 C 
ATOM     29  N   UNL     1      50.061  31.989  44.617  0.00  0.00    +0.000 N 
ATOM     30  C   UNL     1      50.666  30.966  45.391  0.00  0.00    +0.000 C 
ATOM     31  O   UNL     1      50.659  30.663  46.614  0.00  0.00    +0.000 OA
ATOM     32  C   UNL     1      51.343  30.331  44.259  0.00  0.00    +0.000 C 
ATOM     33  H   UNL     1      52.415  30.595  44.279  0.00  0.00    +0.000 HD
ATOM     34  C   UNL     1      50.434  31.230  43.456  0.00  0.00    +0.000 C 
ATOM     35  S   UNL     1      51.491  32.342  42.459  0.00  0.00    +0.000 S 
ATOM     36  C   UNL     1      50.433  33.781  42.338  0.00  0.00    +0.000 C 
ATOM     37  H   UNL     1      49.833  33.634  41.391  0.00  0.00    +0.000 HD
BRANCH  28  38
ATOM     38  C   UNL     1      48.477  33.564  45.659  0.00  0.00    +0.000 C 
ATOM     39  O   UNL     1      47.714  34.505  45.970  0.00  0.00    +0.000 OA
BRANCH  38  40
ATOM     40  O   UNL     1      48.295  32.742  46.749  0.00  0.00    +0.000 OA
ATOM     41  H   UNL     1      48.288  33.007  47.725  0.00  0.00    +0.000 HD
ENDBRANCH  38  40
ENDBRANCH  28  38
ENDBRANCH  26  27
ENDBRANCH   6  26
TORSDOF 5
