
 OpenBabel03252505533D

 40 43  0  0  1  0  0  0  0  0999 V2000
   46.9250   30.7360   47.6640 C   0  0  0  0  0  0  0  0  0  0  0  0
   47.5140   29.7500   46.8850 C   0  0  0  0  0  0  0  0  0  0  0  0
   48.8080   29.4150   47.1040 C   0  0  0  0  0  0  0  0  0  0  0  0
   49.5310   30.0040   48.0450 N   0  0  0  0  0  0  0  0  0  0  0  0
   48.9740   30.9580   48.8050 C   0  0  0  0  0  0  0  0  0  0  0  0
   47.6740   31.3390   48.6330 N   0  0  0  0  0  0  0  0  0  0  0  0
   46.8080   29.3630   46.1640 H   0  0  0  0  0  0  0  0  0  0  0  0
   49.1880   28.6440   46.4590 H   0  0  0  0  0  0  0  0  0  0  0  0
   45.5600   31.3020   47.6560 C   0  0  0  0  0  0  0  0  0  0  0  0
   45.0110   30.9190   46.7910 H   0  0  0  0  0  0  0  0  0  0  0  0
   45.0740   30.9670   48.5880 H   0  0  0  0  0  0  0  0  0  0  0  0
   45.6840   32.7020   47.6180 O   0  0  0  0  0  0  0  0  0  0  0  0
   44.8050   35.1260   45.1660 C   0  0  0  0  0  0  0  0  0  0  0  0
   45.6440   34.8220   44.0890 C   0  0  0  0  0  0  0  0  0  0  0  0
   46.5280   33.7440   44.2430 C   0  0  0  0  0  0  0  0  0  0  0  0
   46.5270   33.0610   45.4060 N   0  0  0  0  0  0  0  0  0  0  0  0
   45.6990   33.3920   46.4150 C   0  0  0  0  0  0  0  0  0  0  0  0
   44.8430   34.4130   46.3070 N   0  0  0  0  0  0  0  0  0  0  0  0
   44.1210   35.9610   45.0450 H   0  0  0  0  0  0  0  0  0  0  0  0
   47.1720   33.5230   43.3950 H   0  0  0  0  0  0  0  0  0  0  0  0
   45.5440   35.6590   42.8560 C   0  0  0  0  0  0  0  0  0  0  0  0
   45.1880   36.9090   43.2940 F   0  0  0  0  0  0  0  0  0  0  0  0
   44.5000   35.1080   42.1010 F   0  0  0  0  0  0  0  0  0  0  0  0
   46.7310   35.6240   42.1950 F   0  0  0  0  0  0  0  0  0  0  0  0
   49.8400   31.5970   49.8630 C   0  0  0  0  0  2  0  0  0  0  0  0
   50.7300   30.5690   50.4290 C   0  0  0  0  0  0  0  0  0  0  0  0
   52.0380   30.7010   50.2980 C   0  0  0  0  0  0  0  0  0  0  0  0
   52.8930   29.7110   50.8580 N   0  0  0  0  0  0  0  0  0  0  0  0
   54.0020   28.8340   50.6460 C   0  0  0  0  0  0  0  0  0  0  0  0
   55.0060   28.7980   49.8570 O   0  0  0  0  0  0  0  0  0  0  0  0
   53.4840   27.9640   51.7540 C   0  0  0  0  0  3  0  0  0  0  0  0
   54.3210   27.7290   52.4460 H   0  0  0  0  0  0  0  0  0  0  0  0
   52.7780   29.2120   52.2390 C   0  0  2  0  0  3  0  0  0  0  0  0
   51.0220   29.0390   52.6050 S   0  0  0  0  0  0  0  0  0  0  0  0
   50.0820   29.4260   51.1100 C   0  0  0  0  0  3  0  0  0  0  0  0
   50.0690   28.5660   50.3960 H   0  0  0  0  0  0  0  0  0  0  0  0
   52.6300   31.8300   49.6100 C   0  0  0  0  0  0  0  0  0  0  0  0
   53.1050   31.8130   48.4230 O   0  0  0  0  0  0  0  0  0  0  0  0
   53.0980   33.0790   49.3110 O   0  0  0  0  0  0  0  0  0  0  0  0
   53.6790   33.5810   50.0020 H   0  0  0  0  0  0  0  0  0  0  0  0
  1  6  1  0  0  0  0
  2  3  1  0  0  0  0
  2  1  2  0  0  0  0
  3  4  2  0  0  0  0
  4  5  1  0  0  0  0
  5 25  1  0  0  0  0
  6  5  2  0  0  0  0
  7  2  1  0  0  0  0
  8  3  1  0  0  0  0
  9  1  1  0  0  0  0
  9 11  1  0  0  0  0
 10  9  1  0  0  0  0
 12  9  1  0  0  0  0
 13 18  1  0  0  0  0
 14 15  1  0  0  0  0
 14 13  2  0  0  0  0
 15 16  2  0  0  0  0
 16 17  1  0  0  0  0
 17 12  1  0  0  0  0
 18 17  2  0  0  0  0
 19 13  1  0  0  0  0
 20 15  1  0  0  0  0
 21 22  1  0  0  0  0
 21 14  1  0  0  0  0
 23 21  1  0  0  0  0
 24 21  1  0  0  0  0
 25 26  1  0  0  0  0
 26 35  1  0  0  0  0
 27 26  2  0  0  0  0
 27 28  1  0  0  0  0
 28 33  1  0  0  0  0
 29 28  1  0  0  0  0
 29 31  1  0  0  0  0
 30 29  2  0  0  0  0
 31 32  1  0  0  0  0
 33 31  1  6  0  0  0
 33 34  1  0  0  0  0
 35 34  1  0  0  0  0
 36 35  1  0  0  0  0
 37 27  1  0  0  0  0
 38 37  2  0  0  0  0
 39 37  1  0  0  0  0
 39 40  1  0  0  0  0
M  END
>  <minimizedAffinity>
-6.13127375

>  <minimizedRMSD>
0.704717457

$$$$
