
     RDKit          3D

 38 40  0  0  0  0  0  0  0  0999 V2000
   46.1293   35.2862   42.6913 C   0  0  0  0  0  0  0  0  0  0  0  0
   46.6892   34.1778   43.3497 C   0  0  0  0  0  0  0  0  0  0  0  0
   46.2045   33.8415   44.6094 C   0  0  0  0  0  0  0  0  0  0  0  0
   45.2144   34.5907   45.1546 N   0  0  0  0  0  0  0  0  0  0  0  0
   44.6967   35.6517   44.4948 C   0  0  0  0  0  0  0  0  0  0  0  0
   45.1565   35.9833   43.2823 N   0  0  0  0  0  0  0  0  0  0  0  0
   47.7065   33.4734   42.6971 O   0  0  0  0  0  0  0  0  0  0  0  0
   49.5491   35.3675   42.7824 O   0  0  0  0  0  0  0  0  0  0  0  0
   48.9719   34.2999   41.8988 P   0  0  1  0  0  0  0  0  0  0  0  0
   50.2263   33.2507   41.5126 O   0  0  0  0  0  0  0  0  0  0  0  0
   48.4084   35.0300   40.5073 O   0  0  0  0  0  0  0  0  0  0  0  0
   48.0692   34.3738   39.3678 C   0  0  0  0  0  0  0  0  0  0  0  0
   46.9449   33.7624   39.5020 O   0  0  0  0  0  0  0  0  0  0  0  0
   46.4383   35.6272   41.7096 H   0  0  0  0  0  0  0  0  0  0  0  0
   46.6769   32.9837   45.0556 H   0  0  0  0  0  0  0  0  0  0  0  0
   43.9163   36.1448   45.0621 H   0  0  0  0  0  0  0  0  0  0  0  0
   49.9006   32.4162   41.0848 H   0  0  0  0  0  0  0  0  0  0  0  0
   51.8703   30.0548   38.2378 C   0  0  0  0  0  0  0  0  0  0  0  0
   52.1204   29.6387   39.2561 H   0  0  0  0  0  0  0  0  0  0  0  0
   50.7528   30.9782   38.3860 C   0  0  0  0  0  0  0  0  0  0  0  0
   50.3037   31.5889   37.3032 C   0  0  0  0  0  0  0  0  0  0  0  0
   50.9325   31.3280   35.9984 C   0  0  0  0  0  0  0  0  0  0  0  0
   51.8948   30.5488   35.7989 O   0  0  0  0  0  0  0  0  0  0  0  0
   50.5976   31.8692   34.7922 O   0  0  0  0  0  0  0  0  0  0  0  0
   49.2088   32.4922   37.3858 N   0  0  0  0  0  0  0  0  0  0  0  0
   48.7347   33.8074   37.0093 C   0  0  0  0  0  0  0  0  0  0  0  0
   49.0328   34.6830   36.1259 O   0  0  0  0  0  0  0  0  0  0  0  0
   47.7627   33.6830   38.0933 C   0  0  1  0  0  0  0  0  0  0  0  0
   47.9622   32.1947   38.0651 C   0  0  2  0  0  0  0  0  0  0  0  0
   48.3431   31.4145   39.6284 S   0  0  0  0  0  0  0  0  0  0  0  0
   50.1438   31.2297   39.7178 C   0  0  2  0  0  0  0  0  0  0  0  0
   50.5193   32.2165   40.1146 H   0  0  0  0  0  0  0  0  0  0  0  0
   51.6478   29.1412   37.6354 H   0  0  0  0  0  0  0  0  0  0  0  0
   52.8399   30.5424   37.9255 H   0  0  0  0  0  0  0  0  0  0  0  0
   51.2872   32.3388   34.2200 H   0  0  0  0  0  0  0  0  0  0  0  0
   46.7420   33.9340   37.6986 H   0  0  0  0  0  0  0  0  0  0  0  0
   47.2361   31.6184   37.4619 H   0  0  0  0  0  0  0  0  0  0  0  0
   50.3443   30.4149   40.4301 H   0  0  0  0  0  0  0  0  0  0  0  0
  1  6  2  0
  1  2  1  0
  2  3  2  0
  3  4  1  0
  5  4  2  0
  6  5  1  0
  7  2  1  0
  9  7  1  1
  9  8  2  0
 10  9  1  0
 11  9  1  0
 12 13  2  0
 12 11  1  0
  1 14  1  0
  3 15  1  0
  5 16  1  0
 10 17  1  0
 18 19  1  0
 18 20  1  0
 20 21  2  0
 21 22  1  0
 22 23  2  0
 22 24  1  0
 21 25  1  0
 25 26  1  0
 26 27  2  0
 26 28  1  0
 28 29  1  0
 29 30  1  0
 30 31  1  0
 31 32  1  1
 31 20  1  0
 29 25  1  0
 18 33  1  0
 18 34  1  0
 24 35  1  0
 28 36  1  6
 29 37  1  6
 31 38  1  0
 12 28  1  0
M  ISO  6  14  14  15  14  16  14  17   3  19   8  32  15
M  END
>  <DihAtoms>  (1) 
12,11,27,25

>  <DihDeg>  (1) 
0.6178206600231226

$$$$
