
     RDKit          3D

 34 36  0  0  0  0  0  0  0  0999 V2000
   44.9152   35.1335   44.0487 C   0  0  0  0  0  0  0  0  0  0  0  0
   45.7361   35.3894   42.9283 C   0  0  0  0  0  0  0  0  0  0  0  0
   46.9483   34.6758   42.8160 C   0  0  0  0  0  0  0  0  0  0  0  0
   47.2458   33.7851   43.7994 N   0  0  0  0  0  0  0  0  0  0  0  0
   46.4294   33.5727   44.8540 C   0  0  0  0  0  0  0  0  0  0  0  0
   45.2849   34.2474   44.9589 N   0  0  0  0  0  0  0  0  0  0  0  0
   43.6969   35.8415   44.1746 N   0  0  0  0  0  0  0  0  0  0  0  0
   47.7426   34.9722   41.6629 C   0  0  0  0  0  0  0  0  0  0  0  0
   48.6678   35.8174   41.6482 O   0  0  0  0  0  0  0  0  0  0  0  0
   45.4150   36.1202   42.1927 H   0  0  0  0  0  0  0  0  0  0  0  0
   46.7182   32.8498   45.6085 H   0  0  0  0  0  0  0  0  0  0  0  0
   43.9360   36.8433   44.4333 H   0  0  0  0  0  0  0  0  0  0  0  0
   42.7113   35.4799   44.0444 H   0  0  0  0  0  0  0  0  0  0  0  0
   46.4982   29.6785   37.4487 C   0  0  0  0  0  0  0  0  0  0  0  0
   46.3710   28.8260   38.1454 H   0  0  0  0  0  0  0  0  0  0  0  0
   46.9026   30.8984   38.1428 C   0  0  0  0  0  0  0  0  0  0  0  0
   46.0784   31.3646   39.0655 C   0  0  0  0  0  0  0  0  0  0  0  0
   44.8154   30.7135   39.3959 C   0  0  0  0  0  0  0  0  0  0  0  0
   43.9668   31.0564   40.2361 O   0  0  0  0  0  0  0  0  0  0  0  0
   44.2730   29.5638   38.8483 O   0  0  0  0  0  0  0  0  0  0  0  0
   46.4384   32.5444   39.7727 N   0  0  0  0  0  0  0  0  0  0  0  0
   46.0364   33.8585   40.2375 C   0  0  0  0  0  0  0  0  0  0  0  0
   44.9100   34.4299   40.4419 O   0  0  0  0  0  0  0  0  0  0  0  0
   47.4887   34.2535   40.3733 C   0  0  2  0  0  0  0  0  0  0  0  0
   47.7483   32.7621   40.4071 C   0  0  2  0  0  0  0  0  0  0  0  0
   49.0016   32.1606   39.2580 S   0  0  0  0  0  0  0  0  0  0  0  0
   48.1773   31.5349   37.7748 C   0  0  1  0  0  0  0  0  0  0  0  0
   48.8152   30.8253   37.2116 H   0  0  0  0  0  0  0  0  0  0  0  0
   47.2307   29.3704   36.6674 H   0  0  0  0  0  0  0  0  0  0  0  0
   45.5225   29.7803   36.8909 H   0  0  0  0  0  0  0  0  0  0  0  0
   44.0377   28.7345   39.3716 H   0  0  0  0  0  0  0  0  0  0  0  0
   47.9214   34.7222   39.4885 H   0  0  0  0  0  0  0  0  0  0  0  0
   47.8016   32.3281   41.4166 H   0  0  0  0  0  0  0  0  0  0  0  0
   48.0222   32.4252   37.1052 H   0  0  0  0  0  0  0  0  0  0  0  0
  1  7  1  0
  1  6  2  0
  2  1  1  0
  3  2  2  0
  3  4  1  0
  4  5  2  0
  5  6  1  0
  8  3  1  0
  9  8  2  0
  2 10  1  0
  5 11  1  0
  7 12  1  0
  7 13  1  0
 14 15  1  0
 14 16  1  0
 16 17  2  0
 17 18  1  0
 18 19  2  0
 18 20  1  0
 17 21  1  0
 21 22  1  0
 22 23  2  0
 22 24  1  0
 24 25  1  0
 25 26  1  0
 26 27  1  0
 27 28  1  6
 27 16  1  0
 25 21  1  0
 14 29  1  0
 14 30  1  0
 20 31  1  0
 24 32  1  6
 25 33  1  1
 27 34  1  0
  8 24  1  0
M  ISO  4  10  14  11  14  15   8  28  15
M  END
>  <DihAtoms>  (1) 
2,7,23,21

>  <DihDeg>  (1) 
-179.99765998644892

$$$$
