
     RDKit          3D

 42 45  0  0  0  0  0  0  0  0999 V2000
   44.5761   33.1124   41.2208 Br  0  0  0  0  0  0  0  0  0  0  0  0
   46.2521   33.9879   41.0160 C   0  0  0  0  0  0  0  0  0  0  0  0
   46.8067   34.7611   42.0205 C   0  0  0  0  0  0  0  0  0  0  0  0
   48.0310   35.3688   41.7781 C   0  0  0  0  0  0  0  0  0  0  0  0
   48.7021   35.2252   40.5791 C   0  0  0  0  0  0  0  0  0  0  0  0
   48.1495   34.4524   39.5742 C   0  0  0  0  0  0  0  0  0  0  0  0
   46.9256   33.8518   39.8326 C   0  0  0  0  0  0  0  0  0  0  0  0
   44.4854   35.9587   44.7538 C   0  0  0  0  0  0  0  0  0  0  0  0
   45.1771   35.8869   43.5355 C   0  0  0  0  0  0  0  0  0  0  0  0
   46.0686   34.8759   43.2662 C   0  0  0  0  0  0  0  0  0  0  0  0
   46.2185   33.9591   44.2785 N   0  0  0  0  0  0  0  0  0  0  0  0
   45.5539   34.0357   45.4382 C   0  0  0  0  0  0  0  0  0  0  0  0
   44.6995   35.0174   45.6784 N   0  0  0  0  0  0  0  0  0  0  0  0
   46.3819   33.0287   38.7751 C   0  0  0  0  0  0  0  0  0  0  0  0
   46.5320   33.3878   37.5491 O   0  0  0  0  0  0  0  0  0  0  0  0
   48.4413   35.9588   42.5607 H   0  0  0  0  0  0  0  0  0  0  0  0
   49.6579   35.7471   40.4954 H   0  0  0  0  0  0  0  0  0  0  0  0
   48.6910   34.3487   38.6342 H   0  0  0  0  0  0  0  0  0  0  0  0
   43.7858   36.7484   44.9706 H   0  0  0  0  0  0  0  0  0  0  0  0
   45.0003   36.6411   42.8049 H   0  0  0  0  0  0  0  0  0  0  0  0
   45.8316   33.2077   46.0810 H   0  0  0  0  0  0  0  0  0  0  0  0
   43.2623   27.5445   41.4389 C   0  0  0  0  0  0  0  0  0  0  0  0
   42.7199   28.0126   42.3031 H   0  0  0  0  0  0  0  0  0  0  0  0
   44.0912   28.5528   40.7323 C   0  0  0  0  0  0  0  0  0  0  0  0
   43.5395   29.7214   40.5789 C   0  0  0  0  0  0  0  0  0  0  0  0
   42.1949   29.8992   41.1097 C   0  0  0  0  0  0  0  0  0  0  0  0
   41.5422   30.9909   41.0262 O   0  0  0  0  0  0  0  0  0  0  0  0
   40.9496   29.8501   41.6738 O   0  0  0  0  0  0  0  0  0  0  0  0
   44.1901   30.7814   39.9356 N   0  0  0  0  0  0  0  0  0  0  0  0
   44.1711   31.9096   39.0500 C   0  0  0  0  0  0  0  0  0  0  0  0
   43.2340   32.6976   38.6850 O   0  0  0  0  0  0  0  0  0  0  0  0
   45.6244   31.7474   38.7796 C   0  0  2  0  0  0  0  0  0  0  0  0
   45.6054   31.0347   40.1350 C   0  0  2  0  0  0  0  0  0  0  0  0
   46.5658   29.4962   39.9931 S   0  0  0  0  0  0  0  0  0  0  0  0
   45.4269   28.1433   40.2808 C   0  0  1  0  0  0  0  0  0  0  0  0
   45.8697   27.5305   41.1202 H   0  0  0  0  0  0  0  0  0  0  0  0
   42.4459   27.2493   40.7180 H   0  0  0  0  0  0  0  0  0  0  0  0
   43.8425   26.6693   41.7352 H   0  0  0  0  0  0  0  0  0  0  0  0
   40.5456   29.0061   42.0945 H   0  0  0  0  0  0  0  0  0  0  0  0
   45.8111   31.0587   37.9362 H   0  0  0  0  0  0  0  0  0  0  0  0
   45.8878   31.6982   40.9505 H   0  0  0  0  0  0  0  0  0  0  0  0
   45.3851   27.4263   39.4154 H   0  0  0  0  0  0  0  0  0  0  0  0
  2  1  1  0
  2  3  2  0
  3 10  1  0
  4  3  1  0
  5  4  2  0
  6  7  2  0
  6  5  1  0
  7  2  1  0
  8 13  2  0
  9  8  1  0
 10  9  2  0
 10 11  1  0
 11 12  2  0
 12 13  1  0
 14  7  1  0
 15 14  2  0
  4 16  1  0
  5 17  1  0
  6 18  1  0
  8 19  1  0
  9 20  1  0
 12 21  1  0
 22 23  1  0
 22 24  1  0
 24 25  2  0
 25 26  1  0
 26 27  2  0
 26 28  1  0
 25 29  1  0
 29 30  1  0
 30 31  2  0
 30 32  1  0
 32 33  1  0
 33 34  1  0
 34 35  1  0
 35 36  1  1
 35 24  1  0
 33 29  1  0
 22 37  1  0
 22 38  1  0
 28 39  1  0
 32 40  1  6
 33 41  1  1
 35 42  1  0
 14 32  1  0
M  ISO  8  16  14  17  14  18  14  19  14  20  14  21  14  23   8  36  15
M  END
>  <DihAtoms>  (1) 
6,13,31,29

>  <DihDeg>  (1) 
-53.73505726901558

$$$$
