
 OpenBabel03242523373D

 26 28  0  0  1  0  0  0  0  0999 V2000
   46.4440   31.5650   45.4020 C   0  0  0  0  0  0  0  0  0  0  0  0
   47.2190   31.2030   46.3840 C   0  0  0  0  0  0  0  0  0  0  0  0
   47.9230   29.9800   46.3750 N   0  0  0  0  0  0  0  0  0  0  0  0
   48.4700   28.8640   47.0480 C   0  0  0  0  0  0  0  0  0  0  0  0
   48.6640   28.4910   48.2550 O   0  0  0  0  0  0  0  0  0  0  0  0
   48.8090   28.1330   45.8240 C   0  0  0  0  0  0  0  0  0  0  0  0
   48.1350   27.2650   45.6700 H   0  0  0  0  0  0  0  0  0  0  0  0
   48.4220   29.4000   45.1440 C   0  0  1  0  0  0  0  0  0  0  0  0
   46.9440   29.2010   44.0770 S   0  0  0  0  0  0  0  0  0  0  0  0
   46.1720   30.8100   44.1740 C   0  0  0  0  0  0  0  0  0  0  0  0
   46.5480   31.4230   43.3090 H   0  0  0  0  0  0  0  0  0  0  0  0
   47.4250   32.0290   47.5670 C   0  0  0  0  0  0  0  0  0  0  0  0
   47.2880   31.6720   48.7640 O   0  0  0  0  0  0  0  0  0  0  0  0
   47.7640   33.2580   48.0980 O   0  0  0  0  0  0  0  0  0  0  0  0
   47.1140   34.0530   48.0940 H   0  0  0  0  0  0  0  0  0  0  0  0
   45.7110   32.8400   45.4050 C   0  0  0  0  0  0  0  0  0  0  0  0
   45.5790   35.0800   42.3980 C   0  0  0  0  0  0  0  0  0  0  0  0
   46.9690   35.1590   42.0860 C   0  0  0  0  0  0  0  0  0  0  0  0
   47.8620   34.4540   42.9080 C   0  0  0  0  0  0  0  0  0  0  0  0
   47.3580   33.7440   43.9400 N   0  0  0  0  0  0  0  0  0  0  0  0
   46.0290   33.6910   44.2080 C   0  0  0  0  0  0  0  0  0  0  0  0
   45.1560   34.3540   43.4400 N   0  0  0  0  0  0  0  0  0  0  0  0
   44.8910   35.6120   41.7820 H   0  0  0  0  0  0  0  0  0  0  0  0
   47.2950   35.7450   41.2480 H   0  0  0  0  0  0  0  0  0  0  0  0
   49.6070   34.5190   42.5630 S   0  0  0  0  0  0  0  0  0  0  0  0
   50.2370   33.2800   42.7880 H   0  0  0  0  0  0  0  0  0  0  0  0
  1 16  1  0  0  0  0
  1  2  2  0  0  0  0
  2 12  1  0  0  0  0
  3  2  1  0  0  0  0
  3  4  1  0  0  0  0
  4  5  2  0  0  0  0
  6  4  1  0  0  0  0
  7  6  1  0  0  0  0
  8  9  1  6  0  0  0
  8  6  1  0  0  0  0
  8  3  1  0  0  0  0
  9 10  1  0  0  0  0
 10  1  1  0  0  0  0
 11 10  1  0  0  0  0
 12 14  1  0  0  0  0
 12 13  2  0  0  0  0
 15 14  1  0  0  0  0
 17 22  1  0  0  0  0
 18 17  2  0  0  0  0
 18 19  1  0  0  0  0
 19 20  2  0  0  0  0
 20 21  1  0  0  0  0
 21 16  1  0  0  0  0
 22 21  2  0  0  0  0
 23 17  1  0  0  0  0
 24 18  1  0  0  0  0
 25 26  1  0  0  0  0
 25 19  1  0  0  0  0
M  END
>  <minimizedAffinity>
-4.36501551

>  <minimizedRMSD>
1.60331273

$$$$
