
     RDKit          3D

 49 53  0  0  0  0  0  0  0  0999 V2000
   46.5467   31.6974   46.0596 S   0  0  0  0  0  0  0  0  0  0  0  0
   47.5994   31.0690   47.3487 C   0  0  0  0  0  0  0  0  0  0  0  0
   47.9419   31.9217   48.3755 C   0  0  0  0  0  0  0  0  0  0  0  0
   48.7508   31.4437   49.3633 C   0  0  0  0  0  0  0  0  0  0  0  0
   49.2352   30.1255   49.3602 C   0  0  0  0  0  0  0  0  0  0  0  0
   50.0294   29.7070   50.3616 N   0  0  0  0  0  0  0  0  0  0  0  0
   50.5098   28.4457   50.3875 C   0  0  0  0  0  0  0  0  0  0  0  0
   50.1788   27.5950   49.3805 C   0  0  0  0  0  0  0  0  0  0  0  0
   49.3655   28.0364   48.3624 C   0  0  0  0  0  0  0  0  0  0  0  0
   48.8474   29.3222   48.2916 C   0  0  0  0  0  0  0  0  0  0  0  0
   48.0368   29.7681   47.2823 C   0  0  0  0  0  0  0  0  0  0  0  0
   45.6102   33.1142   46.6353 C   0  0  0  0  0  0  0  0  0  0  0  0
   44.5893   35.9967   44.4954 C   0  0  0  0  0  0  0  0  0  0  0  0
   45.3558   35.7315   43.3565 C   0  0  0  0  0  0  0  0  0  0  0  0
   46.1942   34.6134   43.3050 C   0  0  0  0  0  0  0  0  0  0  0  0
   46.2345   33.7908   44.4089 N   0  0  0  0  0  0  0  0  0  0  0  0
   45.4830   34.0651   45.5062 C   0  0  0  0  0  0  0  0  0  0  0  0
   44.6855   35.1495   45.5263 N   0  0  0  0  0  0  0  0  0  0  0  0
   47.6350   32.9527   48.4899 H   0  0  0  0  0  0  0  0  0  0  0  0
   49.0609   32.0704   50.2088 H   0  0  0  0  0  0  0  0  0  0  0  0
   51.1404   28.1921   51.2280 H   0  0  0  0  0  0  0  0  0  0  0  0
   50.5537   26.5785   49.3824 H   0  0  0  0  0  0  0  0  0  0  0  0
   49.1162   27.3370   47.5702 H   0  0  0  0  0  0  0  0  0  0  0  0
   47.7794   29.1016   46.4960 H   0  0  0  0  0  0  0  0  0  0  0  0
   46.0469   33.6840   47.4512 H   0  0  0  0  0  0  0  0  0  0  0  0
   44.6033   32.7583   46.9837 H   0  0  0  0  0  0  0  0  0  0  0  0
   43.9480   36.8677   44.5123 H   0  0  0  0  0  0  0  0  0  0  0  0
   45.3267   36.3651   42.5004 H   0  0  0  0  0  0  0  0  0  0  0  0
   47.0687   34.2752   42.2005 C   0  0  0  0  0  0  0  0  0  0  0  0
   48.2578   33.4849   42.3929 C   0  0  0  0  0  0  0  0  0  0  0  0
   48.8197   32.9256   43.4565 C   0  0  0  0  0  0  0  0  0  0  0  0
   48.1291   33.1247   44.7248 C   0  0  0  0  0  0  0  0  0  0  0  0
   48.6319   32.6058   45.7803 O   0  0  0  0  0  0  0  0  0  0  0  0
   47.5012   33.2932   45.9437 O   0  0  0  0  0  0  0  0  0  0  0  0
   50.0346   32.1444   43.4285 N   0  0  0  0  0  0  0  0  0  0  0  0
   51.3020   31.8013   43.9735 C   0  0  0  0  0  0  0  0  0  0  0  0
   51.6501   31.7823   45.1922 O   0  0  0  0  0  0  0  0  0  0  0  0
   51.7273   31.5725   42.5438 C   0  0  2  0  0  0  0  0  0  0  0  0
   52.4747   30.7807   42.4266 H   0  0  0  0  0  0  0  0  0  0  0  0
   50.2855   31.1442   42.4000 C   0  0  2  0  0  0  0  0  0  0  0  0
   49.4763   31.5824   40.8496 S   0  0  0  0  0  0  0  0  0  0  0  0
   48.9708   33.3046   41.1025 C   0  0  2  0  0  0  0  0  0  0  0  0
   49.8651   33.9677   41.0489 H   0  0  0  0  0  0  0  0  0  0  0  0
   47.4128   35.2352   41.6716 H   0  0  0  0  0  0  0  0  0  0  0  0
   46.4100   33.8266   41.3761 H   0  0  0  0  0  0  0  0  0  0  0  0
   46.8878   34.0904   46.1266 H   0  0  0  0  0  0  0  0  0  0  0  0
   51.9707   32.5540   42.1172 H   0  0  0  0  0  0  0  0  0  0  0  0
   50.1401   30.0949   42.7069 H   0  0  0  0  0  0  0  0  0  0  0  0
   48.3340   33.5825   40.2499 H   0  0  0  0  0  0  0  0  0  0  0  0
  1 12  1  0
  1  2  1  0
  2  3  2  0
  3  4  1  0
  4  5  2  0
  5  6  1  0
  6  7  2  0
  8  7  1  0
  9  8  2  0
 10  9  1  0
 10  5  1  0
 11  2  1  0
 11 10  2  0
 13 18  2  0
 14 13  1  0
 15 14  2  0
 15 16  1  0
 16 17  2  0
 17 18  1  0
 17 12  1  0
  3 19  1  0
  4 20  1  0
  7 21  1  0
  8 22  1  0
  9 23  1  0
 11 24  1  0
 12 25  1  0
 12 26  1  0
 13 27  1  0
 14 28  1  0
 29 30  1  0
 30 31  2  0
 31 32  1  0
 32 33  2  0
 32 34  1  0
 31 35  1  0
 35 36  1  0
 36 37  2  0
 36 38  1  0
 38 39  1  1
 38 40  1  0
 40 41  1  0
 41 42  1  0
 42 43  1  1
 42 30  1  0
 40 35  1  0
 29 44  1  0
 29 45  1  0
 34 46  1  0
 38 47  1  0
 40 48  1  1
 42 49  1  0
 15 29  1  0
M  ISO  8  19  14  20  14  21  14  22  14  23  14  24  14  25   8  26   8
M  ISO  4  27  14  28  14  39  15  43  15
M  END
>  <DihAtoms>  (1) 
13,14,28,29

>  <DihDeg>  (1) 
-85.83873973359265

$$$$
