
     RDKit          3D

 41 43  0  0  0  0  0  0  0  0999 V2000
   48.0858   32.9081   41.9029 O   0  0  0  0  0  0  0  0  0  0  0  0
   47.2022   34.0215   41.3331 P   0  0  2  0  0  0  0  0  0  0  0  0
   45.6051   33.8170   41.9203 O   0  0  0  0  0  0  0  0  0  0  0  0
   44.3535   35.9198   44.6232 C   0  0  0  0  0  0  0  0  0  0  0  0
   44.6623   35.4574   43.3234 C   0  0  0  0  0  0  0  0  0  0  0  0
   45.3213   34.2314   43.2044 C   0  0  0  0  0  0  0  0  0  0  0  0
   45.6310   33.5482   44.3284 N   0  0  0  0  0  0  0  0  0  0  0  0
   45.3256   34.0102   45.5613 C   0  0  0  0  0  0  0  0  0  0  0  0
   44.6947   35.1801   45.7225 N   0  0  0  0  0  0  0  0  0  0  0  0
   47.1911   33.9336   39.6757 O   0  0  0  0  0  0  0  0  0  0  0  0
   46.5327   33.0411   38.8718 C   0  0  0  0  0  0  0  0  0  0  0  0
   45.8999   33.4931   37.8020 O   0  0  0  0  0  0  0  0  0  0  0  0
   47.7905   35.4579   41.9067 O   0  0  0  0  0  0  0  0  0  0  0  0
   49.0448   35.7695   41.4048 C   0  0  0  0  0  0  0  0  0  0  0  0
   49.4500   37.0578   41.7255 F   0  0  0  0  0  0  0  0  0  0  0  0
   49.9506   34.8299   41.7800 F   0  0  0  0  0  0  0  0  0  0  0  0
   48.9248   35.7444   40.0219 F   0  0  0  0  0  0  0  0  0  0  0  0
   43.8464   36.8599   44.7543 H   0  0  0  0  0  0  0  0  0  0  0  0
   44.3640   36.0894   42.5227 H   0  0  0  0  0  0  0  0  0  0  0  0
   45.6297   33.3659   46.3754 H   0  0  0  0  0  0  0  0  0  0  0  0
   44.8021   27.6489   35.2362 C   0  0  0  0  0  0  0  0  0  0  0  0
   44.0775   27.8380   34.4139 H   0  0  0  0  0  0  0  0  0  0  0  0
   45.1806   28.8540   35.9694 C   0  0  0  0  0  0  0  0  0  0  0  0
   45.9821   28.7561   36.9975 C   0  0  0  0  0  0  0  0  0  0  0  0
   46.5090   27.4676   37.4317 C   0  0  0  0  0  0  0  0  0  0  0  0
   46.2925   26.3597   36.9291 O   0  0  0  0  0  0  0  0  0  0  0  0
   47.3592   27.2585   38.5029 O   0  0  0  0  0  0  0  0  0  0  0  0
   46.3673   29.9135   37.7238 N   0  0  0  0  0  0  0  0  0  0  0  0
   46.6583   30.5625   38.9497 C   0  0  0  0  0  0  0  0  0  0  0  0
   47.2425   30.0708   39.9689 O   0  0  0  0  0  0  0  0  0  0  0  0
   46.0031   31.7802   38.3427 C   0  0  2  0  0  0  0  0  0  0  0  0
   46.6628   31.1864   37.1282 C   0  0  2  0  0  0  0  0  0  0  0  0
   45.8411   31.4771   35.5680 S   0  0  0  0  0  0  0  0  0  0  0  0
   44.6453   30.1398   35.5300 C   0  0  2  0  0  0  0  0  0  0  0  0
   43.8293   30.4334   36.2545 H   0  0  0  0  0  0  0  0  0  0  0  0
   45.6545   27.0747   34.8066 H   0  0  0  0  0  0  0  0  0  0  0  0
   44.2760   26.9613   35.9301 H   0  0  0  0  0  0  0  0  0  0  0  0
   47.2674   26.5354   39.1843 H   0  0  0  0  0  0  0  0  0  0  0  0
   44.8967   31.6956   38.3063 H   0  0  0  0  0  0  0  0  0  0  0  0
   47.7570   31.4039   37.1394 H   0  0  0  0  0  0  0  0  0  0  0  0
   44.1227   30.0531   34.5586 H   0  0  0  0  0  0  0  0  0  0  0  0
  2  1  2  0
  2  3  1  1
  2 13  1  0
  3  6  1  0
  4  9  2  0
  5  4  1  0
  6  5  2  0
  6  7  1  0
  7  8  2  0
  8  9  1  0
 10  2  1  0
 11 10  1  0
 12 11  2  0
 14 16  1  0
 14 15  1  0
 14 13  1  0
 17 14  1  0
  4 18  1  0
  5 19  1  0
  8 20  1  0
 21 22  1  0
 21 23  1  0
 23 24  2  0
 24 25  1  0
 25 26  2  0
 25 27  1  0
 24 28  1  0
 28 29  1  0
 29 30  2  0
 29 31  1  0
 31 32  1  0
 32 33  1  0
 33 34  1  0
 34 35  1  1
 34 23  1  0
 32 28  1  0
 21 36  1  0
 21 37  1  0
 27 38  1  0
 31 39  1  6
 32 40  1  6
 34 41  1  0
 11 31  1  0
M  ISO  5  18  14  19  14  20  14  22   8  35  15
M  END
>  <DihAtoms>  (1) 
9,10,30,28

>  <DihDeg>  (1) 
-179.80090144961642

$$$$
