REMARK  Name = 
REMARK  5 active torsions:
REMARK  status: ('A' for Active; 'I' for Inactive)
REMARK    1  A    between atoms: C_1  and  C_7
REMARK    2  A    between atoms: C_7  and  C_22
REMARK    3  A    between atoms: C_12  and  C_14
REMARK    4  A    between atoms: C_15  and  C_16
REMARK    5  A    between atoms: C_16  and  O_18
REMARK                            x       y       z     vdW  Elec       q    Type
REMARK                         _______ _______ _______ _____ _____    ______ ____
ROOT
ATOM      1  C   UNL     1      43.392  36.001  38.762  0.00  0.00    +0.000 C 
ATOM      2  C   UNL     1      44.406  35.311  38.311  0.00  0.00    +0.000 C 
ATOM      3  N   UNL     1      45.369  34.785  39.216  0.00  0.00    +0.000 N 
ATOM      4  C   UNL     1      46.766  34.531  39.479  0.00  0.00    +0.000 C 
ATOM      5  O   UNL     1      47.876  34.665  38.860  0.00  0.00    +0.000 OA
ATOM      6  C   UNL     1      46.419  34.026  40.812  0.00  0.00    +0.000 C 
ATOM      7  C   UNL     1      44.974  34.197  40.508  0.00  0.00    +0.000 C 
ATOM      8  S   UNL     1      44.098  35.483  41.382  0.00  0.00    +0.000 S 
ATOM      9  C   UNL     1      43.093  36.343  40.169  0.00  0.00    +0.000 C 
ATOM     10  H   UNL     1      42.029  36.006  40.343  0.00  0.00    +0.000 HD
ENDROOT
BRANCH   6  11
ATOM     11  C   UNL     1      46.956  34.808  41.969  0.00  0.00    +0.000 C 
ATOM     12  O   UNL     1      48.059  35.388  41.728  0.00  0.00    +0.000 OA
BRANCH  11  13
ATOM     13  C   UNL     1      46.220  34.836  43.191  0.00  0.00    +0.000 A 
ATOM     14  C   UNL     1      45.327  35.902  43.281  0.00  0.00    +0.000 A 
ATOM     15  C   UNL     1      44.556  36.012  44.453  0.00  0.00    +0.000 A 
ATOM     16  N   UNL     1      44.741  35.062  45.418  0.00  0.00    +0.000 NA
ATOM     17  C   UNL     1      45.613  34.053  45.287  0.00  0.00    +0.000 A 
ATOM     18  N   UNL     1      46.354  33.942  44.168  0.00  0.00    +0.000 NA
ATOM     19  H   UNL     1      45.186  36.651  42.511  0.00  0.00    +0.000 HD
ATOM     20  H   UNL     1      43.846  36.819  44.578  0.00  0.00    +0.000 HD
ATOM     21  H   UNL     1      45.661  33.370  46.128  0.00  0.00    +0.000 HD
ENDBRANCH  11  13
ENDBRANCH   6  11
BRANCH   1  22
ATOM     22  C   UNL     1      42.455  36.488  37.717  0.00  0.00    +0.000 C 
ATOM     23  H   UNL     1      41.632  37.049  38.203  0.00  0.00    +0.000 HD
ENDBRANCH   1  22
BRANCH   2  24
ATOM     24  C   UNL     1      44.597  35.042  36.878  0.00  0.00    +0.000 C 
ATOM     25  O   UNL     1      43.875  35.400  35.916  0.00  0.00    +0.000 OA
BRANCH  24  26
ATOM     26  O   UNL     1      45.659  34.318  36.368  0.00  0.00    +0.000 OA
ATOM     27  H   UNL     1      46.147  34.588  35.528  0.00  0.00    +0.000 HD
ENDBRANCH  24  26
ENDBRANCH   2  24
TORSDOF 5
