
 OpenBabel03242519213D

 41 44  0  0  1  0  0  0  0  0999 V2000
   48.1650   31.5390   42.7930 C   0  0  0  0  0  0  0  0  0  0  0  0
   49.0940   31.4470   41.7190 C   0  0  0  0  0  0  0  0  0  0  0  0
   50.1840   30.5850   41.8320 C   0  0  0  0  0  0  0  0  0  0  0  0
   50.2760   29.8730   43.0080 N   0  0  0  0  0  0  0  0  0  0  0  0
   49.3920   29.9730   44.0080 C   0  0  0  0  0  0  0  0  0  0  0  0
   48.3390   30.8060   43.8970 N   0  0  0  0  0  0  0  0  0  0  0  0
   49.0900   31.9570   40.7900 H   0  0  0  0  0  0  0  0  0  0  0  0
   50.9320   30.4460   41.0860 H   0  0  0  0  0  0  0  0  0  0  0  0
   47.0480   32.4830   42.5980 C   0  0  0  0  0  0  0  0  0  0  0  0
   47.2160   33.3360   41.4040 C   0  0  0  0  0  0  0  0  0  0  0  0
   47.4860   34.7780   41.7300 C   0  0  0  0  0  0  0  0  0  0  0  0
   46.4000   35.3680   42.6110 C   0  0  0  0  0  0  0  0  0  0  0  0
   45.9670   34.4500   43.7160 C   0  0  0  0  0  0  0  0  0  0  0  0
   46.9010   33.2830   43.8860 C   0  0  0  0  0  0  0  0  0  0  0  0
   46.1160   31.8430   42.5850 H   0  0  0  0  0  0  0  0  0  0  0  0
   46.2190   33.3390   40.8710 H   0  0  0  0  0  0  0  0  0  0  0  0
   47.9290   32.9840   40.6590 H   0  0  0  0  0  0  0  0  0  0  0  0
   47.4980   35.3460   40.7780 H   0  0  0  0  0  0  0  0  0  0  0  0
   48.4320   34.9900   42.2270 H   0  0  0  0  0  0  0  0  0  0  0  0
   45.5240   35.7130   42.0090 H   0  0  0  0  0  0  0  0  0  0  0  0
   46.8010   36.2950   43.0700 H   0  0  0  0  0  0  0  0  0  0  0  0
   44.9500   34.0550   43.4240 H   0  0  0  0  0  0  0  0  0  0  0  0
   45.8580   34.9530   44.6760 H   0  0  0  0  0  0  0  0  0  0  0  0
   47.8790   33.6700   44.1880 H   0  0  0  0  0  0  0  0  0  0  0  0
   46.4810   32.6200   44.6730 H   0  0  0  0  0  0  0  0  0  0  0  0
   49.5550   29.1660   45.2590 C   0  0  0  0  0  2  0  0  0  0  0  0
   48.2860   28.8280   45.8930 C   0  0  0  0  0  0  0  0  0  0  0  0
   47.8320   29.3210   47.0320 C   0  0  0  0  0  0  0  0  0  0  0  0
   46.5710   28.8550   47.4900 N   0  0  0  0  0  0  0  0  0  0  0  0
   45.3060   29.1490   48.1240 C   0  0  0  0  0  0  0  0  0  0  0  0
   44.8140   30.1610   48.7320 O   0  0  0  0  0  0  0  0  0  0  0  0
   44.7410   27.8210   47.8200 C   0  0  0  0  0  3  0  0  0  0  0  0
   44.3520   27.2490   48.6880 H   0  0  0  0  0  0  0  0  0  0  0  0
   46.1160   27.4600   47.3790 C   0  0  1  0  0  3  0  0  0  0  0  0
   46.1380   27.1370   45.5950 S   0  0  0  0  0  0  0  0  0  0  0  0
   47.6630   27.8470   44.9750 C   0  0  0  0  0  3  0  0  0  0  0  0
   47.4340   28.3680   44.0190 H   0  0  0  0  0  0  0  0  0  0  0  0
   48.5560   30.3060   47.8410 C   0  0  0  0  0  0  0  0  0  0  0  0
   49.6240   30.3120   48.4670 O   0  0  0  0  0  0  0  0  0  0  0  0
   48.0710   31.5680   48.0520 O   0  0  0  0  0  0  0  0  0  0  0  0
   48.6450   32.3870   47.9610 H   0  0  0  0  0  0  0  0  0  0  0  0
  1  6  1  0  0  0  0
  2  3  1  0  0  0  0
  2  1  2  0  0  0  0
  3  4  2  0  0  0  0
  4  5  1  0  0  0  0
  5 26  1  0  0  0  0
  6  5  2  0  0  0  0
  7  2  1  0  0  0  0
  8  3  1  0  0  0  0
  9  1  1  0  0  0  0
  9 14  1  0  0  0  0
 10 11  1  0  0  0  0
 10  9  1  0  0  0  0
 11 19  1  0  0  0  0
 11 12  1  0  0  0  0
 12 21  1  0  0  0  0
 12 13  1  0  0  0  0
 13 14  1  0  0  0  0
 13 23  1  0  0  0  0
 14 24  1  0  0  0  0
 14 25  1  0  0  0  0
 15  9  1  0  0  0  0
 16 10  1  0  0  0  0
 17 10  1  0  0  0  0
 18 11  1  0  0  0  0
 20 12  1  0  0  0  0
 22 13  1  0  0  0  0
 26 27  1  0  0  0  0
 27 28  2  0  0  0  0
 28 29  1  0  0  0  0
 28 38  1  0  0  0  0
 29 30  1  0  0  0  0
 30 31  2  0  0  0  0
 32 30  1  0  0  0  0
 32 33  1  0  0  0  0
 34 35  1  6  0  0  0
 34 29  1  0  0  0  0
 34 32  1  0  0  0  0
 36 35  1  0  0  0  0
 36 27  1  0  0  0  0
 37 36  1  0  0  0  0
 38 40  1  0  0  0  0
 38 39  2  0  0  0  0
 41 40  1  0  0  0  0
M  END
>  <minimizedAffinity>
-4.1735568

>  <minimizedRMSD>
3.560606

$$$$
