REMARK  Name = 
REMARK  5 active torsions:
REMARK  status: ('A' for Active; 'I' for Inactive)
REMARK    1  A    between atoms: C_3  and  N_9
REMARK    2  A    between atoms: C_7  and  C_24
REMARK    3  A    between atoms: C_14  and  C_16
REMARK    4  A    between atoms: C_17  and  C_18
REMARK    5  A    between atoms: C_18  and  O_20
REMARK                            x       y       z     vdW  Elec       q    Type
REMARK                         _______ _______ _______ _____ _____    ______ ____
ROOT
ATOM      1  C   UNL     1      45.708  31.735  36.619  0.00  0.00    +0.000 C 
ATOM      2  C   UNL     1      46.913  31.738  37.163  0.00  0.00    +0.000 C 
ATOM      3  N   UNL     1      47.226  32.626  38.224  0.00  0.00    +0.000 N 
ATOM      4  C   UNL     1      47.903  32.877  39.435  0.00  0.00    +0.000 C 
ATOM      5  O   UNL     1      48.749  32.260  40.162  0.00  0.00    +0.000 OA
ATOM      6  C   UNL     1      47.277  34.210  39.637  0.00  0.00    +0.000 C 
ATOM      7  C   UNL     1      46.697  33.979  38.289  0.00  0.00    +0.000 C 
ATOM      8  S   UNL     1      44.895  33.816  38.230  0.00  0.00    +0.000 S 
ATOM      9  C   UNL     1      44.545  32.578  36.984  0.00  0.00    +0.000 C 
ATOM     10  H   UNL     1      43.682  31.920  37.259  0.00  0.00    +0.000 HD
ENDROOT
BRANCH   6  11
ATOM     11  C   UNL     1      46.377  34.201  40.789  0.00  0.00    +0.000 C 
ATOM     12  O   UNL     1      45.227  33.716  40.934  0.00  0.00    +0.000 OA
ATOM     13  N   UNL     1      46.893  34.857  41.952  0.00  0.00    +0.000 N 
ATOM     14  H   UNL     1      47.837  35.308  42.021  0.00  0.00    +0.000 HD
BRANCH  13  17
ATOM     15  C   UNL     1      44.538  36.046  44.566  0.00  0.00    +0.000 A 
ATOM     16  C   UNL     1      45.256  36.007  43.361  0.00  0.00    +0.000 A 
ATOM     17  C   UNL     1      46.137  34.953  43.153  0.00  0.00    +0.000 A 
ATOM     18  N   UNL     1      46.276  34.010  44.101  0.00  0.00    +0.000 NA
ATOM     19  C   UNL     1      45.568  34.066  45.270  0.00  0.00    +0.000 A 
ATOM     20  N   UNL     1      44.712  35.084  45.480  0.00  0.00    +0.000 NA
ATOM     21  H   UNL     1      43.877  36.904  44.637  0.00  0.00    +0.000 HD
ATOM     22  H   UNL     1      45.177  36.742  42.569  0.00  0.00    +0.000 HD
ATOM     23  H   UNL     1      45.690  33.288  46.039  0.00  0.00    +0.000 HD
ENDBRANCH  13  17
ENDBRANCH   6  11
BRANCH   1  24
ATOM     24  C   UNL     1      45.518  30.760  35.516  0.00  0.00    +0.000 C 
ATOM     25  H   UNL     1      46.276  31.050  34.730  0.00  0.00    +0.000 HD
ENDBRANCH   1  24
BRANCH   2  26
ATOM     26  C   UNL     1      47.969  30.838  36.699  0.00  0.00    +0.000 C 
ATOM     27  O   UNL     1      49.123  30.816  37.195  0.00  0.00    +0.000 OA
BRANCH  26  28
ATOM     28  O   UNL     1      48.027  29.870  35.714  0.00  0.00    +0.000 OA
ATOM     29  H   UNL     1      48.146  28.910  35.997  0.00  0.00    +0.000 HD
ENDBRANCH  26  28
ENDBRANCH   2  26
TORSDOF 5
