REMARK  Name = 
REMARK  6 active torsions:
REMARK  status: ('A' for Active; 'I' for Inactive)
REMARK    1  A    between atoms: C_1  and  O_7
REMARK    2  A    between atoms: C_5  and  C_15
REMARK    3  A    between atoms: O_7  and  C_8
REMARK    4  A    between atoms: C_15  and  C_16
REMARK    5  A    between atoms: C_17  and  C_18
REMARK    6  A    between atoms: C_18  and  O_20
REMARK                            x       y       z     vdW  Elec       q    Type
REMARK                         _______ _______ _______ _____ _____    ______ ____
ROOT
ATOM      1  C   UNL     1      46.598  31.079  47.523  0.00  0.00    +0.000 C 
ENDROOT
BRANCH   1   2
ATOM      2  C   UNL     1      47.970  30.960  48.025  0.00  0.00    +0.000 C 
ATOM      3  C   UNL     1      48.520  29.765  47.919  0.00  0.00    +0.000 C 
ATOM      4  N   UNL     1      49.836  29.538  48.367  0.00  0.00    +0.000 N 
ATOM      5  C   UNL     1      50.822  28.700  49.009  0.00  0.00    +0.000 C 
ATOM      6  O   UNL     1      50.962  27.462  48.995  0.00  0.00    +0.000 OA
ATOM      7  C   UNL     1      51.392  29.988  49.544  0.00  0.00    +0.000 C 
ATOM      8  H   UNL     1      50.777  30.381  50.382  0.00  0.00    +0.000 HD
ATOM      9  C   UNL     1      50.905  30.505  48.207  0.00  0.00    +0.000 C 
ATOM     10  S   UNL     1      50.331  32.192  48.172  0.00  0.00    +0.000 S 
ATOM     11  C   UNL     1      48.591  32.167  48.595  0.00  0.00    +0.000 C 
ATOM     12  H   UNL     1      48.134  33.068  48.108  0.00  0.00    +0.000 HD
BRANCH   3  13
ATOM     13  C   UNL     1      47.813  28.625  47.340  0.00  0.00    +0.000 C 
ATOM     14  O   UNL     1      48.307  27.467  47.228  0.00  0.00    +0.000 OA
BRANCH  13  15
ATOM     15  O   UNL     1      46.819  27.883  46.752  0.00  0.00    +0.000 OA
ATOM     16  H   UNL     1      46.434  28.206  45.865  0.00  0.00    +0.000 HD
ENDBRANCH  13  15
ENDBRANCH   3  13
ENDBRANCH   1   2
BRANCH   1  21
ATOM     17  C   UNL     1      45.531  34.033  45.585  0.00  0.00    +0.000 A 
ATOM     18  C   UNL     1      46.238  33.900  44.381  0.00  0.00    +0.000 A 
ATOM     19  C   UNL     1      47.085  32.790  44.233  0.00  0.00    +0.000 A 
ATOM     20  N   UNL     1      47.162  31.913  45.279  0.00  0.00    +0.000 NA
ATOM     21  C   UNL     1      46.470  32.081  46.408  0.00  0.00    +0.000 A 
ATOM     22  N   UNL     1      45.669  33.126  46.552  0.00  0.00    +0.000 NA
ATOM     23  H   UNL     1      46.208  34.563  43.534  0.00  0.00    +0.000 HD
ATOM     24  H   UNL     1      47.671  32.594  43.350  0.00  0.00    +0.000 HD
BRANCH  17  25
ATOM     25  O   UNL     1      44.724  35.117  45.690  0.00  0.00    +0.000 OA
BRANCH  25  26
ATOM     26  C   UNL     1      44.389  35.954  44.631  0.00  0.00    +0.000 C 
ATOM     27  O   UNL     1      45.021  37.023  44.309  0.00  0.00    +0.000 OA
ATOM     28  N   UNL     1      43.288  35.740  43.748  0.00  0.00    +0.000 N 
ATOM     29  H   UNL     1      43.263  35.536  42.711  0.00  0.00    +0.000 HD
ATOM     30  H   UNL     1      42.242  35.670  43.588  0.00  0.00    +0.000 HD
ENDBRANCH  25  26
ENDBRANCH  17  25
ENDBRANCH   1  21
TORSDOF 6
