
     RDKit          3D

 34 36  0  0  0  0  0  0  0  0999 V2000
   44.5385   36.0457   44.5663 C   0  0  0  0  0  0  0  0  0  0  0  0
   45.2559   36.0070   43.3605 C   0  0  0  0  0  0  0  0  0  0  0  0
   46.1366   34.9535   43.1527 C   0  0  0  0  0  0  0  0  0  0  0  0
   46.2764   34.0102   44.1011 N   0  0  0  0  0  0  0  0  0  0  0  0
   45.5678   34.0659   45.2697 C   0  0  0  0  0  0  0  0  0  0  0  0
   44.7116   35.0838   45.4799 N   0  0  0  0  0  0  0  0  0  0  0  0
   46.3775   34.2014   40.7893 C   0  0  0  0  0  0  0  0  0  0  0  0
   45.2270   33.7164   40.9342 O   0  0  0  0  0  0  0  0  0  0  0  0
   46.8926   34.8572   41.9524 N   0  0  0  0  0  0  0  0  0  0  0  0
   43.8772   36.9041   44.6372 H   0  0  0  0  0  0  0  0  0  0  0  0
   45.1767   36.7422   42.5694 H   0  0  0  0  0  0  0  0  0  0  0  0
   45.6902   33.2885   46.0388 H   0  0  0  0  0  0  0  0  0  0  0  0
   47.8373   35.3079   42.0211 H   0  0  0  0  0  0  0  0  0  0  0  0
   44.9134   31.8930   35.0520 C   0  0  0  0  0  0  0  0  0  0  0  0
   45.7259   32.1444   34.3083 H   0  0  0  0  0  0  0  0  0  0  0  0
   45.2814   32.6202   36.2921 C   0  0  0  0  0  0  0  0  0  0  0  0
   46.4535   32.2908   36.8078 C   0  0  0  0  0  0  0  0  0  0  0  0
   47.3109   31.2803   36.1876 C   0  0  0  0  0  0  0  0  0  0  0  0
   48.4281   30.9450   36.6536 O   0  0  0  0  0  0  0  0  0  0  0  0
   47.1845   30.4904   35.0600 O   0  0  0  0  0  0  0  0  0  0  0  0
   46.9254   32.9154   37.9914 N   0  0  0  0  0  0  0  0  0  0  0  0
   47.6206   32.8274   39.2141 C   0  0  0  0  0  0  0  0  0  0  0  0
   48.3120   31.9425   39.8187 O   0  0  0  0  0  0  0  0  0  0  0  0
   47.2772   34.2097   39.6371 C   0  0  1  0  0  0  0  0  0  0  0  0
   46.6827   34.3198   38.2797 C   0  0  2  0  0  0  0  0  0  0  0  0
   44.8867   34.5398   38.2289 S   0  0  0  0  0  0  0  0  0  0  0  0
   44.3098   33.6132   36.8074 C   0  0  2  0  0  0  0  0  0  0  0  0
   43.3264   33.1103   36.9900 H   0  0  0  0  0  0  0  0  0  0  0  0
   43.9964   32.2986   34.6062 H   0  0  0  0  0  0  0  0  0  0  0  0
   44.8768   30.7919   35.1924 H   0  0  0  0  0  0  0  0  0  0  0  0
   47.1005   29.4938   35.1853 H   0  0  0  0  0  0  0  0  0  0  0  0
   48.1615   34.8608   39.8081 H   0  0  0  0  0  0  0  0  0  0  0  0
   47.2479   34.9769   37.6002 H   0  0  0  0  0  0  0  0  0  0  0  0
   44.1816   34.3560   35.9665 H   0  0  0  0  0  0  0  0  0  0  0  0
  1  6  2  0
  2  1  1  0
  3  2  2  0
  3  4  1  0
  4  5  2  0
  5  6  1  0
  7  8  2  0
  7  9  1  0
  9  3  1  0
  1 10  1  0
  2 11  1  0
  5 12  1  0
  9 13  1  0
 14 15  1  0
 14 16  1  0
 16 17  2  0
 17 18  1  0
 18 19  2  0
 18 20  1  0
 17 21  1  0
 21 22  1  0
 22 23  2  0
 22 24  1  0
 24 25  1  0
 25 26  1  0
 26 27  1  0
 27 28  1  1
 27 16  1  0
 25 21  1  0
 14 29  1  0
 14 30  1  0
 20 31  1  0
 24 32  1  1
 25 33  1  6
 27 34  1  0
  7 24  1  0
M  ISO  5  10  14  11  14  12  14  15   8  28  15
M  END
>  <DihAtoms>  (1) 
7,6,23,21

>  <DihDeg>  (1) 
-119.99373654688416

$$$$
