
     RDKit          3D

 47 51  0  0  0  0  0  0  0  0999 V2000
   47.3107   34.7071   42.0123 C   0  0  0  0  0  0  0  0  0  0  0  0
   48.1728   35.5422   41.6353 O   0  0  0  0  0  0  0  0  0  0  0  0
   46.4375   34.7925   43.1312 C   0  0  0  0  0  0  0  0  0  0  0  0
   45.5512   35.8404   43.0947 C   0  0  0  0  0  0  0  0  0  0  0  0
   44.6627   35.9903   44.1577 C   0  0  0  0  0  0  0  0  0  0  0  0
   44.7144   35.1040   45.1675 N   0  0  0  0  0  0  0  0  0  0  0  0
   45.6018   34.0880   45.1632 C   0  0  0  0  0  0  0  0  0  0  0  0
   46.4511   33.9469   44.1446 N   0  0  0  0  0  0  0  0  0  0  0  0
   47.1962   33.5371   41.2242 O   0  0  0  0  0  0  0  0  0  0  0  0
   47.2394   33.6383   39.8244 C   0  0  0  0  0  0  0  0  0  0  0  0
   48.1803   34.2095   38.9659 C   0  0  0  0  0  0  0  0  0  0  0  0
   47.7576   34.0496   37.6590 C   0  0  0  0  0  0  0  0  0  0  0  0
   46.5694   33.3823   37.7975 C   0  0  0  0  0  0  0  0  0  0  0  0
   46.2613   33.1384   39.0539 O   0  0  0  0  0  0  0  0  0  0  0  0
   45.7120   32.9790   36.6468 C   0  0  2  0  0  0  0  0  0  0  0  0
   44.6853   31.9361   36.8348 C   0  0  0  0  0  0  0  0  0  0  0  0
   45.9583   31.5671   36.1500 C   0  0  1  0  0  0  0  0  0  0  0  0
   45.4899   36.5599   42.3021 H   0  0  0  0  0  0  0  0  0  0  0  0
   43.9424   36.8147   44.1611 H   0  0  0  0  0  0  0  0  0  0  0  0
   45.6818   33.3456   45.9570 H   0  0  0  0  0  0  0  0  0  0  0  0
   49.0755   34.6852   39.3332 H   0  0  0  0  0  0  0  0  0  0  0  0
   48.2627   34.3811   36.7632 H   0  0  0  0  0  0  0  0  0  0  0  0
   45.5480   33.7635   35.8957 H   0  0  0  0  0  0  0  0  0  0  0  0
   44.5667   31.6087   37.9005 H   0  0  0  0  0  0  0  0  0  0  0  0
   43.7225   31.9913   36.3298 H   0  0  0  0  0  0  0  0  0  0  0  0
   46.6310   30.9251   36.7711 H   0  0  0  0  0  0  0  0  0  0  0  0
   46.0686   31.3627   34.6918 C   0  0  0  0  0  0  0  0  0  0  0  0
   47.3945   31.4808   34.0688 C   0  0  0  0  0  0  0  0  0  0  0  0
   47.5118   32.5898   33.2906 C   0  0  0  0  0  0  0  0  0  0  0  0
   46.3898   33.5372   33.1236 C   0  0  0  0  0  0  0  0  0  0  0  0
   46.3684   34.6081   32.4153 O   0  0  0  0  0  0  0  0  0  0  0  0
   45.1719   34.1370   33.2294 O   0  0  0  0  0  0  0  0  0  0  0  0
   48.7369   32.9374   32.5974 N   0  0  0  0  0  0  0  0  0  0  0  0
   49.3423   33.2587   31.3374 C   0  0  0  0  0  0  0  0  0  0  0  0
   48.8814   33.7664   30.2690 O   0  0  0  0  0  0  0  0  0  0  0  0
   50.6174   32.7250   31.9464 C   0  0  2  0  0  0  0  0  0  0  0  0
   51.4581   33.4042   31.7211 H   0  0  0  0  0  0  0  0  0  0  0  0
   50.0393   33.0647   33.3019 C   0  0  2  0  0  0  0  0  0  0  0  0
   50.0401   31.7194   34.5183 S   0  0  0  0  0  0  0  0  0  0  0  0
   48.6292   30.6619   34.0222 C   0  0  1  0  0  0  0  0  0  0  0  0
   48.5302   29.7616   34.6031 H   0  0  0  0  0  0  0  0  0  0  0  0
   45.7224   30.3151   34.3959 H   0  0  0  0  0  0  0  0  0  0  0  0
   45.3160   32.0056   34.1576 H   0  0  0  0  0  0  0  0  0  0  0  0
   44.7750   34.3012   34.1693 H   0  0  0  0  0  0  0  0  0  0  0  0
   50.7914   31.6675   31.7525 H   0  0  0  0  0  0  0  0  0  0  0  0
   50.2485   34.0675   33.6710 H   0  0  0  0  0  0  0  0  0  0  0  0
   48.8251   30.3094   32.9651 H   0  0  0  0  0  0  0  0  0  0  0  0
  1  3  1  0
  2  1  2  0
  3  8  1  0
  4  3  2  0
  4  5  1  0
  5  6  2  0
  7  6  1  0
  8  7  2  0
  9  1  1  0
 10  9  1  0
 11 10  2  0
 12 13  2  0
 12 11  1  0
 13 14  1  0
 14 10  1  0
 15 16  1  0
 15 13  1  0
 17 15  1  0
 17 16  1  0
  4 18  1  0
  5 19  1  0
  7 20  1  0
 11 21  1  0
 12 22  1  0
 15 23  1  6
 16 24  1  0
 16 25  1  0
 17 26  1  1
 27 28  1  0
 28 29  2  0
 29 30  1  0
 30 31  2  0
 30 32  1  0
 29 33  1  0
 33 34  1  0
 34 35  2  0
 34 36  1  0
 36 37  1  6
 36 38  1  0
 38 39  1  0
 39 40  1  0
 40 41  1  1
 40 28  1  0
 38 33  1  0
 27 42  1  0
 27 43  1  0
 32 44  1  0
 36 45  1  0
 38 46  1  1
 40 47  1  0
 17 27  1  0
M  ISO  8  18  14  19  14  20  14  21  14  22  14  23  13  24  13  25  13
M  ISO  3  26  13  37  15  41  15
M  END
>  <DihAtoms>  (1) 
14,16,26,27

>  <DihDeg>  (1) 
-60.73782031035239

$$$$
