
 OpenBabel03252504413D

 52 56  0  0  1  0  0  0  0  0999 V2000
   45.3710   33.0590   47.0290 C   0  0  0  0  0  0  0  0  0  0  0  0
   44.4860   32.4950   46.6590 H   0  0  0  0  0  0  0  0  0  0  0  0
   45.0060   33.9440   47.5890 H   0  0  0  0  0  0  0  0  0  0  0  0
   46.2110   32.2140   47.9290 C   0  0  0  0  0  0  0  0  0  0  0  0
   45.7960   31.5720   49.0660 C   0  0  0  0  0  0  0  0  0  0  0  0
   46.8630   30.9390   49.5520 N   0  0  0  0  0  0  0  0  0  0  0  0
   47.9430   31.1440   48.7820 C   0  0  0  0  0  0  0  0  0  0  0  0
   47.5230   31.9460   47.7640 N   0  0  0  0  0  0  0  0  0  0  0  0
   49.2790   30.6880   48.8870 N   0  0  0  0  0  0  0  0  0  0  0  0
   50.2130   31.5120   49.6840 C   0  0  0  0  0  0  0  0  0  0  0  0
   50.3910   30.7370   50.9840 C   0  0  0  0  0  0  0  0  0  0  0  0
   50.6680   29.2820   50.7020 C   0  0  0  0  0  0  0  0  0  0  0  0
   51.0860   29.1190   49.2620 C   0  0  0  0  0  0  0  0  0  0  0  0
   49.9480   29.5380   48.3560 C   0  0  0  0  0  0  0  0  0  0  0  0
   44.7980   31.5670   49.5050 H   0  0  0  0  0  0  0  0  0  0  0  0
   46.9080   30.3460   50.4180 H   0  0  0  0  0  0  0  0  0  0  0  0
   51.1520   31.6980   49.1570 H   0  0  0  0  0  0  0  0  0  0  0  0
   49.7480   32.4870   49.9640 H   0  0  0  0  0  0  0  0  0  0  0  0
   49.5470   30.9060   51.6570 H   0  0  0  0  0  0  0  0  0  0  0  0
   51.3030   31.1680   51.4790 H   0  0  0  0  0  0  0  0  0  0  0  0
   49.7240   28.7130   50.8430 H   0  0  0  0  0  0  0  0  0  0  0  0
   51.4000   28.8390   51.3920 H   0  0  0  0  0  0  0  0  0  0  0  0
   51.9470   29.8120   49.0870 H   0  0  0  0  0  0  0  0  0  0  0  0
   51.4360   28.0980   49.0500 H   0  0  0  0  0  0  0  0  0  0  0  0
   49.2620   28.6560   48.3170 H   0  0  0  0  0  0  0  0  0  0  0  0
   50.2740   29.7800   47.3290 H   0  0  0  0  0  0  0  0  0  0  0  0
   46.0640   33.1090   44.6660 C   0  0  0  0  0  3  0  0  0  0  0  0
   46.1740   33.5770   45.9010 C   0  0  0  0  0  3  0  0  0  0  0  0
   46.9200   33.7110   43.6430 C   0  0  0  0  0  0  0  0  0  0  0  0
   46.4430   34.7950   42.8470 C   0  0  0  0  0  0  0  0  0  0  0  0
   47.3410   35.2940   41.9020 C   0  0  0  0  0  0  0  0  0  0  0  0
   48.5830   34.7700   41.7630 N   0  0  0  0  0  0  0  0  0  0  0  0
   49.0000   33.7340   42.5450 C   0  0  0  0  0  0  0  0  0  0  0  0
   48.1640   33.2380   43.4530 N   0  0  0  0  0  0  0  0  0  0  0  0
   45.4550   35.1300   43.0380 H   0  0  0  0  0  0  0  0  0  0  0  0
   46.9720   36.1100   41.3090 H   0  0  0  0  0  0  0  0  0  0  0  0
   50.3360   33.1700   42.4680 C   0  0  0  0  0  2  0  0  0  0  0  0
   50.5540   31.8980   41.8210 C   0  0  0  0  0  0  0  0  0  0  0  0
   50.2770   31.3980   40.6340 C   0  0  0  0  0  0  0  0  0  0  0  0
   50.6080   30.0600   40.2770 N   0  0  0  0  0  0  0  0  0  0  0  0
   51.2010   29.1620   39.3490 C   0  0  0  0  0  0  0  0  0  0  0  0
   51.2930   29.2040   38.0840 O   0  0  0  0  0  0  0  0  0  0  0  0
   51.5700   28.3200   40.5220 C   0  0  0  0  0  3  0  0  0  0  0  0
   51.6040   27.2410   40.3310 H   0  0  0  0  0  0  0  0  0  0  0  0
   50.2980   28.8600   41.0870 C   0  0  1  0  0  3  0  0  0  0  0  0
   50.3640   29.4200   42.8020 S   0  0  0  0  0  0  0  0  0  0  0  0
   51.2930   31.0040   42.7480 C   0  0  0  0  0  3  0  0  0  0  0  0
   52.2760   30.7650   42.2840 H   0  0  0  0  0  0  0  0  0  0  0  0
   49.5930   32.2700   39.6940 C   0  0  0  0  0  0  0  0  0  0  0  0
   48.3940   32.0460   39.4110 O   0  0  0  0  0  0  0  0  0  0  0  0
   49.0160   33.1340   38.8000 O   0  0  0  0  0  0  0  0  0  0  0  0
   49.1750   34.1550   38.7740 H   0  0  0  0  0  0  0  0  0  0  0  0
  1  3  1  0  0  0  0
  1  4  1  0  0  0  0
  2  1  1  0  0  0  0
  4  5  2  0  0  0  0
  5 15  1  0  0  0  0
  5  6  1  0  0  0  0
  6 16  1  0  0  0  0
  7  9  1  0  0  0  0
  7  6  1  0  0  0  0
  8  4  1  0  0  0  0
  8  7  2  0  0  0  0
  9 10  1  0  0  0  0
 10 18  1  0  0  0  0
 10 11  1  0  0  0  0
 11 20  1  0  0  0  0
 11 19  1  0  0  0  0
 12 21  1  0  0  0  0
 12 11  1  0  0  0  0
 12 22  1  0  0  0  0
 13 12  1  0  0  0  0
 14  9  1  0  0  0  0
 14 13  1  0  0  0  0
 17 10  1  0  0  0  0
 23 13  1  0  0  0  0
 24 13  1  0  0  0  0
 25 14  1  0  0  0  0
 26 14  1  0  0  0  0
 27 28  2  0  0  0  0
 28  1  1  0  0  0  0
 29 27  1  0  0  0  0
 30 35  1  0  0  0  0
 30 29  2  0  0  0  0
 31 30  1  0  0  0  0
 32 31  2  0  0  0  0
 32 33  1  0  0  0  0
 33 34  2  0  0  0  0
 34 29  1  0  0  0  0
 36 31  1  0  0  0  0
 37 33  1  0  0  0  0
 38 37  1  0  0  0  0
 38 47  1  0  0  0  0
 39 38  2  0  0  0  0
 40 39  1  0  0  0  0
 40 45  1  0  0  0  0
 41 40  1  0  0  0  0
 41 43  1  0  0  0  0
 42 41  2  0  0  0  0
 44 43  1  0  0  0  0
 45 43  1  1  0  0  0
 45 46  1  0  0  0  0
 47 46  1  0  0  0  0
 48 47  1  0  0  0  0
 49 39  1  0  0  0  0
 50 49  2  0  0  0  0
 51 49  1  0  0  0  0
 52 51  1  0  0  0  0
M  END
>  <minimizedAffinity>
-6.23913145

>  <minimizedRMSD>
1.76442516

$$$$
