
     RDKit          3D

 38 40  0  0  0  0  0  0  0  0999 V2000
   46.1293   35.2862   42.6913 C   0  0  0  0  0  0  0  0  0  0  0  0
   46.6892   34.1778   43.3497 C   0  0  0  0  0  0  0  0  0  0  0  0
   46.2045   33.8415   44.6094 C   0  0  0  0  0  0  0  0  0  0  0  0
   45.2144   34.5907   45.1546 N   0  0  0  0  0  0  0  0  0  0  0  0
   44.6967   35.6517   44.4948 C   0  0  0  0  0  0  0  0  0  0  0  0
   45.1565   35.9833   43.2823 N   0  0  0  0  0  0  0  0  0  0  0  0
   47.7065   33.4734   42.6971 O   0  0  0  0  0  0  0  0  0  0  0  0
   49.5491   35.3675   42.7824 O   0  0  0  0  0  0  0  0  0  0  0  0
   48.9719   34.2999   41.8988 P   0  0  1  0  0  0  0  0  0  0  0  0
   50.2263   33.2507   41.5126 O   0  0  0  0  0  0  0  0  0  0  0  0
   48.4084   35.0300   40.5073 O   0  0  0  0  0  0  0  0  0  0  0  0
   48.0692   34.3738   39.3678 C   0  0  0  0  0  0  0  0  0  0  0  0
   46.9449   33.7624   39.5020 O   0  0  0  0  0  0  0  0  0  0  0  0
   46.4383   35.6272   41.7096 H   0  0  0  0  0  0  0  0  0  0  0  0
   46.6769   32.9837   45.0556 H   0  0  0  0  0  0  0  0  0  0  0  0
   43.9163   36.1448   45.0621 H   0  0  0  0  0  0  0  0  0  0  0  0
   49.9006   32.4162   41.0848 H   0  0  0  0  0  0  0  0  0  0  0  0
   49.7060   28.7444   39.4685 C   0  0  0  0  0  0  0  0  0  0  0  0
   49.5266   28.4277   40.5362 H   0  0  0  0  0  0  0  0  0  0  0  0
   49.1099   30.0605   39.2785 C   0  0  0  0  0  0  0  0  0  0  0  0
   49.2155   30.6244   38.0877 C   0  0  0  0  0  0  0  0  0  0  0  0
   49.9211   29.9235   37.0029 C   0  0  0  0  0  0  0  0  0  0  0  0
   50.4566   28.7931   37.0964 O   0  0  0  0  0  0  0  0  0  0  0  0
   50.1213   30.3580   35.7258 O   0  0  0  0  0  0  0  0  0  0  0  0
   48.6439   31.9027   37.8412 N   0  0  0  0  0  0  0  0  0  0  0  0
   48.8921   33.2185   37.2906 C   0  0  0  0  0  0  0  0  0  0  0  0
   49.7246   33.7392   36.4711 O   0  0  0  0  0  0  0  0  0  0  0  0
   47.7627   33.6830   38.0933 C   0  0  1  0  0  0  0  0  0  0  0  0
   47.2832   32.2631   38.1913 C   0  0  2  0  0  0  0  0  0  0  0  0
   46.9425   31.6515   39.8368 S   0  0  0  0  0  0  0  0  0  0  0  0
   48.4117   30.7489   40.3950 C   0  0  2  0  0  0  0  0  0  0  0  0
   49.0931   31.5380   40.8253 H   0  0  0  0  0  0  0  0  0  0  0  0
   49.2333   27.9248   38.8754 H   0  0  0  0  0  0  0  0  0  0  0  0
   50.8326   28.7273   39.3920 H   0  0  0  0  0  0  0  0  0  0  0  0
   51.0503   30.4008   35.3274 H   0  0  0  0  0  0  0  0  0  0  0  0
   47.0667   34.2714   37.4376 H   0  0  0  0  0  0  0  0  0  0  0  0
   46.5212   31.9554   37.4512 H   0  0  0  0  0  0  0  0  0  0  0  0
   48.0765   30.0479   41.1744 H   0  0  0  0  0  0  0  0  0  0  0  0
  1  6  2  0
  1  2  1  0
  2  3  2  0
  3  4  1  0
  5  4  2  0
  6  5  1  0
  7  2  1  0
  9  7  1  1
  9  8  2  0
 10  9  1  0
 11  9  1  0
 12 13  2  0
 12 11  1  0
  1 14  1  0
  3 15  1  0
  5 16  1  0
 10 17  1  0
 18 19  1  0
 18 20  1  0
 20 21  2  0
 21 22  1  0
 22 23  2  0
 22 24  1  0
 21 25  1  0
 25 26  1  0
 26 27  2  0
 26 28  1  0
 28 29  1  0
 29 30  1  0
 30 31  1  0
 31 32  1  1
 31 20  1  0
 29 25  1  0
 18 33  1  0
 18 34  1  0
 24 35  1  0
 28 36  1  6
 29 37  1  6
 31 38  1  0
 12 28  1  0
M  ISO  6  14  14  15  14  16  14  17   3  19   8  32  15
M  END
>  <DihAtoms>  (1) 
12,11,27,25

>  <DihDeg>  (1) 
0.6178206600231226

$$$$
