
     RDKit          3D

 40 43  0  0  0  0  0  0  0  0999 V2000
   47.3017   34.7536   41.9878 C   0  0  0  0  0  0  0  0  0  0  0  0
   48.1817   35.5747   41.6406 O   0  0  0  0  0  0  0  0  0  0  0  0
   46.4399   34.8065   43.1202 C   0  0  0  0  0  0  0  0  0  0  0  0
   45.5568   35.8670   43.0804 C   0  0  0  0  0  0  0  0  0  0  0  0
   44.6623   36.0043   44.1574 C   0  0  0  0  0  0  0  0  0  0  0  0
   44.7129   35.1028   45.1624 N   0  0  0  0  0  0  0  0  0  0  0  0
   45.6059   34.0797   45.1440 C   0  0  0  0  0  0  0  0  0  0  0  0
   46.4728   33.9310   44.1188 N   0  0  0  0  0  0  0  0  0  0  0  0
   47.1472   33.6439   41.1559 O   0  0  0  0  0  0  0  0  0  0  0  0
   47.3021   33.7463   39.7679 C   0  0  0  0  0  0  0  0  0  0  0  0
   48.2978   34.3363   39.0106 C   0  0  0  0  0  0  0  0  0  0  0  0
   47.9733   34.1572   37.6727 C   0  0  0  0  0  0  0  0  0  0  0  0
   46.7753   33.4547   37.6896 C   0  0  0  0  0  0  0  0  0  0  0  0
   46.4182   33.2350   38.9298 O   0  0  0  0  0  0  0  0  0  0  0  0
   45.4765   36.6179   42.2961 H   0  0  0  0  0  0  0  0  0  0  0  0
   43.9414   36.8121   44.1940 H   0  0  0  0  0  0  0  0  0  0  0  0
   45.5977   33.3855   45.9833 H   0  0  0  0  0  0  0  0  0  0  0  0
   49.1491   34.8318   39.4481 H   0  0  0  0  0  0  0  0  0  0  0  0
   48.5712   34.5149   36.8255 H   0  0  0  0  0  0  0  0  0  0  0  0
   46.0389   33.0334   36.4455 C   0  0  0  0  0  0  0  0  0  0  0  0
   44.6959   32.6637   36.8903 C   0  0  0  0  0  0  0  0  0  0  0  0
   44.2492   31.4448   36.6896 C   0  0  0  0  0  0  0  0  0  0  0  0
   45.0903   30.4563   36.0232 C   0  0  0  0  0  0  0  0  0  0  0  0
   44.7601   29.2653   35.7845 O   0  0  0  0  0  0  0  0  0  0  0  0
   46.1127   29.7866   35.3817 O   0  0  0  0  0  0  0  0  0  0  0  0
   42.9705   31.0386   37.0934 N   0  0  0  0  0  0  0  0  0  0  0  0
   42.1175   30.0366   37.6306 C   0  0  0  0  0  0  0  0  0  0  0  0
   42.0922   28.7958   37.6358 O   0  0  0  0  0  0  0  0  0  0  0  0
   41.2679   31.1132   38.1842 C   0  0  1  0  0  0  0  0  0  0  0  0
   40.1938   30.9307   38.1851 H   0  0  0  0  0  0  0  0  0  0  0  0
   41.8130   31.9153   37.0040 C   0  0  1  0  0  0  0  0  0  0  0  0
   42.1683   33.6274   37.3813 S   0  0  0  0  0  0  0  0  0  0  0  0
   43.9703   33.7504   37.5425 C   0  0  1  0  0  0  0  0  0  0  0  0
   44.1777   33.8086   38.6490 H   0  0  0  0  0  0  0  0  0  0  0  0
   46.5912   32.2343   35.9583 H   0  0  0  0  0  0  0  0  0  0  0  0
   46.0709   33.9188   35.7838 H   0  0  0  0  0  0  0  0  0  0  0  0
   46.7797   30.1871   34.7367 H   0  0  0  0  0  0  0  0  0  0  0  0
   41.7134   31.4534   39.1459 H   0  0  0  0  0  0  0  0  0  0  0  0
   41.1892   31.7049   36.1231 H   0  0  0  0  0  0  0  0  0  0  0  0
   44.2366   34.7607   37.1696 H   0  0  0  0  0  0  0  0  0  0  0  0
  1  3  1  0
  2  1  2  0
  3  8  1  0
  4  3  2  0
  4  5  1  0
  5  6  2  0
  7  6  1  0
  8  7  2  0
  9  1  1  0
 10  9  1  0
 11 10  2  0
 12 13  2  0
 12 11  1  0
 13 14  1  0
 14 10  1  0
  4 15  1  0
  5 16  1  0
  7 17  1  0
 11 18  1  0
 12 19  1  0
 20 21  1  0
 21 22  2  0
 22 23  1  0
 23 24  2  0
 23 25  1  0
 22 26  1  0
 26 27  1  0
 27 28  2  0
 27 29  1  0
 29 30  1  1
 29 31  1  0
 31 32  1  0
 32 33  1  0
 33 34  1  1
 33 21  1  0
 31 26  1  0
 20 35  1  0
 20 36  1  0
 25 37  1  0
 29 38  1  0
 31 39  1  6
 33 40  1  0
 13 20  1  0
M  ISO  7  15  14  16  14  17  14  18  14  19  14  30  15  34  15
M  END
>  <DihAtoms>  (1) 
11,12,19,20

>  <DihDeg>  (1) 
89.95726316256577

$$$$
