
     RDKit          3D

 41 44  0  0  0  0  0  0  0  0999 V2000
   45.2686   36.1657   43.1700 C   0  0  0  0  0  0  0  0  0  0  0  0
   45.8686   34.9122   42.9084 C   0  0  0  0  0  0  0  0  0  0  0  0
   45.8297   33.9501   43.8921 C   0  0  0  0  0  0  0  0  0  0  0  0
   45.2246   34.2244   45.0732 N   0  0  0  0  0  0  0  0  0  0  0  0
   44.6484   35.4419   45.3116 C   0  0  0  0  0  0  0  0  0  0  0  0
   44.6836   36.3687   44.3695 N   0  0  0  0  0  0  0  0  0  0  0  0
   46.4460   32.6572   43.6282 C   0  0  0  0  0  0  0  0  0  0  0  0
   45.6673   31.5748   43.2964 C   0  0  0  0  0  0  0  0  0  0  0  0
   46.2828   30.3680   43.0535 C   0  0  0  0  0  0  0  0  0  0  0  0
   47.6553   30.1834   43.1259 C   0  0  0  0  0  0  0  0  0  0  0  0
   48.3753   31.3048   43.4623 C   0  0  0  0  0  0  0  0  0  0  0  0
   47.7637   32.4864   43.6993 N   0  0  0  0  0  0  0  0  0  0  0  0
   46.4930   34.6838   41.6389 C   0  0  0  0  0  0  0  0  0  0  0  0
   47.6631   35.1368   41.4796 O   0  0  0  0  0  0  0  0  0  0  0  0
   45.2790   36.9478   42.4206 H   0  0  0  0  0  0  0  0  0  0  0  0
   44.1785   35.6106   46.2698 H   0  0  0  0  0  0  0  0  0  0  0  0
   44.6118   31.6584   43.2264 H   0  0  0  0  0  0  0  0  0  0  0  0
   45.6691   29.4934   42.7867 H   0  0  0  0  0  0  0  0  0  0  0  0
   48.1566   29.2590   42.9424 H   0  0  0  0  0  0  0  0  0  0  0  0
   49.4480   31.2476   43.5402 H   0  0  0  0  0  0  0  0  0  0  0  0
   49.1033   29.8251   38.4498 C   0  0  0  0  0  0  0  0  0  0  0  0
   48.4334   29.1717   37.8163 H   0  0  0  0  0  0  0  0  0  0  0  0
   48.3680   30.8378   39.2120 C   0  0  0  0  0  0  0  0  0  0  0  0
   47.7297   31.7423   38.5105 C   0  0  0  0  0  0  0  0  0  0  0  0
   47.7552   31.7343   37.0520 C   0  0  0  0  0  0  0  0  0  0  0  0
   48.3411   30.9298   36.2866 O   0  0  0  0  0  0  0  0  0  0  0  0
   47.0965   32.6698   36.2697 O   0  0  0  0  0  0  0  0  0  0  0  0
   46.9831   32.7716   39.1465 N   0  0  0  0  0  0  0  0  0  0  0  0
   46.5130   34.1133   39.1935 C   0  0  0  0  0  0  0  0  0  0  0  0
   46.5782   35.1230   38.4262 O   0  0  0  0  0  0  0  0  0  0  0  0
   45.8797   33.9623   40.5034 C   0  0  1  0  0  0  0  0  0  0  0  0
   46.2563   32.5278   40.4027 C   0  0  2  0  0  0  0  0  0  0  0  0
   47.4477   31.9144   41.5793 S   0  0  0  0  0  0  0  0  0  0  0  0
   48.4257   30.7325   40.6664 C   0  0  2  0  0  0  0  0  0  0  0  0
   49.5000   30.9188   40.9627 H   0  0  0  0  0  0  0  0  0  0  0  0
   49.6407   29.0720   39.0862 H   0  0  0  0  0  0  0  0  0  0  0  0
   49.9489   30.2561   37.8359 H   0  0  0  0  0  0  0  0  0  0  0  0
   47.4177   33.0354   35.3880 H   0  0  0  0  0  0  0  0  0  0  0  0
   44.7617   34.1092   40.4782 H   0  0  0  0  0  0  0  0  0  0  0  0
   45.3756   31.8557   40.2676 H   0  0  0  0  0  0  0  0  0  0  0  0
   48.2102   29.7039   41.0230 H   0  0  0  0  0  0  0  0  0  0  0  0
  1  6  2  0
  2  1  1  0
  2  3  2  0
  3  4  1  0
  4  5  2  0
  6  5  1  0
  7 12  1  0
  7  3  1  0
  8  7  2  0
  9 10  2  0
  9  8  1  0
 10 11  1  0
 11 12  2  0
 13  2  1  0
 14 13  2  0
  1 15  1  0
  5 16  1  0
  8 17  1  0
  9 18  1  0
 10 19  1  0
 11 20  1  0
 21 22  1  0
 21 23  1  0
 23 24  2  0
 24 25  1  0
 25 26  2  0
 25 27  1  0
 24 28  1  0
 28 29  1  0
 29 30  2  0
 29 31  1  0
 31 32  1  0
 32 33  1  0
 33 34  1  0
 34 35  1  1
 34 23  1  0
 32 28  1  0
 21 36  1  0
 21 37  1  0
 27 38  1  0
 31 39  1  6
 32 40  1  6
 34 41  1  0
 13 31  1  0
M  ISO  8  15  14  16  14  17  14  18  14  19  14  20  14  22   8  35  15
M  END
>  <DihAtoms>  (1) 
1,12,30,28

>  <DihDeg>  (1) 
59.99719830353079

$$$$
