
 OpenBabel03242521193D

 45 48  0  0  1  0  0  0  0  0999 V2000
   39.1940   35.4770   40.5320 C   0  0  0  0  0  0  0  0  0  0  0  0
   38.8670   35.9750   41.4550 H   0  0  0  0  0  0  0  0  0  0  0  0
   38.4090   35.6000   39.7290 H   0  0  0  0  0  0  0  0  0  0  0  0
   38.3640   33.1710   40.1930 C   0  0  0  0  0  0  0  0  0  0  0  0
   37.4700   33.7350   39.5040 O   0  0  0  0  0  0  0  0  0  0  0  0
   39.3180   34.0430   40.7440 N   0  0  0  0  0  0  0  0  0  0  0  0
   40.1310   33.7110   41.3110 H   0  0  0  0  0  0  0  0  0  0  0  0
   37.0780   28.0760   41.0380 C   0  0  0  0  0  0  0  0  0  0  0  0
   37.5770   28.8520   41.9820 C   0  0  0  0  0  0  0  0  0  0  0  0
   37.9620   30.1830   41.6660 N   0  0  0  0  0  0  0  0  0  0  0  0
   38.8980   31.2560   41.7350 C   0  0  0  0  0  0  0  0  0  0  0  0
   39.7480   31.5880   42.6120 O   0  0  0  0  0  0  0  0  0  0  0  0
   38.4170   31.7230   40.4100 C   0  0  1  0  0  3  0  0  0  0  0  0
   37.1230   31.1030   40.8810 C   0  0  1  0  0  3  0  0  0  0  0  0
   36.2130   30.1730   39.6460 S   0  0  0  0  0  0  0  0  0  0  0  0
   36.8920   28.4930   39.6270 C   0  0  0  0  0  3  0  0  0  0  0  0
   37.8690   28.5380   39.0830 H   0  0  0  0  0  0  0  0  0  0  0  0
   36.6980   26.7210   41.4430 C   0  0  0  0  0  2  0  0  0  0  0  0
   37.5860   26.1700   41.7870 H   0  0  0  0  0  0  0  0  0  0  0  0
   37.7440   28.3880   43.3540 C   0  0  0  0  0  0  0  0  0  0  0  0
   38.6750   27.6780   43.8000 O   0  0  0  0  0  0  0  0  0  0  0  0
   36.9370   28.6140   44.4540 O   0  0  0  0  0  0  0  0  0  0  0  0
   37.2120   29.1460   45.2780 H   0  0  0  0  0  0  0  0  0  0  0  0
   40.5190   35.9760   40.0000 C   0  0  0  0  0  0  0  0  0  0  0  0
   40.4150   36.0920   38.9020 H   0  0  0  0  0  0  0  0  0  0  0  0
   40.7750   36.9730   40.4060 H   0  0  0  0  0  0  0  0  0  0  0  0
   43.2900   33.8800   41.4140 C   0  0  0  0  0  0  0  0  0  0  0  0
   43.4740   32.9800   40.3430 C   0  0  0  0  0  0  0  0  0  0  0  0
   42.6540   33.1410   39.2200 C   0  0  0  0  0  0  0  0  0  0  0  0
   41.7240   34.1540   39.2200 N   0  0  0  0  0  0  0  0  0  0  0  0
   41.5980   34.9800   40.2750 C   0  0  0  0  0  0  0  0  0  0  0  0
   42.3660   34.8630   41.3760 N   0  0  0  0  0  0  0  0  0  0  0  0
   43.8970   33.8030   42.3090 H   0  0  0  0  0  0  0  0  0  0  0  0
   44.2220   32.2120   40.4140 H   0  0  0  0  0  0  0  0  0  0  0  0
   42.8350   32.2360   38.1360 N   0  0  0  0  0  0  0  0  0  0  0  0
   41.9840   31.2060   38.0190 C   0  0  0  0  0  0  0  0  0  0  0  0
   42.1500   30.3200   36.9690 C   0  0  0  0  0  0  0  0  0  0  0  0
   43.1860   30.5420   36.0950 C   0  0  0  0  0  0  0  0  0  0  0  0
   43.3280   29.7150   35.1270 O   0  0  0  0  0  0  0  0  0  0  0  0
   44.0510   31.5740   36.1960 N   0  0  0  0  0  0  0  0  0  0  0  0
   43.8180   32.3890   37.2480 C   0  0  0  0  0  0  0  0  0  0  0  0
   44.5660   33.3840   37.4380 O   0  0  0  0  0  0  0  0  0  0  0  0
   41.1670   31.0360   38.7160 H   0  0  0  0  0  0  0  0  0  0  0  0
   41.4910   29.4620   36.8200 H   0  0  0  0  0  0  0  0  0  0  0  0
   44.8310   31.7180   35.5140 H   0  0  0  0  0  0  0  0  0  0  0  0
  1  6  1  0  0  0  0
  1  2  1  0  0  0  0
  3  1  1  0  0  0  0
  4  6  1  0  0  0  0
  5  4  2  0  0  0  0
  6  7  1  0  0  0  0
  8 18  1  0  0  0  0
  8  9  2  0  0  0  0
  9 20  1  0  0  0  0
 10 11  1  0  0  0  0
 10  9  1  0  0  0  0
 11 12  2  0  0  0  0
 13  4  1  1  0  0  0
 13 14  1  0  0  0  0
 13 11  1  0  0  0  0
 14 15  1  6  0  0  0
 14 10  1  0  0  0  0
 16 15  1  0  0  0  0
 16  8  1  0  0  0  0
 17 16  1  0  0  0  0
 18 19  1  0  0  0  0
 20 21  2  0  0  0  0
 20 22  1  0  0  0  0
 22 23  1  0  0  0  0
 24 31  1  0  0  0  0
 24 26  1  0  0  0  0
 24  1  1  0  0  0  0
 25 24  1  0  0  0  0
 27 33  1  0  0  0  0
 28 34  1  0  0  0  0
 28 27  2  0  0  0  0
 29 28  1  0  0  0  0
 30 29  2  0  0  0  0
 30 31  1  0  0  0  0
 31 32  2  0  0  0  0
 32 27  1  0  0  0  0
 35 29  1  0  0  0  0
 36 35  1  0  0  0  0
 36 43  1  0  0  0  0
 37 36  2  0  0  0  0
 38 40  1  0  0  0  0
 38 37  1  0  0  0  0
 39 38  2  0  0  0  0
 40 41  1  0  0  0  0
 41 42  2  0  0  0  0
 41 35  1  0  0  0  0
 44 37  1  0  0  0  0
 45 40  1  0  0  0  0
M  END
>  <minimizedAffinity>
-7.04459429

$$$$

 OpenBabel03242521193D

 45 48  0  0  1  0  0  0  0  0999 V2000
   38.7580   35.4800   40.1270 C   0  0  0  0  0  0  0  0  0  0  0  0
   38.0220   35.8520   40.8530 H   0  0  0  0  0  0  0  0  0  0  0  0
   38.3480   35.5760   39.0790 H   0  0  0  0  0  0  0  0  0  0  0  0
   38.0520   33.1220   39.8730 C   0  0  0  0  0  0  0  0  0  0  0  0
   37.0590   33.6220   39.2760 O   0  0  0  0  0  0  0  0  0  0  0  0
   38.9970   34.0590   40.3260 N   0  0  0  0  0  0  0  0  0  0  0  0
   39.8820   33.7840   40.8100 H   0  0  0  0  0  0  0  0  0  0  0  0
   37.2000   27.9650   40.8760 C   0  0  0  0  0  0  0  0  0  0  0  0
   37.7590   28.7800   41.7510 C   0  0  0  0  0  0  0  0  0  0  0  0
   38.0190   30.1290   41.3890 N   0  0  0  0  0  0  0  0  0  0  0  0
   38.8870   31.2590   41.3420 C   0  0  0  0  0  0  0  0  0  0  0  0
   39.8150   31.6500   42.1100 O   0  0  0  0  0  0  0  0  0  0  0  0
   38.2220   31.6830   40.0840 C   0  0  1  0  0  3  0  0  0  0  0  0
   37.0360   30.9880   40.7090 C   0  0  1  0  0  3  0  0  0  0  0  0
   36.0430   29.9920   39.5950 S   0  0  0  0  0  0  0  0  0  0  0  0
   36.8190   28.3570   39.4970 C   0  0  0  0  0  3  0  0  0  0  0  0
   37.7190   28.4570   38.8380 H   0  0  0  0  0  0  0  0  0  0  0  0
   36.9570   26.5930   41.3260 C   0  0  0  0  0  2  0  0  0  0  0  0
   37.9130   26.1010   41.5600 H   0  0  0  0  0  0  0  0  0  0  0  0
   38.1190   28.3390   43.0930 C   0  0  0  0  0  0  0  0  0  0  0  0
   39.2270   27.8870   43.4650 O   0  0  0  0  0  0  0  0  0  0  0  0
   37.3450   28.3150   44.2390 O   0  0  0  0  0  0  0  0  0  0  0  0
   37.5180   28.8790   45.0700 H   0  0  0  0  0  0  0  0  0  0  0  0
   40.0960   36.1810   40.1940 C   0  0  0  0  0  0  0  0  0  0  0  0
   40.0880   36.9880   39.4330 H   0  0  0  0  0  0  0  0  0  0  0  0
   40.2570   36.6670   41.1750 H   0  0  0  0  0  0  0  0  0  0  0  0
   42.6390   33.9370   38.5900 C   0  0  0  0  0  0  0  0  0  0  0  0
   43.2830   33.4490   39.7460 C   0  0  0  0  0  0  0  0  0  0  0  0
   42.8180   33.9080   40.9840 C   0  0  0  0  0  0  0  0  0  0  0  0
   41.7710   34.7990   41.0080 N   0  0  0  0  0  0  0  0  0  0  0  0
   41.1990   35.2280   39.8680 C   0  0  0  0  0  0  0  0  0  0  0  0
   41.6140   34.8120   38.6550 N   0  0  0  0  0  0  0  0  0  0  0  0
   42.9570   33.6160   37.6050 H   0  0  0  0  0  0  0  0  0  0  0  0
   44.0970   32.7530   39.6510 H   0  0  0  0  0  0  0  0  0  0  0  0
   43.4650   33.4190   42.1540 N   0  0  0  0  0  0  0  0  0  0  0  0
   43.2720   32.1370   42.4990 C   0  0  0  0  0  0  0  0  0  0  0  0
   43.8960   31.6520   43.6350 C   0  0  0  0  0  0  0  0  0  0  0  0
   44.6860   32.5130   44.3560 C   0  0  0  0  0  0  0  0  0  0  0  0
   45.2580   32.0500   45.4050 O   0  0  0  0  0  0  0  0  0  0  0  0
   44.8920   33.8060   44.0240 N   0  0  0  0  0  0  0  0  0  0  0  0
   44.2470   34.1970   42.9040 C   0  0  0  0  0  0  0  0  0  0  0  0
   44.3680   35.3850   42.5020 O   0  0  0  0  0  0  0  0  0  0  0  0
   42.6450   31.4610   41.9240 H   0  0  0  0  0  0  0  0  0  0  0  0
   43.7790   30.6180   43.9680 H   0  0  0  0  0  0  0  0  0  0  0  0
   45.4990   34.4390   44.5930 H   0  0  0  0  0  0  0  0  0  0  0  0
  1 24  1  0  0  0  0
  1  6  1  0  0  0  0
  1  2  1  0  0  0  0
  3  1  1  0  0  0  0
  4  6  1  0  0  0  0
  5  4  2  0  0  0  0
  6  7  1  0  0  0  0
  8 18  1  0  0  0  0
  8  9  2  0  0  0  0
  9 20  1  0  0  0  0
 10  9  1  0  0  0  0
 11 10  1  0  0  0  0
 11 12  2  0  0  0  0
 13  4  1  1  0  0  0
 13 14  1  0  0  0  0
 13 11  1  0  0  0  0
 14 15  1  6  0  0  0
 14 10  1  0  0  0  0
 16 15  1  0  0  0  0
 16  8  1  0  0  0  0
 17 16  1  0  0  0  0
 18 19  1  0  0  0  0
 20 21  2  0  0  0  0
 20 22  1  0  0  0  0
 22 23  1  0  0  0  0
 24 26  1  0  0  0  0
 25 24  1  0  0  0  0
 27 32  2  0  0  0  0
 27 28  1  0  0  0  0
 28 29  2  0  0  0  0
 29 30  1  0  0  0  0
 29 35  1  0  0  0  0
 31 24  1  0  0  0  0
 31 30  2  0  0  0  0
 32 31  1  0  0  0  0
 33 27  1  0  0  0  0
 34 28  1  0  0  0  0
 35 36  1  0  0  0  0
 35 41  1  0  0  0  0
 36 37  2  0  0  0  0
 37 44  1  0  0  0  0
 37 38  1  0  0  0  0
 38 39  2  0  0  0  0
 40 38  1  0  0  0  0
 40 45  1  0  0  0  0
 41 40  1  0  0  0  0
 42 41  2  0  0  0  0
 43 36  1  0  0  0  0
M  END
>  <minimizedAffinity>
-6.83888054

$$$$

 OpenBabel03242521193D

 45 48  0  0  1  0  0  0  0  0999 V2000
   36.3460   27.9530   39.3470 C   0  0  0  0  0  0  0  0  0  0  0  0
   36.1610   27.8110   38.2730 H   0  0  0  0  0  0  0  0  0  0  0  0
   35.4370   28.4110   39.8360 H   0  0  0  0  0  0  0  0  0  0  0  0
   37.1420   30.1820   40.0670 C   0  0  0  0  0  0  0  0  0  0  0  0
   35.9270   30.3800   40.3450 O   0  0  0  0  0  0  0  0  0  0  0  0
   37.4270   28.9050   39.5560 N   0  0  0  0  0  0  0  0  0  0  0  0
   38.3940   28.5930   39.3120 H   0  0  0  0  0  0  0  0  0  0  0  0
   40.1240   34.5790   39.7410 C   0  0  0  0  0  0  0  0  0  0  0  0
   40.4800   33.4330   39.1910 C   0  0  0  0  0  0  0  0  0  0  0  0
   39.6670   32.2820   39.3770 N   0  0  0  0  0  0  0  0  0  0  0  0
   39.5240   30.8980   39.6880 C   0  0  0  0  0  0  0  0  0  0  0  0
   40.2860   29.9040   39.5080 O   0  0  0  0  0  0  0  0  0  0  0  0
   38.1850   31.1930   40.2580 C   0  0  1  0  0  3  0  0  0  0  0  0
   38.2040   32.2920   39.2220 C   0  0  1  0  0  3  0  0  0  0  0  0
   37.5570   33.8760   39.7580 S   0  0  0  0  0  0  0  0  0  0  0  0
   38.9110   34.7640   40.5730 C   0  0  0  0  0  3  0  0  0  0  0  0
   39.0400   34.3090   41.5880 H   0  0  0  0  0  0  0  0  0  0  0  0
   41.0090   35.7200   39.4970 C   0  0  0  0  0  2  0  0  0  0  0  0
   42.0010   35.5250   39.9290 H   0  0  0  0  0  0  0  0  0  0  0  0
   41.6880   33.3070   38.3860 C   0  0  0  0  0  0  0  0  0  0  0  0
   42.8130   32.9140   38.7730 O   0  0  0  0  0  0  0  0  0  0  0  0
   41.8730   33.5840   37.0430 O   0  0  0  0  0  0  0  0  0  0  0  0
   42.0940   32.8900   36.3310 H   0  0  0  0  0  0  0  0  0  0  0  0
   36.7090   26.6820   40.0820 C   0  0  0  0  0  0  0  0  0  0  0  0
   35.7800   26.0880   40.1980 H   0  0  0  0  0  0  0  0  0  0  0  0
   37.4170   26.0610   39.5030 H   0  0  0  0  0  0  0  0  0  0  0  0
   37.2880   27.7810   43.6210 C   0  0  0  0  0  0  0  0  0  0  0  0
   38.6390   27.4010   43.7670 C   0  0  0  0  0  0  0  0  0  0  0  0
   39.2610   26.8020   42.6650 C   0  0  0  0  0  0  0  0  0  0  0  0
   38.5320   26.6180   41.5140 N   0  0  0  0  0  0  0  0  0  0  0  0
   37.2450   27.0030   41.4390 C   0  0  0  0  0  0  0  0  0  0  0  0
   36.6060   27.5830   42.4740 N   0  0  0  0  0  0  0  0  0  0  0  0
   36.7560   28.2490   44.4420 H   0  0  0  0  0  0  0  0  0  0  0  0
   39.1460   27.5760   44.6980 H   0  0  0  0  0  0  0  0  0  0  0  0
   40.6240   26.4160   42.8060 N   0  0  0  0  0  0  0  0  0  0  0  0
   41.5650   27.3690   42.7430 C   0  0  0  0  0  0  0  0  0  0  0  0
   42.8930   27.0050   42.8790 C   0  0  0  0  0  0  0  0  0  0  0  0
   43.1810   25.6770   43.0730 C   0  0  0  0  0  0  0  0  0  0  0  0
   44.4150   25.3540   43.1980 O   0  0  0  0  0  0  0  0  0  0  0  0
   42.2480   24.7040   43.1400 N   0  0  0  0  0  0  0  0  0  0  0  0
   40.9800   25.1450   42.9970 C   0  0  0  0  0  0  0  0  0  0  0  0
   40.0280   24.3200   43.0440 O   0  0  0  0  0  0  0  0  0  0  0  0
   41.3300   28.4190   42.5890 H   0  0  0  0  0  0  0  0  0  0  0  0
   43.7050   27.7340   42.8360 H   0  0  0  0  0  0  0  0  0  0  0  0
   42.4980   23.6990   43.2890 H   0  0  0  0  0  0  0  0  0  0  0  0
  1  6  1  0  0  0  0
  1  3  1  0  0  0  0
  1 24  1  0  0  0  0
  2  1  1  0  0  0  0
  4  5  2  0  0  0  0
  6  4  1  0  0  0  0
  7  6  1  0  0  0  0
  8 16  1  0  0  0  0
  9 10  1  0  0  0  0
  9  8  2  0  0  0  0
 10 11  1  0  0  0  0
 11 13  1  0  0  0  0
 12 11  2  0  0  0  0
 13  4  1  6  0  0  0
 14 10  1  0  0  0  0
 14 15  1  1  0  0  0
 14 13  1  0  0  0  0
 15 16  1  0  0  0  0
 16 17  1  0  0  0  0
 18  8  1  0  0  0  0
 18 19  1  0  0  0  0
 20 21  2  0  0  0  0
 20  9  1  0  0  0  0
 22 20  1  0  0  0  0
 23 22  1  0  0  0  0
 24 25  1  0  0  0  0
 24 31  1  0  0  0  0
 26 24  1  0  0  0  0
 27 28  1  0  0  0  0
 27 33  1  0  0  0  0
 28 34  1  0  0  0  0
 29 35  1  0  0  0  0
 29 28  2  0  0  0  0
 30 29  1  0  0  0  0
 31 30  2  0  0  0  0
 31 32  1  0  0  0  0
 32 27  2  0  0  0  0
 35 41  1  0  0  0  0
 36 35  1  0  0  0  0
 36 37  2  0  0  0  0
 37 38  1  0  0  0  0
 38 40  1  0  0  0  0
 38 39  2  0  0  0  0
 40 45  1  0  0  0  0
 41 42  2  0  0  0  0
 41 40  1  0  0  0  0
 43 36  1  0  0  0  0
 44 37  1  0  0  0  0
M  END
>  <minimizedAffinity>
-6.79518461

$$$$

 OpenBabel03242521193D

 45 48  0  0  1  0  0  0  0  0999 V2000
   40.7460   28.0730   36.7280 C   0  0  0  0  0  0  0  0  0  0  0  0
   41.7090   27.6440   37.0370 H   0  0  0  0  0  0  0  0  0  0  0  0
   40.7110   28.1700   35.6030 H   0  0  0  0  0  0  0  0  0  0  0  0
   41.6570   30.3430   37.1000 C   0  0  0  0  0  0  0  0  0  0  0  0
   42.6600   29.8990   36.4750 O   0  0  0  0  0  0  0  0  0  0  0  0
   40.6030   29.4260   37.2440 N   0  0  0  0  0  0  0  0  0  0  0  0
   39.6990   29.6680   37.7120 H   0  0  0  0  0  0  0  0  0  0  0  0
   41.8210   34.5970   40.2950 C   0  0  0  0  0  0  0  0  0  0  0  0
   40.6900   34.0250   39.9240 C   0  0  0  0  0  0  0  0  0  0  0  0
   40.7190   32.9350   39.0130 N   0  0  0  0  0  0  0  0  0  0  0  0
   40.2280   32.2720   37.8510 C   0  0  0  0  0  0  0  0  0  0  0  0
   39.0850   32.2440   37.3070 O   0  0  0  0  0  0  0  0  0  0  0  0
   41.5830   31.7040   37.6360 C   0  0  1  0  0  3  0  0  0  0  0  0
   41.6460   31.7990   39.1420 C   0  0  1  0  0  3  0  0  0  0  0  0
   43.2040   32.3730   39.8200 S   0  0  0  0  0  0  0  0  0  0  0  0
   43.1610   34.1850   39.8110 C   0  0  0  0  0  3  0  0  0  0  0  0
   43.3330   34.5140   38.7550 H   0  0  0  0  0  0  0  0  0  0  0  0
   41.7080   35.7090   41.2410 C   0  0  0  0  0  2  0  0  0  0  0  0
   41.1410   36.5330   40.7840 H   0  0  0  0  0  0  0  0  0  0  0  0
   39.3980   34.4760   40.4270 C   0  0  0  0  0  0  0  0  0  0  0  0
   38.6540   35.3460   39.9170 O   0  0  0  0  0  0  0  0  0  0  0  0
   38.7090   34.0620   41.5520 O   0  0  0  0  0  0  0  0  0  0  0  0
   37.8150   33.5740   41.5400 H   0  0  0  0  0  0  0  0  0  0  0  0
   39.5430   27.2800   37.1870 C   0  0  0  0  0  0  0  0  0  0  0  0
   39.1270   26.7620   36.3000 H   0  0  0  0  0  0  0  0  0  0  0  0
   39.8230   26.4940   37.9150 H   0  0  0  0  0  0  0  0  0  0  0  0
   36.8420   29.8120   37.7880 C   0  0  0  0  0  0  0  0  0  0  0  0
   36.6980   29.6750   39.1850 C   0  0  0  0  0  0  0  0  0  0  0  0
   37.5200   28.7420   39.8280 C   0  0  0  0  0  0  0  0  0  0  0  0
   38.4110   28.0160   39.0730 N   0  0  0  0  0  0  0  0  0  0  0  0
   38.4990   28.1930   37.7420 C   0  0  0  0  0  0  0  0  0  0  0  0
   37.7300   29.0810   37.0820 N   0  0  0  0  0  0  0  0  0  0  0  0
   36.2320   30.5200   37.2380 H   0  0  0  0  0  0  0  0  0  0  0  0
   35.9790   30.2770   39.7090 H   0  0  0  0  0  0  0  0  0  0  0  0
   37.3790   28.5990   41.2370 N   0  0  0  0  0  0  0  0  0  0  0  0
   36.6790   27.5550   41.7040 C   0  0  0  0  0  0  0  0  0  0  0  0
   36.5360   27.4060   43.0720 C   0  0  0  0  0  0  0  0  0  0  0  0
   37.1230   28.3430   43.8880 C   0  0  0  0  0  0  0  0  0  0  0  0
   36.9830   28.1930   45.1530 O   0  0  0  0  0  0  0  0  0  0  0  0
   37.8310   29.4000   43.4360 N   0  0  0  0  0  0  0  0  0  0  0  0
   37.9210   29.4700   42.0900 C   0  0  0  0  0  0  0  0  0  0  0  0
   38.5600   30.4170   41.5600 O   0  0  0  0  0  0  0  0  0  0  0  0
   36.2170   26.8170   41.0520 H   0  0  0  0  0  0  0  0  0  0  0  0
   35.9790   26.5780   43.5140 H   0  0  0  0  0  0  0  0  0  0  0  0
   38.2670   30.0980   44.0820 H   0  0  0  0  0  0  0  0  0  0  0  0
  1  2  1  0  0  0  0
  1 24  1  0  0  0  0
  1  6  1  0  0  0  0
  3  1  1  0  0  0  0
  4  6  1  0  0  0  0
  5  4  2  0  0  0  0
  6  7  1  0  0  0  0
  8 18  1  0  0  0  0
  9  8  2  0  0  0  0
  9 20  1  0  0  0  0
 10 14  1  0  0  0  0
 10  9  1  0  0  0  0
 11 10  1  0  0  0  0
 12 11  2  0  0  0  0
 13  4  1  1  0  0  0
 13 11  1  0  0  0  0
 13 14  1  0  0  0  0
 14 15  1  6  0  0  0
 16 15  1  0  0  0  0
 16  8  1  0  0  0  0
 17 16  1  0  0  0  0
 19 18  1  0  0  0  0
 20 22  1  0  0  0  0
 21 20  2  0  0  0  0
 23 22  1  0  0  0  0
 24 31  1  0  0  0  0
 24 26  1  0  0  0  0
 25 24  1  0  0  0  0
 27 28  1  0  0  0  0
 28 34  1  0  0  0  0
 28 29  2  0  0  0  0
 29 35  1  0  0  0  0
 30 29  1  0  0  0  0
 31 30  2  0  0  0  0
 32 31  1  0  0  0  0
 32 27  2  0  0  0  0
 33 27  1  0  0  0  0
 35 36  1  0  0  0  0
 35 41  1  0  0  0  0
 36 37  2  0  0  0  0
 37 44  1  0  0  0  0
 37 38  1  0  0  0  0
 38 39  2  0  0  0  0
 40 38  1  0  0  0  0
 40 45  1  0  0  0  0
 41 40  1  0  0  0  0
 42 41  2  0  0  0  0
 43 36  1  0  0  0  0
M  END
>  <minimizedAffinity>
-6.67592764

$$$$

 OpenBabel03242521193D

 45 48  0  0  1  0  0  0  0  0999 V2000
   37.6420   32.1280   37.9650 C   0  0  0  0  0  0  0  0  0  0  0  0
   37.5490   32.9470   37.2380 H   0  0  0  0  0  0  0  0  0  0  0  0
   36.7630   32.1420   38.6740 H   0  0  0  0  0  0  0  0  0  0  0  0
   38.8140   33.2910   39.8070 C   0  0  0  0  0  0  0  0  0  0  0  0
   37.7230   33.9150   39.9300 O   0  0  0  0  0  0  0  0  0  0  0  0
   38.8210   32.3160   38.7950 N   0  0  0  0  0  0  0  0  0  0  0  0
   39.6460   31.7030   38.6030 H   0  0  0  0  0  0  0  0  0  0  0  0
   43.3070   35.2970   41.8350 C   0  0  0  0  0  0  0  0  0  0  0  0
   43.2690   34.1530   41.1790 C   0  0  0  0  0  0  0  0  0  0  0  0
   42.0210   33.6440   40.7250 N   0  0  0  0  0  0  0  0  0  0  0  0
   41.0970   32.5690   40.5750 C   0  0  0  0  0  0  0  0  0  0  0  0
   41.2600   31.3210   40.4430 O   0  0  0  0  0  0  0  0  0  0  0  0
   39.9860   33.5510   40.6450 C   0  0  1  0  0  3  0  0  0  0  0  0
   41.0180   34.4660   40.0300 C   0  0  1  0  0  3  0  0  0  0  0  0
   41.0610   36.1370   40.6800 S   0  0  0  0  0  0  0  0  0  0  0  0
   42.1120   36.1150   42.1560 C   0  0  0  0  0  3  0  0  0  0  0  0
   41.5120   35.6540   42.9810 H   0  0  0  0  0  0  0  0  0  0  0  0
   44.6290   35.7580   42.2630 C   0  0  0  0  0  2  0  0  0  0  0  0
   45.0650   35.0400   42.9730 H   0  0  0  0  0  0  0  0  0  0  0  0
   44.4760   33.3860   40.8960 C   0  0  0  0  0  0  0  0  0  0  0  0
   45.1740   33.4380   39.8570 O   0  0  0  0  0  0  0  0  0  0  0  0
   45.1150   32.4470   41.6850 O   0  0  0  0  0  0  0  0  0  0  0  0
   46.0470   32.5570   42.0810 H   0  0  0  0  0  0  0  0  0  0  0  0
   37.7410   30.7560   37.3360 C   0  0  0  0  0  0  0  0  0  0  0  0
   36.7160   30.3340   37.2940 H   0  0  0  0  0  0  0  0  0  0  0  0
   38.1100   30.8070   36.2940 H   0  0  0  0  0  0  0  0  0  0  0  0
   40.3880   28.5300   38.7870 C   0  0  0  0  0  0  0  0  0  0  0  0
   39.8050   28.2580   40.0430 C   0  0  0  0  0  0  0  0  0  0  0  0
   38.5610   28.8410   40.3140 C   0  0  0  0  0  0  0  0  0  0  0  0
   37.9820   29.6390   39.3550 N   0  0  0  0  0  0  0  0  0  0  0  0
   38.5920   29.8600   38.1750 C   0  0  0  0  0  0  0  0  0  0  0  0
   39.7880   29.3190   37.8710 N   0  0  0  0  0  0  0  0  0  0  0  0
   41.3500   28.1050   38.5230 H   0  0  0  0  0  0  0  0  0  0  0  0
   40.3160   27.6240   40.7440 H   0  0  0  0  0  0  0  0  0  0  0  0
   37.9680   28.5710   41.5790 N   0  0  0  0  0  0  0  0  0  0  0  0
   37.3180   27.4090   41.7410 C   0  0  0  0  0  0  0  0  0  0  0  0
   36.7370   27.1360   42.9670 C   0  0  0  0  0  0  0  0  0  0  0  0
   36.8560   28.0760   43.9610 C   0  0  0  0  0  0  0  0  0  0  0  0
   36.3140   27.8100   45.0920 O   0  0  0  0  0  0  0  0  0  0  0  0
   37.5060   29.2510   43.8160 N   0  0  0  0  0  0  0  0  0  0  0  0
   38.0420   29.4370   42.5910 C   0  0  0  0  0  0  0  0  0  0  0  0
   38.6720   30.5000   42.3450 O   0  0  0  0  0  0  0  0  0  0  0  0
   37.2280   26.6700   40.9500 H   0  0  0  0  0  0  0  0  0  0  0  0
   36.1960   26.2080   43.1620 H   0  0  0  0  0  0  0  0  0  0  0  0
   37.5800   29.9480   44.5920 H   0  0  0  0  0  0  0  0  0  0  0  0
  1  3  1  0  0  0  0
  1  6  1  0  0  0  0
  2  1  1  0  0  0  0
  4  5  2  0  0  0  0
  6  4  1  0  0  0  0
  7  6  1  0  0  0  0
  8 16  1  0  0  0  0
  8 18  1  0  0  0  0
  9  8  2  0  0  0  0
 10  9  1  0  0  0  0
 11 13  1  0  0  0  0
 11 10  1  0  0  0  0
 12 11  2  0  0  0  0
 13  4  1  6  0  0  0
 14 13  1  0  0  0  0
 14 15  1  1  0  0  0
 14 10  1  0  0  0  0
 15 16  1  0  0  0  0
 16 17  1  0  0  0  0
 18 19  1  0  0  0  0
 20  9  1  0  0  0  0
 20 22  1  0  0  0  0
 21 20  2  0  0  0  0
 22 23  1  0  0  0  0
 24  1  1  0  0  0  0
 24 31  1  0  0  0  0
 25 24  1  0  0  0  0
 26 24  1  0  0  0  0
 27 28  1  0  0  0  0
 28 29  2  0  0  0  0
 28 34  1  0  0  0  0
 29 35  1  0  0  0  0
 30 29  1  0  0  0  0
 31 30  2  0  0  0  0
 32 31  1  0  0  0  0
 32 27  2  0  0  0  0
 33 27  1  0  0  0  0
 35 36  1  0  0  0  0
 35 41  1  0  0  0  0
 36 37  2  0  0  0  0
 37 44  1  0  0  0  0
 37 38  1  0  0  0  0
 38 39  2  0  0  0  0
 40 38  1  0  0  0  0
 40 45  1  0  0  0  0
 41 40  1  0  0  0  0
 42 41  2  0  0  0  0
 43 36  1  0  0  0  0
M  END
>  <minimizedAffinity>
-6.61375856

$$$$

 OpenBabel03242521193D

 45 48  0  0  1  0  0  0  0  0999 V2000
   40.0390   30.5830   41.6050 C   0  0  0  0  0  0  0  0  0  0  0  0
   39.6870   31.4150   42.2290 H   0  0  0  0  0  0  0  0  0  0  0  0
   40.9750   30.8870   41.0510 H   0  0  0  0  0  0  0  0  0  0  0  0
   38.0770   31.2120   40.2350 C   0  0  0  0  0  0  0  0  0  0  0  0
   38.1640   32.3090   40.8530 O   0  0  0  0  0  0  0  0  0  0  0  0
   39.0600   30.2670   40.5770 N   0  0  0  0  0  0  0  0  0  0  0  0
   39.1270   29.3280   40.1210 H   0  0  0  0  0  0  0  0  0  0  0  0
   34.6160   28.7900   36.9980 C   0  0  0  0  0  0  0  0  0  0  0  0
   35.7510   29.3090   36.5690 C   0  0  0  0  0  0  0  0  0  0  0  0
   36.5950   30.0020   37.4790 N   0  0  0  0  0  0  0  0  0  0  0  0
   37.4090   31.1240   37.8110 C   0  0  0  0  0  0  0  0  0  0  0  0
   38.1180   31.8990   37.1040 O   0  0  0  0  0  0  0  0  0  0  0  0
   37.0420   30.9330   39.2370 C   0  0  1  0  0  3  0  0  0  0  0  0
   36.9420   29.4870   38.8130 C   0  0  1  0  0  3  0  0  0  0  0  0
   35.5480   28.5760   39.4820 S   0  0  0  0  0  0  0  0  0  0  0  0
   34.1300   28.8860   38.3960 C   0  0  0  0  0  3  0  0  0  0  0  0
   33.7550   29.9150   38.6280 H   0  0  0  0  0  0  0  0  0  0  0  0
   33.8050   28.0850   36.0030 C   0  0  0  0  0  2  0  0  0  0  0  0
   33.4870   28.7850   35.2150 H   0  0  0  0  0  0  0  0  0  0  0  0
   36.1760   29.1910   35.1800 C   0  0  0  0  0  0  0  0  0  0  0  0
   35.9060   29.9740   34.2400 O   0  0  0  0  0  0  0  0  0  0  0  0
   36.9560   28.2130   34.5890 O   0  0  0  0  0  0  0  0  0  0  0  0
   37.8810   28.3680   34.1900 H   0  0  0  0  0  0  0  0  0  0  0  0
   40.3180   29.3110   42.3750 C   0  0  0  0  0  0  0  0  0  0  0  0
   40.9110   28.6460   41.7160 H   0  0  0  0  0  0  0  0  0  0  0  0
   40.9330   29.5030   43.2750 H   0  0  0  0  0  0  0  0  0  0  0  0
   36.9690   28.2660   43.7010 C   0  0  0  0  0  0  0  0  0  0  0  0
   36.8510   27.0070   43.0760 C   0  0  0  0  0  0  0  0  0  0  0  0
   37.9060   26.5970   42.2520 C   0  0  0  0  0  0  0  0  0  0  0  0
   38.9870   27.4320   42.0970 N   0  0  0  0  0  0  0  0  0  0  0  0
   39.0380   28.6230   42.7220 C   0  0  0  0  0  0  0  0  0  0  0  0
   38.0470   29.0580   43.5250 N   0  0  0  0  0  0  0  0  0  0  0  0
   36.1820   28.6340   44.3500 H   0  0  0  0  0  0  0  0  0  0  0  0
   35.9750   26.4070   43.2430 H   0  0  0  0  0  0  0  0  0  0  0  0
   37.7920   25.3270   41.6170 N   0  0  0  0  0  0  0  0  0  0  0  0
   36.9550   25.2090   40.5770 C   0  0  0  0  0  0  0  0  0  0  0  0
   36.8370   23.9800   39.9520 C   0  0  0  0  0  0  0  0  0  0  0  0
   37.5890   22.9360   40.4350 C   0  0  0  0  0  0  0  0  0  0  0  0
   37.4700   21.8040   39.8470 O   0  0  0  0  0  0  0  0  0  0  0  0
   38.4370   23.0370   41.4800 N   0  0  0  0  0  0  0  0  0  0  0  0
   38.4910   24.2690   42.0300 C   0  0  0  0  0  0  0  0  0  0  0  0
   39.2520   24.4760   43.0140 O   0  0  0  0  0  0  0  0  0  0  0  0
   36.3620   26.0390   40.2010 H   0  0  0  0  0  0  0  0  0  0  0  0
   36.1730   23.8190   39.1010 H   0  0  0  0  0  0  0  0  0  0  0  0
   38.9970   22.2240   41.8250 H   0  0  0  0  0  0  0  0  0  0  0  0
  1  2  1  0  0  0  0
  1 24  1  0  0  0  0
  3  1  1  0  0  0  0
  4  6  1  0  0  0  0
  4  5  2  0  0  0  0
  6  1  1  0  0  0  0
  7  6  1  0  0  0  0
  8 16  1  0  0  0  0
  9  8  2  0  0  0  0
  9 10  1  0  0  0  0
 10 11  1  0  0  0  0
 10 14  1  0  0  0  0
 11 13  1  0  0  0  0
 12 11  2  0  0  0  0
 13  4  1  1  0  0  0
 14 13  1  0  0  0  0
 14 15  1  1  0  0  0
 16 17  1  0  0  0  0
 16 15  1  0  0  0  0
 18  8  1  0  0  0  0
 19 18  1  0  0  0  0
 20  9  1  0  0  0  0
 21 20  2  0  0  0  0
 22 20  1  0  0  0  0
 23 22  1  0  0  0  0
 24 31  1  0  0  0  0
 24 26  1  0  0  0  0
 25 24  1  0  0  0  0
 27 33  1  0  0  0  0
 28 34  1  0  0  0  0
 28 27  2  0  0  0  0
 29 28  1  0  0  0  0
 30 29  2  0  0  0  0
 30 31  1  0  0  0  0
 31 32  2  0  0  0  0
 32 27  1  0  0  0  0
 35 41  1  0  0  0  0
 35 29  1  0  0  0  0
 36 35  1  0  0  0  0
 37 38  1  0  0  0  0
 37 36  2  0  0  0  0
 38 40  1  0  0  0  0
 39 38  2  0  0  0  0
 40 45  1  0  0  0  0
 40 41  1  0  0  0  0
 41 42  2  0  0  0  0
 43 36  1  0  0  0  0
 44 37  1  0  0  0  0
M  END
>  <minimizedAffinity>
-6.5686512

$$$$

 OpenBabel03242521193D

 45 48  0  0  1  0  0  0  0  0999 V2000
   38.8780   35.3620   40.1310 C   0  0  0  0  0  0  0  0  0  0  0  0
   38.0590   36.0010   40.4900 H   0  0  0  0  0  0  0  0  0  0  0  0
   38.6260   34.9540   39.1080 H   0  0  0  0  0  0  0  0  0  0  0  0
   38.5610   32.9460   40.5620 C   0  0  0  0  0  0  0  0  0  0  0  0
   38.0610   32.9400   39.4030 O   0  0  0  0  0  0  0  0  0  0  0  0
   39.0310   34.1990   40.9910 N   0  0  0  0  0  0  0  0  0  0  0  0
   39.4960   34.3450   41.9160 H   0  0  0  0  0  0  0  0  0  0  0  0
   39.8580   28.1910   42.5710 C   0  0  0  0  0  0  0  0  0  0  0  0
   38.7130   28.4180   41.9550 C   0  0  0  0  0  0  0  0  0  0  0  0
   38.4050   29.7300   41.5050 N   0  0  0  0  0  0  0  0  0  0  0  0
   37.4950   30.8210   41.3820 C   0  0  0  0  0  0  0  0  0  0  0  0
   36.2330   30.8690   41.2960 O   0  0  0  0  0  0  0  0  0  0  0  0
   38.6520   31.7520   41.4040 C   0  0  1  0  0  3  0  0  0  0  0  0
   39.3570   30.5770   40.7690 C   0  0  1  0  0  3  0  0  0  0  0  0
   41.0200   30.2580   41.3600 S   0  0  0  0  0  0  0  0  0  0  0  0
   40.8760   29.2340   42.8480 C   0  0  0  0  0  3  0  0  0  0  0  0
   40.5530   29.9070   43.6820 H   0  0  0  0  0  0  0  0  0  0  0  0
   40.1070   26.8130   42.9970 C   0  0  0  0  0  2  0  0  0  0  0  0
   39.3520   26.5080   43.7380 H   0  0  0  0  0  0  0  0  0  0  0  0
   37.7450   27.3550   41.7130 C   0  0  0  0  0  0  0  0  0  0  0  0
   37.6190   26.6740   40.6690 O   0  0  0  0  0  0  0  0  0  0  0  0
   36.7640   26.8640   42.5560 O   0  0  0  0  0  0  0  0  0  0  0  0
   36.7460   25.9190   42.9390 H   0  0  0  0  0  0  0  0  0  0  0  0
   40.2180   36.0600   40.0630 C   0  0  0  0  0  0  0  0  0  0  0  0
   40.3420   36.4420   39.0300 H   0  0  0  0  0  0  0  0  0  0  0  0
   40.2590   36.9360   40.7370 H   0  0  0  0  0  0  0  0  0  0  0  0
   43.0210   34.0360   41.5170 C   0  0  0  0  0  0  0  0  0  0  0  0
   43.2570   33.1540   40.4410 C   0  0  0  0  0  0  0  0  0  0  0  0
   42.4580   33.3020   39.3010 C   0  0  0  0  0  0  0  0  0  0  0  0
   41.4970   34.2850   39.2910 N   0  0  0  0  0  0  0  0  0  0  0  0
   41.3210   35.0940   40.3520 C   0  0  0  0  0  0  0  0  0  0  0  0
   42.0670   34.9890   41.4690 N   0  0  0  0  0  0  0  0  0  0  0  0
   43.6100   33.9670   42.4250 H   0  0  0  0  0  0  0  0  0  0  0  0
   44.0270   32.4080   40.5200 H   0  0  0  0  0  0  0  0  0  0  0  0
   42.6910   32.4150   38.2120 N   0  0  0  0  0  0  0  0  0  0  0  0
   41.8300   31.4060   38.0190 C   0  0  0  0  0  0  0  0  0  0  0  0
   42.0470   30.5380   36.9630 C   0  0  0  0  0  0  0  0  0  0  0  0
   43.1420   30.7560   36.1630 C   0  0  0  0  0  0  0  0  0  0  0  0
   43.3300   29.9450   35.1880 O   0  0  0  0  0  0  0  0  0  0  0  0
   44.0190   31.7670   36.3420 N   0  0  0  0  0  0  0  0  0  0  0  0
   43.7330   32.5650   37.3930 C   0  0  0  0  0  0  0  0  0  0  0  0
   44.4870   33.5410   37.6530 O   0  0  0  0  0  0  0  0  0  0  0  0
   40.9660   31.2390   38.6560 H   0  0  0  0  0  0  0  0  0  0  0  0
   41.3820   29.6970   36.7530 H   0  0  0  0  0  0  0  0  0  0  0  0
   44.8440   31.9080   35.7150 H   0  0  0  0  0  0  0  0  0  0  0  0
  1  2  1  0  0  0  0
  1  6  1  0  0  0  0
  3  1  1  0  0  0  0
  4  6  1  0  0  0  0
  5  4  2  0  0  0  0
  6  7  1  0  0  0  0
  8 16  1  0  0  0  0
  8 18  1  0  0  0  0
  9  8  2  0  0  0  0
 10  9  1  0  0  0  0
 11 13  1  0  0  0  0
 11 10  1  0  0  0  0
 12 11  2  0  0  0  0
 13  4  1  6  0  0  0
 14 15  1  1  0  0  0
 14 13  1  0  0  0  0
 14 10  1  0  0  0  0
 15 16  1  0  0  0  0
 16 17  1  0  0  0  0
 18 19  1  0  0  0  0
 20  9  1  0  0  0  0
 20 22  1  0  0  0  0
 21 20  2  0  0  0  0
 22 23  1  0  0  0  0
 24  1  1  0  0  0  0
 24 31  1  0  0  0  0
 24 26  1  0  0  0  0
 25 24  1  0  0  0  0
 27 33  1  0  0  0  0
 28 34  1  0  0  0  0
 28 27  2  0  0  0  0
 29 28  1  0  0  0  0
 30 29  2  0  0  0  0
 30 31  1  0  0  0  0
 31 32  2  0  0  0  0
 32 27  1  0  0  0  0
 35 29  1  0  0  0  0
 36 35  1  0  0  0  0
 36 43  1  0  0  0  0
 37 36  2  0  0  0  0
 38 40  1  0  0  0  0
 38 37  1  0  0  0  0
 39 38  2  0  0  0  0
 40 41  1  0  0  0  0
 41 42  2  0  0  0  0
 41 35  1  0  0  0  0
 44 37  1  0  0  0  0
 45 40  1  0  0  0  0
M  END
>  <minimizedAffinity>
-6.54310417

$$$$

 OpenBabel03242521193D

 45 48  0  0  1  0  0  0  0  0999 V2000
   36.2800   28.0480   41.6640 C   0  0  0  0  0  0  0  0  0  0  0  0
   35.2900   28.5220   41.7040 H   0  0  0  0  0  0  0  0  0  0  0  0
   36.4340   27.4000   42.5770 H   0  0  0  0  0  0  0  0  0  0  0  0
   37.0730   30.3550   41.2470 C   0  0  0  0  0  0  0  0  0  0  0  0
   35.8930   30.5450   40.8400 O   0  0  0  0  0  0  0  0  0  0  0  0
   37.3290   29.0550   41.7170 N   0  0  0  0  0  0  0  0  0  0  0  0
   38.2530   28.7660   42.1120 H   0  0  0  0  0  0  0  0  0  0  0  0
   40.2110   34.4320   39.8870 C   0  0  0  0  0  0  0  0  0  0  0  0
   40.6130   33.1750   39.8410 C   0  0  0  0  0  0  0  0  0  0  0  0
   39.7440   32.1430   40.2850 N   0  0  0  0  0  0  0  0  0  0  0  0
   39.5060   30.9540   41.0350 C   0  0  0  0  0  0  0  0  0  0  0  0
   40.2540   29.9810   41.3440 O   0  0  0  0  0  0  0  0  0  0  0  0
   38.1030   31.3950   41.2380 C   0  0  1  0  0  3  0  0  0  0  0  0
   38.3260   32.0580   39.9000 C   0  0  1  0  0  3  0  0  0  0  0  0
   37.6530   33.7130   39.7310 S   0  0  0  0  0  0  0  0  0  0  0  0
   38.8860   34.8660   40.3910 C   0  0  0  0  0  3  0  0  0  0  0  0
   38.8330   34.8020   41.5070 H   0  0  0  0  0  0  0  0  0  0  0  0
   41.1610   35.4370   39.4050 C   0  0  0  0  0  2  0  0  0  0  0  0
   42.0630   35.4330   40.0350 H   0  0  0  0  0  0  0  0  0  0  0  0
   41.9320   32.8060   39.3410 C   0  0  0  0  0  0  0  0  0  0  0  0
   42.2240   32.4630   38.1720 O   0  0  0  0  0  0  0  0  0  0  0  0
   43.1350   32.7480   40.0190 O   0  0  0  0  0  0  0  0  0  0  0  0
   43.9370   33.3480   39.8330 H   0  0  0  0  0  0  0  0  0  0  0  0
   36.5120   27.2110   40.4270 C   0  0  0  0  0  0  0  0  0  0  0  0
   35.5190   26.9020   40.0420 H   0  0  0  0  0  0  0  0  0  0  0  0
   37.0010   27.7940   39.6230 H   0  0  0  0  0  0  0  0  0  0  0  0
   37.8940   23.7480   40.8380 C   0  0  0  0  0  0  0  0  0  0  0  0
   39.0220   24.0380   41.6340 C   0  0  0  0  0  0  0  0  0  0  0  0
   39.2390   25.3770   41.9770 C   0  0  0  0  0  0  0  0  0  0  0  0
   38.3540   26.3280   41.5260 N   0  0  0  0  0  0  0  0  0  0  0  0
   37.2960   25.9860   40.7680 C   0  0  0  0  0  0  0  0  0  0  0  0
   37.0470   24.7090   40.4140 N   0  0  0  0  0  0  0  0  0  0  0  0
   37.6760   22.7280   40.5410 H   0  0  0  0  0  0  0  0  0  0  0  0
   39.6720   23.2430   41.9500 H   0  0  0  0  0  0  0  0  0  0  0  0
   40.3760   25.6770   42.7800 N   0  0  0  0  0  0  0  0  0  0  0  0
   41.5620   25.1660   42.4190 C   0  0  0  0  0  0  0  0  0  0  0  0
   42.6740   25.4500   43.1920 C   0  0  0  0  0  0  0  0  0  0  0  0
   42.5040   26.2460   44.2980 C   0  0  0  0  0  0  0  0  0  0  0  0
   43.5420   26.5020   45.0050 O   0  0  0  0  0  0  0  0  0  0  0  0
   41.3190   26.7700   44.6770 N   0  0  0  0  0  0  0  0  0  0  0  0
   40.2880   26.4430   43.8690 C   0  0  0  0  0  0  0  0  0  0  0  0
   39.1340   26.8780   44.1290 O   0  0  0  0  0  0  0  0  0  0  0  0
   41.6890   24.5360   41.5420 H   0  0  0  0  0  0  0  0  0  0  0  0
   43.6670   25.0640   42.9500 H   0  0  0  0  0  0  0  0  0  0  0  0
   41.2200   27.3740   45.5250 H   0  0  0  0  0  0  0  0  0  0  0  0
  1  2  1  0  0  0  0
  1  6  1  0  0  0  0
  1  3  1  0  0  0  0
  4  6  1  0  0  0  0
  5  4  2  0  0  0  0
  6  7  1  0  0  0  0
  8 16  1  0  0  0  0
  9  8  2  0  0  0  0
  9 10  1  0  0  0  0
 10 11  1  0  0  0  0
 11 13  1  0  0  0  0
 11 12  2  0  0  0  0
 13  4  1  6  0  0  0
 14 15  1  1  0  0  0
 14 10  1  0  0  0  0
 14 13  1  0  0  0  0
 15 16  1  0  0  0  0
 16 17  1  0  0  0  0
 18  8  1  0  0  0  0
 18 19  1  0  0  0  0
 20  9  1  0  0  0  0
 20 22  1  0  0  0  0
 21 20  2  0  0  0  0
 23 22  1  0  0  0  0
 24 31  1  0  0  0  0
 24  1  1  0  0  0  0
 25 24  1  0  0  0  0
 26 24  1  0  0  0  0
 27 28  1  0  0  0  0
 28 34  1  0  0  0  0
 28 29  2  0  0  0  0
 29 35  1  0  0  0  0
 30 29  1  0  0  0  0
 31 30  2  0  0  0  0
 32 31  1  0  0  0  0
 32 27  2  0  0  0  0
 33 27  1  0  0  0  0
 35 41  1  0  0  0  0
 36 35  1  0  0  0  0
 36 37  2  0  0  0  0
 37 38  1  0  0  0  0
 38 40  1  0  0  0  0
 38 39  2  0  0  0  0
 40 45  1  0  0  0  0
 41 42  2  0  0  0  0
 41 40  1  0  0  0  0
 43 36  1  0  0  0  0
 44 37  1  0  0  0  0
M  END
>  <minimizedAffinity>
-6.52644396

$$$$

 OpenBabel03242521193D

 45 48  0  0  1  0  0  0  0  0999 V2000
   36.7010   31.3460   39.7480 C   0  0  0  0  0  0  0  0  0  0  0  0
   36.8860   30.5970   38.9650 H   0  0  0  0  0  0  0  0  0  0  0  0
   35.8490   32.0200   39.4400 H   0  0  0  0  0  0  0  0  0  0  0  0
   38.8770   32.2000   38.9370 C   0  0  0  0  0  0  0  0  0  0  0  0
   38.6700   31.4230   37.9640 O   0  0  0  0  0  0  0  0  0  0  0  0
   37.8550   32.2170   39.9020 N   0  0  0  0  0  0  0  0  0  0  0  0
   37.8800   32.8360   40.7440 H   0  0  0  0  0  0  0  0  0  0  0  0
   43.8300   33.9110   39.8660 C   0  0  0  0  0  0  0  0  0  0  0  0
   42.8200   34.1790   40.6720 C   0  0  0  0  0  0  0  0  0  0  0  0
   41.5110   33.7480   40.3240 N   0  0  0  0  0  0  0  0  0  0  0  0
   40.1150   34.0010   40.1830 C   0  0  0  0  0  0  0  0  0  0  0  0
   39.3220   34.7650   40.8080 O   0  0  0  0  0  0  0  0  0  0  0  0
   40.0800   33.0250   39.0640 C   0  0  1  0  0  3  0  0  0  0  0  0
   41.2080   32.3910   39.8430 C   0  0  1  0  0  3  0  0  0  0  0  0
   42.5830   31.7840   38.8630 S   0  0  0  0  0  0  0  0  0  0  0  0
   43.7020   33.1820   38.5810 C   0  0  0  0  0  3  0  0  0  0  0  0
   43.2350   33.8240   37.7920 H   0  0  0  0  0  0  0  0  0  0  0  0
   45.1480   34.3820   40.2970 C   0  0  0  0  0  2  0  0  0  0  0  0
   45.1530   35.4800   40.3570 H   0  0  0  0  0  0  0  0  0  0  0  0
   43.0030   34.9070   41.9220 C   0  0  0  0  0  0  0  0  0  0  0  0
   42.7430   36.1140   42.1350 O   0  0  0  0  0  0  0  0  0  0  0  0
   43.4920   34.4490   43.1320 O   0  0  0  0  0  0  0  0  0  0  0  0
   42.9490   34.3840   43.9910 H   0  0  0  0  0  0  0  0  0  0  0  0
   36.3910   30.7540   41.1040 C   0  0  0  0  0  0  0  0  0  0  0  0
   36.2160   31.5960   41.8030 H   0  0  0  0  0  0  0  0  0  0  0  0
   35.4620   30.1530   41.0870 H   0  0  0  0  0  0  0  0  0  0  0  0
   39.5860   29.4840   42.6030 C   0  0  0  0  0  0  0  0  0  0  0  0
   39.4450   28.1070   42.3250 C   0  0  0  0  0  0  0  0  0  0  0  0
   38.2860   27.7020   41.6530 C   0  0  0  0  0  0  0  0  0  0  0  0
   37.3570   28.6550   41.3040 N   0  0  0  0  0  0  0  0  0  0  0  0
   37.5510   29.9530   41.5990 C   0  0  0  0  0  0  0  0  0  0  0  0
   38.6520   30.3880   42.2440 N   0  0  0  0  0  0  0  0  0  0  0  0
   40.4630   29.8540   43.1210 H   0  0  0  0  0  0  0  0  0  0  0  0
   40.2130   27.4200   42.6290 H   0  0  0  0  0  0  0  0  0  0  0  0
   38.1380   26.3150   41.3700 N   0  0  0  0  0  0  0  0  0  0  0  0
   37.6770   25.5140   42.3400 C   0  0  0  0  0  0  0  0  0  0  0  0
   37.5280   24.1630   42.0760 C   0  0  0  0  0  0  0  0  0  0  0  0
   37.8650   23.7100   40.8240 C   0  0  0  0  0  0  0  0  0  0  0  0
   37.7220   22.4580   40.5930 O   0  0  0  0  0  0  0  0  0  0  0  0
   38.3300   24.5020   39.8340 N   0  0  0  0  0  0  0  0  0  0  0  0
   38.4440   25.8030   40.1760 C   0  0  0  0  0  0  0  0  0  0  0  0
   38.8700   26.6320   39.3280 O   0  0  0  0  0  0  0  0  0  0  0  0
   37.4130   25.8790   43.3300 H   0  0  0  0  0  0  0  0  0  0  0  0
   37.1580   23.4600   42.8250 H   0  0  0  0  0  0  0  0  0  0  0  0
   38.5780   24.1280   38.8900 H   0  0  0  0  0  0  0  0  0  0  0  0
  1  6  1  0  0  0  0
  1 24  1  0  0  0  0
  2  1  1  0  0  0  0
  3  1  1  0  0  0  0
  4  6  1  0  0  0  0
  5  4  2  0  0  0  0
  6  7  1  0  0  0  0
  8 18  1  0  0  0  0
  8  9  2  0  0  0  0
  9 20  1  0  0  0  0
 10  9  1  0  0  0  0
 11 10  1  0  0  0  0
 11 12  2  0  0  0  0
 13  4  1  1  0  0  0
 13 14  1  0  0  0  0
 13 11  1  0  0  0  0
 14 15  1  6  0  0  0
 14 10  1  0  0  0  0
 16 15  1  0  0  0  0
 16  8  1  0  0  0  0
 17 16  1  0  0  0  0
 18 19  1  0  0  0  0
 20 21  2  0  0  0  0
 20 22  1  0  0  0  0
 22 23  1  0  0  0  0
 24 31  1  0  0  0  0
 24 25  1  0  0  0  0
 26 24  1  0  0  0  0
 27 33  1  0  0  0  0
 28 27  1  0  0  0  0
 28 34  1  0  0  0  0
 29 28  2  0  0  0  0
 30 31  2  0  0  0  0
 30 29  1  0  0  0  0
 31 32  1  0  0  0  0
 32 27  2  0  0  0  0
 35 29  1  0  0  0  0
 35 36  1  0  0  0  0
 36 43  1  0  0  0  0
 37 36  2  0  0  0  0
 37 44  1  0  0  0  0
 38 37  1  0  0  0  0
 39 38  2  0  0  0  0
 40 41  1  0  0  0  0
 40 38  1  0  0  0  0
 41 35  1  0  0  0  0
 42 41  2  0  0  0  0
 45 40  1  0  0  0  0
M  END
>  <minimizedAffinity>
-6.51088524

$$$$
