
     RDKit          3D

 34 36  0  0  0  0  0  0  0  0999 V2000
   44.9152   35.1335   44.0487 C   0  0  0  0  0  0  0  0  0  0  0  0
   45.7361   35.3894   42.9283 C   0  0  0  0  0  0  0  0  0  0  0  0
   46.9483   34.6758   42.8160 C   0  0  0  0  0  0  0  0  0  0  0  0
   47.2458   33.7851   43.7994 N   0  0  0  0  0  0  0  0  0  0  0  0
   46.4294   33.5727   44.8540 C   0  0  0  0  0  0  0  0  0  0  0  0
   45.2849   34.2474   44.9589 N   0  0  0  0  0  0  0  0  0  0  0  0
   43.6969   35.8415   44.1746 N   0  0  0  0  0  0  0  0  0  0  0  0
   47.7426   34.9722   41.6629 C   0  0  0  0  0  0  0  0  0  0  0  0
   48.6678   35.8174   41.6482 O   0  0  0  0  0  0  0  0  0  0  0  0
   45.4150   36.1202   42.1927 H   0  0  0  0  0  0  0  0  0  0  0  0
   46.7182   32.8498   45.6085 H   0  0  0  0  0  0  0  0  0  0  0  0
   43.9360   36.8433   44.4333 H   0  0  0  0  0  0  0  0  0  0  0  0
   42.7113   35.4799   44.0444 H   0  0  0  0  0  0  0  0  0  0  0  0
   45.2524   30.1562   37.4277 C   0  0  0  0  0  0  0  0  0  0  0  0
   44.6120   29.5426   38.0923 H   0  0  0  0  0  0  0  0  0  0  0  0
   45.9896   31.1779   38.1668 C   0  0  0  0  0  0  0  0  0  0  0  0
   45.2752   32.0710   38.8299 C   0  0  0  0  0  0  0  0  0  0  0  0
   43.8163   32.0632   38.8404 C   0  0  0  0  0  0  0  0  0  0  0  0
   43.0443   32.8445   39.4212 O   0  0  0  0  0  0  0  0  0  0  0  0
   42.9577   31.1830   38.2049 O   0  0  0  0  0  0  0  0  0  0  0  0
   45.9531   33.0772   39.5713 N   0  0  0  0  0  0  0  0  0  0  0  0
   46.0810   34.4895   39.8770 C   0  0  0  0  0  0  0  0  0  0  0  0
   45.3083   35.5032   39.7653 O   0  0  0  0  0  0  0  0  0  0  0  0
   47.4887   34.2535   40.3733 C   0  0  2  0  0  0  0  0  0  0  0  0
   47.0489   32.8117   40.5172 C   0  0  2  0  0  0  0  0  0  0  0  0
   48.1268   31.5855   39.7507 S   0  0  0  0  0  0  0  0  0  0  0  0
   47.4605   31.1624   38.1236 C   0  0  1  0  0  0  0  0  0  0  0  0
   47.8262   30.1794   37.7663 H   0  0  0  0  0  0  0  0  0  0  0  0
   45.9258   29.4631   36.8726 H   0  0  0  0  0  0  0  0  0  0  0  0
   44.5715   30.5788   36.6332 H   0  0  0  0  0  0  0  0  0  0  0  0
   42.2718   30.6113   38.6734 H   0  0  0  0  0  0  0  0  0  0  0  0
   48.2669   34.3684   39.6177 H   0  0  0  0  0  0  0  0  0  0  0  0
   46.6813   32.5415   41.5182 H   0  0  0  0  0  0  0  0  0  0  0  0
   47.8660   31.9321   37.4108 H   0  0  0  0  0  0  0  0  0  0  0  0
  1  7  1  0
  1  6  2  0
  2  1  1  0
  3  2  2  0
  3  4  1  0
  4  5  2  0
  5  6  1  0
  8  3  1  0
  9  8  2  0
  2 10  1  0
  5 11  1  0
  7 12  1  0
  7 13  1  0
 14 15  1  0
 14 16  1  0
 16 17  2  0
 17 18  1  0
 18 19  2  0
 18 20  1  0
 17 21  1  0
 21 22  1  0
 22 23  2  0
 22 24  1  0
 24 25  1  0
 25 26  1  0
 26 27  1  0
 27 28  1  6
 27 16  1  0
 25 21  1  0
 14 29  1  0
 14 30  1  0
 20 31  1  0
 24 32  1  6
 25 33  1  1
 27 34  1  0
  8 24  1  0
M  ISO  4  10  14  11  14  15   8  28  15
M  END
>  <DihAtoms>  (1) 
2,7,23,21

>  <DihDeg>  (1) 
-179.99765998644892

$$$$
