
 OpenBabel03242520453D

 29 31  0  0  1  0  0  0  0  0999 V2000
   47.7520   31.8920   36.9560 C   0  0  0  0  0  0  0  0  0  0  0  0
   47.7710   31.4410   38.1980 C   0  0  0  0  0  0  0  0  0  0  0  0
   47.5650   32.3610   39.2630 N   0  0  0  0  0  0  0  0  0  0  0  0
   46.8530   32.6670   40.4890 C   0  0  0  0  0  0  0  0  0  0  0  0
   46.2280   31.9690   41.3600 O   0  0  0  0  0  0  0  0  0  0  0  0
   47.1630   34.1350   40.3010 C   0  0  2  0  0  3  0  0  0  0  0  0
   48.2750   33.6430   39.3990 C   0  0  2  0  0  3  0  0  0  0  0  0
   48.3400   34.3900   37.7600 S   0  0  0  0  0  0  0  0  0  0  0  0
   47.5070   33.2950   36.5880 C   0  0  0  0  0  3  0  0  0  0  0  0
   47.8250   33.4820   35.5440 H   0  0  0  0  0  0  0  0  0  0  0  0
   47.6160   34.7670   41.5820 C   0  0  0  0  0  0  0  0  0  0  0  0
   48.6700   35.4410   41.5180 O   0  0  0  0  0  0  0  0  0  0  0  0
   44.8410   35.1310   44.0070 C   0  0  0  0  0  0  0  0  0  0  0  0
   45.6300   35.2800   42.8440 C   0  0  0  0  0  0  0  0  0  0  0  0
   46.8550   34.5830   42.7800 C   0  0  0  0  0  0  0  0  0  0  0  0
   47.1960   33.8110   43.8460 N   0  0  0  0  0  0  0  0  0  0  0  0
   46.4080   33.7000   44.9390 C   0  0  0  0  0  0  0  0  0  0  0  0
   45.2520   34.3580   44.9980 N   0  0  0  0  0  0  0  0  0  0  0  0
   43.6100   35.8250   44.0860 N   0  0  0  0  0  0  0  0  0  0  0  0
   45.2750   35.9190   42.0420 H   0  0  0  0  0  0  0  0  0  0  0  0
   46.7310   33.0700   45.7590 H   0  0  0  0  0  0  0  0  0  0  0  0
   43.8320   36.8530   44.2270 H   0  0  0  0  0  0  0  0  0  0  0  0
   42.6300   35.4310   44.0200 H   0  0  0  0  0  0  0  0  0  0  0  0
   47.9790   30.9140   35.8930 C   0  0  0  0  0  2  0  0  0  0  0  0
   48.9700   30.4250   35.9830 H   0  0  0  0  0  0  0  0  0  0  0  0
   48.0040   30.0390   38.5260 C   0  0  0  0  0  0  0  0  0  0  0  0
   49.0810   29.4740   38.7820 O   0  0  0  0  0  0  0  0  0  0  0  0
   47.0780   29.0150   38.6260 O   0  0  0  0  0  0  0  0  0  0  0  0
   47.0950   28.1700   38.0770 H   0  0  0  0  0  0  0  0  0  0  0  0
  1  2  2  0  0  0  0
  2 26  1  0  0  0  0
  2  3  1  0  0  0  0
  3  7  1  0  0  0  0
  3  4  1  0  0  0  0
  4  5  2  0  0  0  0
  6  4  1  0  0  0  0
  6 11  1  1  0  0  0
  7  8  1  6  0  0  0
  7  6  1  0  0  0  0
  9  1  1  0  0  0  0
  9  8  1  0  0  0  0
 10  9  1  0  0  0  0
 11 15  1  0  0  0  0
 12 11  2  0  0  0  0
 13 19  1  0  0  0  0
 13 18  1  0  0  0  0
 14 13  2  0  0  0  0
 15 14  1  0  0  0  0
 15 16  2  0  0  0  0
 16 17  1  0  0  0  0
 17 18  2  0  0  0  0
 17 21  1  0  0  0  0
 19 22  1  0  0  0  0
 20 14  1  0  0  0  0
 23 19  1  0  0  0  0
 24 25  1  0  0  0  0
 24  1  1  0  0  0  0
 26 28  1  0  0  0  0
 26 27  2  0  0  0  0
 29 28  1  0  0  0  0
M  END
>  <minimizedAffinity>
-5.02285767

>  <minimizedRMSD>
0.951322854

$$$$
