
 OpenBabel03252504413D

 52 56  0  0  1  0  0  0  0  0999 V2000
   45.3500   32.8250   47.3130 C   0  0  0  0  0  0  0  0  0  0  0  0
   44.5160   32.1750   46.9700 H   0  0  0  0  0  0  0  0  0  0  0  0
   44.9190   33.6480   47.9190 H   0  0  0  0  0  0  0  0  0  0  0  0
   46.3270   32.0580   48.1420 C   0  0  0  0  0  0  0  0  0  0  0  0
   46.0300   31.2240   49.1880 C   0  0  0  0  0  0  0  0  0  0  0  0
   47.1940   30.7530   49.6360 N   0  0  0  0  0  0  0  0  0  0  0  0
   48.2230   31.2440   48.9280 C   0  0  0  0  0  0  0  0  0  0  0  0
   47.6680   32.0630   47.9910 N   0  0  0  0  0  0  0  0  0  0  0  0
   49.6190   31.0400   49.0260 N   0  0  0  0  0  0  0  0  0  0  0  0
   50.3700   31.9300   49.9380 C   0  0  0  0  0  0  0  0  0  0  0  0
   50.6790   31.0600   51.1510 C   0  0  0  0  0  0  0  0  0  0  0  0
   51.2330   29.7250   50.7200 C   0  0  0  0  0  0  0  0  0  0  0  0
   51.6890   29.8090   49.2850 C   0  0  0  0  0  0  0  0  0  0  0  0
   50.5020   30.1050   48.3940 C   0  0  0  0  0  0  0  0  0  0  0  0
   45.0470   30.9800   49.5910 H   0  0  0  0  0  0  0  0  0  0  0  0
   47.3420   30.0850   50.4340 H   0  0  0  0  0  0  0  0  0  0  0  0
   51.2620   32.3480   49.4650 H   0  0  0  0  0  0  0  0  0  0  0  0
   49.7240   32.7610   50.3070 H   0  0  0  0  0  0  0  0  0  0  0  0
   49.8120   30.9900   51.8100 H   0  0  0  0  0  0  0  0  0  0  0  0
   51.4870   31.5970   51.7190 H   0  0  0  0  0  0  0  0  0  0  0  0
   50.4140   28.9760   50.7680 H   0  0  0  0  0  0  0  0  0  0  0  0
   52.0280   29.3530   51.3810 H   0  0  0  0  0  0  0  0  0  0  0  0
   52.4040   30.6670   49.2150 H   0  0  0  0  0  0  0  0  0  0  0  0
   52.2300   28.9020   48.9740 H   0  0  0  0  0  0  0  0  0  0  0  0
   49.9980   29.1200   48.2370 H   0  0  0  0  0  0  0  0  0  0  0  0
   50.7870   30.5190   47.4110 H   0  0  0  0  0  0  0  0  0  0  0  0
   45.9320   32.9970   44.9250 C   0  0  0  0  0  0  0  0  0  0  0  0
   46.0300   33.4610   46.1630 C   0  0  0  0  0  0  0  0  0  0  0  0
   46.6560   33.7220   43.8810 C   0  0  0  0  0  0  0  0  0  0  0  0
   46.0240   34.7820   43.1650 C   0  0  0  0  0  0  0  0  0  0  0  0
   46.8040   35.4060   42.1900 C   0  0  0  0  0  0  0  0  0  0  0  0
   48.0810   35.0160   41.9520 N   0  0  0  0  0  0  0  0  0  0  0  0
   48.6480   33.9980   42.6600 C   0  0  0  0  0  0  0  0  0  0  0  0
   47.9260   33.3850   43.5950 N   0  0  0  0  0  0  0  0  0  0  0  0
   45.0210   35.0060   43.4300 H   0  0  0  0  0  0  0  0  0  0  0  0
   46.3180   36.2020   41.6580 H   0  0  0  0  0  0  0  0  0  0  0  0
   50.0250   33.5770   42.4770 C   0  0  0  0  0  0  0  0  0  0  0  0
   50.3280   32.3870   41.7170 C   0  0  0  0  0  0  0  0  0  0  0  0
   50.0560   31.9670   40.4980 C   0  0  0  0  0  0  0  0  0  0  0  0
   50.4870   30.6970   40.0190 N   0  0  0  0  0  0  0  0  0  0  0  0
   51.1250   29.9340   39.0030 C   0  0  0  0  0  0  0  0  0  0  0  0
   51.1720   30.0900   37.7440 O   0  0  0  0  0  0  0  0  0  0  0  0
   51.5990   29.0310   40.0890 C   0  0  0  0  0  0  0  0  0  0  0  0
   51.7150   27.9790   39.8050 H   0  0  0  0  0  0  0  0  0  0  0  0
   50.3040   29.4110   40.7280 C   0  0  1  0  0  0  0  0  0  0  0  0
   50.3750   29.8270   42.4850 S   0  0  0  0  0  0  0  0  0  0  0  0
   51.1670   31.4830   42.5460 C   0  0  0  0  0  0  0  0  0  0  0  0
   52.1520   31.3700   42.0390 H   0  0  0  0  0  0  0  0  0  0  0  0
   49.2750   32.8530   39.6530 C   0  0  0  0  0  0  0  0  0  0  0  0
   48.0920   32.5510   39.3750 O   0  0  0  0  0  0  0  0  0  0  0  0
   48.6000   33.7380   38.8530 O   0  0  0  0  0  0  0  0  0  0  0  0
   48.6700   34.7680   38.9160 H   0  0  0  0  0  0  0  0  0  0  0  0
  1  3  1  0  0  0  0
  1  4  1  0  0  0  0
  2  1  1  0  0  0  0
  4  5  2  0  0  0  0
  5 15  1  0  0  0  0
  5  6  1  0  0  0  0
  6 16  1  0  0  0  0
  7  9  1  0  0  0  0
  7  6  1  0  0  0  0
  8  4  1  0  0  0  0
  8  7  2  0  0  0  0
  9 10  1  0  0  0  0
 10 18  1  0  0  0  0
 10 11  1  0  0  0  0
 11 20  1  0  0  0  0
 11 19  1  0  0  0  0
 12 21  1  0  0  0  0
 12 11  1  0  0  0  0
 12 22  1  0  0  0  0
 13 12  1  0  0  0  0
 14  9  1  0  0  0  0
 14 13  1  0  0  0  0
 17 10  1  0  0  0  0
 23 13  1  0  0  0  0
 24 13  1  0  0  0  0
 25 14  1  0  0  0  0
 26 14  1  0  0  0  0
 27 28  2  0  0  0  0
 28  1  1  0  0  0  0
 29 27  1  0  0  0  0
 30 35  1  0  0  0  0
 30 29  2  0  0  0  0
 31 30  1  0  0  0  0
 32 31  2  0  0  0  0
 32 33  1  0  0  0  0
 33 34  2  0  0  0  0
 34 29  1  0  0  0  0
 36 31  1  0  0  0  0
 37 33  1  0  0  0  0
 38 37  1  0  0  0  0
 38 47  1  0  0  0  0
 39 38  2  0  0  0  0
 40 39  1  0  0  0  0
 40 45  1  0  0  0  0
 41 40  1  0  0  0  0
 41 43  1  0  0  0  0
 42 41  2  0  0  0  0
 44 43  1  0  0  0  0
 45 43  1  6  0  0  0
 45 46  1  0  0  0  0
 46 47  1  0  0  0  0
 48 47  1  0  0  0  0
 49 39  1  0  0  0  0
 50 49  2  0  0  0  0
 51 52  1  0  0  0  0
 51 49  1  0  0  0  0
M  END
>  <minimizedAffinity>
-6.36561251

>  <minimizedRMSD>
1.33666968

$$$$
