REMARK  Name = 
REMARK  7 active torsions:
REMARK  status: ('A' for Active; 'I' for Inactive)
REMARK    1  A    between atoms: C_1  and  C_3
REMARK    2  A    between atoms: C_1  and  O_9
REMARK    3  A    between atoms: O_9  and  C_10
REMARK    4  A    between atoms: C_13  and  C_20
REMARK    5  A    between atoms: C_20  and  C_21
REMARK    6  A    between atoms: C_22  and  C_23
REMARK    7  A    between atoms: C_23  and  O_25
REMARK                            x       y       z     vdW  Elec       q    Type
REMARK                         _______ _______ _______ _____ _____    ______ ____
ROOT
ATOM      1  C   UNL     1      47.302  33.746  39.768  0.00  0.00    +0.000 A 
ATOM      2  C   UNL     1      48.298  34.336  39.011  0.00  0.00    +0.000 A 
ATOM      3  C   UNL     1      47.973  34.157  37.673  0.00  0.00    +0.000 A 
ATOM      4  C   UNL     1      46.775  33.455  37.690  0.00  0.00    +0.000 A 
ATOM      5  O   UNL     1      46.418  33.235  38.930  0.00  0.00    +0.000 OA
ATOM      6  H   UNL     1      49.149  34.832  39.448  0.00  0.00    +0.000 HD
ATOM      7  H   UNL     1      48.571  34.515  36.825  0.00  0.00    +0.000 HD
ENDROOT
BRANCH   1   8
ATOM      8  O   UNL     1      47.147  33.644  41.156  0.00  0.00    +0.000 OA
BRANCH   8   9
ATOM      9  C   UNL     1      47.302  34.754  41.988  0.00  0.00    +0.000 C 
ATOM     10  O   UNL     1      48.182  35.575  41.641  0.00  0.00    +0.000 OA
BRANCH   9  11
ATOM     11  C   UNL     1      46.440  34.806  43.120  0.00  0.00    +0.000 A 
ATOM     12  C   UNL     1      45.557  35.867  43.080  0.00  0.00    +0.000 A 
ATOM     13  C   UNL     1      44.662  36.004  44.157  0.00  0.00    +0.000 A 
ATOM     14  N   UNL     1      44.713  35.103  45.162  0.00  0.00    +0.000 NA
ATOM     15  C   UNL     1      45.606  34.080  45.144  0.00  0.00    +0.000 A 
ATOM     16  N   UNL     1      46.473  33.931  44.119  0.00  0.00    +0.000 NA
ATOM     17  H   UNL     1      45.477  36.618  42.296  0.00  0.00    +0.000 HD
ATOM     18  H   UNL     1      43.941  36.812  44.194  0.00  0.00    +0.000 HD
ATOM     19  H   UNL     1      45.598  33.386  45.983  0.00  0.00    +0.000 HD
ENDBRANCH   9  11
ENDBRANCH   8   9
ENDBRANCH   1   8
BRANCH   4  20
ATOM     20  C   UNL     1      46.039  33.033  36.446  0.00  0.00    +0.000 C 
BRANCH  20  21
ATOM     21  C   UNL     1      45.065  32.035  36.885  0.00  0.00    +0.000 C 
ATOM     22  C   UNL     1      45.106  30.817  36.395  0.00  0.00    +0.000 C 
ATOM     23  N   UNL     1      44.197  29.823  36.779  0.00  0.00    +0.000 N 
ATOM     24  C   UNL     1      43.930  28.462  37.091  0.00  0.00    +0.000 C 
ATOM     25  O   UNL     1      44.398  27.362  36.756  0.00  0.00    +0.000 OA
ATOM     26  C   UNL     1      42.850  28.921  37.990  0.00  0.00    +0.000 C 
ATOM     27  H   UNL     1      41.957  28.297  38.033  0.00  0.00    +0.000 HD
ATOM     28  C   UNL     1      42.794  30.111  37.035  0.00  0.00    +0.000 C 
ATOM     29  S   UNL     1      42.510  31.684  37.837  0.00  0.00    +0.000 S 
ATOM     30  C   UNL     1      44.111  32.535  37.871  0.00  0.00    +0.000 C 
ATOM     31  H   UNL     1      44.489  32.439  38.928  0.00  0.00    +0.000 HD
BRANCH  22  32
ATOM     32  C   UNL     1      46.122  30.456  35.413  0.00  0.00    +0.000 C 
ATOM     33  O   UNL     1      46.250  29.320  34.884  0.00  0.00    +0.000 OA
BRANCH  32  34
ATOM     34  O   UNL     1      47.181  30.447  34.526  0.00  0.00    +0.000 OA
ATOM     35  H   UNL     1      47.496  31.223  33.962  0.00  0.00    +0.000 HD
ENDBRANCH  32  34
ENDBRANCH  22  32
ENDBRANCH  20  21
ENDBRANCH   4  20
TORSDOF 7
