
     RDKit          3D

 59 63  0  0  0  0  0  0  0  0999 V2000
   45.6712   32.9448   46.7435 C   0  0  0  0  0  0  0  0  0  0  0  0
   46.3991   32.1610   47.7849 C   0  0  0  0  0  0  0  0  0  0  0  0
   45.9275   31.8213   49.0260 C   0  0  0  0  0  0  0  0  0  0  0  0
   46.8989   31.1271   49.6204 N   0  0  0  0  0  0  0  0  0  0  0  0
   47.9701   31.0058   48.8198 C   0  0  0  0  0  0  0  0  0  0  0  0
   47.6462   31.6589   47.6687 N   0  0  0  0  0  0  0  0  0  0  0  0
   49.2198   30.3693   49.0047 N   0  0  0  0  0  0  0  0  0  0  0  0
   50.3005   31.1674   49.6248 C   0  0  0  0  0  0  0  0  0  0  0  0
   50.3988   30.6333   51.0489 C   0  0  0  0  0  0  0  0  0  0  0  0
   50.4344   29.1256   51.0497 C   0  0  0  0  0  0  0  0  0  0  0  0
   50.7701   28.6291   49.6662 C   0  0  0  0  0  0  0  0  0  0  0  0
   49.6810   29.0473   48.7018 C   0  0  0  0  0  0  0  0  0  0  0  0
   46.1460   33.8836   44.5158 C   0  0  0  0  0  0  0  0  0  0  0  0
   46.5349   33.1727   45.5654 C   0  0  0  0  0  0  0  0  0  0  0  0
   47.1007   34.0305   43.4174 C   0  0  0  0  0  0  0  0  0  0  0  0
   46.9003   35.0238   42.4119 C   0  0  0  0  0  0  0  0  0  0  0  0
   47.8700   35.0785   41.4095 C   0  0  0  0  0  0  0  0  0  0  0  0
   48.9304   34.2329   41.4074 N   0  0  0  0  0  0  0  0  0  0  0  0
   49.0851   33.2978   42.3881 C   0  0  0  0  0  0  0  0  0  0  0  0
   48.1738   33.2241   43.3552 N   0  0  0  0  0  0  0  0  0  0  0  0
   44.7255   32.4404   46.4487 H   0  0  0  0  0  0  0  0  0  0  0  0
   45.4159   33.9461   47.1470 H   0  0  0  0  0  0  0  0  0  0  0  0
   44.9576   32.0590   49.4619 H   0  0  0  0  0  0  0  0  0  0  0  0
   46.8812   30.7088   50.5837 H   0  0  0  0  0  0  0  0  0  0  0  0
   51.2372   31.0955   49.0680 H   0  0  0  0  0  0  0  0  0  0  0  0
   50.0039   32.2385   49.7135 H   0  0  0  0  0  0  0  0  0  0  0  0
   49.6175   31.0603   51.6796 H   0  0  0  0  0  0  0  0  0  0  0  0
   51.3854   30.9973   51.4482 H   0  0  0  0  0  0  0  0  0  0  0  0
   49.4183   28.7530   51.3018 H   0  0  0  0  0  0  0  0  0  0  0  0
   51.1114   28.7090   51.8093 H   0  0  0  0  0  0  0  0  0  0  0  0
   51.7233   29.1280   49.3580 H   0  0  0  0  0  0  0  0  0  0  0  0
   50.9466   27.5432   49.6532 H   0  0  0  0  0  0  0  0  0  0  0  0
   48.8642   28.2957   48.8356 H   0  0  0  0  0  0  0  0  0  0  0  0
   50.0050   29.0354   47.6459 H   0  0  0  0  0  0  0  0  0  0  0  0
   45.1717   34.3064   44.5244 H   0  0  0  0  0  0  0  0  0  0  0  0
   47.5435   32.7304   45.5656 H   0  0  0  0  0  0  0  0  0  0  0  0
   46.0370   35.6344   42.5085 H   0  0  0  0  0  0  0  0  0  0  0  0
   47.7086   35.8288   40.6587 H   0  0  0  0  0  0  0  0  0  0  0  0
   50.2271   32.4035   42.4569 C   0  0  0  0  0  0  0  0  0  0  0  0
   50.0490   30.9812   42.2900 C   0  0  0  0  0  0  0  0  0  0  0  0
   49.0199   30.1926   42.0541 C   0  0  0  0  0  0  0  0  0  0  0  0
   47.7211   30.8280   41.9121 C   0  0  0  0  0  0  0  0  0  0  0  0
   46.7149   30.1212   41.6743 O   0  0  0  0  0  0  0  0  0  0  0  0
   46.5313   31.4980   41.7912 O   0  0  0  0  0  0  0  0  0  0  0  0
   49.1529   28.7782   41.9577 N   0  0  0  0  0  0  0  0  0  0  0  0
   48.8880   27.5789   41.2420 C   0  0  0  0  0  0  0  0  0  0  0  0
   47.9027   27.2345   40.5193 O   0  0  0  0  0  0  0  0  0  0  0  0
   50.1962   27.0802   41.7515 C   0  0  1  0  0  0  0  0  0  0  0  0
   50.2519   25.9982   41.9149 H   0  0  0  0  0  0  0  0  0  0  0  0
   49.8528   27.9188   42.9389 C   0  0  1  0  0  0  0  0  0  0  0  0
   51.1834   28.9456   43.5992 S   0  0  0  0  0  0  0  0  0  0  0  0
   51.3723   30.3127   42.3869 C   0  0  1  0  0  0  0  0  0  0  0  0
   51.5830   29.8259   41.4082 H   0  0  0  0  0  0  0  0  0  0  0  0
   50.7757   32.5859   43.4224 H   0  0  0  0  0  0  0  0  0  0  0  0
   50.9719   32.7883   41.6800 H   0  0  0  0  0  0  0  0  0  0  0  0
   46.2395   32.2999   42.3750 H   0  0  0  0  0  0  0  0  0  0  0  0
   51.0724   27.5161   41.2332 H   0  0  0  0  0  0  0  0  0  0  0  0
   49.1641   27.4743   43.6793 H   0  0  0  0  0  0  0  0  0  0  0  0
   52.2121   30.9416   42.6577 H   0  0  0  0  0  0  0  0  0  0  0  0
  1  2  1  0
  2  3  2  0
  3  4  1  0
  5  7  1  0
  5  4  1  0
  6  2  1  0
  6  5  2  0
  7  8  1  0
  8  9  1  0
  9 10  1  0
 11 10  1  0
 12  7  1  0
 12 11  1  0
 13 14  2  0
 14  1  1  0
 15 13  1  0
 16 15  2  0
 17 18  2  0
 17 16  1  0
 18 19  1  0
 19 20  2  0
 20 15  1  0
  1 21  1  0
  1 22  1  0
  3 23  1  0
  4 24  1  0
  8 25  1  0
  8 26  1  0
  9 27  1  0
  9 28  1  0
 10 29  1  0
 10 30  1  0
 11 31  1  0
 11 32  1  0
 12 33  1  0
 12 34  1  0
 13 35  1  0
 14 36  1  0
 16 37  1  0
 17 38  1  0
 39 40  1  0
 40 41  2  0
 41 42  1  0
 42 43  2  0
 42 44  1  0
 41 45  1  0
 45 46  1  0
 46 47  2  0
 46 48  1  0
 48 49  1  1
 48 50  1  0
 50 51  1  0
 51 52  1  0
 52 53  1  6
 52 40  1  0
 50 45  1  0
 39 54  1  0
 39 55  1  0
 44 56  1  0
 48 57  1  0
 50 58  1  1
 52 59  1  0
 19 39  1  0
M  ISO  8  21   8  22   8  23  14  24   9  25  13  26  13  27  13  28  13
M  ISO  8  29  13  30  13  31  13  32  13  33  13  34  13  37  14  38  14
M  ISO  2  49  15  53  15
M  END
>  <DihAtoms>  (1) 
17,18,38,39

>  <DihDeg>  (1) 
-84.78994185658894

$$$$
