
     RDKit          3D

 34 36  0  0  0  0  0  0  0  0999 V2000
   44.9152   35.1335   44.0487 C   0  0  0  0  0  0  0  0  0  0  0  0
   45.7361   35.3894   42.9283 C   0  0  0  0  0  0  0  0  0  0  0  0
   46.9483   34.6758   42.8160 C   0  0  0  0  0  0  0  0  0  0  0  0
   47.2458   33.7851   43.7994 N   0  0  0  0  0  0  0  0  0  0  0  0
   46.4294   33.5727   44.8540 C   0  0  0  0  0  0  0  0  0  0  0  0
   45.2849   34.2474   44.9589 N   0  0  0  0  0  0  0  0  0  0  0  0
   43.6969   35.8415   44.1746 N   0  0  0  0  0  0  0  0  0  0  0  0
   47.7426   34.9722   41.6629 C   0  0  0  0  0  0  0  0  0  0  0  0
   48.6678   35.8174   41.6482 O   0  0  0  0  0  0  0  0  0  0  0  0
   45.4150   36.1202   42.1927 H   0  0  0  0  0  0  0  0  0  0  0  0
   46.7182   32.8498   45.6085 H   0  0  0  0  0  0  0  0  0  0  0  0
   43.9360   36.8433   44.4333 H   0  0  0  0  0  0  0  0  0  0  0  0
   42.7113   35.4799   44.0444 H   0  0  0  0  0  0  0  0  0  0  0  0
   48.5697   33.2388   35.0566 C   0  0  0  0  0  0  0  0  0  0  0  0
   49.4639   33.8193   34.7536 H   0  0  0  0  0  0  0  0  0  0  0  0
   48.1387   33.5641   36.4138 C   0  0  0  0  0  0  0  0  0  0  0  0
   49.0048   33.3415   37.3876 C   0  0  0  0  0  0  0  0  0  0  0  0
   50.3364   32.7953   37.1487 C   0  0  0  0  0  0  0  0  0  0  0  0
   51.2280   32.5449   37.9770 O   0  0  0  0  0  0  0  0  0  0  0  0
   50.9114   32.4306   35.9437 O   0  0  0  0  0  0  0  0  0  0  0  0
   48.6297   33.6539   38.7230 N   0  0  0  0  0  0  0  0  0  0  0  0
   48.5501   33.2124   40.1026 C   0  0  0  0  0  0  0  0  0  0  0  0
   49.1431   32.3105   40.7896 O   0  0  0  0  0  0  0  0  0  0  0  0
   47.4887   34.2535   40.3733 C   0  0  2  0  0  0  0  0  0  0  0  0
   48.0386   34.9359   39.1385 C   0  0  2  0  0  0  0  0  0  0  0  0
   46.8204   35.3893   37.8880 S   0  0  0  0  0  0  0  0  0  0  0  0
   46.7843   34.1017   36.6186 C   0  0  1  0  0  0  0  0  0  0  0  0
   46.3666   34.4719   35.6614 H   0  0  0  0  0  0  0  0  0  0  0  0
   47.7728   33.4260   34.3004 H   0  0  0  0  0  0  0  0  0  0  0  0
   48.8358   32.1511   34.9173 H   0  0  0  0  0  0  0  0  0  0  0  0
   51.7638   32.8215   35.5728 H   0  0  0  0  0  0  0  0  0  0  0  0
   46.4631   33.9119   40.2272 H   0  0  0  0  0  0  0  0  0  0  0  0
   48.8013   35.7029   39.3390 H   0  0  0  0  0  0  0  0  0  0  0  0
   46.0740   33.3142   36.9933 H   0  0  0  0  0  0  0  0  0  0  0  0
  1  7  1  0
  1  6  2  0
  2  1  1  0
  3  2  2  0
  3  4  1  0
  4  5  2  0
  5  6  1  0
  8  3  1  0
  9  8  2  0
  2 10  1  0
  5 11  1  0
  7 12  1  0
  7 13  1  0
 14 15  1  0
 14 16  1  0
 16 17  2  0
 17 18  1  0
 18 19  2  0
 18 20  1  0
 17 21  1  0
 21 22  1  0
 22 23  2  0
 22 24  1  0
 24 25  1  0
 25 26  1  0
 26 27  1  0
 27 28  1  6
 27 16  1  0
 25 21  1  0
 14 29  1  0
 14 30  1  0
 20 31  1  0
 24 32  1  6
 25 33  1  1
 27 34  1  0
  8 24  1  0
M  ISO  4  10  14  11  14  15   8  28  15
M  END
>  <DihAtoms>  (1) 
2,7,23,21

>  <DihDeg>  (1) 
-179.99765998644892

$$$$
