REMARK  Name = 
REMARK  7 active torsions:
REMARK  status: ('A' for Active; 'I' for Inactive)
REMARK    1  A    between atoms: C_1  and  O_13
REMARK    2  A    between atoms: C_2  and  C_9
REMARK    3  A    between atoms: C_6  and  O_14
REMARK    4  A    between atoms: O_14  and  C_22
REMARK    5  A    between atoms: C_22  and  C_23
REMARK    6  A    between atoms: C_24  and  C_25
REMARK    7  A    between atoms: C_25  and  O_27
REMARK                            x       y       z     vdW  Elec       q    Type
REMARK                         _______ _______ _______ _____ _____    ______ ____
ROOT
ATOM      1  C   UNL     1      46.273  34.173  40.985  0.00  0.00    +0.000 A 
ATOM      2  C   UNL     1      46.833  34.831  42.043  0.00  0.00    +0.000 A 
ATOM      3  C   UNL     1      48.081  35.375  41.856  0.00  0.00    +0.000 A 
ATOM      4  C   UNL     1      48.748  35.264  40.647  0.00  0.00    +0.000 A 
ATOM      5  C   UNL     1      48.175  34.609  39.612  0.00  0.00    +0.000 A 
ATOM      6  C   UNL     1      46.903  34.035  39.748  0.00  0.00    +0.000 A 
ATOM      7  H   UNL     1      48.550  35.903  42.676  0.00  0.00    +0.000 HD
ATOM      8  H   UNL     1      49.735  35.690  40.485  0.00  0.00    +0.000 HD
ATOM      9  H   UNL     1      48.682  34.514  38.663  0.00  0.00    +0.000 HD
ENDROOT
BRANCH   2  12
ATOM     10  C   UNL     1      44.504  36.015  44.769  0.00  0.00    +0.000 A 
ATOM     11  C   UNL     1      45.212  35.968  43.556  0.00  0.00    +0.000 A 
ATOM     12  C   UNL     1      46.088  34.914  43.274  0.00  0.00    +0.000 A 
ATOM     13  N   UNL     1      46.188  33.980  44.238  0.00  0.00    +0.000 NA
ATOM     14  C   UNL     1      45.506  34.029  45.399  0.00  0.00    +0.000 A 
ATOM     15  N   UNL     1      44.670  35.033  45.671  0.00  0.00    +0.000 NA
ATOM     16  H   UNL     1      43.850  36.868  44.898  0.00  0.00    +0.000 HD
ATOM     17  H   UNL     1      45.100  36.744  42.809  0.00  0.00    +0.000 HD
ATOM     18  H   UNL     1      45.684  33.207  46.085  0.00  0.00    +0.000 HD
ENDBRANCH   2  12
BRANCH   1  19
ATOM     19  O   UNL     1      45.016  33.606  41.124  0.00  0.00    +0.000 OA
ATOM     20  H   UNL     1      45.008  32.591  41.175  0.00  0.00    +0.000 HD
ENDBRANCH   1  19
BRANCH   6  21
ATOM     21  O   UNL     1      46.252  33.352  38.739  0.00  0.00    +0.000 OA
BRANCH  21  22
ATOM     22  C   UNL     1      46.967  33.253  37.494  0.00  0.00    +0.000 C 
BRANCH  22  23
ATOM     23  C   UNL     1      48.051  32.272  37.571  0.00  0.00    +0.000 C 
ATOM     24  C   UNL     1      49.314  32.519  37.386  0.00  0.00    +0.000 C 
ATOM     25  N   UNL     1      50.246  31.456  37.490  0.00  0.00    +0.000 N 
ATOM     26  C   UNL     1      51.540  31.046  37.938  0.00  0.00    +0.000 C 
ATOM     27  O   UNL     1      52.593  31.558  38.451  0.00  0.00    +0.000 OA
ATOM     28  C   UNL     1      51.264  29.636  37.582  0.00  0.00    +0.000 C 
ATOM     29  H   UNL     1      51.183  28.943  38.445  0.00  0.00    +0.000 HD
ATOM     30  C   UNL     1      49.976  30.098  36.987  0.00  0.00    +0.000 C 
ATOM     31  S   UNL     1      48.489  29.569  37.905  0.00  0.00    +0.000 S 
ATOM     32  C   UNL     1      47.372  30.997  37.903  0.00  0.00    +0.000 C 
ATOM     33  H   UNL     1      46.576  30.737  37.140  0.00  0.00    +0.000 HD
BRANCH  24  34
ATOM     34  C   UNL     1      49.825  33.846  37.069  0.00  0.00    +0.000 C 
ATOM     35  O   UNL     1      49.361  34.998  36.888  0.00  0.00    +0.000 OA
BRANCH  34  36
ATOM     36  O   UNL     1      51.158  34.131  36.875  0.00  0.00    +0.000 OA
ATOM     37  H   UNL     1      51.699  34.874  37.297  0.00  0.00    +0.000 HD
ENDBRANCH  34  36
ENDBRANCH  24  34
ENDBRANCH  22  23
ENDBRANCH  21  22
ENDBRANCH   6  21
TORSDOF 7
