
 OpenBabel03242518313D

 35 38  0  0  1  0  0  0  0  0999 V2000
   47.1990   33.7140   39.7130 C   0  0  0  0  0  0  0  0  0  0  0  0
   48.2010   34.4020   39.0520 C   0  0  0  0  0  0  0  0  0  0  0  0
   48.0910   34.1110   37.6990 C   0  0  0  0  0  0  0  0  0  0  0  0
   47.0080   33.2470   37.6090 C   0  0  0  0  0  0  0  0  0  0  0  0
   46.5160   33.0410   38.8040 O   0  0  0  0  0  0  0  0  0  0  0  0
   48.9090   35.0360   39.5600 H   0  0  0  0  0  0  0  0  0  0  0  0
   48.7460   34.5080   36.9130 H   0  0  0  0  0  0  0  0  0  0  0  0
   46.8690   33.6610   41.0730 O   0  0  0  0  0  0  0  0  0  0  0  0
   47.1480   34.7260   41.9300 C   0  0  0  0  0  0  0  0  0  0  0  0
   48.0850   35.4780   41.5760 O   0  0  0  0  0  0  0  0  0  0  0  0
   46.3310   34.8170   43.0930 C   0  0  0  0  0  0  0  0  0  0  0  0
   45.4730   35.8990   43.0690 C   0  0  0  0  0  0  0  0  0  0  0  0
   44.6230   36.0750   44.1760 C   0  0  0  0  0  0  0  0  0  0  0  0
   44.6900   35.1880   45.1930 N   0  0  0  0  0  0  0  0  0  0  0  0
   45.5560   34.1430   45.1580 C   0  0  0  0  0  0  0  0  0  0  0  0
   46.3800   33.9570   44.1040 N   0  0  0  0  0  0  0  0  0  0  0  0
   45.3820   36.6400   42.2760 H   0  0  0  0  0  0  0  0  0  0  0  0
   43.9240   36.9010   44.2270 H   0  0  0  0  0  0  0  0  0  0  0  0
   45.5630   33.4620   46.0080 H   0  0  0  0  0  0  0  0  0  0  0  0
   46.5140   32.6620   36.3120 C   0  0  0  0  0  0  0  0  0  0  0  0
   47.3650   31.5010   36.0550 C   0  0  0  0  0  0  0  0  0  0  0  0
   48.0000   31.3920   34.9110 C   0  0  0  0  0  0  0  0  0  0  0  0
   48.8260   30.2990   34.6120 N   0  0  0  0  0  0  0  0  0  0  0  0
   50.0060   29.7850   34.0120 C   0  0  0  0  0  0  0  0  0  0  0  0
   50.7280   30.0990   33.0520 O   0  0  0  0  0  0  0  0  0  0  0  0
   50.0090   28.7110   35.0280 C   0  0  0  0  0  0  0  0  0  0  0  0
   50.3430   27.7300   34.6940 H   0  0  0  0  0  0  0  0  0  0  0  0
   48.4990   28.9430   35.0280 C   0  0  1  0  0  0  0  0  0  0  0  0
   47.7410   28.8420   36.6440 S   0  0  0  0  0  0  0  0  0  0  0  0
   47.4130   30.5480   37.1610 C   0  0  0  0  0  0  0  0  0  0  0  0
   48.2100   30.8000   37.9170 H   0  0  0  0  0  0  0  0  0  0  0  0
   47.8610   32.4260   33.8920 C   0  0  0  0  0  0  0  0  0  0  0  0
   48.7950   33.1490   33.4600 O   0  0  0  0  0  0  0  0  0  0  0  0
   47.3940   33.3040   32.9340 O   0  0  0  0  0  0  0  0  0  0  0  0
   46.6420   33.1340   32.2810 H   0  0  0  0  0  0  0  0  0  0  0  0
  1  8  1  0  0  0  0
  2  6  1  0  0  0  0
  2  1  2  0  0  0  0
  3  2  1  0  0  0  0
  4  3  2  0  0  0  0
  4  5  1  0  0  0  0
  5  1  1  0  0  0  0
  7  3  1  0  0  0  0
  8  9  1  0  0  0  0
  9 11  1  0  0  0  0
 10  9  2  0  0  0  0
 11 16  1  0  0  0  0
 12 11  2  0  0  0  0
 12 13  1  0  0  0  0
 13 18  1  0  0  0  0
 13 14  2  0  0  0  0
 15 14  1  0  0  0  0
 15 19  1  0  0  0  0
 16 15  2  0  0  0  0
 17 12  1  0  0  0  0
 20  4  1  0  0  0  0
 21 20  1  0  0  0  0
 21 30  1  0  0  0  0
 22 21  2  0  0  0  0
 23 22  1  0  0  0  0
 23 28  1  0  0  0  0
 24 23  1  0  0  0  0
 24 26  1  0  0  0  0
 25 24  2  0  0  0  0
 27 26  1  0  0  0  0
 28 26  1  1  0  0  0
 28 29  1  0  0  0  0
 29 30  1  0  0  0  0
 30 31  1  0  0  0  0
 32 22  1  0  0  0  0
 33 32  2  0  0  0  0
 34 32  1  0  0  0  0
 35 34  1  0  0  0  0
M  END
>  <minimizedAffinity>
-5.61523581

>  <minimizedRMSD>
0.790136993

$$$$
