
 OpenBabel03252503353D

 29 31  0  0  1  0  0  0  0  0999 V2000
   49.1660   30.3740   40.5520 C   0  0  0  0  0  0  0  0  0  0  0  0
   49.7050   31.5730   40.4130 C   0  0  0  0  0  0  0  0  0  0  0  0
   48.8880   32.7300   40.3350 N   0  0  0  0  0  0  0  0  0  0  0  0
   48.6790   34.0900   40.6420 C   0  0  0  0  0  0  0  0  0  0  0  0
   49.3550   35.0270   41.1810 O   0  0  0  0  0  0  0  0  0  0  0  0
   47.2960   34.1150   40.0980 C   0  0  1  0  0  0  0  0  0  0  0  0
   47.6020   32.7310   39.6540 C   0  0  2  0  0  0  0  0  0  0  0  0
   46.6220   31.4250   40.4350 S   0  0  0  0  0  0  0  0  0  0  0  0
   47.7280   30.0320   40.6540 C   0  0  0  0  0  0  0  0  0  0  0  0
   47.5440   29.4810   41.6110 H   0  0  0  0  0  0  0  0  0  0  0  0
   46.3130   34.2990   41.1640 C   0  0  0  0  0  0  0  0  0  0  0  0
   45.0570   34.2610   41.1440 O   0  0  0  0  0  0  0  0  0  0  0  0
   46.8750   34.5700   42.4520 N   0  0  0  0  0  0  0  0  0  0  0  0
   47.9010   34.6270   42.6620 H   0  0  0  0  0  0  0  0  0  0  0  0
   44.4360   36.0610   44.8230 C   0  0  0  0  0  0  0  0  0  0  0  0
   45.2210   35.8980   43.6710 C   0  0  0  0  0  0  0  0  0  0  0  0
   46.0560   34.7910   43.5940 C   0  0  0  0  0  0  0  0  0  0  0  0
   46.0900   33.9160   44.6140 N   0  0  0  0  0  0  0  0  0  0  0  0
   45.3190   34.0930   45.7290 C   0  0  0  0  0  0  0  0  0  0  0  0
   44.5060   35.1630   45.8120 N   0  0  0  0  0  0  0  0  0  0  0  0
   43.8180   36.9530   44.7910 H   0  0  0  0  0  0  0  0  0  0  0  0
   45.2260   36.5750   42.8250 H   0  0  0  0  0  0  0  0  0  0  0  0
   45.3550   33.3700   46.5580 H   0  0  0  0  0  0  0  0  0  0  0  0
   50.1350   29.2520   40.6160 C   0  0  0  0  0  0  0  0  0  0  0  0
   50.6980   29.2900   39.6370 H   0  0  0  0  0  0  0  0  0  0  0  0
   51.1540   31.7610   40.3300 C   0  0  0  0  0  0  0  0  0  0  0  0
   51.7970   31.6910   39.2530 O   0  0  0  0  0  0  0  0  0  0  0  0
   52.1320   32.0340   41.2690 O   0  0  0  0  0  0  0  0  0  0  0  0
   52.6050   32.9230   41.2170 H   0  0  0  0  0  0  0  0  0  0  0  0
  1 24  1  0  0  0  0
  1  9  1  0  0  0  0
  2  1  2  0  0  0  0
  3  2  1  0  0  0  0
  3  4  1  0  0  0  0
  4  5  2  0  0  0  0
  6  4  1  0  0  0  0
  6 11  1  1  0  0  0
  7  6  1  0  0  0  0
  7  3  1  0  0  0  0
  7  8  1  1  0  0  0
  8  9  1  0  0  0  0
  9 10  1  0  0  0  0
 11 13  1  0  0  0  0
 12 11  2  0  0  0  0
 13 14  1  0  0  0  0
 13 17  1  0  0  0  0
 15 20  1  0  0  0  0
 16 15  2  0  0  0  0
 17 16  1  0  0  0  0
 17 18  2  0  0  0  0
 18 19  1  0  0  0  0
 19 20  2  0  0  0  0
 19 23  1  0  0  0  0
 21 15  1  0  0  0  0
 22 16  1  0  0  0  0
 25 24  1  0  0  0  0
 26  2  1  0  0  0  0
 26 28  1  0  0  0  0
 27 26  2  0  0  0  0
 29 28  1  0  0  0  0
M  END
>  <minimizedAffinity>
-4.86658573

>  <minimizedRMSD>
1.21005785

$$$$
