
 OpenBabel03242519233D

 41 44  0  0  1  0  0  0  0  0999 V2000
   38.6010   25.5120   41.9120 C   0  0  0  0  0  0  0  0  0  0  0  0
   39.6090   24.9160   42.7200 C   0  0  0  0  0  0  0  0  0  0  0  0
   40.1820   25.6560   43.7540 C   0  0  0  0  0  0  0  0  0  0  0  0
   39.7130   26.9420   43.9110 N   0  0  0  0  0  0  0  0  0  0  0  0
   38.7640   27.4860   43.1400 C   0  0  0  0  0  0  0  0  0  0  0  0
   38.2100   26.7690   42.1430 N   0  0  0  0  0  0  0  0  0  0  0  0
   40.0180   23.9390   42.6620 H   0  0  0  0  0  0  0  0  0  0  0  0
   40.9410   25.3010   44.4120 H   0  0  0  0  0  0  0  0  0  0  0  0
   38.0560   24.6640   40.8350 C   0  0  0  0  0  0  0  0  0  0  0  0
   38.1050   25.3130   39.5090 C   0  0  0  0  0  0  0  0  0  0  0  0
   36.7530   25.6890   38.9740 C   0  0  0  0  0  0  0  0  0  0  0  0
   35.8230   24.4900   38.9040 C   0  0  0  0  0  0  0  0  0  0  0  0
   35.8970   23.6090   40.1160 C   0  0  0  0  0  0  0  0  0  0  0  0
   36.6460   24.2590   41.2480 C   0  0  0  0  0  0  0  0  0  0  0  0
   38.6320   23.6930   40.9000 H   0  0  0  0  0  0  0  0  0  0  0  0
   38.5000   24.5360   38.7880 H   0  0  0  0  0  0  0  0  0  0  0  0
   38.7900   26.1550   39.4130 H   0  0  0  0  0  0  0  0  0  0  0  0
   36.8880   26.0740   37.9440 H   0  0  0  0  0  0  0  0  0  0  0  0
   36.2160   26.4610   39.5230 H   0  0  0  0  0  0  0  0  0  0  0  0
   35.9810   23.9000   37.9680 H   0  0  0  0  0  0  0  0  0  0  0  0
   34.7850   24.8710   38.8170 H   0  0  0  0  0  0  0  0  0  0  0  0
   36.4580   22.6810   39.8020 H   0  0  0  0  0  0  0  0  0  0  0  0
   34.9200   23.2930   40.4790 H   0  0  0  0  0  0  0  0  0  0  0  0
   36.0890   25.1470   41.5600 H   0  0  0  0  0  0  0  0  0  0  0  0
   36.7140   23.5250   42.0790 H   0  0  0  0  0  0  0  0  0  0  0  0
   38.3020   28.8920   43.3710 C   0  0  0  0  0  2  0  0  0  0  0  0
   38.7180   29.8130   42.3180 C   0  0  0  0  0  0  0  0  0  0  0  0
   37.9400   30.3250   41.3800 C   0  0  0  0  0  0  0  0  0  0  0  0
   38.5400   31.1990   40.4370 N   0  0  0  0  0  0  0  0  0  0  0  0
   38.4430   32.3950   39.6320 C   0  0  0  0  0  0  0  0  0  0  0  0
   37.5090   33.2210   39.3490 O   0  0  0  0  0  0  0  0  0  0  0  0
   39.8600   32.3430   39.2220 C   0  0  0  0  0  3  0  0  0  0  0  0
   40.0480   32.3540   38.1280 H   0  0  0  0  0  0  0  0  0  0  0  0
   39.8810   31.0010   39.8650 C   0  0  1  0  0  3  0  0  0  0  0  0
   40.9760   31.0140   41.3080 S   0  0  0  0  0  0  0  0  0  0  0  0
   40.1640   30.0270   42.5650 C   0  0  0  0  0  3  0  0  0  0  0  0
   40.2720   30.5540   43.5380 H   0  0  0  0  0  0  0  0  0  0  0  0
   36.5080   30.0330   41.2610 C   0  0  0  0  0  0  0  0  0  0  0  0
   35.8370   29.0240   41.0100 O   0  0  0  0  0  0  0  0  0  0  0  0
   35.5540   30.9970   41.4420 O   0  0  0  0  0  0  0  0  0  0  0  0
   34.7360   30.8450   42.0040 H   0  0  0  0  0  0  0  0  0  0  0  0
  1  6  2  0  0  0  0
  1  2  1  0  0  0  0
  2  3  2  0  0  0  0
  3  4  1  0  0  0  0
  3  8  1  0  0  0  0
  5 26  1  0  0  0  0
  5  4  2  0  0  0  0
  6  5  1  0  0  0  0
  7  2  1  0  0  0  0
  9 15  1  0  0  0  0
  9 14  1  0  0  0  0
  9  1  1  0  0  0  0
 10  9  1  0  0  0  0
 11 10  1  0  0  0  0
 11 19  1  0  0  0  0
 12 11  1  0  0  0  0
 12 13  1  0  0  0  0
 13 23  1  0  0  0  0
 13 14  1  0  0  0  0
 14 24  1  0  0  0  0
 14 25  1  0  0  0  0
 16 10  1  0  0  0  0
 17 10  1  0  0  0  0
 18 11  1  0  0  0  0
 20 12  1  0  0  0  0
 21 12  1  0  0  0  0
 22 13  1  0  0  0  0
 27 36  1  0  0  0  0
 27 26  1  0  0  0  0
 28 27  2  0  0  0  0
 29 28  1  0  0  0  0
 30 29  1  0  0  0  0
 31 30  2  0  0  0  0
 32 30  1  0  0  0  0
 33 32  1  0  0  0  0
 34 32  1  6  0  0  0
 34 29  1  0  0  0  0
 34 35  1  0  0  0  0
 35 36  1  0  0  0  0
 36 37  1  0  0  0  0
 38 28  1  0  0  0  0
 38 40  1  0  0  0  0
 39 38  2  0  0  0  0
 40 41  1  0  0  0  0
M  END
>  <minimizedAffinity>
-6.51059628

$$$$

 OpenBabel03242519233D

 41 44  0  0  1  0  0  0  0  0999 V2000
   38.4360   24.9390   42.3290 C   0  0  0  0  0  0  0  0  0  0  0  0
   39.7140   24.6600   42.8910 C   0  0  0  0  0  0  0  0  0  0  0  0
   40.3400   25.6270   43.6770 C   0  0  0  0  0  0  0  0  0  0  0  0
   39.6510   26.8080   43.8480 N   0  0  0  0  0  0  0  0  0  0  0  0
   38.4510   27.0530   43.3110 C   0  0  0  0  0  0  0  0  0  0  0  0
   37.8460   26.1170   42.5530 N   0  0  0  0  0  0  0  0  0  0  0  0
   40.3010   23.7810   42.8060 H   0  0  0  0  0  0  0  0  0  0  0  0
   41.2920   25.5140   44.1400 H   0  0  0  0  0  0  0  0  0  0  0  0
   37.8490   23.8670   41.5020 C   0  0  0  0  0  0  0  0  0  0  0  0
   38.7390   23.4320   40.4060 C   0  0  0  0  0  0  0  0  0  0  0  0
   38.2480   23.8250   39.0420 C   0  0  0  0  0  0  0  0  0  0  0  0
   36.8460   23.3050   38.7780 C   0  0  0  0  0  0  0  0  0  0  0  0
   35.9220   23.4660   39.9480 C   0  0  0  0  0  0  0  0  0  0  0  0
   36.4970   24.3660   41.0090 C   0  0  0  0  0  0  0  0  0  0  0  0
   37.5720   23.0470   42.2300 H   0  0  0  0  0  0  0  0  0  0  0  0
   38.7190   22.3010   40.4100 H   0  0  0  0  0  0  0  0  0  0  0  0
   39.7920   23.6920   40.5120 H   0  0  0  0  0  0  0  0  0  0  0  0
   38.9260   23.3720   38.2920 H   0  0  0  0  0  0  0  0  0  0  0  0
   38.2240   24.8930   38.8290 H   0  0  0  0  0  0  0  0  0  0  0  0
   36.8600   22.2470   38.4200 H   0  0  0  0  0  0  0  0  0  0  0  0
   36.4260   23.8780   37.9260 H   0  0  0  0  0  0  0  0  0  0  0  0
   35.7830   22.4370   40.3910 H   0  0  0  0  0  0  0  0  0  0  0  0
   34.9360   23.8380   39.6710 H   0  0  0  0  0  0  0  0  0  0  0  0
   36.6120   25.3670   40.5810 H   0  0  0  0  0  0  0  0  0  0  0  0
   35.7880   24.3830   41.8640 H   0  0  0  0  0  0  0  0  0  0  0  0
   37.7600   28.3620   43.5420 C   0  0  0  0  0  2  0  0  0  0  0  0
   37.5930   29.1450   42.3220 C   0  0  0  0  0  0  0  0  0  0  0  0
   38.4600   30.0130   41.8290 C   0  0  0  0  0  0  0  0  0  0  0  0
   38.1050   30.6850   40.6310 N   0  0  0  0  0  0  0  0  0  0  0  0
   38.5130   31.2130   39.3500 C   0  0  0  0  0  0  0  0  0  0  0  0
   39.6340   31.3890   38.7590 O   0  0  0  0  0  0  0  0  0  0  0  0
   37.1290   31.4980   38.9240 C   0  0  0  0  0  3  0  0  0  0  0  0
   36.9250   32.5420   38.6070 H   0  0  0  0  0  0  0  0  0  0  0  0
   36.7490   31.1660   40.3250 C   0  0  1  0  0  3  0  0  0  0  0  0
   35.7360   29.6650   40.3610 S   0  0  0  0  0  0  0  0  0  0  0  0
   36.2710   28.7310   41.7950 C   0  0  0  0  0  3  0  0  0  0  0  0
   36.3370   27.6610   41.5030 H   0  0  0  0  0  0  0  0  0  0  0  0
   39.7500   30.3190   42.4560 C   0  0  0  0  0  0  0  0  0  0  0  0
   40.8200   29.7150   42.6010 O   0  0  0  0  0  0  0  0  0  0  0  0
   39.9890   31.5180   43.0720 O   0  0  0  0  0  0  0  0  0  0  0  0
   40.8310   32.0430   42.9160 H   0  0  0  0  0  0  0  0  0  0  0  0
  1  6  2  0  0  0  0
  1  2  1  0  0  0  0
  2  3  2  0  0  0  0
  3  4  1  0  0  0  0
  3  8  1  0  0  0  0
  5 26  1  0  0  0  0
  5  4  2  0  0  0  0
  6  5  1  0  0  0  0
  7  2  1  0  0  0  0
  9 15  1  0  0  0  0
  9  1  1  0  0  0  0
 10 16  1  0  0  0  0
 10 17  1  0  0  0  0
 10  9  1  0  0  0  0
 11 10  1  0  0  0  0
 12 11  1  0  0  0  0
 12 13  1  0  0  0  0
 13 22  1  0  0  0  0
 13 14  1  0  0  0  0
 14  9  1  0  0  0  0
 14 25  1  0  0  0  0
 18 11  1  0  0  0  0
 19 11  1  0  0  0  0
 20 12  1  0  0  0  0
 21 12  1  0  0  0  0
 23 13  1  0  0  0  0
 24 14  1  0  0  0  0
 27 26  1  0  0  0  0
 28 27  2  0  0  0  0
 28 38  1  0  0  0  0
 29 28  1  0  0  0  0
 30 29  1  0  0  0  0
 31 30  2  0  0  0  0
 32 30  1  0  0  0  0
 33 32  1  0  0  0  0
 34 32  1  6  0  0  0
 34 35  1  0  0  0  0
 34 29  1  0  0  0  0
 35 36  1  0  0  0  0
 36 27  1  0  0  0  0
 37 36  1  0  0  0  0
 38 39  2  0  0  0  0
 38 40  1  0  0  0  0
 41 40  1  0  0  0  0
M  END
>  <minimizedAffinity>
-6.35893011

$$$$

 OpenBabel03242519233D

 41 44  0  0  1  0  0  0  0  0999 V2000
   37.3220   28.5490   41.9650 C   0  0  0  0  0  0  0  0  0  0  0  0
   36.1880   28.9840   41.2240 C   0  0  0  0  0  0  0  0  0  0  0  0
   36.1920   30.2560   40.6540 C   0  0  0  0  0  0  0  0  0  0  0  0
   37.3260   31.0110   40.8640 N   0  0  0  0  0  0  0  0  0  0  0  0
   38.3830   30.5850   41.5650 C   0  0  0  0  0  0  0  0  0  0  0  0
   38.3780   29.3540   42.1130 N   0  0  0  0  0  0  0  0  0  0  0  0
   35.2860   28.4640   41.0190 H   0  0  0  0  0  0  0  0  0  0  0  0
   35.3950   30.6730   40.0830 H   0  0  0  0  0  0  0  0  0  0  0  0
   37.2300   27.1940   42.5430 C   0  0  0  0  0  0  0  0  0  0  0  0
   38.4230   26.8210   43.3310 C   0  0  0  0  0  0  0  0  0  0  0  0
   39.2600   25.7540   42.6840 C   0  0  0  0  0  0  0  0  0  0  0  0
   38.4500   24.5040   42.3910 C   0  0  0  0  0  0  0  0  0  0  0  0
   37.0920   24.7950   41.8230 C   0  0  0  0  0  0  0  0  0  0  0  0
   36.9490   26.2310   41.3960 C   0  0  0  0  0  0  0  0  0  0  0  0
   36.2630   27.1850   43.1300 H   0  0  0  0  0  0  0  0  0  0  0  0
   38.0400   26.3530   44.2870 H   0  0  0  0  0  0  0  0  0  0  0  0
   39.0580   27.6440   43.6580 H   0  0  0  0  0  0  0  0  0  0  0  0
   40.0670   25.4790   43.3910 H   0  0  0  0  0  0  0  0  0  0  0  0
   39.7500   26.0270   41.7500 H   0  0  0  0  0  0  0  0  0  0  0  0
   38.3760   23.8420   43.2880 H   0  0  0  0  0  0  0  0  0  0  0  0
   39.0120   23.9010   41.6490 H   0  0  0  0  0  0  0  0  0  0  0  0
   36.3500   24.5930   42.6490 H   0  0  0  0  0  0  0  0  0  0  0  0
   36.8300   24.1530   40.9840 H   0  0  0  0  0  0  0  0  0  0  0  0
   37.6580   26.4170   40.5830 H   0  0  0  0  0  0  0  0  0  0  0  0
   35.9040   26.3830   41.0490 H   0  0  0  0  0  0  0  0  0  0  0  0
   39.5830   31.4610   41.7510 C   0  0  0  0  0  2  0  0  0  0  0  0
   40.3840   31.6020   40.5400 C   0  0  0  0  0  0  0  0  0  0  0  0
   40.3330   32.6100   39.6860 C   0  0  0  0  0  0  0  0  0  0  0  0
   41.1900   32.5570   38.5570 N   0  0  0  0  0  0  0  0  0  0  0  0
   42.0600   33.2550   37.6390 C   0  0  0  0  0  0  0  0  0  0  0  0
   42.3390   34.4830   37.4130 O   0  0  0  0  0  0  0  0  0  0  0  0
   42.5470   32.0110   37.0110 C   0  0  0  0  0  3  0  0  0  0  0  0
   42.4370   31.9490   35.9080 H   0  0  0  0  0  0  0  0  0  0  0  0
   41.4850   31.3290   37.8020 C   0  0  1  0  0  3  0  0  0  0  0  0
   42.2300   30.2280   39.0330 S   0  0  0  0  0  0  0  0  0  0  0  0
   41.2390   30.3910   40.5180 C   0  0  0  0  0  3  0  0  0  0  0  0
   41.9290   30.4410   41.3880 H   0  0  0  0  0  0  0  0  0  0  0  0
   39.4380   33.7620   39.8400 C   0  0  0  0  0  0  0  0  0  0  0  0
   39.5520   34.9060   40.2960 O   0  0  0  0  0  0  0  0  0  0  0  0
   38.1320   33.7240   39.4320 O   0  0  0  0  0  0  0  0  0  0  0  0
   37.7140   34.4670   38.9020 H   0  0  0  0  0  0  0  0  0  0  0  0
  1  6  1  0  0  0  0
  1  9  1  0  0  0  0
  2  1  2  0  0  0  0
  3  4  2  0  0  0  0
  3  2  1  0  0  0  0
  4  5  1  0  0  0  0
  5 26  1  0  0  0  0
  5  6  2  0  0  0  0
  7  2  1  0  0  0  0
  8  3  1  0  0  0  0
  9 15  1  0  0  0  0
  9 10  1  0  0  0  0
 10 17  1  0  0  0  0
 10 16  1  0  0  0  0
 11 10  1  0  0  0  0
 11 18  1  0  0  0  0
 12 11  1  0  0  0  0
 12 20  1  0  0  0  0
 13 12  1  0  0  0  0
 13 22  1  0  0  0  0
 14 13  1  0  0  0  0
 14  9  1  0  0  0  0
 19 11  1  0  0  0  0
 21 12  1  0  0  0  0
 23 13  1  0  0  0  0
 24 14  1  0  0  0  0
 25 14  1  0  0  0  0
 27 26  1  0  0  0  0
 28 38  1  0  0  0  0
 28 27  2  0  0  0  0
 29 28  1  0  0  0  0
 30 29  1  0  0  0  0
 31 30  2  0  0  0  0
 32 30  1  0  0  0  0
 33 32  1  0  0  0  0
 34 32  1  6  0  0  0
 34 29  1  0  0  0  0
 34 35  1  0  0  0  0
 35 36  1  0  0  0  0
 36 27  1  0  0  0  0
 36 37  1  0  0  0  0
 38 39  2  0  0  0  0
 40 38  1  0  0  0  0
 41 40  1  0  0  0  0
M  END
>  <minimizedAffinity>
-6.14936113

$$$$

 OpenBabel03242519233D

 41 44  0  0  1  0  0  0  0  0999 V2000
   37.6770   30.7820   39.5760 C   0  0  0  0  0  0  0  0  0  0  0  0
   38.6440   31.7300   39.1380 C   0  0  0  0  0  0  0  0  0  0  0  0
   39.6940   32.0760   39.9870 C   0  0  0  0  0  0  0  0  0  0  0  0
   39.7080   31.4560   41.2180 N   0  0  0  0  0  0  0  0  0  0  0  0
   38.7900   30.5670   41.6130 C   0  0  0  0  0  0  0  0  0  0  0  0
   37.7760   30.2320   40.7900 N   0  0  0  0  0  0  0  0  0  0  0  0
   38.7010   32.2440   38.2120 H   0  0  0  0  0  0  0  0  0  0  0  0
   40.4650   32.7730   39.7520 H   0  0  0  0  0  0  0  0  0  0  0  0
   36.5940   30.4810   38.6200 C   0  0  0  0  0  0  0  0  0  0  0  0
   35.5290   29.6380   39.2020 C   0  0  0  0  0  0  0  0  0  0  0  0
   35.4930   28.2450   38.6410 C   0  0  0  0  0  0  0  0  0  0  0  0
   35.3490   28.2500   37.1300 C   0  0  0  0  0  0  0  0  0  0  0  0
   36.2130   29.2740   36.4550 C   0  0  0  0  0  0  0  0  0  0  0  0
   37.2380   29.8600   37.3870 C   0  0  0  0  0  0  0  0  0  0  0  0
   36.2380   31.4870   38.2460 H   0  0  0  0  0  0  0  0  0  0  0  0
   34.5470   30.1040   38.8910 H   0  0  0  0  0  0  0  0  0  0  0  0
   35.4880   29.6020   40.2910 H   0  0  0  0  0  0  0  0  0  0  0  0
   34.6090   27.7290   39.0660 H   0  0  0  0  0  0  0  0  0  0  0  0
   36.3530   27.6140   38.8650 H   0  0  0  0  0  0  0  0  0  0  0  0
   34.2810   28.3570   36.8190 H   0  0  0  0  0  0  0  0  0  0  0  0
   35.6460   27.2490   36.7570 H   0  0  0  0  0  0  0  0  0  0  0  0
   35.5220   30.1030   36.1180 H   0  0  0  0  0  0  0  0  0  0  0  0
   36.7210   28.8930   35.5700 H   0  0  0  0  0  0  0  0  0  0  0  0
   37.9160   29.0570   37.6960 H   0  0  0  0  0  0  0  0  0  0  0  0
   37.7910   30.6500   36.8360 H   0  0  0  0  0  0  0  0  0  0  0  0
   38.8700   29.9320   42.9660 C   0  0  0  0  0  2  0  0  0  0  0  0
   39.1770   28.5060   42.9140 C   0  0  0  0  0  0  0  0  0  0  0  0
   38.3110   27.5180   43.0570 C   0  0  0  0  0  0  0  0  0  0  0  0
   38.8110   26.1920   42.9830 N   0  0  0  0  0  0  0  0  0  0  0  0
   38.6250   24.8300   42.5390 C   0  0  0  0  0  0  0  0  0  0  0  0
   37.6580   24.1710   42.0230 O   0  0  0  0  0  0  0  0  0  0  0  0
   40.0000   24.4300   42.8980 C   0  0  0  0  0  3  0  0  0  0  0  0
   40.0880   23.5550   43.5760 H   0  0  0  0  0  0  0  0  0  0  0  0
   40.0960   25.7620   43.5540 C   0  0  1  0  0  3  0  0  0  0  0  0
   41.3180   26.7940   42.7020 S   0  0  0  0  0  0  0  0  0  0  0  0
   40.6360   28.4510   42.6600 C   0  0  0  0  0  3  0  0  0  0  0  0
   40.8260   28.8740   41.6500 H   0  0  0  0  0  0  0  0  0  0  0  0
   36.8780   27.7200   43.2940 C   0  0  0  0  0  0  0  0  0  0  0  0
   36.1060   27.5080   44.2380 O   0  0  0  0  0  0  0  0  0  0  0  0
   36.0560   28.2630   42.3440 O   0  0  0  0  0  0  0  0  0  0  0  0
   35.3910   28.9850   42.5570 H   0  0  0  0  0  0  0  0  0  0  0  0
  1  6  1  0  0  0  0
  2  1  2  0  0  0  0
  2  3  1  0  0  0  0
  3  4  2  0  0  0  0
  4  5  1  0  0  0  0
  5 26  1  0  0  0  0
  6  5  2  0  0  0  0
  7  2  1  0  0  0  0
  8  3  1  0  0  0  0
  9 10  1  0  0  0  0
  9  1  1  0  0  0  0
 10 17  1  0  0  0  0
 11 19  1  0  0  0  0
 11 18  1  0  0  0  0
 11 10  1  0  0  0  0
 12 11  1  0  0  0  0
 13 12  1  0  0  0  0
 13 14  1  0  0  0  0
 14 24  1  0  0  0  0
 14  9  1  0  0  0  0
 15  9  1  0  0  0  0
 16 10  1  0  0  0  0
 20 12  1  0  0  0  0
 21 12  1  0  0  0  0
 22 13  1  0  0  0  0
 23 13  1  0  0  0  0
 25 14  1  0  0  0  0
 27 26  1  0  0  0  0
 27 28  2  0  0  0  0
 28 38  1  0  0  0  0
 29 28  1  0  0  0  0
 29 34  1  0  0  0  0
 30 32  1  0  0  0  0
 30 29  1  0  0  0  0
 31 30  2  0  0  0  0
 32 34  1  0  0  0  0
 32 33  1  0  0  0  0
 34 35  1  6  0  0  0
 36 35  1  0  0  0  0
 36 27  1  0  0  0  0
 37 36  1  0  0  0  0
 38 39  2  0  0  0  0
 40 41  1  0  0  0  0
 40 38  1  0  0  0  0
M  END
>  <minimizedAffinity>
-6.10310173

$$$$

 OpenBabel03242519233D

 41 44  0  0  1  0  0  0  0  0999 V2000
   40.0780   31.6630   40.0460 C   0  0  0  0  0  0  0  0  0  0  0  0
   38.9110   31.7080   39.2340 C   0  0  0  0  0  0  0  0  0  0  0  0
   37.7320   31.1260   39.7000 C   0  0  0  0  0  0  0  0  0  0  0  0
   37.7980   30.5380   40.9450 N   0  0  0  0  0  0  0  0  0  0  0  0
   38.9060   30.5050   41.6940 C   0  0  0  0  0  0  0  0  0  0  0  0
   40.0430   31.0690   41.2420 N   0  0  0  0  0  0  0  0  0  0  0  0
   38.7830   32.1410   38.2740 H   0  0  0  0  0  0  0  0  0  0  0  0
   36.8090   31.1070   39.1700 H   0  0  0  0  0  0  0  0  0  0  0  0
   41.2840   32.2920   39.4720 C   0  0  0  0  0  0  0  0  0  0  0  0
   41.6860   33.5240   40.1820 C   0  0  0  0  0  0  0  0  0  0  0  0
   41.4760   34.7750   39.3790 C   0  0  0  0  0  0  0  0  0  0  0  0
   42.1990   34.7150   38.0450 C   0  0  0  0  0  0  0  0  0  0  0  0
   42.0670   33.3880   37.3570 C   0  0  0  0  0  0  0  0  0  0  0  0
   41.0140   32.5200   37.9900 C   0  0  0  0  0  0  0  0  0  0  0  0
   42.0710   31.4790   39.4680 H   0  0  0  0  0  0  0  0  0  0  0  0
   42.8050   33.4550   40.3310 H   0  0  0  0  0  0  0  0  0  0  0  0
   41.2790   33.6530   41.1850 H   0  0  0  0  0  0  0  0  0  0  0  0
   41.8950   35.6240   39.9540 H   0  0  0  0  0  0  0  0  0  0  0  0
   40.4420   35.0360   39.1550 H   0  0  0  0  0  0  0  0  0  0  0  0
   43.2720   35.0100   38.1450 H   0  0  0  0  0  0  0  0  0  0  0  0
   41.7600   35.4910   37.3850 H   0  0  0  0  0  0  0  0  0  0  0  0
   43.0660   32.8720   37.4620 H   0  0  0  0  0  0  0  0  0  0  0  0
   41.8550   33.4750   36.2920 H   0  0  0  0  0  0  0  0  0  0  0  0
   40.0450   33.0160   37.8690 H   0  0  0  0  0  0  0  0  0  0  0  0
   41.0210   31.5380   37.4700 H   0  0  0  0  0  0  0  0  0  0  0  0
   38.9030   29.8480   43.0390 C   0  0  0  0  0  2  0  0  0  0  0  0
   39.1770   28.4150   42.9790 C   0  0  0  0  0  0  0  0  0  0  0  0
   38.2780   27.4480   43.0430 C   0  0  0  0  0  0  0  0  0  0  0  0
   38.7480   26.1110   42.9770 N   0  0  0  0  0  0  0  0  0  0  0  0
   38.5600   24.7630   42.4940 C   0  0  0  0  0  0  0  0  0  0  0  0
   37.6140   24.1390   41.9000 O   0  0  0  0  0  0  0  0  0  0  0  0
   39.8960   24.3200   42.9370 C   0  0  0  0  0  3  0  0  0  0  0  0
   39.9160   23.4300   43.6010 H   0  0  0  0  0  0  0  0  0  0  0  0
   39.9810   25.6370   43.6240 C   0  0  1  0  0  3  0  0  0  0  0  0
   41.2840   26.6510   42.8770 S   0  0  0  0  0  0  0  0  0  0  0  0
   40.6480   28.3260   42.8230 C   0  0  0  0  0  3  0  0  0  0  0  0
   40.9160   28.7630   41.8360 H   0  0  0  0  0  0  0  0  0  0  0  0
   36.8380   27.6840   43.1870 C   0  0  0  0  0  0  0  0  0  0  0  0
   35.9990   27.4780   44.0740 O   0  0  0  0  0  0  0  0  0  0  0  0
   36.0950   28.2620   42.1930 O   0  0  0  0  0  0  0  0  0  0  0  0
   35.4360   28.9980   42.3740 H   0  0  0  0  0  0  0  0  0  0  0  0
  1  6  1  0  0  0  0
  2  3  1  0  0  0  0
  2  1  2  0  0  0  0
  3  4  2  0  0  0  0
  4  5  1  0  0  0  0
  5 26  1  0  0  0  0
  6  5  2  0  0  0  0
  7  2  1  0  0  0  0
  8  3  1  0  0  0  0
  9  1  1  0  0  0  0
  9 10  1  0  0  0  0
 10 16  1  0  0  0  0
 10 17  1  0  0  0  0
 11 18  1  0  0  0  0
 11 10  1  0  0  0  0
 12 20  1  0  0  0  0
 12 11  1  0  0  0  0
 13 22  1  0  0  0  0
 13 14  1  0  0  0  0
 13 12  1  0  0  0  0
 14  9  1  0  0  0  0
 15  9  1  0  0  0  0
 19 11  1  0  0  0  0
 21 12  1  0  0  0  0
 23 13  1  0  0  0  0
 24 14  1  0  0  0  0
 25 14  1  0  0  0  0
 27 26  1  0  0  0  0
 27 28  2  0  0  0  0
 28 38  1  0  0  0  0
 29 28  1  0  0  0  0
 29 34  1  0  0  0  0
 30 32  1  0  0  0  0
 30 29  1  0  0  0  0
 31 30  2  0  0  0  0
 32 33  1  0  0  0  0
 32 34  1  0  0  0  0
 34 35  1  6  0  0  0
 36 35  1  0  0  0  0
 36 27  1  0  0  0  0
 37 36  1  0  0  0  0
 38 39  2  0  0  0  0
 40 41  1  0  0  0  0
 40 38  1  0  0  0  0
M  END
>  <minimizedAffinity>
-6.09806156

$$$$

 OpenBabel03242519233D

 41 44  0  0  1  0  0  0  0  0999 V2000
   38.1330   27.6820   41.0530 C   0  0  0  0  0  0  0  0  0  0  0  0
   38.2400   28.1440   42.3950 C   0  0  0  0  0  0  0  0  0  0  0  0
   38.2600   29.5150   42.6460 C   0  0  0  0  0  0  0  0  0  0  0  0
   38.1740   30.3340   41.5410 N   0  0  0  0  0  0  0  0  0  0  0  0
   38.0750   29.8830   40.2860 C   0  0  0  0  0  0  0  0  0  0  0  0
   38.0550   28.5570   40.0460 N   0  0  0  0  0  0  0  0  0  0  0  0
   38.3070   27.5790   43.2900 H   0  0  0  0  0  0  0  0  0  0  0  0
   38.3360   29.9580   43.6120 H   0  0  0  0  0  0  0  0  0  0  0  0
   38.1300   26.2170   40.8750 C   0  0  0  0  0  0  0  0  0  0  0  0
   37.7110   25.8010   39.5210 C   0  0  0  0  0  0  0  0  0  0  0  0
   36.3690   25.1290   39.4880 C   0  0  0  0  0  0  0  0  0  0  0  0
   36.3200   23.9250   40.4130 C   0  0  0  0  0  0  0  0  0  0  0  0
   36.9680   24.1710   41.7430 C   0  0  0  0  0  0  0  0  0  0  0  0
   37.2560   25.6300   41.9760 C   0  0  0  0  0  0  0  0  0  0  0  0
   39.1700   25.8800   41.1650 H   0  0  0  0  0  0  0  0  0  0  0  0
   38.4450   25.0070   39.1900 H   0  0  0  0  0  0  0  0  0  0  0  0
   37.7630   26.5670   38.7470 H   0  0  0  0  0  0  0  0  0  0  0  0
   36.1910   24.7710   38.4550 H   0  0  0  0  0  0  0  0  0  0  0  0
   35.5120   25.7510   39.7500 H   0  0  0  0  0  0  0  0  0  0  0  0
   36.7400   23.0130   39.9240 H   0  0  0  0  0  0  0  0  0  0  0  0
   35.2540   23.6760   40.5900 H   0  0  0  0  0  0  0  0  0  0  0  0
   37.9490   23.6120   41.7290 H   0  0  0  0  0  0  0  0  0  0  0  0
   36.3870   23.7910   42.5830 H   0  0  0  0  0  0  0  0  0  0  0  0
   36.3020   26.1650   42.0070 H   0  0  0  0  0  0  0  0  0  0  0  0
   37.7910   25.7230   42.9460 H   0  0  0  0  0  0  0  0  0  0  0  0
   37.9850   30.8340   39.1340 C   0  0  0  0  0  2  0  0  0  0  0  0
   39.2260   31.5640   38.8930 C   0  0  0  0  0  0  0  0  0  0  0  0
   39.4930   32.7970   39.2890 C   0  0  0  0  0  0  0  0  0  0  0  0
   40.7600   33.3360   38.9450 N   0  0  0  0  0  0  0  0  0  0  0  0
   41.9000   34.1370   39.3250 C   0  0  0  0  0  0  0  0  0  0  0  0
   42.1750   34.9110   40.3060 O   0  0  0  0  0  0  0  0  0  0  0  0
   42.6860   33.7440   38.1390 C   0  0  0  0  0  3  0  0  0  0  0  0
   43.0740   34.5780   37.5170 H   0  0  0  0  0  0  0  0  0  0  0  0
   41.4290   33.1120   37.6540 C   0  0  1  0  0  3  0  0  0  0  0  0
   41.6240   31.3130   37.5700 S   0  0  0  0  0  0  0  0  0  0  0  0
   40.0750   30.6120   38.1380 C   0  0  0  0  0  3  0  0  0  0  0  0
   40.3110   29.7560   38.8080 H   0  0  0  0  0  0  0  0  0  0  0  0
   38.5540   33.6290   40.0480 C   0  0  0  0  0  0  0  0  0  0  0  0
   37.4620   34.1600   39.8100 O   0  0  0  0  0  0  0  0  0  0  0  0
   38.7950   33.9950   41.3450 O   0  0  0  0  0  0  0  0  0  0  0  0
   38.0940   33.9310   42.0600 H   0  0  0  0  0  0  0  0  0  0  0  0
  1  2  1  0  0  0  0
  2  3  2  0  0  0  0
  2  7  1  0  0  0  0
  3  8  1  0  0  0  0
  4  3  1  0  0  0  0
  5  4  2  0  0  0  0
  6  5  1  0  0  0  0
  6  1  2  0  0  0  0
  9  1  1  0  0  0  0
  9 15  1  0  0  0  0
  9 14  1  0  0  0  0
 10  9  1  0  0  0  0
 11 10  1  0  0  0  0
 11 19  1  0  0  0  0
 11 12  1  0  0  0  0
 12 21  1  0  0  0  0
 12 13  1  0  0  0  0
 13 14  1  0  0  0  0
 13 23  1  0  0  0  0
 14 24  1  0  0  0  0
 14 25  1  0  0  0  0
 16 10  1  0  0  0  0
 17 10  1  0  0  0  0
 18 11  1  0  0  0  0
 20 12  1  0  0  0  0
 22 13  1  0  0  0  0
 26  5  1  0  0  0  0
 27 26  1  0  0  0  0
 27 28  2  0  0  0  0
 28 38  1  0  0  0  0
 29 28  1  0  0  0  0
 29 30  1  0  0  0  0
 30 31  2  0  0  0  0
 32 30  1  0  0  0  0
 33 32  1  0  0  0  0
 34 35  1  1  0  0  0
 34 32  1  0  0  0  0
 34 29  1  0  0  0  0
 35 36  1  0  0  0  0
 36 37  1  0  0  0  0
 36 27  1  0  0  0  0
 38 40  1  0  0  0  0
 39 38  2  0  0  0  0
 40 41  1  0  0  0  0
M  END
>  <minimizedAffinity>
-6.02421999

$$$$

 OpenBabel03242519233D

 41 44  0  0  1  0  0  0  0  0999 V2000
   38.0850   28.3350   42.5230 C   0  0  0  0  0  0  0  0  0  0  0  0
   39.2680   29.0270   42.9070 C   0  0  0  0  0  0  0  0  0  0  0  0
   39.4560   30.3420   42.4850 C   0  0  0  0  0  0  0  0  0  0  0  0
   38.4530   30.8780   41.7060 N   0  0  0  0  0  0  0  0  0  0  0  0
   37.3480   30.2120   41.3550 C   0  0  0  0  0  0  0  0  0  0  0  0
   37.1670   28.9410   41.7650 N   0  0  0  0  0  0  0  0  0  0  0  0
   40.0770   28.6840   43.5010 H   0  0  0  0  0  0  0  0  0  0  0  0
   40.3040   30.9430   42.7180 H   0  0  0  0  0  0  0  0  0  0  0  0
   37.9700   26.9440   43.0030 C   0  0  0  0  0  0  0  0  0  0  0  0
   39.2790   26.3180   43.2790 C   0  0  0  0  0  0  0  0  0  0  0  0
   39.6450   25.2360   42.3030 C   0  0  0  0  0  0  0  0  0  0  0  0
   38.5820   24.1530   42.2400 C   0  0  0  0  0  0  0  0  0  0  0  0
   37.1830   24.6940   42.2230 C   0  0  0  0  0  0  0  0  0  0  0  0
   37.1480   26.1770   41.9740 C   0  0  0  0  0  0  0  0  0  0  0  0
   37.2800   26.9940   43.8980 H   0  0  0  0  0  0  0  0  0  0  0  0
   39.1780   25.7930   44.2750 H   0  0  0  0  0  0  0  0  0  0  0  0
   40.1190   27.0010   43.4080 H   0  0  0  0  0  0  0  0  0  0  0  0
   40.5870   24.7680   42.6500 H   0  0  0  0  0  0  0  0  0  0  0  0
   39.8190   25.5540   41.2750 H   0  0  0  0  0  0  0  0  0  0  0  0
   38.7130   23.4010   43.0570 H   0  0  0  0  0  0  0  0  0  0  0  0
   38.7410   23.5760   41.3070 H   0  0  0  0  0  0  0  0  0  0  0  0
   36.7500   24.4930   43.2470 H   0  0  0  0  0  0  0  0  0  0  0  0
   36.5400   24.2010   41.4950 H   0  0  0  0  0  0  0  0  0  0  0  0
   37.5510   26.3640   40.9740 H   0  0  0  0  0  0  0  0  0  0  0  0
   36.0900   26.5110   42.0400 H   0  0  0  0  0  0  0  0  0  0  0  0
   36.2990   30.8610   40.5070 C   0  0  0  0  0  2  0  0  0  0  0  0
   36.0310   30.1350   39.2690 C   0  0  0  0  0  0  0  0  0  0  0  0
   36.7370   30.2110   38.1540 C   0  0  0  0  0  0  0  0  0  0  0  0
   36.3060   29.4300   37.0510 N   0  0  0  0  0  0  0  0  0  0  0  0
   36.6530   28.6000   35.9210 C   0  0  0  0  0  0  0  0  0  0  0  0
   37.7420   28.2990   35.3200 O   0  0  0  0  0  0  0  0  0  0  0  0
   35.2560   28.1930   35.6740 C   0  0  0  0  0  3  0  0  0  0  0  0
   34.8720   28.3760   34.6490 H   0  0  0  0  0  0  0  0  0  0  0  0
   34.8960   29.2220   36.6880 C   0  0  1  0  0  3  0  0  0  0  0  0
   34.1800   28.4330   38.1540 S   0  0  0  0  0  0  0  0  0  0  0  0
   34.8290   29.3220   39.5700 C   0  0  0  0  0  3  0  0  0  0  0  0
   35.1050   28.5750   40.3470 H   0  0  0  0  0  0  0  0  0  0  0  0
   37.9240   31.0580   37.9990 C   0  0  0  0  0  0  0  0  0  0  0  0
   39.1160   30.9660   38.3190 O   0  0  0  0  0  0  0  0  0  0  0  0
   37.8690   32.2740   37.3730 O   0  0  0  0  0  0  0  0  0  0  0  0
   38.5460   32.5560   36.6870 H   0  0  0  0  0  0  0  0  0  0  0  0
  1  2  1  0  0  0  0
  1  9  1  0  0  0  0
  2  7  1  0  0  0  0
  3  8  1  0  0  0  0
  3  2  2  0  0  0  0
  4  3  1  0  0  0  0
  5  4  2  0  0  0  0
  5  6  1  0  0  0  0
  6  1  2  0  0  0  0
  9 10  1  0  0  0  0
  9 15  1  0  0  0  0
 10 17  1  0  0  0  0
 10 16  1  0  0  0  0
 11 18  1  0  0  0  0
 11 10  1  0  0  0  0
 12 11  1  0  0  0  0
 12 20  1  0  0  0  0
 13 12  1  0  0  0  0
 13 22  1  0  0  0  0
 14 25  1  0  0  0  0
 14 13  1  0  0  0  0
 14  9  1  0  0  0  0
 19 11  1  0  0  0  0
 21 12  1  0  0  0  0
 23 13  1  0  0  0  0
 24 14  1  0  0  0  0
 26  5  1  0  0  0  0
 27 36  1  0  0  0  0
 27 26  1  0  0  0  0
 28 27  2  0  0  0  0
 29 28  1  0  0  0  0
 30 29  1  0  0  0  0
 31 30  2  0  0  0  0
 32 30  1  0  0  0  0
 33 32  1  0  0  0  0
 34 32  1  6  0  0  0
 34 29  1  0  0  0  0
 34 35  1  0  0  0  0
 35 36  1  0  0  0  0
 36 37  1  0  0  0  0
 38 28  1  0  0  0  0
 38 39  2  0  0  0  0
 40 38  1  0  0  0  0
 41 40  1  0  0  0  0
M  END
>  <minimizedAffinity>
-6.00054884

$$$$

 OpenBabel03242519233D

 41 44  0  0  1  0  0  0  0  0999 V2000
   36.7270   28.4420   41.3090 C   0  0  0  0  0  0  0  0  0  0  0  0
   36.5890   27.5810   42.4330 C   0  0  0  0  0  0  0  0  0  0  0  0
   37.3330   27.8360   43.5840 C   0  0  0  0  0  0  0  0  0  0  0  0
   38.1670   28.9330   43.5360 N   0  0  0  0  0  0  0  0  0  0  0  0
   38.2840   29.7310   42.4690 C   0  0  0  0  0  0  0  0  0  0  0  0
   37.5620   29.4830   41.3580 N   0  0  0  0  0  0  0  0  0  0  0  0
   35.9720   26.7260   42.5450 H   0  0  0  0  0  0  0  0  0  0  0  0
   37.3000   27.2530   44.4750 H   0  0  0  0  0  0  0  0  0  0  0  0
   35.9120   28.0940   40.1280 C   0  0  0  0  0  0  0  0  0  0  0  0
   36.7100   27.9720   38.8920 C   0  0  0  0  0  0  0  0  0  0  0  0
   36.4550   29.0710   37.9010 C   0  0  0  0  0  0  0  0  0  0  0  0
   34.9850   29.1670   37.5340 C   0  0  0  0  0  0  0  0  0  0  0  0
   34.0680   29.0350   38.7130 C   0  0  0  0  0  0  0  0  0  0  0  0
   34.8040   29.1340   40.0220 C   0  0  0  0  0  0  0  0  0  0  0  0
   35.3550   27.1530   40.4180 H   0  0  0  0  0  0  0  0  0  0  0  0
   36.3600   27.0270   38.3780 H   0  0  0  0  0  0  0  0  0  0  0  0
   37.7830   27.8340   39.0260 H   0  0  0  0  0  0  0  0  0  0  0  0
   37.0220   28.8380   36.9780 H   0  0  0  0  0  0  0  0  0  0  0  0
   36.7600   30.0730   38.2040 H   0  0  0  0  0  0  0  0  0  0  0  0
   34.7140   28.4390   36.7300 H   0  0  0  0  0  0  0  0  0  0  0  0
   34.8140   30.1610   37.0730 H   0  0  0  0  0  0  0  0  0  0  0  0
   33.6020   28.0080   38.6430 H   0  0  0  0  0  0  0  0  0  0  0  0
   33.2570   29.7620   38.7120 H   0  0  0  0  0  0  0  0  0  0  0  0
   35.2370   30.1370   40.0930 H   0  0  0  0  0  0  0  0  0  0  0  0
   34.0720   28.9630   40.8410 H   0  0  0  0  0  0  0  0  0  0  0  0
   39.2110   30.9070   42.4900 C   0  0  0  0  0  2  0  0  0  0  0  0
   39.9050   31.1140   41.2230 C   0  0  0  0  0  0  0  0  0  0  0  0
   39.7390   32.1370   40.4030 C   0  0  0  0  0  0  0  0  0  0  0  0
   40.5040   32.1500   39.2080 N   0  0  0  0  0  0  0  0  0  0  0  0
   41.2640   32.9090   38.2430 C   0  0  0  0  0  0  0  0  0  0  0  0
   41.4690   34.1540   38.0290 O   0  0  0  0  0  0  0  0  0  0  0  0
   41.7540   31.7040   37.5460 C   0  0  0  0  0  3  0  0  0  0  0  0
   41.5590   31.6630   36.4530 H   0  0  0  0  0  0  0  0  0  0  0  0
   40.7920   30.9560   38.3990 C   0  0  1  0  0  3  0  0  0  0  0  0
   41.6820   29.8630   39.5380 S   0  0  0  0  0  0  0  0  0  0  0  0
   40.8080   29.9450   41.1010 C   0  0  0  0  0  3  0  0  0  0  0  0
   41.5630   30.0080   41.9140 H   0  0  0  0  0  0  0  0  0  0  0  0
   38.8090   33.2420   40.6590 C   0  0  0  0  0  0  0  0  0  0  0  0
   38.9260   34.4310   40.9800 O   0  0  0  0  0  0  0  0  0  0  0  0
   37.4530   33.0840   40.5610 O   0  0  0  0  0  0  0  0  0  0  0  0
   36.8690   33.7430   40.0790 H   0  0  0  0  0  0  0  0  0  0  0  0
  1  6  2  0  0  0  0
  1  2  1  0  0  0  0
  2  7  1  0  0  0  0
  2  3  2  0  0  0  0
  3  8  1  0  0  0  0
  4  3  1  0  0  0  0
  5 26  1  0  0  0  0
  5  4  2  0  0  0  0
  6  5  1  0  0  0  0
  9 15  1  0  0  0  0
  9  1  1  0  0  0  0
 10 17  1  0  0  0  0
 10  9  1  0  0  0  0
 11 19  1  0  0  0  0
 11 10  1  0  0  0  0
 12 11  1  0  0  0  0
 12 13  1  0  0  0  0
 13 14  1  0  0  0  0
 14 24  1  0  0  0  0
 14  9  1  0  0  0  0
 14 25  1  0  0  0  0
 16 10  1  0  0  0  0
 18 11  1  0  0  0  0
 20 12  1  0  0  0  0
 21 12  1  0  0  0  0
 22 13  1  0  0  0  0
 23 13  1  0  0  0  0
 27 26  1  0  0  0  0
 28 38  1  0  0  0  0
 28 27  2  0  0  0  0
 29 28  1  0  0  0  0
 30 29  1  0  0  0  0
 31 30  2  0  0  0  0
 32 30  1  0  0  0  0
 33 32  1  0  0  0  0
 34 32  1  6  0  0  0
 34 29  1  0  0  0  0
 34 35  1  0  0  0  0
 35 36  1  0  0  0  0
 36 27  1  0  0  0  0
 36 37  1  0  0  0  0
 38 39  2  0  0  0  0
 40 38  1  0  0  0  0
 41 40  1  0  0  0  0
M  END
>  <minimizedAffinity>
-5.99784088

$$$$

 OpenBabel03242519233D

 41 44  0  0  1  0  0  0  0  0999 V2000
   37.6410   29.4830   40.2780 C   0  0  0  0  0  0  0  0  0  0  0  0
   37.5420   28.3280   39.4530 C   0  0  0  0  0  0  0  0  0  0  0  0
   37.8220   28.4350   38.0910 C   0  0  0  0  0  0  0  0  0  0  0  0
   38.1800   29.6880   37.6430 N   0  0  0  0  0  0  0  0  0  0  0  0
   38.2680   30.7640   38.4340 C   0  0  0  0  0  0  0  0  0  0  0  0
   37.9990   30.6570   39.7500 N   0  0  0  0  0  0  0  0  0  0  0  0
   37.2760   27.3370   39.7230 H   0  0  0  0  0  0  0  0  0  0  0  0
   37.7760   27.6320   37.3930 H   0  0  0  0  0  0  0  0  0  0  0  0
   37.3170   29.2850   41.7040 C   0  0  0  0  0  0  0  0  0  0  0  0
   38.4790   29.4870   42.5930 C   0  0  0  0  0  0  0  0  0  0  0  0
   38.9780   28.2200   43.2280 C   0  0  0  0  0  0  0  0  0  0  0  0
   37.8810   27.5090   44.0000 C   0  0  0  0  0  0  0  0  0  0  0  0
   36.5670   27.4820   43.2780 C   0  0  0  0  0  0  0  0  0  0  0  0
   36.6990   27.8980   41.8380 C   0  0  0  0  0  0  0  0  0  0  0  0
   36.4460   29.9760   41.9110 H   0  0  0  0  0  0  0  0  0  0  0  0
   38.1140   30.1220   43.4550 H   0  0  0  0  0  0  0  0  0  0  0  0
   39.3150   30.0450   42.1700 H   0  0  0  0  0  0  0  0  0  0  0  0
   39.7790   28.4900   43.9440 H   0  0  0  0  0  0  0  0  0  0  0  0
   39.4060   27.4800   42.5520 H   0  0  0  0  0  0  0  0  0  0  0  0
   37.7650   27.9280   45.0300 H   0  0  0  0  0  0  0  0  0  0  0  0
   38.2060   26.4610   44.1650 H   0  0  0  0  0  0  0  0  0  0  0  0
   35.8970   28.2240   43.8040 H   0  0  0  0  0  0  0  0  0  0  0  0
   36.0730   26.5120   43.3180 H   0  0  0  0  0  0  0  0  0  0  0  0
   37.3330   27.1660   41.3290 H   0  0  0  0  0  0  0  0  0  0  0  0
   35.6820   27.9150   41.3920 H   0  0  0  0  0  0  0  0  0  0  0  0
   38.6650   32.0950   37.8760 C   0  0  0  0  0  2  0  0  0  0  0  0
   39.9950   32.5220   38.3000 C   0  0  0  0  0  0  0  0  0  0  0  0
   40.2680   33.3190   39.3180 C   0  0  0  0  0  0  0  0  0  0  0  0
   41.6320   33.6250   39.5630 N   0  0  0  0  0  0  0  0  0  0  0  0
   42.6900   33.8490   40.5200 C   0  0  0  0  0  0  0  0  0  0  0  0
   42.7460   33.9820   41.7920 O   0  0  0  0  0  0  0  0  0  0  0  0
   43.7440   33.8740   39.4880 C   0  0  0  0  0  3  0  0  0  0  0  0
   44.3900   34.7770   39.4760 H   0  0  0  0  0  0  0  0  0  0  0  0
   42.6250   33.8720   38.5060 C   0  0  1  0  0  3  0  0  0  0  0  0
   42.6340   32.3340   37.5480 S   0  0  0  0  0  0  0  0  0  0  0  0
   40.9170   31.8550   37.3500 C   0  0  0  0  0  3  0  0  0  0  0  0
   40.8460   30.7580   37.5140 H   0  0  0  0  0  0  0  0  0  0  0  0
   39.2450   33.9040   40.1910 C   0  0  0  0  0  0  0  0  0  0  0  0
   38.5260   34.9090   40.1480 O   0  0  0  0  0  0  0  0  0  0  0  0
   38.8840   33.3200   41.3750 O   0  0  0  0  0  0  0  0  0  0  0  0
   37.9240   33.2020   41.6450 H   0  0  0  0  0  0  0  0  0  0  0  0
  1  9  1  0  0  0  0
  2  7  1  0  0  0  0
  2  1  2  0  0  0  0
  3  2  1  0  0  0  0
  4  3  2  0  0  0  0
  4  5  1  0  0  0  0
  5  6  2  0  0  0  0
  6  1  1  0  0  0  0
  8  3  1  0  0  0  0
  9 14  1  0  0  0  0
  9 15  1  0  0  0  0
  9 10  1  0  0  0  0
 10 11  1  0  0  0  0
 10 16  1  0  0  0  0
 11 18  1  0  0  0  0
 11 12  1  0  0  0  0
 12 21  1  0  0  0  0
 12 20  1  0  0  0  0
 13 23  1  0  0  0  0
 13 22  1  0  0  0  0
 13 12  1  0  0  0  0
 14 13  1  0  0  0  0
 17 10  1  0  0  0  0
 19 11  1  0  0  0  0
 24 14  1  0  0  0  0
 25 14  1  0  0  0  0
 26 27  1  0  0  0  0
 26  5  1  0  0  0  0
 27 28  2  0  0  0  0
 28 29  1  0  0  0  0
 28 38  1  0  0  0  0
 29 30  1  0  0  0  0
 30 31  2  0  0  0  0
 32 30  1  0  0  0  0
 33 32  1  0  0  0  0
 34 35  1  6  0  0  0
 34 32  1  0  0  0  0
 34 29  1  0  0  0  0
 36 37  1  0  0  0  0
 36 35  1  0  0  0  0
 36 27  1  0  0  0  0
 38 40  1  0  0  0  0
 39 38  2  0  0  0  0
 40 41  1  0  0  0  0
M  END
>  <minimizedAffinity>
-5.99252272

$$$$
