
     RDKit          3D

 57 61  0  0  0  0  0  0  0  0999 V2000
   47.4101   33.0158   44.4035 C   0  0  2  0  0  0  0  0  0  0  0  0
   47.2268   33.2911   42.9541 C   0  0  1  0  0  0  0  0  0  0  0  0
   47.0491   32.0094   42.1405 C   0  0  0  0  0  0  0  0  0  0  0  0
   48.1612   31.2338   42.4660 O   0  0  0  0  0  0  0  0  0  0  0  0
   48.0734   30.7228   43.7426 C   0  0  0  0  0  0  0  0  0  0  0  0
   47.1955   31.5117   44.6618 C   0  0  1  0  0  0  0  0  0  0  0  0
   44.9758   36.1717   42.7775 C   0  0  0  0  0  0  0  0  0  0  0  0
   43.8908   35.7173   41.9888 C   0  0  0  0  0  0  0  0  0  0  0  0
   43.9814   34.3723   41.5271 C   0  0  0  0  0  0  0  0  0  0  0  0
   45.0650   33.6377   41.8618 N   0  0  0  0  0  0  0  0  0  0  0  0
   46.0655   34.1290   42.6157 C   0  0  0  0  0  0  0  0  0  0  0  0
   46.0174   35.4027   43.0745 N   0  0  0  0  0  0  0  0  0  0  0  0
   44.8910   37.4549   43.2197 O   0  0  0  0  0  0  0  0  0  0  0  0
   46.5387   33.7268   45.2293 O   0  0  0  0  0  0  0  0  0  0  0  0
   47.4547   31.3015   45.9976 O   0  0  0  0  0  0  0  0  0  0  0  0
   45.9179   29.1000   46.2823 F   0  0  0  0  0  0  0  0  0  0  0  0
   45.9962   30.0999   47.1790 C   0  0  0  0  0  0  0  0  0  0  0  0
   46.7463   31.2521   47.1144 C   0  0  0  0  0  0  0  0  0  0  0  0
   46.6161   32.1082   48.2006 C   0  0  0  0  0  0  0  0  0  0  0  0
   45.8226   31.9050   49.3002 C   0  0  0  0  0  0  0  0  0  0  0  0
   45.1048   30.7453   49.3026 C   0  0  0  0  0  0  0  0  0  0  0  0
   45.1607   29.8040   48.2554 C   0  0  0  0  0  0  0  0  0  0  0  0
   48.4578   33.2116   44.6938 H   0  0  0  0  0  0  0  0  0  0  0  0
   48.1335   33.8080   42.5413 H   0  0  0  0  0  0  0  0  0  0  0  0
   46.0896   31.5102   42.3709 H   0  0  0  0  0  0  0  0  0  0  0  0
   47.0720   32.2298   41.0600 H   0  0  0  0  0  0  0  0  0  0  0  0
   47.7012   29.6631   43.6927 H   0  0  0  0  0  0  0  0  0  0  0  0
   49.0982   30.6545   44.1904 H   0  0  0  0  0  0  0  0  0  0  0  0
   46.1333   31.2724   44.4450 H   0  0  0  0  0  0  0  0  0  0  0  0
   43.0753   36.3599   41.7704 H   0  0  0  0  0  0  0  0  0  0  0  0
   43.1604   34.0133   40.9239 H   0  0  0  0  0  0  0  0  0  0  0  0
   44.5102   37.6973   44.1313 H   0  0  0  0  0  0  0  0  0  0  0  0
   45.6911   33.2363   45.3252 H   0  0  0  0  0  0  0  0  0  0  0  0
   47.2417   33.0056   48.0819 H   0  0  0  0  0  0  0  0  0  0  0  0
   45.8311   32.6597   50.0517 H   0  0  0  0  0  0  0  0  0  0  0  0
   44.4965   30.6624   50.2152 H   0  0  0  0  0  0  0  0  0  0  0  0
   44.2942   28.6423   48.5891 C   0  0  0  0  0  0  0  0  0  0  0  0
   44.8391   27.3276   48.2143 C   0  0  0  0  0  0  0  0  0  0  0  0
   45.0851   26.4425   49.1728 C   0  0  0  0  0  0  0  0  0  0  0  0
   44.8538   26.6634   50.6257 C   0  0  0  0  0  0  0  0  0  0  0  0
   44.4298   27.5902   51.3592 O   0  0  0  0  0  0  0  0  0  0  0  0
   45.1126   25.7185   51.5882 O   0  0  0  0  0  0  0  0  0  0  0  0
   45.6367   25.1672   48.8561 N   0  0  0  0  0  0  0  0  0  0  0  0
   45.8823   23.8541   49.2148 C   0  0  0  0  0  0  0  0  0  0  0  0
   45.8576   23.1141   50.2107 O   0  0  0  0  0  0  0  0  0  0  0  0
   46.2577   23.4565   47.8560 C   0  0  2  0  0  0  0  0  0  0  0  0
   45.4534   22.9978   47.2430 H   0  0  0  0  0  0  0  0  0  0  0  0
   46.3074   24.9191   47.6158 C   0  0  1  0  0  0  0  0  0  0  0  0
   45.2722   25.5173   46.2606 S   0  0  0  0  0  0  0  0  0  0  0  0
   45.0164   27.2249   46.7751 C   0  0  1  0  0  0  0  0  0  0  0  0
   44.0674   27.5250   46.2140 H   0  0  0  0  0  0  0  0  0  0  0  0
   43.3945   28.7889   47.8879 H   0  0  0  0  0  0  0  0  0  0  0  0
   43.8398   28.7290   49.5746 H   0  0  0  0  0  0  0  0  0  0  0  0
   44.4420   25.4753   52.2952 H   0  0  0  0  0  0  0  0  0  0  0  0
   47.2512   22.9651   47.7535 H   0  0  0  0  0  0  0  0  0  0  0  0
   47.3485   25.3388   47.6502 H   0  0  0  0  0  0  0  0  0  0  0  0
   45.8922   27.7972   46.4030 H   0  0  0  0  0  0  0  0  0  0  0  0
  1  6  1  0
  1 14  1  0
  2  1  1  0
  3  4  1  0
  3  2  1  0
  4  5  1  0
  5  6  1  0
  6 15  1  0
  7 12  2  0
  7 13  1  0
  8  7  1  0
  9 10  1  0
  9  8  2  0
 10 11  2  0
 11  2  1  0
 11 12  1  0
 15 18  1  0
 16 17  1  0
 17 22  2  0
 18 17  1  0
 18 19  2  0
 19 20  1  0
 20 21  2  0
 22 21  1  0
  1 23  1  1
  2 24  1  6
  3 25  1  0
  3 26  1  0
  5 27  1  0
  5 28  1  0
  6 29  1  1
  8 30  1  0
  9 31  1  0
 13 32  1  0
 14 33  1  0
 19 34  1  0
 20 35  1  0
 21 36  1  0
 37 38  1  0
 38 39  2  0
 39 40  1  0
 40 41  2  0
 40 42  1  0
 39 43  1  0
 43 44  1  0
 44 45  2  0
 44 46  1  0
 46 47  1  6
 46 48  1  0
 48 49  1  0
 49 50  1  0
 50 51  1  6
 50 38  1  0
 48 43  1  0
 37 52  1  0
 37 53  1  0
 42 54  1  0
 46 55  1  0
 48 56  1  1
 50 57  1  0
 22 37  1  0
M  ISO  8  23  13  24  13  25  13  26  13  27  13  28  13  29  13  30  14
M  ISO  8  31  14  32   3  33   3  34  14  35  14  36  14  47  15  51  15
M  END
>  <DihAtoms>  (1) 
16,21,36,37

>  <DihDeg>  (1) 
82.47512019239036

$$$$
