
     RDKit          3D

 34 36  0  0  0  0  0  0  0  0999 V2000
   44.5385   36.0457   44.5663 C   0  0  0  0  0  0  0  0  0  0  0  0
   45.2559   36.0070   43.3605 C   0  0  0  0  0  0  0  0  0  0  0  0
   46.1366   34.9535   43.1527 C   0  0  0  0  0  0  0  0  0  0  0  0
   46.2764   34.0102   44.1011 N   0  0  0  0  0  0  0  0  0  0  0  0
   45.5678   34.0659   45.2697 C   0  0  0  0  0  0  0  0  0  0  0  0
   44.7116   35.0838   45.4799 N   0  0  0  0  0  0  0  0  0  0  0  0
   46.3775   34.2014   40.7893 C   0  0  0  0  0  0  0  0  0  0  0  0
   45.2270   33.7164   40.9342 O   0  0  0  0  0  0  0  0  0  0  0  0
   46.8926   34.8572   41.9524 N   0  0  0  0  0  0  0  0  0  0  0  0
   43.8772   36.9041   44.6372 H   0  0  0  0  0  0  0  0  0  0  0  0
   45.1767   36.7422   42.5694 H   0  0  0  0  0  0  0  0  0  0  0  0
   45.6902   33.2885   46.0388 H   0  0  0  0  0  0  0  0  0  0  0  0
   47.8373   35.3079   42.0211 H   0  0  0  0  0  0  0  0  0  0  0  0
   48.3595   29.0002   37.7221 C   0  0  0  0  0  0  0  0  0  0  0  0
   48.9325   29.2872   36.7916 H   0  0  0  0  0  0  0  0  0  0  0  0
   47.8113   30.2738   38.2506 C   0  0  0  0  0  0  0  0  0  0  0  0
   48.7159   31.1849   38.5664 C   0  0  0  0  0  0  0  0  0  0  0  0
   50.1484   30.9372   38.4008 C   0  0  0  0  0  0  0  0  0  0  0  0
   51.0316   31.7814   38.6926 O   0  0  0  0  0  0  0  0  0  0  0  0
   50.8781   29.8573   37.9396 O   0  0  0  0  0  0  0  0  0  0  0  0
   48.3231   32.4483   39.0794 N   0  0  0  0  0  0  0  0  0  0  0  0
   48.5597   33.5290   39.9525 C   0  0  0  0  0  0  0  0  0  0  0  0
   49.4892   33.8806   40.7519 O   0  0  0  0  0  0  0  0  0  0  0  0
   47.2772   34.2097   39.6371 C   0  0  1  0  0  0  0  0  0  0  0  0
   47.1283   33.1375   38.6191 C   0  0  2  0  0  0  0  0  0  0  0  0
   45.7530   31.9915   38.8870 S   0  0  0  0  0  0  0  0  0  0  0  0
   46.3379   30.3789   38.3677 C   0  0  2  0  0  0  0  0  0  0  0  0
   45.9571   29.5514   39.0186 H   0  0  0  0  0  0  0  0  0  0  0  0
   47.5615   28.3389   37.3615 H   0  0  0  0  0  0  0  0  0  0  0  0
   49.0492   28.4991   38.4339 H   0  0  0  0  0  0  0  0  0  0  0  0
   51.4677   29.3680   38.5945 H   0  0  0  0  0  0  0  0  0  0  0  0
   47.4012   35.2312   39.2171 H   0  0  0  0  0  0  0  0  0  0  0  0
   47.2387   33.4922   37.5823 H   0  0  0  0  0  0  0  0  0  0  0  0
   45.9518   30.2163   37.3190 H   0  0  0  0  0  0  0  0  0  0  0  0
  1  6  2  0
  2  1  1  0
  3  2  2  0
  3  4  1  0
  4  5  2  0
  5  6  1  0
  7  8  2  0
  7  9  1  0
  9  3  1  0
  1 10  1  0
  2 11  1  0
  5 12  1  0
  9 13  1  0
 14 15  1  0
 14 16  1  0
 16 17  2  0
 17 18  1  0
 18 19  2  0
 18 20  1  0
 17 21  1  0
 21 22  1  0
 22 23  2  0
 22 24  1  0
 24 25  1  0
 25 26  1  0
 26 27  1  0
 27 28  1  1
 27 16  1  0
 25 21  1  0
 14 29  1  0
 14 30  1  0
 20 31  1  0
 24 32  1  6
 25 33  1  6
 27 34  1  0
  7 24  1  0
M  ISO  5  10  14  11  14  12  14  15   8  28  15
M  END
>  <DihAtoms>  (1) 
7,6,23,21

>  <DihDeg>  (1) 
-119.99373654688416

$$$$
