
 OpenBabel03252503343D

 29 31  0  0  1  0  0  0  0  0999 V2000
   47.1510   31.2940   36.9160 C   0  0  0  0  0  0  0  0  0  0  0  0
   48.3240   31.4710   37.4990 C   0  0  0  0  0  0  0  0  0  0  0  0
   48.4690   32.3850   38.5750 N   0  0  0  0  0  0  0  0  0  0  0  0
   49.0610   32.7220   39.8080 C   0  0  0  0  0  0  0  0  0  0  0  0
   49.9650   32.2300   40.5610 O   0  0  0  0  0  0  0  0  0  0  0  0
   48.2390   33.9470   39.9950 C   0  0  1  0  0  3  0  0  0  0  0  0
   47.7440   33.6450   38.6280 C   0  0  2  0  0  3  0  0  0  0  0  0
   45.9880   33.2200   38.5080 S   0  0  0  0  0  0  0  0  0  0  0  0
   45.8650   31.9540   37.2450 C   0  0  0  0  0  3  0  0  0  0  0  0
   45.0990   31.1740   37.4890 H   0  0  0  0  0  0  0  0  0  0  0  0
   47.3130   33.7950   41.1160 C   0  0  0  0  0  0  0  0  0  0  0  0
   46.5790   32.8330   41.4560 O   0  0  0  0  0  0  0  0  0  0  0  0
   47.2270   34.9370   41.9750 N   0  0  0  0  0  0  0  0  0  0  0  0
   47.7740   35.8240   41.8560 H   0  0  0  0  0  0  0  0  0  0  0  0
   44.4970   35.8490   44.3220 C   0  0  0  0  0  0  0  0  0  0  0  0
   45.3180   35.8760   43.1840 C   0  0  0  0  0  0  0  0  0  0  0  0
   46.3600   34.9600   43.1020 C   0  0  0  0  0  0  0  0  0  0  0  0
   46.5500   34.0830   44.1030 N   0  0  0  0  0  0  0  0  0  0  0  0
   45.7390   34.0730   45.2050 C   0  0  0  0  0  0  0  0  0  0  0  0
   44.7270   34.9570   45.2930 N   0  0  0  0  0  0  0  0  0  0  0  0
   43.7130   36.5990   44.2950 H   0  0  0  0  0  0  0  0  0  0  0  0
   45.2040   36.5620   42.3540 H   0  0  0  0  0  0  0  0  0  0  0  0
   45.9040   33.3500   46.0180 H   0  0  0  0  0  0  0  0  0  0  0  0
   47.1430   30.3130   35.8030 C   0  0  0  0  0  2  0  0  0  0  0  0
   47.8740   30.7180   35.0440 H   0  0  0  0  0  0  0  0  0  0  0  0
   49.5160   30.7410   37.0670 C   0  0  0  0  0  0  0  0  0  0  0  0
   50.3870   31.2310   36.3060 O   0  0  0  0  0  0  0  0  0  0  0  0
   49.9940   29.4680   37.3210 O   0  0  0  0  0  0  0  0  0  0  0  0
   50.8480   29.3780   37.8480 H   0  0  0  0  0  0  0  0  0  0  0  0
  1  9  1  0  0  0  0
  1  2  2  0  0  0  0
  2  3  1  0  0  0  0
  3  7  1  0  0  0  0
  3  4  1  0  0  0  0
  4  6  1  0  0  0  0
  4  5  2  0  0  0  0
  6 11  1  1  0  0  0
  7  8  1  1  0  0  0
  7  6  1  0  0  0  0
  9 10  1  0  0  0  0
  9  8  1  0  0  0  0
 11 12  2  0  0  0  0
 11 13  1  0  0  0  0
 13 17  1  0  0  0  0
 14 13  1  0  0  0  0
 15 20  1  0  0  0  0
 16 15  2  0  0  0  0
 17 16  1  0  0  0  0
 17 18  2  0  0  0  0
 18 19  1  0  0  0  0
 19 20  2  0  0  0  0
 19 23  1  0  0  0  0
 21 15  1  0  0  0  0
 22 16  1  0  0  0  0
 24  1  1  0  0  0  0
 25 24  1  0  0  0  0
 26 28  1  0  0  0  0
 26  2  1  0  0  0  0
 27 26  2  0  0  0  0
 28 29  1  0  0  0  0
M  END
>  <minimizedAffinity>
-4.48510408

>  <minimizedRMSD>
0.922447145

$$$$
