
 OpenBabel03242518313D

 35 38  0  0  1  0  0  0  0  0999 V2000
   47.1240   33.6130   39.6610 C   0  0  0  0  0  0  0  0  0  0  0  0
   48.1390   34.1370   38.8820 C   0  0  0  0  0  0  0  0  0  0  0  0
   47.8000   33.9300   37.5510 C   0  0  0  0  0  0  0  0  0  0  0  0
   46.5750   33.2780   37.5950 C   0  0  0  0  0  0  0  0  0  0  0  0
   46.2150   33.1120   38.8430 O   0  0  0  0  0  0  0  0  0  0  0  0
   49.0120   34.6120   39.3000 H   0  0  0  0  0  0  0  0  0  0  0  0
   48.4080   34.2360   36.6900 H   0  0  0  0  0  0  0  0  0  0  0  0
   46.9720   33.5610   41.0520 O   0  0  0  0  0  0  0  0  0  0  0  0
   47.1740   34.6900   41.8480 C   0  0  0  0  0  0  0  0  0  0  0  0
   48.0450   35.4930   41.4410 O   0  0  0  0  0  0  0  0  0  0  0  0
   46.3650   34.7790   43.0160 C   0  0  0  0  0  0  0  0  0  0  0  0
   45.5030   35.8580   42.9960 C   0  0  0  0  0  0  0  0  0  0  0  0
   44.6600   36.0330   44.1090 C   0  0  0  0  0  0  0  0  0  0  0  0
   44.7370   35.1470   45.1260 N   0  0  0  0  0  0  0  0  0  0  0  0
   45.6070   34.1050   45.0870 C   0  0  0  0  0  0  0  0  0  0  0  0
   46.4240   33.9200   44.0270 N   0  0  0  0  0  0  0  0  0  0  0  0
   45.4040   36.5980   42.2040 H   0  0  0  0  0  0  0  0  0  0  0  0
   43.9590   36.8560   44.1640 H   0  0  0  0  0  0  0  0  0  0  0  0
   45.6220   33.4250   45.9370 H   0  0  0  0  0  0  0  0  0  0  0  0
   45.8160   32.8470   36.3680 C   0  0  0  0  0  2  0  0  0  0  0  0
   46.2350   31.4710   36.1090 C   0  0  0  0  0  0  0  0  0  0  0  0
   46.9050   31.1810   35.0180 C   0  0  0  0  0  0  0  0  0  0  0  0
   47.3280   29.8790   34.7210 N   0  0  0  0  0  0  0  0  0  0  0  0
   48.3140   29.0030   34.1890 C   0  0  0  0  0  0  0  0  0  0  0  0
   49.1910   29.0740   33.3150 O   0  0  0  0  0  0  0  0  0  0  0  0
   47.8420   27.9660   35.1300 C   0  0  0  0  0  3  0  0  0  0  0  0
   47.8490   26.9400   34.7640 H   0  0  0  0  0  0  0  0  0  0  0  0
   46.5130   28.7110   35.0190 C   0  0  1  0  0  3  0  0  0  0  0  0
   45.6080   28.8310   36.5560 S   0  0  0  0  0  0  0  0  0  0  0  0
   45.8380   30.5280   37.1520 C   0  0  0  0  0  3  0  0  0  0  0  0
   46.5930   30.4620   37.9870 H   0  0  0  0  0  0  0  0  0  0  0  0
   47.2350   32.2310   34.0600 C   0  0  0  0  0  0  0  0  0  0  0  0
   48.3710   32.7570   33.9210 O   0  0  0  0  0  0  0  0  0  0  0  0
   47.2100   33.1910   33.0690 O   0  0  0  0  0  0  0  0  0  0  0  0
   46.6360   33.1800   32.2370 H   0  0  0  0  0  0  0  0  0  0  0  0
  1  8  1  0  0  0  0
  2  6  1  0  0  0  0
  2  1  2  0  0  0  0
  3  4  2  0  0  0  0
  3  2  1  0  0  0  0
  4  5  1  0  0  0  0
  5  1  1  0  0  0  0
  7  3  1  0  0  0  0
  8  9  1  0  0  0  0
  9 11  1  0  0  0  0
 10  9  2  0  0  0  0
 11 16  1  0  0  0  0
 12 11  2  0  0  0  0
 12 13  1  0  0  0  0
 13 18  1  0  0  0  0
 13 14  2  0  0  0  0
 15 14  1  0  0  0  0
 15 19  1  0  0  0  0
 16 15  2  0  0  0  0
 17 12  1  0  0  0  0
 20  4  1  0  0  0  0
 21 20  1  0  0  0  0
 21 30  1  0  0  0  0
 22 21  2  0  0  0  0
 23 22  1  0  0  0  0
 23 28  1  0  0  0  0
 24 23  1  0  0  0  0
 24 26  1  0  0  0  0
 25 24  2  0  0  0  0
 27 26  1  0  0  0  0
 28 26  1  1  0  0  0
 28 29  1  0  0  0  0
 29 30  1  0  0  0  0
 30 31  1  0  0  0  0
 32 22  1  0  0  0  0
 33 32  2  0  0  0  0
 34 32  1  0  0  0  0
 35 34  1  0  0  0  0
M  END
>  <minimizedAffinity>
-5.45708942

>  <minimizedRMSD>
0.468725711

$$$$
