REMARK  Name = 
REMARK  5 active torsions:
REMARK  status: ('A' for Active; 'I' for Inactive)
REMARK    1  A    between atoms: C_1  and  C_7
REMARK    2  A    between atoms: C_7  and  C_22
REMARK    3  A    between atoms: C_12  and  C_14
REMARK    4  A    between atoms: C_15  and  C_16
REMARK    5  A    between atoms: C_16  and  O_18
REMARK                            x       y       z     vdW  Elec       q    Type
REMARK                         _______ _______ _______ _____ _____    ______ ____
ROOT
ATOM      1  C   UNL     1      42.419  34.820  40.012  0.00  0.00    +0.000 C 
ATOM      2  C   UNL     1      43.429  34.671  39.197  0.00  0.00    +0.000 C 
ATOM      3  N   UNL     1      44.741  34.479  39.715  0.00  0.00    +0.000 N 
ATOM      4  C   UNL     1      46.145  34.792  39.591  0.00  0.00    +0.000 C 
ATOM      5  O   UNL     1      46.893  35.448  38.788  0.00  0.00    +0.000 OA
ATOM      6  C   UNL     1      46.419  34.026  40.812  0.00  0.00    +0.000 C 
ATOM      7  C   UNL     1      44.990  33.623  40.888  0.00  0.00    +0.000 C 
ATOM      8  S   UNL     1      44.012  34.314  42.212  0.00  0.00    +0.000 S 
ATOM      9  C   UNL     1      42.451  34.829  41.490  0.00  0.00    +0.000 C 
ATOM     10  H   UNL     1      41.685  34.064  41.815  0.00  0.00    +0.000 HD
ENDROOT
BRANCH   6  11
ATOM     11  C   UNL     1      46.956  34.808  41.969  0.00  0.00    +0.000 C 
ATOM     12  O   UNL     1      48.059  35.388  41.728  0.00  0.00    +0.000 OA
BRANCH  11  13
ATOM     13  C   UNL     1      46.220  34.836  43.191  0.00  0.00    +0.000 A 
ATOM     14  C   UNL     1      45.327  35.902  43.281  0.00  0.00    +0.000 A 
ATOM     15  C   UNL     1      44.556  36.012  44.453  0.00  0.00    +0.000 A 
ATOM     16  N   UNL     1      44.741  35.062  45.418  0.00  0.00    +0.000 NA
ATOM     17  C   UNL     1      45.613  34.053  45.287  0.00  0.00    +0.000 A 
ATOM     18  N   UNL     1      46.354  33.942  44.168  0.00  0.00    +0.000 NA
ATOM     19  H   UNL     1      45.186  36.651  42.511  0.00  0.00    +0.000 HD
ATOM     20  H   UNL     1      43.846  36.819  44.578  0.00  0.00    +0.000 HD
ATOM     21  H   UNL     1      45.661  33.370  46.128  0.00  0.00    +0.000 HD
ENDBRANCH  11  13
ENDBRANCH   6  11
BRANCH   1  22
ATOM     22  C   UNL     1      41.104  35.005  39.347  0.00  0.00    +0.000 C 
ATOM     23  H   UNL     1      40.320  35.111  40.123  0.00  0.00    +0.000 HD
ENDBRANCH   1  22
BRANCH   2  24
ATOM     24  C   UNL     1      43.268  34.687  37.736  0.00  0.00    +0.000 C 
ATOM     25  O   UNL     1      42.213  34.833  37.071  0.00  0.00    +0.000 OA
BRANCH  24  26
ATOM     26  O   UNL     1      44.316  34.535  36.846  0.00  0.00    +0.000 OA
ATOM     27  H   UNL     1      44.398  35.084  36.005  0.00  0.00    +0.000 HD
ENDBRANCH  24  26
ENDBRANCH   2  24
TORSDOF 5
