
 OpenBabel03242519013D

 46 50  0  0  1  0  0  0  0  0999 V2000
   46.1920   31.4930   42.9530 C   0  0  0  0  0  0  0  0  0  0  0  0
   47.4200   31.1870   42.3510 C   0  0  0  0  0  0  0  0  0  0  0  0
   48.4100   30.6380   43.1830 C   0  0  0  0  0  0  0  0  0  0  0  0
   48.1010   30.4430   44.5020 N   0  0  0  0  0  0  0  0  0  0  0  0
   46.8780   30.7610   45.0330 C   0  0  0  0  0  0  0  0  0  0  0  0
   45.9020   31.2950   44.2540 N   0  0  0  0  0  0  0  0  0  0  0  0
   47.7150   31.2810   41.3480 H   0  0  0  0  0  0  0  0  0  0  0  0
   49.3990   30.3610   42.8410 H   0  0  0  0  0  0  0  0  0  0  0  0
   45.1610   32.0670   42.0920 C   0  0  1  0  0  0  0  0  0  0  0  0
   44.5250   33.3730   42.4730 C   0  0  0  0  0  0  0  0  0  0  0  0
   45.3520   33.3730   41.3590 C   0  0  1  0  0  0  0  0  0  0  0  0
   44.5750   31.2700   41.5620 H   0  0  0  0  0  0  0  0  0  0  0  0
   43.4010   33.3500   42.3260 H   0  0  0  0  0  0  0  0  0  0  0  0
   44.7370   33.7890   43.4890 H   0  0  0  0  0  0  0  0  0  0  0  0
   45.0040   33.2500   40.3070 H   0  0  0  0  0  0  0  0  0  0  0  0
   46.6250   34.1400   41.3780 C   0  0  0  0  0  0  0  0  0  0  0  0
   47.1200   34.7400   42.5120 C   0  0  0  0  0  0  0  0  0  0  0  0
   48.2610   35.4900   42.5680 C   0  0  0  0  0  0  0  0  0  0  0  0
   48.9710   35.6600   41.4020 C   0  0  0  0  0  0  0  0  0  0  0  0
   48.5040   35.0690   40.2300 C   0  0  0  0  0  0  0  0  0  0  0  0
   47.3530   34.3310   40.2470 C   0  0  0  0  0  0  0  0  0  0  0  0
   46.5780   34.6210   43.4490 H   0  0  0  0  0  0  0  0  0  0  0  0
   48.5860   35.9320   43.5040 H   0  0  0  0  0  0  0  0  0  0  0  0
   49.8820   36.2720   41.4970 H   0  0  0  0  0  0  0  0  0  0  0  0
   49.1800   35.3040   39.4180 H   0  0  0  0  0  0  0  0  0  0  0  0
   47.9860   32.7720   38.5380 C   0  0  0  0  0  0  0  0  0  0  0  0
   48.6730   32.4910   39.5220 O   0  0  0  0  0  0  0  0  0  0  0  0
   47.1330   33.8740   38.8990 N   0  0  0  0  0  0  0  0  0  0  0  0
   47.8680   32.4150   37.5160 H   0  0  0  0  0  0  0  0  0  0  0  0
   46.4000   34.3480   38.2910 H   0  0  0  0  0  0  0  0  0  0  0  0
   46.6270   30.5100   46.5000 C   0  0  0  0  0  0  0  0  0  0  0  0
   47.6750   29.6660   47.0890 C   0  0  0  0  0  0  0  0  0  0  0  0
   48.5430   30.0970   47.9880 C   0  0  0  0  0  0  0  0  0  0  0  0
   49.5120   29.1900   48.4940 N   0  0  0  0  0  0  0  0  0  0  0  0
   50.8350   29.0090   48.9490 C   0  0  0  0  0  0  0  0  0  0  0  0
   51.8620   29.6890   49.2230 O   0  0  0  0  0  0  0  0  0  0  0  0
   50.7060   27.5370   49.0480 C   0  0  0  0  0  0  0  0  0  0  0  0
   51.2880   26.9970   48.2720 H   0  0  0  0  0  0  0  0  0  0  0  0
   49.2710   27.7800   48.7350 C   0  0  2  0  0  0  0  0  0  0  0  0
   48.7250   27.1140   47.1230 S   0  0  0  0  0  0  0  0  0  0  0  0
   47.5440   28.3250   46.4750 C   0  0  0  0  0  0  0  0  0  0  0  0
   47.7410   28.4180   45.3660 H   0  0  0  0  0  0  0  0  0  0  0  0
   48.5600   31.4610   48.5000 C   0  0  0  0  0  0  0  0  0  0  0  0
   47.9120   32.5190   48.3570 O   0  0  0  0  0  0  0  0  0  0  0  0
   49.4810   31.9140   49.4170 O   0  0  0  0  0  0  0  0  0  0  0  0
   50.0340   32.7610   49.3760 H   0  0  0  0  0  0  0  0  0  0  0  0
  1  6  1  0  0  0  0
  2  1  2  0  0  0  0
  2  3  1  0  0  0  0
  3  4  2  0  0  0  0
  4  5  1  0  0  0  0
  5 31  1  0  0  0  0
  6  5  2  0  0  0  0
  7  2  1  0  0  0  0
  8  3  1  0  0  0  0
  9 12  1  6  0  0  0
  9 10  1  0  0  0  0
  9  1  1  0  0  0  0
 10 14  1  0  0  0  0
 11 15  1  6  0  0  0
 11 16  1  0  0  0  0
 11  9  1  0  0  0  0
 11 10  1  0  0  0  0
 13 10  1  0  0  0  0
 16 17  1  0  0  0  0
 17 18  2  0  0  0  0
 17 22  1  0  0  0  0
 18 23  1  0  0  0  0
 19 24  1  0  0  0  0
 19 18  1  0  0  0  0
 20 21  1  0  0  0  0
 20 19  2  0  0  0  0
 21 16  2  0  0  0  0
 25 20  1  0  0  0  0
 26 28  1  0  0  0  0
 26 27  2  0  0  0  0
 28 21  1  0  0  0  0
 29 26  1  0  0  0  0
 30 28  1  0  0  0  0
 31 32  1  0  0  0  0
 32 33  2  0  0  0  0
 33 34  1  0  0  0  0
 33 43  1  0  0  0  0
 34 39  1  0  0  0  0
 34 35  1  0  0  0  0
 35 37  1  0  0  0  0
 35 36  2  0  0  0  0
 38 37  1  0  0  0  0
 39 40  1  6  0  0  0
 39 37  1  0  0  0  0
 41 32  1  0  0  0  0
 41 40  1  0  0  0  0
 42 41  1  0  0  0  0
 43 45  1  0  0  0  0
 44 43  2  0  0  0  0
 46 45  1  0  0  0  0
M  END
>  <minimizedAffinity>
-5.12235308

>  <minimizedRMSD>
2.82307148

$$$$
