
 OpenBabel03252504433D

 52 56  0  0  1  0  0  0  0  0999 V2000
   36.4080   29.8130   37.5670 C   0  0  0  0  0  0  0  0  0  0  0  0
   36.5240   29.7240   36.4650 H   0  0  0  0  0  0  0  0  0  0  0  0
   35.3960   30.2170   37.7750 H   0  0  0  0  0  0  0  0  0  0  0  0
   36.5590   28.4860   38.2350 C   0  0  0  0  0  0  0  0  0  0  0  0
   35.8810   27.3360   37.9240 C   0  0  0  0  0  0  0  0  0  0  0  0
   36.3230   26.4000   38.7640 N   0  0  0  0  0  0  0  0  0  0  0  0
   37.2510   26.8950   39.5990 C   0  0  0  0  0  0  0  0  0  0  0  0
   37.3920   28.2060   39.2580 N   0  0  0  0  0  0  0  0  0  0  0  0
   37.9960   26.2980   40.6430 N   0  0  0  0  0  0  0  0  0  0  0  0
   37.3890   26.3000   41.9920 C   0  0  0  0  0  0  0  0  0  0  0  0
   36.9210   24.8640   42.2020 C   0  0  0  0  0  0  0  0  0  0  0  0
   38.0110   23.8910   41.8300 C   0  0  0  0  0  0  0  0  0  0  0  0
   39.3320   24.6150   41.7620 C   0  0  0  0  0  0  0  0  0  0  0  0
   39.2780   25.6600   40.6690 C   0  0  0  0  0  0  0  0  0  0  0  0
   35.1280   27.1920   37.1500 H   0  0  0  0  0  0  0  0  0  0  0  0
   36.0200   25.3950   38.8100 H   0  0  0  0  0  0  0  0  0  0  0  0
   38.0870   26.6450   42.7580 H   0  0  0  0  0  0  0  0  0  0  0  0
   36.4710   26.9330   42.0170 H   0  0  0  0  0  0  0  0  0  0  0  0
   35.9720   24.6860   41.6920 H   0  0  0  0  0  0  0  0  0  0  0  0
   36.7320   24.7590   43.3050 H   0  0  0  0  0  0  0  0  0  0  0  0
   37.7940   23.4950   40.8150 H   0  0  0  0  0  0  0  0  0  0  0  0
   38.0570   23.0180   42.4970 H   0  0  0  0  0  0  0  0  0  0  0  0
   39.4730   25.1380   42.7410 H   0  0  0  0  0  0  0  0  0  0  0  0
   40.1740   23.9190   41.6350 H   0  0  0  0  0  0  0  0  0  0  0  0
   39.4690   25.1030   39.7190 H   0  0  0  0  0  0  0  0  0  0  0  0
   40.0460   26.4470   40.7800 H   0  0  0  0  0  0  0  0  0  0  0  0
   37.0250   31.7340   38.9800 C   0  0  0  0  0  3  0  0  0  0  0  0
   37.3730   30.7870   38.1200 C   0  0  0  0  0  3  0  0  0  0  0  0
   38.0810   32.6320   39.4490 C   0  0  0  0  0  0  0  0  0  0  0  0
   37.7650   33.9510   39.8930 C   0  0  0  0  0  0  0  0  0  0  0  0
   38.8460   34.7240   40.3180 C   0  0  0  0  0  0  0  0  0  0  0  0
   40.1110   34.2360   40.3050 N   0  0  0  0  0  0  0  0  0  0  0  0
   40.3700   32.9680   39.8730 C   0  0  0  0  0  0  0  0  0  0  0  0
   39.3570   32.2100   39.4610 N   0  0  0  0  0  0  0  0  0  0  0  0
   36.7420   34.2340   39.8620 H   0  0  0  0  0  0  0  0  0  0  0  0
   38.5970   35.7140   40.6500 H   0  0  0  0  0  0  0  0  0  0  0  0
   41.6990   32.3830   39.8860 C   0  0  0  0  0  2  0  0  0  0  0  0
   42.1290   31.5300   38.8040 C   0  0  0  0  0  0  0  0  0  0  0  0
   42.5550   31.7310   37.5720 C   0  0  0  0  0  0  0  0  0  0  0  0
   42.9000   30.6560   36.7030 N   0  0  0  0  0  0  0  0  0  0  0  0
   43.8330   30.0720   35.8050 C   0  0  0  0  0  0  0  0  0  0  0  0
   44.6550   30.5970   34.9920 O   0  0  0  0  0  0  0  0  0  0  0  0
   43.3570   28.7490   36.2960 C   0  0  0  0  0  3  0  0  0  0  0  0
   43.3890   27.9380   35.5600 H   0  0  0  0  0  0  0  0  0  0  0  0
   42.0570   29.4690   36.4400 C   0  0  1  0  0  3  0  0  0  0  0  0
   41.1540   29.1820   37.9780 S   0  0  0  0  0  0  0  0  0  0  0  0
   42.0880   30.1150   39.2550 C   0  0  0  0  0  3  0  0  0  0  0  0
   43.1270   29.7160   39.2270 H   0  0  0  0  0  0  0  0  0  0  0  0
   42.6460   33.1090   37.1230 C   0  0  0  0  0  0  0  0  0  0  0  0
   43.6160   33.8120   37.4900 O   0  0  0  0  0  0  0  0  0  0  0  0
   42.6650   34.3980   36.6570 O   0  0  0  0  0  0  0  0  0  0  0  0
   42.3910   34.6890   35.7030 H   0  0  0  0  0  0  0  0  0  0  0  0
  1  3  1  0  0  0  0
  1 28  1  0  0  0  0
  1  4  1  0  0  0  0
  2  1  1  0  0  0  0
  4  8  1  0  0  0  0
  5  4  2  0  0  0  0
  5  6  1  0  0  0  0
  6 16  1  0  0  0  0
  6  7  1  0  0  0  0
  7  9  1  0  0  0  0
  8  7  2  0  0  0  0
  9 14  1  0  0  0  0
  9 10  1  0  0  0  0
 10 18  1  0  0  0  0
 10 11  1  0  0  0  0
 10 17  1  0  0  0  0
 11 20  1  0  0  0  0
 12 11  1  0  0  0  0
 12 22  1  0  0  0  0
 13 12  1  0  0  0  0
 13 23  1  0  0  0  0
 14 26  1  0  0  0  0
 14 13  1  0  0  0  0
 15  5  1  0  0  0  0
 19 11  1  0  0  0  0
 21 12  1  0  0  0  0
 24 13  1  0  0  0  0
 25 14  1  0  0  0  0
 27 29  1  0  0  0  0
 28 27  2  0  0  0  0
 29 34  2  0  0  0  0
 29 30  1  0  0  0  0
 30 31  2  0  0  0  0
 31 36  1  0  0  0  0
 32 31  1  0  0  0  0
 33 37  1  0  0  0  0
 33 32  2  0  0  0  0
 34 33  1  0  0  0  0
 35 30  1  0  0  0  0
 38 47  1  0  0  0  0
 38 37  1  0  0  0  0
 39 38  2  0  0  0  0
 40 39  1  0  0  0  0
 41 43  1  0  0  0  0
 41 40  1  0  0  0  0
 42 41  2  0  0  0  0
 44 43  1  0  0  0  0
 45 43  1  1  0  0  0
 45 40  1  0  0  0  0
 45 46  1  0  0  0  0
 46 47  1  0  0  0  0
 48 47  1  0  0  0  0
 49 50  2  0  0  0  0
 49 39  1  0  0  0  0
 51 49  1  0  0  0  0
 52 51  1  0  0  0  0
M  END
>  <minimizedAffinity>
-6.98177862

$$$$

 OpenBabel03252504433D

 52 56  0  0  1  0  0  0  0  0999 V2000
   35.6700   26.1570   38.1120 C   0  0  0  0  0  0  0  0  0  0  0  0
   35.0330   25.2550   38.2360 H   0  0  0  0  0  0  0  0  0  0  0  0
   36.3500   25.9830   37.2530 H   0  0  0  0  0  0  0  0  0  0  0  0
   34.8400   27.3710   37.8480 C   0  0  0  0  0  0  0  0  0  0  0  0
   34.8700   28.5470   38.5510 C   0  0  0  0  0  0  0  0  0  0  0  0
   33.9730   29.3500   37.9790 N   0  0  0  0  0  0  0  0  0  0  0  0
   33.3690   28.7460   36.9430 C   0  0  0  0  0  0  0  0  0  0  0  0
   33.9210   27.5020   36.8690 N   0  0  0  0  0  0  0  0  0  0  0  0
   32.3690   29.1870   36.0450 N   0  0  0  0  0  0  0  0  0  0  0  0
   30.9610   28.9750   36.4450 C   0  0  0  0  0  0  0  0  0  0  0  0
   30.4700   30.3570   36.8600 C   0  0  0  0  0  0  0  0  0  0  0  0
   30.8480   31.3880   35.8270 C   0  0  0  0  0  0  0  0  0  0  0  0
   31.2200   30.6970   34.5390 C   0  0  0  0  0  0  0  0  0  0  0  0
   32.4380   29.8280   34.7660 C   0  0  0  0  0  0  0  0  0  0  0  0
   35.4930   28.7980   39.4090 H   0  0  0  0  0  0  0  0  0  0  0  0
   33.7320   30.3330   38.2610 H   0  0  0  0  0  0  0  0  0  0  0  0
   30.3680   28.5260   35.6450 H   0  0  0  0  0  0  0  0  0  0  0  0
   30.8960   28.3350   37.3560 H   0  0  0  0  0  0  0  0  0  0  0  0
   30.8010   30.6000   37.8720 H   0  0  0  0  0  0  0  0  0  0  0  0
   29.3480   30.2930   36.8830 H   0  0  0  0  0  0  0  0  0  0  0  0
   31.7490   31.9300   36.1880 H   0  0  0  0  0  0  0  0  0  0  0  0
   30.0720   32.1510   35.6720 H   0  0  0  0  0  0  0  0  0  0  0  0
   30.3620   30.0340   34.2600 H   0  0  0  0  0  0  0  0  0  0  0  0
   31.3640   31.4140   33.7170 H   0  0  0  0  0  0  0  0  0  0  0  0
   33.3110   30.5240   34.7120 H   0  0  0  0  0  0  0  0  0  0  0  0
   32.5620   29.0420   34.0000 H   0  0  0  0  0  0  0  0  0  0  0  0
   36.7830   25.4030   40.1750 C   0  0  0  0  0  3  0  0  0  0  0  0
   36.5310   26.3630   39.2960 C   0  0  0  0  0  3  0  0  0  0  0  0
   37.6520   25.7420   41.3030 C   0  0  0  0  0  0  0  0  0  0  0  0
   38.4910   24.7490   41.8930 C   0  0  0  0  0  0  0  0  0  0  0  0
   39.2780   25.1790   42.9620 C   0  0  0  0  0  0  0  0  0  0  0  0
   39.2370   26.4610   43.3990 N   0  0  0  0  0  0  0  0  0  0  0  0
   38.4210   27.3790   42.8060 C   0  0  0  0  0  0  0  0  0  0  0  0
   37.6590   26.9960   41.7850 N   0  0  0  0  0  0  0  0  0  0  0  0
   38.4470   23.7750   41.4750 H   0  0  0  0  0  0  0  0  0  0  0  0
   39.9060   24.4240   43.3990 H   0  0  0  0  0  0  0  0  0  0  0  0
   38.3770   28.7750   43.2040 C   0  0  0  0  0  2  0  0  0  0  0  0
   38.9090   29.7980   42.3340 C   0  0  0  0  0  0  0  0  0  0  0  0
   38.3850   30.6840   41.5120 C   0  0  0  0  0  0  0  0  0  0  0  0
   39.1880   31.5780   40.7470 N   0  0  0  0  0  0  0  0  0  0  0  0
   39.4590   32.9070   40.3220 C   0  0  0  0  0  0  0  0  0  0  0  0
   38.6870   33.8910   40.1040 O   0  0  0  0  0  0  0  0  0  0  0  0
   40.8980   32.5200   40.2950 C   0  0  0  0  0  3  0  0  0  0  0  0
   41.5050   33.0320   39.5400 H   0  0  0  0  0  0  0  0  0  0  0  0
   40.3480   31.1840   39.9170 C   0  0  1  0  0  3  0  0  0  0  0  0
   41.0700   29.7590   40.7620 S   0  0  0  0  0  0  0  0  0  0  0  0
   40.3880   29.8250   42.4660 C   0  0  0  0  0  3  0  0  0  0  0  0
   40.6770   30.8210   42.8730 H   0  0  0  0  0  0  0  0  0  0  0  0
   36.9370   30.7060   41.3990 C   0  0  0  0  0  0  0  0  0  0  0  0
   36.4070   31.2310   40.3930 O   0  0  0  0  0  0  0  0  0  0  0  0
   35.5670   30.6880   41.3630 O   0  0  0  0  0  0  0  0  0  0  0  0
   34.9750   29.8980   41.6720 H   0  0  0  0  0  0  0  0  0  0  0  0
  1  2  1  0  0  0  0
  1 28  1  0  0  0  0
  3  1  1  0  0  0  0
  4  1  1  0  0  0  0
  4  5  2  0  0  0  0
  5 15  1  0  0  0  0
  6 16  1  0  0  0  0
  6  5  1  0  0  0  0
  7  6  1  0  0  0  0
  8  7  2  0  0  0  0
  8  4  1  0  0  0  0
  9 10  1  0  0  0  0
  9  7  1  0  0  0  0
 10 11  1  0  0  0  0
 10 18  1  0  0  0  0
 11 20  1  0  0  0  0
 11 19  1  0  0  0  0
 12 21  1  0  0  0  0
 12 11  1  0  0  0  0
 13 14  1  0  0  0  0
 13 12  1  0  0  0  0
 14  9  1  0  0  0  0
 17 10  1  0  0  0  0
 22 12  1  0  0  0  0
 23 13  1  0  0  0  0
 24 13  1  0  0  0  0
 25 14  1  0  0  0  0
 26 14  1  0  0  0  0
 27 29  1  0  0  0  0
 28 27  2  0  0  0  0
 29 34  2  0  0  0  0
 29 30  1  0  0  0  0
 30 31  2  0  0  0  0
 31 36  1  0  0  0  0
 31 32  1  0  0  0  0
 33 37  1  0  0  0  0
 33 32  2  0  0  0  0
 34 33  1  0  0  0  0
 35 30  1  0  0  0  0
 38 47  1  0  0  0  0
 38 37  1  0  0  0  0
 39 38  2  0  0  0  0
 40 39  1  0  0  0  0
 41 40  1  0  0  0  0
 42 41  2  0  0  0  0
 43 41  1  0  0  0  0
 44 43  1  0  0  0  0
 45 43  1  1  0  0  0
 45 40  1  0  0  0  0
 45 46  1  0  0  0  0
 46 47  1  0  0  0  0
 47 48  1  0  0  0  0
 49 39  1  0  0  0  0
 50 49  2  0  0  0  0
 51 49  1  0  0  0  0
 51 52  1  0  0  0  0
M  END
>  <minimizedAffinity>
-6.65743542

$$$$

 OpenBabel03252504433D

 52 56  0  0  1  0  0  0  0  0999 V2000
   35.9330   29.3360   37.8640 C   0  0  0  0  0  0  0  0  0  0  0  0
   34.8890   29.7130   37.9350 H   0  0  0  0  0  0  0  0  0  0  0  0
   36.0300   28.7680   36.9160 H   0  0  0  0  0  0  0  0  0  0  0  0
   36.9140   30.4620   37.8690 C   0  0  0  0  0  0  0  0  0  0  0  0
   37.3790   31.1420   36.7740 C   0  0  0  0  0  0  0  0  0  0  0  0
   38.2300   32.0590   37.2340 N   0  0  0  0  0  0  0  0  0  0  0  0
   38.3330   31.9990   38.5710 C   0  0  0  0  0  0  0  0  0  0  0  0
   37.5020   30.9930   38.9610 N   0  0  0  0  0  0  0  0  0  0  0  0
   39.0960   32.7530   39.4950 N   0  0  0  0  0  0  0  0  0  0  0  0
   40.4650   32.2760   39.7900 C   0  0  0  0  0  0  0  0  0  0  0  0
   41.3750   33.2400   39.0380 C   0  0  0  0  0  0  0  0  0  0  0  0
   40.9660   34.6680   39.2970 C   0  0  0  0  0  0  0  0  0  0  0  0
   40.0720   34.7240   40.5110 C   0  0  0  0  0  0  0  0  0  0  0  0
   38.8050   33.9410   40.2400 C   0  0  0  0  0  0  0  0  0  0  0  0
   37.1200   30.9830   35.7270 H   0  0  0  0  0  0  0  0  0  0  0  0
   38.7750   32.7590   36.6700 H   0  0  0  0  0  0  0  0  0  0  0  0
   40.6650   32.2360   40.8630 H   0  0  0  0  0  0  0  0  0  0  0  0
   40.6410   31.2690   39.3440 H   0  0  0  0  0  0  0  0  0  0  0  0
   41.4300   32.9780   37.9790 H   0  0  0  0  0  0  0  0  0  0  0  0
   42.4030   33.0960   39.4700 H   0  0  0  0  0  0  0  0  0  0  0  0
   40.3730   35.0250   38.4280 H   0  0  0  0  0  0  0  0  0  0  0  0
   41.8210   35.3530   39.3870 H   0  0  0  0  0  0  0  0  0  0  0  0
   40.6210   34.2250   41.3490 H   0  0  0  0  0  0  0  0  0  0  0  0
   39.8670   35.7590   40.8200 H   0  0  0  0  0  0  0  0  0  0  0  0
   38.1510   34.6330   39.6550 H   0  0  0  0  0  0  0  0  0  0  0  0
   38.2730   33.6420   41.1600 H   0  0  0  0  0  0  0  0  0  0  0  0
   36.2800   27.0740   38.7730 C   0  0  0  0  0  3  0  0  0  0  0  0
   36.2260   28.3850   38.9570 C   0  0  0  0  0  3  0  0  0  0  0  0
   36.5800   26.2460   39.9430 C   0  0  0  0  0  0  0  0  0  0  0  0
   36.3940   24.8320   39.8960 C   0  0  0  0  0  0  0  0  0  0  0  0
   36.7090   24.1400   41.0650 C   0  0  0  0  0  0  0  0  0  0  0  0
   37.1640   24.7850   42.1680 N   0  0  0  0  0  0  0  0  0  0  0  0
   37.3290   26.1390   42.1700 C   0  0  0  0  0  0  0  0  0  0  0  0
   37.0340   26.8240   41.0680 N   0  0  0  0  0  0  0  0  0  0  0  0
   36.0330   24.4280   38.9830 H   0  0  0  0  0  0  0  0  0  0  0  0
   36.5650   23.0760   41.0190 H   0  0  0  0  0  0  0  0  0  0  0  0
   37.8580   26.8710   43.3070 C   0  0  0  0  0  2  0  0  0  0  0  0
   39.1980   27.4080   43.2680 C   0  0  0  0  0  0  0  0  0  0  0  0
   39.7380   28.5310   42.8400 C   0  0  0  0  0  0  0  0  0  0  0  0
   41.1380   28.7780   42.9180 N   0  0  0  0  0  0  0  0  0  0  0  0
   42.2000   29.6460   43.2950 C   0  0  0  0  0  0  0  0  0  0  0  0
   42.2790   30.9120   43.3180 O   0  0  0  0  0  0  0  0  0  0  0  0
   42.9940   28.4180   43.5840 C   0  0  0  0  0  3  0  0  0  0  0  0
   44.0730   28.5110   43.4220 H   0  0  0  0  0  0  0  0  0  0  0  0
   42.1950   27.8510   42.4570 C   0  0  1  0  0  3  0  0  0  0  0  0
   41.5160   26.1970   42.7160 S   0  0  0  0  0  0  0  0  0  0  0  0
   40.1280   26.4350   43.8960 C   0  0  0  0  0  3  0  0  0  0  0  0
   40.5720   26.9180   44.7960 H   0  0  0  0  0  0  0  0  0  0  0  0
   38.8410   29.5170   42.2610 C   0  0  0  0  0  0  0  0  0  0  0  0
   39.0120   30.7300   42.5210 O   0  0  0  0  0  0  0  0  0  0  0  0
   37.9560   30.3870   41.6790 O   0  0  0  0  0  0  0  0  0  0  0  0
   37.5910   30.3050   40.7150 H   0  0  0  0  0  0  0  0  0  0  0  0
  1  4  1  0  0  0  0
  1  2  1  0  0  0  0
  1 28  1  0  0  0  0
  3  1  1  0  0  0  0
  4  8  1  0  0  0  0
  5  6  1  0  0  0  0
  5  4  2  0  0  0  0
  6  7  1  0  0  0  0
  7  8  2  0  0  0  0
  7  9  1  0  0  0  0
  9 10  1  0  0  0  0
  9 14  1  0  0  0  0
 10 17  1  0  0  0  0
 11 12  1  0  0  0  0
 11 20  1  0  0  0  0
 11 10  1  0  0  0  0
 12 22  1  0  0  0  0
 12 13  1  0  0  0  0
 13 24  1  0  0  0  0
 13 23  1  0  0  0  0
 14 13  1  0  0  0  0
 14 26  1  0  0  0  0
 15  5  1  0  0  0  0
 16  6  1  0  0  0  0
 18 10  1  0  0  0  0
 19 11  1  0  0  0  0
 21 12  1  0  0  0  0
 25 14  1  0  0  0  0
 27 28  2  0  0  0  0
 27 29  1  0  0  0  0
 29 34  1  0  0  0  0
 30 29  2  0  0  0  0
 30 31  1  0  0  0  0
 31 32  2  0  0  0  0
 32 33  1  0  0  0  0
 33 37  1  0  0  0  0
 34 33  2  0  0  0  0
 35 30  1  0  0  0  0
 36 31  1  0  0  0  0
 38 37  1  0  0  0  0
 38 47  1  0  0  0  0
 39 40  1  0  0  0  0
 39 38  2  0  0  0  0
 40 41  1  0  0  0  0
 41 42  2  0  0  0  0
 41 43  1  0  0  0  0
 44 43  1  0  0  0  0
 45 46  1  1  0  0  0
 45 40  1  0  0  0  0
 45 43  1  0  0  0  0
 46 47  1  0  0  0  0
 47 48  1  0  0  0  0
 49 50  2  0  0  0  0
 49 39  1  0  0  0  0
 51 49  1  0  0  0  0
 52 51  1  0  0  0  0
M  END
>  <minimizedAffinity>
-6.59916449

$$$$

 OpenBabel03252504433D

 52 56  0  0  1  0  0  0  0  0999 V2000
   35.5770   27.4630   36.7520 C   0  0  0  0  0  0  0  0  0  0  0  0
   35.8370   26.6340   36.0580 H   0  0  0  0  0  0  0  0  0  0  0  0
   36.1650   28.3560   36.4590 H   0  0  0  0  0  0  0  0  0  0  0  0
   34.1200   27.7850   36.6860 C   0  0  0  0  0  0  0  0  0  0  0  0
   33.1310   26.9830   36.1800 C   0  0  0  0  0  0  0  0  0  0  0  0
   31.9900   27.6590   36.3190 N   0  0  0  0  0  0  0  0  0  0  0  0
   32.2010   28.8560   36.8890 C   0  0  0  0  0  0  0  0  0  0  0  0
   33.5420   28.9260   37.1160 N   0  0  0  0  0  0  0  0  0  0  0  0
   31.3170   29.9060   37.2350 N   0  0  0  0  0  0  0  0  0  0  0  0
   31.0360   30.9210   36.1970 C   0  0  0  0  0  0  0  0  0  0  0  0
   29.6290   30.5900   35.7110 C   0  0  0  0  0  0  0  0  0  0  0  0
   28.7000   30.3800   36.8800 C   0  0  0  0  0  0  0  0  0  0  0  0
   29.3240   30.9520   38.1290 C   0  0  0  0  0  0  0  0  0  0  0  0
   30.6030   30.2060   38.4400 C   0  0  0  0  0  0  0  0  0  0  0  0
   33.2320   25.9880   35.7460 H   0  0  0  0  0  0  0  0  0  0  0  0
   31.0280   27.3440   36.0370 H   0  0  0  0  0  0  0  0  0  0  0  0
   31.1350   31.9400   36.5780 H   0  0  0  0  0  0  0  0  0  0  0  0
   31.7080   30.7890   35.3160 H   0  0  0  0  0  0  0  0  0  0  0  0
   29.6470   29.7600   35.0030 H   0  0  0  0  0  0  0  0  0  0  0  0
   29.2730   31.4980   35.1520 H   0  0  0  0  0  0  0  0  0  0  0  0
   28.5780   29.2870   37.0370 H   0  0  0  0  0  0  0  0  0  0  0  0
   27.6910   30.7800   36.7080 H   0  0  0  0  0  0  0  0  0  0  0  0
   29.5820   32.0180   37.9100 H   0  0  0  0  0  0  0  0  0  0  0  0
   28.6210   30.9490   38.9750 H   0  0  0  0  0  0  0  0  0  0  0  0
   30.2810   29.2710   38.9590 H   0  0  0  0  0  0  0  0  0  0  0  0
   31.2840   30.7660   39.1060 H   0  0  0  0  0  0  0  0  0  0  0  0
   36.2250   25.8940   38.5370 C   0  0  0  0  0  3  0  0  0  0  0  0
   35.9740   27.1330   38.1380 C   0  0  0  0  0  3  0  0  0  0  0  0
   36.6080   25.7080   39.9370 C   0  0  0  0  0  0  0  0  0  0  0  0
   36.7010   24.3970   40.4940 C   0  0  0  0  0  0  0  0  0  0  0  0
   37.0740   24.3340   41.8370 C   0  0  0  0  0  0  0  0  0  0  0  0
   37.3290   25.4560   42.5530 N   0  0  0  0  0  0  0  0  0  0  0  0
   37.2290   26.6910   41.9820 C   0  0  0  0  0  0  0  0  0  0  0  0
   36.8750   26.7800   40.7030 N   0  0  0  0  0  0  0  0  0  0  0  0
   36.4800   23.5860   39.8470 H   0  0  0  0  0  0  0  0  0  0  0  0
   37.1400   23.3420   42.2460 H   0  0  0  0  0  0  0  0  0  0  0  0
   37.5400   27.9190   42.6910 C   0  0  0  0  0  2  0  0  0  0  0  0
   38.3960   28.9120   42.0880 C   0  0  0  0  0  0  0  0  0  0  0  0
   38.2030   30.0820   41.5110 C   0  0  0  0  0  0  0  0  0  0  0  0
   39.2750   30.8500   40.9750 N   0  0  0  0  0  0  0  0  0  0  0  0
   39.9460   32.1000   40.8800 C   0  0  0  0  0  0  0  0  0  0  0  0
   39.5070   33.2910   40.9170 O   0  0  0  0  0  0  0  0  0  0  0  0
   41.2080   31.3210   40.7400 C   0  0  0  0  0  3  0  0  0  0  0  0
   41.9810   31.7920   40.1230 H   0  0  0  0  0  0  0  0  0  0  0  0
   40.3170   30.3360   40.0580 C   0  0  1  0  0  3  0  0  0  0  0  0
   40.5420   28.6050   40.5240 S   0  0  0  0  0  0  0  0  0  0  0  0
   39.8090   28.4680   42.2020 C   0  0  0  0  0  3  0  0  0  0  0  0
   40.3510   29.2090   42.8340 H   0  0  0  0  0  0  0  0  0  0  0  0
   36.8330   30.5580   41.4270 C   0  0  0  0  0  0  0  0  0  0  0  0
   36.0950   30.1430   40.5040 O   0  0  0  0  0  0  0  0  0  0  0  0
   35.5540   31.0500   41.4140 O   0  0  0  0  0  0  0  0  0  0  0  0
   34.9710   31.2130   42.2530 H   0  0  0  0  0  0  0  0  0  0  0  0
  1 28  1  0  0  0  0
  2  1  1  0  0  0  0
  3  1  1  0  0  0  0
  4  1  1  0  0  0  0
  4  8  1  0  0  0  0
  5  6  1  0  0  0  0
  5  4  2  0  0  0  0
  6  7  1  0  0  0  0
  7  8  2  0  0  0  0
  7  9  1  0  0  0  0
  9 14  1  0  0  0  0
 10 17  1  0  0  0  0
 10  9  1  0  0  0  0
 11 10  1  0  0  0  0
 11 12  1  0  0  0  0
 12 21  1  0  0  0  0
 12 13  1  0  0  0  0
 13 14  1  0  0  0  0
 13 24  1  0  0  0  0
 14 25  1  0  0  0  0
 14 26  1  0  0  0  0
 15  5  1  0  0  0  0
 16  6  1  0  0  0  0
 18 10  1  0  0  0  0
 19 11  1  0  0  0  0
 20 11  1  0  0  0  0
 22 12  1  0  0  0  0
 23 13  1  0  0  0  0
 27 29  1  0  0  0  0
 28 27  2  0  0  0  0
 29 30  2  0  0  0  0
 29 34  1  0  0  0  0
 30 31  1  0  0  0  0
 31 36  1  0  0  0  0
 31 32  2  0  0  0  0
 33 32  1  0  0  0  0
 33 37  1  0  0  0  0
 34 33  2  0  0  0  0
 35 30  1  0  0  0  0
 38 47  1  0  0  0  0
 38 37  1  0  0  0  0
 39 38  2  0  0  0  0
 40 39  1  0  0  0  0
 41 42  2  0  0  0  0
 41 40  1  0  0  0  0
 43 41  1  0  0  0  0
 44 43  1  0  0  0  0
 45 46  1  1  0  0  0
 45 43  1  0  0  0  0
 45 40  1  0  0  0  0
 46 47  1  0  0  0  0
 47 48  1  0  0  0  0
 49 39  1  0  0  0  0
 50 49  2  0  0  0  0
 51 49  1  0  0  0  0
 51 52  1  0  0  0  0
M  END
>  <minimizedAffinity>
-6.55641127

$$$$

 OpenBabel03252504433D

 52 56  0  0  1  0  0  0  0  0999 V2000
   39.5170   26.7900   43.8490 C   0  0  0  0  0  0  0  0  0  0  0  0
   38.8400   26.9220   44.7220 H   0  0  0  0  0  0  0  0  0  0  0  0
   40.5450   26.6310   44.2320 H   0  0  0  0  0  0  0  0  0  0  0  0
   39.1080   25.6140   43.0240 C   0  0  0  0  0  0  0  0  0  0  0  0
   39.5370   24.3220   43.1780 C   0  0  0  0  0  0  0  0  0  0  0  0
   38.9230   23.6060   42.2350 N   0  0  0  0  0  0  0  0  0  0  0  0
   38.1220   24.3780   41.4830 C   0  0  0  0  0  0  0  0  0  0  0  0
   38.2450   25.6380   41.9870 N   0  0  0  0  0  0  0  0  0  0  0  0
   37.2830   24.0780   40.3840 N   0  0  0  0  0  0  0  0  0  0  0  0
   37.8910   24.1270   39.0370 C   0  0  0  0  0  0  0  0  0  0  0  0
   38.0620   22.6650   38.6430 C   0  0  0  0  0  0  0  0  0  0  0  0
   36.7950   21.8910   38.9070 C   0  0  0  0  0  0  0  0  0  0  0  0
   35.6460   22.8520   39.0860 C   0  0  0  0  0  0  0  0  0  0  0  0
   35.8990   23.7200   40.3000 C   0  0  0  0  0  0  0  0  0  0  0  0
   40.2380   23.9330   43.9160 H   0  0  0  0  0  0  0  0  0  0  0  0
   39.0190   22.5750   42.0590 H   0  0  0  0  0  0  0  0  0  0  0  0
   37.2840   24.6990   38.3310 H   0  0  0  0  0  0  0  0  0  0  0  0
   38.9180   24.5610   39.0770 H   0  0  0  0  0  0  0  0  0  0  0  0
   38.9500   22.2370   39.1110 H   0  0  0  0  0  0  0  0  0  0  0  0
   38.2370   22.6620   37.5320 H   0  0  0  0  0  0  0  0  0  0  0  0
   36.9180   21.3360   39.8620 H   0  0  0  0  0  0  0  0  0  0  0  0
   36.5800   21.1360   38.1380 H   0  0  0  0  0  0  0  0  0  0  0  0
   35.6230   23.5110   38.1810 H   0  0  0  0  0  0  0  0  0  0  0  0
   34.6800   22.3290   39.1380 H   0  0  0  0  0  0  0  0  0  0  0  0
   35.5900   23.0980   41.1760 H   0  0  0  0  0  0  0  0  0  0  0  0
   35.3070   24.6530   40.3000 H   0  0  0  0  0  0  0  0  0  0  0  0
   38.6490   28.9760   43.1190 C   0  0  0  0  0  3  0  0  0  0  0  0
   39.5580   28.0160   43.0240 C   0  0  0  0  0  3  0  0  0  0  0  0
   38.8090   30.1370   42.2420 C   0  0  0  0  0  0  0  0  0  0  0  0
   39.9120   31.0260   42.4130 C   0  0  0  0  0  0  0  0  0  0  0  0
   39.9690   32.1000   41.5240 C   0  0  0  0  0  0  0  0  0  0  0  0
   39.0280   32.2720   40.5630 N   0  0  0  0  0  0  0  0  0  0  0  0
   37.9890   31.3970   40.4330 C   0  0  0  0  0  0  0  0  0  0  0  0
   37.9100   30.3650   41.2690 N   0  0  0  0  0  0  0  0  0  0  0  0
   40.5920   30.8000   43.1960 H   0  0  0  0  0  0  0  0  0  0  0  0
   40.8030   32.7630   41.6610 H   0  0  0  0  0  0  0  0  0  0  0  0
   36.9840   31.5100   39.3910 C   0  0  0  0  0  2  0  0  0  0  0  0
   36.8130   30.4490   38.4280 C   0  0  0  0  0  0  0  0  0  0  0  0
   35.9520   29.4620   38.2730 C   0  0  0  0  0  0  0  0  0  0  0  0
   36.0510   28.5300   37.2000 N   0  0  0  0  0  0  0  0  0  0  0  0
   35.4220   27.8420   36.1270 C   0  0  0  0  0  0  0  0  0  0  0  0
   34.2310   27.4270   35.9820 O   0  0  0  0  0  0  0  0  0  0  0  0
   36.7380   27.8930   35.4290 C   0  0  0  0  0  3  0  0  0  0  0  0
   36.9460   27.0480   34.7630 H   0  0  0  0  0  0  0  0  0  0  0  0
   37.2780   27.7980   36.8180 C   0  0  1  0  0  3  0  0  0  0  0  0
   38.6390   28.9160   37.2200 S   0  0  0  0  0  0  0  0  0  0  0  0
   37.8590   30.5710   37.3800 C   0  0  0  0  0  3  0  0  0  0  0  0
   37.3500   30.7640   36.4080 H   0  0  0  0  0  0  0  0  0  0  0  0
   34.8930   29.3490   39.2600 C   0  0  0  0  0  0  0  0  0  0  0  0
   35.0830   28.6570   40.2870 O   0  0  0  0  0  0  0  0  0  0  0  0
   33.8490   29.2910   40.1470 O   0  0  0  0  0  0  0  0  0  0  0  0
   33.2350   30.0850   40.3950 H   0  0  0  0  0  0  0  0  0  0  0  0
  1  3  1  0  0  0  0
  1  2  1  0  0  0  0
  4  5  2  0  0  0  0
  4  1  1  0  0  0  0
  5 15  1  0  0  0  0
  6  5  1  0  0  0  0
  7  8  2  0  0  0  0
  7  6  1  0  0  0  0
  8  4  1  0  0  0  0
  9  7  1  0  0  0  0
 10 18  1  0  0  0  0
 10  9  1  0  0  0  0
 11 12  1  0  0  0  0
 11 10  1  0  0  0  0
 11 19  1  0  0  0  0
 12 13  1  0  0  0  0
 12 21  1  0  0  0  0
 13 24  1  0  0  0  0
 13 14  1  0  0  0  0
 14  9  1  0  0  0  0
 14 25  1  0  0  0  0
 16  6  1  0  0  0  0
 17 10  1  0  0  0  0
 20 11  1  0  0  0  0
 22 12  1  0  0  0  0
 23 13  1  0  0  0  0
 26 14  1  0  0  0  0
 28 27  2  0  0  0  0
 28  1  1  0  0  0  0
 29 30  1  0  0  0  0
 29 27  1  0  0  0  0
 30 35  1  0  0  0  0
 31 36  1  0  0  0  0
 31 30  2  0  0  0  0
 32 31  1  0  0  0  0
 33 32  2  0  0  0  0
 33 34  1  0  0  0  0
 34 29  2  0  0  0  0
 37 33  1  0  0  0  0
 38 37  1  0  0  0  0
 39 38  2  0  0  0  0
 39 49  1  0  0  0  0
 40 39  1  0  0  0  0
 41 40  1  0  0  0  0
 42 41  2  0  0  0  0
 43 41  1  0  0  0  0
 44 43  1  0  0  0  0
 45 43  1  6  0  0  0
 45 40  1  0  0  0  0
 45 46  1  0  0  0  0
 46 47  1  0  0  0  0
 47 38  1  0  0  0  0
 48 47  1  0  0  0  0
 49 51  1  0  0  0  0
 49 50  2  0  0  0  0
 51 52  1  0  0  0  0
M  END
>  <minimizedAffinity>
-6.50230408

$$$$

 OpenBabel03252504433D

 52 56  0  0  1  0  0  0  0  0999 V2000
   36.4930   23.4920   39.9680 C   0  0  0  0  0  0  0  0  0  0  0  0
   35.8230   22.9280   40.6520 H   0  0  0  0  0  0  0  0  0  0  0  0
   37.1790   22.7680   39.4830 H   0  0  0  0  0  0  0  0  0  0  0  0
   35.7100   24.2110   38.9180 C   0  0  0  0  0  0  0  0  0  0  0  0
   34.7030   23.6870   38.1510 C   0  0  0  0  0  0  0  0  0  0  0  0
   34.2880   24.6700   37.3530 N   0  0  0  0  0  0  0  0  0  0  0  0
   34.9800   25.7990   37.5700 C   0  0  0  0  0  0  0  0  0  0  0  0
   35.8720   25.5000   38.5560 N   0  0  0  0  0  0  0  0  0  0  0  0
   34.9040   27.0830   36.9800 N   0  0  0  0  0  0  0  0  0  0  0  0
   35.7160   27.3180   35.7660 C   0  0  0  0  0  0  0  0  0  0  0  0
   34.7080   27.2990   34.6230 C   0  0  0  0  0  0  0  0  0  0  0  0
   33.5160   28.1610   34.9520 C   0  0  0  0  0  0  0  0  0  0  0  0
   33.8610   29.0820   36.0960 C   0  0  0  0  0  0  0  0  0  0  0  0
   34.1680   28.2610   37.3290 C   0  0  0  0  0  0  0  0  0  0  0  0
   34.3040   22.6730   38.1720 H   0  0  0  0  0  0  0  0  0  0  0  0
   33.5250   24.6220   36.6310 H   0  0  0  0  0  0  0  0  0  0  0  0
   36.2880   28.2470   35.8260 H   0  0  0  0  0  0  0  0  0  0  0  0
   36.4130   26.4670   35.5810 H   0  0  0  0  0  0  0  0  0  0  0  0
   34.4530   26.2740   34.3470 H   0  0  0  0  0  0  0  0  0  0  0  0
   35.2310   27.7620   33.7420 H   0  0  0  0  0  0  0  0  0  0  0  0
   32.6900   27.5000   35.2920 H   0  0  0  0  0  0  0  0  0  0  0  0
   33.1290   28.7150   34.0850 H   0  0  0  0  0  0  0  0  0  0  0  0
   34.7860   29.6390   35.8040 H   0  0  0  0  0  0  0  0  0  0  0  0
   33.0700   29.8260   36.2740 H   0  0  0  0  0  0  0  0  0  0  0  0
   33.1720   27.9980   37.7650 H   0  0  0  0  0  0  0  0  0  0  0  0
   34.7520   28.8130   38.0870 H   0  0  0  0  0  0  0  0  0  0  0  0
   37.7310   24.2160   41.9710 C   0  0  0  0  0  3  0  0  0  0  0  0
   37.3430   24.4380   40.7230 C   0  0  0  0  0  3  0  0  0  0  0  0
   38.5700   25.2350   42.6010 C   0  0  0  0  0  0  0  0  0  0  0  0
   39.8710   24.9030   43.0840 C   0  0  0  0  0  0  0  0  0  0  0  0
   40.5870   25.9500   43.6670 C   0  0  0  0  0  0  0  0  0  0  0  0
   40.0640   27.1970   43.7610 N   0  0  0  0  0  0  0  0  0  0  0  0
   38.8150   27.4720   43.2860 C   0  0  0  0  0  0  0  0  0  0  0  0
   38.1110   26.4920   42.7250 N   0  0  0  0  0  0  0  0  0  0  0  0
   40.1850   23.8970   42.9610 H   0  0  0  0  0  0  0  0  0  0  0  0
   41.5650   25.6890   44.0270 H   0  0  0  0  0  0  0  0  0  0  0  0
   38.2300   28.8000   43.3170 C   0  0  0  0  0  2  0  0  0  0  0  0
   38.1560   29.5930   42.1130 C   0  0  0  0  0  0  0  0  0  0  0  0
   38.8710   30.5730   41.5980 C   0  0  0  0  0  0  0  0  0  0  0  0
   38.5310   31.1920   40.3610 N   0  0  0  0  0  0  0  0  0  0  0  0
   38.9360   31.6340   39.0720 C   0  0  0  0  0  0  0  0  0  0  0  0
   40.0430   32.0910   38.6530 O   0  0  0  0  0  0  0  0  0  0  0  0
   37.5570   31.3030   38.6130 C   0  0  0  0  0  3  0  0  0  0  0  0
   37.1710   31.9310   37.8040 H   0  0  0  0  0  0  0  0  0  0  0  0
   37.1890   31.7030   40.0040 C   0  0  1  0  0  3  0  0  0  0  0  0
   36.0280   30.6190   40.8640 S   0  0  0  0  0  0  0  0  0  0  0  0
   37.0060   29.1260   41.2960 C   0  0  0  0  0  3  0  0  0  0  0  0
   37.4070   28.7340   40.3340 H   0  0  0  0  0  0  0  0  0  0  0  0
   40.0270   31.0170   42.3580 C   0  0  0  0  0  0  0  0  0  0  0  0
   41.1610   30.9770   41.8290 O   0  0  0  0  0  0  0  0  0  0  0  0
   41.0680   31.4530   43.1350 O   0  0  0  0  0  0  0  0  0  0  0  0
   41.0320   32.2640   43.7750 H   0  0  0  0  0  0  0  0  0  0  0  0
  1  2  1  0  0  0  0
  1 28  1  0  0  0  0
  3  1  1  0  0  0  0
  4  1  1  0  0  0  0
  5 15  1  0  0  0  0
  5  4  2  0  0  0  0
  6  7  1  0  0  0  0
  6  5  1  0  0  0  0
  7  8  2  0  0  0  0
  8  4  1  0  0  0  0
  9 14  1  0  0  0  0
  9  7  1  0  0  0  0
 10 17  1  0  0  0  0
 10  9  1  0  0  0  0
 11 12  1  0  0  0  0
 11 10  1  0  0  0  0
 12 21  1  0  0  0  0
 12 13  1  0  0  0  0
 13 24  1  0  0  0  0
 13 14  1  0  0  0  0
 14 25  1  0  0  0  0
 14 26  1  0  0  0  0
 16  6  1  0  0  0  0
 18 10  1  0  0  0  0
 19 11  1  0  0  0  0
 20 11  1  0  0  0  0
 22 12  1  0  0  0  0
 23 13  1  0  0  0  0
 27 29  1  0  0  0  0
 28 27  2  0  0  0  0
 29 34  2  0  0  0  0
 29 30  1  0  0  0  0
 30 31  2  0  0  0  0
 31 32  1  0  0  0  0
 31 36  1  0  0  0  0
 33 37  1  0  0  0  0
 33 32  2  0  0  0  0
 34 33  1  0  0  0  0
 35 30  1  0  0  0  0
 38 37  1  0  0  0  0
 39 38  2  0  0  0  0
 39 49  1  0  0  0  0
 40 39  1  0  0  0  0
 41 40  1  0  0  0  0
 42 41  2  0  0  0  0
 43 41  1  0  0  0  0
 44 43  1  0  0  0  0
 45 43  1  6  0  0  0
 45 40  1  0  0  0  0
 45 46  1  0  0  0  0
 46 47  1  0  0  0  0
 47 38  1  0  0  0  0
 48 47  1  0  0  0  0
 49 51  1  0  0  0  0
 50 49  2  0  0  0  0
 51 52  1  0  0  0  0
M  END
>  <minimizedAffinity>
-6.36880159

$$$$

 OpenBabel03252504433D

 52 56  0  0  1  0  0  0  0  0999 V2000
   36.1330   29.1530   36.6910 C   0  0  0  0  0  0  0  0  0  0  0  0
   36.6150   28.1540   36.6110 H   0  0  0  0  0  0  0  0  0  0  0  0
   36.3460   29.7140   35.7580 H   0  0  0  0  0  0  0  0  0  0  0  0
   34.6550   29.0250   36.8650 C   0  0  0  0  0  0  0  0  0  0  0  0
   33.9940   28.7330   38.0290 C   0  0  0  0  0  0  0  0  0  0  0  0
   32.6950   28.7190   37.7310 N   0  0  0  0  0  0  0  0  0  0  0  0
   32.4910   28.9870   36.4320 C   0  0  0  0  0  0  0  0  0  0  0  0
   33.7290   29.1780   35.8960 N   0  0  0  0  0  0  0  0  0  0  0  0
   31.3070   29.0820   35.6610 N   0  0  0  0  0  0  0  0  0  0  0  0
   30.7970   27.8350   35.0500 C   0  0  0  0  0  0  0  0  0  0  0  0
   29.5950   27.4560   35.9060 C   0  0  0  0  0  0  0  0  0  0  0  0
   28.7000   28.6490   36.1240 C   0  0  0  0  0  0  0  0  0  0  0  0
   29.0350   29.7210   35.1170 C   0  0  0  0  0  0  0  0  0  0  0  0
   30.4580   30.1880   35.3330 C   0  0  0  0  0  0  0  0  0  0  0  0
   34.4230   28.5460   39.0140 H   0  0  0  0  0  0  0  0  0  0  0  0
   31.8960   28.5280   38.3870 H   0  0  0  0  0  0  0  0  0  0  0  0
   30.5550   27.9630   33.9930 H   0  0  0  0  0  0  0  0  0  0  0  0
   31.5340   27.0050   35.1620 H   0  0  0  0  0  0  0  0  0  0  0  0
   29.9120   26.9640   36.8280 H   0  0  0  0  0  0  0  0  0  0  0  0
   29.0150   26.7000   35.3080 H   0  0  0  0  0  0  0  0  0  0  0  0
   28.9080   29.0620   37.1340 H   0  0  0  0  0  0  0  0  0  0  0  0
   27.6300   28.3970   36.1100 H   0  0  0  0  0  0  0  0  0  0  0  0
   28.9690   29.2540   34.1020 H   0  0  0  0  0  0  0  0  0  0  0  0
   28.3130   30.5510   35.1460 H   0  0  0  0  0  0  0  0  0  0  0  0
   30.4050   30.9180   36.1780 H   0  0  0  0  0  0  0  0  0  0  0  0
   30.8890   30.6960   34.4520 H   0  0  0  0  0  0  0  0  0  0  0  0
   37.9510   29.7280   38.2500 C   0  0  0  0  0  3  0  0  0  0  0  0
   36.7220   29.9350   37.7990 C   0  0  0  0  0  3  0  0  0  0  0  0
   38.4090   30.5740   39.3520 C   0  0  0  0  0  0  0  0  0  0  0  0
   38.6400   31.9670   39.1470 C   0  0  0  0  0  0  0  0  0  0  0  0
   39.0760   32.6810   40.2650 C   0  0  0  0  0  0  0  0  0  0  0  0
   39.2630   32.0730   41.4620 N   0  0  0  0  0  0  0  0  0  0  0  0
   39.0300   30.7380   41.6150 C   0  0  0  0  0  0  0  0  0  0  0  0
   38.6140   30.0330   40.5660 N   0  0  0  0  0  0  0  0  0  0  0  0
   38.4630   32.3430   38.1710 H   0  0  0  0  0  0  0  0  0  0  0  0
   39.2460   33.7280   40.0990 H   0  0  0  0  0  0  0  0  0  0  0  0
   39.1670   30.0500   42.8870 C   0  0  0  0  0  2  0  0  0  0  0  0
   39.4810   28.6420   42.9230 C   0  0  0  0  0  0  0  0  0  0  0  0
   38.7990   27.5420   43.1710 C   0  0  0  0  0  0  0  0  0  0  0  0
   39.4030   26.2520   43.1510 N   0  0  0  0  0  0  0  0  0  0  0  0
   39.3780   24.9050   42.6970 C   0  0  0  0  0  0  0  0  0  0  0  0
   38.4090   24.1260   42.4430 O   0  0  0  0  0  0  0  0  0  0  0  0
   40.8670   24.9590   42.7040 C   0  0  0  0  0  3  0  0  0  0  0  0
   41.3670   24.0100   42.9250 H   0  0  0  0  0  0  0  0  0  0  0  0
   40.6510   25.8850   43.8560 C   0  0  1  0  0  3  0  0  0  0  0  0
   41.6490   27.3910   43.8630 S   0  0  0  0  0  0  0  0  0  0  0  0
   40.9090   28.4540   42.5600 C   0  0  0  0  0  3  0  0  0  0  0  0
   40.9480   27.8570   41.6200 H   0  0  0  0  0  0  0  0  0  0  0  0
   37.3890   27.6970   43.4850 C   0  0  0  0  0  0  0  0  0  0  0  0
   36.5460   27.6560   42.5600 O   0  0  0  0  0  0  0  0  0  0  0  0
   36.0790   27.8490   43.8590 O   0  0  0  0  0  0  0  0  0  0  0  0
   35.6530   27.4440   44.7100 H   0  0  0  0  0  0  0  0  0  0  0  0
  1  4  1  0  0  0  0
  1 28  1  0  0  0  0
  2  1  1  0  0  0  0
  3  1  1  0  0  0  0
  4  5  2  0  0  0  0
  5 15  1  0  0  0  0
  6  5  1  0  0  0  0
  6 16  1  0  0  0  0
  7  6  1  0  0  0  0
  8  7  2  0  0  0  0
  8  4  1  0  0  0  0
  9  7  1  0  0  0  0
 10 18  1  0  0  0  0
 10  9  1  0  0  0  0
 10 11  1  0  0  0  0
 11 12  1  0  0  0  0
 11 19  1  0  0  0  0
 12 21  1  0  0  0  0
 13 24  1  0  0  0  0
 13 14  1  0  0  0  0
 13 12  1  0  0  0  0
 14  9  1  0  0  0  0
 14 25  1  0  0  0  0
 17 10  1  0  0  0  0
 20 11  1  0  0  0  0
 22 12  1  0  0  0  0
 23 13  1  0  0  0  0
 26 14  1  0  0  0  0
 27 29  1  0  0  0  0
 28 27  2  0  0  0  0
 29 34  1  0  0  0  0
 30 29  2  0  0  0  0
 30 31  1  0  0  0  0
 31 32  2  0  0  0  0
 32 33  1  0  0  0  0
 33 37  1  0  0  0  0
 34 33  2  0  0  0  0
 35 30  1  0  0  0  0
 36 31  1  0  0  0  0
 37 38  1  0  0  0  0
 38 39  2  0  0  0  0
 39 49  1  0  0  0  0
 40 39  1  0  0  0  0
 40 45  1  0  0  0  0
 41 43  1  0  0  0  0
 41 40  1  0  0  0  0
 42 41  2  0  0  0  0
 43 44  1  0  0  0  0
 45 43  1  6  0  0  0
 45 46  1  0  0  0  0
 47 38  1  0  0  0  0
 47 46  1  0  0  0  0
 48 47  1  0  0  0  0
 49 51  1  0  0  0  0
 50 49  2  0  0  0  0
 51 52  1  0  0  0  0
M  END
>  <minimizedAffinity>
-6.34683752

$$$$

 OpenBabel03252504433D

 52 56  0  0  1  0  0  0  0  0999 V2000
   41.7080   28.7970   43.0690 C   0  0  0  0  0  0  0  0  0  0  0  0
   41.7530   28.9830   44.1640 H   0  0  0  0  0  0  0  0  0  0  0  0
   42.7440   28.8030   42.6750 H   0  0  0  0  0  0  0  0  0  0  0  0
   41.0730   27.4770   42.7730 C   0  0  0  0  0  0  0  0  0  0  0  0
   41.5190   26.2480   43.1840 C   0  0  0  0  0  0  0  0  0  0  0  0
   40.6580   25.3540   42.6980 N   0  0  0  0  0  0  0  0  0  0  0  0
   39.6820   25.9500   41.9960 C   0  0  0  0  0  0  0  0  0  0  0  0
   39.9510   27.2840   42.0490 N   0  0  0  0  0  0  0  0  0  0  0  0
   38.5620   25.4280   41.3060 N   0  0  0  0  0  0  0  0  0  0  0  0
   38.7610   25.0380   39.8930 C   0  0  0  0  0  0  0  0  0  0  0  0
   38.8030   23.5150   39.9210 C   0  0  0  0  0  0  0  0  0  0  0  0
   37.6590   22.9660   40.7360 C   0  0  0  0  0  0  0  0  0  0  0  0
   36.6150   24.0390   40.9230 C   0  0  0  0  0  0  0  0  0  0  0  0
   37.2080   25.1880   41.7080 C   0  0  0  0  0  0  0  0  0  0  0  0
   42.3990   26.0230   43.7860 H   0  0  0  0  0  0  0  0  0  0  0  0
   40.6930   24.3110   42.8190 H   0  0  0  0  0  0  0  0  0  0  0  0
   37.9830   25.4390   39.2400 H   0  0  0  0  0  0  0  0  0  0  0  0
   39.7600   25.3700   39.5240 H   0  0  0  0  0  0  0  0  0  0  0  0
   39.7850   23.1580   40.2380 H   0  0  0  0  0  0  0  0  0  0  0  0
   38.6550   23.1810   38.8580 H   0  0  0  0  0  0  0  0  0  0  0  0
   38.0450   22.6960   41.7420 H   0  0  0  0  0  0  0  0  0  0  0  0
   37.2290   22.0470   40.3140 H   0  0  0  0  0  0  0  0  0  0  0  0
   36.3400   24.4130   39.9050 H   0  0  0  0  0  0  0  0  0  0  0  0
   35.7000   23.6420   41.3880 H   0  0  0  0  0  0  0  0  0  0  0  0
   37.1580   24.8710   42.7790 H   0  0  0  0  0  0  0  0  0  0  0  0
   36.6470   26.1330   41.5910 H   0  0  0  0  0  0  0  0  0  0  0  0
   41.5880   30.9910   41.9560 C   0  0  0  0  0  3  0  0  0  0  0  0
   40.9870   29.8870   42.3770 C   0  0  0  0  0  3  0  0  0  0  0  0
   40.7560   31.9910   41.2870 C   0  0  0  0  0  0  0  0  0  0  0  0
   41.3210   33.2250   40.8470 C   0  0  0  0  0  0  0  0  0  0  0  0
   40.4390   34.1080   40.2210 C   0  0  0  0  0  0  0  0  0  0  0  0
   39.1310   33.7960   40.0500 N   0  0  0  0  0  0  0  0  0  0  0  0
   38.6310   32.6040   40.4850 C   0  0  0  0  0  0  0  0  0  0  0  0
   39.4500   31.7440   41.0860 N   0  0  0  0  0  0  0  0  0  0  0  0
   42.3560   33.3700   41.0300 H   0  0  0  0  0  0  0  0  0  0  0  0
   40.8760   35.0330   39.8930 H   0  0  0  0  0  0  0  0  0  0  0  0
   37.2510   32.2020   40.2820 C   0  0  0  0  0  2  0  0  0  0  0  0
   36.9440   30.9310   39.6700 C   0  0  0  0  0  0  0  0  0  0  0  0
   37.0510   30.4330   38.4540 C   0  0  0  0  0  0  0  0  0  0  0  0
   36.6340   29.1090   38.1370 N   0  0  0  0  0  0  0  0  0  0  0  0
   36.9270   27.8540   37.5360 C   0  0  0  0  0  0  0  0  0  0  0  0
   37.6310   27.5540   36.5230 O   0  0  0  0  0  0  0  0  0  0  0  0
   36.0800   27.2390   38.5970 C   0  0  0  0  0  3  0  0  0  0  0  0
   35.5490   26.3280   38.3010 H   0  0  0  0  0  0  0  0  0  0  0  0
   35.3230   28.5210   38.4880 C   0  0  1  0  0  3  0  0  0  0  0  0
   34.8560   29.3050   40.0470 S   0  0  0  0  0  0  0  0  0  0  0  0
   36.4190   30.0080   40.7080 C   0  0  0  0  0  3  0  0  0  0  0  0
   37.1270   29.1510   40.7950 H   0  0  0  0  0  0  0  0  0  0  0  0
   37.6030   31.3040   37.4310 C   0  0  0  0  0  0  0  0  0  0  0  0
   38.8460   31.3810   37.2960 O   0  0  0  0  0  0  0  0  0  0  0  0
   38.0500   32.1440   36.4440 O   0  0  0  0  0  0  0  0  0  0  0  0
   37.6100   32.2540   35.5140 H   0  0  0  0  0  0  0  0  0  0  0  0
  1  2  1  0  0  0  0
  3  1  1  0  0  0  0
  4  1  1  0  0  0  0
  4  5  2  0  0  0  0
  5 15  1  0  0  0  0
  6 16  1  0  0  0  0
  6  5  1  0  0  0  0
  7  8  2  0  0  0  0
  7  6  1  0  0  0  0
  8  4  1  0  0  0  0
  9 14  1  0  0  0  0
  9  7  1  0  0  0  0
 10 11  1  0  0  0  0
 10  9  1  0  0  0  0
 11 19  1  0  0  0  0
 11 12  1  0  0  0  0
 12 13  1  0  0  0  0
 12 21  1  0  0  0  0
 13 24  1  0  0  0  0
 13 14  1  0  0  0  0
 14 25  1  0  0  0  0
 17 10  1  0  0  0  0
 18 10  1  0  0  0  0
 20 11  1  0  0  0  0
 22 12  1  0  0  0  0
 23 13  1  0  0  0  0
 26 14  1  0  0  0  0
 27 28  2  0  0  0  0
 28  1  1  0  0  0  0
 29 27  1  0  0  0  0
 30 35  1  0  0  0  0
 30 29  2  0  0  0  0
 31 30  1  0  0  0  0
 32 31  2  0  0  0  0
 32 33  1  0  0  0  0
 33 34  2  0  0  0  0
 34 29  1  0  0  0  0
 36 31  1  0  0  0  0
 37 33  1  0  0  0  0
 38 37  1  0  0  0  0
 38 47  1  0  0  0  0
 39 38  2  0  0  0  0
 40 39  1  0  0  0  0
 40 45  1  0  0  0  0
 41 40  1  0  0  0  0
 41 43  1  0  0  0  0
 42 41  2  0  0  0  0
 44 43  1  0  0  0  0
 45 43  1  1  0  0  0
 45 46  1  0  0  0  0
 46 47  1  0  0  0  0
 47 48  1  0  0  0  0
 49 39  1  0  0  0  0
 50 49  2  0  0  0  0
 51 49  1  0  0  0  0
 52 51  1  0  0  0  0
M  END
>  <minimizedAffinity>
-6.27735662

$$$$

 OpenBabel03252504433D

 52 56  0  0  1  0  0  0  0  0999 V2000
   36.2790   23.7280   39.3850 C   0  0  0  0  0  0  0  0  0  0  0  0
   35.3160   23.2510   39.6710 H   0  0  0  0  0  0  0  0  0  0  0  0
   36.9830   22.9270   39.0790 H   0  0  0  0  0  0  0  0  0  0  0  0
   36.0920   24.6820   38.2510 C   0  0  0  0  0  0  0  0  0  0  0  0
   36.6210   24.5660   36.9920 C   0  0  0  0  0  0  0  0  0  0  0  0
   36.2020   25.6310   36.3080 N   0  0  0  0  0  0  0  0  0  0  0  0
   35.4300   26.4240   37.0670 C   0  0  0  0  0  0  0  0  0  0  0  0
   35.3670   25.8200   38.2870 N   0  0  0  0  0  0  0  0  0  0  0  0
   34.7670   27.6430   36.7900 N   0  0  0  0  0  0  0  0  0  0  0  0
   35.5310   28.8920   37.0030 C   0  0  0  0  0  0  0  0  0  0  0  0
   35.8900   29.3640   35.5990 C   0  0  0  0  0  0  0  0  0  0  0  0
   34.6800   29.3250   34.7000 C   0  0  0  0  0  0  0  0  0  0  0  0
   33.4310   29.2310   35.5400 C   0  0  0  0  0  0  0  0  0  0  0  0
   33.4450   27.9350   36.3210 C   0  0  0  0  0  0  0  0  0  0  0  0
   37.2590   23.7720   36.6050 H   0  0  0  0  0  0  0  0  0  0  0  0
   36.4170   25.8660   35.3070 H   0  0  0  0  0  0  0  0  0  0  0  0
   34.9640   29.6280   37.5780 H   0  0  0  0  0  0  0  0  0  0  0  0
   36.4980   28.6850   37.5200 H   0  0  0  0  0  0  0  0  0  0  0  0
   36.7500   28.8140   35.2120 H   0  0  0  0  0  0  0  0  0  0  0  0
   36.2010   30.4390   35.7050 H   0  0  0  0  0  0  0  0  0  0  0  0
   34.7360   28.4050   34.0790 H   0  0  0  0  0  0  0  0  0  0  0  0
   34.6370   30.1680   33.9960 H   0  0  0  0  0  0  0  0  0  0  0  0
   33.4570   30.0800   36.2670 H   0  0  0  0  0  0  0  0  0  0  0  0
   32.5200   29.3440   34.9330 H   0  0  0  0  0  0  0  0  0  0  0  0
   33.0910   27.1540   35.6040 H   0  0  0  0  0  0  0  0  0  0  0  0
   32.7710   27.9460   37.1960 H   0  0  0  0  0  0  0  0  0  0  0  0
   38.0990   24.9620   40.4950 C   0  0  0  0  0  3  0  0  0  0  0  0
   36.8940   24.4100   40.5430 C   0  0  0  0  0  3  0  0  0  0  0  0
   38.5880   25.6060   41.7150 C   0  0  0  0  0  0  0  0  0  0  0  0
   39.5100   24.9300   42.5690 C   0  0  0  0  0  0  0  0  0  0  0  0
   39.9120   25.6330   43.7050 C   0  0  0  0  0  0  0  0  0  0  0  0
   39.4460   26.8790   43.9660 N   0  0  0  0  0  0  0  0  0  0  0  0
   38.5660   27.4900   43.1220 C   0  0  0  0  0  0  0  0  0  0  0  0
   38.1650   26.8410   42.0320 N   0  0  0  0  0  0  0  0  0  0  0  0
   39.8110   23.9560   42.2730 H   0  0  0  0  0  0  0  0  0  0  0  0
   40.6060   25.1150   44.3410 H   0  0  0  0  0  0  0  0  0  0  0  0
   38.0760   28.8410   43.3300 C   0  0  0  0  0  2  0  0  0  0  0  0
   38.4040   29.8870   42.3920 C   0  0  0  0  0  0  0  0  0  0  0  0
   37.7630   30.4940   41.4130 C   0  0  0  0  0  0  0  0  0  0  0  0
   38.3720   31.5100   40.6210 N   0  0  0  0  0  0  0  0  0  0  0  0
   38.3070   32.8120   40.0550 C   0  0  0  0  0  0  0  0  0  0  0  0
   37.3220   33.4940   39.6350 O   0  0  0  0  0  0  0  0  0  0  0  0
   39.7860   32.8710   40.2200 C   0  0  0  0  0  3  0  0  0  0  0  0
   40.3170   33.4660   39.4690 H   0  0  0  0  0  0  0  0  0  0  0  0
   39.6960   31.4020   39.9680 C   0  0  1  0  0  3  0  0  0  0  0  0
   40.6750   30.3460   41.0580 S   0  0  0  0  0  0  0  0  0  0  0  0
   39.7830   30.3680   42.6640 C   0  0  0  0  0  3  0  0  0  0  0  0
   39.7190   31.4390   42.9640 H   0  0  0  0  0  0  0  0  0  0  0  0
   36.3970   30.0710   41.1560 C   0  0  0  0  0  0  0  0  0  0  0  0
   36.1890   29.0980   40.3970 O   0  0  0  0  0  0  0  0  0  0  0  0
   35.0840   29.7300   40.9630 O   0  0  0  0  0  0  0  0  0  0  0  0
   34.3550   29.7380   41.6960 H   0  0  0  0  0  0  0  0  0  0  0  0
  1  2  1  0  0  0  0
  1 28  1  0  0  0  0
  3  1  1  0  0  0  0
  4  8  1  0  0  0  0
  4  1  1  0  0  0  0
  5  4  2  0  0  0  0
  6  5  1  0  0  0  0
  6  7  1  0  0  0  0
  7  8  2  0  0  0  0
  9 10  1  0  0  0  0
  9  7  1  0  0  0  0
 10 18  1  0  0  0  0
 10 17  1  0  0  0  0
 11 20  1  0  0  0  0
 11 10  1  0  0  0  0
 12 13  1  0  0  0  0
 12 11  1  0  0  0  0
 13 23  1  0  0  0  0
 13 14  1  0  0  0  0
 14  9  1  0  0  0  0
 14 26  1  0  0  0  0
 15  5  1  0  0  0  0
 16  6  1  0  0  0  0
 19 11  1  0  0  0  0
 21 12  1  0  0  0  0
 22 12  1  0  0  0  0
 24 13  1  0  0  0  0
 25 14  1  0  0  0  0
 27 28  2  0  0  0  0
 27 29  1  0  0  0  0
 29 34  2  0  0  0  0
 29 30  1  0  0  0  0
 30 31  2  0  0  0  0
 31 32  1  0  0  0  0
 31 36  1  0  0  0  0
 33 37  1  0  0  0  0
 33 32  2  0  0  0  0
 34 33  1  0  0  0  0
 35 30  1  0  0  0  0
 38 47  1  0  0  0  0
 38 37  1  0  0  0  0
 39 38  2  0  0  0  0
 40 39  1  0  0  0  0
 41 43  1  0  0  0  0
 41 40  1  0  0  0  0
 42 41  2  0  0  0  0
 44 43  1  0  0  0  0
 45 43  1  1  0  0  0
 45 40  1  0  0  0  0
 45 46  1  0  0  0  0
 46 47  1  0  0  0  0
 47 48  1  0  0  0  0
 49 39  1  0  0  0  0
 50 49  2  0  0  0  0
 51 49  1  0  0  0  0
 51 52  1  0  0  0  0
M  END
>  <minimizedAffinity>
-6.27261877

$$$$
