
 OpenBabel03242515073D

 46 49  0  0  1  0  0  0  0  0999 V2000
   36.0880   29.5660   36.5320 C   0  0  0  0  0  0  0  0  0  0  0  0
   35.5540   29.0820   37.7270 C   0  0  0  0  0  0  0  0  0  0  0  0
   36.2840   29.2590   38.8980 C   0  0  0  0  0  0  0  0  0  0  0  0
   37.4820   29.8940   38.8170 N   0  0  0  0  0  0  0  0  0  0  0  0
   37.9860   30.3540   37.6610 C   0  0  0  0  0  0  0  0  0  0  0  0
   37.2850   30.1830   36.5460 N   0  0  0  0  0  0  0  0  0  0  0  0
   34.6000   28.5820   37.7580 H   0  0  0  0  0  0  0  0  0  0  0  0
   39.2710   31.0110   37.7090 C   0  0  0  0  0  0  0  0  0  0  0  0
   40.1460   30.5220   38.4610 O   0  0  0  0  0  0  0  0  0  0  0  0
   39.4560   32.1740   36.8940 N   0  0  0  0  0  0  0  0  0  0  0  0
   39.9780   31.8500   36.0350 H   0  0  0  0  0  0  0  0  0  0  0  0
   38.9950   32.8860   37.4830 H   0  0  0  0  0  0  0  0  0  0  0  0
   35.1110   29.3140   35.0510 S   0  0  0  0  0  0  0  0  0  0  0  0
   33.4130   28.8190   35.4180 C   0  0  0  0  0  0  0  0  0  0  0  0
   33.2050   28.7560   36.5120 H   0  0  0  0  0  0  0  0  0  0  0  0
   33.2850   27.7920   35.0160 H   0  0  0  0  0  0  0  0  0  0  0  0
   32.3910   29.7010   34.7740 C   0  0  0  0  0  0  0  0  0  0  0  0
   31.7560   29.0460   34.1130 H   0  0  0  0  0  0  0  0  0  0  0  0
   32.8200   30.4830   34.1160 H   0  0  0  0  0  0  0  0  0  0  0  0
   31.2980   32.4780   34.1960 Cl  0  0  0  0  0  0  0  0  0  0  0  0
   30.9220   31.5640   35.6290 C   0  0  0  0  0  0  0  0  0  0  0  0
   31.4880   30.2900   35.7850 C   0  0  0  0  0  0  0  0  0  0  0  0
   31.1400   29.6410   36.9400 C   0  0  0  0  0  0  0  0  0  0  0  0
   30.3060   30.1000   37.9470 C   0  0  0  0  0  0  0  0  0  0  0  0
   29.7740   31.3530   37.7500 C   0  0  0  0  0  0  0  0  0  0  0  0
   28.6990   32.0270   38.9770 Cl  0  0  0  0  0  0  0  0  0  0  0  0
   30.0790   32.0670   36.6140 C   0  0  0  0  0  0  0  0  0  0  0  0
   31.5860   28.6510   37.0500 H   0  0  0  0  0  0  0  0  0  0  0  0
   30.1080   29.4840   38.8180 H   0  0  0  0  0  0  0  0  0  0  0  0
   29.6690   33.0630   36.4360 H   0  0  0  0  0  0  0  0  0  0  0  0
   35.7240   28.7450   40.1870 C   0  0  0  0  0  2  0  0  0  0  0  0
   36.7480   28.3160   41.1460 C   0  0  0  0  0  0  0  0  0  0  0  0
   37.2410   27.0910   41.2280 C   0  0  0  0  0  0  0  0  0  0  0  0
   38.2290   26.7420   42.1780 N   0  0  0  0  0  0  0  0  0  0  0  0
   39.4020   26.0450   42.5540 C   0  0  0  0  0  0  0  0  0  0  0  0
   40.0710   25.1210   41.9780 O   0  0  0  0  0  0  0  0  0  0  0  0
   39.5630   26.7690   43.8350 C   0  0  0  0  0  3  0  0  0  0  0  0
   40.3950   27.4820   43.7690 H   0  0  0  0  0  0  0  0  0  0  0  0
   38.1910   27.2780   43.5270 C   0  0  1  0  0  3  0  0  0  0  0  0
   38.2490   29.1000   43.3180 S   0  0  0  0  0  0  0  0  0  0  0  0
   37.1190   29.4820   41.9830 C   0  0  0  0  0  3  0  0  0  0  0  0
   37.6240   30.2740   41.3600 H   0  0  0  0  0  0  0  0  0  0  0  0
   36.7420   26.0830   40.3040 C   0  0  0  0  0  0  0  0  0  0  0  0
   36.7140   24.8550   40.5780 O   0  0  0  0  0  0  0  0  0  0  0  0
   36.2290   25.3700   39.2660 O   0  0  0  0  0  0  0  0  0  0  0  0
   35.5360   25.8280   38.6520 H   0  0  0  0  0  0  0  0  0  0  0  0
  1  6  2  0  0  0  0
  1  2  1  0  0  0  0
  2  7  1  0  0  0  0
  2  3  2  0  0  0  0
  3 31  1  0  0  0  0
  4  3  1  0  0  0  0
  5  8  1  0  0  0  0
  5  4  2  0  0  0  0
  6  5  1  0  0  0  0
  8  9  2  0  0  0  0
 10 12  1  0  0  0  0
 10  8  1  0  0  0  0
 11 10  1  0  0  0  0
 13 14  1  0  0  0  0
 13  1  1  0  0  0  0
 14 15  1  0  0  0  0
 16 14  1  0  0  0  0
 17 14  1  0  0  0  0
 17 22  1  0  0  0  0
 18 17  1  0  0  0  0
 19 17  1  0  0  0  0
 20 21  1  0  0  0  0
 21 22  2  0  0  0  0
 21 27  1  0  0  0  0
 22 23  1  0  0  0  0
 23 28  1  0  0  0  0
 23 24  2  0  0  0  0
 24 29  1  0  0  0  0
 25 24  1  0  0  0  0
 25 26  1  0  0  0  0
 27 25  2  0  0  0  0
 30 27  1  0  0  0  0
 31 32  1  0  0  0  0
 32 33  2  0  0  0  0
 32 41  1  0  0  0  0
 33 34  1  0  0  0  0
 34 35  1  0  0  0  0
 34 39  1  0  0  0  0
 35 37  1  0  0  0  0
 36 35  2  0  0  0  0
 38 37  1  0  0  0  0
 39 40  1  6  0  0  0
 39 37  1  0  0  0  0
 41 40  1  0  0  0  0
 42 41  1  0  0  0  0
 43 44  2  0  0  0  0
 43 33  1  0  0  0  0
 45 43  1  0  0  0  0
 46 45  1  0  0  0  0
M  END
>  <minimizedAffinity>
-6.91825485

$$$$

 OpenBabel03242515073D

 46 49  0  0  1  0  0  0  0  0999 V2000
   40.8720   31.5970   41.6560 C   0  0  0  0  0  0  0  0  0  0  0  0
   39.5070   31.5820   41.3630 C   0  0  0  0  0  0  0  0  0  0  0  0
   38.9900   32.5970   40.5650 C   0  0  0  0  0  0  0  0  0  0  0  0
   39.8420   33.5540   40.1120 N   0  0  0  0  0  0  0  0  0  0  0  0
   41.1530   33.5580   40.4010 C   0  0  0  0  0  0  0  0  0  0  0  0
   41.6410   32.5860   41.1630 N   0  0  0  0  0  0  0  0  0  0  0  0
   38.8570   30.8090   41.7370 H   0  0  0  0  0  0  0  0  0  0  0  0
   41.9510   34.6320   39.8580 C   0  0  0  0  0  0  0  0  0  0  0  0
   41.4440   35.3330   38.9530 O   0  0  0  0  0  0  0  0  0  0  0  0
   43.2660   34.8210   40.3940 N   0  0  0  0  0  0  0  0  0  0  0  0
   43.1900   35.6150   41.0860 H   0  0  0  0  0  0  0  0  0  0  0  0
   43.7810   34.0880   39.8790 H   0  0  0  0  0  0  0  0  0  0  0  0
   41.4890   30.2680   42.6870 S   0  0  0  0  0  0  0  0  0  0  0  0
   40.9130   28.6450   42.1440 C   0  0  0  0  0  0  0  0  0  0  0  0
   41.7180   28.0310   41.6780 H   0  0  0  0  0  0  0  0  0  0  0  0
   40.1570   28.8230   41.3500 H   0  0  0  0  0  0  0  0  0  0  0  0
   40.2630   27.8560   43.2360 C   0  0  0  0  0  0  0  0  0  0  0  0
   39.6960   28.5850   43.8800 H   0  0  0  0  0  0  0  0  0  0  0  0
   40.9790   27.3400   43.9080 H   0  0  0  0  0  0  0  0  0  0  0  0
   37.3420   28.3990   43.8750 Cl  0  0  0  0  0  0  0  0  0  0  0  0
   37.8930   27.0570   42.9120 C   0  0  0  0  0  0  0  0  0  0  0  0
   39.2710   26.9100   42.6850 C   0  0  0  0  0  0  0  0  0  0  0  0
   39.6170   25.8300   41.9190 C   0  0  0  0  0  0  0  0  0  0  0  0
   38.7700   24.8880   41.3570 C   0  0  0  0  0  0  0  0  0  0  0  0
   37.4300   25.0730   41.6050 C   0  0  0  0  0  0  0  0  0  0  0  0
   36.2700   23.9250   40.9330 Cl  0  0  0  0  0  0  0  0  0  0  0  0
   37.0050   26.1360   42.3690 C   0  0  0  0  0  0  0  0  0  0  0  0
   40.6900   25.7260   41.7490 H   0  0  0  0  0  0  0  0  0  0  0  0
   39.1730   24.0720   40.7650 H   0  0  0  0  0  0  0  0  0  0  0  0
   35.9470   26.3040   42.5790 H   0  0  0  0  0  0  0  0  0  0  0  0
   37.5290   32.5950   40.2420 C   0  0  0  0  0  2  0  0  0  0  0  0
   37.0210   31.2860   39.8150 C   0  0  0  0  0  0  0  0  0  0  0  0
   37.2250   30.7490   38.6240 C   0  0  0  0  0  0  0  0  0  0  0  0
   36.7060   29.4800   38.2740 N   0  0  0  0  0  0  0  0  0  0  0  0
   36.8190   28.2230   37.6320 C   0  0  0  0  0  0  0  0  0  0  0  0
   37.6710   27.7610   36.7990 O   0  0  0  0  0  0  0  0  0  0  0  0
   35.6100   27.6570   38.2710 C   0  0  0  0  0  3  0  0  0  0  0  0
   35.8910   26.9270   39.0410 H   0  0  0  0  0  0  0  0  0  0  0  0
   35.3820   29.0680   38.7070 C   0  0  1  0  0  3  0  0  0  0  0  0
   35.4310   29.1560   40.5390 S   0  0  0  0  0  0  0  0  0  0  0  0
   36.2590   30.6930   40.9400 C   0  0  0  0  0  3  0  0  0  0  0  0
   36.9420   30.4660   41.8070 H   0  0  0  0  0  0  0  0  0  0  0  0
   38.0110   31.4980   37.6530 C   0  0  0  0  0  0  0  0  0  0  0  0
   37.5800   31.8030   36.5110 O   0  0  0  0  0  0  0  0  0  0  0  0
   38.9470   32.1950   36.9570 O   0  0  0  0  0  0  0  0  0  0  0  0
   39.6140   32.7810   37.4840 H   0  0  0  0  0  0  0  0  0  0  0  0
  1 13  1  0  0  0  0
  2  1  1  0  0  0  0
  2  7  1  0  0  0  0
  3  2  2  0  0  0  0
  4  5  2  0  0  0  0
  4  3  1  0  0  0  0
  5  6  1  0  0  0  0
  6  1  2  0  0  0  0
  8 10  1  0  0  0  0
  8  5  1  0  0  0  0
  9  8  2  0  0  0  0
 10 11  1  0  0  0  0
 12 10  1  0  0  0  0
 14 13  1  0  0  0  0
 14 17  1  0  0  0  0
 15 14  1  0  0  0  0
 16 14  1  0  0  0  0
 17 18  1  0  0  0  0
 17 19  1  0  0  0  0
 21 20  1  0  0  0  0
 22 21  1  0  0  0  0
 22 17  1  0  0  0  0
 23 22  2  0  0  0  0
 24 25  2  0  0  0  0
 24 23  1  0  0  0  0
 25 27  1  0  0  0  0
 26 25  1  0  0  0  0
 27 30  1  0  0  0  0
 27 21  2  0  0  0  0
 28 23  1  0  0  0  0
 29 24  1  0  0  0  0
 31  3  1  0  0  0  0
 32 31  1  0  0  0  0
 32 41  1  0  0  0  0
 33 32  2  0  0  0  0
 34 33  1  0  0  0  0
 34 39  1  0  0  0  0
 35 37  1  0  0  0  0
 35 34  1  0  0  0  0
 36 35  2  0  0  0  0
 37 38  1  0  0  0  0
 39 37  1  1  0  0  0
 39 40  1  0  0  0  0
 40 41  1  0  0  0  0
 41 42  1  0  0  0  0
 43 33  1  0  0  0  0
 44 43  2  0  0  0  0
 45 46  1  0  0  0  0
 45 43  1  0  0  0  0
M  END
>  <minimizedAffinity>
-6.89110851

$$$$

 OpenBabel03242515073D

 46 49  0  0  1  0  0  0  0  0999 V2000
   37.0340   28.6020   39.2850 C   0  0  0  0  0  0  0  0  0  0  0  0
   37.4090   29.9050   39.6150 C   0  0  0  0  0  0  0  0  0  0  0  0
   37.4030   30.8700   38.6120 C   0  0  0  0  0  0  0  0  0  0  0  0
   37.0330   30.4920   37.3610 N   0  0  0  0  0  0  0  0  0  0  0  0
   36.6750   29.2340   37.0560 C   0  0  0  0  0  0  0  0  0  0  0  0
   36.6820   28.3180   38.0170 N   0  0  0  0  0  0  0  0  0  0  0  0
   37.6980   30.1740   40.6180 H   0  0  0  0  0  0  0  0  0  0  0  0
   36.3030   28.9610   35.6870 C   0  0  0  0  0  0  0  0  0  0  0  0
   35.0820   28.9380   35.4100 O   0  0  0  0  0  0  0  0  0  0  0  0
   37.3560   28.7360   34.7430 N   0  0  0  0  0  0  0  0  0  0  0  0
   37.4830   29.6460   34.2220 H   0  0  0  0  0  0  0  0  0  0  0  0
   37.5810   27.7490   34.9490 H   0  0  0  0  0  0  0  0  0  0  0  0
   37.0580   27.3960   40.6110 S   0  0  0  0  0  0  0  0  0  0  0  0
   36.5480   28.0990   42.1950 C   0  0  0  0  0  0  0  0  0  0  0  0
   35.5420   27.7490   42.5230 H   0  0  0  0  0  0  0  0  0  0  0  0
   36.4640   29.1960   42.0450 H   0  0  0  0  0  0  0  0  0  0  0  0
   37.5350   27.8530   43.2920 C   0  0  0  0  0  0  0  0  0  0  0  0
   37.7990   26.7590   43.2620 H   0  0  0  0  0  0  0  0  0  0  0  0
   37.1380   28.0500   44.3080 H   0  0  0  0  0  0  0  0  0  0  0  0
   40.1280   26.2720   43.4110 Cl  0  0  0  0  0  0  0  0  0  0  0  0
   40.0450   27.9800   43.0820 C   0  0  0  0  0  0  0  0  0  0  0  0
   38.7870   28.6010   43.0530 C   0  0  0  0  0  0  0  0  0  0  0  0
   38.8130   29.9440   42.7870 C   0  0  0  0  0  0  0  0  0  0  0  0
   39.9250   30.7360   42.5500 C   0  0  0  0  0  0  0  0  0  0  0  0
   41.1350   30.0840   42.5880 C   0  0  0  0  0  0  0  0  0  0  0  0
   42.6130   31.0060   42.2990 Cl  0  0  0  0  0  0  0  0  0  0  0  0
   41.1900   28.7340   42.8500 C   0  0  0  0  0  0  0  0  0  0  0  0
   37.8290   30.4160   42.7660 H   0  0  0  0  0  0  0  0  0  0  0  0
   39.8110   31.7960   42.3490 H   0  0  0  0  0  0  0  0  0  0  0  0
   42.1390   28.1950   42.8850 H   0  0  0  0  0  0  0  0  0  0  0  0
   37.8030   32.2710   38.9510 C   0  0  0  0  0  2  0  0  0  0  0  0
   39.2390   32.5290   38.7950 C   0  0  0  0  0  0  0  0  0  0  0  0
   39.9350   33.3920   39.5160 C   0  0  0  0  0  0  0  0  0  0  0  0
   41.3200   33.5940   39.3130 N   0  0  0  0  0  0  0  0  0  0  0  0
   42.6280   33.8260   39.8030 C   0  0  0  0  0  0  0  0  0  0  0  0
   43.0650   34.1450   40.9610 O   0  0  0  0  0  0  0  0  0  0  0  0
   43.2870   33.5670   38.5030 C   0  0  0  0  0  3  0  0  0  0  0  0
   43.8000   32.5970   38.5220 H   0  0  0  0  0  0  0  0  0  0  0  0
   41.8880   33.5990   37.9770 C   0  0  1  0  0  3  0  0  0  0  0  0
   41.4630   31.9590   37.2720 S   0  0  0  0  0  0  0  0  0  0  0  0
   39.7510   31.6610   37.7070 C   0  0  0  0  0  3  0  0  0  0  0  0
   39.6860   30.5750   38.0010 H   0  0  0  0  0  0  0  0  0  0  0  0
   39.2390   34.1510   40.5460 C   0  0  0  0  0  0  0  0  0  0  0  0
   38.8000   35.3160   40.3630 O   0  0  0  0  0  0  0  0  0  0  0  0
   38.6340   34.6190   41.6700 O   0  0  0  0  0  0  0  0  0  0  0  0
   38.1840   33.9400   42.3030 H   0  0  0  0  0  0  0  0  0  0  0  0
  1  2  1  0  0  0  0
  1 13  1  0  0  0  0
  2  7  1  0  0  0  0
  3 31  1  0  0  0  0
  3  2  2  0  0  0  0
  4  3  1  0  0  0  0
  5  4  2  0  0  0  0
  5  6  1  0  0  0  0
  6  1  2  0  0  0  0
  8  5  1  0  0  0  0
  9  8  2  0  0  0  0
 10 12  1  0  0  0  0
 10  8  1  0  0  0  0
 11 10  1  0  0  0  0
 13 14  1  0  0  0  0
 14 15  1  0  0  0  0
 14 17  1  0  0  0  0
 16 14  1  0  0  0  0
 17 19  1  0  0  0  0
 18 17  1  0  0  0  0
 21 20  1  0  0  0  0
 22 21  1  0  0  0  0
 22 17  1  0  0  0  0
 23 22  2  0  0  0  0
 24 25  2  0  0  0  0
 24 23  1  0  0  0  0
 25 27  1  0  0  0  0
 26 25  1  0  0  0  0
 27 30  1  0  0  0  0
 27 21  2  0  0  0  0
 28 23  1  0  0  0  0
 29 24  1  0  0  0  0
 32 31  1  0  0  0  0
 32 33  2  0  0  0  0
 33 43  1  0  0  0  0
 34 33  1  0  0  0  0
 34 35  1  0  0  0  0
 35 36  2  0  0  0  0
 37 38  1  0  0  0  0
 37 35  1  0  0  0  0
 39 40  1  6  0  0  0
 39 37  1  0  0  0  0
 39 34  1  0  0  0  0
 40 41  1  0  0  0  0
 41 42  1  0  0  0  0
 41 32  1  0  0  0  0
 43 45  1  0  0  0  0
 44 43  2  0  0  0  0
 45 46  1  0  0  0  0
M  END
>  <minimizedAffinity>
-6.85830498

$$$$

 OpenBabel03242515073D

 46 49  0  0  1  0  0  0  0  0999 V2000
   41.0960   31.5480   40.8770 C   0  0  0  0  0  0  0  0  0  0  0  0
   39.7410   31.7400   40.6020 C   0  0  0  0  0  0  0  0  0  0  0  0
   39.3910   32.5660   39.5390 C   0  0  0  0  0  0  0  0  0  0  0  0
   40.3890   33.1460   38.8230 N   0  0  0  0  0  0  0  0  0  0  0  0
   41.6890   32.9550   39.0970 C   0  0  0  0  0  0  0  0  0  0  0  0
   42.0170   32.1650   40.1130 N   0  0  0  0  0  0  0  0  0  0  0  0
   38.9720   31.2650   41.1890 H   0  0  0  0  0  0  0  0  0  0  0  0
   42.6540   33.6300   38.2610 C   0  0  0  0  0  0  0  0  0  0  0  0
   43.7750   33.8870   38.7560 O   0  0  0  0  0  0  0  0  0  0  0  0
   42.2620   33.9560   36.9220 N   0  0  0  0  0  0  0  0  0  0  0  0
   42.6790   33.2090   36.3040 H   0  0  0  0  0  0  0  0  0  0  0  0
   41.7130   34.8140   37.0960 H   0  0  0  0  0  0  0  0  0  0  0  0
   41.4940   30.4750   42.2560 S   0  0  0  0  0  0  0  0  0  0  0  0
   41.0400   28.7550   41.9490 C   0  0  0  0  0  0  0  0  0  0  0  0
   41.9130   28.1150   41.6810 H   0  0  0  0  0  0  0  0  0  0  0  0
   40.3690   28.7540   41.0630 H   0  0  0  0  0  0  0  0  0  0  0  0
   40.3030   28.1280   43.0890 C   0  0  0  0  0  0  0  0  0  0  0  0
   39.7100   28.9450   43.5900 H   0  0  0  0  0  0  0  0  0  0  0  0
   40.9610   27.6990   43.8710 H   0  0  0  0  0  0  0  0  0  0  0  0
   37.4370   28.4140   44.0600 Cl  0  0  0  0  0  0  0  0  0  0  0  0
   37.9770   27.1590   42.9820 C   0  0  0  0  0  0  0  0  0  0  0  0
   39.3280   27.1290   42.6040 C   0  0  0  0  0  0  0  0  0  0  0  0
   39.6670   26.1100   41.7540 C   0  0  0  0  0  0  0  0  0  0  0  0
   38.8360   25.1270   41.2420 C   0  0  0  0  0  0  0  0  0  0  0  0
   37.5210   25.1960   41.6410 C   0  0  0  0  0  0  0  0  0  0  0  0
   36.3820   23.9880   41.0430 Cl  0  0  0  0  0  0  0  0  0  0  0  0
   37.1050   26.1920   42.4940 C   0  0  0  0  0  0  0  0  0  0  0  0
   40.7200   26.0970   41.4670 H   0  0  0  0  0  0  0  0  0  0  0  0
   39.2300   24.3690   40.5730 H   0  0  0  0  0  0  0  0  0  0  0  0
   36.0670   26.2680   42.8240 H   0  0  0  0  0  0  0  0  0  0  0  0
   37.9430   32.7820   39.2320 C   0  0  0  0  0  2  0  0  0  0  0  0
   37.3160   31.6590   38.5250 C   0  0  0  0  0  0  0  0  0  0  0  0
   36.4720   30.7990   39.0690 C   0  0  0  0  0  0  0  0  0  0  0  0
   35.9030   29.7360   38.3290 N   0  0  0  0  0  0  0  0  0  0  0  0
   34.8140   28.8940   37.9980 C   0  0  0  0  0  0  0  0  0  0  0  0
   33.6720   28.7160   38.5430 O   0  0  0  0  0  0  0  0  0  0  0  0
   35.4770   28.3090   36.8100 C   0  0  0  0  0  3  0  0  0  0  0  0
   35.0310   28.7070   35.8900 H   0  0  0  0  0  0  0  0  0  0  0  0
   36.6860   29.0040   37.3490 C   0  0  1  0  0  3  0  0  0  0  0  0
   37.2500   30.2700   36.1470 S   0  0  0  0  0  0  0  0  0  0  0  0
   37.7930   31.6710   37.1210 C   0  0  0  0  0  3  0  0  0  0  0  0
   37.4240   32.5900   36.5830 H   0  0  0  0  0  0  0  0  0  0  0  0
   36.1260   30.9650   40.4740 C   0  0  0  0  0  0  0  0  0  0  0  0
   36.3660   30.0920   41.3480 O   0  0  0  0  0  0  0  0  0  0  0  0
   35.7010   31.3800   41.6960 O   0  0  0  0  0  0  0  0  0  0  0  0
   35.6980   32.3920   41.8970 H   0  0  0  0  0  0  0  0  0  0  0  0
  1 13  1  0  0  0  0
  2  1  1  0  0  0  0
  2  7  1  0  0  0  0
  3  2  2  0  0  0  0
  4  5  2  0  0  0  0
  4  3  1  0  0  0  0
  5  6  1  0  0  0  0
  6  1  2  0  0  0  0
  8  9  2  0  0  0  0
  8  5  1  0  0  0  0
 10 12  1  0  0  0  0
 10  8  1  0  0  0  0
 11 10  1  0  0  0  0
 14 13  1  0  0  0  0
 14 17  1  0  0  0  0
 15 14  1  0  0  0  0
 16 14  1  0  0  0  0
 17 18  1  0  0  0  0
 17 19  1  0  0  0  0
 21 20  1  0  0  0  0
 22 21  1  0  0  0  0
 22 17  1  0  0  0  0
 23 22  2  0  0  0  0
 24 25  2  0  0  0  0
 24 23  1  0  0  0  0
 25 27  1  0  0  0  0
 26 25  1  0  0  0  0
 27 30  1  0  0  0  0
 27 21  2  0  0  0  0
 28 23  1  0  0  0  0
 29 24  1  0  0  0  0
 31  3  1  0  0  0  0
 32 33  2  0  0  0  0
 32 31  1  0  0  0  0
 33 43  1  0  0  0  0
 34 33  1  0  0  0  0
 35 34  1  0  0  0  0
 35 36  2  0  0  0  0
 37 39  1  0  0  0  0
 37 35  1  0  0  0  0
 38 37  1  0  0  0  0
 39 40  1  6  0  0  0
 39 34  1  0  0  0  0
 40 41  1  0  0  0  0
 41 32  1  0  0  0  0
 42 41  1  0  0  0  0
 43 44  2  0  0  0  0
 43 45  1  0  0  0  0
 45 46  1  0  0  0  0
M  END
>  <minimizedAffinity>
-6.73968172

$$$$

 OpenBabel03242515073D

 46 49  0  0  1  0  0  0  0  0999 V2000
   38.6690   30.7220   39.2140 C   0  0  0  0  0  0  0  0  0  0  0  0
   38.6320   30.0500   40.4370 C   0  0  0  0  0  0  0  0  0  0  0  0
   38.9240   30.7660   41.5940 C   0  0  0  0  0  0  0  0  0  0  0  0
   39.2320   32.0840   41.4720 N   0  0  0  0  0  0  0  0  0  0  0  0
   39.2650   32.7180   40.2900 C   0  0  0  0  0  0  0  0  0  0  0  0
   38.9850   32.0300   39.1890 N   0  0  0  0  0  0  0  0  0  0  0  0
   38.3840   29.0040   40.5010 H   0  0  0  0  0  0  0  0  0  0  0  0
   39.6070   34.1210   40.2950 C   0  0  0  0  0  0  0  0  0  0  0  0
   40.4290   34.5230   39.4390 O   0  0  0  0  0  0  0  0  0  0  0  0
   38.9830   34.9560   41.2780 N   0  0  0  0  0  0  0  0  0  0  0  0
   38.1900   35.4480   40.7830 H   0  0  0  0  0  0  0  0  0  0  0  0
   39.5690   34.7410   42.1010 H   0  0  0  0  0  0  0  0  0  0  0  0
   38.2850   29.7570   37.7530 S   0  0  0  0  0  0  0  0  0  0  0  0
   36.5280   29.8010   37.3360 C   0  0  0  0  0  0  0  0  0  0  0  0
   36.2880   29.2370   36.4050 H   0  0  0  0  0  0  0  0  0  0  0  0
   36.2750   30.8630   37.1330 H   0  0  0  0  0  0  0  0  0  0  0  0
   35.6480   29.3170   38.4450 C   0  0  0  0  0  0  0  0  0  0  0  0
   34.5820   29.4480   38.1040 H   0  0  0  0  0  0  0  0  0  0  0  0
   35.7470   29.8960   39.3850 H   0  0  0  0  0  0  0  0  0  0  0  0
   34.4770   27.4080   36.3890 Cl  0  0  0  0  0  0  0  0  0  0  0  0
   35.3510   26.8960   37.8050 C   0  0  0  0  0  0  0  0  0  0  0  0
   35.8460   27.8720   38.6830 C   0  0  0  0  0  0  0  0  0  0  0  0
   36.5210   27.3820   39.7700 C   0  0  0  0  0  0  0  0  0  0  0  0
   36.7600   26.0540   40.0850 C   0  0  0  0  0  0  0  0  0  0  0  0
   36.2580   25.1340   39.1960 C   0  0  0  0  0  0  0  0  0  0  0  0
   36.5100   23.4160   39.5090 Cl  0  0  0  0  0  0  0  0  0  0  0  0
   35.5670   25.5500   38.0800 C   0  0  0  0  0  0  0  0  0  0  0  0
   36.9000   28.1500   40.4450 H   0  0  0  0  0  0  0  0  0  0  0  0
   37.3130   25.7950   40.9830 H   0  0  0  0  0  0  0  0  0  0  0  0
   35.1590   24.8380   37.3600 H   0  0  0  0  0  0  0  0  0  0  0  0
   38.8890   30.0600   42.9130 C   0  0  0  0  0  2  0  0  0  0  0  0
   39.4670   28.7120   42.8760 C   0  0  0  0  0  0  0  0  0  0  0  0
   38.7990   27.5970   43.1180 C   0  0  0  0  0  0  0  0  0  0  0  0
   39.4180   26.3260   43.0670 N   0  0  0  0  0  0  0  0  0  0  0  0
   39.4060   24.9490   42.7360 C   0  0  0  0  0  0  0  0  0  0  0  0
   38.4670   24.1640   42.3690 O   0  0  0  0  0  0  0  0  0  0  0  0
   40.8560   24.7610   42.9700 C   0  0  0  0  0  3  0  0  0  0  0  0
   41.3860   24.6560   42.0140 H   0  0  0  0  0  0  0  0  0  0  0  0
   40.7680   26.1310   43.5640 C   0  0  1  0  0  3  0  0  0  0  0  0
   41.8070   27.2870   42.5890 S   0  0  0  0  0  0  0  0  0  0  0  0
   40.9020   28.8320   42.5240 C   0  0  0  0  0  3  0  0  0  0  0  0
   41.0230   29.2240   41.4740 H   0  0  0  0  0  0  0  0  0  0  0  0
   37.3830   27.6960   43.4450 C   0  0  0  0  0  0  0  0  0  0  0  0
   36.9600   27.8720   44.6170 O   0  0  0  0  0  0  0  0  0  0  0  0
   36.0250   27.7530   43.4630 O   0  0  0  0  0  0  0  0  0  0  0  0
   35.5390   28.1150   42.6270 H   0  0  0  0  0  0  0  0  0  0  0  0
  1  2  1  0  0  0  0
  2  7  1  0  0  0  0
  2  3  2  0  0  0  0
  3 31  1  0  0  0  0
  4  3  1  0  0  0  0
  5  8  1  0  0  0  0
  5  4  2  0  0  0  0
  6  1  2  0  0  0  0
  6  5  1  0  0  0  0
  8 10  1  0  0  0  0
  9  8  2  0  0  0  0
 10 12  1  0  0  0  0
 11 10  1  0  0  0  0
 13  1  1  0  0  0  0
 14 13  1  0  0  0  0
 14 17  1  0  0  0  0
 15 14  1  0  0  0  0
 16 14  1  0  0  0  0
 17 22  1  0  0  0  0
 17 19  1  0  0  0  0
 18 17  1  0  0  0  0
 20 21  1  0  0  0  0
 21 27  2  0  0  0  0
 21 22  1  0  0  0  0
 22 23  2  0  0  0  0
 23 24  1  0  0  0  0
 23 28  1  0  0  0  0
 24 29  1  0  0  0  0
 25 26  1  0  0  0  0
 25 24  2  0  0  0  0
 27 25  1  0  0  0  0
 30 27  1  0  0  0  0
 32 31  1  0  0  0  0
 32 33  2  0  0  0  0
 33 43  1  0  0  0  0
 34 33  1  0  0  0  0
 34 39  1  0  0  0  0
 35 37  1  0  0  0  0
 35 34  1  0  0  0  0
 36 35  2  0  0  0  0
 37 39  1  0  0  0  0
 38 37  1  0  0  0  0
 39 40  1  6  0  0  0
 41 40  1  0  0  0  0
 41 32  1  0  0  0  0
 42 41  1  0  0  0  0
 43 45  1  0  0  0  0
 43 44  2  0  0  0  0
 46 45  1  0  0  0  0
M  END
>  <minimizedAffinity>
-6.60804939

$$$$

 OpenBabel03242515073D

 46 49  0  0  1  0  0  0  0  0999 V2000
   38.6700   28.2730   38.6900 C   0  0  0  0  0  0  0  0  0  0  0  0
   39.1450   29.4090   38.0330 C   0  0  0  0  0  0  0  0  0  0  0  0
   38.5470   30.6340   38.3130 C   0  0  0  0  0  0  0  0  0  0  0  0
   37.5300   30.6600   39.2130 N   0  0  0  0  0  0  0  0  0  0  0  0
   37.0820   29.5600   39.8390 C   0  0  0  0  0  0  0  0  0  0  0  0
   37.6560   28.3930   39.5680 N   0  0  0  0  0  0  0  0  0  0  0  0
   39.9540   29.3560   37.3230 H   0  0  0  0  0  0  0  0  0  0  0  0
   35.9930   29.7210   40.7740 C   0  0  0  0  0  0  0  0  0  0  0  0
   35.3140   28.7080   41.0560 O   0  0  0  0  0  0  0  0  0  0  0  0
   35.7670   31.0280   41.3150 N   0  0  0  0  0  0  0  0  0  0  0  0
   36.2090   31.0290   42.2740 H   0  0  0  0  0  0  0  0  0  0  0  0
   35.2500   31.4630   40.5340 H   0  0  0  0  0  0  0  0  0  0  0  0
   39.4730   26.7200   38.2960 S   0  0  0  0  0  0  0  0  0  0  0  0
   40.7550   26.2800   39.4890 C   0  0  0  0  0  0  0  0  0  0  0  0
   41.2050   27.1670   39.9910 H   0  0  0  0  0  0  0  0  0  0  0  0
   41.5740   25.7960   38.9150 H   0  0  0  0  0  0  0  0  0  0  0  0
   40.2830   25.3140   40.5300 C   0  0  0  0  0  0  0  0  0  0  0  0
   41.1930   24.9610   41.0920 H   0  0  0  0  0  0  0  0  0  0  0  0
   39.8020   24.4040   40.1160 H   0  0  0  0  0  0  0  0  0  0  0  0
   37.4320   24.2840   40.7570 Cl  0  0  0  0  0  0  0  0  0  0  0  0
   38.0710   25.5960   41.7080 C   0  0  0  0  0  0  0  0  0  0  0  0
   39.4060   25.9820   41.5130 C   0  0  0  0  0  0  0  0  0  0  0  0
   39.8270   27.0210   42.3010 C   0  0  0  0  0  0  0  0  0  0  0  0
   39.0900   27.7130   43.2480 C   0  0  0  0  0  0  0  0  0  0  0  0
   37.7880   27.2990   43.4040 C   0  0  0  0  0  0  0  0  0  0  0  0
   36.7660   28.1190   44.5870 Cl  0  0  0  0  0  0  0  0  0  0  0  0
   37.2920   26.2620   42.6470 C   0  0  0  0  0  0  0  0  0  0  0  0
   40.8660   27.3120   42.1410 H   0  0  0  0  0  0  0  0  0  0  0  0
   39.5430   28.5220   43.8110 H   0  0  0  0  0  0  0  0  0  0  0  0
   36.2630   25.9150   42.7540 H   0  0  0  0  0  0  0  0  0  0  0  0
   39.0440   31.8610   37.6160 C   0  0  0  0  0  2  0  0  0  0  0  0
   40.3360   32.3420   38.1170 C   0  0  0  0  0  0  0  0  0  0  0  0
   40.5120   32.9860   39.2580 C   0  0  0  0  0  0  0  0  0  0  0  0
   41.7880   33.4250   39.6830 N   0  0  0  0  0  0  0  0  0  0  0  0
   42.7560   33.6420   40.6930 C   0  0  0  0  0  0  0  0  0  0  0  0
   42.6880   33.5970   41.9690 O   0  0  0  0  0  0  0  0  0  0  0  0
   43.8530   33.9350   39.7430 C   0  0  0  0  0  3  0  0  0  0  0  0
   44.5560   33.0930   39.7010 H   0  0  0  0  0  0  0  0  0  0  0  0
   42.7480   33.9640   38.7360 C   0  0  1  0  0  3  0  0  0  0  0  0
   43.0070   32.6270   37.5070 S   0  0  0  0  0  0  0  0  0  0  0  0
   41.3820   31.9760   37.1310 C   0  0  0  0  0  3  0  0  0  0  0  0
   41.4970   30.8570   37.0700 H   0  0  0  0  0  0  0  0  0  0  0  0
   39.3460   33.2460   40.0920 C   0  0  0  0  0  0  0  0  0  0  0  0
   39.2160   34.2880   40.7850 O   0  0  0  0  0  0  0  0  0  0  0  0
   38.1680   33.2290   40.7680 O   0  0  0  0  0  0  0  0  0  0  0  0
   37.3690   32.7260   40.3490 H   0  0  0  0  0  0  0  0  0  0  0  0
  1  6  1  0  0  0  0
  2  3  1  0  0  0  0
  2  1  2  0  0  0  0
  3  4  2  0  0  0  0
  4  5  1  0  0  0  0
  5  8  1  0  0  0  0
  6  5  2  0  0  0  0
  7  2  1  0  0  0  0
  8  9  2  0  0  0  0
  8 10  1  0  0  0  0
 10 11  1  0  0  0  0
 12 10  1  0  0  0  0
 13  1  1  0  0  0  0
 13 14  1  0  0  0  0
 14 15  1  0  0  0  0
 14 17  1  0  0  0  0
 16 14  1  0  0  0  0
 17 18  1  0  0  0  0
 17 22  1  0  0  0  0
 19 17  1  0  0  0  0
 20 21  1  0  0  0  0
 21 27  1  0  0  0  0
 22 21  2  0  0  0  0
 22 23  1  0  0  0  0
 23 24  2  0  0  0  0
 24 25  1  0  0  0  0
 24 29  1  0  0  0  0
 25 26  1  0  0  0  0
 27 30  1  0  0  0  0
 27 25  2  0  0  0  0
 28 23  1  0  0  0  0
 31 32  1  0  0  0  0
 31  3  1  0  0  0  0
 32 33  2  0  0  0  0
 33 34  1  0  0  0  0
 33 43  1  0  0  0  0
 34 35  1  0  0  0  0
 35 36  2  0  0  0  0
 37 35  1  0  0  0  0
 38 37  1  0  0  0  0
 39 40  1  6  0  0  0
 39 34  1  0  0  0  0
 39 37  1  0  0  0  0
 41 40  1  0  0  0  0
 41 32  1  0  0  0  0
 42 41  1  0  0  0  0
 43 45  1  0  0  0  0
 43 44  2  0  0  0  0
 46 45  1  0  0  0  0
M  END
>  <minimizedAffinity>
-6.57154179

$$$$

 OpenBabel03242515073D

 46 49  0  0  1  0  0  0  0  0999 V2000
   38.0090   30.6920   40.7290 C   0  0  0  0  0  0  0  0  0  0  0  0
   39.0020   31.5960   41.1110 C   0  0  0  0  0  0  0  0  0  0  0  0
   39.5740   32.4030   40.1320 C   0  0  0  0  0  0  0  0  0  0  0  0
   39.1350   32.2690   38.8530 N   0  0  0  0  0  0  0  0  0  0  0  0
   38.1800   31.3950   38.4980 C   0  0  0  0  0  0  0  0  0  0  0  0
   37.6370   30.6270   39.4370 N   0  0  0  0  0  0  0  0  0  0  0  0
   39.3280   31.6790   42.1340 H   0  0  0  0  0  0  0  0  0  0  0  0
   37.8030   31.3480   37.1050 C   0  0  0  0  0  0  0  0  0  0  0  0
   36.9760   30.4750   36.7550 O   0  0  0  0  0  0  0  0  0  0  0  0
   38.4000   32.3040   36.2210 N   0  0  0  0  0  0  0  0  0  0  0  0
   37.6850   33.0700   36.0900 H   0  0  0  0  0  0  0  0  0  0  0  0
   39.3160   31.8560   36.0570 H   0  0  0  0  0  0  0  0  0  0  0  0
   37.3030   29.6760   42.0250 S   0  0  0  0  0  0  0  0  0  0  0  0
   38.5560   28.7370   42.9280 C   0  0  0  0  0  0  0  0  0  0  0  0
   39.1700   29.3730   43.6080 H   0  0  0  0  0  0  0  0  0  0  0  0
   39.2550   28.3250   42.1690 H   0  0  0  0  0  0  0  0  0  0  0  0
   37.9870   27.5930   43.7050 C   0  0  0  0  0  0  0  0  0  0  0  0
   36.8910   27.8070   43.8570 H   0  0  0  0  0  0  0  0  0  0  0  0
   38.4230   27.4730   44.7170 H   0  0  0  0  0  0  0  0  0  0  0  0
   40.5920   26.0390   43.8890 Cl  0  0  0  0  0  0  0  0  0  0  0  0
   39.2230   25.5330   42.9400 C   0  0  0  0  0  0  0  0  0  0  0  0
   38.0730   26.3360   42.9340 C   0  0  0  0  0  0  0  0  0  0  0  0
   37.0440   25.8640   42.1620 C   0  0  0  0  0  0  0  0  0  0  0  0
   37.0220   24.7040   41.4030 C   0  0  0  0  0  0  0  0  0  0  0  0
   38.1710   23.9500   41.4410 C   0  0  0  0  0  0  0  0  0  0  0  0
   38.2420   22.4530   40.5080 Cl  0  0  0  0  0  0  0  0  0  0  0  0
   39.2480   24.3600   42.1940 C   0  0  0  0  0  0  0  0  0  0  0  0
   36.1550   26.4960   42.1640 H   0  0  0  0  0  0  0  0  0  0  0  0
   36.1390   24.4400   40.8320 H   0  0  0  0  0  0  0  0  0  0  0  0
   40.1700   23.7770   42.2400 H   0  0  0  0  0  0  0  0  0  0  0  0
   40.6400   33.3770   40.5250 C   0  0  0  0  0  2  0  0  0  0  0  0
   42.0000   32.8370   40.4170 C   0  0  0  0  0  0  0  0  0  0  0  0
   42.6890   32.7440   39.2920 C   0  0  0  0  0  0  0  0  0  0  0  0
   43.9990   32.2120   39.2560 N   0  0  0  0  0  0  0  0  0  0  0  0
   45.3280   32.2120   38.7690 C   0  0  0  0  0  0  0  0  0  0  0  0
   45.8870   32.8340   37.8030 O   0  0  0  0  0  0  0  0  0  0  0  0
   45.8200   31.2430   39.7750 C   0  0  0  0  0  3  0  0  0  0  0  0
   46.4370   31.7530   40.5260 H   0  0  0  0  0  0  0  0  0  0  0  0
   44.3660   31.0720   40.0770 C   0  0  1  0  0  3  0  0  0  0  0  0
   44.0340   31.6000   41.8030 S   0  0  0  0  0  0  0  0  0  0  0  0
   42.4470   32.4300   41.7710 C   0  0  0  0  0  3  0  0  0  0  0  0
   42.5480   33.3280   42.4440 H   0  0  0  0  0  0  0  0  0  0  0  0
   42.0650   33.2080   38.0600 C   0  0  0  0  0  0  0  0  0  0  0  0
   42.4040   34.2710   37.4770 O   0  0  0  0  0  0  0  0  0  0  0  0
   41.3230   33.3970   36.9370 O   0  0  0  0  0  0  0  0  0  0  0  0
   40.9720   32.5660   36.4360 H   0  0  0  0  0  0  0  0  0  0  0  0
  1  2  1  0  0  0  0
  1 13  1  0  0  0  0
  2  7  1  0  0  0  0
  3 31  1  0  0  0  0
  3  2  2  0  0  0  0
  4  3  1  0  0  0  0
  5  4  2  0  0  0  0
  5  6  1  0  0  0  0
  6  1  2  0  0  0  0
  8  5  1  0  0  0  0
  9  8  2  0  0  0  0
 10  8  1  0  0  0  0
 11 10  1  0  0  0  0
 12 10  1  0  0  0  0
 13 14  1  0  0  0  0
 14 15  1  0  0  0  0
 14 17  1  0  0  0  0
 16 14  1  0  0  0  0
 17 18  1  0  0  0  0
 17 19  1  0  0  0  0
 21 20  1  0  0  0  0
 22 21  1  0  0  0  0
 22 17  1  0  0  0  0
 23 28  1  0  0  0  0
 23 22  2  0  0  0  0
 24 25  2  0  0  0  0
 24 23  1  0  0  0  0
 25 27  1  0  0  0  0
 26 25  1  0  0  0  0
 27 30  1  0  0  0  0
 27 21  2  0  0  0  0
 29 24  1  0  0  0  0
 32 31  1  0  0  0  0
 32 41  1  0  0  0  0
 33 32  2  0  0  0  0
 34 33  1  0  0  0  0
 34 39  1  0  0  0  0
 35 34  1  0  0  0  0
 35 37  1  0  0  0  0
 36 35  2  0  0  0  0
 37 38  1  0  0  0  0
 39 37  1  1  0  0  0
 39 40  1  0  0  0  0
 41 40  1  0  0  0  0
 41 42  1  0  0  0  0
 43 33  1  0  0  0  0
 44 43  2  0  0  0  0
 45 43  1  0  0  0  0
 46 45  1  0  0  0  0
M  END
>  <minimizedAffinity>
-6.54638624

$$$$

 OpenBabel03242515073D

 46 49  0  0  1  0  0  0  0  0999 V2000
   37.0810   29.6020   41.3840 C   0  0  0  0  0  0  0  0  0  0  0  0
   37.5180   30.8180   40.8550 C   0  0  0  0  0  0  0  0  0  0  0  0
   37.0520   31.1990   39.6010 C   0  0  0  0  0  0  0  0  0  0  0  0
   36.1950   30.3660   38.9540 N   0  0  0  0  0  0  0  0  0  0  0  0
   35.7830   29.1990   39.4730 C   0  0  0  0  0  0  0  0  0  0  0  0
   36.2310   28.8390   40.6710 N   0  0  0  0  0  0  0  0  0  0  0  0
   38.1980   31.4570   41.3930 H   0  0  0  0  0  0  0  0  0  0  0  0
   34.8720   28.4030   38.6840 C   0  0  0  0  0  0  0  0  0  0  0  0
   35.3050   27.3330   38.1980 O   0  0  0  0  0  0  0  0  0  0  0  0
   33.5370   28.8930   38.5130 N   0  0  0  0  0  0  0  0  0  0  0  0
   32.9400   28.3650   39.2070 H   0  0  0  0  0  0  0  0  0  0  0  0
   33.6890   29.5850   37.7610 H   0  0  0  0  0  0  0  0  0  0  0  0
   37.7090   29.1550   43.0010 S   0  0  0  0  0  0  0  0  0  0  0  0
   37.3720   27.4310   43.4230 C   0  0  0  0  0  0  0  0  0  0  0  0
   36.3630   27.0920   43.0930 H   0  0  0  0  0  0  0  0  0  0  0  0
   37.3770   27.3660   44.5320 H   0  0  0  0  0  0  0  0  0  0  0  0
   38.4050   26.4850   42.8980 C   0  0  0  0  0  0  0  0  0  0  0  0
   38.6170   25.7380   43.7150 H   0  0  0  0  0  0  0  0  0  0  0  0
   39.3750   26.9630   42.6560 H   0  0  0  0  0  0  0  0  0  0  0  0
   39.5000   27.2090   40.1570 Cl  0  0  0  0  0  0  0  0  0  0  0  0
   38.3140   25.9650   40.4320 C   0  0  0  0  0  0  0  0  0  0  0  0
   37.8840   25.7210   41.7450 C   0  0  0  0  0  0  0  0  0  0  0  0
   36.9510   24.7270   41.8720 C   0  0  0  0  0  0  0  0  0  0  0  0
   36.3990   23.9540   40.8620 C   0  0  0  0  0  0  0  0  0  0  0  0
   36.8520   24.2290   39.5920 C   0  0  0  0  0  0  0  0  0  0  0  0
   36.2090   23.2980   38.2370 Cl  0  0  0  0  0  0  0  0  0  0  0  0
   37.7890   25.2150   39.3860 C   0  0  0  0  0  0  0  0  0  0  0  0
   36.6240   24.5460   42.8970 H   0  0  0  0  0  0  0  0  0  0  0  0
   35.6630   23.1920   41.0950 H   0  0  0  0  0  0  0  0  0  0  0  0
   38.1630   25.4500   38.3870 H   0  0  0  0  0  0  0  0  0  0  0  0
   37.5110   32.5000   39.0200 C   0  0  0  0  0  2  0  0  0  0  0  0
   38.9650   32.5860   38.8430 C   0  0  0  0  0  0  0  0  0  0  0  0
   39.7670   33.3620   39.5530 C   0  0  0  0  0  0  0  0  0  0  0  0
   41.1640   33.3990   39.3300 N   0  0  0  0  0  0  0  0  0  0  0  0
   42.4970   33.4760   39.8010 C   0  0  0  0  0  0  0  0  0  0  0  0
   42.9850   33.7420   40.9520 O   0  0  0  0  0  0  0  0  0  0  0  0
   43.1020   33.1400   38.4920 C   0  0  0  0  0  3  0  0  0  0  0  0
   43.4970   32.1160   38.5060 H   0  0  0  0  0  0  0  0  0  0  0  0
   41.7090   33.3360   37.9860 C   0  0  1  0  0  3  0  0  0  0  0  0
   41.0840   31.7570   37.2910 S   0  0  0  0  0  0  0  0  0  0  0  0
   39.3560   31.6630   37.7510 C   0  0  0  0  0  3  0  0  0  0  0  0
   39.1670   30.5930   38.0480 H   0  0  0  0  0  0  0  0  0  0  0  0
   39.1810   34.1980   40.5910 C   0  0  0  0  0  0  0  0  0  0  0  0
   38.8390   35.3940   40.3980 O   0  0  0  0  0  0  0  0  0  0  0  0
   38.6630   34.7390   41.7250 O   0  0  0  0  0  0  0  0  0  0  0  0
   38.1790   34.1140   42.3900 H   0  0  0  0  0  0  0  0  0  0  0  0
  1 13  1  0  0  0  0
  2  1  1  0  0  0  0
  2  7  1  0  0  0  0
  3  2  2  0  0  0  0
  4  5  2  0  0  0  0
  4  3  1  0  0  0  0
  5  6  1  0  0  0  0
  6  1  2  0  0  0  0
  8  5  1  0  0  0  0
  9  8  2  0  0  0  0
 10  8  1  0  0  0  0
 10 11  1  0  0  0  0
 12 10  1  0  0  0  0
 13 14  1  0  0  0  0
 14 16  1  0  0  0  0
 15 14  1  0  0  0  0
 17 14  1  0  0  0  0
 17 18  1  0  0  0  0
 19 17  1  0  0  0  0
 20 21  1  0  0  0  0
 21 22  1  0  0  0  0
 22 23  2  0  0  0  0
 22 17  1  0  0  0  0
 23 28  1  0  0  0  0
 24 29  1  0  0  0  0
 24 23  1  0  0  0  0
 25 24  2  0  0  0  0
 26 25  1  0  0  0  0
 27 25  1  0  0  0  0
 27 21  2  0  0  0  0
 30 27  1  0  0  0  0
 31  3  1  0  0  0  0
 32 31  1  0  0  0  0
 32 33  2  0  0  0  0
 33 43  1  0  0  0  0
 34 33  1  0  0  0  0
 34 35  1  0  0  0  0
 35 36  2  0  0  0  0
 37 38  1  0  0  0  0
 37 35  1  0  0  0  0
 39 40  1  6  0  0  0
 39 37  1  0  0  0  0
 39 34  1  0  0  0  0
 40 41  1  0  0  0  0
 41 42  1  0  0  0  0
 41 32  1  0  0  0  0
 43 45  1  0  0  0  0
 44 43  2  0  0  0  0
 45 46  1  0  0  0  0
M  END
>  <minimizedAffinity>
-6.51303387

$$$$

 OpenBabel03242515073D

 46 49  0  0  1  0  0  0  0  0999 V2000
   36.6900   26.9300   38.3900 C   0  0  0  0  0  0  0  0  0  0  0  0
   37.3150   27.7400   39.3390 C   0  0  0  0  0  0  0  0  0  0  0  0
   37.7160   29.0170   38.9590 C   0  0  0  0  0  0  0  0  0  0  0  0
   37.4780   29.4100   37.6800 N   0  0  0  0  0  0  0  0  0  0  0  0
   36.8770   28.6210   36.7750 C   0  0  0  0  0  0  0  0  0  0  0  0
   36.4960   27.4030   37.1440 N   0  0  0  0  0  0  0  0  0  0  0  0
   37.4900   27.4000   40.3460 H   0  0  0  0  0  0  0  0  0  0  0  0
   36.6830   29.1560   35.4480 C   0  0  0  0  0  0  0  0  0  0  0  0
   36.5730   30.3980   35.3320 O   0  0  0  0  0  0  0  0  0  0  0  0
   36.6310   28.2290   34.3570 N   0  0  0  0  0  0  0  0  0  0  0  0
   37.5880   28.2470   33.9110 H   0  0  0  0  0  0  0  0  0  0  0  0
   35.6550   27.9020   34.4400 H   0  0  0  0  0  0  0  0  0  0  0  0
   36.1930   25.2950   38.9280 S   0  0  0  0  0  0  0  0  0  0  0  0
   37.3620   24.5660   40.0960 C   0  0  0  0  0  0  0  0  0  0  0  0
   38.4100   24.9130   39.9390 H   0  0  0  0  0  0  0  0  0  0  0  0
   37.3640   23.4710   39.9060 H   0  0  0  0  0  0  0  0  0  0  0  0
   36.9810   24.7870   41.5260 C   0  0  0  0  0  0  0  0  0  0  0  0
   36.7370   23.7790   41.9650 H   0  0  0  0  0  0  0  0  0  0  0  0
   36.0740   25.4110   41.6600 H   0  0  0  0  0  0  0  0  0  0  0  0
   36.6080   27.5180   42.8070 Cl  0  0  0  0  0  0  0  0  0  0  0  0
   38.0660   26.5750   42.9350 C   0  0  0  0  0  0  0  0  0  0  0  0
   38.1190   25.3260   42.2990 C   0  0  0  0  0  0  0  0  0  0  0  0
   39.3020   24.6510   42.4500 C   0  0  0  0  0  0  0  0  0  0  0  0
   40.4240   25.0640   43.1500 C   0  0  0  0  0  0  0  0  0  0  0  0
   40.3250   26.2940   43.7570 C   0  0  0  0  0  0  0  0  0  0  0  0
   41.7030   26.9090   44.6730 Cl  0  0  0  0  0  0  0  0  0  0  0  0
   39.1680   27.0320   43.6490 C   0  0  0  0  0  0  0  0  0  0  0  0
   39.3320   23.6810   41.9520 H   0  0  0  0  0  0  0  0  0  0  0  0
   41.3050   24.4320   43.1950 H   0  0  0  0  0  0  0  0  0  0  0  0
   39.0660   28.0100   44.1220 H   0  0  0  0  0  0  0  0  0  0  0  0
   38.3880   29.8980   39.9650 C   0  0  0  0  0  2  0  0  0  0  0  0
   39.4410   30.7470   39.3970 C   0  0  0  0  0  0  0  0  0  0  0  0
   39.3570   32.0580   39.2490 C   0  0  0  0  0  0  0  0  0  0  0  0
   40.4110   32.8190   38.6910 N   0  0  0  0  0  0  0  0  0  0  0  0
   41.2190   33.9810   38.6480 C   0  0  0  0  0  0  0  0  0  0  0  0
   41.1160   35.1180   39.2230 O   0  0  0  0  0  0  0  0  0  0  0  0
   42.2050   33.4030   37.7080 C   0  0  0  0  0  3  0  0  0  0  0  0
   43.1390   33.1650   38.2330 H   0  0  0  0  0  0  0  0  0  0  0  0
   41.1900   32.3130   37.5750 C   0  0  1  0  0  3  0  0  0  0  0  0
   41.9090   30.7340   38.1730 S   0  0  0  0  0  0  0  0  0  0  0  0
   40.5880   29.8810   39.0310 C   0  0  0  0  0  3  0  0  0  0  0  0
   41.0520   29.4260   39.9510 H   0  0  0  0  0  0  0  0  0  0  0  0
   38.1360   32.7250   39.6780 C   0  0  0  0  0  0  0  0  0  0  0  0
   37.1550   32.9210   38.9140 O   0  0  0  0  0  0  0  0  0  0  0  0
   37.1340   33.3650   40.3370 O   0  0  0  0  0  0  0  0  0  0  0  0
   37.0350   33.2070   41.3520 H   0  0  0  0  0  0  0  0  0  0  0  0
  1 13  1  0  0  0  0
  1  2  1  0  0  0  0
  2  7  1  0  0  0  0
  3  2  2  0  0  0  0
  3 31  1  0  0  0  0
  4  3  1  0  0  0  0
  5  6  1  0  0  0  0
  5  4  2  0  0  0  0
  6  1  2  0  0  0  0
  8  5  1  0  0  0  0
  9  8  2  0  0  0  0
 10 12  1  0  0  0  0
 10  8  1  0  0  0  0
 11 10  1  0  0  0  0
 13 14  1  0  0  0  0
 14 17  1  0  0  0  0
 15 14  1  0  0  0  0
 16 14  1  0  0  0  0
 17 19  1  0  0  0  0
 17 18  1  0  0  0  0
 17 22  1  0  0  0  0
 20 21  1  0  0  0  0
 21 27  1  0  0  0  0
 22 23  1  0  0  0  0
 22 21  2  0  0  0  0
 23 24  2  0  0  0  0
 24 29  1  0  0  0  0
 24 25  1  0  0  0  0
 25 26  1  0  0  0  0
 27 25  2  0  0  0  0
 27 30  1  0  0  0  0
 28 23  1  0  0  0  0
 32 31  1  0  0  0  0
 33 32  2  0  0  0  0
 33 43  1  0  0  0  0
 34 33  1  0  0  0  0
 35 34  1  0  0  0  0
 35 36  2  0  0  0  0
 37 38  1  0  0  0  0
 37 35  1  0  0  0  0
 39 37  1  1  0  0  0
 39 40  1  0  0  0  0
 39 34  1  0  0  0  0
 40 41  1  0  0  0  0
 41 32  1  0  0  0  0
 41 42  1  0  0  0  0
 43 45  1  0  0  0  0
 44 43  2  0  0  0  0
 45 46  1  0  0  0  0
M  END
>  <minimizedAffinity>
-6.5082984

$$$$
