
 OpenBabel03252504413D

 52 56  0  0  1  0  0  0  0  0999 V2000
   45.3640   32.8230   47.3050 C   0  0  0  0  0  0  0  0  0  0  0  0
   44.5270   32.1740   46.9660 H   0  0  0  0  0  0  0  0  0  0  0  0
   44.9350   33.6490   47.9080 H   0  0  0  0  0  0  0  0  0  0  0  0
   46.3370   32.0550   48.1380 C   0  0  0  0  0  0  0  0  0  0  0  0
   46.0360   31.2220   49.1840 C   0  0  0  0  0  0  0  0  0  0  0  0
   47.1980   30.7510   49.6360 N   0  0  0  0  0  0  0  0  0  0  0  0
   48.2300   31.2410   48.9310 C   0  0  0  0  0  0  0  0  0  0  0  0
   47.6790   32.0590   47.9920 N   0  0  0  0  0  0  0  0  0  0  0  0
   49.6260   31.0360   49.0340 N   0  0  0  0  0  0  0  0  0  0  0  0
   50.3750   31.9260   49.9480 C   0  0  0  0  0  0  0  0  0  0  0  0
   50.6790   31.0560   51.1620 C   0  0  0  0  0  0  0  0  0  0  0  0
   51.2330   29.7210   50.7340 C   0  0  0  0  0  0  0  0  0  0  0  0
   51.6940   29.8040   49.3000 C   0  0  0  0  0  0  0  0  0  0  0  0
   50.5100   30.1000   48.4060 C   0  0  0  0  0  0  0  0  0  0  0  0
   45.0520   30.9790   49.5840 H   0  0  0  0  0  0  0  0  0  0  0  0
   47.3440   30.0830   50.4350 H   0  0  0  0  0  0  0  0  0  0  0  0
   51.2680   32.3430   49.4770 H   0  0  0  0  0  0  0  0  0  0  0  0
   49.7280   32.7570   50.3140 H   0  0  0  0  0  0  0  0  0  0  0  0
   49.8090   30.9870   51.8180 H   0  0  0  0  0  0  0  0  0  0  0  0
   51.4850   31.5930   51.7330 H   0  0  0  0  0  0  0  0  0  0  0  0
   50.4140   28.9720   50.7790 H   0  0  0  0  0  0  0  0  0  0  0  0
   52.0260   29.3490   51.3980 H   0  0  0  0  0  0  0  0  0  0  0  0
   52.4100   30.6610   49.2320 H   0  0  0  0  0  0  0  0  0  0  0  0
   52.2360   28.8970   48.9920 H   0  0  0  0  0  0  0  0  0  0  0  0
   50.0060   29.1150   48.2480 H   0  0  0  0  0  0  0  0  0  0  0  0
   50.7990   30.5130   47.4230 H   0  0  0  0  0  0  0  0  0  0  0  0
   45.9580   32.9730   44.9200 C   0  0  0  0  0  3  0  0  0  0  0  0
   46.0460   33.4500   46.1530 C   0  0  0  0  0  3  0  0  0  0  0  0
   46.6840   33.6920   43.8720 C   0  0  0  0  0  0  0  0  0  0  0  0
   46.0620   34.7650   43.1670 C   0  0  0  0  0  0  0  0  0  0  0  0
   46.8430   35.3810   42.1880 C   0  0  0  0  0  0  0  0  0  0  0  0
   48.1100   34.9730   41.9360 N   0  0  0  0  0  0  0  0  0  0  0  0
   48.6680   33.9420   42.6340 C   0  0  0  0  0  0  0  0  0  0  0  0
   47.9450   33.3360   43.5720 N   0  0  0  0  0  0  0  0  0  0  0  0
   45.0650   35.0050   43.4430 H   0  0  0  0  0  0  0  0  0  0  0  0
   46.3650   36.1880   41.6640 H   0  0  0  0  0  0  0  0  0  0  0  0
   50.0370   33.5000   42.4360 C   0  0  0  0  0  2  0  0  0  0  0  0
   50.3130   32.3030   41.6770 C   0  0  0  0  0  0  0  0  0  0  0  0
   50.0410   31.8920   40.4540 C   0  0  0  0  0  0  0  0  0  0  0  0
   50.4390   30.6120   39.9770 N   0  0  0  0  0  0  0  0  0  0  0  0
   51.0630   29.8320   38.9650 C   0  0  0  0  0  0  0  0  0  0  0  0
   51.1270   29.9880   37.7070 O   0  0  0  0  0  0  0  0  0  0  0  0
   51.5020   28.9150   40.0540 C   0  0  0  0  0  3  0  0  0  0  0  0
   51.5920   27.8600   39.7700 H   0  0  0  0  0  0  0  0  0  0  0  0
   50.2120   29.3310   40.6830 C   0  0  1  0  0  3  0  0  0  0  0  0
   50.2800   29.7420   42.4400 S   0  0  0  0  0  0  0  0  0  0  0  0
   51.1180   31.3750   42.5110 C   0  0  0  0  0  3  0  0  0  0  0  0
   52.1040   31.2340   42.0130 H   0  0  0  0  0  0  0  0  0  0  0  0
   49.2910   32.8010   39.6040 C   0  0  0  0  0  0  0  0  0  0  0  0
   48.4460   32.3380   38.8050 O   0  0  0  0  0  0  0  0  0  0  0  0
   48.6240   33.7190   38.8360 O   0  0  0  0  0  0  0  0  0  0  0  0
   48.2930   34.6420   39.1650 H   0  0  0  0  0  0  0  0  0  0  0  0
  1  3  1  0  0  0  0
  1  4  1  0  0  0  0
  2  1  1  0  0  0  0
  4  5  2  0  0  0  0
  5 15  1  0  0  0  0
  5  6  1  0  0  0  0
  6 16  1  0  0  0  0
  7  9  1  0  0  0  0
  7  6  1  0  0  0  0
  8  4  1  0  0  0  0
  8  7  2  0  0  0  0
  9 10  1  0  0  0  0
 10 18  1  0  0  0  0
 10 11  1  0  0  0  0
 11 20  1  0  0  0  0
 11 19  1  0  0  0  0
 12 21  1  0  0  0  0
 12 11  1  0  0  0  0
 12 22  1  0  0  0  0
 13 12  1  0  0  0  0
 14  9  1  0  0  0  0
 14 13  1  0  0  0  0
 17 10  1  0  0  0  0
 23 13  1  0  0  0  0
 24 13  1  0  0  0  0
 25 14  1  0  0  0  0
 26 14  1  0  0  0  0
 27 28  2  0  0  0  0
 28  1  1  0  0  0  0
 29 27  1  0  0  0  0
 30 35  1  0  0  0  0
 30 29  2  0  0  0  0
 31 30  1  0  0  0  0
 32 31  2  0  0  0  0
 32 33  1  0  0  0  0
 33 34  2  0  0  0  0
 34 29  1  0  0  0  0
 36 31  1  0  0  0  0
 37 33  1  0  0  0  0
 38 37  1  0  0  0  0
 38 47  1  0  0  0  0
 39 38  2  0  0  0  0
 40 39  1  0  0  0  0
 40 45  1  0  0  0  0
 41 40  1  0  0  0  0
 41 43  1  0  0  0  0
 42 41  2  0  0  0  0
 44 43  1  0  0  0  0
 45 43  1  1  0  0  0
 45 46  1  0  0  0  0
 46 47  1  0  0  0  0
 48 47  1  0  0  0  0
 49 39  1  0  0  0  0
 50 49  2  0  0  0  0
 51 52  1  0  0  0  0
 51 49  1  0  0  0  0
M  END
>  <minimizedAffinity>
-6.35334492

>  <minimizedRMSD>
1.67151606

$$$$
