
     RDKit          3D

 31 33  0  0  0  0  0  0  0  0999 V2000
   44.5371   36.0288   44.5364 C   0  0  0  0  0  0  0  0  0  0  0  0
   45.2660   35.8862   43.3183 C   0  0  0  0  0  0  0  0  0  0  0  0
   46.1357   34.7898   43.2041 C   0  0  0  0  0  0  0  0  0  0  0  0
   46.2319   33.9385   44.2469 N   0  0  0  0  0  0  0  0  0  0  0  0
   45.5235   34.1040   45.3918 C   0  0  0  0  0  0  0  0  0  0  0  0
   44.6873   35.1410   45.5265 N   0  0  0  0  0  0  0  0  0  0  0  0
   47.0695   34.5647   41.7050 S   0  0  0  0  0  0  0  0  0  0  0  0
   43.8738   36.8571   44.6349 H   0  0  0  0  0  0  0  0  0  0  0  0
   45.1367   36.6054   42.5310 H   0  0  0  0  0  0  0  0  0  0  0  0
   47.1756   33.2080   41.3475 H   0  0  0  0  0  0  0  0  0  0  0  0
   45.7980   33.0308   46.4071 C   0  0  0  0  0  0  0  0  0  0  0  0
   45.8044   31.6843   45.8161 C   0  0  0  0  0  0  0  0  0  0  0  0
   46.8482   30.9078   45.8592 C   0  0  0  0  0  0  0  0  0  0  0  0
   48.0972   31.3057   46.4958 C   0  0  0  0  0  0  0  0  0  0  0  0
   49.1470   30.6212   46.5828 O   0  0  0  0  0  0  0  0  0  0  0  0
   48.8114   32.2676   47.1825 O   0  0  0  0  0  0  0  0  0  0  0  0
   46.8494   29.6163   45.2888 N   0  0  0  0  0  0  0  0  0  0  0  0
   47.2727   28.2680   45.2844 C   0  0  0  0  0  0  0  0  0  0  0  0
   48.1131   27.5398   45.9138 O   0  0  0  0  0  0  0  0  0  0  0  0
   46.3636   27.8555   44.2104 C   0  0  2  0  0  0  0  0  0  0  0  0
   45.5360   27.2270   44.5995 H   0  0  0  0  0  0  0  0  0  0  0  0
   46.0883   29.3137   44.0935 C   0  0  1  0  0  0  0  0  0  0  0  0
   44.3538   29.7356   44.5137 S   0  0  0  0  0  0  0  0  0  0  0  0
   44.5067   31.3780   45.2039 C   0  0  2  0  0  0  0  0  0  0  0  0
   44.3428   32.1166   44.3709 H   0  0  0  0  0  0  0  0  0  0  0  0
   44.9654   33.1549   47.1605 H   0  0  0  0  0  0  0  0  0  0  0  0
   46.7106   33.2670   46.9922 H   0  0  0  0  0  0  0  0  0  0  0  0
   48.6585   32.4531   48.1824 H   0  0  0  0  0  0  0  0  0  0  0  0
   46.9416   27.4269   43.3576 H   0  0  0  0  0  0  0  0  0  0  0  0
   46.3776   29.8434   43.1841 H   0  0  0  0  0  0  0  0  0  0  0  0
   43.6575   31.5616   45.8916 H   0  0  0  0  0  0  0  0  0  0  0  0
  1  6  2  0
  2  1  1  0
  3  2  2  0
  3  4  1  0
  4  5  2  0
  5  6  1  0
  7  3  1  0
  1  8  1  0
  2  9  1  0
  7 10  1  0
 11 12  1  0
 12 13  2  0
 13 14  1  0
 14 15  2  0
 14 16  1  0
 13 17  1  0
 17 18  1  0
 18 19  2  0
 18 20  1  0
 20 21  1  1
 20 22  1  0
 22 23  1  0
 23 24  1  0
 24 25  1  6
 24 12  1  0
 22 17  1  0
 11 26  1  0
 11 27  1  0
 16 28  1  0
 20 29  1  0
 22 30  1  6
 24 31  1  0
  5 11  1  0
M  ISO  5   8  14   9  14  10  11  21  15  25  15
M  END
>  <DihAtoms>  (1) 
3,4,10,11

>  <DihDeg>  (1) 
-90.01976915318161

$$$$
