
     RDKit          3D

 32 34  0  0  0  0  0  0  0  0999 V2000
   46.2202   34.8362   43.1906 C   0  0  0  0  0  0  0  0  0  0  0  0
   45.3267   35.9021   43.2813 C   0  0  0  0  0  0  0  0  0  0  0  0
   44.5561   36.0118   44.4525 C   0  0  0  0  0  0  0  0  0  0  0  0
   44.7414   35.0615   45.4184 N   0  0  0  0  0  0  0  0  0  0  0  0
   45.6133   34.0534   45.2866 C   0  0  0  0  0  0  0  0  0  0  0  0
   46.3542   33.9424   44.1677 N   0  0  0  0  0  0  0  0  0  0  0  0
   46.9562   34.8077   41.9687 C   0  0  0  0  0  0  0  0  0  0  0  0
   48.0589   35.3879   41.7282 O   0  0  0  0  0  0  0  0  0  0  0  0
   45.1859   36.6514   42.5107 H   0  0  0  0  0  0  0  0  0  0  0  0
   43.8459   36.8195   44.5780 H   0  0  0  0  0  0  0  0  0  0  0  0
   45.6609   33.3700   46.1278 H   0  0  0  0  0  0  0  0  0  0  0  0
   43.9879   29.1200   41.9844 C   0  0  0  0  0  0  0  0  0  0  0  0
   44.4454   28.4302   42.7213 H   0  0  0  0  0  0  0  0  0  0  0  0
   44.7981   30.3636   41.9190 C   0  0  0  0  0  0  0  0  0  0  0  0
   44.3630   31.2569   41.0703 C   0  0  0  0  0  0  0  0  0  0  0  0
   43.1634   31.0408   40.2484 C   0  0  0  0  0  0  0  0  0  0  0  0
   42.4098   30.0371   40.2210 O   0  0  0  0  0  0  0  0  0  0  0  0
   42.6758   31.9657   39.3439 O   0  0  0  0  0  0  0  0  0  0  0  0
   45.0589   32.4881   40.9129 N   0  0  0  0  0  0  0  0  0  0  0  0
   44.9580   33.9168   40.7336 C   0  0  0  0  0  0  0  0  0  0  0  0
   44.0274   34.7787   40.5711 O   0  0  0  0  0  0  0  0  0  0  0  0
   46.4187   34.0257   40.8116 C   0  0  2  0  0  0  0  0  0  0  0  0
   46.5313   32.5467   40.8997 C   0  0  1  0  0  0  0  0  0  0  0  0
   47.0603   31.8549   42.4584 S   0  0  0  0  0  0  0  0  0  0  0  0
   45.9799   30.4629   42.8018 C   0  0  2  0  0  0  0  0  0  0  0  0
   46.5881   29.5327   42.5997 H   0  0  0  0  0  0  0  0  0  0  0  0
   42.9537   29.2966   42.3510 H   0  0  0  0  0  0  0  0  0  0  0  0
   44.0257   28.5709   41.0083 H   0  0  0  0  0  0  0  0  0  0  0  0
   41.6911   32.1576   39.2404 H   0  0  0  0  0  0  0  0  0  0  0  0
   46.7881   34.4690   39.8499 H   0  0  0  0  0  0  0  0  0  0  0  0
   46.9754   32.1323   39.9800 H   0  0  0  0  0  0  0  0  0  0  0  0
   45.7174   30.3745   43.8761 H   0  0  0  0  0  0  0  0  0  0  0  0
  1  2  2  0
  1  6  1  0
  2  3  1  0
  3  4  2  0
  5  4  1  0
  6  5  2  0
  7  1  1  0
  8  7  2  0
  2  9  1  0
  3 10  1  0
  5 11  1  0
 12 13  1  0
 12 14  1  0
 14 15  2  0
 15 16  1  0
 16 17  2  0
 16 18  1  0
 15 19  1  0
 19 20  1  0
 20 21  2  0
 20 22  1  0
 22 23  1  0
 23 24  1  0
 24 25  1  0
 25 26  1  6
 25 14  1  0
 23 19  1  0
 12 27  1  0
 12 28  1  0
 18 29  1  0
 22 30  1  6
 23 31  1  6
 25 32  1  0
  7 22  1  0
M  ISO  5   9  14  10  14  11  14  13   8  26  15
M  END
>  <DihAtoms>  (1) 
0,6,21,19

>  <DihDeg>  (1) 
-59.99983712908399

$$$$
