
     RDKit          3D

 32 34  0  0  0  0  0  0  0  0999 V2000
   46.2202   34.8362   43.1906 C   0  0  0  0  0  0  0  0  0  0  0  0
   45.3267   35.9021   43.2813 C   0  0  0  0  0  0  0  0  0  0  0  0
   44.5561   36.0118   44.4525 C   0  0  0  0  0  0  0  0  0  0  0  0
   44.7414   35.0615   45.4184 N   0  0  0  0  0  0  0  0  0  0  0  0
   45.6133   34.0534   45.2866 C   0  0  0  0  0  0  0  0  0  0  0  0
   46.3542   33.9424   44.1677 N   0  0  0  0  0  0  0  0  0  0  0  0
   46.9562   34.8077   41.9687 C   0  0  0  0  0  0  0  0  0  0  0  0
   48.0589   35.3879   41.7282 O   0  0  0  0  0  0  0  0  0  0  0  0
   45.1859   36.6514   42.5107 H   0  0  0  0  0  0  0  0  0  0  0  0
   43.8459   36.8195   44.5780 H   0  0  0  0  0  0  0  0  0  0  0  0
   45.6609   33.3700   46.1278 H   0  0  0  0  0  0  0  0  0  0  0  0
   40.8600   33.9986   40.1403 C   0  0  0  0  0  0  0  0  0  0  0  0
   40.1907   33.8788   41.0154 H   0  0  0  0  0  0  0  0  0  0  0  0
   42.2686   34.0375   40.6111 C   0  0  0  0  0  0  0  0  0  0  0  0
   43.1596   34.1653   39.6638 C   0  0  0  0  0  0  0  0  0  0  0  0
   42.7885   34.2634   38.2447 C   0  0  0  0  0  0  0  0  0  0  0  0
   41.6403   34.2408   37.7375 O   0  0  0  0  0  0  0  0  0  0  0  0
   43.7055   34.4016   37.2193 O   0  0  0  0  0  0  0  0  0  0  0  0
   44.5441   34.2085   39.9894 N   0  0  0  0  0  0  0  0  0  0  0  0
   45.8278   34.8128   39.7240 C   0  0  0  0  0  0  0  0  0  0  0  0
   46.3102   35.6709   38.9077 O   0  0  0  0  0  0  0  0  0  0  0  0
   46.4187   34.0257   40.8116 C   0  0  2  0  0  0  0  0  0  0  0  0
   45.1218   33.3321   41.0237 C   0  0  1  0  0  0  0  0  0  0  0  0
   44.2305   33.6991   42.5265 S   0  0  0  0  0  0  0  0  0  0  0  0
   42.5115   33.9357   42.0659 C   0  0  2  0  0  0  0  0  0  0  0  0
   41.9634   33.0063   42.4004 H   0  0  0  0  0  0  0  0  0  0  0  0
   40.5403   34.9456   39.6543 H   0  0  0  0  0  0  0  0  0  0  0  0
   40.6787   33.0913   39.5080 H   0  0  0  0  0  0  0  0  0  0  0  0
   43.5575   35.0217   36.4378 H   0  0  0  0  0  0  0  0  0  0  0  0
   47.2298   33.3840   40.3780 H   0  0  0  0  0  0  0  0  0  0  0  0
   45.1870   32.2766   40.7133 H   0  0  0  0  0  0  0  0  0  0  0  0
   42.0191   34.7489   42.6377 H   0  0  0  0  0  0  0  0  0  0  0  0
  1  2  2  0
  1  6  1  0
  2  3  1  0
  3  4  2  0
  5  4  1  0
  6  5  2  0
  7  1  1  0
  8  7  2  0
  2  9  1  0
  3 10  1  0
  5 11  1  0
 12 13  1  0
 12 14  1  0
 14 15  2  0
 15 16  1  0
 16 17  2  0
 16 18  1  0
 15 19  1  0
 19 20  1  0
 20 21  2  0
 20 22  1  0
 22 23  1  0
 23 24  1  0
 24 25  1  0
 25 26  1  1
 25 14  1  0
 23 19  1  0
 12 27  1  0
 12 28  1  0
 18 29  1  0
 22 30  1  6
 23 31  1  6
 25 32  1  0
  7 22  1  0
M  ISO  5   9  14  10  14  11  14  13   8  26  15
M  END
>  <DihAtoms>  (1) 
0,6,21,19

>  <DihDeg>  (1) 
-59.99983712908399

$$$$
