
 OpenBabel03242523333D

 44 48  0  0  1  0  0  0  0  0999 V2000
   44.5380   36.1940   44.3690 C   0  0  0  0  0  0  0  0  0  0  0  0
   45.3870   36.0180   43.2720 C   0  0  0  0  0  0  0  0  0  0  0  0
   46.2720   34.9360   43.2200 C   0  0  0  0  0  0  0  0  0  0  0  0
   46.2750   34.0590   44.2820 N   0  0  0  0  0  0  0  0  0  0  0  0
   45.4440   34.2460   45.3390 C   0  0  0  0  0  0  0  0  0  0  0  0
   44.6030   35.2980   45.3610 N   0  0  0  0  0  0  0  0  0  0  0  0
   43.8620   37.0380   44.3880 H   0  0  0  0  0  0  0  0  0  0  0  0
   45.3860   36.6940   42.4480 H   0  0  0  0  0  0  0  0  0  0  0  0
   45.5380   33.2430   46.4250 C   0  0  0  0  0  0  0  0  0  0  0  0
   45.9270   33.7780   47.2870 H   0  0  0  0  0  0  0  0  0  0  0  0
   44.5230   32.8540   46.7090 H   0  0  0  0  0  0  0  0  0  0  0  0
   46.5260   31.8710   45.8250 S   0  0  0  0  0  0  0  0  0  0  0  0
   47.5310   31.1980   47.1280 C   0  0  0  0  0  0  0  0  0  0  0  0
   47.8240   32.0100   48.2030 C   0  0  0  0  0  0  0  0  0  0  0  0
   48.5970   31.4970   49.2010 C   0  0  0  0  0  0  0  0  0  0  0  0
   49.0940   30.1830   49.1630 C   0  0  0  0  0  0  0  0  0  0  0  0
   49.8510   29.7300   50.1780 N   0  0  0  0  0  0  0  0  0  0  0  0
   50.3420   28.4720   50.1710 C   0  0  0  0  0  0  0  0  0  0  0  0
   50.0610   27.6620   49.1160 C   0  0  0  0  0  0  0  0  0  0  0  0
   49.2840   28.1390   48.0850 C   0  0  0  0  0  0  0  0  0  0  0  0
   48.7570   29.4230   48.0470 C   0  0  0  0  0  0  0  0  0  0  0  0
   47.9840   29.9050   47.0250 C   0  0  0  0  0  0  0  0  0  0  0  0
   47.5030   33.0320   48.3470 H   0  0  0  0  0  0  0  0  0  0  0  0
   48.8670   32.0890   50.0850 H   0  0  0  0  0  0  0  0  0  0  0  0
   50.9400   28.1880   51.0250 H   0  0  0  0  0  0  0  0  0  0  0  0
   50.4450   26.6490   49.0900 H   0  0  0  0  0  0  0  0  0  0  0  0
   49.0740   27.4720   47.2550 H   0  0  0  0  0  0  0  0  0  0  0  0
   47.7640   29.2700   46.2020 H   0  0  0  0  0  0  0  0  0  0  0  0
   47.2290   34.6910   42.1600 C   0  0  0  0  0  2  0  0  0  0  0  0
   46.9400   33.7880   41.0760 C   0  0  0  0  0  0  0  0  0  0  0  0
   45.8750   33.0690   40.7460 C   0  0  0  0  0  0  0  0  0  0  0  0
   45.7860   32.2180   39.5830 N   0  0  0  0  0  0  0  0  0  0  0  0
   45.4090   30.9930   38.9670 C   0  0  0  0  0  0  0  0  0  0  0  0
   44.4120   30.2570   39.2330 O   0  0  0  0  0  0  0  0  0  0  0  0
   46.6320   31.1840   38.1020 C   0  0  0  0  0  3  0  0  0  0  0  0
   46.5220   30.7840   37.0890 H   0  0  0  0  0  0  0  0  0  0  0  0
   46.2740   32.6420   38.2770 C   0  0  2  0  0  3  0  0  0  0  0  0
   47.6580   33.7860   38.4360 S   0  0  0  0  0  0  0  0  0  0  0  0
   48.1210   33.6590   40.1840 C   0  0  0  0  0  3  0  0  0  0  0  0
   48.6470   32.6930   40.3620 H   0  0  0  0  0  0  0  0  0  0  0  0
   44.7260   33.1800   41.6380 C   0  0  0  0  0  2  0  0  0  0  0  0
   43.6310   33.6420   41.1650 O   0  0  0  0  0  0  0  0  0  0  0  0
   43.6180   33.3000   42.4540 O   0  0  0  0  0  0  0  0  0  0  0  0
   43.4970   32.7150   43.2840 H   0  0  0  0  0  0  0  0  0  0  0  0
  1  7  1  0  0  0  0
  1  6  1  0  0  0  0
  2  1  2  0  0  0  0
  3  2  1  0  0  0  0
  3  4  2  0  0  0  0
  4  5  1  0  0  0  0
  5  6  2  0  0  0  0
  5  9  1  0  0  0  0
  8  2  1  0  0  0  0
  9 11  1  0  0  0  0
  9 10  1  0  0  0  0
 12  9  1  0  0  0  0
 12 13  1  0  0  0  0
 13 14  1  0  0  0  0
 14 23  1  0  0  0  0
 14 15  2  0  0  0  0
 15 24  1  0  0  0  0
 16 15  1  0  0  0  0
 16 17  1  0  0  0  0
 18 17  2  0  0  0  0
 18 25  1  0  0  0  0
 19 18  1  0  0  0  0
 20 19  2  0  0  0  0
 21 20  1  0  0  0  0
 21 16  2  0  0  0  0
 22 13  2  0  0  0  0
 22 21  1  0  0  0  0
 26 19  1  0  0  0  0
 27 20  1  0  0  0  0
 28 22  1  0  0  0  0
 29  3  1  0  0  0  0
 30 29  1  0  0  0  0
 31 30  2  0  0  0  0
 31 41  1  0  0  0  0
 32 31  1  0  0  0  0
 33 34  2  0  0  0  0
 33 32  1  0  0  0  0
 35 33  1  0  0  0  0
 36 35  1  0  0  0  0
 37 35  1  6  0  0  0
 37 38  1  0  0  0  0
 37 32  1  0  0  0  0
 38 39  1  0  0  0  0
 39 40  1  0  0  0  0
 39 30  1  0  0  0  0
 42 41  1  0  0  0  0
 42 43  1  0  0  0  0
 43 44  1  0  0  0  0
M  END
>  <minimizedAffinity>
-6.12789059

>  <minimizedRMSD>
0.786919236

$$$$
