
     RDKit          3D

 41 44  0  0  0  0  0  0  0  0999 V2000
   45.2686   36.1657   43.1700 C   0  0  0  0  0  0  0  0  0  0  0  0
   45.8686   34.9122   42.9084 C   0  0  0  0  0  0  0  0  0  0  0  0
   45.8297   33.9501   43.8921 C   0  0  0  0  0  0  0  0  0  0  0  0
   45.2246   34.2244   45.0732 N   0  0  0  0  0  0  0  0  0  0  0  0
   44.6484   35.4419   45.3116 C   0  0  0  0  0  0  0  0  0  0  0  0
   44.6836   36.3687   44.3695 N   0  0  0  0  0  0  0  0  0  0  0  0
   46.4460   32.6572   43.6282 C   0  0  0  0  0  0  0  0  0  0  0  0
   45.6673   31.5748   43.2964 C   0  0  0  0  0  0  0  0  0  0  0  0
   46.2828   30.3680   43.0535 C   0  0  0  0  0  0  0  0  0  0  0  0
   47.6553   30.1834   43.1259 C   0  0  0  0  0  0  0  0  0  0  0  0
   48.3753   31.3048   43.4623 C   0  0  0  0  0  0  0  0  0  0  0  0
   47.7637   32.4864   43.6993 N   0  0  0  0  0  0  0  0  0  0  0  0
   46.4930   34.6838   41.6389 C   0  0  0  0  0  0  0  0  0  0  0  0
   47.6631   35.1368   41.4796 O   0  0  0  0  0  0  0  0  0  0  0  0
   45.2790   36.9478   42.4206 H   0  0  0  0  0  0  0  0  0  0  0  0
   44.1785   35.6106   46.2698 H   0  0  0  0  0  0  0  0  0  0  0  0
   44.6118   31.6584   43.2264 H   0  0  0  0  0  0  0  0  0  0  0  0
   45.6691   29.4934   42.7867 H   0  0  0  0  0  0  0  0  0  0  0  0
   48.1566   29.2590   42.9424 H   0  0  0  0  0  0  0  0  0  0  0  0
   49.4480   31.2476   43.5402 H   0  0  0  0  0  0  0  0  0  0  0  0
   42.7675   29.5325   42.0578 C   0  0  0  0  0  0  0  0  0  0  0  0
   42.1255   29.2555   41.1700 H   0  0  0  0  0  0  0  0  0  0  0  0
   43.4946   30.7913   41.8738 C   0  0  0  0  0  0  0  0  0  0  0  0
   44.3814   30.8139   40.9089 C   0  0  0  0  0  0  0  0  0  0  0  0
   44.6250   29.6459   40.0696 C   0  0  0  0  0  0  0  0  0  0  0  0
   44.0748   28.5186   40.1229 O   0  0  0  0  0  0  0  0  0  0  0  0
   45.5521   29.6235   39.0395 O   0  0  0  0  0  0  0  0  0  0  0  0
   45.1440   31.9834   40.6407 N   0  0  0  0  0  0  0  0  0  0  0  0
   46.3571   32.6058   40.2356 C   0  0  0  0  0  0  0  0  0  0  0  0
   47.4782   32.2036   39.7952 O   0  0  0  0  0  0  0  0  0  0  0  0
   45.8797   33.9623   40.5034 C   0  0  1  0  0  0  0  0  0  0  0  0
   44.5695   33.3282   40.8052 C   0  0  2  0  0  0  0  0  0  0  0  0
   43.9799   33.4373   42.4846 S   0  0  0  0  0  0  0  0  0  0  0  0
   43.1560   31.8820   42.7823 C   0  0  2  0  0  0  0  0  0  0  0  0
   43.4714   31.5526   43.8161 H   0  0  0  0  0  0  0  0  0  0  0  0
   42.0213   29.5517   42.8968 H   0  0  0  0  0  0  0  0  0  0  0  0
   43.4352   28.6722   42.3605 H   0  0  0  0  0  0  0  0  0  0  0  0
   46.1115   28.8327   38.7638 H   0  0  0  0  0  0  0  0  0  0  0  0
   45.8341   34.6097   39.5809 H   0  0  0  0  0  0  0  0  0  0  0  0
   43.7887   33.5595   40.0421 H   0  0  0  0  0  0  0  0  0  0  0  0
   42.0603   32.0404   42.8600 H   0  0  0  0  0  0  0  0  0  0  0  0
  1  6  2  0
  2  1  1  0
  2  3  2  0
  3  4  1  0
  4  5  2  0
  6  5  1  0
  7 12  1  0
  7  3  1  0
  8  7  2  0
  9 10  2  0
  9  8  1  0
 10 11  1  0
 11 12  2  0
 13  2  1  0
 14 13  2  0
  1 15  1  0
  5 16  1  0
  8 17  1  0
  9 18  1  0
 10 19  1  0
 11 20  1  0
 21 22  1  0
 21 23  1  0
 23 24  2  0
 24 25  1  0
 25 26  2  0
 25 27  1  0
 24 28  1  0
 28 29  1  0
 29 30  2  0
 29 31  1  0
 31 32  1  0
 32 33  1  0
 33 34  1  0
 34 35  1  1
 34 23  1  0
 32 28  1  0
 21 36  1  0
 21 37  1  0
 27 38  1  0
 31 39  1  6
 32 40  1  6
 34 41  1  0
 13 31  1  0
M  ISO  8  15  14  16  14  17  14  18  14  19  14  20  14  22   8  35  15
M  END
>  <DihAtoms>  (1) 
1,12,30,28

>  <DihDeg>  (1) 
59.99719830353079

$$$$
