
 OpenBabel03242518333D

 35 38  0  0  1  0  0  0  0  0999 V2000
   37.3470   29.6880   42.0580 C   0  0  0  0  0  0  0  0  0  0  0  0
   36.3170   29.2400   41.2510 C   0  0  0  0  0  0  0  0  0  0  0  0
   36.2040   30.1200   40.1830 C   0  0  0  0  0  0  0  0  0  0  0  0
   37.1900   31.0730   40.4030 C   0  0  0  0  0  0  0  0  0  0  0  0
   37.8340   30.7850   41.5060 O   0  0  0  0  0  0  0  0  0  0  0  0
   35.7450   28.3540   41.4710 H   0  0  0  0  0  0  0  0  0  0  0  0
   35.4750   30.0330   39.3680 H   0  0  0  0  0  0  0  0  0  0  0  0
   37.8680   29.1690   43.2500 O   0  0  0  0  0  0  0  0  0  0  0  0
   37.5420   27.8840   43.6860 C   0  0  0  0  0  0  0  0  0  0  0  0
   36.4580   27.7780   44.3050 O   0  0  0  0  0  0  0  0  0  0  0  0
   38.4840   26.8640   43.3700 C   0  0  0  0  0  0  0  0  0  0  0  0
   38.0280   25.9840   42.4080 C   0  0  0  0  0  0  0  0  0  0  0  0
   38.8890   24.9390   42.0280 C   0  0  0  0  0  0  0  0  0  0  0  0
   40.1020   24.8500   42.6160 N   0  0  0  0  0  0  0  0  0  0  0  0
   40.4930   25.7470   43.5570 C   0  0  0  0  0  0  0  0  0  0  0  0
   39.6810   26.7580   43.9360 N   0  0  0  0  0  0  0  0  0  0  0  0
   37.0620   26.0120   41.9060 H   0  0  0  0  0  0  0  0  0  0  0  0
   38.5990   24.2110   41.2790 H   0  0  0  0  0  0  0  0  0  0  0  0
   41.4830   25.6230   43.9950 H   0  0  0  0  0  0  0  0  0  0  0  0
   37.4400   32.2400   39.4860 C   0  0  0  0  0  2  0  0  0  0  0  0
   38.8740   32.2170   39.2010 C   0  0  0  0  0  0  0  0  0  0  0  0
   39.6680   33.1070   39.7510 C   0  0  0  0  0  0  0  0  0  0  0  0
   41.0490   33.1310   39.5110 N   0  0  0  0  0  0  0  0  0  0  0  0
   42.3710   33.3320   39.9900 C   0  0  0  0  0  0  0  0  0  0  0  0
   42.9040   34.0210   40.8750 O   0  0  0  0  0  0  0  0  0  0  0  0
   42.8440   32.3640   38.9780 C   0  0  0  0  0  3  0  0  0  0  0  0
   43.8090   32.5750   38.5190 H   0  0  0  0  0  0  0  0  0  0  0  0
   41.6140   32.8350   38.2030 C   0  0  1  0  0  3  0  0  0  0  0  0
   40.7600   31.5350   37.3210 S   0  0  0  0  0  0  0  0  0  0  0  0
   39.2770   31.1490   38.2900 C   0  0  0  0  0  3  0  0  0  0  0  0
   39.5020   30.1830   38.8260 H   0  0  0  0  0  0  0  0  0  0  0  0
   39.1250   34.1200   40.6490 C   0  0  0  0  0  0  0  0  0  0  0  0
   38.7600   35.2740   40.3050 O   0  0  0  0  0  0  0  0  0  0  0  0
   38.6590   34.8290   41.7380 O   0  0  0  0  0  0  0  0  0  0  0  0
   38.1800   34.4470   42.5430 H   0  0  0  0  0  0  0  0  0  0  0  0
  1  8  1  0  0  0  0
  2  6  1  0  0  0  0
  2  1  2  0  0  0  0
  3  4  2  0  0  0  0
  3  2  1  0  0  0  0
  4  5  1  0  0  0  0
  5  1  1  0  0  0  0
  7  3  1  0  0  0  0
  8  9  1  0  0  0  0
  9 10  2  0  0  0  0
 11  9  1  0  0  0  0
 11 16  1  0  0  0  0
 12 11  2  0  0  0  0
 13 12  1  0  0  0  0
 13 14  2  0  0  0  0
 14 15  1  0  0  0  0
 15 16  2  0  0  0  0
 15 19  1  0  0  0  0
 17 12  1  0  0  0  0
 18 13  1  0  0  0  0
 20  4  1  0  0  0  0
 21 20  1  0  0  0  0
 21 22  2  0  0  0  0
 22 32  1  0  0  0  0
 23 22  1  0  0  0  0
 23 24  1  0  0  0  0
 24 25  2  0  0  0  0
 26 24  1  0  0  0  0
 27 26  1  0  0  0  0
 28 29  1  1  0  0  0
 28 26  1  0  0  0  0
 28 23  1  0  0  0  0
 29 30  1  0  0  0  0
 30 31  1  0  0  0  0
 30 21  1  0  0  0  0
 32 34  1  0  0  0  0
 33 32  2  0  0  0  0
 34 35  1  0  0  0  0
M  END
>  <minimizedAffinity>
-6.30441523

$$$$

 OpenBabel03242518333D

 35 38  0  0  1  0  0  0  0  0999 V2000
   37.4480   29.6050   41.7670 C   0  0  0  0  0  0  0  0  0  0  0  0
   36.1620   29.4340   41.2880 C   0  0  0  0  0  0  0  0  0  0  0  0
   36.1260   29.9310   39.9920 C   0  0  0  0  0  0  0  0  0  0  0  0
   37.4160   30.3850   39.7500 C   0  0  0  0  0  0  0  0  0  0  0  0
   38.1550   30.1770   40.8100 O   0  0  0  0  0  0  0  0  0  0  0  0
   35.3740   28.9860   41.8710 H   0  0  0  0  0  0  0  0  0  0  0  0
   35.2400   29.9380   39.3430 H   0  0  0  0  0  0  0  0  0  0  0  0
   38.0130   29.2770   43.0060 O   0  0  0  0  0  0  0  0  0  0  0  0
   37.6650   28.1020   43.6750 C   0  0  0  0  0  0  0  0  0  0  0  0
   36.8000   28.2240   44.5720 O   0  0  0  0  0  0  0  0  0  0  0  0
   38.3400   26.9230   43.2500 C   0  0  0  0  0  0  0  0  0  0  0  0
   39.5830   26.7700   43.8310 C   0  0  0  0  0  0  0  0  0  0  0  0
   40.3290   25.6330   43.4730 C   0  0  0  0  0  0  0  0  0  0  0  0
   39.7980   24.7600   42.5900 N   0  0  0  0  0  0  0  0  0  0  0  0
   38.5680   24.9650   42.0510 C   0  0  0  0  0  0  0  0  0  0  0  0
   37.8360   26.0510   42.3830 N   0  0  0  0  0  0  0  0  0  0  0  0
   40.0550   27.4430   44.5450 H   0  0  0  0  0  0  0  0  0  0  0  0
   41.3130   25.4470   43.8880 H   0  0  0  0  0  0  0  0  0  0  0  0
   38.1940   24.2260   41.3450 H   0  0  0  0  0  0  0  0  0  0  0  0
   37.8480   31.0150   38.4520 C   0  0  0  0  0  2  0  0  0  0  0  0
   38.6290   32.1930   38.8270 C   0  0  0  0  0  0  0  0  0  0  0  0
   39.9080   32.2530   38.5340 C   0  0  0  0  0  0  0  0  0  0  0  0
   40.7030   33.3560   38.8720 N   0  0  0  0  0  0  0  0  0  0  0  0
   41.7520   34.2560   38.5410 C   0  0  0  0  0  0  0  0  0  0  0  0
   42.7900   34.2050   37.8610 O   0  0  0  0  0  0  0  0  0  0  0  0
   41.0740   35.2850   39.3570 C   0  0  0  0  0  3  0  0  0  0  0  0
   41.7190   35.9610   39.9180 H   0  0  0  0  0  0  0  0  0  0  0  0
   40.5380   34.0780   40.1250 C   0  0  1  0  0  3  0  0  0  0  0  0
   38.8370   34.2390   40.6500 S   0  0  0  0  0  0  0  0  0  0  0  0
   37.8540   33.2190   39.5180 C   0  0  0  0  0  3  0  0  0  0  0  0
   37.3550   33.9390   38.8080 H   0  0  0  0  0  0  0  0  0  0  0  0
   40.5540   31.1480   37.8340 C   0  0  0  0  0  0  0  0  0  0  0  0
   41.3070   30.2930   38.3670 O   0  0  0  0  0  0  0  0  0  0  0  0
   41.0000   30.2400   36.8950 O   0  0  0  0  0  0  0  0  0  0  0  0
   40.4930   29.9210   36.0810 H   0  0  0  0  0  0  0  0  0  0  0  0
  1  8  1  0  0  0  0
  2  1  2  0  0  0  0
  2  6  1  0  0  0  0
  3  2  1  0  0  0  0
  4  3  2  0  0  0  0
  4  5  1  0  0  0  0
  5  1  1  0  0  0  0
  7  3  1  0  0  0  0
  8  9  1  0  0  0  0
  9 10  2  0  0  0  0
 11  9  1  0  0  0  0
 11 12  1  0  0  0  0
 12 17  1  0  0  0  0
 13 12  2  0  0  0  0
 13 18  1  0  0  0  0
 14 13  1  0  0  0  0
 15 16  1  0  0  0  0
 15 14  2  0  0  0  0
 16 11  2  0  0  0  0
 19 15  1  0  0  0  0
 20 21  1  0  0  0  0
 20  4  1  0  0  0  0
 21 30  1  0  0  0  0
 22 21  2  0  0  0  0
 22 23  1  0  0  0  0
 23 28  1  0  0  0  0
 24 23  1  0  0  0  0
 24 26  1  0  0  0  0
 25 24  2  0  0  0  0
 26 27  1  0  0  0  0
 28 26  1  6  0  0  0
 28 29  1  0  0  0  0
 30 29  1  0  0  0  0
 31 30  1  0  0  0  0
 32 33  2  0  0  0  0
 32 22  1  0  0  0  0
 34 32  1  0  0  0  0
 35 34  1  0  0  0  0
M  END
>  <minimizedAffinity>
-6.12674046

$$$$

 OpenBabel03242518333D

 35 38  0  0  1  0  0  0  0  0999 V2000
   36.3120   28.9450   41.0740 C   0  0  0  0  0  0  0  0  0  0  0  0
   35.6150   28.7570   39.8940 C   0  0  0  0  0  0  0  0  0  0  0  0
   35.9230   29.8140   39.0480 C   0  0  0  0  0  0  0  0  0  0  0  0
   36.8070   30.6020   39.7730 C   0  0  0  0  0  0  0  0  0  0  0  0
   37.0080   30.0610   40.9480 O   0  0  0  0  0  0  0  0  0  0  0  0
   34.9640   27.9140   39.7270 H   0  0  0  0  0  0  0  0  0  0  0  0
   35.5250   29.9470   38.0340 H   0  0  0  0  0  0  0  0  0  0  0  0
   36.3560   28.1760   42.2430 O   0  0  0  0  0  0  0  0  0  0  0  0
   37.5310   28.0490   42.9860 C   0  0  0  0  0  0  0  0  0  0  0  0
   37.8860   29.0690   43.6210 O   0  0  0  0  0  0  0  0  0  0  0  0
   38.1700   26.7780   42.9220 C   0  0  0  0  0  0  0  0  0  0  0  0
   39.3830   26.7490   43.5830 C   0  0  0  0  0  0  0  0  0  0  0  0
   40.0920   25.5340   43.5770 C   0  0  0  0  0  0  0  0  0  0  0  0
   39.5580   24.4730   42.9320 N   0  0  0  0  0  0  0  0  0  0  0  0
   38.3600   24.5660   42.3000 C   0  0  0  0  0  0  0  0  0  0  0  0
   37.6630   25.7230   42.2950 N   0  0  0  0  0  0  0  0  0  0  0  0
   39.8550   27.5730   44.1140 H   0  0  0  0  0  0  0  0  0  0  0  0
   41.0500   25.4360   44.0740 H   0  0  0  0  0  0  0  0  0  0  0  0
   37.9820   23.6760   41.7990 H   0  0  0  0  0  0  0  0  0  0  0  0
   37.4140   31.8750   39.2450 C   0  0  0  0  0  2  0  0  0  0  0  0
   38.8580   31.6450   39.2280 C   0  0  0  0  0  0  0  0  0  0  0  0
   39.6630   32.4760   39.8490 C   0  0  0  0  0  0  0  0  0  0  0  0
   41.0540   32.3040   39.8630 N   0  0  0  0  0  0  0  0  0  0  0  0
   42.2900   32.3810   40.5580 C   0  0  0  0  0  0  0  0  0  0  0  0
   42.7560   33.0770   41.4750 O   0  0  0  0  0  0  0  0  0  0  0  0
   42.7880   31.2700   39.7190 C   0  0  0  0  0  3  0  0  0  0  0  0
   43.8370   31.3150   39.4290 H   0  0  0  0  0  0  0  0  0  0  0  0
   41.7870   31.8170   38.7030 C   0  0  1  0  0  3  0  0  0  0  0  0
   40.9220   30.5580   37.7740 S   0  0  0  0  0  0  0  0  0  0  0  0
   39.2560   30.4540   38.4820 C   0  0  0  0  0  3  0  0  0  0  0  0
   39.2490   29.5220   39.1170 H   0  0  0  0  0  0  0  0  0  0  0  0
   39.1220   33.6290   40.5600 C   0  0  0  0  0  0  0  0  0  0  0  0
   39.1980   34.8230   40.1700 O   0  0  0  0  0  0  0  0  0  0  0  0
   38.5100   34.4760   41.4620 O   0  0  0  0  0  0  0  0  0  0  0  0
   37.7080   34.2600   42.0390 H   0  0  0  0  0  0  0  0  0  0  0  0
  1  8  1  0  0  0  0
  2  1  2  0  0  0  0
  3  4  2  0  0  0  0
  3  2  1  0  0  0  0
  4  5  1  0  0  0  0
  5  1  1  0  0  0  0
  6  2  1  0  0  0  0
  7  3  1  0  0  0  0
  8  9  1  0  0  0  0
  9 10  2  0  0  0  0
 11  9  1  0  0  0  0
 11 12  1  0  0  0  0
 12 17  1  0  0  0  0
 13 12  2  0  0  0  0
 13 18  1  0  0  0  0
 14 13  1  0  0  0  0
 15 14  2  0  0  0  0
 16 15  1  0  0  0  0
 16 11  2  0  0  0  0
 19 15  1  0  0  0  0
 20  4  1  0  0  0  0
 21 20  1  0  0  0  0
 21 22  2  0  0  0  0
 22 23  1  0  0  0  0
 22 32  1  0  0  0  0
 23 24  1  0  0  0  0
 24 25  2  0  0  0  0
 26 24  1  0  0  0  0
 27 26  1  0  0  0  0
 28 29  1  1  0  0  0
 28 26  1  0  0  0  0
 28 23  1  0  0  0  0
 29 30  1  0  0  0  0
 30 31  1  0  0  0  0
 30 21  1  0  0  0  0
 32 34  1  0  0  0  0
 33 32  2  0  0  0  0
 34 35  1  0  0  0  0
M  END
>  <minimizedAffinity>
-6.08958149

$$$$

 OpenBabel03242518333D

 35 38  0  0  1  0  0  0  0  0999 V2000
   38.6320   32.1920   40.3650 C   0  0  0  0  0  0  0  0  0  0  0  0
   38.0170   32.3610   39.1370 C   0  0  0  0  0  0  0  0  0  0  0  0
   36.8900   31.5510   39.1150 C   0  0  0  0  0  0  0  0  0  0  0  0
   36.8800   30.9220   40.3540 C   0  0  0  0  0  0  0  0  0  0  0  0
   37.9120   31.3230   41.0520 O   0  0  0  0  0  0  0  0  0  0  0  0
   38.3990   33.0220   38.3770 H   0  0  0  0  0  0  0  0  0  0  0  0
   36.1910   31.4650   38.2730 H   0  0  0  0  0  0  0  0  0  0  0  0
   39.7910   32.7720   40.8950 O   0  0  0  0  0  0  0  0  0  0  0  0
   40.2210   34.0370   40.4920 C   0  0  0  0  0  0  0  0  0  0  0  0
   39.5010   34.9960   40.8540 O   0  0  0  0  0  0  0  0  0  0  0  0
   41.4180   34.0710   39.7230 C   0  0  0  0  0  0  0  0  0  0  0  0
   42.5570   33.9150   40.4870 C   0  0  0  0  0  0  0  0  0  0  0  0
   43.7940   33.9340   39.8160 C   0  0  0  0  0  0  0  0  0  0  0  0
   43.8030   34.1030   38.4760 N   0  0  0  0  0  0  0  0  0  0  0  0
   42.6470   34.2520   37.7790 C   0  0  0  0  0  0  0  0  0  0  0  0
   41.4500   34.2360   38.4050 N   0  0  0  0  0  0  0  0  0  0  0  0
   42.6030   33.7770   41.5660 H   0  0  0  0  0  0  0  0  0  0  0  0
   44.7290   33.8180   40.3500 H   0  0  0  0  0  0  0  0  0  0  0  0
   42.7190   34.3840   36.7010 H   0  0  0  0  0  0  0  0  0  0  0  0
   35.8240   29.9370   40.7800 C   0  0  0  0  0  2  0  0  0  0  0  0
   36.3340   28.6220   40.3950 C   0  0  0  0  0  0  0  0  0  0  0  0
   36.7970   27.8030   41.3110 C   0  0  0  0  0  0  0  0  0  0  0  0
   37.2980   26.5320   40.9960 N   0  0  0  0  0  0  0  0  0  0  0  0
   37.4400   25.1570   41.3230 C   0  0  0  0  0  0  0  0  0  0  0  0
   37.4770   24.4880   42.3680 O   0  0  0  0  0  0  0  0  0  0  0  0
   37.5240   24.8610   39.8770 C   0  0  0  0  0  3  0  0  0  0  0  0
   38.2050   24.0630   39.5850 H   0  0  0  0  0  0  0  0  0  0  0  0
   38.0800   26.2820   39.7940 C   0  0  1  0  0  3  0  0  0  0  0  0
   37.5270   27.2040   38.3650 S   0  0  0  0  0  0  0  0  0  0  0  0
   36.2630   28.3600   38.9600 C   0  0  0  0  0  3  0  0  0  0  0  0
   35.2730   27.9220   38.6470 H   0  0  0  0  0  0  0  0  0  0  0  0
   36.8040   28.1990   42.7140 C   0  0  0  0  0  0  0  0  0  0  0  0
   36.3960   27.4900   43.6710 O   0  0  0  0  0  0  0  0  0  0  0  0
   36.9490   28.8680   43.9130 O   0  0  0  0  0  0  0  0  0  0  0  0
   37.6760   29.5310   44.1460 H   0  0  0  0  0  0  0  0  0  0  0  0
  1  8  1  0  0  0  0
  1  5  1  0  0  0  0
  2  1  2  0  0  0  0
  3  2  1  0  0  0  0
  3  4  2  0  0  0  0
  4 20  1  0  0  0  0
  4  5  1  0  0  0  0
  6  2  1  0  0  0  0
  7  3  1  0  0  0  0
  9 10  2  0  0  0  0
  9  8  1  0  0  0  0
 11 12  1  0  0  0  0
 11  9  1  0  0  0  0
 12 17  1  0  0  0  0
 13 18  1  0  0  0  0
 13 12  2  0  0  0  0
 14 13  1  0  0  0  0
 15 16  1  0  0  0  0
 15 14  2  0  0  0  0
 16 11  2  0  0  0  0
 19 15  1  0  0  0  0
 21 20  1  0  0  0  0
 21 22  2  0  0  0  0
 22 32  1  0  0  0  0
 23 22  1  0  0  0  0
 23 24  1  0  0  0  0
 24 25  2  0  0  0  0
 26 24  1  0  0  0  0
 27 26  1  0  0  0  0
 28 29  1  6  0  0  0
 28 26  1  0  0  0  0
 28 23  1  0  0  0  0
 29 30  1  0  0  0  0
 30 21  1  0  0  0  0
 31 30  1  0  0  0  0
 32 33  2  0  0  0  0
 32 34  1  0  0  0  0
 34 35  1  0  0  0  0
M  END
>  <minimizedAffinity>
-6.02009773

$$$$

 OpenBabel03242518333D

 35 38  0  0  1  0  0  0  0  0999 V2000
   37.4580   31.0120   38.7230 C   0  0  0  0  0  0  0  0  0  0  0  0
   36.5910   30.4730   37.7900 C   0  0  0  0  0  0  0  0  0  0  0  0
   35.8770   29.4590   38.4140 C   0  0  0  0  0  0  0  0  0  0  0  0
   36.3570   29.4360   39.7160 C   0  0  0  0  0  0  0  0  0  0  0  0
   37.2770   30.3570   39.8560 O   0  0  0  0  0  0  0  0  0  0  0  0
   36.5320   30.8260   36.7740 H   0  0  0  0  0  0  0  0  0  0  0  0
   35.1080   28.8400   37.9320 H   0  0  0  0  0  0  0  0  0  0  0  0
   38.3920   32.0500   38.6130 O   0  0  0  0  0  0  0  0  0  0  0  0
   38.4150   33.1060   39.5240 C   0  0  0  0  0  0  0  0  0  0  0  0
   37.3010   33.5980   39.8160 O   0  0  0  0  0  0  0  0  0  0  0  0
   39.7020   33.4850   40.0020 C   0  0  0  0  0  0  0  0  0  0  0  0
   40.4310   32.4210   40.4960 C   0  0  0  0  0  0  0  0  0  0  0  0
   41.7190   32.6960   40.9930 C   0  0  0  0  0  0  0  0  0  0  0  0
   42.1690   33.9690   40.9610 N   0  0  0  0  0  0  0  0  0  0  0  0
   41.4030   34.9730   40.4620 C   0  0  0  0  0  0  0  0  0  0  0  0
   40.1650   34.7300   39.9810 N   0  0  0  0  0  0  0  0  0  0  0  0
   40.1140   31.3810   40.5440 H   0  0  0  0  0  0  0  0  0  0  0  0
   42.3480   31.9110   41.3960 H   0  0  0  0  0  0  0  0  0  0  0  0
   41.8220   35.9780   40.4640 H   0  0  0  0  0  0  0  0  0  0  0  0
   35.8640   28.4800   40.7700 C   0  0  0  0  0  2  0  0  0  0  0  0
   36.8900   27.4430   40.8720 C   0  0  0  0  0  0  0  0  0  0  0  0
   37.7220   27.4400   41.8870 C   0  0  0  0  0  0  0  0  0  0  0  0
   38.7250   26.4710   42.0320 N   0  0  0  0  0  0  0  0  0  0  0  0
   39.4900   25.6180   42.8720 C   0  0  0  0  0  0  0  0  0  0  0  0
   39.8830   25.6440   44.0490 O   0  0  0  0  0  0  0  0  0  0  0  0
   39.6170   24.6790   41.7370 C   0  0  0  0  0  3  0  0  0  0  0  0
   40.5680   24.1550   41.6460 H   0  0  0  0  0  0  0  0  0  0  0  0
   39.4660   25.9460   40.8950 C   0  0  1  0  0  3  0  0  0  0  0  0
   38.4790   25.7330   39.4200 S   0  0  0  0  0  0  0  0  0  0  0  0
   36.8650   26.4800   39.7740 C   0  0  0  0  0  3  0  0  0  0  0  0
   36.1630   25.6190   39.9680 H   0  0  0  0  0  0  0  0  0  0  0  0
   37.6280   28.4690   42.9170 C   0  0  0  0  0  0  0  0  0  0  0  0
   38.5250   29.3090   43.1870 O   0  0  0  0  0  0  0  0  0  0  0  0
   37.2230   29.3000   43.9420 O   0  0  0  0  0  0  0  0  0  0  0  0
   36.2770   29.6020   44.1320 H   0  0  0  0  0  0  0  0  0  0  0  0
  1  5  1  0  0  0  0
  2  3  1  0  0  0  0
  2  1  2  0  0  0  0
  3  4  2  0  0  0  0
  4  5  1  0  0  0  0
  4 20  1  0  0  0  0
  6  2  1  0  0  0  0
  7  3  1  0  0  0  0
  8  1  1  0  0  0  0
  8  9  1  0  0  0  0
  9 10  2  0  0  0  0
  9 11  1  0  0  0  0
 11 12  1  0  0  0  0
 12 17  1  0  0  0  0
 12 13  2  0  0  0  0
 13 18  1  0  0  0  0
 14 13  1  0  0  0  0
 15 19  1  0  0  0  0
 15 14  2  0  0  0  0
 16 11  2  0  0  0  0
 16 15  1  0  0  0  0
 20 21  1  0  0  0  0
 21 22  2  0  0  0  0
 22 23  1  0  0  0  0
 22 32  1  0  0  0  0
 23 24  1  0  0  0  0
 24 25  2  0  0  0  0
 26 24  1  0  0  0  0
 27 26  1  0  0  0  0
 28 29  1  6  0  0  0
 28 26  1  0  0  0  0
 28 23  1  0  0  0  0
 29 30  1  0  0  0  0
 30 31  1  0  0  0  0
 30 21  1  0  0  0  0
 32 33  2  0  0  0  0
 32 34  1  0  0  0  0
 34 35  1  0  0  0  0
M  END
>  <minimizedAffinity>
-5.95239735

$$$$

 OpenBabel03242518333D

 35 38  0  0  1  0  0  0  0  0999 V2000
   38.0750   31.2330   39.6680 C   0  0  0  0  0  0  0  0  0  0  0  0
   36.7910   30.9980   40.1250 C   0  0  0  0  0  0  0  0  0  0  0  0
   36.8890   30.4570   41.4000 C   0  0  0  0  0  0  0  0  0  0  0  0
   38.2530   30.3910   41.6530 C   0  0  0  0  0  0  0  0  0  0  0  0
   38.9090   30.8530   40.6190 O   0  0  0  0  0  0  0  0  0  0  0  0
   35.9120   31.2200   39.5420 H   0  0  0  0  0  0  0  0  0  0  0  0
   36.0390   30.1620   42.0280 H   0  0  0  0  0  0  0  0  0  0  0  0
   38.5310   31.7650   38.4560 O   0  0  0  0  0  0  0  0  0  0  0  0
   39.8580   31.6120   38.0480 C   0  0  0  0  0  0  0  0  0  0  0  0
   40.1610   30.4830   37.5980 O   0  0  0  0  0  0  0  0  0  0  0  0
   40.6890   32.7580   38.1980 C   0  0  0  0  0  0  0  0  0  0  0  0
   41.7160   32.8060   37.2770 C   0  0  0  0  0  0  0  0  0  0  0  0
   42.5940   33.9040   37.3450 C   0  0  0  0  0  0  0  0  0  0  0  0
   42.3900   34.8410   38.2960 N   0  0  0  0  0  0  0  0  0  0  0  0
   41.3610   34.7360   39.1750 C   0  0  0  0  0  0  0  0  0  0  0  0
   40.5070   33.6910   39.1260 N   0  0  0  0  0  0  0  0  0  0  0  0
   41.9230   32.0790   36.4940 H   0  0  0  0  0  0  0  0  0  0  0  0
   43.4230   34.0090   36.6550 H   0  0  0  0  0  0  0  0  0  0  0  0
   41.2480   35.5240   39.9190 H   0  0  0  0  0  0  0  0  0  0  0  0
   38.8380   29.8610   42.9350 C   0  0  0  0  0  2  0  0  0  0  0  0
   39.2820   28.5010   42.6320 C   0  0  0  0  0  0  0  0  0  0  0  0
   38.5430   27.4740   42.9850 C   0  0  0  0  0  0  0  0  0  0  0  0
   38.9220   26.1510   42.7220 N   0  0  0  0  0  0  0  0  0  0  0  0
   38.5660   24.8260   42.3520 C   0  0  0  0  0  0  0  0  0  0  0  0
   37.5620   24.1070   42.4690 O   0  0  0  0  0  0  0  0  0  0  0  0
   39.9130   24.6710   41.7610 C   0  0  0  0  0  3  0  0  0  0  0  0
   40.3750   23.6890   41.8600 H   0  0  0  0  0  0  0  0  0  0  0  0
   40.3060   25.7070   42.8120 C   0  0  1  0  0  3  0  0  0  0  0  0
   41.4940   26.9160   42.2430 S   0  0  0  0  0  0  0  0  0  0  0  0
   40.5630   28.4410   41.9340 C   0  0  0  0  0  3  0  0  0  0  0  0
   40.4510   28.5130   40.8140 H   0  0  0  0  0  0  0  0  0  0  0  0
   37.2780   27.6850   43.6790 C   0  0  0  0  0  0  0  0  0  0  0  0
   36.1470   27.3440   43.2460 O   0  0  0  0  0  0  0  0  0  0  0  0
   36.2880   28.0280   44.5780 O   0  0  0  0  0  0  0  0  0  0  0  0
   36.3740   28.0530   45.5850 H   0  0  0  0  0  0  0  0  0  0  0  0
  1  2  2  0  0  0  0
  1  5  1  0  0  0  0
  2  3  1  0  0  0  0
  3  4  2  0  0  0  0
  3  7  1  0  0  0  0
  4 20  1  0  0  0  0
  5  4  1  0  0  0  0
  6  2  1  0  0  0  0
  8  1  1  0  0  0  0
  9 11  1  0  0  0  0
  9  8  1  0  0  0  0
 10  9  2  0  0  0  0
 11 16  1  0  0  0  0
 12 13  1  0  0  0  0
 12 11  2  0  0  0  0
 13 14  2  0  0  0  0
 14 15  1  0  0  0  0
 15 19  1  0  0  0  0
 16 15  2  0  0  0  0
 17 12  1  0  0  0  0
 18 13  1  0  0  0  0
 21 20  1  0  0  0  0
 21 22  2  0  0  0  0
 22 32  1  0  0  0  0
 23 28  1  0  0  0  0
 23 22  1  0  0  0  0
 24 25  2  0  0  0  0
 24 23  1  0  0  0  0
 26 27  1  0  0  0  0
 26 24  1  0  0  0  0
 28 26  1  6  0  0  0
 29 28  1  0  0  0  0
 30 29  1  0  0  0  0
 30 21  1  0  0  0  0
 31 30  1  0  0  0  0
 32 34  1  0  0  0  0
 33 32  2  0  0  0  0
 34 35  1  0  0  0  0
M  END
>  <minimizedAffinity>
-5.90234852

$$$$

 OpenBabel03242518333D

 35 38  0  0  1  0  0  0  0  0999 V2000
   36.2180   28.7330   41.3790 C   0  0  0  0  0  0  0  0  0  0  0  0
   35.6660   28.6270   40.1160 C   0  0  0  0  0  0  0  0  0  0  0  0
   35.9370   29.8080   39.4370 C   0  0  0  0  0  0  0  0  0  0  0  0
   36.6520   30.5810   40.3420 C   0  0  0  0  0  0  0  0  0  0  0  0
   36.7940   29.9190   41.4620 O   0  0  0  0  0  0  0  0  0  0  0  0
   35.1330   27.7530   39.7810 H   0  0  0  0  0  0  0  0  0  0  0  0
   35.6280   30.0290   38.4070 H   0  0  0  0  0  0  0  0  0  0  0  0
   36.2320   27.8300   42.4500 O   0  0  0  0  0  0  0  0  0  0  0  0
   37.3230   27.7480   43.3170 C   0  0  0  0  0  0  0  0  0  0  0  0
   37.3730   28.6230   44.2120 O   0  0  0  0  0  0  0  0  0  0  0  0
   38.2330   26.6820   43.0700 C   0  0  0  0  0  0  0  0  0  0  0  0
   39.4060   26.7940   43.7900 C   0  0  0  0  0  0  0  0  0  0  0  0
   40.3720   25.7850   43.6140 C   0  0  0  0  0  0  0  0  0  0  0  0
   40.1050   24.7740   42.7590 N   0  0  0  0  0  0  0  0  0  0  0  0
   38.9320   24.7210   42.0780 C   0  0  0  0  0  0  0  0  0  0  0  0
   37.9920   25.6780   42.2340 N   0  0  0  0  0  0  0  0  0  0  0  0
   39.6680   27.5860   44.4890 H   0  0  0  0  0  0  0  0  0  0  0  0
   41.3160   25.8070   44.1450 H   0  0  0  0  0  0  0  0  0  0  0  0
   38.7750   23.8800   41.4030 H   0  0  0  0  0  0  0  0  0  0  0  0
   37.1620   31.9650   40.0360 C   0  0  0  0  0  2  0  0  0  0  0  0
   38.6200   31.8540   40.0270 C   0  0  0  0  0  0  0  0  0  0  0  0
   39.2630   31.7450   38.8880 C   0  0  0  0  0  0  0  0  0  0  0  0
   40.6590   31.6340   38.8220 N   0  0  0  0  0  0  0  0  0  0  0  0
   41.8830   31.9500   38.1740 C   0  0  0  0  0  0  0  0  0  0  0  0
   42.2360   32.2100   37.0120 O   0  0  0  0  0  0  0  0  0  0  0  0
   42.5610   31.8390   39.4830 C   0  0  0  0  0  3  0  0  0  0  0  0
   43.5640   31.4150   39.4750 H   0  0  0  0  0  0  0  0  0  0  0  0
   41.4230   30.8680   39.7960 C   0  0  1  0  0  3  0  0  0  0  0  0
   40.7960   30.9870   41.4660 S   0  0  0  0  0  0  0  0  0  0  0  0
   39.2210   31.8790   41.3580 C   0  0  0  0  0  3  0  0  0  0  0  0
   39.4350   32.9260   41.7170 H   0  0  0  0  0  0  0  0  0  0  0  0
   38.5290   31.7360   37.6270 C   0  0  0  0  0  0  0  0  0  0  0  0
   38.1590   30.7040   37.0100 O   0  0  0  0  0  0  0  0  0  0  0  0
   37.8580   32.0750   36.4690 O   0  0  0  0  0  0  0  0  0  0  0  0
   37.2810   32.8930   36.3280 H   0  0  0  0  0  0  0  0  0  0  0  0
  1  5  1  0  0  0  0
  1  8  1  0  0  0  0
  2  1  2  0  0  0  0
  3  2  1  0  0  0  0
  3  4  2  0  0  0  0
  4  5  1  0  0  0  0
  6  2  1  0  0  0  0
  7  3  1  0  0  0  0
  8  9  1  0  0  0  0
  9 10  2  0  0  0  0
 11  9  1  0  0  0  0
 11 12  1  0  0  0  0
 12 17  1  0  0  0  0
 13 12  2  0  0  0  0
 13 18  1  0  0  0  0
 14 13  1  0  0  0  0
 15 16  1  0  0  0  0
 15 14  2  0  0  0  0
 16 11  2  0  0  0  0
 19 15  1  0  0  0  0
 20  4  1  0  0  0  0
 21 20  1  0  0  0  0
 21 30  1  0  0  0  0
 22 21  2  0  0  0  0
 23 22  1  0  0  0  0
 23 28  1  0  0  0  0
 24 23  1  0  0  0  0
 24 26  1  0  0  0  0
 25 24  2  0  0  0  0
 27 26  1  0  0  0  0
 28 26  1  1  0  0  0
 28 29  1  0  0  0  0
 30 29  1  0  0  0  0
 30 31  1  0  0  0  0
 32 22  1  0  0  0  0
 33 32  2  0  0  0  0
 34 32  1  0  0  0  0
 35 34  1  0  0  0  0
M  END
>  <minimizedAffinity>
-5.78460169

$$$$

 OpenBabel03242518333D

 35 38  0  0  1  0  0  0  0  0999 V2000
   36.5490   29.1710   40.7780 C   0  0  0  0  0  0  0  0  0  0  0  0
   36.0000   30.3480   40.3030 C   0  0  0  0  0  0  0  0  0  0  0  0
   36.9250   31.3610   40.5150 C   0  0  0  0  0  0  0  0  0  0  0  0
   38.0070   30.7330   41.1180 C   0  0  0  0  0  0  0  0  0  0  0  0
   37.7480   29.4570   41.2530 O   0  0  0  0  0  0  0  0  0  0  0  0
   35.0200   30.3990   39.8580 H   0  0  0  0  0  0  0  0  0  0  0  0
   36.7810   32.4150   40.2440 H   0  0  0  0  0  0  0  0  0  0  0  0
   36.0360   27.8680   40.8050 O   0  0  0  0  0  0  0  0  0  0  0  0
   36.5530   26.8660   39.9820 C   0  0  0  0  0  0  0  0  0  0  0  0
   36.2250   26.9320   38.7750 O   0  0  0  0  0  0  0  0  0  0  0  0
   37.3830   25.9030   40.6220 C   0  0  0  0  0  0  0  0  0  0  0  0
   38.7300   26.1270   40.4160 C   0  0  0  0  0  0  0  0  0  0  0  0
   39.6330   25.2260   41.0100 C   0  0  0  0  0  0  0  0  0  0  0  0
   39.1430   24.2020   41.7410 N   0  0  0  0  0  0  0  0  0  0  0  0
   37.8050   24.0350   41.9070 C   0  0  0  0  0  0  0  0  0  0  0  0
   36.9220   24.8890   41.3450 N   0  0  0  0  0  0  0  0  0  0  0  0
   39.1750   26.9340   39.8370 H   0  0  0  0  0  0  0  0  0  0  0  0
   40.7050   25.3390   40.8920 H   0  0  0  0  0  0  0  0  0  0  0  0
   37.4710   23.1900   42.5080 H   0  0  0  0  0  0  0  0  0  0  0  0
   39.2620   31.4520   41.5350 C   0  0  0  0  0  2  0  0  0  0  0  0
   40.0200   31.6680   40.3020 C   0  0  0  0  0  0  0  0  0  0  0  0
   40.2180   32.8870   39.8580 C   0  0  0  0  0  0  0  0  0  0  0  0
   40.9350   33.1500   38.6830 N   0  0  0  0  0  0  0  0  0  0  0  0
   41.8530   33.9620   37.9640 C   0  0  0  0  0  0  0  0  0  0  0  0
   42.1790   35.1600   37.9710 O   0  0  0  0  0  0  0  0  0  0  0  0
   42.2590   32.7630   37.2020 C   0  0  0  0  0  3  0  0  0  0  0  0
   42.4980   32.9150   36.1500 H   0  0  0  0  0  0  0  0  0  0  0  0
   40.8360   32.2980   37.5060 C   0  0  1  0  0  3  0  0  0  0  0  0
   40.6960   30.5560   37.8810 S   0  0  0  0  0  0  0  0  0  0  0  0
   40.4940   30.4350   39.6790 C   0  0  0  0  0  3  0  0  0  0  0  0
   41.4940   30.1020   40.0800 H   0  0  0  0  0  0  0  0  0  0  0  0
   39.6860   34.0310   40.5890 C   0  0  0  0  0  0  0  0  0  0  0  0
   40.2780   35.1300   40.7500 O   0  0  0  0  0  0  0  0  0  0  0  0
   38.9080   34.9000   41.3280 O   0  0  0  0  0  0  0  0  0  0  0  0
   37.8980   34.9500   41.3280 H   0  0  0  0  0  0  0  0  0  0  0  0
  1  8  1  0  0  0  0
  1  5  1  0  0  0  0
  2  3  1  0  0  0  0
  2  1  2  0  0  0  0
  3  4  2  0  0  0  0
  4  5  1  0  0  0  0
  4 20  1  0  0  0  0
  6  2  1  0  0  0  0
  7  3  1  0  0  0  0
  9 11  1  0  0  0  0
  9  8  1  0  0  0  0
 10  9  2  0  0  0  0
 11 16  1  0  0  0  0
 12 11  2  0  0  0  0
 12 13  1  0  0  0  0
 13 14  2  0  0  0  0
 14 15  1  0  0  0  0
 15 19  1  0  0  0  0
 16 15  2  0  0  0  0
 17 12  1  0  0  0  0
 18 13  1  0  0  0  0
 21 20  1  0  0  0  0
 22 21  2  0  0  0  0
 22 32  1  0  0  0  0
 23 22  1  0  0  0  0
 24 25  2  0  0  0  0
 24 23  1  0  0  0  0
 26 24  1  0  0  0  0
 27 26  1  0  0  0  0
 28 26  1  6  0  0  0
 28 29  1  0  0  0  0
 28 23  1  0  0  0  0
 29 30  1  0  0  0  0
 30 31  1  0  0  0  0
 30 21  1  0  0  0  0
 32 33  2  0  0  0  0
 32 34  1  0  0  0  0
 34 35  1  0  0  0  0
M  END
>  <minimizedAffinity>
-5.63234282

$$$$

 OpenBabel03242518333D

 35 38  0  0  1  0  0  0  0  0999 V2000
   39.2080   32.2020   39.1260 C   0  0  0  0  0  0  0  0  0  0  0  0
   38.1260   32.2070   38.2650 C   0  0  0  0  0  0  0  0  0  0  0  0
   37.0240   31.7440   38.9710 C   0  0  0  0  0  0  0  0  0  0  0  0
   37.5050   31.4780   40.2460 C   0  0  0  0  0  0  0  0  0  0  0  0
   38.7830   31.7590   40.2950 O   0  0  0  0  0  0  0  0  0  0  0  0
   38.1960   32.5270   37.2390 H   0  0  0  0  0  0  0  0  0  0  0  0
   36.0120   31.6320   38.5600 H   0  0  0  0  0  0  0  0  0  0  0  0
   40.5430   32.5720   38.9190 O   0  0  0  0  0  0  0  0  0  0  0  0
   41.0290   33.8100   39.3450 C   0  0  0  0  0  0  0  0  0  0  0  0
   40.1600   34.6700   39.6190 O   0  0  0  0  0  0  0  0  0  0  0  0
   42.4460   33.9300   39.4120 C   0  0  0  0  0  0  0  0  0  0  0  0
   42.9120   34.1320   40.6970 C   0  0  0  0  0  0  0  0  0  0  0  0
   44.3030   34.2640   40.8660 C   0  0  0  0  0  0  0  0  0  0  0  0
   45.0990   34.1890   39.7780 N   0  0  0  0  0  0  0  0  0  0  0  0
   44.5800   33.9890   38.5390 C   0  0  0  0  0  0  0  0  0  0  0  0
   43.2480   33.8590   38.3560 N   0  0  0  0  0  0  0  0  0  0  0  0
   42.3130   34.2010   41.6030 H   0  0  0  0  0  0  0  0  0  0  0  0
   44.7400   34.4240   41.8440 H   0  0  0  0  0  0  0  0  0  0  0  0
   45.2730   33.9370   37.7010 H   0  0  0  0  0  0  0  0  0  0  0  0
   36.6490   30.9490   41.3670 C   0  0  0  0  0  2  0  0  0  0  0  0
   37.0850   29.5690   41.5760 C   0  0  0  0  0  0  0  0  0  0  0  0
   36.4000   28.5770   41.0570 C   0  0  0  0  0  0  0  0  0  0  0  0
   36.7720   27.2370   41.2290 N   0  0  0  0  0  0  0  0  0  0  0  0
   36.8950   25.9230   40.7020 C   0  0  0  0  0  0  0  0  0  0  0  0
   36.3020   25.2460   39.8470 O   0  0  0  0  0  0  0  0  0  0  0  0
   38.0400   25.7070   41.6110 C   0  0  0  0  0  3  0  0  0  0  0  0
   38.1400   24.7090   42.0360 H   0  0  0  0  0  0  0  0  0  0  0  0
   37.3240   26.7390   42.4810 C   0  0  1  0  0  3  0  0  0  0  0  0
   38.4150   27.8920   43.3020 S   0  0  0  0  0  0  0  0  0  0  0  0
   38.2990   29.4500   42.3810 C   0  0  0  0  0  3  0  0  0  0  0  0
   39.2380   29.5140   41.7610 H   0  0  0  0  0  0  0  0  0  0  0  0
   35.2020   28.8460   40.2690 C   0  0  0  0  0  0  0  0  0  0  0  0
   35.0470   28.5420   39.0580 O   0  0  0  0  0  0  0  0  0  0  0  0
   33.9560   29.2400   39.8240 O   0  0  0  0  0  0  0  0  0  0  0  0
   33.1070   29.2770   40.3720 H   0  0  0  0  0  0  0  0  0  0  0  0
  1  5  1  0  0  0  0
  2  3  1  0  0  0  0
  2  1  2  0  0  0  0
  3  4  2  0  0  0  0
  4  5  1  0  0  0  0
  4 20  1  0  0  0  0
  6  2  1  0  0  0  0
  7  3  1  0  0  0  0
  8  1  1  0  0  0  0
  8  9  1  0  0  0  0
  9 11  1  0  0  0  0
  9 10  2  0  0  0  0
 11 12  1  0  0  0  0
 12 13  2  0  0  0  0
 12 17  1  0  0  0  0
 13 18  1  0  0  0  0
 14 13  1  0  0  0  0
 15 14  2  0  0  0  0
 16 15  1  0  0  0  0
 16 11  2  0  0  0  0
 19 15  1  0  0  0  0
 20 21  1  0  0  0  0
 21 30  1  0  0  0  0
 22 23  1  0  0  0  0
 22 21  2  0  0  0  0
 23 28  1  0  0  0  0
 24 23  1  0  0  0  0
 24 26  1  0  0  0  0
 25 24  2  0  0  0  0
 26 27  1  0  0  0  0
 28 26  1  6  0  0  0
 28 29  1  0  0  0  0
 30 29  1  0  0  0  0
 31 30  1  0  0  0  0
 32 22  1  0  0  0  0
 33 32  2  0  0  0  0
 34 32  1  0  0  0  0
 34 35  1  0  0  0  0
M  END
>  <minimizedAffinity>
-5.63072062

$$$$
