
     RDKit          3D

 41 43  0  0  0  0  0  0  0  0999 V2000
   48.0858   32.9081   41.9029 O   0  0  0  0  0  0  0  0  0  0  0  0
   47.2022   34.0215   41.3331 P   0  0  2  0  0  0  0  0  0  0  0  0
   45.6051   33.8170   41.9203 O   0  0  0  0  0  0  0  0  0  0  0  0
   44.3535   35.9198   44.6232 C   0  0  0  0  0  0  0  0  0  0  0  0
   44.6623   35.4574   43.3234 C   0  0  0  0  0  0  0  0  0  0  0  0
   45.3213   34.2314   43.2044 C   0  0  0  0  0  0  0  0  0  0  0  0
   45.6310   33.5482   44.3284 N   0  0  0  0  0  0  0  0  0  0  0  0
   45.3256   34.0102   45.5613 C   0  0  0  0  0  0  0  0  0  0  0  0
   44.6947   35.1801   45.7225 N   0  0  0  0  0  0  0  0  0  0  0  0
   47.1911   33.9336   39.6757 O   0  0  0  0  0  0  0  0  0  0  0  0
   46.5327   33.0411   38.8718 C   0  0  0  0  0  0  0  0  0  0  0  0
   45.8999   33.4931   37.8020 O   0  0  0  0  0  0  0  0  0  0  0  0
   47.7905   35.4579   41.9067 O   0  0  0  0  0  0  0  0  0  0  0  0
   49.0448   35.7695   41.4048 C   0  0  0  0  0  0  0  0  0  0  0  0
   49.4500   37.0578   41.7255 F   0  0  0  0  0  0  0  0  0  0  0  0
   49.9506   34.8299   41.7800 F   0  0  0  0  0  0  0  0  0  0  0  0
   48.9248   35.7444   40.0219 F   0  0  0  0  0  0  0  0  0  0  0  0
   43.8464   36.8599   44.7543 H   0  0  0  0  0  0  0  0  0  0  0  0
   44.3640   36.0894   42.5227 H   0  0  0  0  0  0  0  0  0  0  0  0
   45.6297   33.3659   46.3754 H   0  0  0  0  0  0  0  0  0  0  0  0
   44.4747   27.8183   35.1604 C   0  0  0  0  0  0  0  0  0  0  0  0
   43.5692   27.9985   34.5401 H   0  0  0  0  0  0  0  0  0  0  0  0
   44.9085   28.9912   35.9147 C   0  0  0  0  0  0  0  0  0  0  0  0
   45.9278   28.8923   36.7273 C   0  0  0  0  0  0  0  0  0  0  0  0
   46.6443   27.6340   36.8996 C   0  0  0  0  0  0  0  0  0  0  0  0
   46.4119   26.5551   36.3439 O   0  0  0  0  0  0  0  0  0  0  0  0
   47.7298   27.4263   37.7319 O   0  0  0  0  0  0  0  0  0  0  0  0
   46.3706   30.0193   37.4685 N   0  0  0  0  0  0  0  0  0  0  0  0
   46.8775   30.5911   38.6621 C   0  0  0  0  0  0  0  0  0  0  0  0
   47.7165   30.0800   39.4725 O   0  0  0  0  0  0  0  0  0  0  0  0
   46.0031   31.7802   38.3427 C   0  0  2  0  0  0  0  0  0  0  0  0
   46.4168   31.3610   36.9586 C   0  0  2  0  0  0  0  0  0  0  0  0
   45.2412   31.6929   35.6541 S   0  0  0  0  0  0  0  0  0  0  0  0
   44.1829   30.2464   35.7389 C   0  0  2  0  0  0  0  0  0  0  0  0
   43.5312   30.3925   36.6504 H   0  0  0  0  0  0  0  0  0  0  0  0
   45.2518   27.3734   34.4978 H   0  0  0  0  0  0  0  0  0  0  0  0
   44.1785   27.0245   35.8769 H   0  0  0  0  0  0  0  0  0  0  0  0
   47.8552   26.6437   38.3379 H   0  0  0  0  0  0  0  0  0  0  0  0
   44.9282   31.5843   38.5399 H   0  0  0  0  0  0  0  0  0  0  0  0
   47.4630   31.6894   36.7534 H   0  0  0  0  0  0  0  0  0  0  0  0
   43.4625   30.1866   34.9012 H   0  0  0  0  0  0  0  0  0  0  0  0
  2  1  2  0
  2  3  1  1
  2 13  1  0
  3  6  1  0
  4  9  2  0
  5  4  1  0
  6  5  2  0
  6  7  1  0
  7  8  2  0
  8  9  1  0
 10  2  1  0
 11 10  1  0
 12 11  2  0
 14 16  1  0
 14 15  1  0
 14 13  1  0
 17 14  1  0
  4 18  1  0
  5 19  1  0
  8 20  1  0
 21 22  1  0
 21 23  1  0
 23 24  2  0
 24 25  1  0
 25 26  2  0
 25 27  1  0
 24 28  1  0
 28 29  1  0
 29 30  2  0
 29 31  1  0
 31 32  1  0
 32 33  1  0
 33 34  1  0
 34 35  1  1
 34 23  1  0
 32 28  1  0
 21 36  1  0
 21 37  1  0
 27 38  1  0
 31 39  1  6
 32 40  1  6
 34 41  1  0
 11 31  1  0
M  ISO  5  18  14  19  14  20  14  22   8  35  15
M  END
>  <DihAtoms>  (1) 
9,10,30,28

>  <DihDeg>  (1) 
-179.80090144961642

$$$$
