
     RDKit          3D

 46 49  0  0  0  0  0  0  0  0999 V2000
   48.3854   32.0593   42.4328 C   0  0  0  0  0  0  0  0  0  0  0  0
   49.1738   32.7780   41.4915 C   0  0  0  0  0  0  0  0  0  0  0  0
   50.4694   32.3431   41.2133 C   0  0  0  0  0  0  0  0  0  0  0  0
   50.8905   31.2208   41.8930 N   0  0  0  0  0  0  0  0  0  0  0  0
   50.1350   30.5575   42.7747 C   0  0  0  0  0  0  0  0  0  0  0  0
   48.8835   30.9789   43.0423 N   0  0  0  0  0  0  0  0  0  0  0  0
   47.0312   32.5927   42.6782 C   0  0  0  0  0  0  0  0  0  0  0  0
   46.3569   33.0452   41.4443 C   0  0  0  0  0  0  0  0  0  0  0  0
   46.1954   34.5356   41.3601 C   0  0  0  0  0  0  0  0  0  0  0  0
   45.4503   35.0886   42.5621 C   0  0  0  0  0  0  0  0  0  0  0  0
   45.8898   34.4861   43.8634 C   0  0  0  0  0  0  0  0  0  0  0  0
   47.1616   33.6943   43.7233 C   0  0  0  0  0  0  0  0  0  0  0  0
   48.9202   33.6418   40.9325 H   0  0  0  0  0  0  0  0  0  0  0  0
   51.1357   32.8111   40.5272 H   0  0  0  0  0  0  0  0  0  0  0  0
   46.4842   31.7742   43.2340 H   0  0  0  0  0  0  0  0  0  0  0  0
   45.3035   32.6384   41.4894 H   0  0  0  0  0  0  0  0  0  0  0  0
   46.7640   32.6620   40.5084 H   0  0  0  0  0  0  0  0  0  0  0  0
   45.5982   34.7638   40.4551 H   0  0  0  0  0  0  0  0  0  0  0  0
   47.1141   35.1163   41.2758 H   0  0  0  0  0  0  0  0  0  0  0  0
   44.3430   35.0051   42.4337 H   0  0  0  0  0  0  0  0  0  0  0  0
   45.6400   36.1812   42.6061 H   0  0  0  0  0  0  0  0  0  0  0  0
   45.0660   33.7837   44.1854 H   0  0  0  0  0  0  0  0  0  0  0  0
   46.0207   35.2213   44.6560 H   0  0  0  0  0  0  0  0  0  0  0  0
   47.9614   34.3820   43.4290 H   0  0  0  0  0  0  0  0  0  0  0  0
   47.3864   33.2286   44.7068 H   0  0  0  0  0  0  0  0  0  0  0  0
   50.6613   29.3436   43.4759 C   0  0  0  0  0  0  0  0  0  0  0  0
   49.7052   28.7624   44.4124 C   0  0  0  0  0  0  0  0  0  0  0  0
   49.8869   28.6074   45.7125 C   0  0  0  0  0  0  0  0  0  0  0  0
   51.1082   29.0094   46.4175 C   0  0  0  0  0  0  0  0  0  0  0  0
   52.1810   29.5290   46.0871 O   0  0  0  0  0  0  0  0  0  0  0  0
   51.2554   28.8364   47.7678 O   0  0  0  0  0  0  0  0  0  0  0  0
   48.8354   28.0080   46.4544 N   0  0  0  0  0  0  0  0  0  0  0  0
   48.0527   27.9678   47.6674 C   0  0  0  0  0  0  0  0  0  0  0  0
   48.1314   28.5328   48.8130 O   0  0  0  0  0  0  0  0  0  0  0  0
   47.0794   27.0060   47.1163 C   0  0  1  0  0  0  0  0  0  0  0  0
   46.9263   26.0782   47.7076 H   0  0  0  0  0  0  0  0  0  0  0  0
   48.0173   26.8861   45.9667 C   0  0  1  0  0  0  0  0  0  0  0  0
   47.2464   27.5331   44.4591 S   0  0  0  0  0  0  0  0  0  0  0  0
   48.5313   28.4169   43.5767 C   0  0  1  0  0  0  0  0  0  0  0  0
   48.0934   29.3642   43.1911 H   0  0  0  0  0  0  0  0  0  0  0  0
   51.6345   29.5662   43.9369 H   0  0  0  0  0  0  0  0  0  0  0  0
   50.9160   28.6290   42.6360 H   0  0  0  0  0  0  0  0  0  0  0  0
   51.6121   29.5598   48.3659 H   0  0  0  0  0  0  0  0  0  0  0  0
   46.0962   27.4741   46.9429 H   0  0  0  0  0  0  0  0  0  0  0  0
   48.5652   25.9349   45.8338 H   0  0  0  0  0  0  0  0  0  0  0  0
   48.7988   27.7333   42.7142 H   0  0  0  0  0  0  0  0  0  0  0  0
  1  7  1  0
  1  6  1  0
  2  1  2  0
  3  2  1  0
  3  4  2  0
  4  5  1  0
  5  6  2  0
  7 12  1  0
  8  7  1  0
  9  8  1  0
  9 10  1  0
 10 11  1  0
 12 11  1  0
  2 13  1  0
  3 14  1  0
  7 15  1  0
  8 16  1  0
  8 17  1  0
  9 18  1  0
  9 19  1  0
 10 20  1  0
 10 21  1  0
 11 22  1  0
 11 23  1  0
 12 24  1  0
 12 25  1  0
 26 27  1  0
 27 28  2  0
 28 29  1  0
 29 30  2  0
 29 31  1  0
 28 32  1  0
 32 33  1  0
 33 34  2  0
 33 35  1  0
 35 36  1  1
 35 37  1  0
 37 38  1  0
 38 39  1  0
 39 40  1  6
 39 27  1  0
 37 32  1  0
 26 41  1  0
 26 42  1  0
 31 43  1  0
 35 44  1  0
 37 45  1  6
 39 46  1  0
  5 26  1  0
M  ISO  8  13  14  14  14  15  13  16  13  17  13  18  13  19  13  20  13
M  ISO  7  21  13  22  13  23  13  24  13  25  13  36  15  40  15
M  END
>  <DihAtoms>  (1) 
3,4,25,26

>  <DihDeg>  (1) 
-90.73363602328095

$$$$
