
     RDKit          3D

 32 34  0  0  0  0  0  0  0  0999 V2000
   46.2202   34.8362   43.1906 C   0  0  0  0  0  0  0  0  0  0  0  0
   45.3267   35.9021   43.2813 C   0  0  0  0  0  0  0  0  0  0  0  0
   44.5561   36.0118   44.4525 C   0  0  0  0  0  0  0  0  0  0  0  0
   44.7414   35.0615   45.4184 N   0  0  0  0  0  0  0  0  0  0  0  0
   45.6133   34.0534   45.2866 C   0  0  0  0  0  0  0  0  0  0  0  0
   46.3542   33.9424   44.1677 N   0  0  0  0  0  0  0  0  0  0  0  0
   46.9562   34.8077   41.9687 C   0  0  0  0  0  0  0  0  0  0  0  0
   48.0589   35.3879   41.7282 O   0  0  0  0  0  0  0  0  0  0  0  0
   45.1859   36.6514   42.5107 H   0  0  0  0  0  0  0  0  0  0  0  0
   43.8459   36.8195   44.5780 H   0  0  0  0  0  0  0  0  0  0  0  0
   45.6609   33.3700   46.1278 H   0  0  0  0  0  0  0  0  0  0  0  0
   41.3181   31.7966   41.4157 C   0  0  0  0  0  0  0  0  0  0  0  0
   41.0314   31.3030   42.3656 H   0  0  0  0  0  0  0  0  0  0  0  0
   42.6888   32.3526   41.5546 C   0  0  0  0  0  0  0  0  0  0  0  0
   43.1468   32.9537   40.4886 C   0  0  0  0  0  0  0  0  0  0  0  0
   42.3600   33.0675   39.2519 C   0  0  0  0  0  0  0  0  0  0  0  0
   41.2025   32.6379   39.0241 O   0  0  0  0  0  0  0  0  0  0  0  0
   42.8139   33.6985   38.1086 O   0  0  0  0  0  0  0  0  0  0  0  0
   44.4514   33.5220   40.4964 N   0  0  0  0  0  0  0  0  0  0  0  0
   45.2876   34.6293   40.0989 C   0  0  0  0  0  0  0  0  0  0  0  0
   45.1598   35.7048   39.4191 O   0  0  0  0  0  0  0  0  0  0  0  0
   46.4187   34.0257   40.8116 C   0  0  2  0  0  0  0  0  0  0  0  0
   45.5872   32.8390   41.1407 C   0  0  1  0  0  0  0  0  0  0  0  0
   45.1158   32.6147   42.8481 S   0  0  0  0  0  0  0  0  0  0  0  0
   43.3744   32.1782   42.8528 C   0  0  2  0  0  0  0  0  0  0  0  0
   43.3260   31.0718   43.0749 H   0  0  0  0  0  0  0  0  0  0  0  0
   40.5483   32.5807   41.2489 H   0  0  0  0  0  0  0  0  0  0  0  0
   41.2971   30.9824   40.6461 H   0  0  0  0  0  0  0  0  0  0  0  0
   42.2258   34.2953   37.5473 H   0  0  0  0  0  0  0  0  0  0  0  0
   47.2377   33.8349   40.0696 H   0  0  0  0  0  0  0  0  0  0  0  0
   45.9337   31.9521   40.5858 H   0  0  0  0  0  0  0  0  0  0  0  0
   42.8161   32.6378   43.6943 H   0  0  0  0  0  0  0  0  0  0  0  0
  1  2  2  0
  1  6  1  0
  2  3  1  0
  3  4  2  0
  5  4  1  0
  6  5  2  0
  7  1  1  0
  8  7  2  0
  2  9  1  0
  3 10  1  0
  5 11  1  0
 12 13  1  0
 12 14  1  0
 14 15  2  0
 15 16  1  0
 16 17  2  0
 16 18  1  0
 15 19  1  0
 19 20  1  0
 20 21  2  0
 20 22  1  0
 22 23  1  0
 23 24  1  0
 24 25  1  0
 25 26  1  1
 25 14  1  0
 23 19  1  0
 12 27  1  0
 12 28  1  0
 18 29  1  0
 22 30  1  6
 23 31  1  6
 25 32  1  0
  7 22  1  0
M  ISO  5   9  14  10  14  11  14  13   8  26  15
M  END
>  <DihAtoms>  (1) 
0,6,21,19

>  <DihDeg>  (1) 
-59.99983712908399

$$$$
