
     RDKit          3D

 42 45  0  0  0  0  0  0  0  0999 V2000
   46.2733   34.1734   40.9853 C   0  0  0  0  0  0  0  0  0  0  0  0
   46.8333   34.8312   42.0431 C   0  0  0  0  0  0  0  0  0  0  0  0
   48.0807   35.3753   41.8564 C   0  0  0  0  0  0  0  0  0  0  0  0
   48.7482   35.2644   40.6465 C   0  0  0  0  0  0  0  0  0  0  0  0
   48.1747   34.6086   39.6119 C   0  0  0  0  0  0  0  0  0  0  0  0
   46.9029   34.0346   39.7484 C   0  0  0  0  0  0  0  0  0  0  0  0
   44.5038   36.0152   44.7686 C   0  0  0  0  0  0  0  0  0  0  0  0
   45.2125   35.9684   43.5557 C   0  0  0  0  0  0  0  0  0  0  0  0
   46.0882   34.9145   43.2743 C   0  0  0  0  0  0  0  0  0  0  0  0
   46.1880   33.9797   44.2377 N   0  0  0  0  0  0  0  0  0  0  0  0
   45.5060   34.0295   45.3992 C   0  0  0  0  0  0  0  0  0  0  0  0
   44.6699   35.0333   45.6708 N   0  0  0  0  0  0  0  0  0  0  0  0
   45.0163   33.6058   41.1236 O   0  0  0  0  0  0  0  0  0  0  0  0
   46.2523   33.3521   38.7385 O   0  0  0  0  0  0  0  0  0  0  0  0
   48.5503   35.9025   42.6761 H   0  0  0  0  0  0  0  0  0  0  0  0
   49.7346   35.6896   40.4854 H   0  0  0  0  0  0  0  0  0  0  0  0
   48.6819   34.5142   38.6628 H   0  0  0  0  0  0  0  0  0  0  0  0
   43.8502   36.8676   44.8984 H   0  0  0  0  0  0  0  0  0  0  0  0
   45.1004   36.7436   42.8093 H   0  0  0  0  0  0  0  0  0  0  0  0
   45.6842   33.2071   46.0848 H   0  0  0  0  0  0  0  0  0  0  0  0
   45.0075   32.5914   41.1753 H   0  0  0  0  0  0  0  0  0  0  0  0
   46.9674   33.2527   37.4938 C   0  0  0  0  0  0  0  0  0  0  0  0
   48.0506   32.2720   37.5708 C   0  0  0  0  0  0  0  0  0  0  0  0
   49.3137   32.5189   37.3860 C   0  0  0  0  0  0  0  0  0  0  0  0
   49.8250   33.8465   37.0691 C   0  0  0  0  0  0  0  0  0  0  0  0
   49.3614   34.9977   36.8879 O   0  0  0  0  0  0  0  0  0  0  0  0
   51.1581   34.1310   36.8754 O   0  0  0  0  0  0  0  0  0  0  0  0
   50.2463   31.4556   37.4902 N   0  0  0  0  0  0  0  0  0  0  0  0
   51.5397   31.0461   37.9384 C   0  0  0  0  0  0  0  0  0  0  0  0
   52.5935   31.5578   38.4507 O   0  0  0  0  0  0  0  0  0  0  0  0
   51.2641   29.6362   37.5824 C   0  0  2  0  0  0  0  0  0  0  0  0
   51.1827   28.9427   38.4446 H   0  0  0  0  0  0  0  0  0  0  0  0
   49.9758   30.0979   36.9868 C   0  0  1  0  0  0  0  0  0  0  0  0
   48.4892   29.5687   37.9046 S   0  0  0  0  0  0  0  0  0  0  0  0
   47.3716   30.9968   37.9029 C   0  0  2  0  0  0  0  0  0  0  0  0
   46.5764   30.7368   37.1401 H   0  0  0  0  0  0  0  0  0  0  0  0
   47.2617   34.2623   37.1649 H   0  0  0  0  0  0  0  0  0  0  0  0
   46.1461   32.9676   36.7652 H   0  0  0  0  0  0  0  0  0  0  0  0
   51.6989   34.8743   37.2975 H   0  0  0  0  0  0  0  0  0  0  0  0
   51.9783   29.3050   36.7934 H   0  0  0  0  0  0  0  0  0  0  0  0
   49.9024   30.0190   35.8976 H   0  0  0  0  0  0  0  0  0  0  0  0
   46.8037   31.0594   38.8703 H   0  0  0  0  0  0  0  0  0  0  0  0
  1 13  1  0
  1  2  2  0
  2  9  1  0
  3  2  1  0
  4  3  2  0
  5  6  2  0
  5  4  1  0
  6  1  1  0
  7 12  2  0
  8  7  1  0
  9  8  2  0
  9 10  1  0
 10 11  2  0
 11 12  1  0
 14  6  1  0
  3 15  1  0
  4 16  1  0
  5 17  1  0
  7 18  1  0
  8 19  1  0
 11 20  1  0
 13 21  1  0
 22 23  1  0
 23 24  2  0
 24 25  1  0
 25 26  2  0
 25 27  1  0
 24 28  1  0
 28 29  1  0
 29 30  2  0
 29 31  1  0
 31 32  1  1
 31 33  1  0
 33 34  1  0
 34 35  1  0
 35 36  1  6
 35 23  1  0
 33 28  1  0
 22 37  1  0
 22 38  1  0
 27 39  1  0
 31 40  1  0
 33 41  1  6
 35 42  1  0
 14 22  1  0
M  ISO  8  15  14  16  14  17  14  18  14  19  14  20  14  21   3  32  15
M  ISO  1  36  15
M  END
>  <DihAtoms>  (1) 
5,13,21,22

>  <DihDeg>  (1) 
-179.891492650451

$$$$
