
     RDKit          3D

 31 33  0  0  0  0  0  0  0  0999 V2000
   44.5371   36.0288   44.5364 C   0  0  0  0  0  0  0  0  0  0  0  0
   45.2660   35.8862   43.3183 C   0  0  0  0  0  0  0  0  0  0  0  0
   46.1357   34.7898   43.2041 C   0  0  0  0  0  0  0  0  0  0  0  0
   46.2319   33.9385   44.2469 N   0  0  0  0  0  0  0  0  0  0  0  0
   45.5235   34.1040   45.3918 C   0  0  0  0  0  0  0  0  0  0  0  0
   44.6873   35.1410   45.5265 N   0  0  0  0  0  0  0  0  0  0  0  0
   47.0695   34.5647   41.7050 S   0  0  0  0  0  0  0  0  0  0  0  0
   43.8738   36.8571   44.6349 H   0  0  0  0  0  0  0  0  0  0  0  0
   45.1367   36.6054   42.5310 H   0  0  0  0  0  0  0  0  0  0  0  0
   47.1756   33.2080   41.3475 H   0  0  0  0  0  0  0  0  0  0  0  0
   45.7980   33.0308   46.4071 C   0  0  0  0  0  0  0  0  0  0  0  0
   46.4833   31.8669   45.8256 C   0  0  0  0  0  0  0  0  0  0  0  0
   47.6531   31.4690   46.2348 C   0  0  0  0  0  0  0  0  0  0  0  0
   48.3822   32.1417   47.3024 C   0  0  0  0  0  0  0  0  0  0  0  0
   49.5097   31.8248   47.7570 O   0  0  0  0  0  0  0  0  0  0  0  0
   48.4283   33.1621   48.2316 O   0  0  0  0  0  0  0  0  0  0  0  0
   48.3074   30.3517   45.6719 N   0  0  0  0  0  0  0  0  0  0  0  0
   49.1564   29.2282   45.7900 C   0  0  0  0  0  0  0  0  0  0  0  0
   49.9323   28.7188   46.6682 O   0  0  0  0  0  0  0  0  0  0  0  0
   48.8774   28.7191   44.4436 C   0  0  2  0  0  0  0  0  0  0  0  0
   48.2478   27.8060   44.4783 H   0  0  0  0  0  0  0  0  0  0  0  0
   48.1594   30.0116   44.2712 C   0  0  1  0  0  0  0  0  0  0  0  0
   46.3565   29.7846   44.0241 S   0  0  0  0  0  0  0  0  0  0  0  0
   45.6710   31.2605   44.7649 C   0  0  2  0  0  0  0  0  0  0  0  0
   45.5496   32.0280   43.9510 H   0  0  0  0  0  0  0  0  0  0  0  0
   44.7725   32.7625   46.7979 H   0  0  0  0  0  0  0  0  0  0  0  0
   46.3092   33.4526   47.2969 H   0  0  0  0  0  0  0  0  0  0  0  0
   47.8887   33.1304   49.1065 H   0  0  0  0  0  0  0  0  0  0  0  0
   49.8232   28.6368   43.8574 H   0  0  0  0  0  0  0  0  0  0  0  0
   48.5327   30.7410   43.5503 H   0  0  0  0  0  0  0  0  0  0  0  0
   44.6323   31.0528   45.0902 H   0  0  0  0  0  0  0  0  0  0  0  0
  1  6  2  0
  2  1  1  0
  3  2  2  0
  3  4  1  0
  4  5  2  0
  5  6  1  0
  7  3  1  0
  1  8  1  0
  2  9  1  0
  7 10  1  0
 11 12  1  0
 12 13  2  0
 13 14  1  0
 14 15  2  0
 14 16  1  0
 13 17  1  0
 17 18  1  0
 18 19  2  0
 18 20  1  0
 20 21  1  1
 20 22  1  0
 22 23  1  0
 23 24  1  0
 24 25  1  6
 24 12  1  0
 22 17  1  0
 11 26  1  0
 11 27  1  0
 16 28  1  0
 20 29  1  0
 22 30  1  6
 24 31  1  0
  5 11  1  0
M  ISO  5   8  14   9  14  10  11  21  15  25  15
M  END
>  <DihAtoms>  (1) 
3,4,10,11

>  <DihDeg>  (1) 
-90.01976915318161

$$$$
