
     RDKit          3D

 34 36  0  0  0  0  0  0  0  0999 V2000
   44.9152   35.1335   44.0487 C   0  0  0  0  0  0  0  0  0  0  0  0
   45.7361   35.3894   42.9283 C   0  0  0  0  0  0  0  0  0  0  0  0
   46.9483   34.6758   42.8160 C   0  0  0  0  0  0  0  0  0  0  0  0
   47.2458   33.7851   43.7994 N   0  0  0  0  0  0  0  0  0  0  0  0
   46.4294   33.5727   44.8540 C   0  0  0  0  0  0  0  0  0  0  0  0
   45.2849   34.2474   44.9589 N   0  0  0  0  0  0  0  0  0  0  0  0
   43.6969   35.8415   44.1746 N   0  0  0  0  0  0  0  0  0  0  0  0
   47.7426   34.9722   41.6629 C   0  0  0  0  0  0  0  0  0  0  0  0
   48.6678   35.8174   41.6482 O   0  0  0  0  0  0  0  0  0  0  0  0
   45.4150   36.1202   42.1927 H   0  0  0  0  0  0  0  0  0  0  0  0
   46.7182   32.8498   45.6085 H   0  0  0  0  0  0  0  0  0  0  0  0
   43.9360   36.8433   44.4333 H   0  0  0  0  0  0  0  0  0  0  0  0
   42.7113   35.4799   44.0444 H   0  0  0  0  0  0  0  0  0  0  0  0
   45.8476   29.8470   37.4828 C   0  0  0  0  0  0  0  0  0  0  0  0
   45.4492   29.0852   38.1824 H   0  0  0  0  0  0  0  0  0  0  0  0
   46.4310   30.9862   38.1867 C   0  0  0  0  0  0  0  0  0  0  0  0
   45.6293   31.6749   38.9810 C   0  0  0  0  0  0  0  0  0  0  0  0
   44.2219   31.3379   39.1648 C   0  0  0  0  0  0  0  0  0  0  0  0
   43.3785   31.9073   39.8778 O   0  0  0  0  0  0  0  0  0  0  0  0
   43.5033   30.3060   38.5862 O   0  0  0  0  0  0  0  0  0  0  0  0
   46.1592   32.7855   39.6933 N   0  0  0  0  0  0  0  0  0  0  0  0
   46.0115   34.1805   40.0629 C   0  0  0  0  0  0  0  0  0  0  0  0
   45.0269   34.9966   40.1030 O   0  0  0  0  0  0  0  0  0  0  0  0
   47.4887   34.2535   40.3733 C   0  0  2  0  0  0  0  0  0  0  0  0
   47.3992   32.7460   40.4848 C   0  0  2  0  0  0  0  0  0  0  0  0
   48.6124   31.8179   39.5255 S   0  0  0  0  0  0  0  0  0  0  0  0
   47.8510   31.3042   37.9677 C   0  0  1  0  0  0  0  0  0  0  0  0
   48.3748   30.4401   37.5130 H   0  0  0  0  0  0  0  0  0  0  0  0
   46.5795   29.3405   36.8123 H   0  0  0  0  0  0  0  0  0  0  0  0
   44.9936   30.1285   36.8010 H   0  0  0  0  0  0  0  0  0  0  0  0
   43.0264   29.5806   39.0992 H   0  0  0  0  0  0  0  0  0  0  0  0
   48.1183   34.5635   39.5382 H   0  0  0  0  0  0  0  0  0  0  0  0
   47.2326   32.3702   41.5052 H   0  0  0  0  0  0  0  0  0  0  0  0
   47.9817   32.1664   37.2574 H   0  0  0  0  0  0  0  0  0  0  0  0
  1  7  1  0
  1  6  2  0
  2  1  1  0
  3  2  2  0
  3  4  1  0
  4  5  2  0
  5  6  1  0
  8  3  1  0
  9  8  2  0
  2 10  1  0
  5 11  1  0
  7 12  1  0
  7 13  1  0
 14 15  1  0
 14 16  1  0
 16 17  2  0
 17 18  1  0
 18 19  2  0
 18 20  1  0
 17 21  1  0
 21 22  1  0
 22 23  2  0
 22 24  1  0
 24 25  1  0
 25 26  1  0
 26 27  1  0
 27 28  1  6
 27 16  1  0
 25 21  1  0
 14 29  1  0
 14 30  1  0
 20 31  1  0
 24 32  1  6
 25 33  1  1
 27 34  1  0
  8 24  1  0
M  ISO  4  10  14  11  14  15   8  28  15
M  END
>  <DihAtoms>  (1) 
2,7,23,21

>  <DihDeg>  (1) 
-179.99765998644892

$$$$
