
 OpenBabel03242523373D

 26 28  0  0  1  0  0  0  0  0999 V2000
   46.2680   31.6130   45.4530 C   0  0  0  0  0  0  0  0  0  0  0  0
   47.1010   31.1870   46.3570 C   0  0  0  0  0  0  0  0  0  0  0  0
   47.6440   29.8840   46.3250 N   0  0  0  0  0  0  0  0  0  0  0  0
   48.1270   28.7300   46.9830 C   0  0  0  0  0  0  0  0  0  0  0  0
   48.4130   28.3730   48.1760 O   0  0  0  0  0  0  0  0  0  0  0  0
   48.2290   27.9240   45.7620 C   0  0  0  0  0  3  0  0  0  0  0  0
   47.4400   27.1450   45.7240 H   0  0  0  0  0  0  0  0  0  0  0  0
   47.9230   29.2090   45.0730 C   0  0  1  0  0  3  0  0  0  0  0  0
   46.3170   29.1650   44.1890 S   0  0  0  0  0  0  0  0  0  0  0  0
   45.7630   30.8620   44.2990 C   0  0  0  0  0  3  0  0  0  0  0  0
   46.1080   31.3960   43.3700 H   0  0  0  0  0  0  0  0  0  0  0  0
   47.5420   32.0160   47.4720 C   0  0  0  0  0  0  0  0  0  0  0  0
   48.0810   31.6190   48.5350 O   0  0  0  0  0  0  0  0  0  0  0  0
   47.6740   33.2770   48.0170 O   0  0  0  0  0  0  0  0  0  0  0  0
   46.8760   33.7840   48.4230 H   0  0  0  0  0  0  0  0  0  0  0  0
   45.7000   32.9700   45.4800 C   0  0  0  0  0  2  0  0  0  0  0  0
   45.6020   35.0750   42.3750 C   0  0  0  0  0  0  0  0  0  0  0  0
   46.9910   35.1050   42.0520 C   0  0  0  0  0  0  0  0  0  0  0  0
   47.8730   34.4160   42.9000 C   0  0  0  0  0  0  0  0  0  0  0  0
   47.3590   33.7670   43.9660 N   0  0  0  0  0  0  0  0  0  0  0  0
   46.0310   33.7580   44.2440 C   0  0  0  0  0  0  0  0  0  0  0  0
   45.1690   34.4080   43.4520 N   0  0  0  0  0  0  0  0  0  0  0  0
   44.9230   35.5940   41.7400 H   0  0  0  0  0  0  0  0  0  0  0  0
   47.3260   35.6440   41.1860 H   0  0  0  0  0  0  0  0  0  0  0  0
   49.6170   34.4220   42.5420 S   0  0  0  0  0  0  0  0  0  0  0  0
   50.2180   33.1800   42.8190 H   0  0  0  0  0  0  0  0  0  0  0  0
  1 16  1  0  0  0  0
  1  2  2  0  0  0  0
  2 12  1  0  0  0  0
  3  2  1  0  0  0  0
  3  4  1  0  0  0  0
  4  5  2  0  0  0  0
  6  4  1  0  0  0  0
  7  6  1  0  0  0  0
  8  9  1  6  0  0  0
  8  6  1  0  0  0  0
  8  3  1  0  0  0  0
  9 10  1  0  0  0  0
 10  1  1  0  0  0  0
 11 10  1  0  0  0  0
 12 14  1  0  0  0  0
 12 13  2  0  0  0  0
 14 15  1  0  0  0  0
 17 22  1  0  0  0  0
 18 17  2  0  0  0  0
 18 19  1  0  0  0  0
 19 20  2  0  0  0  0
 20 21  1  0  0  0  0
 21 16  1  0  0  0  0
 22 21  2  0  0  0  0
 23 17  1  0  0  0  0
 24 18  1  0  0  0  0
 25 26  1  0  0  0  0
 25 19  1  0  0  0  0
M  END
>  <minimizedAffinity>
-4.32967949

>  <minimizedRMSD>
1.89107192

$$$$
