
 OpenBabel03242515013D

 44 48  0  0  1  0  0  0  0  0999 V2000
   44.9700   34.5370   42.2800 C   0  0  0  0  0  0  0  0  0  0  0  0
   46.2100   35.1070   42.5740 C   0  0  0  0  0  0  0  0  0  0  0  0
   47.1710   34.3120   43.2120 C   0  0  0  0  0  0  0  0  0  0  0  0
   46.8430   33.0210   43.5140 N   0  0  0  0  0  0  0  0  0  0  0  0
   45.6410   32.4950   43.2200 C   0  0  0  0  0  0  0  0  0  0  0  0
   44.7280   33.2590   42.6100 N   0  0  0  0  0  0  0  0  0  0  0  0
   46.4580   36.1240   42.3330 H   0  0  0  0  0  0  0  0  0  0  0  0
   48.1470   34.7270   43.4540 H   0  0  0  0  0  0  0  0  0  0  0  0
   45.3910   31.1140   43.5800 C   0  0  0  0  0  0  0  0  0  0  0  0
   45.3200   30.8310   44.8010 O   0  0  0  0  0  0  0  0  0  0  0  0
   41.6440   28.8200   44.2340 C   0  0  0  0  0  0  0  0  0  0  0  0
   42.8860   28.4540   44.3240 C   0  0  0  0  0  0  0  0  0  0  0  0
   43.9810   28.7690   43.4830 N   0  0  0  0  0  0  0  0  0  0  0  0
   45.3240   28.6990   43.1190 C   0  0  2  0  0  0  0  0  0  0  0  0
   46.2240   27.8140   43.2470 O   0  0  0  0  0  0  0  0  0  0  0  0
   45.2280   30.0630   42.5420 C   0  0  1  0  0  0  0  0  0  0  0  0
   43.8100   29.6000   42.3250 C   0  0  2  0  0  0  0  0  0  0  0  0
   42.5320   30.8120   42.6320 S   0  0  0  0  0  0  0  0  0  0  0  0
   41.1810   29.6830   43.1530 C   0  0  0  0  0  0  0  0  0  0  0  0
   40.8610   29.0430   42.3000 H   0  0  0  0  0  0  0  0  0  0  0  0
   40.7790   28.2980   45.2910 C   0  0  0  0  0  0  0  0  0  0  0  0
   40.9070   27.1980   45.4520 H   0  0  0  0  0  0  0  0  0  0  0  0
   43.2180   27.5940   45.4500 C   0  0  0  0  0  0  0  0  0  0  0  0
   43.7310   26.4390   45.3610 O   0  0  0  0  0  0  0  0  0  0  0  0
   43.4420   26.9700   46.6620 O   0  0  0  0  0  0  0  0  0  0  0  0
   43.2260   27.3720   47.5760 H   0  0  0  0  0  0  0  0  0  0  0  0
   43.7800   35.5970   41.4670 S   0  0  0  0  0  0  0  0  0  0  0  0
   42.1230   34.9200   41.4850 C   0  0  0  0  0  0  0  0  0  0  0  0
   42.0580   33.9000   41.0520 H   0  0  0  0  0  0  0  0  0  0  0  0
   41.8410   34.7690   42.5680 H   0  0  0  0  0  0  0  0  0  0  0  0
   41.0880   35.8400   40.9160 C   0  0  0  0  0  0  0  0  0  0  0  0
   40.3930   36.2430   41.6790 H   0  0  0  0  0  0  0  0  0  0  0  0
   41.6130   36.6880   40.4290 H   0  0  0  0  0  0  0  0  0  0  0  0
   42.0460   36.0380   38.0410 Cl  0  0  0  0  0  0  0  0  0  0  0  0
   40.6130   35.1810   38.5490 C   0  0  0  0  0  0  0  0  0  0  0  0
   40.2570   35.1500   39.9110 C   0  0  0  0  0  0  0  0  0  0  0  0
   39.1210   34.4570   40.2210 C   0  0  0  0  0  0  0  0  0  0  0  0
   38.2890   33.7850   39.3320 C   0  0  0  0  0  0  0  0  0  0  0  0
   38.6680   33.8340   37.9970 C   0  0  0  0  0  0  0  0  0  0  0  0
   37.6770   33.0120   36.7940 Cl  0  0  0  0  0  0  0  0  0  0  0  0
   39.8070   34.5190   37.6250 C   0  0  0  0  0  0  0  0  0  0  0  0
   38.8160   34.4130   41.2580 H   0  0  0  0  0  0  0  0  0  0  0  0
   37.4060   33.2620   39.6840 H   0  0  0  0  0  0  0  0  0  0  0  0
   40.0780   34.5400   36.5780 H   0  0  0  0  0  0  0  0  0  0  0  0
  1  2  2  0  0  0  0
  1  6  1  0  0  0  0
  2  3  1  0  0  0  0
  3  8  1  0  0  0  0
  3  4  2  0  0  0  0
  5  4  1  0  0  0  0
  5  9  1  0  0  0  0
  6  5  2  0  0  0  0
  7  2  1  0  0  0  0
  9 10  2  0  0  0  0
 11 12  2  0  0  0  0
 11 21  1  0  0  0  0
 12 23  1  0  0  0  0
 13 12  1  0  0  0  0
 14 15  1  6  0  0  0
 14 13  1  0  0  0  0
 16 14  1  0  0  0  0
 16  9  1  1  0  0  0
 17 16  1  0  0  0  0
 17 18  1  6  0  0  0
 17 14  1  0  0  0  0
 17 13  1  0  0  0  0
 18 19  1  0  0  0  0
 19 11  1  0  0  0  0
 20 19  1  0  0  0  0
 21 22  1  0  0  0  0
 23 25  1  0  0  0  0
 24 23  2  0  0  0  0
 25 26  1  0  0  0  0
 27 28  1  0  0  0  0
 27  1  1  0  0  0  0
 28 30  1  0  0  0  0
 29 28  1  0  0  0  0
 31 28  1  0  0  0  0
 31 32  1  0  0  0  0
 33 31  1  0  0  0  0
 34 35  1  0  0  0  0
 35 36  1  0  0  0  0
 36 37  2  0  0  0  0
 36 31  1  0  0  0  0
 37 42  1  0  0  0  0
 38 43  1  0  0  0  0
 38 37  1  0  0  0  0
 39 38  2  0  0  0  0
 40 39  1  0  0  0  0
 41 39  1  0  0  0  0
 41 35  2  0  0  0  0
 44 41  1  0  0  0  0
M  END
>  <minimizedAffinity>
-5.87025595

>  <minimizedRMSD>
4.14981556

$$$$
