
     RDKit          3D

 34 36  0  0  0  0  0  0  0  0999 V2000
   44.9152   35.1335   44.0487 C   0  0  0  0  0  0  0  0  0  0  0  0
   45.7361   35.3894   42.9283 C   0  0  0  0  0  0  0  0  0  0  0  0
   46.9483   34.6758   42.8160 C   0  0  0  0  0  0  0  0  0  0  0  0
   47.2458   33.7851   43.7994 N   0  0  0  0  0  0  0  0  0  0  0  0
   46.4294   33.5727   44.8540 C   0  0  0  0  0  0  0  0  0  0  0  0
   45.2849   34.2474   44.9589 N   0  0  0  0  0  0  0  0  0  0  0  0
   43.6969   35.8415   44.1746 N   0  0  0  0  0  0  0  0  0  0  0  0
   47.7426   34.9722   41.6629 C   0  0  0  0  0  0  0  0  0  0  0  0
   48.6678   35.8174   41.6482 O   0  0  0  0  0  0  0  0  0  0  0  0
   45.4150   36.1202   42.1927 H   0  0  0  0  0  0  0  0  0  0  0  0
   46.7182   32.8498   45.6085 H   0  0  0  0  0  0  0  0  0  0  0  0
   43.9360   36.8433   44.4333 H   0  0  0  0  0  0  0  0  0  0  0  0
   42.7113   35.4799   44.0444 H   0  0  0  0  0  0  0  0  0  0  0  0
   44.1262   32.2690   36.4720 C   0  0  0  0  0  0  0  0  0  0  0  0
   43.0867   32.5778   36.7011 H   0  0  0  0  0  0  0  0  0  0  0  0
   45.0554   32.6389   37.5365 C   0  0  0  0  0  0  0  0  0  0  0  0
   45.1629   33.9261   37.8182 C   0  0  0  0  0  0  0  0  0  0  0  0
   44.4029   34.9533   37.1143 C   0  0  0  0  0  0  0  0  0  0  0  0
   44.4211   36.1832   37.2895 O   0  0  0  0  0  0  0  0  0  0  0  0
   43.4869   34.7925   36.0891 O   0  0  0  0  0  0  0  0  0  0  0  0
   46.0487   34.3290   38.8549 N   0  0  0  0  0  0  0  0  0  0  0  0
   47.1201   35.2156   39.2677 C   0  0  0  0  0  0  0  0  0  0  0  0
   47.5579   36.3443   38.8536 O   0  0  0  0  0  0  0  0  0  0  0  0
   47.4887   34.2535   40.3733 C   0  0  2  0  0  0  0  0  0  0  0  0
   46.0797   33.7275   40.1976 C   0  0  2  0  0  0  0  0  0  0  0  0
   45.9326   31.9427   39.9836 S   0  0  0  0  0  0  0  0  0  0  0  0
   45.8146   31.5773   38.2164 C   0  0  1  0  0  0  0  0  0  0  0  0
   45.3523   30.5886   38.0253 H   0  0  0  0  0  0  0  0  0  0  0  0
   44.1177   31.1719   36.2763 H   0  0  0  0  0  0  0  0  0  0  0  0
   44.3802   32.7281   35.4729 H   0  0  0  0  0  0  0  0  0  0  0  0
   42.5241   35.0899   36.1278 H   0  0  0  0  0  0  0  0  0  0  0  0
   48.2382   33.5087   40.1025 H   0  0  0  0  0  0  0  0  0  0  0  0
   45.3353   34.1741   40.8734 H   0  0  0  0  0  0  0  0  0  0  0  0
   46.8725   31.5130   37.8399 H   0  0  0  0  0  0  0  0  0  0  0  0
  1  7  1  0
  1  6  2  0
  2  1  1  0
  3  2  2  0
  3  4  1  0
  4  5  2  0
  5  6  1  0
  8  3  1  0
  9  8  2  0
  2 10  1  0
  5 11  1  0
  7 12  1  0
  7 13  1  0
 14 15  1  0
 14 16  1  0
 16 17  2  0
 17 18  1  0
 18 19  2  0
 18 20  1  0
 17 21  1  0
 21 22  1  0
 22 23  2  0
 22 24  1  0
 24 25  1  0
 25 26  1  0
 26 27  1  0
 27 28  1  1
 27 16  1  0
 25 21  1  0
 14 29  1  0
 14 30  1  0
 20 31  1  0
 24 32  1  6
 25 33  1  1
 27 34  1  0
  8 24  1  0
M  ISO  4  10  14  11  14  15   8  28  15
M  END
>  <DihAtoms>  (1) 
2,7,23,21

>  <DihDeg>  (1) 
-179.99765998644892

$$$$
