
     RDKit          3D

 46 49  0  0  0  0  0  0  0  0999 V2000
   48.3854   32.0593   42.4328 C   0  0  0  0  0  0  0  0  0  0  0  0
   49.1738   32.7780   41.4915 C   0  0  0  0  0  0  0  0  0  0  0  0
   50.4694   32.3431   41.2133 C   0  0  0  0  0  0  0  0  0  0  0  0
   50.8905   31.2208   41.8930 N   0  0  0  0  0  0  0  0  0  0  0  0
   50.1350   30.5575   42.7747 C   0  0  0  0  0  0  0  0  0  0  0  0
   48.8835   30.9789   43.0423 N   0  0  0  0  0  0  0  0  0  0  0  0
   47.0312   32.5927   42.6782 C   0  0  0  0  0  0  0  0  0  0  0  0
   46.3569   33.0452   41.4443 C   0  0  0  0  0  0  0  0  0  0  0  0
   46.1954   34.5356   41.3601 C   0  0  0  0  0  0  0  0  0  0  0  0
   45.4503   35.0886   42.5621 C   0  0  0  0  0  0  0  0  0  0  0  0
   45.8898   34.4861   43.8634 C   0  0  0  0  0  0  0  0  0  0  0  0
   47.1616   33.6943   43.7233 C   0  0  0  0  0  0  0  0  0  0  0  0
   48.9202   33.6418   40.9325 H   0  0  0  0  0  0  0  0  0  0  0  0
   51.1357   32.8111   40.5272 H   0  0  0  0  0  0  0  0  0  0  0  0
   46.4842   31.7742   43.2340 H   0  0  0  0  0  0  0  0  0  0  0  0
   45.3035   32.6384   41.4894 H   0  0  0  0  0  0  0  0  0  0  0  0
   46.7640   32.6620   40.5084 H   0  0  0  0  0  0  0  0  0  0  0  0
   45.5982   34.7638   40.4551 H   0  0  0  0  0  0  0  0  0  0  0  0
   47.1141   35.1163   41.2758 H   0  0  0  0  0  0  0  0  0  0  0  0
   44.3430   35.0051   42.4337 H   0  0  0  0  0  0  0  0  0  0  0  0
   45.6400   36.1812   42.6061 H   0  0  0  0  0  0  0  0  0  0  0  0
   45.0660   33.7837   44.1854 H   0  0  0  0  0  0  0  0  0  0  0  0
   46.0207   35.2213   44.6560 H   0  0  0  0  0  0  0  0  0  0  0  0
   47.9614   34.3820   43.4290 H   0  0  0  0  0  0  0  0  0  0  0  0
   47.3864   33.2286   44.7068 H   0  0  0  0  0  0  0  0  0  0  0  0
   50.6613   29.3436   43.4759 C   0  0  0  0  0  0  0  0  0  0  0  0
   49.8623   28.1477   43.2303 C   0  0  0  0  0  0  0  0  0  0  0  0
   49.2436   27.4246   44.1477 C   0  0  0  0  0  0  0  0  0  0  0  0
   49.2724   27.7306   45.5814 C   0  0  0  0  0  0  0  0  0  0  0  0
   49.7951   28.6066   46.2810 O   0  0  0  0  0  0  0  0  0  0  0  0
   48.6130   26.9586   46.5003 O   0  0  0  0  0  0  0  0  0  0  0  0
   48.5215   26.2847   43.7065 N   0  0  0  0  0  0  0  0  0  0  0  0
   47.3521   25.4459   43.8275 C   0  0  0  0  0  0  0  0  0  0  0  0
   46.3767   25.3686   44.6524 O   0  0  0  0  0  0  0  0  0  0  0  0
   47.6739   24.6653   42.6179 C   0  0  1  0  0  0  0  0  0  0  0  0
   47.7299   23.5641   42.7520 H   0  0  0  0  0  0  0  0  0  0  0  0
   48.9790   25.3809   42.6390 C   0  0  1  0  0  0  0  0  0  0  0  0
   49.1257   26.4592   41.1894 S   0  0  0  0  0  0  0  0  0  0  0  0
   49.9101   27.9656   41.7605 C   0  0  1  0  0  0  0  0  0  0  0  0
   49.3839   28.8259   41.2905 H   0  0  0  0  0  0  0  0  0  0  0  0
   50.8003   29.5563   44.5458 H   0  0  0  0  0  0  0  0  0  0  0  0
   51.7165   29.2336   43.0818 H   0  0  0  0  0  0  0  0  0  0  0  0
   48.0463   27.3562   47.2276 H   0  0  0  0  0  0  0  0  0  0  0  0
   46.9726   24.8802   41.7947 H   0  0  0  0  0  0  0  0  0  0  0  0
   49.8904   24.8025   42.8788 H   0  0  0  0  0  0  0  0  0  0  0  0
   50.9696   27.8958   41.3662 H   0  0  0  0  0  0  0  0  0  0  0  0
  1  7  1  0
  1  6  1  0
  2  1  2  0
  3  2  1  0
  3  4  2  0
  4  5  1  0
  5  6  2  0
  7 12  1  0
  8  7  1  0
  9  8  1  0
  9 10  1  0
 10 11  1  0
 12 11  1  0
  2 13  1  0
  3 14  1  0
  7 15  1  0
  8 16  1  0
  8 17  1  0
  9 18  1  0
  9 19  1  0
 10 20  1  0
 10 21  1  0
 11 22  1  0
 11 23  1  0
 12 24  1  0
 12 25  1  0
 26 27  1  0
 27 28  2  0
 28 29  1  0
 29 30  2  0
 29 31  1  0
 28 32  1  0
 32 33  1  0
 33 34  2  0
 33 35  1  0
 35 36  1  1
 35 37  1  0
 37 38  1  0
 38 39  1  0
 39 40  1  6
 39 27  1  0
 37 32  1  0
 26 41  1  0
 26 42  1  0
 31 43  1  0
 35 44  1  0
 37 45  1  1
 39 46  1  0
  5 26  1  0
M  ISO  8  13  14  14  14  15  13  16  13  17  13  18  13  19  13  20  13
M  ISO  7  21  13  22  13  23  13  24  13  25  13  36  15  40  15
M  END
>  <DihAtoms>  (1) 
3,4,25,26

>  <DihDeg>  (1) 
-90.73363602328095

$$$$
