
     RDKit          3D

 50 53  0  0  0  0  0  0  0  0999 V2000
   44.5154   35.8281   44.8548 C   0  0  0  0  0  0  0  0  0  0  0  0
   45.1371   35.7641   43.5897 C   0  0  0  0  0  0  0  0  0  0  0  0
   46.0254   34.7062   43.3629 C   0  0  0  0  0  0  0  0  0  0  0  0
   46.2425   33.7970   44.3718 N   0  0  0  0  0  0  0  0  0  0  0  0
   45.6169   33.9146   45.5577 C   0  0  0  0  0  0  0  0  0  0  0  0
   44.7539   34.9165   45.8202 N   0  0  0  0  0  0  0  0  0  0  0  0
   46.6559   34.6358   42.0890 N   0  0  0  0  0  0  0  0  0  0  0  0
   47.8886   35.1469   41.9614 C   0  0  0  0  0  0  0  0  0  0  0  0
   48.5124   35.0845   40.7272 C   0  0  0  0  0  0  0  0  0  0  0  0
   47.8302   34.4976   39.6894 C   0  0  0  0  0  0  0  0  0  0  0  0
   48.4189   34.4462   38.5519 O   0  0  0  0  0  0  0  0  0  0  0  0
   46.5893   33.9780   39.7987 N   0  0  0  0  0  0  0  0  0  0  0  0
   46.0552   34.0806   41.0349 C   0  0  0  0  0  0  0  0  0  0  0  0
   44.8988   33.6276   41.2507 O   0  0  0  0  0  0  0  0  0  0  0  0
   46.0392   32.7975   46.4549 C   0  0  0  0  0  0  0  0  0  0  0  0
   45.2614   32.8406   47.7508 C   0  0  0  0  0  0  0  0  0  0  0  0
   45.1429   30.6209   48.8372 C   0  0  0  0  0  0  0  0  0  0  0  0
   46.1475   31.0300   49.4822 O   0  0  0  0  0  0  0  0  0  0  0  0
   44.6166   31.5483   47.9207 N   0  0  0  0  0  0  0  0  0  0  0  0
   43.8181   36.6260   45.0858 H   0  0  0  0  0  0  0  0  0  0  0  0
   44.9189   36.5107   42.8492 H   0  0  0  0  0  0  0  0  0  0  0  0
   48.4227   35.6099   42.7869 H   0  0  0  0  0  0  0  0  0  0  0  0
   49.5147   35.4822   40.5586 H   0  0  0  0  0  0  0  0  0  0  0  0
   46.0942   33.5369   38.9905 H   0  0  0  0  0  0  0  0  0  0  0  0
   47.1113   32.9276   46.7045 H   0  0  0  0  0  0  0  0  0  0  0  0
   45.9442   31.8162   45.9516 H   0  0  0  0  0  0  0  0  0  0  0  0
   45.8716   33.0847   48.6310 H   0  0  0  0  0  0  0  0  0  0  0  0
   44.4212   33.5885   47.6467 H   0  0  0  0  0  0  0  0  0  0  0  0
   43.7680   31.3552   47.3419 H   0  0  0  0  0  0  0  0  0  0  0  0
   43.9436   24.2752   50.8937 C   0  0  0  0  0  0  0  0  0  0  0  0
   43.3178   23.7584   50.1518 H   0  0  0  0  0  0  0  0  0  0  0  0
   44.0912   25.6846   50.5272 C   0  0  0  0  0  0  0  0  0  0  0  0
   44.7007   25.9332   49.3829 C   0  0  0  0  0  0  0  0  0  0  0  0
   45.2001   24.8633   48.5277 C   0  0  0  0  0  0  0  0  0  0  0  0
   45.7885   24.9896   47.4292 O   0  0  0  0  0  0  0  0  0  0  0  0
   45.1429   23.4946   48.7233 O   0  0  0  0  0  0  0  0  0  0  0  0
   44.8874   27.2782   48.9628 N   0  0  0  0  0  0  0  0  0  0  0  0
   44.8272   28.2858   47.9568 C   0  0  0  0  0  0  0  0  0  0  0  0
   44.9606   28.2402   46.6991 O   0  0  0  0  0  0  0  0  0  0  0  0
   44.5602   29.2900   49.0176 C   0  0  1  0  0  0  0  0  0  0  0  0
   45.3884   28.3403   49.8502 C   0  0  1  0  0  0  0  0  0  0  0  0
   44.7970   28.0517   51.5194 S   0  0  0  0  0  0  0  0  0  0  0  0
   43.5580   26.7324   51.4325 C   0  0  1  0  0  0  0  0  0  0  0  0
   42.6199   27.1860   51.0227 H   0  0  0  0  0  0  0  0  0  0  0  0
   43.4444   24.1819   51.9026 H   0  0  0  0  0  0  0  0  0  0  0  0
   44.9039   23.7346   51.0307 H   0  0  0  0  0  0  0  0  0  0  0  0
   45.9531   22.8926   48.8632 H   0  0  0  0  0  0  0  0  0  0  0  0
   43.5142   29.2472   49.3412 H   0  0  0  0  0  0  0  0  0  0  0  0
   46.4799   28.4108   49.7284 H   0  0  0  0  0  0  0  0  0  0  0  0
   43.3999   26.3071   52.4366 H   0  0  0  0  0  0  0  0  0  0  0  0
  1  6  2  0
  2  1  1  0
  3  2  2  0
  3  4  1  0
  4  5  2  0
  5  6  1  0
  5 15  1  0
  7  3  1  0
  8  7  1  0
  9  8  2  0
 10 12  1  0
 10  9  1  0
 11 10  2  0
 12 13  1  0
 13 14  2  0
 13  7  1  0
 15 16  1  0
 16 19  1  0
 17 18  2  0
 19 17  1  0
  1 20  1  0
  2 21  1  0
  8 22  1  0
  9 23  1  0
 12 24  1  0
 15 25  1  0
 15 26  1  0
 16 27  1  0
 16 28  1  0
 19 29  1  0
 30 31  1  0
 30 32  1  0
 32 33  2  0
 33 34  1  0
 34 35  2  0
 34 36  1  0
 33 37  1  0
 37 38  1  0
 38 39  2  0
 38 40  1  0
 40 41  1  0
 41 42  1  0
 42 43  1  0
 43 44  1  6
 43 32  1  0
 41 37  1  0
 30 45  1  0
 30 46  1  0
 36 47  1  0
 40 48  1  1
 41 49  1  1
 43 50  1  0
 17 40  1  0
M  ISO  8  20  14  21  14  22  14  23  14  24   9  25   8  26   8  27   8
M  ISO  3  28   8  31   8  44  15
M  END
>  <DihAtoms>  (1) 
17,16,39,37

>  <DihDeg>  (1) 
120.0917822157083

$$$$
