
 OpenBabel03252504023D

 43 47  0  0  1  0  0  0  0  0999 V2000
   47.9570   34.5110   42.6460 C   0  0  0  0  0  0  0  0  0  0  0  0
   47.1410   35.5610   42.3190 C   0  0  0  0  0  0  0  0  0  0  0  0
   45.9510   35.7150   43.0270 C   0  0  0  0  0  0  0  0  0  0  0  0
   45.6770   34.8080   44.0030 N   0  0  0  0  0  0  0  0  0  0  0  0
   46.5070   33.7920   44.2920 C   0  0  0  0  0  0  0  0  0  0  0  0
   47.6650   33.6340   43.6080 N   0  0  0  0  0  0  0  0  0  0  0  0
   47.3210   36.2940   41.5600 H   0  0  0  0  0  0  0  0  0  0  0  0
   46.2000   31.4750   45.0150 C   0  0  0  0  0  0  0  0  0  0  0  0
   46.1950   32.8220   45.3480 C   0  0  0  0  0  0  0  0  0  0  0  0
   45.9000   33.1980   46.6400 C   0  0  0  0  0  0  0  0  0  0  0  0
   45.6160   32.2400   47.5860 C   0  0  0  0  0  0  0  0  0  0  0  0
   45.3010   32.3010   48.8890 N   0  0  0  0  0  0  0  0  0  0  0  0
   45.1100   31.0520   49.3840 C   0  0  0  0  0  0  0  0  0  0  0  0
   45.3070   30.1470   48.3690 C   0  0  0  0  0  0  0  0  0  0  0  0
   45.6210   30.8840   47.2510 C   0  0  0  0  0  0  0  0  0  0  0  0
   45.9150   30.5040   45.9600 C   0  0  0  0  0  0  0  0  0  0  0  0
   46.4190   31.1070   44.0360 H   0  0  0  0  0  0  0  0  0  0  0  0
   45.8960   34.2550   46.9030 H   0  0  0  0  0  0  0  0  0  0  0  0
   45.2140   33.1920   49.4510 H   0  0  0  0  0  0  0  0  0  0  0  0
   44.8470   30.8770   50.4220 H   0  0  0  0  0  0  0  0  0  0  0  0
   45.2290   29.0710   48.4370 H   0  0  0  0  0  0  0  0  0  0  0  0
   45.9150   29.4670   45.7170 H   0  0  0  0  0  0  0  0  0  0  0  0
   49.1640   34.4220   41.8680 C   0  0  0  0  0  0  0  0  0  0  0  0
   50.1420   33.6340   42.0780 O   0  0  0  0  0  0  0  0  0  0  0  0
   49.0470   35.3930   40.8170 N   0  0  0  0  0  0  0  0  0  0  0  0
   48.7890   34.7530   40.0330 H   0  0  0  0  0  0  0  0  0  0  0  0
   49.2030   36.4210   40.9390 H   0  0  0  0  0  0  0  0  0  0  0  0
   44.9640   36.8050   42.7860 C   0  0  0  0  0  2  0  0  0  0  0  0
   44.9230   37.7780   43.8830 C   0  0  0  0  0  0  0  0  0  0  0  0
   45.0750   39.0800   43.7180 C   0  0  0  0  0  0  0  0  0  0  0  0
   45.0090   39.8960   44.8700 N   0  0  0  0  0  0  0  0  0  0  0  0
   44.6050   41.1490   45.4560 C   0  0  0  0  0  0  0  0  0  0  0  0
   44.1910   42.2750   45.0210 O   0  0  0  0  0  0  0  0  0  0  0  0
   44.8320   40.6980   46.8300 C   0  0  0  0  0  3  0  0  0  0  0  0
   45.4760   41.3480   47.4590 H   0  0  0  0  0  0  0  0  0  0  0  0
   45.5070   39.5350   46.1830 C   0  0  1  0  0  3  0  0  0  0  0  0
   44.5740   38.0150   46.6120 S   0  0  0  0  0  0  0  0  0  0  0  0
   44.6980   37.0300   45.1230 C   0  0  0  0  0  3  0  0  0  0  0  0
   43.8640   36.2750   45.0570 H   0  0  0  0  0  0  0  0  0  0  0  0
   45.3080   39.7460   42.4160 C   0  0  0  0  0  0  0  0  0  0  0  0
   45.2890   39.3880   41.2320 O   0  0  0  0  0  0  0  0  0  0  0  0
   45.6250   41.0580   42.3050 O   0  0  0  0  0  0  0  0  0  0  0  0
   46.3650   41.4180   41.7360 H   0  0  0  0  0  0  0  0  0  0  0  0
  1  6  1  0  0  0  0
  2  1  2  0  0  0  0
  2  3  1  0  0  0  0
  3  4  2  0  0  0  0
  4  5  1  0  0  0  0
  5  9  1  0  0  0  0
  6  5  2  0  0  0  0
  7  2  1  0  0  0  0
  8  9  2  0  0  0  0
  8 16  1  0  0  0  0
  9 10  1  0  0  0  0
 10 18  1  0  0  0  0
 10 11  2  0  0  0  0
 11 12  1  0  0  0  0
 12 13  1  0  0  0  0
 12 19  1  0  0  0  0
 13 20  1  0  0  0  0
 14 21  1  0  0  0  0
 14 13  2  0  0  0  0
 15 11  1  0  0  0  0
 15 14  1  0  0  0  0
 16 15  2  0  0  0  0
 17  8  1  0  0  0  0
 22 16  1  0  0  0  0
 23 24  2  0  0  0  0
 23  1  1  0  0  0  0
 25 27  1  0  0  0  0
 25 23  1  0  0  0  0
 26 25  1  0  0  0  0
 28  3  1  0  0  0  0
 28 29  1  0  0  0  0
 29 38  1  0  0  0  0
 30 29  2  0  0  0  0
 30 31  1  0  0  0  0
 31 32  1  0  0  0  0
 31 36  1  0  0  0  0
 32 34  1  0  0  0  0
 33 32  2  0  0  0  0
 34 35  1  0  0  0  0
 36 37  1  1  0  0  0
 36 34  1  0  0  0  0
 38 37  1  0  0  0  0
 39 38  1  0  0  0  0
 40 30  1  0  0  0  0
 41 40  2  0  0  0  0
 42 40  1  0  0  0  0
 43 42  1  0  0  0  0
M  END
>  <minimizedAffinity>
1.31447935

>  <minimizedRMSD>
1.18050623

$$$$
