
 OpenBabel03242513113D

 27 29  0  0  1  0  0  0  0  0999 V2000
   49.1750   32.8970   42.2570 C   0  0  0  0  0  0  0  0  0  0  0  0
   48.2060   32.1930   42.8060 C   0  0  0  0  0  0  0  0  0  0  0  0
   46.9970   32.8590   43.1390 N   0  0  0  0  0  0  0  0  0  0  0  0
   45.5830   32.8590   43.2600 C   0  0  0  0  0  0  0  0  0  0  0  0
   44.6630   31.9850   43.1010 O   0  0  0  0  0  0  0  0  0  0  0  0
   45.4930   34.2870   43.6560 C   0  0  1  0  0  3  0  0  0  0  0  0
   46.9790   34.2550   43.6140 C   0  0  2  0  0  3  0  0  0  0  0  0
   47.7060   35.1760   42.2020 S   0  0  0  0  0  0  0  0  0  0  0  0
   49.2680   34.3240   41.8940 C   0  0  0  0  0  3  0  0  0  0  0  0
   50.0040   34.7690   42.6270 H   0  0  0  0  0  0  0  0  0  0  0  0
   44.8320   35.1590   42.6570 C   0  0  0  0  0  0  0  0  0  0  0  0
   44.9290   36.4110   42.7190 O   0  0  0  0  0  0  0  0  0  0  0  0
   44.1700   33.4630   39.5160 C   0  0  0  0  0  0  0  0  0  0  0  0
   42.8060   33.1570   39.5600 C   0  0  0  0  0  0  0  0  0  0  0  0
   42.1020   33.5480   40.7010 C   0  0  0  0  0  0  0  0  0  0  0  0
   42.7560   34.1920   41.6970 N   0  0  0  0  0  0  0  0  0  0  0  0
   44.0720   34.4680   41.6170 C   0  0  0  0  0  0  0  0  0  0  0  0
   44.7730   34.0960   40.5150 N   0  0  0  0  0  0  0  0  0  0  0  0
   44.6490   33.1300   38.6030 H   0  0  0  0  0  0  0  0  0  0  0  0
   42.2170   32.6490   38.8080 H   0  0  0  0  0  0  0  0  0  0  0  0
   41.0370   33.3890   40.8960 H   0  0  0  0  0  0  0  0  0  0  0  0
   50.4140   32.1140   41.9400 C   0  0  0  0  0  2  0  0  0  0  0  0
   50.8370   31.6740   42.8600 H   0  0  0  0  0  0  0  0  0  0  0  0
   48.3170   30.7700   43.0860 C   0  0  0  0  0  0  0  0  0  0  0  0
   48.7450   30.1790   44.0820 O   0  0  0  0  0  0  0  0  0  0  0  0
   47.9120   29.8200   42.1720 O   0  0  0  0  0  0  0  0  0  0  0  0
   48.3520   28.9270   42.0320 H   0  0  0  0  0  0  0  0  0  0  0  0
  1  2  2  0  0  0  0
  2 24  1  0  0  0  0
  2  3  1  0  0  0  0
  3  4  1  0  0  0  0
  3  7  1  0  0  0  0
  4  6  1  0  0  0  0
  5  4  2  0  0  0  0
  6 11  1  6  0  0  0
  7  8  1  6  0  0  0
  7  6  1  0  0  0  0
  9  8  1  0  0  0  0
  9  1  1  0  0  0  0
  9 10  1  0  0  0  0
 11 12  2  0  0  0  0
 13 14  2  0  0  0  0
 13 18  1  0  0  0  0
 14 15  1  0  0  0  0
 15 21  1  0  0  0  0
 15 16  2  0  0  0  0
 17 16  1  0  0  0  0
 17 11  1  0  0  0  0
 18 17  2  0  0  0  0
 19 13  1  0  0  0  0
 20 14  1  0  0  0  0
 22  1  1  0  0  0  0
 22 23  1  0  0  0  0
 24 25  2  0  0  0  0
 26 24  1  0  0  0  0
 27 26  1  0  0  0  0
M  END
>  <minimizedAffinity>
-3.98844957

>  <minimizedRMSD>
3.54900336

$$$$
