
 OpenBabel03252503363D

 29 31  0  0  1  0  0  0  0  0999 V2000
   36.5320   29.6790   37.3240 C   0  0  0  0  0  0  0  0  0  0  0  0
   37.3210   30.4920   38.0060 C   0  0  0  0  0  0  0  0  0  0  0  0
   37.3730   30.4310   39.4230 N   0  0  0  0  0  0  0  0  0  0  0  0
   38.1230   30.5190   40.6130 C   0  0  0  0  0  0  0  0  0  0  0  0
   39.3170   30.8350   40.9290 O   0  0  0  0  0  0  0  0  0  0  0  0
   36.9970   30.0920   41.4850 C   0  0  1  0  0  3  0  0  0  0  0  0
   36.1980   30.1540   40.2340 C   0  0  2  0  0  3  0  0  0  0  0  0
   35.5430   28.5730   39.6460 S   0  0  0  0  0  0  0  0  0  0  0  0
   35.6330   28.6290   37.8570 C   0  0  0  0  0  3  0  0  0  0  0  0
   35.9080   27.6410   37.4070 H   0  0  0  0  0  0  0  0  0  0  0  0
   37.2560   28.7810   42.0780 C   0  0  0  0  0  0  0  0  0  0  0  0
   36.5750   28.0860   42.8730 O   0  0  0  0  0  0  0  0  0  0  0  0
   38.4970   28.1860   41.6860 N   0  0  0  0  0  0  0  0  0  0  0  0
   39.1870   28.6120   41.0220 H   0  0  0  0  0  0  0  0  0  0  0  0
   40.1880   25.5460   43.6780 C   0  0  0  0  0  0  0  0  0  0  0  0
   39.8210   26.8240   43.2290 C   0  0  0  0  0  0  0  0  0  0  0  0
   38.9090   26.9190   42.1850 C   0  0  0  0  0  0  0  0  0  0  0  0
   38.4080   25.7970   41.6400 N   0  0  0  0  0  0  0  0  0  0  0  0
   38.7790   24.5600   42.0910 C   0  0  0  0  0  0  0  0  0  0  0  0
   39.6620   24.4590   43.1020 N   0  0  0  0  0  0  0  0  0  0  0  0
   40.9020   25.5740   44.4940 H   0  0  0  0  0  0  0  0  0  0  0  0
   40.1960   27.7550   43.6370 H   0  0  0  0  0  0  0  0  0  0  0  0
   38.3620   23.6480   41.6370 H   0  0  0  0  0  0  0  0  0  0  0  0
   36.5720   29.8540   35.8510 C   0  0  0  0  0  2  0  0  0  0  0  0
   36.2460   30.9200   35.6700 H   0  0  0  0  0  0  0  0  0  0  0  0
   38.1640   31.4850   37.3400 C   0  0  0  0  0  0  0  0  0  0  0  0
   39.3580   31.7030   37.6640 O   0  0  0  0  0  0  0  0  0  0  0  0
   37.9490   32.3670   36.2970 O   0  0  0  0  0  0  0  0  0  0  0  0
   38.4590   32.2220   35.4400 H   0  0  0  0  0  0  0  0  0  0  0  0
  1  9  1  0  0  0  0
  1  2  2  0  0  0  0
  2  3  1  0  0  0  0
  3  7  1  0  0  0  0
  3  4  1  0  0  0  0
  4  5  2  0  0  0  0
  4  6  1  0  0  0  0
  6 11  1  6  0  0  0
  7  8  1  6  0  0  0
  7  6  1  0  0  0  0
  9  8  1  0  0  0  0
 10  9  1  0  0  0  0
 11 12  2  0  0  0  0
 13 11  1  0  0  0  0
 13 17  1  0  0  0  0
 14 13  1  0  0  0  0
 15 21  1  0  0  0  0
 16 22  1  0  0  0  0
 16 15  1  0  0  0  0
 17 16  2  0  0  0  0
 18 19  2  0  0  0  0
 18 17  1  0  0  0  0
 19 20  1  0  0  0  0
 20 15  2  0  0  0  0
 23 19  1  0  0  0  0
 24  1  1  0  0  0  0
 25 24  1  0  0  0  0
 26 27  2  0  0  0  0
 26  2  1  0  0  0  0
 28 26  1  0  0  0  0
 29 28  1  0  0  0  0
M  END
>  <minimizedAffinity>
-5.43087673

$$$$

 OpenBabel03252503363D

 29 31  0  0  1  0  0  0  0  0999 V2000
   39.0810   25.7520   42.8490 C   0  0  0  0  0  0  0  0  0  0  0  0
   38.2260   25.5670   41.8580 C   0  0  0  0  0  0  0  0  0  0  0  0
   37.3250   26.5950   41.4770 N   0  0  0  0  0  0  0  0  0  0  0  0
   36.6280   27.2820   40.4630 C   0  0  0  0  0  0  0  0  0  0  0  0
   36.4610   27.1470   39.2060 O   0  0  0  0  0  0  0  0  0  0  0  0
   36.0870   28.3180   41.3810 C   0  0  1  0  0  3  0  0  0  0  0  0
   36.7080   27.4880   42.4460 C   0  0  2  0  0  3  0  0  0  0  0  0
   38.0710   28.2660   43.3480 S   0  0  0  0  0  0  0  0  0  0  0  0
   39.2590   26.9660   43.6800 C   0  0  0  0  0  3  0  0  0  0  0  0
   40.3190   27.3180   43.6010 H   0  0  0  0  0  0  0  0  0  0  0  0
   36.6670   29.6290   41.0980 C   0  0  0  0  0  0  0  0  0  0  0  0
   36.2550   30.7880   41.3570 O   0  0  0  0  0  0  0  0  0  0  0  0
   37.9210   29.5890   40.4080 N   0  0  0  0  0  0  0  0  0  0  0  0
   38.4230   28.7140   40.1220 H   0  0  0  0  0  0  0  0  0  0  0  0
   39.3050   32.4100   38.4290 C   0  0  0  0  0  0  0  0  0  0  0  0
   38.6060   31.2310   38.7280 C   0  0  0  0  0  0  0  0  0  0  0  0
   38.6110   30.7770   40.0410 C   0  0  0  0  0  0  0  0  0  0  0  0
   39.2770   31.4730   40.9790 N   0  0  0  0  0  0  0  0  0  0  0  0
   39.9540   32.6200   40.6680 C   0  0  0  0  0  0  0  0  0  0  0  0
   39.9540   33.0670   39.3980 N   0  0  0  0  0  0  0  0  0  0  0  0
   39.2430   32.6840   37.3810 H   0  0  0  0  0  0  0  0  0  0  0  0
   38.0550   30.6380   38.0080 H   0  0  0  0  0  0  0  0  0  0  0  0
   40.4960   33.1820   41.4440 H   0  0  0  0  0  0  0  0  0  0  0  0
   39.9610   24.5950   43.1440 C   0  0  0  0  0  2  0  0  0  0  0  0
   39.2610   23.7510   43.4160 H   0  0  0  0  0  0  0  0  0  0  0  0
   38.1670   24.3060   41.1170 C   0  0  0  0  0  0  0  0  0  0  0  0
   38.5870   24.1780   39.9410 O   0  0  0  0  0  0  0  0  0  0  0  0
   37.6990   23.0430   41.4300 O   0  0  0  0  0  0  0  0  0  0  0  0
   38.3690   22.2920   41.4970 H   0  0  0  0  0  0  0  0  0  0  0  0
  1 24  1  0  0  0  0
  1  9  1  0  0  0  0
  2  1  2  0  0  0  0
  3  2  1  0  0  0  0
  3  7  1  0  0  0  0
  4  6  1  0  0  0  0
  4  3  1  0  0  0  0
  5  4  2  0  0  0  0
  6 11  1  6  0  0  0
  6  7  1  0  0  0  0
  7  8  1  6  0  0  0
  8  9  1  0  0  0  0
 10  9  1  0  0  0  0
 11 12  2  0  0  0  0
 13 11  1  0  0  0  0
 14 13  1  0  0  0  0
 15 16  2  0  0  0  0
 15 20  1  0  0  0  0
 16 17  1  0  0  0  0
 17 13  1  0  0  0  0
 17 18  2  0  0  0  0
 19 18  1  0  0  0  0
 19 23  1  0  0  0  0
 20 19  2  0  0  0  0
 21 15  1  0  0  0  0
 22 16  1  0  0  0  0
 24 25  1  0  0  0  0
 26 28  1  0  0  0  0
 26  2  1  0  0  0  0
 27 26  2  0  0  0  0
 28 29  1  0  0  0  0
M  END
>  <minimizedAffinity>
-5.39813566

$$$$

 OpenBabel03252503363D

 29 31  0  0  1  0  0  0  0  0999 V2000
   37.3000   31.8960   39.6800 C   0  0  0  0  0  0  0  0  0  0  0  0
   38.1660   31.7890   40.6730 C   0  0  0  0  0  0  0  0  0  0  0  0
   38.2660   30.5880   41.4220 N   0  0  0  0  0  0  0  0  0  0  0  0
   39.0620   29.6520   42.1110 C   0  0  0  0  0  0  0  0  0  0  0  0
   40.2860   29.5600   42.4570 O   0  0  0  0  0  0  0  0  0  0  0  0
   37.9420   28.7020   42.3430 C   0  0  1  0  0  3  0  0  0  0  0  0
   37.1040   29.7750   41.7460 C   0  0  2  0  0  3  0  0  0  0  0  0
   36.3210   29.3660   40.1660 S   0  0  0  0  0  0  0  0  0  0  0  0
   36.3500   30.8700   39.1910 C   0  0  0  0  0  3  0  0  0  0  0  0
   36.5400   30.6760   38.1040 H   0  0  0  0  0  0  0  0  0  0  0  0
   38.1300   27.4670   41.5840 C   0  0  0  0  0  0  0  0  0  0  0  0
   38.9780   27.1570   40.7100 O   0  0  0  0  0  0  0  0  0  0  0  0
   37.1870   26.4340   41.8860 N   0  0  0  0  0  0  0  0  0  0  0  0
   36.4180   26.5070   42.5950 H   0  0  0  0  0  0  0  0  0  0  0  0
   37.9910   22.9150   41.0100 C   0  0  0  0  0  0  0  0  0  0  0  0
   38.0010   24.1330   41.7080 C   0  0  0  0  0  0  0  0  0  0  0  0
   37.2200   25.1750   41.2240 C   0  0  0  0  0  0  0  0  0  0  0  0
   36.4850   24.9910   40.1140 N   0  0  0  0  0  0  0  0  0  0  0  0
   36.4890   23.7970   39.4470 C   0  0  0  0  0  0  0  0  0  0  0  0
   37.2430   22.7810   39.9090 N   0  0  0  0  0  0  0  0  0  0  0  0
   38.6300   22.1630   41.4630 H   0  0  0  0  0  0  0  0  0  0  0  0
   38.5760   24.3280   42.6050 H   0  0  0  0  0  0  0  0  0  0  0  0
   35.8830   23.6570   38.5390 H   0  0  0  0  0  0  0  0  0  0  0  0
   37.2990   33.2070   38.9850 C   0  0  0  0  0  2  0  0  0  0  0  0
   37.0400   33.9650   39.7810 H   0  0  0  0  0  0  0  0  0  0  0  0
   39.0520   32.8930   41.0440 C   0  0  0  0  0  0  0  0  0  0  0  0
   40.2900   32.8840   40.8340 O   0  0  0  0  0  0  0  0  0  0  0  0
   38.8400   34.1170   41.6530 O   0  0  0  0  0  0  0  0  0  0  0  0
   38.9960   34.9510   41.1090 H   0  0  0  0  0  0  0  0  0  0  0  0
  1  2  2  0  0  0  0
  2 26  1  0  0  0  0
  2  3  1  0  0  0  0
  3  7  1  0  0  0  0
  3  4  1  0  0  0  0
  4  6  1  0  0  0  0
  4  5  2  0  0  0  0
  6 11  1  6  0  0  0
  7  8  1  6  0  0  0
  7  6  1  0  0  0  0
  9  1  1  0  0  0  0
  9  8  1  0  0  0  0
 10  9  1  0  0  0  0
 11 13  1  0  0  0  0
 12 11  2  0  0  0  0
 13 14  1  0  0  0  0
 15 21  1  0  0  0  0
 15 16  1  0  0  0  0
 16 22  1  0  0  0  0
 17 16  2  0  0  0  0
 17 13  1  0  0  0  0
 18 17  1  0  0  0  0
 19 20  1  0  0  0  0
 19 18  2  0  0  0  0
 20 15  2  0  0  0  0
 23 19  1  0  0  0  0
 24  1  1  0  0  0  0
 24 25  1  0  0  0  0
 26 28  1  0  0  0  0
 27 26  2  0  0  0  0
 29 28  1  0  0  0  0
M  END
>  <minimizedAffinity>
-5.30999804

$$$$

 OpenBabel03252503363D

 29 31  0  0  1  0  0  0  0  0999 V2000
   37.2480   29.1810   41.7590 C   0  0  0  0  0  0  0  0  0  0  0  0
   36.6690   29.6510   40.6670 C   0  0  0  0  0  0  0  0  0  0  0  0
   37.1980   30.7830   39.9950 N   0  0  0  0  0  0  0  0  0  0  0  0
   37.4730   31.4590   38.7900 C   0  0  0  0  0  0  0  0  0  0  0  0
   37.2170   31.2790   37.5540 O   0  0  0  0  0  0  0  0  0  0  0  0
   38.2280   32.5580   39.4480 C   0  0  1  0  0  3  0  0  0  0  0  0
   37.7940   31.9030   40.7090 C   0  0  2  0  0  3  0  0  0  0  0  0
   39.1200   31.2020   41.7220 S   0  0  0  0  0  0  0  0  0  0  0  0
   38.4620   29.6940   42.4330 C   0  0  0  0  0  3  0  0  0  0  0  0
   39.2260   28.8770   42.4950 H   0  0  0  0  0  0  0  0  0  0  0  0
   39.6460   32.5090   39.0940 C   0  0  0  0  0  0  0  0  0  0  0  0
   40.3660   31.5590   38.6990 O   0  0  0  0  0  0  0  0  0  0  0  0
   40.3330   33.7590   39.2210 N   0  0  0  0  0  0  0  0  0  0  0  0
   39.8930   34.6610   39.5250 H   0  0  0  0  0  0  0  0  0  0  0  0
   43.5500   34.1600   37.4090 C   0  0  0  0  0  0  0  0  0  0  0  0
   42.1690   34.0450   37.6280 C   0  0  0  0  0  0  0  0  0  0  0  0
   41.7200   33.8810   38.9330 C   0  0  0  0  0  0  0  0  0  0  0  0
   42.6120   33.8370   39.9380 N   0  0  0  0  0  0  0  0  0  0  0  0
   43.9550   33.9490   39.7040 C   0  0  0  0  0  0  0  0  0  0  0  0
   44.3980   34.1090   38.4430 N   0  0  0  0  0  0  0  0  0  0  0  0
   43.8020   34.2860   36.3610 H   0  0  0  0  0  0  0  0  0  0  0  0
   41.4130   34.0760   36.8520 H   0  0  0  0  0  0  0  0  0  0  0  0
   44.6760   33.9120   40.5350 H   0  0  0  0  0  0  0  0  0  0  0  0
   36.5880   27.9960   42.3600 C   0  0  0  0  0  2  0  0  0  0  0  0
   35.5420   28.3380   42.6170 H   0  0  0  0  0  0  0  0  0  0  0  0
   35.4650   29.0340   40.1070 C   0  0  0  0  0  0  0  0  0  0  0  0
   35.4970   28.1000   39.2680 O   0  0  0  0  0  0  0  0  0  0  0  0
   34.1120   29.2490   40.2960 O   0  0  0  0  0  0  0  0  0  0  0  0
   33.5710   28.5190   40.7320 H   0  0  0  0  0  0  0  0  0  0  0  0
  1 24  1  0  0  0  0
  1  9  1  0  0  0  0
  2  1  2  0  0  0  0
  3  2  1  0  0  0  0
  3  7  1  0  0  0  0
  4  6  1  0  0  0  0
  4  3  1  0  0  0  0
  5  4  2  0  0  0  0
  6 11  1  6  0  0  0
  6  7  1  0  0  0  0
  7  8  1  1  0  0  0
  8  9  1  0  0  0  0
  9 10  1  0  0  0  0
 11 13  1  0  0  0  0
 12 11  2  0  0  0  0
 13 14  1  0  0  0  0
 15 16  2  0  0  0  0
 15 20  1  0  0  0  0
 16 17  1  0  0  0  0
 17 13  1  0  0  0  0
 17 18  2  0  0  0  0
 19 18  1  0  0  0  0
 19 23  1  0  0  0  0
 20 19  2  0  0  0  0
 21 15  1  0  0  0  0
 22 16  1  0  0  0  0
 24 25  1  0  0  0  0
 26 28  1  0  0  0  0
 26  2  1  0  0  0  0
 27 26  2  0  0  0  0
 28 29  1  0  0  0  0
M  END
>  <minimizedAffinity>
-5.28783655

$$$$

 OpenBabel03252503363D

 29 31  0  0  1  0  0  0  0  0999 V2000
   37.3860   30.9910   38.3150 C   0  0  0  0  0  0  0  0  0  0  0  0
   38.2730   31.1960   39.2740 C   0  0  0  0  0  0  0  0  0  0  0  0
   38.1070   30.6060   40.5530 N   0  0  0  0  0  0  0  0  0  0  0  0
   38.6750   30.0040   41.6940 C   0  0  0  0  0  0  0  0  0  0  0  0
   39.8530   29.7790   42.1270 O   0  0  0  0  0  0  0  0  0  0  0  0
   37.3630   29.6750   42.3110 C   0  0  1  0  0  3  0  0  0  0  0  0
   36.8000   30.4470   41.1720 C   0  0  2  0  0  3  0  0  0  0  0  0
   35.8030   29.4930   40.0000 S   0  0  0  0  0  0  0  0  0  0  0  0
   36.1550   30.1700   38.3780 C   0  0  0  0  0  3  0  0  0  0  0  0
   36.1910   29.3850   37.5810 H   0  0  0  0  0  0  0  0  0  0  0  0
   37.1430   28.2300   42.3450 C   0  0  0  0  0  0  0  0  0  0  0  0
   36.3530   27.5320   43.0270 O   0  0  0  0  0  0  0  0  0  0  0  0
   37.9700   27.4820   41.4470 N   0  0  0  0  0  0  0  0  0  0  0  0
   38.6770   27.8940   40.7930 H   0  0  0  0  0  0  0  0  0  0  0  0
   36.9220   24.0390   40.5300 C   0  0  0  0  0  0  0  0  0  0  0  0
   36.9460   25.4410   40.5660 C   0  0  0  0  0  0  0  0  0  0  0  0
   37.8940   26.0630   41.3690 C   0  0  0  0  0  0  0  0  0  0  0  0
   38.7520   25.3130   42.0810 N   0  0  0  0  0  0  0  0  0  0  0  0
   38.7120   23.9470   42.0340 C   0  0  0  0  0  0  0  0  0  0  0  0
   37.7970   23.3360   41.2580 N   0  0  0  0  0  0  0  0  0  0  0  0
   36.1490   23.6460   39.8770 H   0  0  0  0  0  0  0  0  0  0  0  0
   36.2760   26.0870   40.0100 H   0  0  0  0  0  0  0  0  0  0  0  0
   39.4210   23.3430   42.6210 H   0  0  0  0  0  0  0  0  0  0  0  0
   37.6820   31.6710   37.0300 C   0  0  0  0  0  2  0  0  0  0  0  0
   37.7080   32.7740   37.2760 H   0  0  0  0  0  0  0  0  0  0  0  0
   39.4540   32.0350   39.0640 C   0  0  0  0  0  0  0  0  0  0  0  0
   40.6090   31.5700   38.8980 O   0  0  0  0  0  0  0  0  0  0  0  0
   39.6470   33.4030   38.9910 O   0  0  0  0  0  0  0  0  0  0  0  0
   39.9370   33.7950   38.1090 H   0  0  0  0  0  0  0  0  0  0  0  0
  1  9  1  0  0  0  0
  1  2  2  0  0  0  0
  2  3  1  0  0  0  0
  3  7  1  0  0  0  0
  3  4  1  0  0  0  0
  4  5  2  0  0  0  0
  4  6  1  0  0  0  0
  6 11  1  6  0  0  0
  7  8  1  6  0  0  0
  7  6  1  0  0  0  0
  9  8  1  0  0  0  0
 10  9  1  0  0  0  0
 11 12  2  0  0  0  0
 13 11  1  0  0  0  0
 14 13  1  0  0  0  0
 15 16  2  0  0  0  0
 15 20  1  0  0  0  0
 16 17  1  0  0  0  0
 17 13  1  0  0  0  0
 17 18  2  0  0  0  0
 19 18  1  0  0  0  0
 19 23  1  0  0  0  0
 20 19  2  0  0  0  0
 21 15  1  0  0  0  0
 22 16  1  0  0  0  0
 24 25  1  0  0  0  0
 24  1  1  0  0  0  0
 26  2  1  0  0  0  0
 27 26  2  0  0  0  0
 28 26  1  0  0  0  0
 29 28  1  0  0  0  0
M  END
>  <minimizedAffinity>
-5.20811939

$$$$

 OpenBabel03252503363D

 29 31  0  0  1  0  0  0  0  0999 V2000
   36.3400   28.0290   40.0140 C   0  0  0  0  0  0  0  0  0  0  0  0
   36.7170   28.9160   40.9190 C   0  0  0  0  0  0  0  0  0  0  0  0
   37.4440   28.5140   42.0690 N   0  0  0  0  0  0  0  0  0  0  0  0
   38.4490   28.7780   43.0210 C   0  0  0  0  0  0  0  0  0  0  0  0
   39.2170   29.7560   43.3050 O   0  0  0  0  0  0  0  0  0  0  0  0
   38.3420   27.4430   43.6680 C   0  0  1  0  0  3  0  0  0  0  0  0
   37.1890   27.2540   42.7500 C   0  0  2  0  0  3  0  0  0  0  0  0
   37.3890   25.9600   41.5010 S   0  0  0  0  0  0  0  0  0  0  0  0
   36.5880   26.5690   40.0170 C   0  0  0  0  0  3  0  0  0  0  0  0
   37.1340   26.2830   39.0830 H   0  0  0  0  0  0  0  0  0  0  0  0
   39.5470   26.6480   43.4390 C   0  0  0  0  0  0  0  0  0  0  0  0
   39.7970   25.4400   43.6800 O   0  0  0  0  0  0  0  0  0  0  0  0
   40.6290   27.3670   42.8370 N   0  0  0  0  0  0  0  0  0  0  0  0
   40.6000   28.3760   42.5560 H   0  0  0  0  0  0  0  0  0  0  0  0
   44.0930   26.0740   43.1930 C   0  0  0  0  0  0  0  0  0  0  0  0
   42.8820   26.7020   43.5230 C   0  0  0  0  0  0  0  0  0  0  0  0
   41.8790   26.7450   42.5630 C   0  0  0  0  0  0  0  0  0  0  0  0
   42.0920   26.1890   41.3580 N   0  0  0  0  0  0  0  0  0  0  0  0
   43.2800   25.5820   41.0540 C   0  0  0  0  0  0  0  0  0  0  0  0
   44.2580   25.5360   41.9780 N   0  0  0  0  0  0  0  0  0  0  0  0
   44.8130   26.0900   44.0040 H   0  0  0  0  0  0  0  0  0  0  0  0
   42.6640   27.1620   44.4790 H   0  0  0  0  0  0  0  0  0  0  0  0
   43.4430   25.1300   40.0640 H   0  0  0  0  0  0  0  0  0  0  0  0
   35.5830   28.5860   38.8650 C   0  0  0  0  0  2  0  0  0  0  0  0
   34.6640   29.0620   39.3180 H   0  0  0  0  0  0  0  0  0  0  0  0
   36.4030   30.3390   40.7800 C   0  0  0  0  0  0  0  0  0  0  0  0
   37.0370   31.1140   40.0220 O   0  0  0  0  0  0  0  0  0  0  0  0
   35.4490   31.1610   41.3530 O   0  0  0  0  0  0  0  0  0  0  0  0
   34.7350   31.5470   40.7560 H   0  0  0  0  0  0  0  0  0  0  0  0
  1  9  1  0  0  0  0
  1  2  2  0  0  0  0
  2  3  1  0  0  0  0
  3  7  1  0  0  0  0
  3  4  1  0  0  0  0
  4  5  2  0  0  0  0
  4  6  1  0  0  0  0
  6 11  1  6  0  0  0
  7  8  1  6  0  0  0
  7  6  1  0  0  0  0
  9  8  1  0  0  0  0
 10  9  1  0  0  0  0
 11 12  2  0  0  0  0
 13 11  1  0  0  0  0
 14 13  1  0  0  0  0
 15 16  1  0  0  0  0
 15 21  1  0  0  0  0
 16 22  1  0  0  0  0
 17 13  1  0  0  0  0
 17 16  2  0  0  0  0
 18 17  1  0  0  0  0
 19 18  2  0  0  0  0
 19 20  1  0  0  0  0
 20 15  2  0  0  0  0
 23 19  1  0  0  0  0
 24 25  1  0  0  0  0
 24  1  1  0  0  0  0
 26  2  1  0  0  0  0
 26 28  1  0  0  0  0
 27 26  2  0  0  0  0
 29 28  1  0  0  0  0
M  END
>  <minimizedAffinity>
-5.19467163

$$$$

 OpenBabel03252503363D

 29 31  0  0  1  0  0  0  0  0999 V2000
   42.4090   30.7450   36.9270 C   0  0  0  0  0  0  0  0  0  0  0  0
   41.9160   31.8030   37.5490 C   0  0  0  0  0  0  0  0  0  0  0  0
   40.7080   31.7110   38.2890 N   0  0  0  0  0  0  0  0  0  0  0  0
   39.9400   32.0900   39.4080 C   0  0  0  0  0  0  0  0  0  0  0  0
   40.0610   32.9160   40.3720 O   0  0  0  0  0  0  0  0  0  0  0  0
   38.8320   31.1450   39.1070 C   0  0  1  0  0  3  0  0  0  0  0  0
   39.5940   30.8790   37.8600 C   0  0  2  0  0  3  0  0  0  0  0  0
   40.2570   29.2030   37.6920 S   0  0  0  0  0  0  0  0  0  0  0  0
   41.8510   29.3740   36.8900 C   0  0  0  0  0  3  0  0  0  0  0  0
   42.6120   28.6530   37.2830 H   0  0  0  0  0  0  0  0  0  0  0  0
   38.7540   30.0850   40.1110 C   0  0  0  0  0  0  0  0  0  0  0  0
   39.5730   29.7210   40.9920 O   0  0  0  0  0  0  0  0  0  0  0  0
   37.5370   29.3320   40.0880 N   0  0  0  0  0  0  0  0  0  0  0  0
   36.7370   29.5000   39.4320 H   0  0  0  0  0  0  0  0  0  0  0  0
   37.3020   25.9200   41.5350 C   0  0  0  0  0  0  0  0  0  0  0  0
   37.5460   26.9400   40.6030 C   0  0  0  0  0  0  0  0  0  0  0  0
   37.3080   28.2540   40.9870 C   0  0  0  0  0  0  0  0  0  0  0  0
   36.8560   28.5090   42.2270 N   0  0  0  0  0  0  0  0  0  0  0  0
   36.6220   27.5010   43.1210 C   0  0  0  0  0  0  0  0  0  0  0  0
   36.8500   26.2250   42.7570 N   0  0  0  0  0  0  0  0  0  0  0  0
   37.5160   24.9300   41.1440 H   0  0  0  0  0  0  0  0  0  0  0  0
   37.9110   26.7830   39.5950 H   0  0  0  0  0  0  0  0  0  0  0  0
   36.2520   27.7220   44.1330 H   0  0  0  0  0  0  0  0  0  0  0  0
   43.6740   30.9830   36.1900 C   0  0  0  0  0  2  0  0  0  0  0  0
   43.4270   31.7770   35.4250 H   0  0  0  0  0  0  0  0  0  0  0  0
   42.5830   33.1050   37.5020 C   0  0  0  0  0  0  0  0  0  0  0  0
   43.3930   33.4950   38.3790 O   0  0  0  0  0  0  0  0  0  0  0  0
   42.5420   34.1610   36.6110 O   0  0  0  0  0  0  0  0  0  0  0  0
   43.3770   34.3730   36.0870 H   0  0  0  0  0  0  0  0  0  0  0  0
  1  2  2  0  0  0  0
  2  3  1  0  0  0  0
  3  4  1  0  0  0  0
  4  5  2  0  0  0  0
  6  4  1  0  0  0  0
  6 11  1  1  0  0  0
  7  8  1  1  0  0  0
  7  3  1  0  0  0  0
  7  6  1  0  0  0  0
  9  1  1  0  0  0  0
  9 10  1  0  0  0  0
  9  8  1  0  0  0  0
 11 12  2  0  0  0  0
 13 11  1  0  0  0  0
 13 17  1  0  0  0  0
 14 13  1  0  0  0  0
 15 20  1  0  0  0  0
 16 17  1  0  0  0  0
 16 15  2  0  0  0  0
 17 18  2  0  0  0  0
 18 19  1  0  0  0  0
 19 23  1  0  0  0  0
 20 19  2  0  0  0  0
 21 15  1  0  0  0  0
 22 16  1  0  0  0  0
 24  1  1  0  0  0  0
 25 24  1  0  0  0  0
 26  2  1  0  0  0  0
 26 27  2  0  0  0  0
 28 26  1  0  0  0  0
 29 28  1  0  0  0  0
M  END
>  <minimizedAffinity>
-5.11108255

$$$$

 OpenBabel03252503363D

 29 31  0  0  1  0  0  0  0  0999 V2000
   39.5600   31.8950   38.5890 C   0  0  0  0  0  0  0  0  0  0  0  0
   39.6740   31.8750   39.9060 C   0  0  0  0  0  0  0  0  0  0  0  0
   38.6710   31.2740   40.7110 N   0  0  0  0  0  0  0  0  0  0  0  0
   38.3200   30.5210   41.8490 C   0  0  0  0  0  0  0  0  0  0  0  0
   38.9290   30.0440   42.8620 O   0  0  0  0  0  0  0  0  0  0  0  0
   36.8810   30.4360   41.4860 C   0  0  1  0  0  3  0  0  0  0  0  0
   37.2570   31.3540   40.3800 C   0  0  2  0  0  3  0  0  0  0  0  0
   37.0930   30.6740   38.7100 S   0  0  0  0  0  0  0  0  0  0  0  0
   38.4640   31.3370   37.7650 C   0  0  0  0  0  3  0  0  0  0  0  0
   38.8860   30.5960   37.0380 H   0  0  0  0  0  0  0  0  0  0  0  0
   36.5010   29.0650   41.1490 C   0  0  0  0  0  0  0  0  0  0  0  0
   35.4190   28.5890   40.7220 O   0  0  0  0  0  0  0  0  0  0  0  0
   37.5390   28.0970   41.3380 N   0  0  0  0  0  0  0  0  0  0  0  0
   38.5080   28.3100   41.6740 H   0  0  0  0  0  0  0  0  0  0  0  0
   36.8810   24.4690   41.7810 C   0  0  0  0  0  0  0  0  0  0  0  0
   37.0810   25.8190   42.1060 C   0  0  0  0  0  0  0  0  0  0  0  0
   37.3290   26.7150   41.0730 C   0  0  0  0  0  0  0  0  0  0  0  0
   37.3700   26.2690   39.8060 N   0  0  0  0  0  0  0  0  0  0  0  0
   37.1740   24.9480   39.5090 C   0  0  0  0  0  0  0  0  0  0  0  0
   36.9330   24.0730   40.5040 N   0  0  0  0  0  0  0  0  0  0  0  0
   36.6950   23.8480   42.6510 H   0  0  0  0  0  0  0  0  0  0  0  0
   37.0560   26.2250   43.1100 H   0  0  0  0  0  0  0  0  0  0  0  0
   37.2100   24.5950   38.4680 H   0  0  0  0  0  0  0  0  0  0  0  0
   40.6780   32.5580   37.8720 C   0  0  0  0  0  2  0  0  0  0  0  0
   40.6890   33.6200   38.2570 H   0  0  0  0  0  0  0  0  0  0  0  0
   40.8250   32.4670   40.5890 C   0  0  0  0  0  0  0  0  0  0  0  0
   41.8470   31.8120   40.9110 O   0  0  0  0  0  0  0  0  0  0  0  0
   41.1120   33.7450   41.0320 O   0  0  0  0  0  0  0  0  0  0  0  0
   41.8650   34.2450   40.5850 H   0  0  0  0  0  0  0  0  0  0  0  0
  1  2  2  0  0  0  0
  2 26  1  0  0  0  0
  2  3  1  0  0  0  0
  3  4  1  0  0  0  0
  4  5  2  0  0  0  0
  6 11  1  6  0  0  0
  6  4  1  0  0  0  0
  7  8  1  6  0  0  0
  7  3  1  0  0  0  0
  7  6  1  0  0  0  0
  9  1  1  0  0  0  0
  9  8  1  0  0  0  0
 10  9  1  0  0  0  0
 11 13  1  0  0  0  0
 12 11  2  0  0  0  0
 13 14  1  0  0  0  0
 15 16  1  0  0  0  0
 15 21  1  0  0  0  0
 16 22  1  0  0  0  0
 17 13  1  0  0  0  0
 17 16  2  0  0  0  0
 18 17  1  0  0  0  0
 19 18  2  0  0  0  0
 19 20  1  0  0  0  0
 20 15  2  0  0  0  0
 23 19  1  0  0  0  0
 24 25  1  0  0  0  0
 24  1  1  0  0  0  0
 26 27  2  0  0  0  0
 26 28  1  0  0  0  0
 29 28  1  0  0  0  0
M  END
>  <minimizedAffinity>
-5.04102039

$$$$

 OpenBabel03252503363D

 29 31  0  0  1  0  0  0  0  0999 V2000
   38.7170   29.8520   42.2330 C   0  0  0  0  0  0  0  0  0  0  0  0
   38.0500   30.2760   41.1740 C   0  0  0  0  0  0  0  0  0  0  0  0
   38.7250   30.9040   40.0960 N   0  0  0  0  0  0  0  0  0  0  0  0
   38.8560   31.1240   38.7100 C   0  0  0  0  0  0  0  0  0  0  0  0
   38.2030   30.8090   37.6610 O   0  0  0  0  0  0  0  0  0  0  0  0
   40.1090   31.9130   38.8400 C   0  0  1  0  0  3  0  0  0  0  0  0
   39.8600   31.7910   40.3000 C   0  0  2  0  0  3  0  0  0  0  0  0
   41.0860   30.8320   41.2240 S   0  0  0  0  0  0  0  0  0  0  0  0
   40.1750   29.9340   42.4800 C   0  0  0  0  0  3  0  0  0  0  0  0
   40.5810   28.9060   42.6560 H   0  0  0  0  0  0  0  0  0  0  0  0
   41.2470   31.1960   38.2690 C   0  0  0  0  0  0  0  0  0  0  0  0
   41.5180   29.9690   38.2390 O   0  0  0  0  0  0  0  0  0  0  0  0
   42.2210   32.0320   37.6360 N   0  0  0  0  0  0  0  0  0  0  0  0
   42.1580   33.0750   37.5540 H   0  0  0  0  0  0  0  0  0  0  0  0
   45.7780   31.2230   36.9360 C   0  0  0  0  0  0  0  0  0  0  0  0
   44.6550   31.7850   37.5620 C   0  0  0  0  0  0  0  0  0  0  0  0
   43.3980   31.4940   37.0460 C   0  0  0  0  0  0  0  0  0  0  0  0
   43.2940   30.6920   35.9720 N   0  0  0  0  0  0  0  0  0  0  0  0
   44.4010   30.1550   35.3740 C   0  0  0  0  0  0  0  0  0  0  0  0
   45.6220   30.4310   35.8680 N   0  0  0  0  0  0  0  0  0  0  0  0
   46.7120   31.5070   37.4100 H   0  0  0  0  0  0  0  0  0  0  0  0
   44.6890   32.4350   38.4280 H   0  0  0  0  0  0  0  0  0  0  0  0
   44.3030   29.4990   34.4960 H   0  0  0  0  0  0  0  0  0  0  0  0
   37.8860   29.2170   43.2860 C   0  0  0  0  0  2  0  0  0  0  0  0
   37.1540   30.0150   43.6080 H   0  0  0  0  0  0  0  0  0  0  0  0
   36.5980   30.1210   41.0650 C   0  0  0  0  0  0  0  0  0  0  0  0
   36.0490   29.0970   40.5880 O   0  0  0  0  0  0  0  0  0  0  0  0
   35.5290   30.9310   41.4010 O   0  0  0  0  0  0  0  0  0  0  0  0
   34.9160   30.6240   42.1410 H   0  0  0  0  0  0  0  0  0  0  0  0
  1  9  1  0  0  0  0
  1 24  1  0  0  0  0
  2  1  2  0  0  0  0
  3  7  1  0  0  0  0
  3  2  1  0  0  0  0
  4  6  1  0  0  0  0
  4  3  1  0  0  0  0
  5  4  2  0  0  0  0
  6 11  1  1  0  0  0
  6  7  1  0  0  0  0
  7  8  1  1  0  0  0
  8  9  1  0  0  0  0
  9 10  1  0  0  0  0
 12 11  2  0  0  0  0
 13 11  1  0  0  0  0
 14 13  1  0  0  0  0
 15 21  1  0  0  0  0
 15 16  1  0  0  0  0
 16 22  1  0  0  0  0
 17 16  2  0  0  0  0
 17 13  1  0  0  0  0
 18 17  1  0  0  0  0
 19 20  1  0  0  0  0
 19 18  2  0  0  0  0
 20 15  2  0  0  0  0
 23 19  1  0  0  0  0
 24 25  1  0  0  0  0
 26  2  1  0  0  0  0
 26 28  1  0  0  0  0
 27 26  2  0  0  0  0
 28 29  1  0  0  0  0
M  END
>  <minimizedAffinity>
-5.00360966

$$$$
