
 OpenBabel03242510093D

 35 38  0  0  1  0  0  0  0  0999 V2000
   44.6490   32.8230   41.4590 Br  0  0  0  0  0  0  0  0  0  0  0  0
   46.2600   33.7890   41.1220 C   0  0  0  0  0  0  0  0  0  0  0  0
   46.7790   34.6410   42.0830 C   0  0  0  0  0  0  0  0  0  0  0  0
   47.9460   35.3650   41.8580 C   0  0  0  0  0  0  0  0  0  0  0  0
   48.5640   35.2030   40.6480 C   0  0  0  0  0  0  0  0  0  0  0  0
   48.0190   34.3490   39.7170 C   0  0  0  0  0  0  0  0  0  0  0  0
   46.8870   33.6350   39.9160 C   0  0  0  0  0  0  0  0  0  0  0  0
   48.3360   36.0290   42.6290 H   0  0  0  0  0  0  0  0  0  0  0  0
   49.4840   35.7680   40.4560 H   0  0  0  0  0  0  0  0  0  0  0  0
   48.5760   34.2980   38.7970 H   0  0  0  0  0  0  0  0  0  0  0  0
   45.6480   33.9750   45.4940 C   0  0  0  0  0  0  0  0  0  0  0  0
   44.7180   34.9950   45.7560 C   0  0  0  0  0  0  0  0  0  0  0  0
   44.4940   35.9110   44.7320 C   0  0  0  0  0  0  0  0  0  0  0  0
   45.1730   35.7640   43.5690 N   0  0  0  0  0  0  0  0  0  0  0  0
   46.0650   34.7620   43.3560 C   0  0  0  0  0  0  0  0  0  0  0  0
   46.2970   33.8650   44.3330 N   0  0  0  0  0  0  0  0  0  0  0  0
   45.7640   33.3050   46.3400 H   0  0  0  0  0  0  0  0  0  0  0  0
   44.1630   35.1520   46.6480 H   0  0  0  0  0  0  0  0  0  0  0  0
   43.8150   36.7670   44.7430 H   0  0  0  0  0  0  0  0  0  0  0  0
   46.3100   32.7240   38.8900 C   0  0  0  0  0  2  0  0  0  0  0  0
   47.2880   32.0850   38.0120 C   0  0  0  0  0  0  0  0  0  0  0  0
   47.0620   32.0800   36.7230 C   0  0  0  0  0  0  0  0  0  0  0  0
   48.0120   31.4710   35.8600 N   0  0  0  0  0  0  0  0  0  0  0  0
   48.2350   30.5990   34.7290 C   0  0  0  0  0  0  0  0  0  0  0  0
   47.5380   30.1430   33.7590 O   0  0  0  0  0  0  0  0  0  0  0  0
   49.6630   30.4190   35.1360 C   0  0  0  0  0  3  0  0  0  0  0  0
   50.3110   30.6040   34.2400 H   0  0  0  0  0  0  0  0  0  0  0  0
   49.4630   31.6640   35.9690 C   0  0  2  0  0  3  0  0  0  0  0  0
   49.9090   31.5850   37.6880 S   0  0  0  0  0  0  0  0  0  0  0  0
   48.4380   31.4770   38.7150 C   0  0  0  0  0  3  0  0  0  0  0  0
   48.2170   30.4170   39.0200 H   0  0  0  0  0  0  0  0  0  0  0  0
   45.8920   32.6650   36.0660 C   0  0  0  0  0  0  0  0  0  0  0  0
   45.2510   32.1900   35.1000 O   0  0  0  0  0  0  0  0  0  0  0  0
   45.0100   33.7060   36.0280 O   0  0  0  0  0  0  0  0  0  0  0  0
   44.2040   33.7550   36.6660 H   0  0  0  0  0  0  0  0  0  0  0  0
  2  1  1  0  0  0  0
  2  3  1  0  0  0  0
  3 15  1  0  0  0  0
  4  3  2  0  0  0  0
  4  8  1  0  0  0  0
  5  4  1  0  0  0  0
  6  7  1  0  0  0  0
  6  5  2  0  0  0  0
  7  2  2  0  0  0  0
  9  5  1  0  0  0  0
 10  6  1  0  0  0  0
 11 12  1  0  0  0  0
 11 17  1  0  0  0  0
 12 18  1  0  0  0  0
 13 19  1  0  0  0  0
 13 12  2  0  0  0  0
 14 13  1  0  0  0  0
 15 14  2  0  0  0  0
 15 16  1  0  0  0  0
 16 11  2  0  0  0  0
 20  7  1  0  0  0  0
 21 30  1  0  0  0  0
 21 20  1  0  0  0  0
 22 21  2  0  0  0  0
 23 28  1  0  0  0  0
 23 22  1  0  0  0  0
 24 26  1  0  0  0  0
 24 23  1  0  0  0  0
 25 24  2  0  0  0  0
 27 26  1  0  0  0  0
 28 26  1  6  0  0  0
 28 29  1  0  0  0  0
 29 30  1  0  0  0  0
 30 31  1  0  0  0  0
 32 22  1  0  0  0  0
 33 32  2  0  0  0  0
 34 32  1  0  0  0  0
 34 35  1  0  0  0  0
M  END
>  <minimizedAffinity>
-6.19637871

>  <minimizedRMSD>
1.18847716

$$$$
