
     RDKit          3D

 40 43  0  0  0  0  0  0  0  0999 V2000
   45.5906   34.0449   45.3232 C   0  0  0  0  0  0  0  0  0  0  0  0
   44.6952   35.0949   45.5865 C   0  0  0  0  0  0  0  0  0  0  0  0
   44.5342   36.0429   44.5796 C   0  0  0  0  0  0  0  0  0  0  0  0
   45.2374   35.8963   43.4308 N   0  0  0  0  0  0  0  0  0  0  0  0
   46.0938   34.8647   43.2166 C   0  0  0  0  0  0  0  0  0  0  0  0
   46.2646   33.9371   44.1767 N   0  0  0  0  0  0  0  0  0  0  0  0
   44.5874   33.1396   41.1867 Br  0  0  0  0  0  0  0  0  0  0  0  0
   46.2809   33.9849   40.9438 C   0  0  0  0  0  0  0  0  0  0  0  0
   46.8356   34.7448   41.9595 C   0  0  0  0  0  0  0  0  0  0  0  0
   48.0637   35.3799   41.8027 C   0  0  0  0  0  0  0  0  0  0  0  0
   48.7047   35.2255   40.6039 C   0  0  0  0  0  0  0  0  0  0  0  0
   48.1230   34.4630   39.6174 C   0  0  0  0  0  0  0  0  0  0  0  0
   46.9308   33.8366   39.7487 C   0  0  0  0  0  0  0  0  0  0  0  0
   45.6581   33.3519   46.1562 H   0  0  0  0  0  0  0  0  0  0  0  0
   44.1226   35.2529   46.4679 H   0  0  0  0  0  0  0  0  0  0  0  0
   43.8892   36.9245   44.5952 H   0  0  0  0  0  0  0  0  0  0  0  0
   48.4823   35.9732   42.6159 H   0  0  0  0  0  0  0  0  0  0  0  0
   49.6742   35.7212   40.4664 H   0  0  0  0  0  0  0  0  0  0  0  0
   48.7033   34.4105   38.7123 H   0  0  0  0  0  0  0  0  0  0  0  0
   46.3145   33.0252   38.6641 C   0  0  0  0  0  0  0  0  0  0  0  0
   46.4882   31.5801   38.8009 C   0  0  0  0  0  0  0  0  0  0  0  0
   47.1754   30.9445   37.8874 C   0  0  0  0  0  0  0  0  0  0  0  0
   47.7989   31.5601   36.7134 C   0  0  0  0  0  0  0  0  0  0  0  0
   48.4611   30.9843   35.8194 O   0  0  0  0  0  0  0  0  0  0  0  0
   48.0255   32.7129   36.0196 O   0  0  0  0  0  0  0  0  0  0  0  0
   47.3585   29.5408   38.0160 N   0  0  0  0  0  0  0  0  0  0  0  0
   47.3482   28.2538   37.3590 C   0  0  0  0  0  0  0  0  0  0  0  0
   47.4050   27.8284   36.1549 O   0  0  0  0  0  0  0  0  0  0  0  0
   47.2404   27.5670   38.6819 C   0  0  2  0  0  0  0  0  0  0  0  0
   48.0204   26.7632   38.7266 H   0  0  0  0  0  0  0  0  0  0  0  0
   47.7238   28.8729   39.2706 C   0  0  2  0  0  0  0  0  0  0  0  0
   46.7641   29.5886   40.5845 S   0  0  0  0  0  0  0  0  0  0  0  0
   45.8167   30.9907   39.9782 C   0  0  2  0  0  0  0  0  0  0  0  0
   44.7539   30.7076   39.7443 H   0  0  0  0  0  0  0  0  0  0  0  0
   46.6311   33.4604   37.7066 H   0  0  0  0  0  0  0  0  0  0  0  0
   45.1929   33.1986   38.6820 H   0  0  0  0  0  0  0  0  0  0  0  0
   47.3211   33.1069   35.3805 H   0  0  0  0  0  0  0  0  0  0  0  0
   46.2081   27.2735   38.8825 H   0  0  0  0  0  0  0  0  0  0  0  0
   48.8374   28.8693   39.4161 H   0  0  0  0  0  0  0  0  0  0  0  0
   45.7203   31.7227   40.8076 H   0  0  0  0  0  0  0  0  0  0  0  0
  1  2  2  0
  3  2  1  0
  4  3  2  0
  5  4  1  0
  5  6  2  0
  6  1  1  0
  8  7  1  0
  8  9  2  0
  9  5  1  0
 10  9  1  0
 11 10  2  0
 12 13  2  0
 12 11  1  0
 13  8  1  0
  1 14  1  0
  2 15  1  0
  3 16  1  0
 10 17  1  0
 11 18  1  0
 12 19  1  0
 20 21  1  0
 21 22  2  0
 22 23  1  0
 23 24  2  0
 23 25  1  0
 22 26  1  0
 26 27  1  0
 27 28  2  0
 27 29  1  0
 29 30  1  6
 29 31  1  0
 31 32  1  0
 32 33  1  0
 33 34  1  6
 33 21  1  0
 31 26  1  0
 20 35  1  0
 20 36  1  0
 25 37  1  0
 29 38  1  0
 31 39  1  1
 33 40  1  0
 13 20  1  0
M  ISO  8  14  14  15  14  16  14  17  14  18  14  19  14  30  15  34  15
M  END
>  <DihAtoms>  (1) 
11,12,19,20

>  <DihDeg>  (1) 
9.980047662090223

$$$$
