
 OpenBabel03242520453D

 29 31  0  0  1  0  0  0  0  0999 V2000
   47.9010   30.3900   38.8230 C   0  0  0  0  0  0  0  0  0  0  0  0
   46.8930   30.9180   39.4970 C   0  0  0  0  0  0  0  0  0  0  0  0
   47.0550   32.2080   40.0720 N   0  0  0  0  0  0  0  0  0  0  0  0
   46.5110   33.5400   40.2510 C   0  0  0  0  0  0  0  0  0  0  0  0
   45.3410   34.0510   40.1550 O   0  0  0  0  0  0  0  0  0  0  0  0
   47.8900   34.0570   40.5910 C   0  0  2  0  0  3  0  0  0  0  0  0
   48.2060   32.6080   40.8970 C   0  0  2  0  0  3  0  0  0  0  0  0
   49.6840   31.9450   40.1040 S   0  0  0  0  0  0  0  0  0  0  0  0
   49.1920   31.0600   38.6060 C   0  0  0  0  0  3  0  0  0  0  0  0
   49.9580   30.3280   38.2840 H   0  0  0  0  0  0  0  0  0  0  0  0
   47.8570   34.9640   41.7830 C   0  0  0  0  0  0  0  0  0  0  0  0
   48.5800   35.9850   41.7160 O   0  0  0  0  0  0  0  0  0  0  0  0
   44.9930   35.1150   44.1270 C   0  0  0  0  0  0  0  0  0  0  0  0
   45.8440   35.3950   43.0340 C   0  0  0  0  0  0  0  0  0  0  0  0
   47.0290   34.6420   42.9060 C   0  0  0  0  0  0  0  0  0  0  0  0
   47.2750   33.6910   43.8460 N   0  0  0  0  0  0  0  0  0  0  0  0
   46.4310   33.4580   44.8750 C   0  0  0  0  0  0  0  0  0  0  0  0
   45.3120   34.1700   44.9960 N   0  0  0  0  0  0  0  0  0  0  0  0
   43.8010   35.8640   44.2690 N   0  0  0  0  0  0  0  0  0  0  0  0
   45.5650   36.1750   42.3330 H   0  0  0  0  0  0  0  0  0  0  0  0
   46.6770   32.6860   45.5950 H   0  0  0  0  0  0  0  0  0  0  0  0
   44.0740   36.8410   44.5820 H   0  0  0  0  0  0  0  0  0  0  0  0
   42.8050   35.5490   44.1030 H   0  0  0  0  0  0  0  0  0  0  0  0
   47.6950   29.0580   38.2580 C   0  0  0  0  0  2  0  0  0  0  0  0
   47.4740   28.3040   39.0410 H   0  0  0  0  0  0  0  0  0  0  0  0
   45.6210   30.2280   39.6820 C   0  0  0  0  0  0  0  0  0  0  0  0
   45.2760   29.4830   40.6160 O   0  0  0  0  0  0  0  0  0  0  0  0
   44.5070   30.2450   38.8620 O   0  0  0  0  0  0  0  0  0  0  0  0
   44.0940   29.4290   38.4380 H   0  0  0  0  0  0  0  0  0  0  0  0
  1  2  2  0  0  0  0
  2 26  1  0  0  0  0
  2  3  1  0  0  0  0
  3  4  1  0  0  0  0
  3  7  1  0  0  0  0
  4  6  1  0  0  0  0
  5  4  2  0  0  0  0
  6  7  1  0  0  0  0
  6 11  1  1  0  0  0
  7  8  1  6  0  0  0
  9  1  1  0  0  0  0
  9  8  1  0  0  0  0
 10  9  1  0  0  0  0
 11 15  1  0  0  0  0
 12 11  2  0  0  0  0
 13 19  1  0  0  0  0
 13 18  1  0  0  0  0
 14 13  2  0  0  0  0
 15 14  1  0  0  0  0
 15 16  2  0  0  0  0
 16 17  1  0  0  0  0
 17 18  2  0  0  0  0
 17 21  1  0  0  0  0
 19 22  1  0  0  0  0
 20 14  1  0  0  0  0
 23 19  1  0  0  0  0
 24  1  1  0  0  0  0
 24 25  1  0  0  0  0
 26 27  2  0  0  0  0
 28 26  1  0  0  0  0
 29 28  1  0  0  0  0
M  END
>  <minimizedAffinity>
-4.71767712

>  <minimizedRMSD>
0.740563273

$$$$
