REMARK  Name = 
REMARK  5 active torsions:
REMARK  status: ('A' for Active; 'I' for Inactive)
REMARK    1  A    between atoms: C_3  and  C_7
REMARK    2  A    between atoms: C_12  and  C_26
REMARK    3  A    between atoms: C_26  and  C_27
REMARK    4  A    between atoms: C_28  and  C_29
REMARK    5  A    between atoms: C_29  and  O_31
REMARK                            x       y       z     vdW  Elec       q    Type
REMARK                         _______ _______ _______ _____ _____    ______ ____
ROOT
ATOM      1  C   UNL     1      46.957  34.293  42.240  0.00  0.00    +0.000 C 
ATOM      2  C   UNL     1      46.152  34.187  40.974  0.00  0.00    +0.000 C 
ATOM      3  C   UNL     1      47.112  33.592  39.950  0.00  0.00    +0.000 C 
ATOM      4  C   UNL     1      48.115  34.683  39.639  0.00  0.00    +0.000 C 
ATOM      5  C   UNL     1      48.813  35.219  40.831  0.00  0.00    +0.000 C 
ATOM      6  C   UNL     1      48.017  35.364  42.062  0.00  0.00    +0.000 C 
ATOM      7  H   UNL     1      47.451  33.342  42.421  0.00  0.00    +0.000 HD
ATOM      8  H   UNL     1      45.826  35.214  40.651  0.00  0.00    +0.000 HD
ATOM      9  H   UNL     1      45.325  33.472  41.068  0.00  0.00    +0.000 HD
ATOM     10  H   UNL     1      46.610  33.288  39.035  0.00  0.00    +0.000 HD
ATOM     11  H   UNL     1      47.623  32.746  40.480  0.00  0.00    +0.000 HD
ATOM     12  H   UNL     1      47.498  35.526  39.209  0.00  0.00    +0.000 HD
ATOM     13  H   UNL     1      48.824  34.413  38.857  0.00  0.00    +0.000 HD
ATOM     14  H   UNL     1      49.687  34.552  41.044  0.00  0.00    +0.000 HD
ATOM     15  H   UNL     1      49.231  36.205  40.541  0.00  0.00    +0.000 HD
ATOM     16  H   UNL     1      47.469  36.327  42.032  0.00  0.00    +0.000 HD
ENDROOT
BRANCH   1  19
ATOM     17  C   UNL     1      44.527  36.009  44.612  0.00  0.00    +0.000 A 
ATOM     18  C   UNL     1      45.264  35.784  43.449  0.00  0.00    +0.000 A 
ATOM     19  C   UNL     1      46.111  34.660  43.405  0.00  0.00    +0.000 A 
ATOM     20  N   UNL     1      46.142  33.878  44.515  0.00  0.00    +0.000 NA
ATOM     21  C   UNL     1      45.426  34.117  45.615  0.00  0.00    +0.000 A 
ATOM     22  N   UNL     1      44.614  35.175  45.683  0.00  0.00    +0.000 NA
ATOM     23  H   UNL     1      43.894  36.883  44.591  0.00  0.00    +0.000 HD
ATOM     24  H   UNL     1      45.247  36.389  42.577  0.00  0.00    +0.000 HD
ATOM     25  H   UNL     1      45.558  33.406  46.413  0.00  0.00    +0.000 HD
ENDBRANCH   1  19
BRANCH   6  26
ATOM     26  C   UNL     1      48.899  35.317  43.318  0.00  0.00    +0.000 C 
BRANCH  26  27
ATOM     27  C   UNL     1      49.269  33.945  43.712  0.00  0.00    +0.000 C 
ATOM     28  C   UNL     1      48.947  33.379  44.860  0.00  0.00    +0.000 C 
ATOM     29  N   UNL     1      49.363  32.047  45.109  0.00  0.00    +0.000 N 
ATOM     30  C   UNL     1      49.756  31.045  46.033  0.00  0.00    +0.000 C 
ATOM     31  O   UNL     1      49.714  30.935  47.287  0.00  0.00    +0.000 OA
ATOM     32  C   UNL     1      50.257  30.120  45.014  0.00  0.00    +0.000 C 
ATOM     33  H   UNL     1      51.360  30.151  45.003  0.00  0.00    +0.000 HD
ATOM     34  C   UNL     1      49.539  31.064  44.077  0.00  0.00    +0.000 C 
ATOM     35  S   UNL     1      50.783  31.766  42.935  0.00  0.00    +0.000 S 
ATOM     36  C   UNL     1      50.051  33.363  42.592  0.00  0.00    +0.000 C 
ATOM     37  H   UNL     1      49.410  33.208  41.672  0.00  0.00    +0.000 HD
BRANCH  28  38
ATOM     38  C   UNL     1      48.172  34.059  45.892  0.00  0.00    +0.000 C 
ATOM     39  O   UNL     1      47.633  35.177  46.052  0.00  0.00    +0.000 OA
BRANCH  38  40
ATOM     40  O   UNL     1      47.846  33.465  47.090  0.00  0.00    +0.000 OA
ATOM     41  H   UNL     1      47.919  33.867  48.016  0.00  0.00    +0.000 HD
ENDBRANCH  38  40
ENDBRANCH  28  38
ENDBRANCH  26  27
ENDBRANCH   6  26
TORSDOF 5
