
 OpenBabel03252503093D

 34 38  0  0  1  0  0  0  0  0999 V2000
   46.2290   34.8850   42.2300 C   0  0  2  0  0  3  0  0  0  0  0  0
   47.3290   35.5350   42.0720 O   0  0  0  0  0  1  0  0  0  0  0  0
   43.1510   31.7750   39.1940 C   0  0  0  0  0  0  0  0  0  0  0  0
   42.7330   32.8690   39.7660 C   0  0  0  0  0  0  0  0  0  0  0  0
   43.5500   33.7090   40.5710 N   0  0  0  0  0  0  0  0  0  0  0  0
   43.9890   34.9650   41.0820 C   0  0  2  0  0  0  0  0  0  0  0  0
   43.3500   36.0100   41.3570 O   0  0  0  0  0  1  0  0  0  0  0  0
   45.3430   34.4180   41.0890 C   0  0  2  0  0  3  0  0  0  0  0  0
   44.5760   33.1530   41.4240 C   0  0  2  0  0  0  0  0  0  0  0  0
   45.3950   31.7210   40.7670 S   0  0  0  0  0  0  0  0  0  0  0  0
   44.5080   31.2470   39.2890 C   0  0  0  0  0  3  0  0  0  0  0  0
   44.4340   30.1290   39.2830 H   0  0  0  0  0  0  0  0  0  0  0  0
   42.1050   31.0910   38.4190 C   0  0  0  0  0  2  0  0  0  0  0  0
   42.6030   30.3930   37.6850 H   0  0  0  0  0  0  0  0  0  0  0  0
   41.3420   33.2620   39.5730 C   0  0  0  0  0  0  0  0  0  0  0  0
   40.5910   33.7450   40.4880 O   0  0  0  0  0  0  0  0  0  0  0  0
   40.0720   33.5570   39.1600 O   0  0  0  0  0  0  0  0  0  0  0  0
   39.7540   33.3610   38.2000 H   0  0  0  0  0  0  0  0  0  0  0  0
   44.9660   35.4690   44.2420 C   0  0  0  0  0  0  0  0  0  0  0  0
   45.8990   34.6470   43.5820 C   0  0  0  0  0  0  0  0  0  0  0  0
   46.4120   33.6110   44.3690 C   0  0  0  0  0  0  0  0  0  0  0  0
   46.0380   33.4220   45.6460 N   0  0  0  0  0  0  0  0  0  0  0  0
   45.1290   34.2500   46.2320 C   0  0  0  0  0  0  0  0  0  0  0  0
   44.5980   35.2700   45.5240 N   0  0  0  0  0  0  0  0  0  0  0  0
   44.5440   36.2880   43.6650 H   0  0  0  0  0  0  0  0  0  0  0  0
   44.8650   34.0520   47.2590 H   0  0  0  0  0  0  0  0  0  0  0  0
   47.3490   32.7550   43.8010 C   0  0  0  0  0  0  0  0  0  0  0  0
   48.4610   32.9130   43.0070 C   0  0  0  0  0  0  0  0  0  0  0  0
   49.2180   31.9390   42.5690 C   0  0  0  0  0  0  0  0  0  0  0  0
   48.8390   30.6700   42.9580 C   0  0  0  0  0  0  0  0  0  0  0  0
   47.3240   30.9940   43.9900 S   0  0  0  0  0  0  0  0  0  0  0  0
   48.8980   33.8360   42.6590 H   0  0  0  0  0  0  0  0  0  0  0  0
   50.0890   31.7760   41.9740 H   0  0  0  0  0  0  0  0  0  0  0  0
   49.0900   29.6240   42.8810 H   0  0  0  0  0  0  0  0  0  0  0  0
  1  2  1  1  0  0  0
  1 20  1  0  0  0  0
  3 11  1  0  0  0  0
  3  4  2  0  0  0  0
  4  5  1  0  0  0  0
  5  6  1  0  0  0  0
  5  9  1  0  0  0  0
  6  8  1  0  0  0  0
  6  7  1  1  0  0  0
  6  9  1  0  0  0  0
  8  9  1  0  0  0  0
  8  1  1  1  0  0  0
  9 10  1  1  0  0  0
 11 10  1  0  0  0  0
 12 11  1  0  0  0  0
 13  3  1  0  0  0  0
 14 13  1  0  0  0  0
 15  4  1  0  0  0  0
 15 16  2  0  0  0  0
 17 15  1  0  0  0  0
 18 17  1  0  0  0  0
 19 24  1  0  0  0  0
 20 19  2  0  0  0  0
 20 21  1  0  0  0  0
 21 22  2  0  0  0  0
 22 23  1  0  0  0  0
 23 26  1  0  0  0  0
 24 23  2  0  0  0  0
 25 19  1  0  0  0  0
 27 31  1  0  0  0  0
 27 21  1  0  0  0  0
 28 27  2  0  0  0  0
 29 30  2  0  0  0  0
 29 28  1  0  0  0  0
 30 31  1  0  0  0  0
 32 28  1  0  0  0  0
 33 29  1  0  0  0  0
 34 30  1  0  0  0  0
M  END
>  <minimizedAffinity>
-5.22221804

>  <minimizedRMSD>
1.89664233

$$$$
