
 OpenBabel03252505533D

 40 43  0  0  1  0  0  0  0  0999 V2000
   47.1250   30.6970   47.5930 C   0  0  0  0  0  0  0  0  0  0  0  0
   47.7770   29.7160   46.8580 C   0  0  0  0  0  0  0  0  0  0  0  0
   49.0620   29.4070   47.1560 C   0  0  0  0  0  0  0  0  0  0  0  0
   49.7180   30.0180   48.1310 N   0  0  0  0  0  0  0  0  0  0  0  0
   49.1000   30.9680   48.8490 C   0  0  0  0  0  0  0  0  0  0  0  0
   47.8050   31.3220   48.5970 N   0  0  0  0  0  0  0  0  0  0  0  0
   47.1220   29.3090   46.1020 H   0  0  0  0  0  0  0  0  0  0  0  0
   49.4930   28.6380   46.5400 H   0  0  0  0  0  0  0  0  0  0  0  0
   45.7530   31.2350   47.5000 C   0  0  0  0  0  0  0  0  0  0  0  0
   45.2560   30.8220   46.6170 H   0  0  0  0  0  0  0  0  0  0  0  0
   45.2250   30.9130   48.4130 H   0  0  0  0  0  0  0  0  0  0  0  0
   45.8530   32.6360   47.4340 O   0  0  0  0  0  0  0  0  0  0  0  0
   45.0060   34.9680   44.8850 C   0  0  0  0  0  0  0  0  0  0  0  0
   45.9080   34.6740   43.8580 C   0  0  0  0  0  0  0  0  0  0  0  0
   46.8230   33.6350   44.0800 C   0  0  0  0  0  0  0  0  0  0  0  0
   46.7900   32.9790   45.2580 N   0  0  0  0  0  0  0  0  0  0  0  0
   45.9010   33.2990   46.2170 C   0  0  0  0  0  0  0  0  0  0  0  0
   45.0140   34.2830   46.0430 N   0  0  0  0  0  0  0  0  0  0  0  0
   44.2970   35.7740   44.7100 H   0  0  0  0  0  0  0  0  0  0  0  0
   47.5160   33.4200   43.2700 H   0  0  0  0  0  0  0  0  0  0  0  0
   45.8370   35.4780   42.6010 C   0  0  0  0  0  0  0  0  0  0  0  0
   45.2820   36.6780   42.9690 F   0  0  0  0  0  0  0  0  0  0  0  0
   44.9580   34.7920   41.7530 F   0  0  0  0  0  0  0  0  0  0  0  0
   47.0830   35.5880   42.0700 F   0  0  0  0  0  0  0  0  0  0  0  0
   49.8900   31.6330   49.9480 C   0  0  0  0  0  2  0  0  0  0  0  0
   50.7930   30.6370   50.5490 C   0  0  0  0  0  0  0  0  0  0  0  0
   52.0830   30.9060   50.6500 C   0  0  0  0  0  0  0  0  0  0  0  0
   52.9470   29.9440   51.2420 N   0  0  0  0  0  0  0  0  0  0  0  0
   54.1660   29.2070   51.1310 C   0  0  0  0  0  0  0  0  0  0  0  0
   55.2780   29.3570   50.5170 O   0  0  0  0  0  0  0  0  0  0  0  0
   53.5860   28.1710   52.0480 C   0  0  0  0  0  3  0  0  0  0  0  0
   54.3290   27.9390   52.8420 H   0  0  0  0  0  0  0  0  0  0  0  0
   52.6780   29.2820   52.5300 C   0  0  2  0  0  3  0  0  0  0  0  0
   50.9180   28.9020   52.5840 S   0  0  0  0  0  0  0  0  0  0  0  0
   50.1800   29.3660   51.0000 C   0  0  0  0  0  3  0  0  0  0  0  0
   50.3740   28.5970   50.2130 H   0  0  0  0  0  0  0  0  0  0  0  0
   52.6420   32.1570   50.1810 C   0  0  0  0  0  0  0  0  0  0  0  0
   53.8450   32.5520   50.3680 O   0  0  0  0  0  0  0  0  0  0  0  0
   52.7950   33.3830   49.5940 O   0  0  0  0  0  0  0  0  0  0  0  0
   52.0740   34.1080   49.7430 H   0  0  0  0  0  0  0  0  0  0  0  0
  1  6  1  0  0  0  0
  2  3  1  0  0  0  0
  2  1  2  0  0  0  0
  3  4  2  0  0  0  0
  4  5  1  0  0  0  0
  5 25  1  0  0  0  0
  6  5  2  0  0  0  0
  7  2  1  0  0  0  0
  8  3  1  0  0  0  0
  9  1  1  0  0  0  0
  9 11  1  0  0  0  0
 10  9  1  0  0  0  0
 12  9  1  0  0  0  0
 13 18  1  0  0  0  0
 14 15  1  0  0  0  0
 14 13  2  0  0  0  0
 15 16  2  0  0  0  0
 16 17  1  0  0  0  0
 17 12  1  0  0  0  0
 18 17  2  0  0  0  0
 19 13  1  0  0  0  0
 20 15  1  0  0  0  0
 21 22  1  0  0  0  0
 21 14  1  0  0  0  0
 23 21  1  0  0  0  0
 24 21  1  0  0  0  0
 25 26  1  0  0  0  0
 26 27  2  0  0  0  0
 26 35  1  0  0  0  0
 27 28  1  0  0  0  0
 28 33  1  0  0  0  0
 29 28  1  0  0  0  0
 29 31  1  0  0  0  0
 30 29  2  0  0  0  0
 31 32  1  0  0  0  0
 33 31  1  6  0  0  0
 33 34  1  0  0  0  0
 35 34  1  0  0  0  0
 36 35  1  0  0  0  0
 37 38  2  0  0  0  0
 37 27  1  0  0  0  0
 39 40  1  0  0  0  0
 39 37  1  0  0  0  0
M  END
>  <minimizedAffinity>
-6.11478186

>  <minimizedRMSD>
1.47939086

$$$$
