
 OpenBabel03252503093D

 34 38  0  0  1  0  0  0  0  0999 V2000
   46.8720   34.4880   42.0620 C   0  0  2  0  0  3  0  0  0  0  0  0
   48.1060   34.2580   42.3460 O   0  0  0  0  0  1  0  0  0  0  0  0
   46.0860   32.9700   37.0170 C   0  0  0  0  0  0  0  0  0  0  0  0
   45.2010   32.8270   37.9630 C   0  0  0  0  0  0  0  0  0  0  0  0
   45.4000   33.2370   39.3090 N   0  0  0  0  0  0  0  0  0  0  0  0
   44.9810   33.7640   40.5660 C   0  0  2  0  0  0  0  0  0  0  0  0
   43.9010   33.6360   41.1940 O   0  0  0  0  0  1  0  0  0  0  0  0
   46.2880   34.4040   40.6630 C   0  0  2  0  0  3  0  0  0  0  0  0
   46.6990   33.1400   39.9320 C   0  0  2  0  0  0  0  0  0  0  0  0
   48.0710   33.4500   38.8470 S   0  0  0  0  0  0  0  0  0  0  0  0
   47.4050   33.5690   37.1920 C   0  0  0  0  0  3  0  0  0  0  0  0
   48.1100   33.0320   36.5050 H   0  0  0  0  0  0  0  0  0  0  0  0
   45.6300   32.4610   35.7150 C   0  0  0  0  0  2  0  0  0  0  0  0
   46.2630   32.9310   34.9070 H   0  0  0  0  0  0  0  0  0  0  0  0
   43.9240   32.2080   37.6260 C   0  0  0  0  0  0  0  0  0  0  0  0
   43.3860   31.2510   38.2810 O   0  0  0  0  0  0  0  0  0  0  0  0
   42.7230   31.7870   37.1220 O   0  0  0  0  0  0  0  0  0  0  0  0
   42.3230   32.1910   36.2630 H   0  0  0  0  0  0  0  0  0  0  0  0
   45.5390   36.1370   43.2820 C   0  0  0  0  0  0  0  0  0  0  0  0
   46.0880   34.8440   43.1810 C   0  0  0  0  0  0  0  0  0  0  0  0
   45.7650   33.9970   44.2450 C   0  0  0  0  0  0  0  0  0  0  0  0
   44.9910   34.3900   45.2710 N   0  0  0  0  0  0  0  0  0  0  0  0
   44.4860   35.6540   45.3150 C   0  0  0  0  0  0  0  0  0  0  0  0
   44.7650   36.5210   44.3170 N   0  0  0  0  0  0  0  0  0  0  0  0
   45.7690   36.8280   42.4750 H   0  0  0  0  0  0  0  0  0  0  0  0
   43.8720   35.9160   46.1610 H   0  0  0  0  0  0  0  0  0  0  0  0
   46.2730   32.7030   44.2330 C   0  0  0  0  0  0  0  0  0  0  0  0
   47.3910   32.0880   44.7470 C   0  0  0  0  0  0  0  0  0  0  0  0
   47.6850   30.8200   44.6070 C   0  0  0  0  0  0  0  0  0  0  0  0
   46.7760   30.0760   43.8820 C   0  0  0  0  0  0  0  0  0  0  0  0
   45.4850   31.3360   43.4270 S   0  0  0  0  0  0  0  0  0  0  0  0
   48.1620   32.5260   45.3610 H   0  0  0  0  0  0  0  0  0  0  0  0
   48.4370   30.1140   44.8790 H   0  0  0  0  0  0  0  0  0  0  0  0
   46.5610   29.0870   43.5080 H   0  0  0  0  0  0  0  0  0  0  0  0
  1  2  1  6  0  0  0
  1 20  1  0  0  0  0
  3 11  1  0  0  0  0
  3  4  2  0  0  0  0
  4  5  1  0  0  0  0
  5  9  1  0  0  0  0
  5  6  1  0  0  0  0
  6  8  1  0  0  0  0
  6  7  1  1  0  0  0
  8  1  1  1  0  0  0
  9 10  1  1  0  0  0
  9  6  1  0  0  0  0
  9  8  1  0  0  0  0
 11 10  1  0  0  0  0
 12 11  1  0  0  0  0
 13  3  1  0  0  0  0
 14 13  1  0  0  0  0
 15  4  1  0  0  0  0
 15 16  2  0  0  0  0
 17 15  1  0  0  0  0
 18 17  1  0  0  0  0
 19 24  1  0  0  0  0
 20 19  2  0  0  0  0
 20 21  1  0  0  0  0
 21 22  2  0  0  0  0
 22 23  1  0  0  0  0
 23 26  1  0  0  0  0
 24 23  2  0  0  0  0
 25 19  1  0  0  0  0
 27 21  1  0  0  0  0
 27 28  2  0  0  0  0
 28 32  1  0  0  0  0
 29 28  1  0  0  0  0
 29 33  1  0  0  0  0
 30 29  2  0  0  0  0
 31 30  1  0  0  0  0
 31 27  1  0  0  0  0
 34 30  1  0  0  0  0
M  END
>  <minimizedAffinity>
-5.14373016

>  <minimizedRMSD>
2.20439458

$$$$
