
     RDKit          3D

 50 53  0  0  0  0  0  0  0  0999 V2000
   44.5154   35.8281   44.8548 C   0  0  0  0  0  0  0  0  0  0  0  0
   45.1371   35.7641   43.5897 C   0  0  0  0  0  0  0  0  0  0  0  0
   46.0254   34.7062   43.3629 C   0  0  0  0  0  0  0  0  0  0  0  0
   46.2425   33.7970   44.3718 N   0  0  0  0  0  0  0  0  0  0  0  0
   45.6169   33.9146   45.5577 C   0  0  0  0  0  0  0  0  0  0  0  0
   44.7539   34.9165   45.8202 N   0  0  0  0  0  0  0  0  0  0  0  0
   46.6559   34.6358   42.0890 N   0  0  0  0  0  0  0  0  0  0  0  0
   47.8886   35.1469   41.9614 C   0  0  0  0  0  0  0  0  0  0  0  0
   48.5124   35.0845   40.7272 C   0  0  0  0  0  0  0  0  0  0  0  0
   47.8302   34.4976   39.6894 C   0  0  0  0  0  0  0  0  0  0  0  0
   48.4189   34.4462   38.5519 O   0  0  0  0  0  0  0  0  0  0  0  0
   46.5893   33.9780   39.7987 N   0  0  0  0  0  0  0  0  0  0  0  0
   46.0552   34.0806   41.0349 C   0  0  0  0  0  0  0  0  0  0  0  0
   44.8988   33.6276   41.2507 O   0  0  0  0  0  0  0  0  0  0  0  0
   46.0392   32.7975   46.4549 C   0  0  0  0  0  0  0  0  0  0  0  0
   45.2614   32.8406   47.7508 C   0  0  0  0  0  0  0  0  0  0  0  0
   45.1429   30.6209   48.8372 C   0  0  0  0  0  0  0  0  0  0  0  0
   46.1475   31.0300   49.4822 O   0  0  0  0  0  0  0  0  0  0  0  0
   44.6166   31.5483   47.9207 N   0  0  0  0  0  0  0  0  0  0  0  0
   43.8181   36.6260   45.0858 H   0  0  0  0  0  0  0  0  0  0  0  0
   44.9189   36.5107   42.8492 H   0  0  0  0  0  0  0  0  0  0  0  0
   48.4227   35.6099   42.7869 H   0  0  0  0  0  0  0  0  0  0  0  0
   49.5147   35.4822   40.5586 H   0  0  0  0  0  0  0  0  0  0  0  0
   46.0942   33.5369   38.9905 H   0  0  0  0  0  0  0  0  0  0  0  0
   47.1113   32.9276   46.7045 H   0  0  0  0  0  0  0  0  0  0  0  0
   45.9442   31.8162   45.9516 H   0  0  0  0  0  0  0  0  0  0  0  0
   45.8716   33.0847   48.6310 H   0  0  0  0  0  0  0  0  0  0  0  0
   44.4212   33.5885   47.6467 H   0  0  0  0  0  0  0  0  0  0  0  0
   43.7680   31.3552   47.3419 H   0  0  0  0  0  0  0  0  0  0  0  0
   43.9657   23.9515   48.5765 C   0  0  0  0  0  0  0  0  0  0  0  0
   42.9057   23.7546   48.7927 H   0  0  0  0  0  0  0  0  0  0  0  0
   44.2584   25.3728   48.7675 C   0  0  0  0  0  0  0  0  0  0  0  0
   43.6208   26.2152   47.9760 C   0  0  0  0  0  0  0  0  0  0  0  0
   42.6745   25.7573   46.9658 C   0  0  0  0  0  0  0  0  0  0  0  0
   42.0202   26.4687   46.1692 O   0  0  0  0  0  0  0  0  0  0  0  0
   42.2878   24.4647   46.6584 O   0  0  0  0  0  0  0  0  0  0  0  0
   43.8582   27.6115   48.0972 N   0  0  0  0  0  0  0  0  0  0  0  0
   43.3789   28.9508   48.1843 C   0  0  0  0  0  0  0  0  0  0  0  0
   42.3528   29.5188   47.7088 O   0  0  0  0  0  0  0  0  0  0  0  0
   44.5602   29.2900   49.0176 C   0  0  1  0  0  0  0  0  0  0  0  0
   45.2049   28.1968   48.1988 C   0  0  1  0  0  0  0  0  0  0  0  0
   46.2757   27.0768   49.1035 S   0  0  0  0  0  0  0  0  0  0  0  0
   45.2255   25.7831   49.8153 C   0  0  1  0  0  0  0  0  0  0  0  0
   44.7034   26.2300   50.6992 H   0  0  0  0  0  0  0  0  0  0  0  0
   44.5910   23.3241   49.2774 H   0  0  0  0  0  0  0  0  0  0  0  0
   44.2330   23.5596   47.5725 H   0  0  0  0  0  0  0  0  0  0  0  0
   42.4772   23.9956   45.7739 H   0  0  0  0  0  0  0  0  0  0  0  0
   44.4225   28.9454   50.0486 H   0  0  0  0  0  0  0  0  0  0  0  0
   45.5404   28.4780   47.1891 H   0  0  0  0  0  0  0  0  0  0  0  0
   45.8467   24.9195   50.1029 H   0  0  0  0  0  0  0  0  0  0  0  0
  1  6  2  0
  2  1  1  0
  3  2  2  0
  3  4  1  0
  4  5  2  0
  5  6  1  0
  5 15  1  0
  7  3  1  0
  8  7  1  0
  9  8  2  0
 10 12  1  0
 10  9  1  0
 11 10  2  0
 12 13  1  0
 13 14  2  0
 13  7  1  0
 15 16  1  0
 16 19  1  0
 17 18  2  0
 19 17  1  0
  1 20  1  0
  2 21  1  0
  8 22  1  0
  9 23  1  0
 12 24  1  0
 15 25  1  0
 15 26  1  0
 16 27  1  0
 16 28  1  0
 19 29  1  0
 30 31  1  0
 30 32  1  0
 32 33  2  0
 33 34  1  0
 34 35  2  0
 34 36  1  0
 33 37  1  0
 37 38  1  0
 38 39  2  0
 38 40  1  0
 40 41  1  0
 41 42  1  0
 42 43  1  0
 43 44  1  1
 43 32  1  0
 41 37  1  0
 30 45  1  0
 30 46  1  0
 36 47  1  0
 40 48  1  1
 41 49  1  6
 43 50  1  0
 17 40  1  0
M  ISO  8  20  14  21  14  22  14  23  14  24   9  25   8  26   8  27   8
M  ISO  3  28   8  31   8  44  15
M  END
>  <DihAtoms>  (1) 
17,16,39,37

>  <DihDeg>  (1) 
120.0917822157083

$$$$
