
 OpenBabel03242519413D

 36 40  0  0  1  0  0  0  0  0999 V2000
   47.2410   33.4610   39.9900 O   0  0  0  0  0  0  0  0  0  0  0  0
   48.1510   32.8370   42.3550 O   0  0  0  0  0  0  0  0  0  0  0  0
   47.2190   33.8000   41.6140 P   0  0  2  0  0  0  0  0  0  0  0  0
   45.6250   33.5990   42.2110 O   0  0  0  0  0  0  0  0  0  0  0  0
   44.3540   35.8510   44.7820 C   0  0  0  0  0  0  0  0  0  0  0  0
   44.6730   35.3160   43.5120 C   0  0  0  0  0  0  0  0  0  0  0  0
   45.3300   34.0840   43.4680 C   0  0  0  0  0  0  0  0  0  0  0  0
   45.6290   33.4640   44.6310 N   0  0  0  0  0  0  0  0  0  0  0  0
   45.3140   33.9940   45.8330 C   0  0  0  0  0  0  0  0  0  0  0  0
   44.6840   35.1730   45.9230 N   0  0  0  0  0  0  0  0  0  0  0  0
   43.8480   36.7980   44.8560 H   0  0  0  0  0  0  0  0  0  0  0  0
   44.3840   35.9030   42.6760 H   0  0  0  0  0  0  0  0  0  0  0  0
   45.6090   33.3960   46.6850 H   0  0  0  0  0  0  0  0  0  0  0  0
   47.7200   35.3370   41.9670 O   0  0  0  0  0  0  0  0  0  0  0  0
   48.9480   35.6500   41.4050 C   0  0  0  0  0  0  0  0  0  0  0  0
   49.3950   36.9170   41.7540 F   0  0  0  0  0  0  0  0  0  0  0  0
   49.8570   34.6810   41.6860 F   0  0  0  0  0  0  0  0  0  0  0  0
   48.7470   35.6850   40.0320 F   0  0  0  0  0  0  0  0  0  0  0  0
   46.1820   33.2500   39.1460 C   0  0  1  0  0  3  0  0  0  0  0  0
   46.4220   33.0390   37.8630 O   0  0  0  0  0  0  0  0  0  0  0  0
   41.3630   31.5450   37.8570 C   0  0  0  0  0  0  0  0  0  0  0  0
   41.5510   32.4990   38.7310 C   0  0  0  0  0  0  0  0  0  0  0  0
   42.8650   32.8960   39.0940 N   0  0  0  0  0  0  0  0  0  0  0  0
   43.8030   33.9050   39.4280 C   0  0  2  0  0  0  0  0  0  0  0  0
   43.5980   34.9600   40.1090 O   0  0  0  0  0  1  0  0  0  0  0  0
   44.8090   33.0810   38.6600 C   0  0  2  0  0  0  0  0  0  0  0  0
   43.9680   31.9920   39.2700 C   0  0  2  0  0  0  0  0  0  0  0  0
   43.8380   30.4800   38.3270 S   0  0  0  0  0  0  0  0  0  0  0  0
   42.4810   30.8580   37.2150 C   0  0  0  0  0  3  0  0  0  0  0  0
   42.9050   31.5560   36.4340 H   0  0  0  0  0  0  0  0  0  0  0  0
   40.0020   31.1530   37.5030 C   0  0  0  0  0  2  0  0  0  0  0  0
   39.9550   30.3710   36.7140 H   0  0  0  0  0  0  0  0  0  0  0  0
   40.4300   33.1830   39.3640 C   0  0  0  0  0  0  0  0  0  0  0  0
   39.7650   32.7970   40.3320 O   0  0  0  0  0  0  0  0  0  0  0  0
   39.9060   34.4050   38.9840 O   0  0  0  0  0  0  0  0  0  0  0  0
   38.9350   34.6180   38.8970 H   0  0  0  0  0  0  0  0  0  0  0  0
  1  3  1  0  0  0  0
  3 14  1  0  0  0  0
  3  4  1  0  0  0  0
  3  2  2  1  0  0  0
  4  7  1  0  0  0  0
  5 11  1  0  0  0  0
  5 10  1  0  0  0  0
  6  5  2  0  0  0  0
  7  6  1  0  0  0  0
  7  8  2  0  0  0  0
  8  9  1  0  0  0  0
  9 10  2  0  0  0  0
  9 13  1  0  0  0  0
 12  6  1  0  0  0  0
 15 17  1  0  0  0  0
 15 16  1  0  0  0  0
 15 14  1  0  0  0  0
 18 15  1  0  0  0  0
 19  1  1  1  0  0  0
 20 19  1  0  0  0  0
 21 22  2  0  0  0  0
 22 23  1  0  0  0  0
 22 33  1  0  0  0  0
 23 27  1  0  0  0  0
 23 24  1  0  0  0  0
 24 25  1  1  0  0  0
 26 20  1  6  0  0  0
 26 19  1  0  0  0  0
 26 27  1  0  0  0  0
 26 24  1  0  0  0  0
 27 28  1  1  0  0  0
 27 24  1  0  0  0  0
 29 21  1  0  0  0  0
 29 28  1  0  0  0  0
 30 29  1  0  0  0  0
 31 21  1  0  0  0  0
 32 31  1  0  0  0  0
 33 34  2  0  0  0  0
 35 33  1  0  0  0  0
 36 35  1  0  0  0  0
M  END
>  <minimizedAffinity>
-5.75421047

>  <minimizedRMSD>
4.06826115

$$$$
