
 OpenBabel03242519333D

 55 60  0  0  1  0  0  0  0  0999 V2000
   37.7140   31.7160   40.5000 C   0  0  0  0  0  0  0  0  0  0  0  0
   36.9450   32.2640   39.5500 N   0  0  0  0  0  0  0  0  0  0  0  0
   37.2880   33.5670   39.3930 C   0  0  0  0  0  0  0  0  0  0  0  0
   38.2860   33.8110   40.2660 N   0  0  0  0  0  0  0  0  0  0  0  0
   38.5540   32.6930   40.9450 N   0  0  0  0  0  0  0  0  0  0  0  0
   36.8380   34.2770   38.6890 H   0  0  0  0  0  0  0  0  0  0  0  0
   38.2550   28.2080   41.4660 C   0  0  0  0  0  0  0  0  0  0  0  0
   36.9050   27.7470   41.4740 C   0  0  0  0  0  0  0  0  0  0  0  0
   35.8610   28.6290   41.1520 C   0  0  0  0  0  0  0  0  0  0  0  0
   36.2210   29.9110   40.8430 N   0  0  0  0  0  0  0  0  0  0  0  0
   37.5310   30.3120   40.8480 C   0  0  0  0  0  0  0  0  0  0  0  0
   38.5090   29.4700   41.1530 N   0  0  0  0  0  0  0  0  0  0  0  0
   36.5600   26.7500   41.7090 H   0  0  0  0  0  0  0  0  0  0  0  0
   34.8430   28.3290   41.1450 H   0  0  0  0  0  0  0  0  0  0  0  0
   39.2420   27.1900   41.8220 C   0  0  0  0  0  0  0  0  0  0  0  0
   39.0670   25.9140   41.1760 C   0  0  0  0  0  0  0  0  0  0  0  0
   38.6920   24.8050   42.0620 C   0  0  0  0  0  0  0  0  0  0  0  0
   39.6780   24.6620   43.2250 C   0  0  0  0  0  0  0  0  0  0  0  0
   40.1070   25.9640   43.8190 C   0  0  0  0  0  0  0  0  0  0  0  0
   39.1900   27.0960   43.3840 C   0  0  0  0  0  0  0  0  0  0  0  0
   40.2650   27.6330   41.6650 H   0  0  0  0  0  0  0  0  0  0  0  0
   38.3010   25.9750   40.3600 H   0  0  0  0  0  0  0  0  0  0  0  0
   40.0050   25.6230   40.6330 H   0  0  0  0  0  0  0  0  0  0  0  0
   38.8240   23.8430   41.4840 H   0  0  0  0  0  0  0  0  0  0  0  0
   37.6630   24.7660   42.4320 H   0  0  0  0  0  0  0  0  0  0  0  0
   39.1180   24.1080   44.0240 H   0  0  0  0  0  0  0  0  0  0  0  0
   40.5230   23.9950   42.9630 H   0  0  0  0  0  0  0  0  0  0  0  0
   41.1210   26.2150   43.4220 H   0  0  0  0  0  0  0  0  0  0  0  0
   40.1470   25.9850   44.9140 H   0  0  0  0  0  0  0  0  0  0  0  0
   38.1410   26.9090   43.6970 H   0  0  0  0  0  0  0  0  0  0  0  0
   39.5660   28.0460   43.7600 H   0  0  0  0  0  0  0  0  0  0  0  0
   38.9780   35.0550   40.4910 C   0  0  0  0  0  0  0  0  0  0  0  0
   39.1190   35.2240   41.5450 H   0  0  0  0  0  0  0  0  0  0  0  0
   38.3120   35.8970   40.1360 H   0  0  0  0  0  0  0  0  0  0  0  0
   40.2540   35.0590   39.7770 C   0  0  0  0  0  3  0  0  0  0  0  0
   41.4770   34.6480   40.0690 C   0  0  0  0  0  3  0  0  0  0  0  0
   42.7080   34.6600   39.1430 C   0  0  0  0  0  0  0  0  0  0  0  0
   42.4290   35.3310   38.3120 H   0  0  0  0  0  0  0  0  0  0  0  0
   43.5520   35.0500   39.7280 H   0  0  0  0  0  0  0  0  0  0  0  0
   42.4570   30.0000   36.7300 C   0  0  0  0  0  0  0  0  0  0  0  0
   43.4640   30.8110   36.5430 C   0  0  0  0  0  0  0  0  0  0  0  0
   43.5500   32.0600   37.1620 N   0  0  0  0  0  0  0  0  0  0  0  0
   44.2200   33.1350   37.8200 C   0  0  2  0  0  0  0  0  0  0  0  0
   45.3780   33.5830   37.6330 O   0  0  0  0  0  1  0  0  0  0  0  0
   42.9930   33.3040   38.6230 C   0  0  2  0  0  3  0  0  0  0  0  0
   42.3700   32.9100   37.3280 C   0  0  2  0  0  0  0  0  0  0  0  0
   40.8280   32.0160   37.3660 S   0  0  0  0  0  0  0  0  0  0  0  0
   41.3260   30.3110   37.6050 C   0  0  0  0  0  3  0  0  0  0  0  0
   41.5710   30.1880   38.6830 H   0  0  0  0  0  0  0  0  0  0  0  0
   42.4950   28.7220   36.0150 C   0  0  0  0  0  2  0  0  0  0  0  0
   42.8700   28.8570   34.9640 H   0  0  0  0  0  0  0  0  0  0  0  0
   44.5520   30.4150   35.6530 C   0  0  0  0  0  0  0  0  0  0  0  0
   45.4190   31.1940   35.1430 O   0  0  0  0  0  0  0  0  0  0  0  0
   45.4570   29.7530   34.8520 O   0  0  0  0  0  0  0  0  0  0  0  0
   45.6070   28.7520   34.8330 H   0  0  0  0  0  0  0  0  0  0  0  0
  1 11  1  0  0  0  0
  1  5  2  0  0  0  0
  2  1  1  0  0  0  0
  3  2  2  0  0  0  0
  3  4  1  0  0  0  0
  4 32  1  0  0  0  0
  4  5  1  0  0  0  0
  6  3  1  0  0  0  0
  7  8  1  0  0  0  0
  7 15  1  0  0  0  0
  8 13  1  0  0  0  0
  9  8  2  0  0  0  0
 10 11  2  0  0  0  0
 10  9  1  0  0  0  0
 11 12  1  0  0  0  0
 12  7  2  0  0  0  0
 14  9  1  0  0  0  0
 15 20  1  0  0  0  0
 16 15  1  0  0  0  0
 16 17  1  0  0  0  0
 17 25  1  0  0  0  0
 17 18  1  0  0  0  0
 18 19  1  0  0  0  0
 18 26  1  0  0  0  0
 19 29  1  0  0  0  0
 20 30  1  0  0  0  0
 20 31  1  0  0  0  0
 20 19  1  0  0  0  0
 21 15  1  0  0  0  0
 22 16  1  0  0  0  0
 23 16  1  0  0  0  0
 24 17  1  0  0  0  0
 27 18  1  0  0  0  0
 28 19  1  0  0  0  0
 32 33  1  0  0  0  0
 34 32  1  0  0  0  0
 35 36  2  0  0  0  0
 35 32  1  0  0  0  0
 37 39  1  0  0  0  0
 37 36  1  0  0  0  0
 38 37  1  0  0  0  0
 40 48  1  0  0  0  0
 41 40  2  0  0  0  0
 41 42  1  0  0  0  0
 42 46  1  0  0  0  0
 42 43  1  0  0  0  0
 43 44  1  6  0  0  0
 43 45  1  0  0  0  0
 45 37  1  6  0  0  0
 46 47  1  6  0  0  0
 46 43  1  0  0  0  0
 46 45  1  0  0  0  0
 47 48  1  0  0  0  0
 48 49  1  0  0  0  0
 50 40  1  0  0  0  0
 51 50  1  0  0  0  0
 52 41  1  0  0  0  0
 53 52  2  0  0  0  0
 54 52  1  0  0  0  0
 55 54  1  0  0  0  0
M  END
>  <minimizedAffinity>
-7.1449914

$$$$

 OpenBabel03242519333D

 55 60  0  0  1  0  0  0  0  0999 V2000
   38.4110   32.3730   39.5700 C   0  0  0  0  0  0  0  0  0  0  0  0
   38.8070   31.5670   38.5750 N   0  0  0  0  0  0  0  0  0  0  0  0
   37.8940   30.5780   38.4100 C   0  0  0  0  0  0  0  0  0  0  0  0
   36.9260   30.7900   39.3250 N   0  0  0  0  0  0  0  0  0  0  0  0
   37.2300   31.8780   40.0350 N   0  0  0  0  0  0  0  0  0  0  0  0
   37.9410   29.7680   37.6740 H   0  0  0  0  0  0  0  0  0  0  0  0
   41.2080   34.5610   40.5290 C   0  0  0  0  0  0  0  0  0  0  0  0
   40.5320   35.8170   40.5680 C   0  0  0  0  0  0  0  0  0  0  0  0
   39.1610   35.8840   40.2740 C   0  0  0  0  0  0  0  0  0  0  0  0
   38.5460   34.7040   39.9610 N   0  0  0  0  0  0  0  0  0  0  0  0
   39.2350   33.5190   39.9340 C   0  0  0  0  0  0  0  0  0  0  0  0
   40.5300   33.4680   40.2130 N   0  0  0  0  0  0  0  0  0  0  0  0
   40.9630   36.7790   40.8080 H   0  0  0  0  0  0  0  0  0  0  0  0
   38.6180   36.7960   40.2920 H   0  0  0  0  0  0  0  0  0  0  0  0
   42.6330   34.6330   40.8510 C   0  0  0  0  0  0  0  0  0  0  0  0
   43.2560   33.3690   41.1510 C   0  0  0  0  0  0  0  0  0  0  0  0
   43.7050   33.2010   42.5390 C   0  0  0  0  0  0  0  0  0  0  0  0
   44.6270   34.3450   42.9700 C   0  0  0  0  0  0  0  0  0  0  0  0
   44.1820   35.6920   42.4990 C   0  0  0  0  0  0  0  0  0  0  0  0
   42.7370   35.6600   42.0280 C   0  0  0  0  0  0  0  0  0  0  0  0
   43.1440   35.1980   40.0230 H   0  0  0  0  0  0  0  0  0  0  0  0
   42.5760   32.5120   40.9050 H   0  0  0  0  0  0  0  0  0  0  0  0
   44.1400   33.2030   40.4780 H   0  0  0  0  0  0  0  0  0  0  0  0
   44.3770   32.2930   42.5770 H   0  0  0  0  0  0  0  0  0  0  0  0
   42.9470   33.0160   43.3070 H   0  0  0  0  0  0  0  0  0  0  0  0
   44.5800   34.3600   44.0910 H   0  0  0  0  0  0  0  0  0  0  0  0
   45.6870   34.1240   42.7370 H   0  0  0  0  0  0  0  0  0  0  0  0
   44.7940   35.9730   41.6080 H   0  0  0  0  0  0  0  0  0  0  0  0
   44.2610   36.4940   43.2420 H   0  0  0  0  0  0  0  0  0  0  0  0
   42.0530   35.3420   42.8430 H   0  0  0  0  0  0  0  0  0  0  0  0
   42.4580   36.6270   41.6140 H   0  0  0  0  0  0  0  0  0  0  0  0
   35.7450   29.9980   39.5590 C   0  0  0  0  0  0  0  0  0  0  0  0
   35.6120   29.2760   38.7730 H   0  0  0  0  0  0  0  0  0  0  0  0
   34.8460   30.6810   39.4980 H   0  0  0  0  0  0  0  0  0  0  0  0
   35.8240   29.3500   40.8690 C   0  0  0  0  0  3  0  0  0  0  0  0
   36.3500   28.2200   41.3090 C   0  0  0  0  0  3  0  0  0  0  0  0
   36.4090   27.7270   42.7670 C   0  0  0  0  0  0  0  0  0  0  0  0
   35.9910   28.5580   43.3620 H   0  0  0  0  0  0  0  0  0  0  0  0
   35.7940   26.8190   42.8290 H   0  0  0  0  0  0  0  0  0  0  0  0
   41.2840   25.8240   43.2400 C   0  0  0  0  0  0  0  0  0  0  0  0
   41.0640   27.1000   43.0620 C   0  0  0  0  0  0  0  0  0  0  0  0
   39.7800   27.6300   42.9210 N   0  0  0  0  0  0  0  0  0  0  0  0
   38.7500   28.5970   43.1230 C   0  0  2  0  0  0  0  0  0  0  0  0
   38.8360   29.8490   43.1910 O   0  0  0  0  0  1  0  0  0  0  0  0
   37.8060   27.4640   43.1800 C   0  0  2  0  0  3  0  0  0  0  0  0
   38.7470   26.9300   42.1570 C   0  0  2  0  0  0  0  0  0  0  0  0
   38.9830   25.1660   42.0590 S   0  0  0  0  0  0  0  0  0  0  0  0
   40.2150   24.8280   43.3160 C   0  0  0  0  0  3  0  0  0  0  0  0
   39.6930   24.8320   44.2980 H   0  0  0  0  0  0  0  0  0  0  0  0
   42.6810   25.4050   43.3710 C   0  0  0  0  0  2  0  0  0  0  0  0
   43.3380   25.9530   42.6400 H   0  0  0  0  0  0  0  0  0  0  0  0
   42.1930   28.0230   43.0020 C   0  0  0  0  0  0  0  0  0  0  0  0
   42.1220   29.2930   43.0590 O   0  0  0  0  0  0  0  0  0  0  0  0
   43.4280   28.6310   42.9210 O   0  0  0  0  0  0  0  0  0  0  0  0
   44.3210   28.1710   43.0460 H   0  0  0  0  0  0  0  0  0  0  0  0
  1 11  1  0  0  0  0
  1  5  2  0  0  0  0
  2  1  1  0  0  0  0
  3  2  2  0  0  0  0
  3  4  1  0  0  0  0
  4 32  1  0  0  0  0
  4  5  1  0  0  0  0
  6  3  1  0  0  0  0
  7  8  1  0  0  0  0
  7 15  1  0  0  0  0
  8 13  1  0  0  0  0
  9 14  1  0  0  0  0
  9  8  2  0  0  0  0
 10  9  1  0  0  0  0
 11 10  2  0  0  0  0
 11 12  1  0  0  0  0
 12  7  2  0  0  0  0
 15 16  1  0  0  0  0
 15 20  1  0  0  0  0
 16 17  1  0  0  0  0
 17 24  1  0  0  0  0
 17 18  1  0  0  0  0
 17 25  1  0  0  0  0
 18 26  1  0  0  0  0
 19 18  1  0  0  0  0
 19 29  1  0  0  0  0
 20 19  1  0  0  0  0
 20 30  1  0  0  0  0
 21 15  1  0  0  0  0
 22 16  1  0  0  0  0
 23 16  1  0  0  0  0
 27 18  1  0  0  0  0
 28 19  1  0  0  0  0
 31 20  1  0  0  0  0
 32 35  1  0  0  0  0
 33 32  1  0  0  0  0
 34 32  1  0  0  0  0
 35 36  2  0  0  0  0
 36 37  1  0  0  0  0
 37 39  1  0  0  0  0
 37 38  1  0  0  0  0
 40 48  1  0  0  0  0
 40 50  1  0  0  0  0
 41 40  2  0  0  0  0
 42 41  1  0  0  0  0
 42 43  1  0  0  0  0
 43 45  1  0  0  0  0
 43 44  1  6  0  0  0
 45 37  1  6  0  0  0
 46 47  1  6  0  0  0
 46 42  1  0  0  0  0
 46 43  1  0  0  0  0
 46 45  1  0  0  0  0
 47 48  1  0  0  0  0
 48 49  1  0  0  0  0
 51 50  1  0  0  0  0
 52 53  2  0  0  0  0
 52 41  1  0  0  0  0
 54 52  1  0  0  0  0
 54 55  1  0  0  0  0
M  END
>  <minimizedAffinity>
-7.10165167

$$$$

 OpenBabel03242519333D

 55 60  0  0  1  0  0  0  0  0999 V2000
   37.8940   32.1240   39.6770 C   0  0  0  0  0  0  0  0  0  0  0  0
   37.9030   31.5350   38.4740 N   0  0  0  0  0  0  0  0  0  0  0  0
   36.9780   30.5430   38.4550 C   0  0  0  0  0  0  0  0  0  0  0  0
   36.3990   30.5320   39.6720 N   0  0  0  0  0  0  0  0  0  0  0  0
   36.9470   31.4890   40.4240 N   0  0  0  0  0  0  0  0  0  0  0  0
   36.7520   29.8830   37.6100 H   0  0  0  0  0  0  0  0  0  0  0  0
   40.8710   34.1660   40.3860 C   0  0  0  0  0  0  0  0  0  0  0  0
   40.2800   35.4650   40.3860 C   0  0  0  0  0  0  0  0  0  0  0  0
   38.9030   35.6090   40.1520 C   0  0  0  0  0  0  0  0  0  0  0  0
   38.1990   34.4580   39.9320 N   0  0  0  0  0  0  0  0  0  0  0  0
   38.8070   33.2300   39.9400 C   0  0  0  0  0  0  0  0  0  0  0  0
   40.1080   33.1060   40.1630 N   0  0  0  0  0  0  0  0  0  0  0  0
   40.7830   36.4070   40.5530 H   0  0  0  0  0  0  0  0  0  0  0  0
   38.4220   36.5550   40.1430 H   0  0  0  0  0  0  0  0  0  0  0  0
   42.3100   34.1580   40.6390 C   0  0  0  0  0  0  0  0  0  0  0  0
   42.8510   32.8900   41.0600 C   0  0  0  0  0  0  0  0  0  0  0  0
   43.3540   32.8470   42.4390 C   0  0  0  0  0  0  0  0  0  0  0  0
   44.3800   33.9550   42.6940 C   0  0  0  0  0  0  0  0  0  0  0  0
   44.0160   35.2690   42.0860 C   0  0  0  0  0  0  0  0  0  0  0  0
   42.5510   35.3020   41.6810 C   0  0  0  0  0  0  0  0  0  0  0  0
   42.8220   34.5810   39.7300 H   0  0  0  0  0  0  0  0  0  0  0  0
   42.0960   32.0690   40.9460 H   0  0  0  0  0  0  0  0  0  0  0  0
   43.6840   32.5780   40.3770 H   0  0  0  0  0  0  0  0  0  0  0  0
   43.9560   31.8980   42.5570 H   0  0  0  0  0  0  0  0  0  0  0  0
   42.6240   32.8140   43.2540 H   0  0  0  0  0  0  0  0  0  0  0  0
   44.3920   34.1010   43.8060 H   0  0  0  0  0  0  0  0  0  0  0  0
   45.4080   33.6220   42.4460 H   0  0  0  0  0  0  0  0  0  0  0  0
   44.6020   35.3960   41.1430 H   0  0  0  0  0  0  0  0  0  0  0  0
   44.1930   36.1420   42.7240 H   0  0  0  0  0  0  0  0  0  0  0  0
   41.8870   35.1360   42.5550 H   0  0  0  0  0  0  0  0  0  0  0  0
   42.3260   36.2350   41.1670 H   0  0  0  0  0  0  0  0  0  0  0  0
   35.3670   29.6460   40.1510 C   0  0  0  0  0  0  0  0  0  0  0  0
   34.8360   29.2040   39.3260 H   0  0  0  0  0  0  0  0  0  0  0  0
   34.6020   30.2660   40.7060 H   0  0  0  0  0  0  0  0  0  0  0  0
   35.9460   28.6230   41.0210 C   0  0  0  0  0  3  0  0  0  0  0  0
   36.5550   27.4680   40.8090 C   0  0  0  0  0  3  0  0  0  0  0  0
   37.1820   26.5400   41.8660 C   0  0  0  0  0  0  0  0  0  0  0  0
   36.6260   26.7550   42.7960 H   0  0  0  0  0  0  0  0  0  0  0  0
   37.0360   25.5070   41.5220 H   0  0  0  0  0  0  0  0  0  0  0  0
   41.7660   28.8400   43.0100 C   0  0  0  0  0  0  0  0  0  0  0  0
   41.4570   27.6630   43.4840 C   0  0  0  0  0  0  0  0  0  0  0  0
   40.2420   27.0340   43.2050 N   0  0  0  0  0  0  0  0  0  0  0  0
   39.4000   25.9230   42.9000 C   0  0  2  0  0  0  0  0  0  0  0  0
   39.4770   24.7340   43.2970 O   0  0  0  0  0  1  0  0  0  0  0  0
   38.6180   26.8490   42.0560 C   0  0  2  0  0  3  0  0  0  0  0  0
   38.9890   27.7890   43.1500 C   0  0  2  0  0  0  0  0  0  0  0  0
   39.1960   29.5150   42.7510 S   0  0  0  0  0  0  0  0  0  0  0  0
   40.8780   29.6150   42.1410 C   0  0  0  0  0  3  0  0  0  0  0  0
   40.8710   29.2420   41.0930 H   0  0  0  0  0  0  0  0  0  0  0  0
   43.0740   29.3820   43.3840 C   0  0  0  0  0  2  0  0  0  0  0  0
   43.3030   29.1760   44.4660 H   0  0  0  0  0  0  0  0  0  0  0  0
   42.4070   26.9600   44.3410 C   0  0  0  0  0  0  0  0  0  0  0  0
   43.1260   25.9670   44.0010 O   0  0  0  0  0  0  0  0  0  0  0  0
   43.2100   26.5060   45.3670 O   0  0  0  0  0  0  0  0  0  0  0  0
   43.4190   27.0110   46.2190 H   0  0  0  0  0  0  0  0  0  0  0  0
  1 11  1  0  0  0  0
  1  5  2  0  0  0  0
  2  1  1  0  0  0  0
  3  2  2  0  0  0  0
  3  4  1  0  0  0  0
  4 32  1  0  0  0  0
  4  5  1  0  0  0  0
  6  3  1  0  0  0  0
  7 15  1  0  0  0  0
  8  7  1  0  0  0  0
  8 13  1  0  0  0  0
  9  8  2  0  0  0  0
 10 11  2  0  0  0  0
 10  9  1  0  0  0  0
 11 12  1  0  0  0  0
 12  7  2  0  0  0  0
 14  9  1  0  0  0  0
 15 16  1  0  0  0  0
 15 20  1  0  0  0  0
 16 17  1  0  0  0  0
 17 24  1  0  0  0  0
 17 18  1  0  0  0  0
 17 25  1  0  0  0  0
 18 26  1  0  0  0  0
 19 18  1  0  0  0  0
 19 29  1  0  0  0  0
 20 19  1  0  0  0  0
 20 30  1  0  0  0  0
 21 15  1  0  0  0  0
 22 16  1  0  0  0  0
 23 16  1  0  0  0  0
 27 18  1  0  0  0  0
 28 19  1  0  0  0  0
 31 20  1  0  0  0  0
 32 34  1  0  0  0  0
 32 35  1  0  0  0  0
 33 32  1  0  0  0  0
 36 35  2  0  0  0  0
 36 37  1  0  0  0  0
 37 38  1  0  0  0  0
 39 37  1  0  0  0  0
 40 50  1  0  0  0  0
 40 41  2  0  0  0  0
 41 52  1  0  0  0  0
 42 41  1  0  0  0  0
 43 46  1  0  0  0  0
 43 42  1  0  0  0  0
 43 44  1  1  0  0  0
 45 37  1  1  0  0  0
 45 43  1  0  0  0  0
 45 46  1  0  0  0  0
 46 47  1  1  0  0  0
 46 42  1  0  0  0  0
 48 47  1  0  0  0  0
 48 40  1  0  0  0  0
 49 48  1  0  0  0  0
 50 51  1  0  0  0  0
 52 54  1  0  0  0  0
 53 52  2  0  0  0  0
 54 55  1  0  0  0  0
M  END
>  <minimizedAffinity>
-7.08068657

$$$$

 OpenBabel03242519333D

 55 60  0  0  1  0  0  0  0  0999 V2000
   37.5950   31.3300   40.3250 C   0  0  0  0  0  0  0  0  0  0  0  0
   36.8970   32.0830   39.4640 N   0  0  0  0  0  0  0  0  0  0  0  0
   37.3430   33.3620   39.5270 C   0  0  0  0  0  0  0  0  0  0  0  0
   38.3300   33.3830   40.4450 N   0  0  0  0  0  0  0  0  0  0  0  0
   38.4920   32.1520   40.9370 N   0  0  0  0  0  0  0  0  0  0  0  0
   36.9680   34.2100   38.9420 H   0  0  0  0  0  0  0  0  0  0  0  0
   37.3870   27.8320   41.4460 C   0  0  0  0  0  0  0  0  0  0  0  0
   36.5790   27.2900   40.4030 C   0  0  0  0  0  0  0  0  0  0  0  0
   36.1350   28.1170   39.3580 C   0  0  0  0  0  0  0  0  0  0  0  0
   36.5200   29.4280   39.4140 N   0  0  0  0  0  0  0  0  0  0  0  0
   37.2970   29.9060   40.4360 C   0  0  0  0  0  0  0  0  0  0  0  0
   37.7100   29.1170   41.4170 N   0  0  0  0  0  0  0  0  0  0  0  0
   36.2440   26.2670   40.3050 H   0  0  0  0  0  0  0  0  0  0  0  0
   35.5330   27.7560   38.5620 H   0  0  0  0  0  0  0  0  0  0  0  0
   37.7770   26.8650   42.4710 C   0  0  0  0  0  0  0  0  0  0  0  0
   38.5620   27.4030   43.5530 C   0  0  0  0  0  0  0  0  0  0  0  0
   39.9490   26.9250   43.6230 C   0  0  0  0  0  0  0  0  0  0  0  0
   40.0110   25.3950   43.6520 C   0  0  0  0  0  0  0  0  0  0  0  0
   39.0510   24.7320   42.7190 C   0  0  0  0  0  0  0  0  0  0  0  0
   38.5070   25.7170   41.6970 C   0  0  0  0  0  0  0  0  0  0  0  0
   36.8450   26.3360   42.8170 H   0  0  0  0  0  0  0  0  0  0  0  0
   38.5880   28.5230   43.5180 H   0  0  0  0  0  0  0  0  0  0  0  0
   38.0690   27.1830   44.5370 H   0  0  0  0  0  0  0  0  0  0  0  0
   40.3670   27.2250   44.6290 H   0  0  0  0  0  0  0  0  0  0  0  0
   40.6670   27.3180   42.8970 H   0  0  0  0  0  0  0  0  0  0  0  0
   41.0430   25.1310   43.3000 H   0  0  0  0  0  0  0  0  0  0  0  0
   39.9610   25.0050   44.6880 H   0  0  0  0  0  0  0  0  0  0  0  0
   38.1710   24.3790   43.3100 H   0  0  0  0  0  0  0  0  0  0  0  0
   39.4580   23.8810   42.1610 H   0  0  0  0  0  0  0  0  0  0  0  0
   39.3230   26.1590   41.0870 H   0  0  0  0  0  0  0  0  0  0  0  0
   37.7500   25.2350   41.0800 H   0  0  0  0  0  0  0  0  0  0  0  0
   39.1060   34.5160   40.8820 C   0  0  0  0  0  0  0  0  0  0  0  0
   39.6150   34.2930   41.8040 H   0  0  0  0  0  0  0  0  0  0  0  0
   38.3930   35.3580   41.1260 H   0  0  0  0  0  0  0  0  0  0  0  0
   40.0500   34.9130   39.8370 C   0  0  0  0  0  3  0  0  0  0  0  0
   41.2170   34.4500   39.4220 C   0  0  0  0  0  3  0  0  0  0  0  0
   42.0480   34.9580   38.2300 C   0  0  0  0  0  0  0  0  0  0  0  0
   41.3450   35.5670   37.6350 H   0  0  0  0  0  0  0  0  0  0  0  0
   42.8740   35.5560   38.6390 H   0  0  0  0  0  0  0  0  0  0  0  0
   44.8540   30.9670   36.2790 C   0  0  0  0  0  0  0  0  0  0  0  0
   43.5850   30.8360   36.5590 C   0  0  0  0  0  0  0  0  0  0  0  0
   42.8190   31.8760   37.0890 N   0  0  0  0  0  0  0  0  0  0  0  0
   41.6460   32.6760   37.2320 C   0  0  2  0  0  0  0  0  0  0  0  0
   40.4380   32.3330   37.1860 O   0  0  0  0  0  1  0  0  0  0  0  0
   42.5510   33.8280   37.4150 C   0  0  2  0  0  3  0  0  0  0  0  0
   43.3640   32.7850   38.0980 C   0  0  2  0  0  0  0  0  0  0  0  0
   45.1400   32.9340   38.0600 S   0  0  0  0  0  0  0  0  0  0  0  0
   45.5980   32.2100   36.4860 C   0  0  0  0  0  3  0  0  0  0  0  0
   45.3900   32.9710   35.7010 H   0  0  0  0  0  0  0  0  0  0  0  0
   45.5360   29.7930   35.7290 C   0  0  0  0  0  2  0  0  0  0  0  0
   45.2100   28.8530   36.2540 H   0  0  0  0  0  0  0  0  0  0  0  0
   42.9230   29.5570   36.3160 C   0  0  0  0  0  0  0  0  0  0  0  0
   41.7510   29.2390   36.6990 O   0  0  0  0  0  0  0  0  0  0  0  0
   42.5670   28.2790   35.9390 O   0  0  0  0  0  0  0  0  0  0  0  0
   43.0390   27.7170   35.2420 H   0  0  0  0  0  0  0  0  0  0  0  0
  1 11  1  0  0  0  0
  1  5  2  0  0  0  0
  2  3  2  0  0  0  0
  2  1  1  0  0  0  0
  3  4  1  0  0  0  0
  4 32  1  0  0  0  0
  4  5  1  0  0  0  0
  6  3  1  0  0  0  0
  7 15  1  0  0  0  0
  8  7  2  0  0  0  0
  9 10  2  0  0  0  0
  9  8  1  0  0  0  0
 10 11  1  0  0  0  0
 11 12  2  0  0  0  0
 12  7  1  0  0  0  0
 13  8  1  0  0  0  0
 14  9  1  0  0  0  0
 15 21  1  0  0  0  0
 15 16  1  0  0  0  0
 16 17  1  0  0  0  0
 16 23  1  0  0  0  0
 17 18  1  0  0  0  0
 17 24  1  0  0  0  0
 18 27  1  0  0  0  0
 19 28  1  0  0  0  0
 19 18  1  0  0  0  0
 20 15  1  0  0  0  0
 20 19  1  0  0  0  0
 22 16  1  0  0  0  0
 25 17  1  0  0  0  0
 26 18  1  0  0  0  0
 29 19  1  0  0  0  0
 30 20  1  0  0  0  0
 31 20  1  0  0  0  0
 32 34  1  0  0  0  0
 32 33  1  0  0  0  0
 35 32  1  0  0  0  0
 36 35  2  0  0  0  0
 37 39  1  0  0  0  0
 37 36  1  0  0  0  0
 38 37  1  0  0  0  0
 40 48  1  0  0  0  0
 40 41  2  0  0  0  0
 41 42  1  0  0  0  0
 42 43  1  0  0  0  0
 42 46  1  0  0  0  0
 43 44  1  1  0  0  0
 43 45  1  0  0  0  0
 43 46  1  0  0  0  0
 45 46  1  0  0  0  0
 45 37  1  1  0  0  0
 46 47  1  1  0  0  0
 48 47  1  0  0  0  0
 49 48  1  0  0  0  0
 50 51  1  0  0  0  0
 50 40  1  0  0  0  0
 52 41  1  0  0  0  0
 52 53  2  0  0  0  0
 54 52  1  0  0  0  0
 55 54  1  0  0  0  0
M  END
>  <minimizedAffinity>
-6.99348068

$$$$

 OpenBabel03242519333D

 55 60  0  0  1  0  0  0  0  0999 V2000
   38.1270   32.5950   39.7740 C   0  0  0  0  0  0  0  0  0  0  0  0
   37.9580   32.1810   38.5110 N   0  0  0  0  0  0  0  0  0  0  0  0
   37.0330   31.1900   38.4840 C   0  0  0  0  0  0  0  0  0  0  0  0
   36.6350   31.0000   39.7580 N   0  0  0  0  0  0  0  0  0  0  0  0
   37.2930   31.8480   40.5510 N   0  0  0  0  0  0  0  0  0  0  0  0
   36.6820   30.6520   37.5960 H   0  0  0  0  0  0  0  0  0  0  0  0
   41.1670   34.5210   40.5340 C   0  0  0  0  0  0  0  0  0  0  0  0
   40.6240   35.8400   40.5390 C   0  0  0  0  0  0  0  0  0  0  0  0
   39.2570   36.0360   40.2900 C   0  0  0  0  0  0  0  0  0  0  0  0
   38.5140   34.9140   40.0520 N   0  0  0  0  0  0  0  0  0  0  0  0
   39.0770   33.6640   40.0570 C   0  0  0  0  0  0  0  0  0  0  0  0
   40.3690   33.4910   40.2930 N   0  0  0  0  0  0  0  0  0  0  0  0
   41.1600   36.7620   40.7200 H   0  0  0  0  0  0  0  0  0  0  0  0
   38.8110   36.9990   40.2850 H   0  0  0  0  0  0  0  0  0  0  0  0
   42.6030   34.4580   40.8040 C   0  0  0  0  0  0  0  0  0  0  0  0
   43.1010   33.1560   41.1680 C   0  0  0  0  0  0  0  0  0  0  0  0
   43.5850   33.0310   42.5490 C   0  0  0  0  0  0  0  0  0  0  0  0
   44.6390   34.0940   42.8700 C   0  0  0  0  0  0  0  0  0  0  0  0
   44.3210   35.4470   42.3230 C   0  0  0  0  0  0  0  0  0  0  0  0
   42.8630   35.5420   41.9030 C   0  0  0  0  0  0  0  0  0  0  0  0
   43.1380   34.9090   39.9220 H   0  0  0  0  0  0  0  0  0  0  0  0
   42.3240   32.3640   41.0040 H   0  0  0  0  0  0  0  0  0  0  0  0
   43.9340   32.8530   40.4800 H   0  0  0  0  0  0  0  0  0  0  0  0
   44.1570   32.0590   42.6270 H   0  0  0  0  0  0  0  0  0  0  0  0
   42.8430   32.9790   43.3520 H   0  0  0  0  0  0  0  0  0  0  0  0
   44.6400   34.1860   43.9880 H   0  0  0  0  0  0  0  0  0  0  0  0
   45.6600   33.7440   42.6180 H   0  0  0  0  0  0  0  0  0  0  0  0
   44.9220   35.6020   41.3940 H   0  0  0  0  0  0  0  0  0  0  0  0
   44.5140   36.2820   43.0060 H   0  0  0  0  0  0  0  0  0  0  0  0
   42.1820   35.3530   42.7600 H   0  0  0  0  0  0  0  0  0  0  0  0
   42.6710   36.5050   41.4330 H   0  0  0  0  0  0  0  0  0  0  0  0
   35.6760   30.0420   40.2500 C   0  0  0  0  0  0  0  0  0  0  0  0
   35.3280   29.4110   39.4510 H   0  0  0  0  0  0  0  0  0  0  0  0
   34.7650   30.6080   40.6070 H   0  0  0  0  0  0  0  0  0  0  0  0
   36.2620   29.2530   41.3340 C   0  0  0  0  0  3  0  0  0  0  0  0
   36.3480   27.9590   41.5920 C   0  0  0  0  0  3  0  0  0  0  0  0
   37.0870   27.2920   42.7670 C   0  0  0  0  0  0  0  0  0  0  0  0
   37.4740   28.1330   43.3700 H   0  0  0  0  0  0  0  0  0  0  0  0
   36.3510   26.6900   43.3160 H   0  0  0  0  0  0  0  0  0  0  0  0
   41.0100   25.2120   39.9590 C   0  0  0  0  0  0  0  0  0  0  0  0
   41.1810   25.5790   41.2010 C   0  0  0  0  0  0  0  0  0  0  0  0
   40.1590   26.1450   41.9660 N   0  0  0  0  0  0  0  0  0  0  0  0
   39.3970   26.3560   43.1540 C   0  0  2  0  0  0  0  0  0  0  0  0
   39.7830   26.3960   44.3490 O   0  0  0  0  0  1  0  0  0  0  0  0
   38.2120   26.4610   42.2810 C   0  0  2  0  0  3  0  0  0  0  0  0
   39.2160   27.1020   41.3870 C   0  0  2  0  0  0  0  0  0  0  0  0
   39.0060   26.9420   39.6230 S   0  0  0  0  0  0  0  0  0  0  0  0
   39.7390   25.3510   39.2470 C   0  0  0  0  0  3  0  0  0  0  0  0
   38.9990   24.5720   39.5340 H   0  0  0  0  0  0  0  0  0  0  0  0
   42.1680   24.6340   39.2740 C   0  0  0  0  0  2  0  0  0  0  0  0
   43.1110   25.1920   39.5310 H   0  0  0  0  0  0  0  0  0  0  0  0
   42.4850   25.3990   41.8310 C   0  0  0  0  0  0  0  0  0  0  0  0
   42.6940   25.2170   43.0740 O   0  0  0  0  0  0  0  0  0  0  0  0
   43.8240   25.2610   42.1330 O   0  0  0  0  0  0  0  0  0  0  0  0
   44.5630   25.0760   41.4660 H   0  0  0  0  0  0  0  0  0  0  0  0
  1 11  1  0  0  0  0
  1  5  2  0  0  0  0
  2  1  1  0  0  0  0
  3  2  2  0  0  0  0
  3  4  1  0  0  0  0
  4 32  1  0  0  0  0
  4  5  1  0  0  0  0
  6  3  1  0  0  0  0
  7  8  1  0  0  0  0
  7 15  1  0  0  0  0
  8 13  1  0  0  0  0
  9  8  2  0  0  0  0
 10 11  2  0  0  0  0
 10  9  1  0  0  0  0
 11 12  1  0  0  0  0
 12  7  2  0  0  0  0
 14  9  1  0  0  0  0
 15 16  1  0  0  0  0
 15 20  1  0  0  0  0
 16 17  1  0  0  0  0
 17 24  1  0  0  0  0
 17 18  1  0  0  0  0
 17 25  1  0  0  0  0
 18 26  1  0  0  0  0
 19 18  1  0  0  0  0
 19 29  1  0  0  0  0
 20 19  1  0  0  0  0
 20 30  1  0  0  0  0
 21 15  1  0  0  0  0
 22 16  1  0  0  0  0
 23 16  1  0  0  0  0
 27 18  1  0  0  0  0
 28 19  1  0  0  0  0
 31 20  1  0  0  0  0
 32 34  1  0  0  0  0
 32 35  1  0  0  0  0
 33 32  1  0  0  0  0
 35 36  2  0  0  0  0
 36 37  1  0  0  0  0
 37 39  1  0  0  0  0
 37 38  1  0  0  0  0
 40 41  2  0  0  0  0
 41 52  1  0  0  0  0
 41 42  1  0  0  0  0
 42 43  1  0  0  0  0
 43 44  1  1  0  0  0
 45 37  1  1  0  0  0
 45 43  1  0  0  0  0
 46 47  1  6  0  0  0
 46 42  1  0  0  0  0
 46 45  1  0  0  0  0
 46 43  1  0  0  0  0
 48 49  1  0  0  0  0
 48 47  1  0  0  0  0
 48 40  1  0  0  0  0
 50 51  1  0  0  0  0
 50 40  1  0  0  0  0
 52 54  1  0  0  0  0
 52 53  2  0  0  0  0
 55 54  1  0  0  0  0
M  END
>  <minimizedAffinity>
-6.85077715

$$$$

 OpenBabel03242519333D

 55 60  0  0  1  0  0  0  0  0999 V2000
   40.3360   27.9090   43.2640 C   0  0  0  0  0  0  0  0  0  0  0  0
   40.6820   26.8220   43.9670 N   0  0  0  0  0  0  0  0  0  0  0  0
   41.9920   26.9090   44.3070 C   0  0  0  0  0  0  0  0  0  0  0  0
   42.4470   28.0710   43.7970 N   0  0  0  0  0  0  0  0  0  0  0  0
   41.4490   28.6880   43.1610 N   0  0  0  0  0  0  0  0  0  0  0  0
   42.5640   26.1720   44.8840 H   0  0  0  0  0  0  0  0  0  0  0  0
   37.2860   28.9940   41.5150 C   0  0  0  0  0  0  0  0  0  0  0  0
   36.3510   28.0660   42.0590 C   0  0  0  0  0  0  0  0  0  0  0  0
   36.7750   27.1100   42.9960 C   0  0  0  0  0  0  0  0  0  0  0  0
   38.1000   27.1350   43.3340 N   0  0  0  0  0  0  0  0  0  0  0  0
   38.9650   28.0450   42.7860 C   0  0  0  0  0  0  0  0  0  0  0  0
   38.5530   28.9430   41.9030 N   0  0  0  0  0  0  0  0  0  0  0  0
   35.2960   27.9980   41.8320 H   0  0  0  0  0  0  0  0  0  0  0  0
   36.1130   26.4010   43.4270 H   0  0  0  0  0  0  0  0  0  0  0  0
   36.7150   29.9320   40.5500 C   0  0  0  0  0  0  0  0  0  0  0  0
   36.7430   29.4910   39.1780 C   0  0  0  0  0  0  0  0  0  0  0  0
   37.6240   30.2580   38.2880 C   0  0  0  0  0  0  0  0  0  0  0  0
   37.3050   31.7550   38.3420 C   0  0  0  0  0  0  0  0  0  0  0  0
   37.0250   32.2660   39.7180 C   0  0  0  0  0  0  0  0  0  0  0  0
   37.4840   31.2760   40.7770 C   0  0  0  0  0  0  0  0  0  0  0  0
   35.6840   30.2080   40.9080 H   0  0  0  0  0  0  0  0  0  0  0  0
   37.0380   28.4120   39.1050 H   0  0  0  0  0  0  0  0  0  0  0  0
   35.7090   29.5100   38.7430 H   0  0  0  0  0  0  0  0  0  0  0  0
   37.3720   29.9730   37.2240 H   0  0  0  0  0  0  0  0  0  0  0  0
   38.7040   30.0990   38.3690 H   0  0  0  0  0  0  0  0  0  0  0  0
   38.2350   32.2710   37.9850 H   0  0  0  0  0  0  0  0  0  0  0  0
   36.5290   32.0330   37.6010 H   0  0  0  0  0  0  0  0  0  0  0  0
   35.9190   32.3610   39.8400 H   0  0  0  0  0  0  0  0  0  0  0  0
   37.4860   33.2310   39.9580 H   0  0  0  0  0  0  0  0  0  0  0  0
   38.5750   31.0810   40.7010 H   0  0  0  0  0  0  0  0  0  0  0  0
   37.1990   31.6280   41.7660 H   0  0  0  0  0  0  0  0  0  0  0  0
   43.7830   28.6070   43.8750 C   0  0  0  0  0  0  0  0  0  0  0  0
   44.4760   27.9730   43.3490 H   0  0  0  0  0  0  0  0  0  0  0  0
   44.1110   28.5790   44.9570 H   0  0  0  0  0  0  0  0  0  0  0  0
   43.8100   29.9730   43.3530 C   0  0  0  0  0  3  0  0  0  0  0  0
   44.0290   31.1620   43.8890 C   0  0  0  0  0  3  0  0  0  0  0  0
   44.0960   32.5140   43.1550 C   0  0  0  0  0  0  0  0  0  0  0  0
   43.3640   33.1550   43.6780 H   0  0  0  0  0  0  0  0  0  0  0  0
   45.1240   32.8890   43.2540 H   0  0  0  0  0  0  0  0  0  0  0  0
   41.4440   31.9620   38.6520 C   0  0  0  0  0  0  0  0  0  0  0  0
   42.3100   32.9260   38.8200 C   0  0  0  0  0  0  0  0  0  0  0  0
   43.0190   33.1030   40.0100 N   0  0  0  0  0  0  0  0  0  0  0  0
   44.1690   33.4100   40.7980 C   0  0  2  0  0  0  0  0  0  0  0  0
   45.0710   34.2600   40.5900 O   0  0  0  0  0  1  0  0  0  0  0  0
   43.7090   32.3650   41.7330 C   0  0  2  0  0  3  0  0  0  0  0  0
   42.3840   32.8980   41.3120 C   0  0  2  0  0  0  0  0  0  0  0  0
   40.9940   31.7820   41.2770 S   0  0  0  0  0  0  0  0  0  0  0  0
   41.1350   30.9720   39.6850 C   0  0  0  0  0  3  0  0  0  0  0  0
   41.9210   30.1920   39.7810 H   0  0  0  0  0  0  0  0  0  0  0  0
   40.7700   31.8950   37.3540 C   0  0  0  0  0  2  0  0  0  0  0  0
   40.4880   32.9220   36.9920 H   0  0  0  0  0  0  0  0  0  0  0  0
   42.5580   33.8670   37.7320 C   0  0  0  0  0  0  0  0  0  0  0  0
   42.4220   35.1320   37.7930 O   0  0  0  0  0  0  0  0  0  0  0  0
   42.8660   34.4960   36.5440 O   0  0  0  0  0  0  0  0  0  0  0  0
   43.3730   34.0810   35.7710 H   0  0  0  0  0  0  0  0  0  0  0  0
  1  2  1  0  0  0  0
  2  3  2  0  0  0  0
  3  6  1  0  0  0  0
  4 32  1  0  0  0  0
  4  3  1  0  0  0  0
  5  1  2  0  0  0  0
  5  4  1  0  0  0  0
  7 12  2  0  0  0  0
  7  8  1  0  0  0  0
  8  9  2  0  0  0  0
  9 10  1  0  0  0  0
  9 14  1  0  0  0  0
 11  1  1  0  0  0  0
 11 10  2  0  0  0  0
 12 11  1  0  0  0  0
 13  8  1  0  0  0  0
 15 20  1  0  0  0  0
 15 21  1  0  0  0  0
 15  7  1  0  0  0  0
 16 15  1  0  0  0  0
 17 18  1  0  0  0  0
 17 25  1  0  0  0  0
 17 16  1  0  0  0  0
 18 19  1  0  0  0  0
 19 28  1  0  0  0  0
 19 29  1  0  0  0  0
 19 20  1  0  0  0  0
 20 31  1  0  0  0  0
 22 16  1  0  0  0  0
 23 16  1  0  0  0  0
 24 17  1  0  0  0  0
 26 18  1  0  0  0  0
 27 18  1  0  0  0  0
 30 20  1  0  0  0  0
 32 34  1  0  0  0  0
 33 32  1  0  0  0  0
 35 32  1  0  0  0  0
 35 36  2  0  0  0  0
 37 39  1  0  0  0  0
 37 38  1  0  0  0  0
 37 36  1  0  0  0  0
 40 41  2  0  0  0  0
 40 48  1  0  0  0  0
 41 42  1  0  0  0  0
 42 43  1  0  0  0  0
 42 46  1  0  0  0  0
 43 44  1  1  0  0  0
 43 46  1  0  0  0  0
 43 45  1  0  0  0  0
 45 37  1  1  0  0  0
 46 47  1  1  0  0  0
 46 45  1  0  0  0  0
 48 49  1  0  0  0  0
 48 47  1  0  0  0  0
 50 40  1  0  0  0  0
 51 50  1  0  0  0  0
 52 53  2  0  0  0  0
 52 41  1  0  0  0  0
 54 52  1  0  0  0  0
 55 54  1  0  0  0  0
M  END
>  <minimizedAffinity>
-6.61792564

$$$$

 OpenBabel03242519333D

 55 60  0  0  1  0  0  0  0  0999 V2000
   41.6120   32.7530   40.6250 C   0  0  0  0  0  0  0  0  0  0  0  0
   42.5530   33.7070   40.6250 N   0  0  0  0  0  0  0  0  0  0  0  0
   43.7570   33.1470   40.9010 C   0  0  0  0  0  0  0  0  0  0  0  0
   43.5390   31.8270   41.0710 N   0  0  0  0  0  0  0  0  0  0  0  0
   42.2380   31.5760   40.9050 N   0  0  0  0  0  0  0  0  0  0  0  0
   44.7170   33.6720   40.9690 H   0  0  0  0  0  0  0  0  0  0  0  0
   38.0130   32.6650   39.8670 C   0  0  0  0  0  0  0  0  0  0  0  0
   37.7270   34.0620   39.8830 C   0  0  0  0  0  0  0  0  0  0  0  0
   38.7530   34.9850   40.1440 C   0  0  0  0  0  0  0  0  0  0  0  0
   39.9960   34.4650   40.3730 N   0  0  0  0  0  0  0  0  0  0  0  0
   40.2260   33.1140   40.3490 C   0  0  0  0  0  0  0  0  0  0  0  0
   39.2500   32.2520   40.1010 N   0  0  0  0  0  0  0  0  0  0  0  0
   36.7680   34.5310   39.7090 H   0  0  0  0  0  0  0  0  0  0  0  0
   38.5850   36.0330   40.1650 H   0  0  0  0  0  0  0  0  0  0  0  0
   36.8570   31.8150   39.5860 C   0  0  0  0  0  0  0  0  0  0  0  0
   36.3610   31.0650   40.7110 C   0  0  0  0  0  0  0  0  0  0  0  0
   36.5240   29.6080   40.6180 C   0  0  0  0  0  0  0  0  0  0  0  0
   35.9150   29.0600   39.3240 C   0  0  0  0  0  0  0  0  0  0  0  0
   36.1800   29.9070   38.1230 C   0  0  0  0  0  0  0  0  0  0  0  0
   37.2960   30.9060   38.3890 C   0  0  0  0  0  0  0  0  0  0  0  0
   36.0710   32.4560   39.0960 H   0  0  0  0  0  0  0  0  0  0  0  0
   36.8400   31.4020   41.6670 H   0  0  0  0  0  0  0  0  0  0  0  0
   35.2720   31.2820   40.8730 H   0  0  0  0  0  0  0  0  0  0  0  0
   35.8910   29.1380   41.4270 H   0  0  0  0  0  0  0  0  0  0  0  0
   37.5240   29.1910   40.7710 H   0  0  0  0  0  0  0  0  0  0  0  0
   36.4240   28.0760   39.1480 H   0  0  0  0  0  0  0  0  0  0  0  0
   34.8450   28.8010   39.4550 H   0  0  0  0  0  0  0  0  0  0  0  0
   35.2660   30.5130   37.9090 H   0  0  0  0  0  0  0  0  0  0  0  0
   36.4520   29.3560   37.2150 H   0  0  0  0  0  0  0  0  0  0  0  0
   38.2420   30.3920   38.6590 H   0  0  0  0  0  0  0  0  0  0  0  0
   37.4180   31.5670   37.5330 H   0  0  0  0  0  0  0  0  0  0  0  0
   44.5040   30.8080   41.3980 C   0  0  0  0  0  0  0  0  0  0  0  0
   45.4700   31.2470   41.5790 H   0  0  0  0  0  0  0  0  0  0  0  0
   44.6380   30.1460   40.4910 H   0  0  0  0  0  0  0  0  0  0  0  0
   44.0470   30.0330   42.5520 C   0  0  0  0  0  3  0  0  0  0  0  0
   43.5250   28.8280   42.7060 C   0  0  0  0  0  3  0  0  0  0  0  0
   43.1700   28.1310   44.0330 C   0  0  0  0  0  0  0  0  0  0  0  0
   43.9560   27.3680   44.1690 H   0  0  0  0  0  0  0  0  0  0  0  0
   43.1910   28.8970   44.8190 H   0  0  0  0  0  0  0  0  0  0  0  0
   38.1830   26.9050   42.9220 C   0  0  0  0  0  0  0  0  0  0  0  0
   39.1540   26.0550   42.7240 C   0  0  0  0  0  0  0  0  0  0  0  0
   40.4890   26.3590   42.9990 N   0  0  0  0  0  0  0  0  0  0  0  0
   41.8090   26.0840   43.4670 C   0  0  2  0  0  0  0  0  0  0  0  0
   42.4740   25.0200   43.3930 O   0  0  0  0  0  1  0  0  0  0  0  0
   41.8440   27.4780   43.9490 C   0  0  2  0  0  3  0  0  0  0  0  0
   41.0440   27.6820   42.7100 C   0  0  2  0  0  0  0  0  0  0  0  0
   39.8330   28.9900   42.6870 S   0  0  0  0  0  0  0  0  0  0  0  0
   38.3910   28.2530   43.4540 C   0  0  0  0  0  3  0  0  0  0  0  0
   38.5630   28.2590   44.5520 H   0  0  0  0  0  0  0  0  0  0  0  0
   36.8300   26.4550   42.5880 C   0  0  0  0  0  2  0  0  0  0  0  0
   36.8240   25.8680   41.6290 H   0  0  0  0  0  0  0  0  0  0  0  0
   38.8530   24.7290   42.1920 C   0  0  0  0  0  0  0  0  0  0  0  0
   39.4080   24.1850   41.1850 O   0  0  0  0  0  0  0  0  0  0  0  0
   38.3590   23.4690   41.9270 O   0  0  0  0  0  0  0  0  0  0  0  0
   37.8060   22.9070   42.5610 H   0  0  0  0  0  0  0  0  0  0  0  0
  1  5  2  0  0  0  0
  2  1  1  0  0  0  0
  2  3  2  0  0  0  0
  3  6  1  0  0  0  0
  3  4  1  0  0  0  0
  4 32  1  0  0  0  0
  5  4  1  0  0  0  0
  7  8  2  0  0  0  0
  7 12  1  0  0  0  0
  8  9  1  0  0  0  0
  9 14  1  0  0  0  0
  9 10  2  0  0  0  0
 11 10  1  0  0  0  0
 11  1  1  0  0  0  0
 12 11  2  0  0  0  0
 13  8  1  0  0  0  0
 15  7  1  0  0  0  0
 15 16  1  0  0  0  0
 16 23  1  0  0  0  0
 16 22  1  0  0  0  0
 17 16  1  0  0  0  0
 17 25  1  0  0  0  0
 17 24  1  0  0  0  0
 18 27  1  0  0  0  0
 18 17  1  0  0  0  0
 19 20  1  0  0  0  0
 19 18  1  0  0  0  0
 20 30  1  0  0  0  0
 20 15  1  0  0  0  0
 21 15  1  0  0  0  0
 26 18  1  0  0  0  0
 28 19  1  0  0  0  0
 29 19  1  0  0  0  0
 31 20  1  0  0  0  0
 32 33  1  0  0  0  0
 32 35  1  0  0  0  0
 34 32  1  0  0  0  0
 35 36  2  0  0  0  0
 36 37  1  0  0  0  0
 37 38  1  0  0  0  0
 37 39  1  0  0  0  0
 40 48  1  0  0  0  0
 41 40  2  0  0  0  0
 41 42  1  0  0  0  0
 42 43  1  0  0  0  0
 43 44  1  6  0  0  0
 43 45  1  0  0  0  0
 45 37  1  6  0  0  0
 46 47  1  6  0  0  0
 46 42  1  0  0  0  0
 46 43  1  0  0  0  0
 46 45  1  0  0  0  0
 47 48  1  0  0  0  0
 48 49  1  0  0  0  0
 50 40  1  0  0  0  0
 51 50  1  0  0  0  0
 52 41  1  0  0  0  0
 53 52  2  0  0  0  0
 54 52  1  0  0  0  0
 54 55  1  0  0  0  0
M  END
>  <minimizedAffinity>
-6.59146404

$$$$

 OpenBabel03242519333D

 55 60  0  0  1  0  0  0  0  0999 V2000
   43.4260   30.7190   43.3380 C   0  0  0  0  0  0  0  0  0  0  0  0
   44.7380   30.6210   43.5920 N   0  0  0  0  0  0  0  0  0  0  0  0
   45.3170   31.8370   43.4330 C   0  0  0  0  0  0  0  0  0  0  0  0
   44.3340   32.6880   43.0750 N   0  0  0  0  0  0  0  0  0  0  0  0
   43.1800   32.0190   43.0140 N   0  0  0  0  0  0  0  0  0  0  0  0
   46.3780   32.0750   43.5710 H   0  0  0  0  0  0  0  0  0  0  0  0
   40.6780   28.2890   43.0590 C   0  0  0  0  0  0  0  0  0  0  0  0
   41.2410   27.2010   43.7900 C   0  0  0  0  0  0  0  0  0  0  0  0
   42.5220   27.3230   44.3530 C   0  0  0  0  0  0  0  0  0  0  0  0
   43.1630   28.5130   44.1570 N   0  0  0  0  0  0  0  0  0  0  0  0
   42.5850   29.5330   43.4470 C   0  0  0  0  0  0  0  0  0  0  0  0
   41.3760   29.4070   42.9190 N   0  0  0  0  0  0  0  0  0  0  0  0
   40.7840   26.2390   43.9780 H   0  0  0  0  0  0  0  0  0  0  0  0
   42.9790   26.5390   44.9050 H   0  0  0  0  0  0  0  0  0  0  0  0
   39.3430   28.0290   42.5230 C   0  0  0  0  0  0  0  0  0  0  0  0
   38.3350   28.9870   42.9020 C   0  0  0  0  0  0  0  0  0  0  0  0
   37.2770   28.4730   43.7820 C   0  0  0  0  0  0  0  0  0  0  0  0
   36.6100   27.2310   43.1850 C   0  0  0  0  0  0  0  0  0  0  0  0
   37.5660   26.2750   42.5510 C   0  0  0  0  0  0  0  0  0  0  0  0
   38.9980   26.5690   42.9690 C   0  0  0  0  0  0  0  0  0  0  0  0
   39.4390   27.9000   41.4090 H   0  0  0  0  0  0  0  0  0  0  0  0
   38.7920   29.8810   43.4010 H   0  0  0  0  0  0  0  0  0  0  0  0
   37.8470   29.4180   41.9880 H   0  0  0  0  0  0  0  0  0  0  0  0
   36.4440   29.2370   43.8010 H   0  0  0  0  0  0  0  0  0  0  0  0
   37.5200   28.3030   44.8350 H   0  0  0  0  0  0  0  0  0  0  0  0
   36.1430   26.6970   44.0540 H   0  0  0  0  0  0  0  0  0  0  0  0
   35.7560   27.5010   42.5320 H   0  0  0  0  0  0  0  0  0  0  0  0
   37.5290   26.4220   41.4440 H   0  0  0  0  0  0  0  0  0  0  0  0
   37.3790   25.2170   42.7670 H   0  0  0  0  0  0  0  0  0  0  0  0
   39.1200   26.4920   44.0710 H   0  0  0  0  0  0  0  0  0  0  0  0
   39.6850   25.9160   42.4340 H   0  0  0  0  0  0  0  0  0  0  0  0
   44.4490   34.0930   42.7740 C   0  0  0  0  0  0  0  0  0  0  0  0
   45.4690   34.4190   42.8750 H   0  0  0  0  0  0  0  0  0  0  0  0
   43.8690   34.6690   43.5560 H   0  0  0  0  0  0  0  0  0  0  0  0
   43.9330   34.3650   41.4320 C   0  0  0  0  0  3  0  0  0  0  0  0
   43.9160   33.6900   40.2960 C   0  0  0  0  0  3  0  0  0  0  0  0
   43.2450   34.1090   38.9740 C   0  0  0  0  0  0  0  0  0  0  0  0
   43.0830   35.1970   39.0740 H   0  0  0  0  0  0  0  0  0  0  0  0
   43.9420   33.8640   38.1620 H   0  0  0  0  0  0  0  0  0  0  0  0
   39.2970   30.6430   39.0190 C   0  0  0  0  0  0  0  0  0  0  0  0
   39.1440   31.8560   39.4770 C   0  0  0  0  0  0  0  0  0  0  0  0
   40.1780   32.7940   39.4880 N   0  0  0  0  0  0  0  0  0  0  0  0
   40.7490   34.0940   39.3410 C   0  0  2  0  0  0  0  0  0  0  0  0
   40.2560   35.2150   39.6220 O   0  0  0  0  0  1  0  0  0  0  0  0
   41.9460   33.4210   38.7990 C   0  0  2  0  0  3  0  0  0  0  0  0
   41.5520   32.4080   39.8160 C   0  0  2  0  0  0  0  0  0  0  0  0
   41.9230   30.6940   39.4950 S   0  0  0  0  0  0  0  0  0  0  0  0
   40.5590   30.1450   38.4710 C   0  0  0  0  0  3  0  0  0  0  0  0
   40.7530   30.5120   37.4390 H   0  0  0  0  0  0  0  0  0  0  0  0
   38.1270   29.7630   39.0700 C   0  0  0  0  0  2  0  0  0  0  0  0
   37.5660   29.8920   40.0370 H   0  0  0  0  0  0  0  0  0  0  0  0
   37.8460   32.2680   40.0040 C   0  0  0  0  0  0  0  0  0  0  0  0
   37.2680   33.3810   39.7800 O   0  0  0  0  0  0  0  0  0  0  0  0
   36.6260   32.3740   40.6380 O   0  0  0  0  0  0  0  0  0  0  0  0
   36.1020   31.6070   41.0400 H   0  0  0  0  0  0  0  0  0  0  0  0
  1 11  1  0  0  0  0
  1  2  1  0  0  0  0
  3  6  1  0  0  0  0
  3  2  2  0  0  0  0
  4  3  1  0  0  0  0
  5  4  1  0  0  0  0
  5  1  2  0  0  0  0
  7  8  1  0  0  0  0
  8 13  1  0  0  0  0
  8  9  2  0  0  0  0
  9 14  1  0  0  0  0
 10  9  1  0  0  0  0
 11 10  2  0  0  0  0
 12  7  2  0  0  0  0
 12 11  1  0  0  0  0
 15 16  1  0  0  0  0
 15 20  1  0  0  0  0
 15  7  1  0  0  0  0
 16 22  1  0  0  0  0
 16 17  1  0  0  0  0
 17 24  1  0  0  0  0
 17 25  1  0  0  0  0
 18 17  1  0  0  0  0
 18 26  1  0  0  0  0
 19 29  1  0  0  0  0
 19 20  1  0  0  0  0
 19 18  1  0  0  0  0
 20 30  1  0  0  0  0
 21 15  1  0  0  0  0
 23 16  1  0  0  0  0
 27 18  1  0  0  0  0
 28 19  1  0  0  0  0
 31 20  1  0  0  0  0
 32 33  1  0  0  0  0
 32  4  1  0  0  0  0
 32 34  1  0  0  0  0
 35 32  1  0  0  0  0
 36 35  2  0  0  0  0
 37 38  1  0  0  0  0
 37 36  1  0  0  0  0
 39 37  1  0  0  0  0
 40 50  1  0  0  0  0
 40 41  2  0  0  0  0
 41 42  1  0  0  0  0
 41 52  1  0  0  0  0
 42 46  1  0  0  0  0
 43 42  1  0  0  0  0
 43 44  1  1  0  0  0
 43 46  1  0  0  0  0
 45 37  1  1  0  0  0
 45 43  1  0  0  0  0
 45 46  1  0  0  0  0
 46 47  1  1  0  0  0
 48 40  1  0  0  0  0
 48 47  1  0  0  0  0
 49 48  1  0  0  0  0
 50 51  1  0  0  0  0
 52 54  1  0  0  0  0
 53 52  2  0  0  0  0
 54 55  1  0  0  0  0
M  END
>  <minimizedAffinity>
-6.55767679

$$$$

 OpenBabel03242519333D

 55 60  0  0  1  0  0  0  0  0999 V2000
   37.2250   30.3570   40.4990 C   0  0  0  0  0  0  0  0  0  0  0  0
   37.0720   30.3220   39.1680 N   0  0  0  0  0  0  0  0  0  0  0  0
   37.1280   31.5860   38.6790 C   0  0  0  0  0  0  0  0  0  0  0  0
   37.3190   32.4010   39.7360 N   0  0  0  0  0  0  0  0  0  0  0  0
   37.3800   31.6650   40.8480 N   0  0  0  0  0  0  0  0  0  0  0  0
   37.0370   31.8800   37.6270 H   0  0  0  0  0  0  0  0  0  0  0  0
   37.0680   26.8160   41.4850 C   0  0  0  0  0  0  0  0  0  0  0  0
   37.2130   26.9500   42.8970 C   0  0  0  0  0  0  0  0  0  0  0  0
   37.3540   28.2240   43.4690 C   0  0  0  0  0  0  0  0  0  0  0  0
   37.3450   29.2850   42.6070 N   0  0  0  0  0  0  0  0  0  0  0  0
   37.2040   29.1100   41.2550 C   0  0  0  0  0  0  0  0  0  0  0  0
   37.0700   27.9020   40.7250 N   0  0  0  0  0  0  0  0  0  0  0  0
   37.2280   26.1530   43.6270 H   0  0  0  0  0  0  0  0  0  0  0  0
   37.4640   28.3710   44.5160 H   0  0  0  0  0  0  0  0  0  0  0  0
   36.9330   25.4360   41.0200 C   0  0  0  0  0  0  0  0  0  0  0  0
   37.2840   24.4280   41.9870 C   0  0  0  0  0  0  0  0  0  0  0  0
   38.4800   23.6380   41.6680 C   0  0  0  0  0  0  0  0  0  0  0  0
   38.3770   23.0060   40.2780 C   0  0  0  0  0  0  0  0  0  0  0  0
   37.7960   23.9110   39.2410 C   0  0  0  0  0  0  0  0  0  0  0  0
   37.7910   25.3560   39.7130 C   0  0  0  0  0  0  0  0  0  0  0  0
   35.8930   25.3140   40.6060 H   0  0  0  0  0  0  0  0  0  0  0  0
   37.4300   24.8740   43.0050 H   0  0  0  0  0  0  0  0  0  0  0  0
   36.4280   23.7160   42.1340 H   0  0  0  0  0  0  0  0  0  0  0  0
   38.5010   22.7470   42.3630 H   0  0  0  0  0  0  0  0  0  0  0  0
   39.4590   24.1110   41.7960 H   0  0  0  0  0  0  0  0  0  0  0  0
   39.4330   22.7910   39.9680 H   0  0  0  0  0  0  0  0  0  0  0  0
   37.8900   22.0110   40.3180 H   0  0  0  0  0  0  0  0  0  0  0  0
   36.7260   23.6300   39.0880 H   0  0  0  0  0  0  0  0  0  0  0  0
   38.3030   23.8920   38.2700 H   0  0  0  0  0  0  0  0  0  0  0  0
   38.8190   25.7110   39.9380 H   0  0  0  0  0  0  0  0  0  0  0  0
   37.2910   25.9870   38.9810 H   0  0  0  0  0  0  0  0  0  0  0  0
   37.4280   33.8390   39.7350 C   0  0  0  0  0  0  0  0  0  0  0  0
   36.6270   34.2790   40.3030 H   0  0  0  0  0  0  0  0  0  0  0  0
   37.2820   34.2010   38.6740 H   0  0  0  0  0  0  0  0  0  0  0  0
   38.7340   34.2450   40.2540 C   0  0  0  0  0  3  0  0  0  0  0  0
   39.9720   34.1790   39.7940 C   0  0  0  0  0  3  0  0  0  0  0  0
   41.2420   34.7410   40.4580 C   0  0  0  0  0  0  0  0  0  0  0  0
   41.2650   35.8060   40.1660 H   0  0  0  0  0  0  0  0  0  0  0  0
   41.1300   34.6080   41.5420 H   0  0  0  0  0  0  0  0  0  0  0  0
   44.9250   31.1970   39.2370 C   0  0  0  0  0  0  0  0  0  0  0  0
   44.3830   31.9600   38.3250 C   0  0  0  0  0  0  0  0  0  0  0  0
   43.3950   32.9010   38.6200 N   0  0  0  0  0  0  0  0  0  0  0  0
   42.7300   34.1590   38.5050 C   0  0  2  0  0  0  0  0  0  0  0  0
   42.5670   34.8820   37.4920 O   0  0  0  0  0  1  0  0  0  0  0  0
   42.4530   34.0550   39.9520 C   0  0  2  0  0  3  0  0  0  0  0  0
   42.3360   32.6150   39.5890 C   0  0  2  0  0  0  0  0  0  0  0  0
   42.7780   31.3940   40.8110 S   0  0  0  0  0  0  0  0  0  0  0  0
   44.5570   31.2540   40.6530 C   0  0  0  0  0  3  0  0  0  0  0  0
   45.0040   32.1260   41.1780 H   0  0  0  0  0  0  0  0  0  0  0  0
   45.9490   30.2520   38.7880 C   0  0  0  0  0  2  0  0  0  0  0  0
   45.6590   29.7750   37.8110 H   0  0  0  0  0  0  0  0  0  0  0  0
   44.8150   31.8370   36.9360 C   0  0  0  0  0  0  0  0  0  0  0  0
   44.2690   31.1070   36.0470 O   0  0  0  0  0  0  0  0  0  0  0  0
   45.4440   31.9260   35.7120 O   0  0  0  0  0  0  0  0  0  0  0  0
   46.1030   32.6440   35.4390 H   0  0  0  0  0  0  0  0  0  0  0  0
  1  5  2  0  0  0  0
  1 11  1  0  0  0  0
  2  1  1  0  0  0  0
  3  2  2  0  0  0  0
  3  4  1  0  0  0  0
  4  5  1  0  0  0  0
  6  3  1  0  0  0  0
  7  8  1  0  0  0  0
  8  9  2  0  0  0  0
  8 13  1  0  0  0  0
  9 14  1  0  0  0  0
 10  9  1  0  0  0  0
 11 10  2  0  0  0  0
 12 11  1  0  0  0  0
 12  7  2  0  0  0  0
 15  7  1  0  0  0  0
 15 16  1  0  0  0  0
 16 23  1  0  0  0  0
 16 22  1  0  0  0  0
 17 25  1  0  0  0  0
 17 16  1  0  0  0  0
 17 24  1  0  0  0  0
 18 27  1  0  0  0  0
 18 17  1  0  0  0  0
 19 20  1  0  0  0  0
 19 18  1  0  0  0  0
 20 30  1  0  0  0  0
 20 15  1  0  0  0  0
 21 15  1  0  0  0  0
 26 18  1  0  0  0  0
 28 19  1  0  0  0  0
 29 19  1  0  0  0  0
 31 20  1  0  0  0  0
 32  4  1  0  0  0  0
 32 35  1  0  0  0  0
 32 33  1  0  0  0  0
 34 32  1  0  0  0  0
 36 35  2  0  0  0  0
 36 37  1  0  0  0  0
 37 39  1  0  0  0  0
 38 37  1  0  0  0  0
 40 48  1  0  0  0  0
 41 42  1  0  0  0  0
 41 40  2  0  0  0  0
 42 46  1  0  0  0  0
 43 44  1  6  0  0  0
 43 42  1  0  0  0  0
 43 46  1  0  0  0  0
 43 45  1  0  0  0  0
 45 37  1  6  0  0  0
 46 45  1  0  0  0  0
 46 47  1  1  0  0  0
 48 47  1  0  0  0  0
 48 49  1  0  0  0  0
 50 40  1  0  0  0  0
 51 50  1  0  0  0  0
 52 41  1  0  0  0  0
 53 52  2  0  0  0  0
 54 52  1  0  0  0  0
 55 54  1  0  0  0  0
M  END
>  <minimizedAffinity>
-6.53247309

$$$$
