
     RDKit          3D

 51 55  0  0  0  0  0  0  0  0999 V2000
   45.2110   36.1581   43.4566 C   0  0  0  0  0  0  0  0  0  0  0  0
   45.8617   34.9536   43.1365 C   0  0  0  0  0  0  0  0  0  0  0  0
   45.8132   33.9904   44.1260 C   0  0  0  0  0  0  0  0  0  0  0  0
   45.1994   34.1825   45.2936 N   0  0  0  0  0  0  0  0  0  0  0  0
   44.5812   35.3690   45.5592 C   0  0  0  0  0  0  0  0  0  0  0  0
   44.5957   36.3421   44.6349 N   0  0  0  0  0  0  0  0  0  0  0  0
   46.4513   32.7372   43.8822 C   0  0  0  0  0  0  0  0  0  0  0  0
   47.7196   32.2678   43.9826 C   0  0  0  0  0  0  0  0  0  0  0  0
   48.0262   31.0201   43.6788 C   0  0  0  0  0  0  0  0  0  0  0  0
   47.0277   30.2266   43.2636 C   0  0  0  0  0  0  0  0  0  0  0  0
   45.5640   31.3122   43.3050 S   0  0  0  0  0  0  0  0  0  0  0  0
   46.5029   34.7971   41.8756 C   0  0  0  0  0  0  0  0  0  0  0  0
   47.6889   35.2377   41.8000 O   0  0  0  0  0  0  0  0  0  0  0  0
   45.7742   34.1418   40.7331 C   0  0  0  0  0  0  0  0  0  0  0  0
   44.4192   34.1377   40.5468 C   0  0  0  0  0  0  0  0  0  0  0  0
   44.2135   33.4420   39.4078 N   0  0  0  0  0  0  0  0  0  0  0  0
   45.4052   33.0404   38.9241 C   0  0  0  0  0  0  0  0  0  0  0  0
   46.3732   33.4754   39.7477 N   0  0  0  0  0  0  0  0  0  0  0  0
   45.7380   32.2856   37.7619 N   0  0  0  0  0  0  0  0  0  0  0  0
   42.9829   33.1176   38.7239 C   0  0  0  0  0  0  0  0  0  0  0  0
   45.2348   36.9291   42.6975 H   0  0  0  0  0  0  0  0  0  0  0  0
   44.0807   35.5252   46.5115 H   0  0  0  0  0  0  0  0  0  0  0  0
   48.4517   33.0223   44.3370 H   0  0  0  0  0  0  0  0  0  0  0  0
   49.0148   30.5777   43.7349 H   0  0  0  0  0  0  0  0  0  0  0  0
   46.9933   29.1675   42.9510 H   0  0  0  0  0  0  0  0  0  0  0  0
   43.6555   34.5774   41.1482 H   0  0  0  0  0  0  0  0  0  0  0  0
   45.3107   32.5096   36.8224 H   0  0  0  0  0  0  0  0  0  0  0  0
   46.4056   31.5005   37.8096 H   0  0  0  0  0  0  0  0  0  0  0  0
   42.2558   33.9213   38.9941 H   0  0  0  0  0  0  0  0  0  0  0  0
   43.0851   33.1470   37.6371 H   0  0  0  0  0  0  0  0  0  0  0  0
   44.0878   32.3698   44.3599 C   0  0  0  0  0  0  0  0  0  0  0  0
   45.1371   32.0386   44.4607 H   0  0  0  0  0  0  0  0  0  0  0  0
   43.5804   32.4038   42.9854 C   0  0  0  0  0  0  0  0  0  0  0  0
   43.5401   31.2781   42.3119 C   0  0  0  0  0  0  0  0  0  0  0  0
   43.9961   30.0158   42.9259 C   0  0  0  0  0  0  0  0  0  0  0  0
   44.0089   28.8828   42.3915 O   0  0  0  0  0  0  0  0  0  0  0  0
   44.4901   29.8158   44.1779 O   0  0  0  0  0  0  0  0  0  0  0  0
   43.0468   31.2585   40.9782 N   0  0  0  0  0  0  0  0  0  0  0  0
   43.3127   30.7893   39.6348 C   0  0  0  0  0  0  0  0  0  0  0  0
   44.0307   29.8931   39.0726 O   0  0  0  0  0  0  0  0  0  0  0  0
   42.3765   31.8133   39.1725 C   0  0  1  0  0  0  0  0  0  0  0  0
   41.8058   31.8886   40.5711 C   0  0  2  0  0  0  0  0  0  0  0  0
   41.7216   33.5037   41.3323 S   0  0  0  0  0  0  0  0  0  0  0  0
   43.1489   33.7083   42.4278 C   0  0  1  0  0  0  0  0  0  0  0  0
   42.9202   34.4104   43.2584 H   0  0  0  0  0  0  0  0  0  0  0  0
   44.0683   33.3887   44.8451 H   0  0  0  0  0  0  0  0  0  0  0  0
   43.4906   31.7299   45.0590 H   0  0  0  0  0  0  0  0  0  0  0  0
   45.3857   29.4285   44.3635 H   0  0  0  0  0  0  0  0  0  0  0  0
   41.5999   31.4320   38.4800 H   0  0  0  0  0  0  0  0  0  0  0  0
   40.9025   31.2477   40.7125 H   0  0  0  0  0  0  0  0  0  0  0  0
   43.9696   34.1973   41.8457 H   0  0  0  0  0  0  0  0  0  0  0  0
  1  6  2  0
  2  1  1  0
  2  3  2  0
  3  4  1  0
  4  5  2  0
  6  5  1  0
  7  8  2  0
  7  3  1  0
  9  8  1  0
 10 11  1  0
 10  9  2  0
 11  7  1  0
 12  2  1  0
 13 12  2  0
 14 12  1  0
 15 14  2  0
 16 15  1  0
 17 16  1  0
 17 18  2  0
 18 14  1  0
 19 17  1  0
 20 16  1  0
  1 21  1  0
  5 22  1  0
  8 23  1  0
  9 24  1  0
 10 25  1  0
 15 26  1  0
 19 27  1  0
 19 28  1  0
 20 29  1  0
 20 30  1  0
 31 32  1  0
 31 33  1  0
 33 34  2  0
 34 35  1  0
 35 36  2  0
 35 37  1  0
 34 38  1  0
 38 39  1  0
 39 40  2  0
 39 41  1  0
 41 42  1  0
 42 43  1  0
 43 44  1  0
 44 45  1  1
 44 33  1  0
 42 38  1  0
 31 46  1  0
 31 47  1  0
 37 48  1  0
 41 49  1  6
 42 50  1  6
 44 51  1  0
 20 41  1  0
M  ISO  8  21  14  22  14  23  14  24  14  25  14  26  14  29   8  30   8
M  ISO  2  32   8  45  15
M  END
>  <DihAtoms>  (1) 
15,19,40,38

>  <DihDeg>  (1) 
60.00869024615938

$$$$
