REMARK  Name = 
REMARK  9 active torsions:
REMARK  status: ('A' for Active; 'I' for Inactive)
REMARK    1  A    between atoms: C_1  and  C_13
REMARK    2  A    between atoms: C_9  and  N_23
REMARK    3  A    between atoms: C_12  and  C_21
REMARK    4  A    between atoms: C_15  and  C_17
REMARK    5  A    between atoms: C_21  and  C_22
REMARK    6  A    between atoms: C_22  and  C_47
REMARK    7  A    between atoms: C_37  and  C_39
REMARK    8  A    between atoms: C_40  and  C_41
REMARK    9  A    between atoms: C_41  and  O_43
REMARK                            x       y       z     vdW  Elec       q    Type
REMARK                         _______ _______ _______ _____ _____    ______ ____
ROOT
ATOM      1  C   UNL     1      44.673  35.251  45.254  0.00  0.00    +0.000 A 
ATOM      2  C   UNL     1      45.214  35.358  43.977  0.00  0.00    +0.000 A 
ATOM      3  C   UNL     1      46.218  34.473  43.578  0.00  0.00    +0.000 A 
ATOM      4  N   UNL     1      46.568  33.568  44.523  0.00  0.00    +0.000 NA
ATOM      5  C   UNL     1      46.052  33.470  45.734  0.00  0.00    +0.000 A 
ATOM      6  N   UNL     1      45.106  34.320  46.081  0.00  0.00    +0.000 NA
ATOM      7  H   UNL     1      43.899  35.958  45.518  0.00  0.00    +0.000 HD
ENDROOT
BRANCH   3   8
ATOM      8  C   UNL     1      46.861  34.453  42.317  0.00  0.00    +0.000 A 
ATOM      9  C   UNL     1      47.927  35.323  42.141  0.00  0.00    +0.000 A 
ATOM     10  C   UNL     1      48.668  35.438  40.985  0.00  0.00    +0.000 A 
ATOM     11  C   UNL     1      48.371  34.663  39.905  0.00  0.00    +0.000 A 
ATOM     12  C   UNL     1      47.327  33.778  40.009  0.00  0.00    +0.000 A 
ATOM     13  C   UNL     1      46.971  32.970  38.969  0.00  0.00    +0.000 A 
ATOM     14  C   UNL     1      45.937  32.073  39.024  0.00  0.00    +0.000 A 
ATOM     15  C   UNL     1      45.224  32.008  40.233  0.00  0.00    +0.000 A 
ATOM     16  C   UNL     1      45.612  32.839  41.263  0.00  0.00    +0.000 A 
ATOM     17  C   UNL     1      46.624  33.711  41.198  0.00  0.00    +0.000 A 
ATOM     18  H   UNL     1      48.256  35.997  42.943  0.00  0.00    +0.000 HD
ATOM     19  H   UNL     1      49.492  36.132  40.891  0.00  0.00    +0.000 HD
ATOM     20  H   UNL     1      48.935  34.743  39.010  0.00  0.00    +0.000 HD
ATOM     21  H   UNL     1      47.567  33.074  38.062  0.00  0.00    +0.000 HD
ATOM     22  H   UNL     1      45.688  31.452  38.176  0.00  0.00    +0.000 HD
ATOM     23  H   UNL     1      44.424  31.297  40.239  0.00  0.00    +0.000 HD
BRANCH  16  24
ATOM     24  N   UNL     1      44.769  32.647  42.406  0.00  0.00    +0.000 N 
ATOM     25  H   UNL     1      44.757  31.970  43.199  0.00  0.00    +0.000 HD
ATOM     26  H   UNL     1      43.918  33.116  42.778  0.00  0.00    +0.000 HD
ENDBRANCH  16  24
ENDBRANCH   3   8
BRANCH   5  27
ATOM     27  C   UNL     1      46.633  32.367  46.570  0.00  0.00    +0.000 C 
ATOM     28  F   UNL     1      45.651  31.615  47.152  0.00  0.00    +0.000 F 
ATOM     29  F   UNL     1      47.493  32.894  47.519  0.00  0.00    +0.000 F 
ATOM     30  F   UNL     1      47.471  31.573  45.757  0.00  0.00    +0.000 F 
ENDBRANCH   5  27
BRANCH   2  31
ATOM     31  C   UNL     1      44.798  36.354  42.980  0.00  0.00    +0.000 C 
ATOM     32  H   UNL     1      45.673  36.711  42.399  0.00  0.00    +0.000 HD
ATOM     33  H   UNL     1      44.450  37.258  43.560  0.00  0.00    +0.000 HD
BRANCH  31  34
ATOM     34  C   UNL     1      43.695  35.931  42.082  0.00  0.00    +0.000 C 
ATOM     35  H   UNL     1      42.771  35.749  42.667  0.00  0.00    +0.000 HD
ATOM     36  H   UNL     1      43.988  35.124  41.425  0.00  0.00    +0.000 HD
BRANCH  34  42
ATOM     37  C   UNL     1      43.548  34.675  37.835  0.00  0.00    +0.000 C 
ATOM     38  C   UNL     1      42.749  35.702  38.075  0.00  0.00    +0.000 C 
ATOM     39  N   UNL     1      42.854  36.413  39.304  0.00  0.00    +0.000 N 
ATOM     40  C   UNL     1      42.099  36.954  40.414  0.00  0.00    +0.000 C 
ATOM     41  O   UNL     1      40.875  37.215  40.685  0.00  0.00    +0.000 OA
ATOM     42  C   UNL     1      43.377  37.081  41.125  0.00  0.00    +0.000 C 
ATOM     43  C   UNL     1      44.133  36.880  39.843  0.00  0.00    +0.000 C 
ATOM     44  S   UNL     1      45.276  35.489  39.813  0.00  0.00    +0.000 S 
ATOM     45  C   UNL     1      44.565  34.177  38.794  0.00  0.00    +0.000 C 
ATOM     46  H   UNL     1      45.375  33.656  38.212  0.00  0.00    +0.000 HD
BRANCH  37  47
ATOM     47  C   UNL     1      43.401  33.987  36.538  0.00  0.00    +0.000 C 
ATOM     48  H   UNL     1      42.408  33.500  36.437  0.00  0.00    +0.000 HD
ENDBRANCH  37  47
BRANCH  38  49
ATOM     49  C   UNL     1      41.746  36.139  37.080  0.00  0.00    +0.000 C 
ATOM     50  O   UNL     1      41.561  35.608  35.959  0.00  0.00    +0.000 OA
BRANCH  49  51
ATOM     51  O   UNL     1      40.874  37.171  37.213  0.00  0.00    +0.000 OA
ATOM     52  H   UNL     1      39.889  37.032  37.041  0.00  0.00    +0.000 HD
ENDBRANCH  49  51
ENDBRANCH  38  49
ENDBRANCH  34  42
ENDBRANCH  31  34
ENDBRANCH   2  31
TORSDOF 9
