
 OpenBabel03242519313D

 55 60  0  0  1  0  0  0  0  0999 V2000
   50.7070   31.3960   42.3280 C   0  0  0  0  0  0  0  0  0  0  0  0
   51.5740   31.2890   41.3110 N   0  0  0  0  0  0  0  0  0  0  0  0
   52.2200   30.1000   41.3990 C   0  0  0  0  0  0  0  0  0  0  0  0
   51.7350   29.4760   42.4900 N   0  0  0  0  0  0  0  0  0  0  0  0
   50.8140   30.2540   43.0630 N   0  0  0  0  0  0  0  0  0  0  0  0
   52.9870   29.7260   40.7110 H   0  0  0  0  0  0  0  0  0  0  0  0
   47.9220   33.7470   42.8320 C   0  0  0  0  0  0  0  0  0  0  0  0
   48.6060   34.9810   42.6220 C   0  0  0  0  0  0  0  0  0  0  0  0
   49.9760   34.9810   42.3160 C   0  0  0  0  0  0  0  0  0  0  0  0
   50.5820   33.7590   42.2370 N   0  0  0  0  0  0  0  0  0  0  0  0
   49.8870   32.5960   42.4460 C   0  0  0  0  0  0  0  0  0  0  0  0
   48.5940   32.6080   42.7350 N   0  0  0  0  0  0  0  0  0  0  0  0
   48.1820   35.9750   42.6710 H   0  0  0  0  0  0  0  0  0  0  0  0
   50.5230   35.8760   42.1520 H   0  0  0  0  0  0  0  0  0  0  0  0
   46.5020   33.8890   43.1460 C   0  0  0  0  0  0  0  0  0  0  0  0
   45.8000   34.8820   42.3720 C   0  0  0  0  0  0  0  0  0  0  0  0
   45.3270   36.0500   43.1270 C   0  0  0  0  0  0  0  0  0  0  0  0
   44.4710   35.6310   44.3250 C   0  0  0  0  0  0  0  0  0  0  0  0
   45.0010   34.4450   45.0630 C   0  0  0  0  0  0  0  0  0  0  0  0
   46.4470   34.1620   44.6860 C   0  0  0  0  0  0  0  0  0  0  0  0
   46.0330   32.8670   43.0890 H   0  0  0  0  0  0  0  0  0  0  0  0
   46.4300   35.2550   41.5230 H   0  0  0  0  0  0  0  0  0  0  0  0
   44.9160   34.4200   41.8590 H   0  0  0  0  0  0  0  0  0  0  0  0
   44.6020   36.6140   42.4690 H   0  0  0  0  0  0  0  0  0  0  0  0
   46.0640   36.7990   43.4320 H   0  0  0  0  0  0  0  0  0  0  0  0
   44.5060   36.4990   45.0350 H   0  0  0  0  0  0  0  0  0  0  0  0
   43.4020   35.5390   44.0500 H   0  0  0  0  0  0  0  0  0  0  0  0
   44.4170   33.5450   44.7500 H   0  0  0  0  0  0  0  0  0  0  0  0
   44.9620   34.5210   46.1560 H   0  0  0  0  0  0  0  0  0  0  0  0
   47.1010   35.0290   44.9200 H   0  0  0  0  0  0  0  0  0  0  0  0
   46.7870   33.2490   45.1710 H   0  0  0  0  0  0  0  0  0  0  0  0
   52.1180   28.1900   43.0160 C   0  0  0  0  0  0  0  0  0  0  0  0
   52.5910   27.5960   42.2530 H   0  0  0  0  0  0  0  0  0  0  0  0
   51.1770   27.6290   43.2960 H   0  0  0  0  0  0  0  0  0  0  0  0
   52.9940   28.3600   44.1760 C   0  0  0  0  0  3  0  0  0  0  0  0
   52.7920   28.6560   45.4480 C   0  0  0  0  0  3  0  0  0  0  0  0
   53.8490   28.7160   46.5680 C   0  0  0  0  0  0  0  0  0  0  0  0
   53.6200   27.8540   47.2180 H   0  0  0  0  0  0  0  0  0  0  0  0
   54.8350   28.6290   46.0910 H   0  0  0  0  0  0  0  0  0  0  0  0
   52.5690   32.4110   50.0780 C   0  0  0  0  0  0  0  0  0  0  0  0
   53.8170   32.1120   49.8270 C   0  0  0  0  0  0  0  0  0  0  0  0
   54.1840   31.1270   48.9080 N   0  0  0  0  0  0  0  0  0  0  0  0
   54.9800   30.5590   47.8680 C   0  0  2  0  0  0  0  0  0  0  0  0
   56.2180   30.6490   47.6750 O   0  0  0  0  0  1  0  0  0  0  0  0
   53.7310   29.9750   47.3390 C   0  0  2  0  0  3  0  0  0  0  0  0
   53.4360   29.8740   48.7950 C   0  0  2  0  0  0  0  0  0  0  0  0
   51.7380   29.9890   49.3260 S   0  0  0  0  0  0  0  0  0  0  0  0
   51.4380   31.7520   49.4230 C   0  0  0  0  0  3  0  0  0  0  0  0
   51.2720   32.1170   48.3850 H   0  0  0  0  0  0  0  0  0  0  0  0
   52.3280   33.4640   51.0660 C   0  0  0  0  0  2  0  0  0  0  0  0
   53.0300   33.3680   51.9400 H   0  0  0  0  0  0  0  0  0  0  0  0
   54.8810   32.8240   50.5270 C   0  0  0  0  0  0  0  0  0  0  0  0
   56.1310   32.6230   50.3840 O   0  0  0  0  0  0  0  0  0  0  0  0
   55.6500   33.6490   51.3200 O   0  0  0  0  0  0  0  0  0  0  0  0
   55.3220   34.4860   51.7890 H   0  0  0  0  0  0  0  0  0  0  0  0
  1 11  1  0  0  0  0
  1  5  2  0  0  0  0
  2  3  2  0  0  0  0
  2  1  1  0  0  0  0
  3  4  1  0  0  0  0
  4 32  1  0  0  0  0
  4  5  1  0  0  0  0
  6  3  1  0  0  0  0
  7 15  1  0  0  0  0
  8 13  1  0  0  0  0
  8  7  2  0  0  0  0
  9  8  1  0  0  0  0
 10  9  2  0  0  0  0
 10 11  1  0  0  0  0
 11 12  2  0  0  0  0
 12  7  1  0  0  0  0
 14  9  1  0  0  0  0
 15 20  1  0  0  0  0
 16 17  1  0  0  0  0
 16 15  1  0  0  0  0
 17 25  1  0  0  0  0
 17 18  1  0  0  0  0
 18 26  1  0  0  0  0
 18 19  1  0  0  0  0
 19 29  1  0  0  0  0
 20 30  1  0  0  0  0
 20 19  1  0  0  0  0
 20 31  1  0  0  0  0
 21 15  1  0  0  0  0
 22 16  1  0  0  0  0
 23 16  1  0  0  0  0
 24 17  1  0  0  0  0
 27 18  1  0  0  0  0
 28 19  1  0  0  0  0
 32 34  1  0  0  0  0
 32 35  1  0  0  0  0
 33 32  1  0  0  0  0
 35 36  2  0  0  0  0
 36 37  1  0  0  0  0
 37 38  1  0  0  0  0
 39 37  1  0  0  0  0
 40 50  1  0  0  0  0
 41 40  2  0  0  0  0
 41 52  1  0  0  0  0
 42 41  1  0  0  0  0
 43 44  1  6  0  0  0
 43 46  1  0  0  0  0
 43 42  1  0  0  0  0
 45 37  1  1  0  0  0
 45 43  1  0  0  0  0
 45 46  1  0  0  0  0
 46 42  1  0  0  0  0
 46 47  1  1  0  0  0
 47 48  1  0  0  0  0
 48 40  1  0  0  0  0
 49 48  1  0  0  0  0
 50 51  1  0  0  0  0
 52 54  1  0  0  0  0
 53 52  2  0  0  0  0
 54 55  1  0  0  0  0
M  END
>  <minimizedAffinity>
-4.65277815

>  <minimizedRMSD>
3.36861587

$$$$
