
 OpenBabel03252503193D

 46 50  0  0  1  0  0  0  0  0999 V2000
   45.4310   33.8650   40.2590 C   0  0  0  0  0  0  0  0  0  0  0  0
   45.3340   33.3760   38.9850 C   0  0  0  0  0  0  0  0  0  0  0  0
   46.6000   33.3320   38.5190 N   0  0  0  0  0  0  0  0  0  0  0  0
   47.4330   33.7800   39.4780 C   0  0  0  0  0  0  0  0  0  0  0  0
   46.7050   34.1100   40.5590 N   0  0  0  0  0  0  0  0  0  0  0  0
   48.8490   33.9340   39.4930 N   0  0  0  0  0  0  0  0  0  0  0  0
   44.4660   33.0800   38.4420 H   0  0  0  0  0  0  0  0  0  0  0  0
   49.3600   34.3890   38.6880 H   0  0  0  0  0  0  0  0  0  0  0  0
   49.4130   33.6030   40.2930 H   0  0  0  0  0  0  0  0  0  0  0  0
   47.1050   32.9030   37.2340 C   0  0  0  0  0  0  0  0  0  0  0  0
   46.2570   33.0090   36.5150 H   0  0  0  0  0  0  0  0  0  0  0  0
   47.9080   33.5430   36.8620 H   0  0  0  0  0  0  0  0  0  0  0  0
   44.5090   30.4960   34.6850 C   0  0  0  0  0  0  0  0  0  0  0  0
   44.9850   29.7920   35.6860 C   0  0  0  0  0  0  0  0  0  0  0  0
   46.0830   30.2800   36.4480 N   0  0  0  0  0  0  0  0  0  0  0  0
   46.5730   30.5020   37.7920 C   0  0  0  0  0  0  0  0  0  0  0  0
   46.3200   30.0770   38.9710 O   0  0  0  0  0  0  0  0  0  0  0  0
   47.5180   31.4540   37.2090 C   0  0  1  0  0  3  0  0  0  0  0  0
   47.2960   30.8100   35.8580 C   0  0  2  0  0  3  0  0  0  0  0  0
   46.8400   31.8870   34.5070 S   0  0  0  0  0  0  0  0  0  0  0  0
   45.0430   31.8210   34.2890 C   0  0  0  0  0  3  0  0  0  0  0  0
   44.7580   32.0380   33.2370 H   0  0  0  0  0  0  0  0  0  0  0  0
   43.3840   29.9450   33.9250 C   0  0  0  0  0  2  0  0  0  0  0  0
   42.4620   29.7820   34.5110 H   0  0  0  0  0  0  0  0  0  0  0  0
   44.3970   28.4840   36.0330 C   0  0  0  0  0  0  0  0  0  0  0  0
   44.7780   27.3600   35.6310 O   0  0  0  0  0  0  0  0  0  0  0  0
   43.3380   28.2220   36.8460 O   0  0  0  0  0  0  0  0  0  0  0  0
   43.3870   27.6400   37.6480 H   0  0  0  0  0  0  0  0  0  0  0  0
   44.2800   34.1000   41.2010 C   0  0  0  0  0  0  0  0  0  0  0  0
   44.0190   35.2200   41.7350 O   0  0  0  0  0  0  0  0  0  0  0  0
   42.1230   32.9540   40.9700 C   0  0  0  0  0  0  0  0  0  0  0  0
   43.4060   33.0310   41.5410 C   0  0  0  0  0  0  0  0  0  0  0  0
   43.7080   32.0090   42.4210 C   0  0  0  0  0  0  0  0  0  0  0  0
   42.8540   31.0260   42.7090 N   0  0  0  0  0  0  0  0  0  0  0  0
   41.6200   30.9940   42.1290 C   0  0  0  0  0  0  0  0  0  0  0  0
   41.2710   31.9610   41.2660 N   0  0  0  0  0  0  0  0  0  0  0  0
   41.8630   33.7440   40.2760 H   0  0  0  0  0  0  0  0  0  0  0  0
   40.9250   30.1930   42.3650 H   0  0  0  0  0  0  0  0  0  0  0  0
   44.9900   32.0120   43.0470 C   0  0  0  0  0  0  0  0  0  0  0  0
   45.5600   32.6980   44.0690 C   0  0  0  0  0  0  0  0  0  0  0  0
   46.8080   32.4820   44.4410 C   0  0  0  0  0  0  0  0  0  0  0  0
   47.4980   31.5520   43.7650 C   0  0  0  0  0  0  0  0  0  0  0  0
   46.3080   30.9430   42.5260 S   0  0  0  0  0  0  0  0  0  0  0  0
   44.8860   33.4390   44.5460 H   0  0  0  0  0  0  0  0  0  0  0  0
   47.3270   32.9920   45.2460 H   0  0  0  0  0  0  0  0  0  0  0  0
   48.5320   31.1730   43.8550 H   0  0  0  0  0  0  0  0  0  0  0  0
  1  5  1  0  0  0  0
  1 29  1  0  0  0  0
  2  1  2  0  0  0  0
  3  2  1  0  0  0  0
  3  4  1  0  0  0  0
  4  6  1  0  0  0  0
  4  5  2  0  0  0  0
  6  9  1  0  0  0  0
  7  2  1  0  0  0  0
  8  6  1  0  0  0  0
 10  3  1  0  0  0  0
 11 10  1  0  0  0  0
 12 10  1  0  0  0  0
 13 14  2  0  0  0  0
 14 25  1  0  0  0  0
 14 15  1  0  0  0  0
 15 16  1  0  0  0  0
 16 17  2  0  0  0  0
 18 10  1  6  0  0  0
 18 16  1  0  0  0  0
 19 20  1  6  0  0  0
 19 15  1  0  0  0  0
 19 18  1  0  0  0  0
 21 20  1  0  0  0  0
 21 13  1  0  0  0  0
 22 21  1  0  0  0  0
 23 24  1  0  0  0  0
 23 13  1  0  0  0  0
 25 27  1  0  0  0  0
 26 25  2  0  0  0  0
 27 28  1  0  0  0  0
 29 32  1  0  0  0  0
 29 30  2  0  0  0  0
 31 36  2  0  0  0  0
 31 32  1  0  0  0  0
 32 33  2  0  0  0  0
 33 34  1  0  0  0  0
 33 39  1  0  0  0  0
 35 38  1  0  0  0  0
 35 34  2  0  0  0  0
 36 35  1  0  0  0  0
 37 31  1  0  0  0  0
 39 40  2  0  0  0  0
 40 41  1  0  0  0  0
 40 44  1  0  0  0  0
 41 45  1  0  0  0  0
 42 46  1  0  0  0  0
 42 41  2  0  0  0  0
 43 39  1  0  0  0  0
 43 42  1  0  0  0  0
M  END
>  <minimizedAffinity>
-4.47393274

>  <minimizedRMSD>
5.63425875

$$$$
