
     RDKit          3D

 34 36  0  0  0  0  0  0  0  0999 V2000
   44.5232   36.0058   44.5236 C   0  0  0  0  0  0  0  0  0  0  0  0
   45.2147   35.8793   43.3288 C   0  0  0  0  0  0  0  0  0  0  0  0
   46.1081   34.8261   43.1792 C   0  0  0  0  0  0  0  0  0  0  0  0
   46.2821   33.9504   44.2013 N   0  0  0  0  0  0  0  0  0  0  0  0
   45.5838   34.1004   45.3735 C   0  0  0  0  0  0  0  0  0  0  0  0
   44.7329   35.1152   45.4967 N   0  0  0  0  0  0  0  0  0  0  0  0
   45.8517   33.0810   46.4314 C   0  0  0  0  0  0  0  0  0  0  0  0
   46.5265   31.6218   45.6105 S   0  0  0  0  0  0  0  0  0  0  0  0
   43.8448   36.8333   44.5932 H   0  0  0  0  0  0  0  0  0  0  0  0
   45.1414   36.5319   42.4552 H   0  0  0  0  0  0  0  0  0  0  0  0
   46.7002   34.6408   42.2767 H   0  0  0  0  0  0  0  0  0  0  0  0
   44.9661   32.9078   47.0366 H   0  0  0  0  0  0  0  0  0  0  0  0
   46.7001   33.5195   47.0327 H   0  0  0  0  0  0  0  0  0  0  0  0
   45.3758   30.7968   44.5168 C   0  0  0  0  0  0  0  0  0  0  0  0
   44.9365   29.4656   44.9518 C   0  0  0  0  0  0  0  0  0  0  0  0
   45.2090   28.4467   44.1405 C   0  0  0  0  0  0  0  0  0  0  0  0
   45.9201   28.6056   42.8539 C   0  0  0  0  0  0  0  0  0  0  0  0
   46.2233   27.7044   42.0307 O   0  0  0  0  0  0  0  0  0  0  0  0
   46.5580   29.3219   41.8621 O   0  0  0  0  0  0  0  0  0  0  0  0
   44.8026   27.1291   44.4864 N   0  0  0  0  0  0  0  0  0  0  0  0
   45.2638   25.7614   44.6025 C   0  0  0  0  0  0  0  0  0  0  0  0
   46.2412   25.0339   44.2151 O   0  0  0  0  0  0  0  0  0  0  0  0
   44.0416   25.4998   45.4281 C   0  0  1  0  0  0  0  0  0  0  0  0
   43.5212   24.6078   44.9671 H   0  0  0  0  0  0  0  0  0  0  0  0
   43.4358   26.7923   44.9219 C   0  0  1  0  0  0  0  0  0  0  0  0
   42.9495   27.9912   46.1560 S   0  0  0  0  0  0  0  0  0  0  0  0
   44.2290   29.2680   46.2373 C   0  0  1  0  0  0  0  0  0  0  0  0
   44.9544   29.0544   47.0720 H   0  0  0  0  0  0  0  0  0  0  0  0
   44.4788   31.4835   44.4277 H   0  0  0  0  0  0  0  0  0  0  0  0
   45.8119   30.8032   43.5014 H   0  0  0  0  0  0  0  0  0  0  0  0
   46.0702   30.0148   41.2708 H   0  0  0  0  0  0  0  0  0  0  0  0
   44.1961   25.4528   46.5082 H   0  0  0  0  0  0  0  0  0  0  0  0
   42.7384   26.6344   44.0803 H   0  0  0  0  0  0  0  0  0  0  0  0
   43.7088   30.2115   46.5188 H   0  0  0  0  0  0  0  0  0  0  0  0
  1  6  2  0
  2  1  1  0
  3  2  2  0
  3  4  1  0
  4  5  2  0
  5  6  1  0
  5  7  1  0
  8  7  1  0
  1  9  1  0
  2 10  1  0
  3 11  1  0
  7 12  1  0
  7 13  1  0
 14 15  1  0
 15 16  2  0
 16 17  1  0
 17 18  2  0
 17 19  1  0
 16 20  1  0
 20 21  1  0
 21 22  2  0
 21 23  1  0
 23 24  1  6
 23 25  1  0
 25 26  1  0
 26 27  1  0
 27 28  1  1
 27 15  1  0
 25 20  1  0
 14 29  1  0
 14 30  1  0
 19 31  1  0
 23 32  1  0
 25 33  1  6
 27 34  1  0
  8 14  1  0
M  ISO  7   9  14  10  14  11  14  12   8  13   8  24  15  28  15
M  END
>  <DihAtoms>  (1) 
6,7,13,14

>  <DihDeg>  (1) 
-67.13124208584534

$$$$
