
 OpenBabel03242523293D

 29 31  0  0  1  0  0  0  0  0999 V2000
   42.8950   33.7970   40.3300 C   0  0  0  0  0  0  0  0  0  0  0  0
   41.8840   32.9320   40.2840 C   0  0  0  0  0  0  0  0  0  0  0  0
   40.6130   33.3440   39.8010 N   0  0  0  0  0  0  0  0  0  0  0  0
   39.1960   33.3360   40.0980 C   0  0  0  0  0  0  0  0  0  0  0  0
   38.3710   32.7300   40.8650 O   0  0  0  0  0  0  0  0  0  0  0  0
   39.0510   34.4110   39.0660 C   0  0  0  0  0  0  0  0  0  0  0  0
   38.2480   34.0680   38.3470 H   0  0  0  0  0  0  0  0  0  0  0  0
   40.4270   34.0710   38.5330 C   0  0  1  0  0  0  0  0  0  0  0  0
   41.6240   35.3980   38.4880 S   0  0  0  0  0  0  0  0  0  0  0  0
   42.7320   35.2050   39.9060 C   0  0  0  0  0  0  0  0  0  0  0  0
   42.3980   35.8530   40.7650 H   0  0  0  0  0  0  0  0  0  0  0  0
   42.0080   31.5210   40.7070 C   0  0  0  0  0  0  0  0  0  0  0  0
   41.9980   30.4990   39.9740 O   0  0  0  0  0  0  0  0  0  0  0  0
   42.1570   30.5030   41.6270 O   0  0  0  0  0  0  0  0  0  0  0  0
   43.0180   30.3740   42.1840 H   0  0  0  0  0  0  0  0  0  0  0  0
   44.1800   33.2910   40.8290 C   0  0  0  0  0  0  0  0  0  0  0  0
   44.6200   33.8100   42.4830 S   0  0  0  0  0  0  0  0  0  0  0  0
   45.6360   35.3000   42.5460 C   0  0  0  0  0  0  0  0  0  0  0  0
   45.4250   36.0420   41.7800 H   0  0  0  0  0  0  0  0  0  0  0  0
   45.5130   35.7170   43.5880 H   0  0  0  0  0  0  0  0  0  0  0  0
   49.3200   35.1590   41.9400 C   0  0  0  0  0  0  0  0  0  0  0  0
   49.6270   33.9140   42.4670 C   0  0  0  0  0  0  0  0  0  0  0  0
   48.6070   33.1450   43.0120 C   0  0  0  0  0  0  0  0  0  0  0  0
   47.3390   33.6290   43.0170 N   0  0  0  0  0  0  0  0  0  0  0  0
   47.0640   34.8650   42.4890 C   0  0  0  0  0  0  0  0  0  0  0  0
   48.0550   35.5860   41.9710 N   0  0  0  0  0  0  0  0  0  0  0  0
   50.1400   35.7150   41.5310 H   0  0  0  0  0  0  0  0  0  0  0  0
   50.6140   33.4430   42.5070 H   0  0  0  0  0  0  0  0  0  0  0  0
   48.7480   32.1520   43.4510 H   0  0  0  0  0  0  0  0  0  0  0  0
  1 16  1  0  0  0  0
  2  1  2  0  0  0  0
  2 12  1  0  0  0  0
  3  4  1  0  0  0  0
  3  2  1  0  0  0  0
  4  5  2  0  0  0  0
  6  4  1  0  0  0  0
  7  6  1  0  0  0  0
  8  9  1  1  0  0  0
  8  6  1  0  0  0  0
  8  3  1  0  0  0  0
  9 10  1  0  0  0  0
 10  1  1  0  0  0  0
 10 11  1  0  0  0  0
 12 14  1  0  0  0  0
 13 12  2  0  0  0  0
 14 15  1  0  0  0  0
 16 17  1  0  0  0  0
 17 18  1  0  0  0  0
 18 20  1  0  0  0  0
 19 18  1  0  0  0  0
 21 26  2  0  0  0  0
 21 22  1  0  0  0  0
 22 28  1  0  0  0  0
 22 23  2  0  0  0  0
 23 24  1  0  0  0  0
 23 29  1  0  0  0  0
 25 18  1  0  0  0  0
 25 24  2  0  0  0  0
 26 25  1  0  0  0  0
 27 21  1  0  0  0  0
M  END
>  <minimizedAffinity>
-4.47426271

>  <minimizedRMSD>
4.76332903

$$$$
