
 OpenBabel03242514003D

 48 53  0  0  1  0  0  0  0  0999 V2000
   37.2810   29.3920   41.6720 C   0  0  0  0  0  0  0  0  0  0  0  0
   38.0530   28.5820   42.4920 C   0  0  0  0  0  0  0  0  0  0  0  0
   39.3340   29.0430   42.8390 C   0  0  0  0  0  0  0  0  0  0  0  0
   39.7370   30.2320   42.3600 N   0  0  0  0  0  0  0  0  0  0  0  0
   38.9640   31.0010   41.5630 C   0  0  0  0  0  0  0  0  0  0  0  0
   37.7240   30.5590   41.2250 N   0  0  0  0  0  0  0  0  0  0  0  0
   36.3110   28.9660   41.4520 H   0  0  0  0  0  0  0  0  0  0  0  0
   40.0030   28.4750   43.4750 H   0  0  0  0  0  0  0  0  0  0  0  0
   39.3570   32.2910   41.0220 C   0  0  0  0  0  0  0  0  0  0  0  0
   38.3960   33.2360   40.6340 C   0  0  0  0  0  0  0  0  0  0  0  0
   39.0690   34.3540   40.1640 C   0  0  0  0  0  0  0  0  0  0  0  0
   40.4020   34.0680   40.2750 N   0  0  0  0  0  0  0  0  0  0  0  0
   40.5400   32.8410   40.7870 N   0  0  0  0  0  0  0  0  0  0  0  0
   37.3230   33.1650   40.6700 H   0  0  0  0  0  0  0  0  0  0  0  0
   38.6100   35.2630   39.7880 H   0  0  0  0  0  0  0  0  0  0  0  0
   41.4620   34.9770   39.8910 C   0  0  0  0  0  2  0  0  0  0  0  0
   42.7500   34.6390   40.5480 C   0  0  0  0  0  0  0  0  0  0  0  0
   43.1370   35.1880   41.6830 C   0  0  0  0  0  0  0  0  0  0  0  0
   44.3740   34.8330   42.2680 N   0  0  0  0  0  0  0  0  0  0  0  0
   45.1070   34.5410   43.4470 C   0  0  0  0  0  0  0  0  0  0  0  0
   44.8800   34.5450   44.7050 O   0  0  0  0  0  0  0  0  0  0  0  0
   46.3110   34.2060   42.6460 C   0  0  0  0  0  3  0  0  0  0  0  0
   47.1470   34.9270   42.8700 H   0  0  0  0  0  0  0  0  0  0  0  0
   45.5630   34.6280   41.4230 C   0  0  1  0  0  3  0  0  0  0  0  0
   45.1090   33.2750   40.3020 S   0  0  0  0  0  0  0  0  0  0  0  0
   43.4360   33.6300   39.7120 C   0  0  0  0  0  3  0  0  0  0  0  0
   43.5290   33.9830   38.6640 H   0  0  0  0  0  0  0  0  0  0  0  0
   42.2960   36.1680   42.3490 C   0  0  0  0  0  0  0  0  0  0  0  0
   42.7310   36.9850   43.1970 O   0  0  0  0  0  0  0  0  0  0  0  0
   41.2510   36.9370   42.7700 O   0  0  0  0  0  0  0  0  0  0  0  0
   40.5390   37.2850   42.1200 H   0  0  0  0  0  0  0  0  0  0  0  0
   37.6630   27.3540   42.9980 O   0  0  0  0  0  0  0  0  0  0  0  0
   37.9340   26.1240   42.4030 C   0  0  0  0  0  0  0  0  0  0  0  0
   39.0820   25.3810   42.5480 C   0  0  0  0  0  0  0  0  0  0  0  0
   39.1940   24.1710   41.8830 C   0  0  0  0  0  0  0  0  0  0  0  0
   38.1890   23.6810   41.0760 C   0  0  0  0  0  0  0  0  0  0  0  0
   38.3610   22.5090   40.4630 N   0  0  0  0  0  0  0  0  0  0  0  0
   37.4210   21.9800   39.6670 C   0  0  0  0  0  0  0  0  0  0  0  0
   36.2620   22.6980   39.5020 C   0  0  0  0  0  0  0  0  0  0  0  0
   36.0640   23.9390   40.1410 C   0  0  0  0  0  0  0  0  0  0  0  0
   37.0570   24.4350   40.9460 C   0  0  0  0  0  0  0  0  0  0  0  0
   36.9020   25.6680   41.6020 C   0  0  0  0  0  0  0  0  0  0  0  0
   39.8460   25.7970   43.1870 H   0  0  0  0  0  0  0  0  0  0  0  0
   40.1140   23.5910   42.0080 H   0  0  0  0  0  0  0  0  0  0  0  0
   37.6020   21.0380   39.1980 H   0  0  0  0  0  0  0  0  0  0  0  0
   35.5000   22.2740   38.8580 H   0  0  0  0  0  0  0  0  0  0  0  0
   35.1390   24.4640   39.9800 H   0  0  0  0  0  0  0  0  0  0  0  0
   35.9650   26.1590   41.4150 H   0  0  0  0  0  0  0  0  0  0  0  0
  1  2  1  0  0  0  0
  2  3  2  0  0  0  0
  2 32  1  0  0  0  0
  3  8  1  0  0  0  0
  4  3  1  0  0  0  0
  5  4  2  0  0  0  0
  6  5  1  0  0  0  0
  6  1  2  0  0  0  0
  7  1  1  0  0  0  0
  9  5  1  0  0  0  0
 10 14  1  0  0  0  0
 10  9  1  0  0  0  0
 11 12  1  0  0  0  0
 11 10  2  0  0  0  0
 12 13  1  0  0  0  0
 13  9  2  0  0  0  0
 15 11  1  0  0  0  0
 16 12  1  0  0  0  0
 16 17  1  0  0  0  0
 17 18  2  0  0  0  0
 18 19  1  0  0  0  0
 18 28  1  0  0  0  0
 19 20  1  0  0  0  0
 20 21  2  0  0  0  0
 22 23  1  0  0  0  0
 22 20  1  0  0  0  0
 24 25  1  6  0  0  0
 24 19  1  0  0  0  0
 24 22  1  0  0  0  0
 26 25  1  0  0  0  0
 26 17  1  0  0  0  0
 27 26  1  0  0  0  0
 28 30  1  0  0  0  0
 28 29  2  0  0  0  0
 31 30  1  0  0  0  0
 33 34  1  0  0  0  0
 33 32  1  0  0  0  0
 34 43  1  0  0  0  0
 35 44  1  0  0  0  0
 35 34  2  0  0  0  0
 36 35  1  0  0  0  0
 37 36  2  0  0  0  0
 38 37  1  0  0  0  0
 39 38  2  0  0  0  0
 39 40  1  0  0  0  0
 40 41  2  0  0  0  0
 41 36  1  0  0  0  0
 41 42  1  0  0  0  0
 42 33  2  0  0  0  0
 45 38  1  0  0  0  0
 46 39  1  0  0  0  0
 47 40  1  0  0  0  0
 48 42  1  0  0  0  0
M  END
>  <minimizedAffinity>
-7.81069565

$$$$

 OpenBabel03242514003D

 48 53  0  0  1  0  0  0  0  0999 V2000
   40.6900   33.7180   39.3530 C   0  0  0  0  0  0  0  0  0  0  0  0
   40.4050   34.8340   40.1260 C   0  0  0  0  0  0  0  0  0  0  0  0
   39.1230   34.9180   40.6970 C   0  0  0  0  0  0  0  0  0  0  0  0
   38.2530   33.9210   40.4630 N   0  0  0  0  0  0  0  0  0  0  0  0
   38.5570   32.8450   39.7060 C   0  0  0  0  0  0  0  0  0  0  0  0
   39.7960   32.7600   39.1510 N   0  0  0  0  0  0  0  0  0  0  0  0
   41.6940   33.7300   38.9510 H   0  0  0  0  0  0  0  0  0  0  0  0
   38.8160   35.7540   41.3140 H   0  0  0  0  0  0  0  0  0  0  0  0
   37.6500   31.7450   39.4260 C   0  0  0  0  0  0  0  0  0  0  0  0
   37.1960   31.4960   38.1220 C   0  0  0  0  0  0  0  0  0  0  0  0
   36.3540   30.3950   38.1710 C   0  0  0  0  0  0  0  0  0  0  0  0
   36.3170   30.0060   39.4830 N   0  0  0  0  0  0  0  0  0  0  0  0
   37.0940   30.8230   40.1990 N   0  0  0  0  0  0  0  0  0  0  0  0
   37.4210   32.0250   37.2130 H   0  0  0  0  0  0  0  0  0  0  0  0
   35.8380   29.9470   37.3280 H   0  0  0  0  0  0  0  0  0  0  0  0
   35.5470   28.8810   39.9730 C   0  0  0  0  0  2  0  0  0  0  0  0
   36.3280   27.6190   39.9470 C   0  0  0  0  0  0  0  0  0  0  0  0
   36.9440   27.1400   41.0100 C   0  0  0  0  0  0  0  0  0  0  0  0
   37.6780   25.9330   40.9330 N   0  0  0  0  0  0  0  0  0  0  0  0
   38.0400   24.7060   41.5450 C   0  0  0  0  0  0  0  0  0  0  0  0
   37.8340   24.1320   42.6690 O   0  0  0  0  0  0  0  0  0  0  0  0
   38.7940   24.2960   40.3340 C   0  0  0  0  0  3  0  0  0  0  0  0
   39.8910   24.1930   40.5670 H   0  0  0  0  0  0  0  0  0  0  0  0
   38.5010   25.6390   39.7480 C   0  0  1  0  0  3  0  0  0  0  0  0
   37.3320   25.6280   38.3600 S   0  0  0  0  0  0  0  0  0  0  0  0
   36.2580   27.0690   38.5770 C   0  0  0  0  0  3  0  0  0  0  0  0
   36.5770   27.8260   37.8300 H   0  0  0  0  0  0  0  0  0  0  0  0
   36.8790   27.8470   42.2780 C   0  0  0  0  0  0  0  0  0  0  0  0
   36.2730   27.4030   43.2840 O   0  0  0  0  0  0  0  0  0  0  0  0
   37.0180   28.7520   43.2890 O   0  0  0  0  0  0  0  0  0  0  0  0
   37.9040   29.2360   43.4640 H   0  0  0  0  0  0  0  0  0  0  0  0
   41.2810   35.8740   40.3820 O   0  0  0  0  0  0  0  0  0  0  0  0
   42.0930   35.9730   41.5110 C   0  0  0  0  0  0  0  0  0  0  0  0
   42.0430   36.9580   42.4690 C   0  0  0  0  0  0  0  0  0  0  0  0
   42.9260   36.9110   43.5340 C   0  0  0  0  0  0  0  0  0  0  0  0
   43.8600   35.9050   43.6700 C   0  0  0  0  0  0  0  0  0  0  0  0
   44.6820   35.9180   44.7210 N   0  0  0  0  0  0  0  0  0  0  0  0
   45.6090   34.9690   44.9090 C   0  0  0  0  0  0  0  0  0  0  0  0
   45.6830   33.9700   43.9690 C   0  0  0  0  0  0  0  0  0  0  0  0
   44.8220   33.9400   42.8530 C   0  0  0  0  0  0  0  0  0  0  0  0
   43.8910   34.9360   42.7080 C   0  0  0  0  0  0  0  0  0  0  0  0
   43.0140   34.9450   41.6100 C   0  0  0  0  0  0  0  0  0  0  0  0
   41.3000   37.7280   42.3270 H   0  0  0  0  0  0  0  0  0  0  0  0
   42.8750   37.7020   44.2890 H   0  0  0  0  0  0  0  0  0  0  0  0
   46.2450   35.0200   45.7650 H   0  0  0  0  0  0  0  0  0  0  0  0
   46.4320   33.2000   44.1180 H   0  0  0  0  0  0  0  0  0  0  0  0
   44.9200   33.1370   42.1430 H   0  0  0  0  0  0  0  0  0  0  0  0
   43.1440   34.1270   40.9270 H   0  0  0  0  0  0  0  0  0  0  0  0
  1  2  1  0  0  0  0
  2 32  1  0  0  0  0
  2  3  2  0  0  0  0
  3  8  1  0  0  0  0
  4  3  1  0  0  0  0
  5  4  2  0  0  0  0
  6  1  2  0  0  0  0
  6  5  1  0  0  0  0
  7  1  1  0  0  0  0
  9  5  1  0  0  0  0
  9 13  2  0  0  0  0
 10 11  2  0  0  0  0
 10  9  1  0  0  0  0
 11 12  1  0  0  0  0
 12 16  1  0  0  0  0
 12 13  1  0  0  0  0
 14 10  1  0  0  0  0
 15 11  1  0  0  0  0
 17 16  1  0  0  0  0
 17 18  2  0  0  0  0
 18 28  1  0  0  0  0
 19 18  1  0  0  0  0
 19 20  1  0  0  0  0
 20 21  2  0  0  0  0
 22 23  1  0  0  0  0
 22 20  1  0  0  0  0
 24 25  1  6  0  0  0
 24 22  1  0  0  0  0
 24 19  1  0  0  0  0
 25 26  1  0  0  0  0
 26 17  1  0  0  0  0
 27 26  1  0  0  0  0
 28 29  2  0  0  0  0
 28 30  1  0  0  0  0
 30 31  1  0  0  0  0
 32 33  1  0  0  0  0
 33 42  2  0  0  0  0
 33 34  1  0  0  0  0
 34 35  2  0  0  0  0
 35 36  1  0  0  0  0
 35 44  1  0  0  0  0
 36 37  1  0  0  0  0
 37 38  2  0  0  0  0
 38 45  1  0  0  0  0
 39 46  1  0  0  0  0
 39 38  1  0  0  0  0
 40 39  2  0  0  0  0
 41 40  1  0  0  0  0
 41 36  2  0  0  0  0
 42 41  1  0  0  0  0
 43 34  1  0  0  0  0
 47 40  1  0  0  0  0
 48 42  1  0  0  0  0
M  END
>  <minimizedAffinity>
-7.77266026

$$$$

 OpenBabel03242514003D

 48 53  0  0  1  0  0  0  0  0999 V2000
   39.3810   29.4610   42.6350 C   0  0  0  0  0  0  0  0  0  0  0  0
   38.1540   28.8130   42.6130 C   0  0  0  0  0  0  0  0  0  0  0  0
   37.0920   29.4540   41.9530 C   0  0  0  0  0  0  0  0  0  0  0  0
   37.3230   30.6510   41.3860 N   0  0  0  0  0  0  0  0  0  0  0  0
   38.5280   31.2600   41.4230 C   0  0  0  0  0  0  0  0  0  0  0  0
   39.5570   30.6420   42.0600 N   0  0  0  0  0  0  0  0  0  0  0  0
   40.1420   28.9010   43.1610 H   0  0  0  0  0  0  0  0  0  0  0  0
   36.1020   29.0200   41.8880 H   0  0  0  0  0  0  0  0  0  0  0  0
   38.8220   32.5510   40.8250 C   0  0  0  0  0  0  0  0  0  0  0  0
   37.8080   33.3300   40.2490 C   0  0  0  0  0  0  0  0  0  0  0  0
   38.3910   34.4940   39.7680 C   0  0  0  0  0  0  0  0  0  0  0  0
   39.7240   34.3960   40.0580 N   0  0  0  0  0  0  0  0  0  0  0  0
   39.9480   33.2370   40.6840 N   0  0  0  0  0  0  0  0  0  0  0  0
   36.7570   33.1190   40.1650 H   0  0  0  0  0  0  0  0  0  0  0  0
   37.8750   35.3050   39.2660 H   0  0  0  0  0  0  0  0  0  0  0  0
   40.7030   35.4110   39.7250 C   0  0  0  0  0  2  0  0  0  0  0  0
   42.0720   35.0240   40.1510 C   0  0  0  0  0  0  0  0  0  0  0  0
   42.9260   34.4220   39.3460 C   0  0  0  0  0  0  0  0  0  0  0  0
   44.2190   34.0730   39.8010 N   0  0  0  0  0  0  0  0  0  0  0  0
   45.6070   33.9840   39.5240 C   0  0  0  0  0  0  0  0  0  0  0  0
   46.3670   34.1810   38.5150 O   0  0  0  0  0  0  0  0  0  0  0  0
   45.8830   33.5530   40.9170 C   0  0  0  0  0  3  0  0  0  0  0  0
   46.2990   32.5060   40.9320 H   0  0  0  0  0  0  0  0  0  0  0  0
   44.4080   33.5400   41.1610 C   0  0  1  0  0  3  0  0  0  0  0  0
   43.8050   34.8490   42.2620 S   0  0  0  0  0  0  0  0  0  0  0  0
   42.2440   35.4370   41.5600 C   0  0  0  0  0  3  0  0  0  0  0  0
   41.4290   35.0290   42.1940 H   0  0  0  0  0  0  0  0  0  0  0  0
   42.5490   34.1080   37.9790 C   0  0  0  0  0  0  0  0  0  0  0  0
   41.9760   33.0400   37.6510 O   0  0  0  0  0  0  0  0  0  0  0  0
   42.3420   34.1360   36.6310 O   0  0  0  0  0  0  0  0  0  0  0  0
   42.0380   34.9880   36.1480 H   0  0  0  0  0  0  0  0  0  0  0  0
   37.8900   27.5820   43.1880 O   0  0  0  0  0  0  0  0  0  0  0  0
   38.1400   26.3500   42.5870 C   0  0  0  0  0  0  0  0  0  0  0  0
   39.2870   25.6010   42.7060 C   0  0  0  0  0  0  0  0  0  0  0  0
   39.3770   24.3900   42.0390 C   0  0  0  0  0  0  0  0  0  0  0  0
   38.3510   23.9060   41.2550 C   0  0  0  0  0  0  0  0  0  0  0  0
   38.5020   22.7330   40.6390 N   0  0  0  0  0  0  0  0  0  0  0  0
   37.5410   22.2090   39.8640 C   0  0  0  0  0  0  0  0  0  0  0  0
   36.3830   22.9340   39.7250 C   0  0  0  0  0  0  0  0  0  0  0  0
   36.2070   24.1760   40.3690 C   0  0  0  0  0  0  0  0  0  0  0  0
   37.2210   24.6660   41.1510 C   0  0  0  0  0  0  0  0  0  0  0  0
   37.0870   25.9000   41.8100 C   0  0  0  0  0  0  0  0  0  0  0  0
   40.0670   26.0130   43.3280 H   0  0  0  0  0  0  0  0  0  0  0  0
   40.2960   23.8050   42.1440 H   0  0  0  0  0  0  0  0  0  0  0  0
   37.7060   21.2660   39.3910 H   0  0  0  0  0  0  0  0  0  0  0  0
   35.6040   22.5140   39.0990 H   0  0  0  0  0  0  0  0  0  0  0  0
   35.2810   24.7070   40.2290 H   0  0  0  0  0  0  0  0  0  0  0  0
   36.1500   26.3970   41.6440 H   0  0  0  0  0  0  0  0  0  0  0  0
  1  7  1  0  0  0  0
  2  1  1  0  0  0  0
  2 32  1  0  0  0  0
  3  2  2  0  0  0  0
  4  5  2  0  0  0  0
  4  3  1  0  0  0  0
  5  6  1  0  0  0  0
  6  1  2  0  0  0  0
  8  3  1  0  0  0  0
  9  5  1  0  0  0  0
 10  9  1  0  0  0  0
 11 12  1  0  0  0  0
 11 10  2  0  0  0  0
 12 13  1  0  0  0  0
 13  9  2  0  0  0  0
 14 10  1  0  0  0  0
 15 11  1  0  0  0  0
 16 12  1  0  0  0  0
 16 17  1  0  0  0  0
 17 26  1  0  0  0  0
 18 19  1  0  0  0  0
 18 17  2  0  0  0  0
 19 24  1  0  0  0  0
 20 19  1  0  0  0  0
 20 22  1  0  0  0  0
 21 20  2  0  0  0  0
 22 23  1  0  0  0  0
 24 22  1  1  0  0  0
 24 25  1  0  0  0  0
 26 27  1  0  0  0  0
 26 25  1  0  0  0  0
 28 18  1  0  0  0  0
 29 28  2  0  0  0  0
 30 28  1  0  0  0  0
 31 30  1  0  0  0  0
 33 34  1  0  0  0  0
 33 32  1  0  0  0  0
 34 43  1  0  0  0  0
 35 44  1  0  0  0  0
 35 34  2  0  0  0  0
 36 35  1  0  0  0  0
 37 36  2  0  0  0  0
 38 37  1  0  0  0  0
 39 38  2  0  0  0  0
 39 40  1  0  0  0  0
 40 41  2  0  0  0  0
 41 36  1  0  0  0  0
 41 42  1  0  0  0  0
 42 33  2  0  0  0  0
 45 38  1  0  0  0  0
 46 39  1  0  0  0  0
 47 40  1  0  0  0  0
 48 42  1  0  0  0  0
M  END
>  <minimizedAffinity>
-7.59286833

$$$$

 OpenBabel03242514003D

 48 53  0  0  1  0  0  0  0  0999 V2000
   39.5540   34.4870   40.3950 C   0  0  0  0  0  0  0  0  0  0  0  0
   40.7760   34.9000   39.8860 C   0  0  0  0  0  0  0  0  0  0  0  0
   41.3370   34.1390   38.8460 C   0  0  0  0  0  0  0  0  0  0  0  0
   40.6630   33.0620   38.4080 N   0  0  0  0  0  0  0  0  0  0  0  0
   39.4730   32.6830   38.9220 C   0  0  0  0  0  0  0  0  0  0  0  0
   38.9270   33.4160   39.9280 N   0  0  0  0  0  0  0  0  0  0  0  0
   39.1920   35.1250   41.1910 H   0  0  0  0  0  0  0  0  0  0  0  0
   42.2880   34.3890   38.3910 H   0  0  0  0  0  0  0  0  0  0  0  0
   38.7090   31.5280   38.4800 C   0  0  0  0  0  0  0  0  0  0  0  0
   37.9460   31.5720   37.3040 C   0  0  0  0  0  0  0  0  0  0  0  0
   37.3390   30.3340   37.1480 C   0  0  0  0  0  0  0  0  0  0  0  0
   37.7410   29.5790   38.2160 N   0  0  0  0  0  0  0  0  0  0  0  0
   38.5510   30.3120   38.9850 N   0  0  0  0  0  0  0  0  0  0  0  0
   37.8160   32.3840   36.6110 H   0  0  0  0  0  0  0  0  0  0  0  0
   36.6810   30.0450   36.3350 H   0  0  0  0  0  0  0  0  0  0  0  0
   37.3320   28.2080   38.4380 C   0  0  0  0  0  2  0  0  0  0  0  0
   37.6760   27.7400   39.8050 C   0  0  0  0  0  0  0  0  0  0  0  0
   37.0580   28.1770   40.8850 C   0  0  0  0  0  0  0  0  0  0  0  0
   37.4240   27.7010   42.1660 N   0  0  0  0  0  0  0  0  0  0  0  0
   37.0100   27.2770   43.4540 C   0  0  0  0  0  0  0  0  0  0  0  0
   35.9070   27.2020   44.0970 O   0  0  0  0  0  0  0  0  0  0  0  0
   38.4060   26.9260   43.8150 C   0  0  0  0  0  3  0  0  0  0  0  0
   38.7700   27.5720   44.6620 H   0  0  0  0  0  0  0  0  0  0  0  0
   38.8420   27.4830   42.4990 C   0  0  1  0  0  3  0  0  0  0  0  0
   39.4170   26.2490   41.3000 S   0  0  0  0  0  0  0  0  0  0  0  0
   38.7710   26.7540   39.6860 C   0  0  0  0  0  3  0  0  0  0  0  0
   39.6230   27.1760   39.1130 H   0  0  0  0  0  0  0  0  0  0  0  0
   35.9910   29.1570   40.7750 C   0  0  0  0  0  0  0  0  0  0  0  0
   36.0570   30.3060   41.2770 O   0  0  0  0  0  0  0  0  0  0  0  0
   34.8300   29.8120   40.4850 O   0  0  0  0  0  0  0  0  0  0  0  0
   34.3820   29.7370   39.5660 H   0  0  0  0  0  0  0  0  0  0  0  0
   41.4910   36.0020   40.3190 O   0  0  0  0  0  0  0  0  0  0  0  0
   42.2350   36.0590   41.4970 C   0  0  0  0  0  0  0  0  0  0  0  0
   42.1270   37.0080   42.4860 C   0  0  0  0  0  0  0  0  0  0  0  0
   42.9460   36.9210   43.5990 C   0  0  0  0  0  0  0  0  0  0  0  0
   43.8710   35.9100   43.7530 C   0  0  0  0  0  0  0  0  0  0  0  0
   44.6290   35.8840   44.8500 N   0  0  0  0  0  0  0  0  0  0  0  0
   45.5460   34.9280   45.0570 C   0  0  0  0  0  0  0  0  0  0  0  0
   45.6770   33.9650   44.0870 C   0  0  0  0  0  0  0  0  0  0  0  0
   44.8840   33.9770   42.9210 C   0  0  0  0  0  0  0  0  0  0  0  0
   43.9610   34.9780   42.7590 C   0  0  0  0  0  0  0  0  0  0  0  0
   43.1510   35.0280   41.6120 C   0  0  0  0  0  0  0  0  0  0  0  0
   41.3930   37.7830   42.3290 H   0  0  0  0  0  0  0  0  0  0  0  0
   42.8490   37.6840   44.3780 H   0  0  0  0  0  0  0  0  0  0  0  0
   46.1290   34.9470   45.9510 H   0  0  0  0  0  0  0  0  0  0  0  0
   46.4170   33.1890   44.2510 H   0  0  0  0  0  0  0  0  0  0  0  0
   45.0240   33.2010   42.1890 H   0  0  0  0  0  0  0  0  0  0  0  0
   43.3220   34.2360   40.9070 H   0  0  0  0  0  0  0  0  0  0  0  0
  1  7  1  0  0  0  0
  2 32  1  0  0  0  0
  2  1  2  0  0  0  0
  3  2  1  0  0  0  0
  4  3  2  0  0  0  0
  4  5  1  0  0  0  0
  5  6  2  0  0  0  0
  6  1  1  0  0  0  0
  8  3  1  0  0  0  0
  9  5  1  0  0  0  0
  9 13  2  0  0  0  0
 10  9  1  0  0  0  0
 11 10  2  0  0  0  0
 11 12  1  0  0  0  0
 12 16  1  0  0  0  0
 12 13  1  0  0  0  0
 14 10  1  0  0  0  0
 15 11  1  0  0  0  0
 16 17  1  0  0  0  0
 17 18  2  0  0  0  0
 18 19  1  0  0  0  0
 19 24  1  0  0  0  0
 19 20  1  0  0  0  0
 20 22  1  0  0  0  0
 20 21  2  0  0  0  0
 22 23  1  0  0  0  0
 24 25  1  6  0  0  0
 24 22  1  0  0  0  0
 26 17  1  0  0  0  0
 26 25  1  0  0  0  0
 27 26  1  0  0  0  0
 28 18  1  0  0  0  0
 28 29  2  0  0  0  0
 30 28  1  0  0  0  0
 31 30  1  0  0  0  0
 32 33  1  0  0  0  0
 33 42  2  0  0  0  0
 33 34  1  0  0  0  0
 34 35  2  0  0  0  0
 35 36  1  0  0  0  0
 35 44  1  0  0  0  0
 36 37  1  0  0  0  0
 37 38  2  0  0  0  0
 38 45  1  0  0  0  0
 39 46  1  0  0  0  0
 39 38  1  0  0  0  0
 40 39  2  0  0  0  0
 41 40  1  0  0  0  0
 41 36  2  0  0  0  0
 42 41  1  0  0  0  0
 43 34  1  0  0  0  0
 47 40  1  0  0  0  0
 48 42  1  0  0  0  0
M  END
>  <minimizedAffinity>
-7.5611825

$$$$

 OpenBabel03242514003D

 48 53  0  0  1  0  0  0  0  0999 V2000
   39.0040   28.9620   42.5710 C   0  0  0  0  0  0  0  0  0  0  0  0
   37.7430   28.3940   42.4570 C   0  0  0  0  0  0  0  0  0  0  0  0
   36.7520   29.1400   41.7950 C   0  0  0  0  0  0  0  0  0  0  0  0
   37.0790   30.3520   41.3160 N   0  0  0  0  0  0  0  0  0  0  0  0
   38.3160   30.8810   41.4400 C   0  0  0  0  0  0  0  0  0  0  0  0
   39.2770   30.1630   42.0790 N   0  0  0  0  0  0  0  0  0  0  0  0
   39.7060   28.3250   43.0910 H   0  0  0  0  0  0  0  0  0  0  0  0
   35.7410   28.7730   41.6620 H   0  0  0  0  0  0  0  0  0  0  0  0
   38.7140   32.1850   40.9380 C   0  0  0  0  0  0  0  0  0  0  0  0
   37.7920   33.0260   40.2970 C   0  0  0  0  0  0  0  0  0  0  0  0
   38.4600   34.1870   39.9350 C   0  0  0  0  0  0  0  0  0  0  0  0
   39.7510   34.0270   40.3580 N   0  0  0  0  0  0  0  0  0  0  0  0
   39.8700   32.8340   40.9480 N   0  0  0  0  0  0  0  0  0  0  0  0
   36.7490   32.8580   40.0930 H   0  0  0  0  0  0  0  0  0  0  0  0
   38.0260   35.0380   39.4200 H   0  0  0  0  0  0  0  0  0  0  0  0
   40.7920   35.0180   40.1770 C   0  0  0  0  0  2  0  0  0  0  0  0
   42.0440   34.4190   39.6500 C   0  0  0  0  0  0  0  0  0  0  0  0
   43.1360   34.2920   40.3790 C   0  0  0  0  0  0  0  0  0  0  0  0
   44.3050   33.7150   39.8300 N   0  0  0  0  0  0  0  0  0  0  0  0
   45.4240   32.8630   40.0120 C   0  0  0  0  0  0  0  0  0  0  0  0
   45.9330   32.1920   40.9730 O   0  0  0  0  0  0  0  0  0  0  0  0
   45.8180   33.0370   38.5910 C   0  0  0  0  0  3  0  0  0  0  0  0
   46.8170   33.5510   38.5190 H   0  0  0  0  0  0  0  0  0  0  0  0
   44.7040   34.0220   38.4460 C   0  0  1  0  0  3  0  0  0  0  0  0
   43.3140   33.4570   37.4250 S   0  0  0  0  0  0  0  0  0  0  0  0
   41.8040   34.0260   38.2450 C   0  0  0  0  0  3  0  0  0  0  0  0
   41.4180   34.8830   37.6560 H   0  0  0  0  0  0  0  0  0  0  0  0
   43.1540   34.7460   41.7590 C   0  0  0  0  0  0  0  0  0  0  0  0
   43.7070   34.1060   42.6870 O   0  0  0  0  0  0  0  0  0  0  0  0
   42.9870   35.4480   42.9160 O   0  0  0  0  0  0  0  0  0  0  0  0
   43.0750   36.4700   42.9460 H   0  0  0  0  0  0  0  0  0  0  0  0
   37.3800   27.1500   42.9420 O   0  0  0  0  0  0  0  0  0  0  0  0
   37.7150   25.9340   42.3490 C   0  0  0  0  0  0  0  0  0  0  0  0
   38.8720   25.2190   42.5490 C   0  0  0  0  0  0  0  0  0  0  0  0
   39.0520   24.0210   41.8790 C   0  0  0  0  0  0  0  0  0  0  0  0
   38.1050   23.5150   41.0130 C   0  0  0  0  0  0  0  0  0  0  0  0
   38.3410   22.3540   40.3990 N   0  0  0  0  0  0  0  0  0  0  0  0
   37.4600   21.8100   39.5470 C   0  0  0  0  0  0  0  0  0  0  0  0
   36.2930   22.5010   39.3270 C   0  0  0  0  0  0  0  0  0  0  0  0
   36.0280   23.7280   39.9670 C   0  0  0  0  0  0  0  0  0  0  0  0
   36.9630   24.2400   40.8300 C   0  0  0  0  0  0  0  0  0  0  0  0
   36.7390   25.4610   41.4890 C   0  0  0  0  0  0  0  0  0  0  0  0
   39.5890   25.6480   43.2330 H   0  0  0  0  0  0  0  0  0  0  0  0
   39.9790   23.4640   42.0480 H   0  0  0  0  0  0  0  0  0  0  0  0
   37.6910   20.8790   39.0790 H   0  0  0  0  0  0  0  0  0  0  0  0
   35.5780   22.0640   38.6390 H   0  0  0  0  0  0  0  0  0  0  0  0
   35.0990   24.2310   39.7620 H   0  0  0  0  0  0  0  0  0  0  0  0
   35.8020   25.9300   41.2570 H   0  0  0  0  0  0  0  0  0  0  0  0
  1  7  1  0  0  0  0
  2  1  1  0  0  0  0
  2 32  1  0  0  0  0
  3  2  2  0  0  0  0
  4  5  2  0  0  0  0
  4  3  1  0  0  0  0
  5  6  1  0  0  0  0
  6  1  2  0  0  0  0
  8  3  1  0  0  0  0
  9 13  2  0  0  0  0
  9  5  1  0  0  0  0
 10  9  1  0  0  0  0
 11 10  2  0  0  0  0
 11 12  1  0  0  0  0
 12 13  1  0  0  0  0
 14 10  1  0  0  0  0
 15 11  1  0  0  0  0
 16 12  1  0  0  0  0
 17 16  1  0  0  0  0
 17 18  2  0  0  0  0
 18 28  1  0  0  0  0
 19 20  1  0  0  0  0
 19 18  1  0  0  0  0
 20 21  2  0  0  0  0
 22 20  1  0  0  0  0
 23 22  1  0  0  0  0
 24 25  1  6  0  0  0
 24 22  1  0  0  0  0
 24 19  1  0  0  0  0
 25 26  1  0  0  0  0
 26 17  1  0  0  0  0
 27 26  1  0  0  0  0
 28 29  2  0  0  0  0
 28 30  1  0  0  0  0
 30 31  1  0  0  0  0
 33 34  1  0  0  0  0
 33 32  1  0  0  0  0
 34 43  1  0  0  0  0
 35 44  1  0  0  0  0
 35 34  2  0  0  0  0
 36 35  1  0  0  0  0
 37 36  2  0  0  0  0
 38 37  1  0  0  0  0
 39 38  2  0  0  0  0
 39 40  1  0  0  0  0
 40 41  2  0  0  0  0
 41 36  1  0  0  0  0
 41 42  1  0  0  0  0
 42 33  2  0  0  0  0
 45 38  1  0  0  0  0
 46 39  1  0  0  0  0
 47 40  1  0  0  0  0
 48 42  1  0  0  0  0
M  END
>  <minimizedAffinity>
-7.24019623

$$$$

 OpenBabel03242514003D

 48 53  0  0  1  0  0  0  0  0999 V2000
   36.0690   30.4750   40.5880 C   0  0  0  0  0  0  0  0  0  0  0  0
   36.5730   29.3010   40.0480 C   0  0  0  0  0  0  0  0  0  0  0  0
   37.8420   29.3560   39.4470 C   0  0  0  0  0  0  0  0  0  0  0  0
   38.4890   30.5330   39.4280 N   0  0  0  0  0  0  0  0  0  0  0  0
   37.9750   31.6620   39.9610 C   0  0  0  0  0  0  0  0  0  0  0  0
   36.7480   31.6130   40.5440 N   0  0  0  0  0  0  0  0  0  0  0  0
   35.0900   30.3480   41.0310 H   0  0  0  0  0  0  0  0  0  0  0  0
   38.3120   28.4870   39.0000 H   0  0  0  0  0  0  0  0  0  0  0  0
   38.6380   32.9550   39.9640 C   0  0  0  0  0  0  0  0  0  0  0  0
   37.9130   34.1390   40.1620 C   0  0  0  0  0  0  0  0  0  0  0  0
   38.8090   35.1970   40.1130 C   0  0  0  0  0  0  0  0  0  0  0  0
   40.0380   34.6400   39.8900 N   0  0  0  0  0  0  0  0  0  0  0  0
   39.9050   33.3130   39.8070 N   0  0  0  0  0  0  0  0  0  0  0  0
   36.8570   34.2680   40.3260 H   0  0  0  0  0  0  0  0  0  0  0  0
   38.5630   36.2470   40.2300 H   0  0  0  0  0  0  0  0  0  0  0  0
   41.2640   35.4020   39.7700 C   0  0  0  0  0  2  0  0  0  0  0  0
   42.4590   34.5930   40.1220 C   0  0  0  0  0  0  0  0  0  0  0  0
   43.1900   33.9700   39.2190 C   0  0  0  0  0  0  0  0  0  0  0  0
   44.3180   33.2100   39.6060 N   0  0  0  0  0  0  0  0  0  0  0  0
   45.6560   32.8230   39.3380 C   0  0  0  0  0  0  0  0  0  0  0  0
   46.5110   33.0210   38.4090 O   0  0  0  0  0  0  0  0  0  0  0  0
   45.7150   32.0560   40.6080 C   0  0  0  0  0  3  0  0  0  0  0  0
   45.8530   30.9580   40.4000 H   0  0  0  0  0  0  0  0  0  0  0  0
   44.2700   32.3760   40.8190 C   0  0  1  0  0  3  0  0  0  0  0  0
   43.9360   33.5400   42.1710 S   0  0  0  0  0  0  0  0  0  0  0  0
   42.6270   34.6460   41.5900 C   0  0  0  0  0  3  0  0  0  0  0  0
   41.6920   34.3410   42.1060 H   0  0  0  0  0  0  0  0  0  0  0  0
   42.8460   34.0550   37.8100 C   0  0  0  0  0  0  0  0  0  0  0  0
   42.0810   33.2410   37.2380 O   0  0  0  0  0  0  0  0  0  0  0  0
   42.7380   34.4240   36.5010 O   0  0  0  0  0  0  0  0  0  0  0  0
   42.6560   35.4070   36.2210 H   0  0  0  0  0  0  0  0  0  0  0  0
   35.9280   28.0770   40.0530 O   0  0  0  0  0  0  0  0  0  0  0  0
   36.5190   26.8650   40.4090 C   0  0  0  0  0  0  0  0  0  0  0  0
   37.0960   26.5620   41.6190 C   0  0  0  0  0  0  0  0  0  0  0  0
   37.6420   25.3040   41.8120 C   0  0  0  0  0  0  0  0  0  0  0  0
   37.6270   24.3380   40.8280 C   0  0  0  0  0  0  0  0  0  0  0  0
   38.1700   23.1460   41.0780 N   0  0  0  0  0  0  0  0  0  0  0  0
   38.1860   22.1670   40.1640 C   0  0  0  0  0  0  0  0  0  0  0  0
   37.6160   22.4390   38.9440 C   0  0  0  0  0  0  0  0  0  0  0  0
   37.0370   23.6930   38.6620 C   0  0  0  0  0  0  0  0  0  0  0  0
   37.0470   24.6600   39.6340 C   0  0  0  0  0  0  0  0  0  0  0  0
   36.4820   25.9240   39.3950 C   0  0  0  0  0  0  0  0  0  0  0  0
   37.0890   27.3440   42.3630 H   0  0  0  0  0  0  0  0  0  0  0  0
   38.0990   25.0780   42.7800 H   0  0  0  0  0  0  0  0  0  0  0  0
   38.6320   21.2280   40.4090 H   0  0  0  0  0  0  0  0  0  0  0  0
   37.6260   21.6490   38.2010 H   0  0  0  0  0  0  0  0  0  0  0  0
   36.6030   23.8580   37.6920 H   0  0  0  0  0  0  0  0  0  0  0  0
   36.0600   26.0480   38.4150 H   0  0  0  0  0  0  0  0  0  0  0  0
  1  7  1  0  0  0  0
  2 32  1  0  0  0  0
  2  1  2  0  0  0  0
  3  2  1  0  0  0  0
  4  3  2  0  0  0  0
  4  5  1  0  0  0  0
  5  9  1  0  0  0  0
  5  6  2  0  0  0  0
  6  1  1  0  0  0  0
  8  3  1  0  0  0  0
  9 10  1  0  0  0  0
 10 14  1  0  0  0  0
 11 10  2  0  0  0  0
 11 15  1  0  0  0  0
 12 11  1  0  0  0  0
 13 12  1  0  0  0  0
 13  9  2  0  0  0  0
 16 12  1  0  0  0  0
 16 17  1  0  0  0  0
 17 26  1  0  0  0  0
 18 19  1  0  0  0  0
 18 17  2  0  0  0  0
 19 24  1  0  0  0  0
 20 19  1  0  0  0  0
 20 22  1  0  0  0  0
 21 20  2  0  0  0  0
 23 22  1  0  0  0  0
 24 22  1  1  0  0  0
 24 25  1  0  0  0  0
 26 27  1  0  0  0  0
 26 25  1  0  0  0  0
 28 18  1  0  0  0  0
 29 28  2  0  0  0  0
 30 28  1  0  0  0  0
 31 30  1  0  0  0  0
 32 33  1  0  0  0  0
 33 34  1  0  0  0  0
 34 35  2  0  0  0  0
 34 43  1  0  0  0  0
 35 44  1  0  0  0  0
 36 37  1  0  0  0  0
 36 35  1  0  0  0  0
 38 45  1  0  0  0  0
 38 37  2  0  0  0  0
 39 38  1  0  0  0  0
 40 39  2  0  0  0  0
 40 41  1  0  0  0  0
 41 36  2  0  0  0  0
 42 41  1  0  0  0  0
 42 33  2  0  0  0  0
 46 39  1  0  0  0  0
 47 40  1  0  0  0  0
 48 42  1  0  0  0  0
M  END
>  <minimizedAffinity>
-7.22609711

$$$$

 OpenBabel03242514003D

 48 53  0  0  1  0  0  0  0  0999 V2000
   39.1850   34.4890   40.6190 C   0  0  0  0  0  0  0  0  0  0  0  0
   40.4130   34.7970   40.0520 C   0  0  0  0  0  0  0  0  0  0  0  0
   40.9030   33.9340   39.0570 C   0  0  0  0  0  0  0  0  0  0  0  0
   40.1610   32.8670   38.7150 N   0  0  0  0  0  0  0  0  0  0  0  0
   38.9670   32.5910   39.2840 C   0  0  0  0  0  0  0  0  0  0  0  0
   38.4900   33.4240   40.2470 N   0  0  0  0  0  0  0  0  0  0  0  0
   38.8810   35.2010   41.3750 H   0  0  0  0  0  0  0  0  0  0  0  0
   41.8530   34.0980   38.5610 H   0  0  0  0  0  0  0  0  0  0  0  0
   38.1320   31.4520   38.9460 C   0  0  0  0  0  0  0  0  0  0  0  0
   37.4110   31.4140   37.7430 C   0  0  0  0  0  0  0  0  0  0  0  0
   36.7150   30.2150   37.7040 C   0  0  0  0  0  0  0  0  0  0  0  0
   37.0250   29.5610   38.8660 N   0  0  0  0  0  0  0  0  0  0  0  0
   37.8650   30.3170   39.5780 N   0  0  0  0  0  0  0  0  0  0  0  0
   37.3640   32.1480   36.9580 H   0  0  0  0  0  0  0  0  0  0  0  0
   36.0620   29.8810   36.9040 H   0  0  0  0  0  0  0  0  0  0  0  0
   36.5050   28.2580   39.2260 C   0  0  0  0  0  2  0  0  0  0  0  0
   37.2360   27.6660   40.3750 C   0  0  0  0  0  0  0  0  0  0  0  0
   38.3190   26.9280   40.2280 C   0  0  0  0  0  0  0  0  0  0  0  0
   38.9790   26.3860   41.3560 N   0  0  0  0  0  0  0  0  0  0  0  0
   40.2050   26.0770   41.9970 C   0  0  0  0  0  0  0  0  0  0  0  0
   41.4480   26.1400   41.7030 O   0  0  0  0  0  0  0  0  0  0  0  0
   39.4840   25.6260   43.2140 C   0  0  0  0  0  3  0  0  0  0  0  0
   39.6580   24.5280   43.3910 H   0  0  0  0  0  0  0  0  0  0  0  0
   38.1990   25.8470   42.4830 C   0  0  1  0  0  3  0  0  0  0  0  0
   37.2140   27.2490   43.0800 S   0  0  0  0  0  0  0  0  0  0  0  0
   36.5350   28.0660   41.6140 C   0  0  0  0  0  3  0  0  0  0  0  0
   35.4590   27.7980   41.5630 H   0  0  0  0  0  0  0  0  0  0  0  0
   38.8500   26.6600   38.9030 C   0  0  0  0  0  0  0  0  0  0  0  0
   38.8180   25.5250   38.3660 O   0  0  0  0  0  0  0  0  0  0  0  0
   39.4260   26.7590   37.6700 O   0  0  0  0  0  0  0  0  0  0  0  0
   39.2560   27.5630   37.0570 H   0  0  0  0  0  0  0  0  0  0  0  0
   41.1980   35.8860   40.3860 O   0  0  0  0  0  0  0  0  0  0  0  0
   42.0540   35.9470   41.4850 C   0  0  0  0  0  0  0  0  0  0  0  0
   42.0800   36.9270   42.4470 C   0  0  0  0  0  0  0  0  0  0  0  0
   42.9980   36.8390   43.4800 C   0  0  0  0  0  0  0  0  0  0  0  0
   43.8950   35.7950   43.5770 C   0  0  0  0  0  0  0  0  0  0  0  0
   44.7540   35.7700   44.5970 N   0  0  0  0  0  0  0  0  0  0  0  0
   45.6490   34.7830   44.7470 C   0  0  0  0  0  0  0  0  0  0  0  0
   45.6480   33.7870   43.8000 C   0  0  0  0  0  0  0  0  0  0  0  0
   44.7470   33.7980   42.7160 C   0  0  0  0  0  0  0  0  0  0  0  0
   43.8520   34.8320   42.6100 C   0  0  0  0  0  0  0  0  0  0  0  0
   42.9360   34.8820   41.5450 C   0  0  0  0  0  0  0  0  0  0  0  0
   41.3640   37.7270   42.3370 H   0  0  0  0  0  0  0  0  0  0  0  0
   43.0070   37.6270   44.2390 H   0  0  0  0  0  0  0  0  0  0  0  0
   46.3170   34.8040   45.5790 H   0  0  0  0  0  0  0  0  0  0  0  0
   46.3700   32.9870   43.9180 H   0  0  0  0  0  0  0  0  0  0  0  0
   44.7860   32.9960   42.0000 H   0  0  0  0  0  0  0  0  0  0  0  0
   43.0080   34.0640   40.8540 H   0  0  0  0  0  0  0  0  0  0  0  0
  1  7  1  0  0  0  0
  2 32  1  0  0  0  0
  2  1  2  0  0  0  0
  3  2  1  0  0  0  0
  4  3  2  0  0  0  0
  4  5  1  0  0  0  0
  5  6  2  0  0  0  0
  6  1  1  0  0  0  0
  8  3  1  0  0  0  0
  9  5  1  0  0  0  0
  9 13  2  0  0  0  0
 10  9  1  0  0  0  0
 11 10  2  0  0  0  0
 11 12  1  0  0  0  0
 12 16  1  0  0  0  0
 12 13  1  0  0  0  0
 14 10  1  0  0  0  0
 15 11  1  0  0  0  0
 16 17  1  0  0  0  0
 17 26  1  0  0  0  0
 18 17  2  0  0  0  0
 18 19  1  0  0  0  0
 19 20  1  0  0  0  0
 19 24  1  0  0  0  0
 20 22  1  0  0  0  0
 21 20  2  0  0  0  0
 22 23  1  0  0  0  0
 24 25  1  1  0  0  0
 24 22  1  0  0  0  0
 26 25  1  0  0  0  0
 27 26  1  0  0  0  0
 28 18  1  0  0  0  0
 29 28  2  0  0  0  0
 30 28  1  0  0  0  0
 31 30  1  0  0  0  0
 32 33  1  0  0  0  0
 33 42  2  0  0  0  0
 33 34  1  0  0  0  0
 34 35  2  0  0  0  0
 35 36  1  0  0  0  0
 35 44  1  0  0  0  0
 36 37  1  0  0  0  0
 37 38  2  0  0  0  0
 38 45  1  0  0  0  0
 39 46  1  0  0  0  0
 39 38  1  0  0  0  0
 40 39  2  0  0  0  0
 41 40  1  0  0  0  0
 41 36  2  0  0  0  0
 42 41  1  0  0  0  0
 43 34  1  0  0  0  0
 47 40  1  0  0  0  0
 48 42  1  0  0  0  0
M  END
>  <minimizedAffinity>
-7.11500502

$$$$

 OpenBabel03242514003D

 48 53  0  0  1  0  0  0  0  0999 V2000
   38.9140   34.0820   40.4460 C   0  0  0  0  0  0  0  0  0  0  0  0
   40.1030   34.1200   39.7320 C   0  0  0  0  0  0  0  0  0  0  0  0
   40.4020   33.0190   38.9100 C   0  0  0  0  0  0  0  0  0  0  0  0
   39.5280   32.0010   38.8640 N   0  0  0  0  0  0  0  0  0  0  0  0
   38.3770   31.9890   39.5700 C   0  0  0  0  0  0  0  0  0  0  0  0
   38.0840   33.0520   40.3660 N   0  0  0  0  0  0  0  0  0  0  0  0
   38.7600   34.9650   41.0510 H   0  0  0  0  0  0  0  0  0  0  0  0
   41.3090   32.9650   38.3180 H   0  0  0  0  0  0  0  0  0  0  0  0
   37.4030   30.9110   39.5520 C   0  0  0  0  0  0  0  0  0  0  0  0
   36.3340   30.8860   40.4600 C   0  0  0  0  0  0  0  0  0  0  0  0
   35.5840   29.7490   40.1990 C   0  0  0  0  0  0  0  0  0  0  0  0
   36.2040   29.1190   39.1540 N   0  0  0  0  0  0  0  0  0  0  0  0
   37.2760   29.8310   38.7930 N   0  0  0  0  0  0  0  0  0  0  0  0
   36.0890   31.5880   41.2380 H   0  0  0  0  0  0  0  0  0  0  0  0
   34.6890   29.4390   40.7290 H   0  0  0  0  0  0  0  0  0  0  0  0
   35.7400   27.8810   38.5630 C   0  0  0  0  0  2  0  0  0  0  0  0
   36.7910   26.8320   38.5740 C   0  0  0  0  0  0  0  0  0  0  0  0
   37.4800   26.5020   37.4990 C   0  0  0  0  0  0  0  0  0  0  0  0
   38.4700   25.4940   37.5620 N   0  0  0  0  0  0  0  0  0  0  0  0
   39.7560   25.0450   37.1640 C   0  0  0  0  0  0  0  0  0  0  0  0
   40.6810   25.4550   36.3830 O   0  0  0  0  0  0  0  0  0  0  0  0
   39.6370   23.8510   38.0380 C   0  0  0  0  0  3  0  0  0  0  0  0
   39.6360   22.9090   37.4210 H   0  0  0  0  0  0  0  0  0  0  0  0
   38.2400   24.2760   38.3570 C   0  0  1  0  0  3  0  0  0  0  0  0
   37.9920   24.8690   40.0540 S   0  0  0  0  0  0  0  0  0  0  0  0
   36.8810   26.2930   39.9480 C   0  0  0  0  0  3  0  0  0  0  0  0
   35.8860   25.9560   40.3070 H   0  0  0  0  0  0  0  0  0  0  0  0
   37.2310   27.1690   36.2330 C   0  0  0  0  0  0  0  0  0  0  0  0
   37.9080   28.1450   35.8250 O   0  0  0  0  0  0  0  0  0  0  0  0
   36.7360   27.5490   35.0200 O   0  0  0  0  0  0  0  0  0  0  0  0
   36.4470   26.8630   34.3150 H   0  0  0  0  0  0  0  0  0  0  0  0
   41.0210   35.1550   39.7610 O   0  0  0  0  0  0  0  0  0  0  0  0
   41.6660   35.6170   40.9070 C   0  0  0  0  0  0  0  0  0  0  0  0
   41.3260   36.7250   41.6450 C   0  0  0  0  0  0  0  0  0  0  0  0
   42.0750   37.0500   42.7640 C   0  0  0  0  0  0  0  0  0  0  0  0
   43.1570   36.2950   43.1670 C   0  0  0  0  0  0  0  0  0  0  0  0
   43.8370   36.6620   44.2540 N   0  0  0  0  0  0  0  0  0  0  0  0
   44.8960   35.9700   44.6970 C   0  0  0  0  0  0  0  0  0  0  0  0
   45.2610   34.8570   43.9800 C   0  0  0  0  0  0  0  0  0  0  0  0
   44.5540   34.4540   42.8290 C   0  0  0  0  0  0  0  0  0  0  0  0
   43.4770   35.1970   42.4200 C   0  0  0  0  0  0  0  0  0  0  0  0
   42.7440   34.8320   41.2770 C   0  0  0  0  0  0  0  0  0  0  0  0
   40.4750   37.2910   41.2980 H   0  0  0  0  0  0  0  0  0  0  0  0
   41.7930   37.9360   43.3410 H   0  0  0  0  0  0  0  0  0  0  0  0
   45.4090   36.3010   45.5720 H   0  0  0  0  0  0  0  0  0  0  0  0
   46.1170   34.2940   44.3350 H   0  0  0  0  0  0  0  0  0  0  0  0
   44.8780   33.5740   42.3010 H   0  0  0  0  0  0  0  0  0  0  0  0
   43.1000   33.9490   40.7810 H   0  0  0  0  0  0  0  0  0  0  0  0
  1  7  1  0  0  0  0
  2 32  1  0  0  0  0
  2  1  2  0  0  0  0
  3  2  1  0  0  0  0
  4  3  2  0  0  0  0
  4  5  1  0  0  0  0
  5  6  2  0  0  0  0
  6  1  1  0  0  0  0
  8  3  1  0  0  0  0
  9  5  1  0  0  0  0
  9 10  1  0  0  0  0
 10 14  1  0  0  0  0
 11 10  2  0  0  0  0
 11 15  1  0  0  0  0
 12 11  1  0  0  0  0
 13 12  1  0  0  0  0
 13  9  2  0  0  0  0
 16 17  1  0  0  0  0
 16 12  1  0  0  0  0
 17 26  1  0  0  0  0
 18 19  1  0  0  0  0
 18 17  2  0  0  0  0
 19 24  1  0  0  0  0
 20 19  1  0  0  0  0
 20 22  1  0  0  0  0
 21 20  2  0  0  0  0
 23 22  1  0  0  0  0
 24 22  1  1  0  0  0
 24 25  1  0  0  0  0
 26 25  1  0  0  0  0
 26 27  1  0  0  0  0
 28 18  1  0  0  0  0
 29 28  2  0  0  0  0
 30 28  1  0  0  0  0
 31 30  1  0  0  0  0
 32 33  1  0  0  0  0
 33 42  2  0  0  0  0
 33 34  1  0  0  0  0
 34 35  2  0  0  0  0
 35 36  1  0  0  0  0
 35 44  1  0  0  0  0
 36 37  1  0  0  0  0
 37 38  2  0  0  0  0
 38 45  1  0  0  0  0
 39 46  1  0  0  0  0
 39 38  1  0  0  0  0
 40 39  2  0  0  0  0
 41 40  1  0  0  0  0
 41 36  2  0  0  0  0
 42 41  1  0  0  0  0
 43 34  1  0  0  0  0
 47 40  1  0  0  0  0
 48 42  1  0  0  0  0
M  END
>  <minimizedAffinity>
-6.96253061

$$$$

 OpenBabel03242514003D

 48 53  0  0  1  0  0  0  0  0999 V2000
   41.1410   33.6780   38.9560 C   0  0  0  0  0  0  0  0  0  0  0  0
   42.2420   33.0820   39.5540 C   0  0  0  0  0  0  0  0  0  0  0  0
   42.1070   31.7500   39.9820 C   0  0  0  0  0  0  0  0  0  0  0  0
   40.9290   31.1340   39.7890 N   0  0  0  0  0  0  0  0  0  0  0  0
   39.8720   31.7380   39.2040 C   0  0  0  0  0  0  0  0  0  0  0  0
   39.9990   33.0260   38.7890 N   0  0  0  0  0  0  0  0  0  0  0  0
   41.3270   34.7000   38.6570 H   0  0  0  0  0  0  0  0  0  0  0  0
   42.9160   31.2080   40.4580 H   0  0  0  0  0  0  0  0  0  0  0  0
   38.5810   31.1120   38.9760 C   0  0  0  0  0  0  0  0  0  0  0  0
   37.8520   31.3630   37.8040 C   0  0  0  0  0  0  0  0  0  0  0  0
   36.6750   30.6320   37.8730 C   0  0  0  0  0  0  0  0  0  0  0  0
   36.7160   29.9630   39.0660 N   0  0  0  0  0  0  0  0  0  0  0  0
   37.8560   30.2670   39.6950 N   0  0  0  0  0  0  0  0  0  0  0  0
   38.1050   31.9960   36.9710 H   0  0  0  0  0  0  0  0  0  0  0  0
   35.8930   30.6090   37.1220 H   0  0  0  0  0  0  0  0  0  0  0  0
   35.6710   29.0760   39.5350 C   0  0  0  0  0  2  0  0  0  0  0  0
   36.1150   27.6590   39.5610 C   0  0  0  0  0  0  0  0  0  0  0  0
   36.6960   27.1130   40.6110 C   0  0  0  0  0  0  0  0  0  0  0  0
   37.1020   25.7590   40.5850 N   0  0  0  0  0  0  0  0  0  0  0  0
   37.2120   24.5240   41.2740 C   0  0  0  0  0  0  0  0  0  0  0  0
   36.9830   24.0970   42.4570 O   0  0  0  0  0  0  0  0  0  0  0  0
   37.7220   23.8570   40.0490 C   0  0  0  0  0  3  0  0  0  0  0  0
   38.7780   23.4990   40.2040 H   0  0  0  0  0  0  0  0  0  0  0  0
   37.7090   25.1890   39.3700 C   0  0  1  0  0  3  0  0  0  0  0  0
   36.4430   25.3780   38.0840 S   0  0  0  0  0  0  0  0  0  0  0  0
   35.7790   27.0530   38.2540 C   0  0  0  0  0  3  0  0  0  0  0  0
   36.1980   27.6550   37.4210 H   0  0  0  0  0  0  0  0  0  0  0  0
   36.9300   27.8970   41.8110 C   0  0  0  0  0  0  0  0  0  0  0  0
   36.4230   27.6180   42.9260 O   0  0  0  0  0  0  0  0  0  0  0  0
   37.3530   28.8290   42.7140 O   0  0  0  0  0  0  0  0  0  0  0  0
   38.3180   29.1750   42.7220 H   0  0  0  0  0  0  0  0  0  0  0  0
   43.4650   33.6930   39.7650 O   0  0  0  0  0  0  0  0  0  0  0  0
   43.9570   34.0890   41.0080 C   0  0  0  0  0  0  0  0  0  0  0  0
   45.0130   33.5270   41.6850 C   0  0  0  0  0  0  0  0  0  0  0  0
   45.3760   34.0410   42.9190 C   0  0  0  0  0  0  0  0  0  0  0  0
   44.7120   35.1030   43.4960 C   0  0  0  0  0  0  0  0  0  0  0  0
   45.1120   35.5500   44.6870 N   0  0  0  0  0  0  0  0  0  0  0  0
   44.5080   36.5780   45.2990 C   0  0  0  0  0  0  0  0  0  0  0  0
   43.4490   37.1610   44.6470 C   0  0  0  0  0  0  0  0  0  0  0  0
   43.0130   36.7020   43.3880 C   0  0  0  0  0  0  0  0  0  0  0  0
   43.6660   35.6460   42.8060 C   0  0  0  0  0  0  0  0  0  0  0  0
   43.2640   35.1560   41.5520 C   0  0  0  0  0  0  0  0  0  0  0  0
   45.5060   32.6980   41.2020 H   0  0  0  0  0  0  0  0  0  0  0  0
   46.2180   33.5830   43.4460 H   0  0  0  0  0  0  0  0  0  0  0  0
   44.8640   36.9020   46.2520 H   0  0  0  0  0  0  0  0  0  0  0  0
   42.9590   37.9940   45.1390 H   0  0  0  0  0  0  0  0  0  0  0  0
   42.1780   37.1910   42.9170 H   0  0  0  0  0  0  0  0  0  0  0  0
   42.4290   35.6720   41.1170 H   0  0  0  0  0  0  0  0  0  0  0  0
  1  2  1  0  0  0  0
  2 32  1  0  0  0  0
  2  3  2  0  0  0  0
  3  8  1  0  0  0  0
  4  3  1  0  0  0  0
  5  4  2  0  0  0  0
  6  1  2  0  0  0  0
  6  5  1  0  0  0  0
  7  1  1  0  0  0  0
  9  5  1  0  0  0  0
  9 13  2  0  0  0  0
 10 11  2  0  0  0  0
 10  9  1  0  0  0  0
 11 12  1  0  0  0  0
 12 16  1  0  0  0  0
 12 13  1  0  0  0  0
 14 10  1  0  0  0  0
 15 11  1  0  0  0  0
 16 17  1  0  0  0  0
 17 18  2  0  0  0  0
 18 28  1  0  0  0  0
 19 18  1  0  0  0  0
 19 20  1  0  0  0  0
 20 21  2  0  0  0  0
 22 23  1  0  0  0  0
 22 20  1  0  0  0  0
 24 25  1  6  0  0  0
 24 22  1  0  0  0  0
 24 19  1  0  0  0  0
 25 26  1  0  0  0  0
 26 17  1  0  0  0  0
 27 26  1  0  0  0  0
 28 30  1  0  0  0  0
 28 29  2  0  0  0  0
 30 31  1  0  0  0  0
 32 33  1  0  0  0  0
 33 42  2  0  0  0  0
 33 34  1  0  0  0  0
 34 35  2  0  0  0  0
 35 44  1  0  0  0  0
 35 36  1  0  0  0  0
 36 37  1  0  0  0  0
 37 38  2  0  0  0  0
 38 45  1  0  0  0  0
 39 46  1  0  0  0  0
 39 38  1  0  0  0  0
 40 39  2  0  0  0  0
 41 40  1  0  0  0  0
 41 36  2  0  0  0  0
 42 41  1  0  0  0  0
 43 34  1  0  0  0  0
 47 40  1  0  0  0  0
 48 42  1  0  0  0  0
M  END
>  <minimizedAffinity>
-6.84532499

$$$$
