
 OpenBabel03242523293D

 29 31  0  0  1  0  0  0  0  0999 V2000
   46.5060   30.5570   43.2660 C   0  0  0  0  0  0  0  0  0  0  0  0
   45.7370   31.0720   42.3100 C   0  0  0  0  0  0  0  0  0  0  0  0
   46.1340   30.9830   40.9480 N   0  0  0  0  0  0  0  0  0  0  0  0
   46.3060   31.7520   39.7330 C   0  0  0  0  0  0  0  0  0  0  0  0
   45.9510   32.8780   39.2430 O   0  0  0  0  0  0  0  0  0  0  0  0
   47.1360   30.6140   39.2220 C   0  0  0  0  0  3  0  0  0  0  0  0
   46.7100   30.3250   38.2160 H   0  0  0  0  0  0  0  0  0  0  0  0
   46.5770   29.7280   40.3150 C   0  0  1  0  0  3  0  0  0  0  0  0
   47.7610   28.9580   41.4120 S   0  0  0  0  0  0  0  0  0  0  0  0
   47.7960   29.8990   42.9560 C   0  0  0  0  0  3  0  0  0  0  0  0
   48.6410   30.6430   42.9510 H   0  0  0  0  0  0  0  0  0  0  0  0
   44.4470   31.7420   42.5840 C   0  0  0  0  0  0  0  0  0  0  0  0
   43.2930   31.2590   42.4620 O   0  0  0  0  0  0  0  0  0  0  0  0
   43.6490   32.7990   42.9690 O   0  0  0  0  0  0  0  0  0  0  0  0
   43.6400   33.1700   43.9340 H   0  0  0  0  0  0  0  0  0  0  0  0
   46.0200   30.6760   44.6460 C   0  0  0  0  0  2  0  0  0  0  0  0
   46.8750   31.8750   45.6620 S   0  0  0  0  0  0  0  0  0  0  0  0
   45.8190   33.1880   46.3070 C   0  0  0  0  0  0  0  0  0  0  0  0
   44.8650   32.8610   46.7150 H   0  0  0  0  0  0  0  0  0  0  0  0
   46.4400   33.7420   47.0690 H   0  0  0  0  0  0  0  0  0  0  0  0
   44.5340   35.9860   44.1900 C   0  0  0  0  0  0  0  0  0  0  0  0
   45.3910   35.9090   43.1030 C   0  0  0  0  0  0  0  0  0  0  0  0
   46.3770   34.9320   43.0920 C   0  0  0  0  0  0  0  0  0  0  0  0
   46.4790   34.0780   44.1420 N   0  0  0  0  0  0  0  0  0  0  0  0
   45.6170   34.1760   45.2060 C   0  0  0  0  0  0  0  0  0  0  0  0
   44.6790   35.1190   45.1970 N   0  0  0  0  0  0  0  0  0  0  0  0
   43.7890   36.7550   44.1530 H   0  0  0  0  0  0  0  0  0  0  0  0
   45.3850   36.5500   42.2160 H   0  0  0  0  0  0  0  0  0  0  0  0
   47.1000   34.7910   42.2820 H   0  0  0  0  0  0  0  0  0  0  0  0
  1 16  1  0  0  0  0
  2 12  1  0  0  0  0
  2  1  2  0  0  0  0
  3  2  1  0  0  0  0
  4  3  1  0  0  0  0
  5  4  2  0  0  0  0
  6  4  1  0  0  0  0
  7  6  1  0  0  0  0
  8  6  1  6  0  0  0
  8  3  1  0  0  0  0
  8  9  1  0  0  0  0
  9 10  1  0  0  0  0
 10  1  1  0  0  0  0
 11 10  1  0  0  0  0
 12 14  1  0  0  0  0
 13 12  2  0  0  0  0
 14 15  1  0  0  0  0
 16 17  1  0  0  0  0
 17 18  1  0  0  0  0
 18 19  1  0  0  0  0
 18 20  1  0  0  0  0
 21 26  1  0  0  0  0
 22 21  2  0  0  0  0
 23 22  1  0  0  0  0
 23 24  2  0  0  0  0
 24 25  1  0  0  0  0
 25 18  1  0  0  0  0
 26 25  2  0  0  0  0
 27 21  1  0  0  0  0
 28 22  1  0  0  0  0
 29 23  1  0  0  0  0
M  END
>  <minimizedAffinity>
-3.73866582

>  <minimizedRMSD>
2.04073715

$$$$
