
 OpenBabel03242523293D

 29 31  0  0  1  0  0  0  0  0999 V2000
   46.2410   29.1440   46.5950 C   0  0  0  0  0  0  0  0  0  0  0  0
   47.2900   28.3270   46.5470 C   0  0  0  0  0  0  0  0  0  0  0  0
   47.2910   27.1200   47.2970 N   0  0  0  0  0  0  0  0  0  0  0  0
   48.0720   26.3250   48.2210 C   0  0  0  0  0  0  0  0  0  0  0  0
   49.2770   26.2300   48.6390 O   0  0  0  0  0  0  0  0  0  0  0  0
   46.8080   25.5820   48.5320 C   0  0  0  0  0  3  0  0  0  0  0  0
   47.0340   24.4830   48.3970 H   0  0  0  0  0  0  0  0  0  0  0  0
   46.1770   26.1560   47.2800 C   0  0  1  0  0  3  0  0  0  0  0  0
   44.6600   27.0770   47.4930 S   0  0  0  0  0  0  0  0  0  0  0  0
   45.0590   28.8420   47.4340 C   0  0  0  0  0  3  0  0  0  0  0  0
   45.1810   29.2590   48.4740 H   0  0  0  0  0  0  0  0  0  0  0  0
   48.4890   28.6000   45.7270 C   0  0  0  0  0  0  0  0  0  0  0  0
   48.8670   27.9890   44.6940 O   0  0  0  0  0  0  0  0  0  0  0  0
   49.6460   29.2770   45.3950 O   0  0  0  0  0  0  0  0  0  0  0  0
   49.6480   30.2640   45.0890 H   0  0  0  0  0  0  0  0  0  0  0  0
   46.3090   30.3630   45.7810 C   0  0  0  0  0  2  0  0  0  0  0  0
   46.8820   31.8270   46.6350 S   0  0  0  0  0  0  0  0  0  0  0  0
   45.5830   33.0200   47.0120 C   0  0  0  0  0  0  0  0  0  0  0  0
   44.6170   32.5920   47.2720 H   0  0  0  0  0  0  0  0  0  0  0  0
   45.9920   33.6770   47.8340 H   0  0  0  0  0  0  0  0  0  0  0  0
   44.5890   35.7870   44.7070 C   0  0  0  0  0  0  0  0  0  0  0  0
   45.3680   35.4980   43.5960 C   0  0  0  0  0  0  0  0  0  0  0  0
   46.2070   34.3920   43.6340 C   0  0  0  0  0  0  0  0  0  0  0  0
   46.2450   33.6230   44.7520 N   0  0  0  0  0  0  0  0  0  0  0  0
   45.4630   33.9320   45.8360 C   0  0  0  0  0  0  0  0  0  0  0  0
   44.6660   34.9960   45.7800 N   0  0  0  0  0  0  0  0  0  0  0  0
   43.9580   36.6490   44.6310 H   0  0  0  0  0  0  0  0  0  0  0  0
   45.4050   36.0570   42.6570 H   0  0  0  0  0  0  0  0  0  0  0  0
   46.8600   34.0820   42.8110 H   0  0  0  0  0  0  0  0  0  0  0  0
  1 10  1  0  0  0  0
  2  1  2  0  0  0  0
  2  3  1  0  0  0  0
  3  4  1  0  0  0  0
  4  6  1  0  0  0  0
  4  5  2  0  0  0  0
  7  6  1  0  0  0  0
  8  3  1  0  0  0  0
  8  9  1  1  0  0  0
  8  6  1  0  0  0  0
 10  9  1  0  0  0  0
 10 11  1  0  0  0  0
 12  2  1  0  0  0  0
 13 12  2  0  0  0  0
 14 12  1  0  0  0  0
 15 14  1  0  0  0  0
 16  1  1  0  0  0  0
 16 17  1  0  0  0  0
 17 18  1  0  0  0  0
 18 19  1  0  0  0  0
 18 20  1  0  0  0  0
 21 26  1  0  0  0  0
 22 23  1  0  0  0  0
 22 21  2  0  0  0  0
 23 24  2  0  0  0  0
 24 25  1  0  0  0  0
 25 18  1  0  0  0  0
 26 25  2  0  0  0  0
 27 21  1  0  0  0  0
 28 22  1  0  0  0  0
 29 23  1  0  0  0  0
M  END
>  <minimizedAffinity>
-3.85497928

>  <minimizedRMSD>
3.80759835

$$$$
