
 OpenBabel03242523293D

 29 31  0  0  1  0  0  0  0  0999 V2000
   46.0120   33.7000   45.3210 C   0  0  0  0  0  0  0  0  0  0  0  0
   46.4040   33.5570   44.0570 C   0  0  0  0  0  0  0  0  0  0  0  0
   45.7090   34.2290   43.0140 N   0  0  0  0  0  0  0  0  0  0  0  0
   45.0940   34.0410   41.7170 C   0  0  0  0  0  0  0  0  0  0  0  0
   45.0840   33.1880   40.7650 O   0  0  0  0  0  0  0  0  0  0  0  0
   44.4070   35.3530   41.9390 C   0  0  0  0  0  3  0  0  0  0  0  0
   44.6220   35.9920   41.0290 H   0  0  0  0  0  0  0  0  0  0  0  0
   45.3830   35.6650   43.0530 C   0  0  1  0  0  3  0  0  0  0  0  0
   44.6850   36.0180   44.6610 S   0  0  0  0  0  0  0  0  0  0  0  0
   44.8440   34.5340   45.6830 C   0  0  0  0  0  3  0  0  0  0  0  0
   43.8920   33.9310   45.6650 H   0  0  0  0  0  0  0  0  0  0  0  0
   47.5600   32.7260   43.6590 C   0  0  0  0  0  0  0  0  0  0  0  0
   48.6230   33.1100   43.1050 O   0  0  0  0  0  0  0  0  0  0  0  0
   48.2620   31.5460   43.5290 O   0  0  0  0  0  0  0  0  0  0  0  0
   48.6090   31.0090   44.3410 H   0  0  0  0  0  0  0  0  0  0  0  0
   46.7890   32.9870   46.3420 C   0  0  0  0  0  2  0  0  0  0  0  0
   45.8570   31.8500   47.3620 S   0  0  0  0  0  0  0  0  0  0  0  0
   46.6870   30.2770   47.6680 C   0  0  0  0  0  0  0  0  0  0  0  0
   47.6520   30.1560   47.1800 H   0  0  0  0  0  0  0  0  0  0  0  0
   46.7630   30.1780   48.7900 H   0  0  0  0  0  0  0  0  0  0  0  0
   44.9260   27.0000   47.3240 C   0  0  0  0  0  0  0  0  0  0  0  0
   43.9340   27.3280   46.4130 C   0  0  0  0  0  0  0  0  0  0  0  0
   43.8680   28.6280   45.9300 C   0  0  0  0  0  0  0  0  0  0  0  0
   44.7730   29.5440   46.3600 N   0  0  0  0  0  0  0  0  0  0  0  0
   45.7450   29.1930   47.2630 C   0  0  0  0  0  0  0  0  0  0  0  0
   45.7910   27.9420   47.7130 N   0  0  0  0  0  0  0  0  0  0  0  0
   44.9380   25.9850   47.6680 H   0  0  0  0  0  0  0  0  0  0  0  0
   43.1650   26.6610   46.0120 H   0  0  0  0  0  0  0  0  0  0  0  0
   43.1240   28.9840   45.2110 H   0  0  0  0  0  0  0  0  0  0  0  0
  1 10  1  0  0  0  0
  1 16  1  0  0  0  0
  2  1  2  0  0  0  0
  3  8  1  0  0  0  0
  3  2  1  0  0  0  0
  4  6  1  0  0  0  0
  4  3  1  0  0  0  0
  5  4  2  0  0  0  0
  7  6  1  0  0  0  0
  8  6  1  6  0  0  0
  8  9  1  0  0  0  0
  9 10  1  0  0  0  0
 11 10  1  0  0  0  0
 12  2  1  0  0  0  0
 13 12  2  0  0  0  0
 14 12  1  0  0  0  0
 14 15  1  0  0  0  0
 16 17  1  0  0  0  0
 17 18  1  0  0  0  0
 18 20  1  0  0  0  0
 19 18  1  0  0  0  0
 21 27  1  0  0  0  0
 21 26  1  0  0  0  0
 22 21  2  0  0  0  0
 23 24  2  0  0  0  0
 23 22  1  0  0  0  0
 24 25  1  0  0  0  0
 25 18  1  0  0  0  0
 25 26  2  0  0  0  0
 28 22  1  0  0  0  0
 29 23  1  0  0  0  0
M  END
>  <minimizedAffinity>
-4.24556065

>  <minimizedRMSD>
5.47324562

$$$$
