
 OpenBabel03242523293D

 29 31  0  0  1  0  0  0  0  0999 V2000
   44.4550   33.2790   41.0730 C   0  0  0  0  0  0  0  0  0  0  0  0
   45.2540   34.0870   41.7670 C   0  0  0  0  0  0  0  0  0  0  0  0
   46.6510   34.1080   41.5040 N   0  0  0  0  0  0  0  0  0  0  0  0
   47.9550   34.0440   42.1310 C   0  0  0  0  0  0  0  0  0  0  0  0
   48.4770   34.1670   43.2910 O   0  0  0  0  0  0  0  0  0  0  0  0
   48.5100   33.7510   40.7710 C   0  0  0  0  0  3  0  0  0  0  0  0
   49.3430   34.4940   40.5920 H   0  0  0  0  0  0  0  0  0  0  0  0
   47.2170   34.2380   40.1500 C   0  0  1  0  0  3  0  0  0  0  0  0
   46.3510   33.0880   39.0880 S   0  0  0  0  0  0  0  0  0  0  0  0
   44.9830   32.3710   40.0310 C   0  0  0  0  0  3  0  0  0  0  0  0
   45.2780   31.3760   40.4690 H   0  0  0  0  0  0  0  0  0  0  0  0
   44.7630   35.0000   42.8200 C   0  0  0  0  0  0  0  0  0  0  0  0
   45.1280   36.1840   43.0380 O   0  0  0  0  0  0  0  0  0  0  0  0
   43.9800   35.3510   43.9010 O   0  0  0  0  0  0  0  0  0  0  0  0
   42.9520   35.4380   43.8430 H   0  0  0  0  0  0  0  0  0  0  0  0
   43.0230   33.3270   41.3930 C   0  0  0  0  0  2  0  0  0  0  0  0
   42.2260   31.7370   41.5860 S   0  0  0  0  0  0  0  0  0  0  0  0
   43.2630   30.4760   42.3540 C   0  0  0  0  0  0  0  0  0  0  0  0
   43.7230   29.7690   41.6690 H   0  0  0  0  0  0  0  0  0  0  0  0
   44.0300   31.0340   42.9670 H   0  0  0  0  0  0  0  0  0  0  0  0
   42.0990   28.2770   45.1410 C   0  0  0  0  0  0  0  0  0  0  0  0
   40.7430   28.5670   45.1580 C   0  0  0  0  0  0  0  0  0  0  0  0
   40.2420   29.4850   44.2450 C   0  0  0  0  0  0  0  0  0  0  0  0
   41.0870   30.0750   43.3620 N   0  0  0  0  0  0  0  0  0  0  0  0
   42.4250   29.7700   43.3680 C   0  0  0  0  0  0  0  0  0  0  0  0
   42.8860   28.8870   44.2500 N   0  0  0  0  0  0  0  0  0  0  0  0
   42.4400   27.5620   45.8630 H   0  0  0  0  0  0  0  0  0  0  0  0
   39.9900   28.1440   45.8280 H   0  0  0  0  0  0  0  0  0  0  0  0
   39.1900   29.7800   44.1790 H   0  0  0  0  0  0  0  0  0  0  0  0
  1 16  1  0  0  0  0
  1  2  2  0  0  0  0
  2 12  1  0  0  0  0
  3  2  1  0  0  0  0
  3  4  1  0  0  0  0
  4  5  2  0  0  0  0
  6  4  1  0  0  0  0
  7  6  1  0  0  0  0
  8  9  1  6  0  0  0
  8  6  1  0  0  0  0
  8  3  1  0  0  0  0
  9 10  1  0  0  0  0
 10 11  1  0  0  0  0
 10  1  1  0  0  0  0
 12 13  2  0  0  0  0
 12 14  1  0  0  0  0
 15 14  1  0  0  0  0
 16 17  1  0  0  0  0
 17 18  1  0  0  0  0
 18 20  1  0  0  0  0
 18 25  1  0  0  0  0
 19 18  1  0  0  0  0
 21 22  1  0  0  0  0
 21 27  1  0  0  0  0
 22 28  1  0  0  0  0
 23 22  2  0  0  0  0
 24 25  2  0  0  0  0
 24 23  1  0  0  0  0
 25 26  1  0  0  0  0
 26 21  2  0  0  0  0
 29 23  1  0  0  0  0
M  END
>  <minimizedAffinity>
-4.03011084

>  <minimizedRMSD>
6.50859976

$$$$
