
 OpenBabel03242523293D

 29 31  0  0  1  0  0  0  0  0999 V2000
   47.3210   30.0430   45.4120 C   0  0  0  0  0  0  0  0  0  0  0  0
   46.8020   29.9660   44.1880 C   0  0  0  0  0  0  0  0  0  0  0  0
   47.5430   29.3690   43.1330 N   0  0  0  0  0  0  0  0  0  0  0  0
   47.9870   29.5620   41.7680 C   0  0  0  0  0  0  0  0  0  0  0  0
   47.7140   30.2960   40.7570 O   0  0  0  0  0  0  0  0  0  0  0  0
   48.9790   28.4680   42.0160 C   0  0  0  0  0  3  0  0  0  0  0  0
   48.8450   27.7110   41.1880 H   0  0  0  0  0  0  0  0  0  0  0  0
   48.2000   28.0560   43.2480 C   0  0  1  0  0  3  0  0  0  0  0  0
   49.0960   28.0320   44.7950 S   0  0  0  0  0  0  0  0  0  0  0  0
   48.6790   29.5350   45.7120 C   0  0  0  0  0  3  0  0  0  0  0  0
   49.4570   30.3330   45.5470 H   0  0  0  0  0  0  0  0  0  0  0  0
   45.4530   30.4700   43.8500 C   0  0  0  0  0  0  0  0  0  0  0  0
   44.4260   29.7920   43.5910 O   0  0  0  0  0  0  0  0  0  0  0  0
   44.5110   31.4500   43.6160 O   0  0  0  0  0  0  0  0  0  0  0  0
   44.1780   32.0940   44.3530 H   0  0  0  0  0  0  0  0  0  0  0  0
   46.4870   30.6590   46.4500 C   0  0  0  0  0  2  0  0  0  0  0  0
   46.8220   32.3850   46.7820 S   0  0  0  0  0  0  0  0  0  0  0  0
   45.3510   33.4280   46.8390 C   0  0  0  0  0  0  0  0  0  0  0  0
   44.4090   32.8990   46.9560 H   0  0  0  0  0  0  0  0  0  0  0  0
   45.5280   34.1700   47.6710 H   0  0  0  0  0  0  0  0  0  0  0  0
   44.6330   36.0630   44.2900 C   0  0  0  0  0  0  0  0  0  0  0  0
   45.4660   35.6640   43.2550 C   0  0  0  0  0  0  0  0  0  0  0  0
   46.2480   34.5290   43.4230 C   0  0  0  0  0  0  0  0  0  0  0  0
   46.1800   33.8400   44.5910 N   0  0  0  0  0  0  0  0  0  0  0  0
   45.3480   34.2580   45.5980 C   0  0  0  0  0  0  0  0  0  0  0  0
   44.6060   35.3480   45.4180 N   0  0  0  0  0  0  0  0  0  0  0  0
   44.0480   36.9440   44.1140 H   0  0  0  0  0  0  0  0  0  0  0  0
   45.5870   36.1520   42.2840 H   0  0  0  0  0  0  0  0  0  0  0  0
   46.9350   34.1340   42.6680 H   0  0  0  0  0  0  0  0  0  0  0  0
  1 10  1  0  0  0  0
  1 16  1  0  0  0  0
  2  1  2  0  0  0  0
  3  8  1  0  0  0  0
  3  2  1  0  0  0  0
  4  6  1  0  0  0  0
  4  3  1  0  0  0  0
  5  4  2  0  0  0  0
  7  6  1  0  0  0  0
  8  6  1  6  0  0  0
  8  9  1  0  0  0  0
  9 10  1  0  0  0  0
 11 10  1  0  0  0  0
 12  2  1  0  0  0  0
 13 12  2  0  0  0  0
 14 12  1  0  0  0  0
 14 15  1  0  0  0  0
 16 17  1  0  0  0  0
 17 18  1  0  0  0  0
 18 19  1  0  0  0  0
 18 20  1  0  0  0  0
 21 26  1  0  0  0  0
 22 23  1  0  0  0  0
 22 21  2  0  0  0  0
 23 24  2  0  0  0  0
 24 25  1  0  0  0  0
 25 18  1  0  0  0  0
 26 25  2  0  0  0  0
 27 21  1  0  0  0  0
 28 22  1  0  0  0  0
 29 23  1  0  0  0  0
M  END
>  <minimizedAffinity>
-3.56554246

>  <minimizedRMSD>
2.08011103

$$$$
