
 OpenBabel03242523313D

 29 31  0  0  1  0  0  0  0  0999 V2000
   37.2670   30.5470   38.3280 C   0  0  0  0  0  0  0  0  0  0  0  0
   36.1820   29.9590   38.8250 C   0  0  0  0  0  0  0  0  0  0  0  0
   35.3670   29.1430   37.9950 N   0  0  0  0  0  0  0  0  0  0  0  0
   34.0000   28.8960   37.5860 C   0  0  0  0  0  0  0  0  0  0  0  0
   32.8110   29.1680   37.9710 O   0  0  0  0  0  0  0  0  0  0  0  0
   34.5650   28.1280   36.4320 C   0  0  0  0  0  3  0  0  0  0  0  0
   34.0670   27.1120   36.4410 H   0  0  0  0  0  0  0  0  0  0  0  0
   35.9040   28.0740   37.1350 C   0  0  1  0  0  3  0  0  0  0  0  0
   37.3070   28.7430   36.2510 S   0  0  0  0  0  0  0  0  0  0  0  0
   37.6520   30.3940   36.9070 C   0  0  0  0  0  3  0  0  0  0  0  0
   37.1700   31.1860   36.2680 H   0  0  0  0  0  0  0  0  0  0  0  0
   35.7630   30.0970   40.2370 C   0  0  0  0  0  0  0  0  0  0  0  0
   35.2480   29.2160   40.9720 O   0  0  0  0  0  0  0  0  0  0  0  0
   35.5870   30.7770   41.4240 O   0  0  0  0  0  0  0  0  0  0  0  0
   36.3770   31.1180   41.9970 H   0  0  0  0  0  0  0  0  0  0  0  0
   38.0640   31.3630   39.2520 C   0  0  0  0  0  2  0  0  0  0  0  0
   39.4410   30.5240   40.0260 S   0  0  0  0  0  0  0  0  0  0  0  0
   39.3770   30.4990   41.8290 C   0  0  0  0  0  0  0  0  0  0  0  0
   40.3410   30.5350   42.3310 H   0  0  0  0  0  0  0  0  0  0  0  0
   38.7090   31.3590   42.1280 H   0  0  0  0  0  0  0  0  0  0  0  0
   37.2020   28.0680   43.6500 C   0  0  0  0  0  0  0  0  0  0  0  0
   37.2710   26.9690   42.8070 C   0  0  0  0  0  0  0  0  0  0  0  0
   38.0370   27.0550   41.6520 C   0  0  0  0  0  0  0  0  0  0  0  0
   38.6980   28.2090   41.3770 N   0  0  0  0  0  0  0  0  0  0  0  0
   38.6110   29.2810   42.2280 C   0  0  0  0  0  0  0  0  0  0  0  0
   37.8730   29.1780   43.3300 N   0  0  0  0  0  0  0  0  0  0  0  0
   36.6000   27.9540   44.5290 H   0  0  0  0  0  0  0  0  0  0  0  0
   36.7760   26.0030   42.9460 H   0  0  0  0  0  0  0  0  0  0  0  0
   38.1540   26.2450   40.9260 H   0  0  0  0  0  0  0  0  0  0  0  0
  1  2  2  0  0  0  0
  1 16  1  0  0  0  0
  2 12  1  0  0  0  0
  3  2  1  0  0  0  0
  4  5  2  0  0  0  0
  4  3  1  0  0  0  0
  6  7  1  0  0  0  0
  6  8  1  0  0  0  0
  6  4  1  0  0  0  0
  8  9  1  6  0  0  0
  8  3  1  0  0  0  0
  9 10  1  0  0  0  0
 10  1  1  0  0  0  0
 11 10  1  0  0  0  0
 12 13  2  0  0  0  0
 12 14  1  0  0  0  0
 14 15  1  0  0  0  0
 16 17  1  0  0  0  0
 17 18  1  0  0  0  0
 18 20  1  0  0  0  0
 18 25  1  0  0  0  0
 18 19  1  0  0  0  0
 21 27  1  0  0  0  0
 22 28  1  0  0  0  0
 22 21  2  0  0  0  0
 23 22  1  0  0  0  0
 24 23  2  0  0  0  0
 24 25  1  0  0  0  0
 25 26  2  0  0  0  0
 26 21  1  0  0  0  0
 29 23  1  0  0  0  0
M  END
>  <minimizedAffinity>
-4.83334017

$$$$

 OpenBabel03242523313D

 29 31  0  0  1  0  0  0  0  0999 V2000
   38.4270   28.6970   42.1090 C   0  0  0  0  0  0  0  0  0  0  0  0
   37.3110   28.5770   41.3940 C   0  0  0  0  0  0  0  0  0  0  0  0
   36.9890   27.3390   40.7740 N   0  0  0  0  0  0  0  0  0  0  0  0
   36.5780   26.7350   39.5240 C   0  0  0  0  0  0  0  0  0  0  0  0
   36.0750   27.0830   38.4010 O   0  0  0  0  0  0  0  0  0  0  0  0
   37.0060   25.4230   40.1050 C   0  0  0  0  0  3  0  0  0  0  0  0
   36.1310   24.7150   39.9940 H   0  0  0  0  0  0  0  0  0  0  0  0
   37.0160   26.0480   41.4840 C   0  0  1  0  0  3  0  0  0  0  0  0
   38.5510   25.9640   42.3960 S   0  0  0  0  0  0  0  0  0  0  0  0
   39.3740   27.5700   42.2670 C   0  0  0  0  0  3  0  0  0  0  0  0
   40.1380   27.5620   41.4400 H   0  0  0  0  0  0  0  0  0  0  0  0
   36.3480   29.6830   41.2080 C   0  0  0  0  0  0  0  0  0  0  0  0
   35.3850   29.7310   40.4000 O   0  0  0  0  0  0  0  0  0  0  0  0
   35.8110   30.9260   41.4710 O   0  0  0  0  0  0  0  0  0  0  0  0
   35.3640   31.1630   42.3720 H   0  0  0  0  0  0  0  0  0  0  0  0
   38.6820   30.0030   42.7280 C   0  0  0  0  0  2  0  0  0  0  0  0
   40.1770   30.8280   42.1960 S   0  0  0  0  0  0  0  0  0  0  0  0
   39.8950   32.2730   41.1540 C   0  0  0  0  0  0  0  0  0  0  0  0
   39.4250   33.1200   41.6470 H   0  0  0  0  0  0  0  0  0  0  0  0
   40.9000   32.5410   40.7140 H   0  0  0  0  0  0  0  0  0  0  0  0
   38.6100   30.3880   38.1950 C   0  0  0  0  0  0  0  0  0  0  0  0
   37.4950   31.1420   37.8650 C   0  0  0  0  0  0  0  0  0  0  0  0
   37.1910   32.2610   38.6290 C   0  0  0  0  0  0  0  0  0  0  0  0
   37.9890   32.5880   39.6770 N   0  0  0  0  0  0  0  0  0  0  0  0
   39.0870   31.8240   39.9810 C   0  0  0  0  0  0  0  0  0  0  0  0
   39.3610   30.7560   39.2370 N   0  0  0  0  0  0  0  0  0  0  0  0
   38.8050   29.5340   37.5770 H   0  0  0  0  0  0  0  0  0  0  0  0
   36.7970   30.9570   37.0440 H   0  0  0  0  0  0  0  0  0  0  0  0
   36.3340   32.9180   38.4500 H   0  0  0  0  0  0  0  0  0  0  0  0
  1 10  1  0  0  0  0
  1 16  1  0  0  0  0
  2  1  2  0  0  0  0
  3  2  1  0  0  0  0
  3  8  1  0  0  0  0
  4  6  1  0  0  0  0
  4  3  1  0  0  0  0
  5  4  2  0  0  0  0
  7  6  1  0  0  0  0
  8  6  1  6  0  0  0
  8  9  1  0  0  0  0
 10  9  1  0  0  0  0
 11 10  1  0  0  0  0
 12  2  1  0  0  0  0
 12 14  1  0  0  0  0
 13 12  2  0  0  0  0
 14 15  1  0  0  0  0
 17 16  1  0  0  0  0
 18 19  1  0  0  0  0
 18 17  1  0  0  0  0
 20 18  1  0  0  0  0
 21 26  1  0  0  0  0
 22 21  2  0  0  0  0
 22 23  1  0  0  0  0
 23 24  2  0  0  0  0
 24 25  1  0  0  0  0
 25 18  1  0  0  0  0
 26 25  2  0  0  0  0
 27 21  1  0  0  0  0
 28 22  1  0  0  0  0
 29 23  1  0  0  0  0
M  END
>  <minimizedAffinity>
-4.80259514

$$$$

 OpenBabel03242523313D

 29 31  0  0  1  0  0  0  0  0999 V2000
   38.9360   30.2170   42.2620 C   0  0  0  0  0  0  0  0  0  0  0  0
   38.2960   30.9020   41.3180 C   0  0  0  0  0  0  0  0  0  0  0  0
   38.9990   31.8440   40.5190 N   0  0  0  0  0  0  0  0  0  0  0  0
   38.9630   33.2030   40.0190 C   0  0  0  0  0  0  0  0  0  0  0  0
   38.1280   34.1610   39.8800 O   0  0  0  0  0  0  0  0  0  0  0  0
   40.4170   33.0410   39.6960 C   0  0  0  0  0  3  0  0  0  0  0  0
   40.5430   33.3270   38.6090 H   0  0  0  0  0  0  0  0  0  0  0  0
   40.2710   31.5410   39.8410 C   0  0  1  0  0  3  0  0  0  0  0  0
   41.3400   30.7390   41.0290 S   0  0  0  0  0  0  0  0  0  0  0  0
   40.3770   30.4210   42.5290 C   0  0  0  0  0  3  0  0  0  0  0  0
   40.5390   31.2370   43.2880 H   0  0  0  0  0  0  0  0  0  0  0  0
   36.8560   30.7300   41.0300 C   0  0  0  0  0  0  0  0  0  0  0  0
   36.2750   30.8710   39.9240 O   0  0  0  0  0  0  0  0  0  0  0  0
   35.5450   30.4490   41.3540 O   0  0  0  0  0  0  0  0  0  0  0  0
   35.2320   29.5110   41.6560 H   0  0  0  0  0  0  0  0  0  0  0  0
   38.1440   29.2530   43.0350 C   0  0  0  0  0  2  0  0  0  0  0  0
   38.5660   27.5330   42.7810 S   0  0  0  0  0  0  0  0  0  0  0  0
   37.1420   26.4350   42.6280 C   0  0  0  0  0  0  0  0  0  0  0  0
   36.7300   26.0720   43.5660 H   0  0  0  0  0  0  0  0  0  0  0  0
   36.3780   26.9990   42.0180 H   0  0  0  0  0  0  0  0  0  0  0  0
   37.1500   23.3220   40.5620 C   0  0  0  0  0  0  0  0  0  0  0  0
   38.4680   23.2920   40.1350 C   0  0  0  0  0  0  0  0  0  0  0  0
   39.3290   24.3030   40.5400 C   0  0  0  0  0  0  0  0  0  0  0  0
   38.8610   25.2940   41.3410 N   0  0  0  0  0  0  0  0  0  0  0  0
   37.5510   25.2990   41.7490 C   0  0  0  0  0  0  0  0  0  0  0  0
   36.7420   24.3210   41.3500 N   0  0  0  0  0  0  0  0  0  0  0  0
   36.5240   22.5200   40.2250 H   0  0  0  0  0  0  0  0  0  0  0  0
   38.9330   22.5380   39.4920 H   0  0  0  0  0  0  0  0  0  0  0  0
   40.3840   24.3680   40.2570 H   0  0  0  0  0  0  0  0  0  0  0  0
  1 10  1  0  0  0  0
  1 16  1  0  0  0  0
  2  1  2  0  0  0  0
  3  2  1  0  0  0  0
  4  3  1  0  0  0  0
  5  4  2  0  0  0  0
  6  4  1  0  0  0  0
  7  6  1  0  0  0  0
  8  6  1  1  0  0  0
  8  3  1  0  0  0  0
  8  9  1  0  0  0  0
  9 10  1  0  0  0  0
 10 11  1  0  0  0  0
 12  2  1  0  0  0  0
 12 14  1  0  0  0  0
 13 12  2  0  0  0  0
 14 15  1  0  0  0  0
 17 16  1  0  0  0  0
 18 17  1  0  0  0  0
 18 19  1  0  0  0  0
 20 18  1  0  0  0  0
 21 26  1  0  0  0  0
 22 23  1  0  0  0  0
 22 21  2  0  0  0  0
 23 24  2  0  0  0  0
 24 25  1  0  0  0  0
 25 18  1  0  0  0  0
 26 25  2  0  0  0  0
 27 21  1  0  0  0  0
 28 22  1  0  0  0  0
 29 23  1  0  0  0  0
M  END
>  <minimizedAffinity>
-4.77374077

$$$$

 OpenBabel03242523313D

 29 31  0  0  1  0  0  0  0  0999 V2000
   38.4400   28.6350   42.2620 C   0  0  0  0  0  0  0  0  0  0  0  0
   37.3270   28.4420   41.5580 C   0  0  0  0  0  0  0  0  0  0  0  0
   37.0640   27.1750   40.9690 N   0  0  0  0  0  0  0  0  0  0  0  0
   36.6760   26.5230   39.7360 C   0  0  0  0  0  0  0  0  0  0  0  0
   36.1490   26.8190   38.6090 O   0  0  0  0  0  0  0  0  0  0  0  0
   37.1730   25.2480   40.3440 C   0  0  0  0  0  3  0  0  0  0  0  0
   36.3340   24.4940   40.2550 H   0  0  0  0  0  0  0  0  0  0  0  0
   37.1600   25.9050   41.7080 C   0  0  1  0  0  3  0  0  0  0  0  0
   38.7030   25.9180   42.6110 S   0  0  0  0  0  0  0  0  0  0  0  0
   39.4420   27.5610   42.4390 C   0  0  0  0  0  3  0  0  0  0  0  0
   40.2020   27.5720   41.6070 H   0  0  0  0  0  0  0  0  0  0  0  0
   36.3070   29.4940   41.3540 C   0  0  0  0  0  0  0  0  0  0  0  0
   35.2150   29.3920   40.7390 O   0  0  0  0  0  0  0  0  0  0  0  0
   35.7830   30.7630   41.4830 O   0  0  0  0  0  0  0  0  0  0  0  0
   35.4950   31.1600   42.3930 H   0  0  0  0  0  0  0  0  0  0  0  0
   38.6320   29.9660   42.8500 C   0  0  0  0  0  2  0  0  0  0  0  0
   39.9700   30.9270   42.1550 S   0  0  0  0  0  0  0  0  0  0  0  0
   39.4410   32.2110   41.0030 C   0  0  0  0  0  0  0  0  0  0  0  0
   38.7770   31.8790   40.2080 H   0  0  0  0  0  0  0  0  0  0  0  0
   38.9760   33.0230   41.6340 H   0  0  0  0  0  0  0  0  0  0  0  0
   42.9620   33.3290   40.4500 C   0  0  0  0  0  0  0  0  0  0  0  0
   42.8280   34.0540   39.2750 C   0  0  0  0  0  0  0  0  0  0  0  0
   41.5730   34.1570   38.6900 C   0  0  0  0  0  0  0  0  0  0  0  0
   40.5120   33.5500   39.2790 N   0  0  0  0  0  0  0  0  0  0  0  0
   40.6740   32.8390   40.4410 C   0  0  0  0  0  0  0  0  0  0  0  0
   41.8840   32.7510   40.9870 N   0  0  0  0  0  0  0  0  0  0  0  0
   43.9490   33.2780   40.8650 H   0  0  0  0  0  0  0  0  0  0  0  0
   43.6210   34.5740   38.7310 H   0  0  0  0  0  0  0  0  0  0  0  0
   41.3650   34.7050   37.7650 H   0  0  0  0  0  0  0  0  0  0  0  0
  1 10  1  0  0  0  0
  1 16  1  0  0  0  0
  2  1  2  0  0  0  0
  3  2  1  0  0  0  0
  3  8  1  0  0  0  0
  4  6  1  0  0  0  0
  4  3  1  0  0  0  0
  5  4  2  0  0  0  0
  7  6  1  0  0  0  0
  8  6  1  6  0  0  0
  8  9  1  0  0  0  0
 10  9  1  0  0  0  0
 11 10  1  0  0  0  0
 12 14  1  0  0  0  0
 12  2  1  0  0  0  0
 13 12  2  0  0  0  0
 14 15  1  0  0  0  0
 17 16  1  0  0  0  0
 18 20  1  0  0  0  0
 18 17  1  0  0  0  0
 19 18  1  0  0  0  0
 21 27  1  0  0  0  0
 21 26  1  0  0  0  0
 22 21  2  0  0  0  0
 23 22  1  0  0  0  0
 23 24  2  0  0  0  0
 24 25  1  0  0  0  0
 25 26  2  0  0  0  0
 25 18  1  0  0  0  0
 28 22  1  0  0  0  0
 29 23  1  0  0  0  0
M  END
>  <minimizedAffinity>
-4.73971891

$$$$

 OpenBabel03242523313D

 29 31  0  0  1  0  0  0  0  0999 V2000
   36.3470   28.2750   39.1330 C   0  0  0  0  0  0  0  0  0  0  0  0
   36.5600   28.5590   40.4150 C   0  0  0  0  0  0  0  0  0  0  0  0
   36.9860   27.5420   41.3110 N   0  0  0  0  0  0  0  0  0  0  0  0
   36.7190   26.9400   42.6010 C   0  0  0  0  0  0  0  0  0  0  0  0
   36.0850   27.2050   43.6800 O   0  0  0  0  0  0  0  0  0  0  0  0
   37.5510   25.7810   42.1460 C   0  0  0  0  0  3  0  0  0  0  0  0
   38.3320   25.6050   42.9450 H   0  0  0  0  0  0  0  0  0  0  0  0
   38.1110   26.6330   41.0280 C   0  0  1  0  0  3  0  0  0  0  0  0
   37.9020   26.0170   39.3630 S   0  0  0  0  0  0  0  0  0  0  0  0
   36.5210   26.9050   38.6020 C   0  0  0  0  0  3  0  0  0  0  0  0
   35.5680   26.3110   38.6880 H   0  0  0  0  0  0  0  0  0  0  0  0
   36.3880   29.9150   40.9820 C   0  0  0  0  0  0  0  0  0  0  0  0
   37.0240   30.4310   41.9360 O   0  0  0  0  0  0  0  0  0  0  0  0
   35.8140   31.1660   41.0680 O   0  0  0  0  0  0  0  0  0  0  0  0
   35.9060   31.8760   40.3230 H   0  0  0  0  0  0  0  0  0  0  0  0
   35.9220   29.3830   38.2680 C   0  0  0  0  0  2  0  0  0  0  0  0
   37.2170   30.1310   37.2870 S   0  0  0  0  0  0  0  0  0  0  0  0
   37.4400   31.8980   37.5780 C   0  0  0  0  0  0  0  0  0  0  0  0
   37.8700   32.4560   36.7500 H   0  0  0  0  0  0  0  0  0  0  0  0
   36.4270   32.2950   37.8790 H   0  0  0  0  0  0  0  0  0  0  0  0
   38.9140   33.1140   40.7890 C   0  0  0  0  0  0  0  0  0  0  0  0
   39.8880   32.1530   41.0130 C   0  0  0  0  0  0  0  0  0  0  0  0
   40.0370   31.1210   40.0960 C   0  0  0  0  0  0  0  0  0  0  0  0
   39.2300   31.0780   39.0060 N   0  0  0  0  0  0  0  0  0  0  0  0
   38.2740   32.0420   38.8090 C   0  0  0  0  0  0  0  0  0  0  0  0
   38.1460   33.0220   39.6990 N   0  0  0  0  0  0  0  0  0  0  0  0
   38.8360   33.8900   41.5230 H   0  0  0  0  0  0  0  0  0  0  0  0
   40.5810   32.1060   41.8580 H   0  0  0  0  0  0  0  0  0  0  0  0
   40.7750   30.3170   40.1840 H   0  0  0  0  0  0  0  0  0  0  0  0
  1  2  2  0  0  0  0
  2 12  1  0  0  0  0
  2  3  1  0  0  0  0
  3  4  1  0  0  0  0
  4  5  2  0  0  0  0
  6  4  1  0  0  0  0
  6  7  1  0  0  0  0
  8  9  1  6  0  0  0
  8  3  1  0  0  0  0
  8  6  1  0  0  0  0
 10 11  1  0  0  0  0
 10  1  1  0  0  0  0
 10  9  1  0  0  0  0
 12 14  1  0  0  0  0
 12 13  2  0  0  0  0
 15 14  1  0  0  0  0
 16  1  1  0  0  0  0
 17 18  1  0  0  0  0
 17 16  1  0  0  0  0
 18 20  1  0  0  0  0
 18 25  1  0  0  0  0
 19 18  1  0  0  0  0
 21 22  1  0  0  0  0
 21 27  1  0  0  0  0
 22 28  1  0  0  0  0
 23 29  1  0  0  0  0
 23 22  2  0  0  0  0
 24 23  1  0  0  0  0
 25 24  2  0  0  0  0
 25 26  1  0  0  0  0
 26 21  2  0  0  0  0
M  END
>  <minimizedAffinity>
-4.73161268

$$$$

 OpenBabel03242523313D

 29 31  0  0  1  0  0  0  0  0999 V2000
   36.8040   30.2570   40.1330 C   0  0  0  0  0  0  0  0  0  0  0  0
   37.6390   30.4120   41.1590 C   0  0  0  0  0  0  0  0  0  0  0  0
   38.6440   31.4160   41.1170 N   0  0  0  0  0  0  0  0  0  0  0  0
   40.0570   31.6570   41.3210 C   0  0  0  0  0  0  0  0  0  0  0  0
   41.0640   31.0970   41.8770 O   0  0  0  0  0  0  0  0  0  0  0  0
   39.8710   32.9340   40.5630 C   0  0  0  0  0  3  0  0  0  0  0  0
   40.2920   33.7620   41.2080 H   0  0  0  0  0  0  0  0  0  0  0  0
   38.3730   32.8170   40.7530 C   0  0  1  0  0  3  0  0  0  0  0  0
   37.3710   32.8090   39.2720 S   0  0  0  0  0  0  0  0  0  0  0  0
   36.9030   31.0970   38.9180 C   0  0  0  0  0  3  0  0  0  0  0  0
   37.6020   30.6390   38.1640 H   0  0  0  0  0  0  0  0  0  0  0  0
   37.5740   29.5870   42.3840 C   0  0  0  0  0  0  0  0  0  0  0  0
   38.3760   28.6870   42.7430 O   0  0  0  0  0  0  0  0  0  0  0  0
   37.0260   29.1710   43.5790 O   0  0  0  0  0  0  0  0  0  0  0  0
   36.9780   29.7780   44.4150 H   0  0  0  0  0  0  0  0  0  0  0  0
   35.7840   29.2090   40.2590 C   0  0  0  0  0  2  0  0  0  0  0  0
   36.1040   27.7120   39.3330 S   0  0  0  0  0  0  0  0  0  0  0  0
   37.8450   27.2460   39.2550 C   0  0  0  0  0  0  0  0  0  0  0  0
   38.1940   26.9080   38.2830 H   0  0  0  0  0  0  0  0  0  0  0  0
   38.4240   28.1400   39.6280 H   0  0  0  0  0  0  0  0  0  0  0  0
   39.3760   24.6180   41.4250 C   0  0  0  0  0  0  0  0  0  0  0  0
   38.3100   24.3070   42.2560 C   0  0  0  0  0  0  0  0  0  0  0  0
   37.1050   24.9750   42.0800 C   0  0  0  0  0  0  0  0  0  0  0  0
   36.9990   25.9110   41.1040 N   0  0  0  0  0  0  0  0  0  0  0  0
   38.0700   26.1990   40.2960 C   0  0  0  0  0  0  0  0  0  0  0  0
   39.2160   25.5490   40.4800 N   0  0  0  0  0  0  0  0  0  0  0  0
   40.2850   24.0780   41.5990 H   0  0  0  0  0  0  0  0  0  0  0  0
   38.3010   23.5720   43.0650 H   0  0  0  0  0  0  0  0  0  0  0  0
   36.2080   24.8010   42.6830 H   0  0  0  0  0  0  0  0  0  0  0  0
  1 16  1  0  0  0  0
  1  2  2  0  0  0  0
  2 12  1  0  0  0  0
  3  2  1  0  0  0  0
  3  4  1  0  0  0  0
  4  5  2  0  0  0  0
  6  8  1  0  0  0  0
  6  7  1  0  0  0  0
  6  4  1  0  0  0  0
  8  9  1  6  0  0  0
  8  3  1  0  0  0  0
 10  9  1  0  0  0  0
 10  1  1  0  0  0  0
 11 10  1  0  0  0  0
 12 13  2  0  0  0  0
 12 14  1  0  0  0  0
 14 15  1  0  0  0  0
 17 16  1  0  0  0  0
 18 17  1  0  0  0  0
 18 20  1  0  0  0  0
 18 25  1  0  0  0  0
 19 18  1  0  0  0  0
 21 27  1  0  0  0  0
 21 22  1  0  0  0  0
 22 28  1  0  0  0  0
 23 22  2  0  0  0  0
 23 29  1  0  0  0  0
 24 23  1  0  0  0  0
 25 26  1  0  0  0  0
 25 24  2  0  0  0  0
 26 21  2  0  0  0  0
M  END
>  <minimizedAffinity>
-4.72789049

$$$$

 OpenBabel03242523313D

 29 31  0  0  1  0  0  0  0  0999 V2000
   37.6510   31.7370   38.5800 C   0  0  0  0  0  0  0  0  0  0  0  0
   38.9260   31.4270   38.3540 C   0  0  0  0  0  0  0  0  0  0  0  0
   39.9510   32.3700   38.6350 N   0  0  0  0  0  0  0  0  0  0  0  0
   41.1280   33.0080   38.0830 C   0  0  0  0  0  0  0  0  0  0  0  0
   41.9560   32.8470   37.1220 O   0  0  0  0  0  0  0  0  0  0  0  0
   40.9910   34.0270   39.1720 C   0  0  0  0  0  3  0  0  0  0  0  0
   41.9940   34.0830   39.6940 H   0  0  0  0  0  0  0  0  0  0  0  0
   40.0540   33.0960   39.9120 C   0  0  1  0  0  3  0  0  0  0  0  0
   38.4310   33.7320   40.3060 S   0  0  0  0  0  0  0  0  0  0  0  0
   37.2560   33.0630   39.1040 C   0  0  0  0  0  3  0  0  0  0  0  0
   37.0800   33.7960   38.2660 H   0  0  0  0  0  0  0  0  0  0  0  0
   39.3560   30.1150   37.8230 C   0  0  0  0  0  0  0  0  0  0  0  0
   39.8120   29.1400   38.4730 O   0  0  0  0  0  0  0  0  0  0  0  0
   39.5810   29.1850   36.8300 O   0  0  0  0  0  0  0  0  0  0  0  0
   38.8170   28.7560   36.2820 H   0  0  0  0  0  0  0  0  0  0  0  0
   36.6520   30.7050   38.2780 C   0  0  0  0  0  2  0  0  0  0  0  0
   36.0580   29.7750   39.6860 S   0  0  0  0  0  0  0  0  0  0  0  0
   36.4060   30.5420   41.2810 C   0  0  0  0  0  0  0  0  0  0  0  0
   36.5750   31.6160   41.2550 H   0  0  0  0  0  0  0  0  0  0  0  0
   35.5450   30.2640   41.9560 H   0  0  0  0  0  0  0  0  0  0  0  0
   39.8710   29.5380   42.2550 C   0  0  0  0  0  0  0  0  0  0  0  0
   39.6140   28.4100   43.0190 C   0  0  0  0  0  0  0  0  0  0  0  0
   38.2980   28.0040   43.1960 C   0  0  0  0  0  0  0  0  0  0  0  0
   37.2980   28.7180   42.6190 N   0  0  0  0  0  0  0  0  0  0  0  0
   37.5810   29.8310   41.8680 C   0  0  0  0  0  0  0  0  0  0  0  0
   38.8480   30.2040   41.7100 N   0  0  0  0  0  0  0  0  0  0  0  0
   40.9010   29.8120   42.1460 H   0  0  0  0  0  0  0  0  0  0  0  0
   40.3500   27.7740   43.5190 H   0  0  0  0  0  0  0  0  0  0  0  0
   37.9930   27.1300   43.7800 H   0  0  0  0  0  0  0  0  0  0  0  0
  1 10  1  0  0  0  0
  2  1  2  0  0  0  0
  2  3  1  0  0  0  0
  3  8  1  0  0  0  0
  4  3  1  0  0  0  0
  4  6  1  0  0  0  0
  5  4  2  0  0  0  0
  6  7  1  0  0  0  0
  8  6  1  6  0  0  0
  8  9  1  0  0  0  0
 10  9  1  0  0  0  0
 11 10  1  0  0  0  0
 12  2  1  0  0  0  0
 12 13  2  0  0  0  0
 14 12  1  0  0  0  0
 15 14  1  0  0  0  0
 16  1  1  0  0  0  0
 16 17  1  0  0  0  0
 17 18  1  0  0  0  0
 18 25  1  0  0  0  0
 18 20  1  0  0  0  0
 19 18  1  0  0  0  0
 21 22  1  0  0  0  0
 22 23  2  0  0  0  0
 22 28  1  0  0  0  0
 23 29  1  0  0  0  0
 24 23  1  0  0  0  0
 25 24  2  0  0  0  0
 26 25  1  0  0  0  0
 26 21  2  0  0  0  0
 27 21  1  0  0  0  0
M  END
>  <minimizedAffinity>
-4.70279646

$$$$

 OpenBabel03242523313D

 29 31  0  0  1  0  0  0  0  0999 V2000
   40.2140   28.4820   42.5030 C   0  0  0  0  0  0  0  0  0  0  0  0
   39.1530   27.7510   42.8370 C   0  0  0  0  0  0  0  0  0  0  0  0
   39.2610   26.3370   42.9290 N   0  0  0  0  0  0  0  0  0  0  0  0
   38.6430   25.0930   42.5160 C   0  0  0  0  0  0  0  0  0  0  0  0
   37.5330   24.6760   42.0380 O   0  0  0  0  0  0  0  0  0  0  0  0
   39.9240   24.4190   42.9030 C   0  0  0  0  0  3  0  0  0  0  0  0
   39.6500   23.5760   43.6060 H   0  0  0  0  0  0  0  0  0  0  0  0
   40.3280   25.6540   43.6800 C   0  0  1  0  0  3  0  0  0  0  0  0
   41.8800   26.4170   43.2290 S   0  0  0  0  0  0  0  0  0  0  0  0
   41.5210   27.8600   42.1980 C   0  0  0  0  0  3  0  0  0  0  0  0
   41.6030   27.6000   41.1050 H   0  0  0  0  0  0  0  0  0  0  0  0
   37.8300   28.3380   43.1410 C   0  0  0  0  0  0  0  0  0  0  0  0
   36.7010   27.8870   42.8190 O   0  0  0  0  0  0  0  0  0  0  0  0
   36.9780   29.2800   43.6790 O   0  0  0  0  0  0  0  0  0  0  0  0
   36.8810   29.4290   44.6970 H   0  0  0  0  0  0  0  0  0  0  0  0
   40.0260   29.9370   42.4430 C   0  0  0  0  0  2  0  0  0  0  0  0
   39.8400   30.6210   40.8010 S   0  0  0  0  0  0  0  0  0  0  0  0
   39.2980   29.4300   39.5590 C   0  0  0  0  0  0  0  0  0  0  0  0
   39.5930   29.6540   38.5370 H   0  0  0  0  0  0  0  0  0  0  0  0
   39.6810   28.4250   39.9020 H   0  0  0  0  0  0  0  0  0  0  0  0
   35.7700   28.2110   39.3790 C   0  0  0  0  0  0  0  0  0  0  0  0
   35.0940   29.2730   39.9590 C   0  0  0  0  0  0  0  0  0  0  0  0
   35.8200   30.3730   40.3980 C   0  0  0  0  0  0  0  0  0  0  0  0
   37.1690   30.3820   40.2490 N   0  0  0  0  0  0  0  0  0  0  0  0
   37.8130   29.3160   39.6720 C   0  0  0  0  0  0  0  0  0  0  0  0
   37.0990   28.2720   39.2580 N   0  0  0  0  0  0  0  0  0  0  0  0
   35.1680   27.3860   39.0560 H   0  0  0  0  0  0  0  0  0  0  0  0
   34.0150   29.3560   40.1200 H   0  0  0  0  0  0  0  0  0  0  0  0
   35.3790   31.2580   40.8670 H   0  0  0  0  0  0  0  0  0  0  0  0
  1  2  2  0  0  0  0
  2  3  1  0  0  0  0
  2 12  1  0  0  0  0
  3  8  1  0  0  0  0
  4  6  1  0  0  0  0
  4  3  1  0  0  0  0
  5  4  2  0  0  0  0
  6  7  1  0  0  0  0
  8  6  1  6  0  0  0
  9  8  1  0  0  0  0
 10  1  1  0  0  0  0
 10  9  1  0  0  0  0
 11 10  1  0  0  0  0
 12 14  1  0  0  0  0
 13 12  2  0  0  0  0
 14 15  1  0  0  0  0
 16  1  1  0  0  0  0
 17 16  1  0  0  0  0
 18 25  1  0  0  0  0
 18 20  1  0  0  0  0
 18 17  1  0  0  0  0
 19 18  1  0  0  0  0
 21 22  1  0  0  0  0
 22 28  1  0  0  0  0
 22 23  2  0  0  0  0
 23 29  1  0  0  0  0
 24 23  1  0  0  0  0
 25 24  2  0  0  0  0
 26 21  2  0  0  0  0
 26 25  1  0  0  0  0
 27 21  1  0  0  0  0
M  END
>  <minimizedAffinity>
-4.69044876

$$$$

 OpenBabel03242523313D

 29 31  0  0  1  0  0  0  0  0999 V2000
   37.1790   31.8090   39.6060 C   0  0  0  0  0  0  0  0  0  0  0  0
   37.5600   31.0890   38.5530 C   0  0  0  0  0  0  0  0  0  0  0  0
   37.4850   29.6700   38.5920 N   0  0  0  0  0  0  0  0  0  0  0  0
   38.2340   28.4570   38.3390 C   0  0  0  0  0  0  0  0  0  0  0  0
   39.2900   28.0830   37.7210 O   0  0  0  0  0  0  0  0  0  0  0  0
   37.2020   27.7410   39.1530 C   0  0  0  0  0  3  0  0  0  0  0  0
   36.8300   26.8780   38.5230 H   0  0  0  0  0  0  0  0  0  0  0  0
   36.2820   28.9360   39.0210 C   0  0  1  0  0  3  0  0  0  0  0  0
   35.7050   29.6810   40.5400 S   0  0  0  0  0  0  0  0  0  0  0  0
   36.6880   31.1690   40.8470 C   0  0  0  0  0  3  0  0  0  0  0  0
   37.5360   30.9490   41.5540 H   0  0  0  0  0  0  0  0  0  0  0  0
   38.0630   31.6930   37.3010 C   0  0  0  0  0  0  0  0  0  0  0  0
   37.4440   31.8290   36.2150 O   0  0  0  0  0  0  0  0  0  0  0  0
   39.0070   32.3070   36.5040 O   0  0  0  0  0  0  0  0  0  0  0  0
   39.3580   33.2620   36.6870 H   0  0  0  0  0  0  0  0  0  0  0  0
   37.2730   33.2680   39.4830 C   0  0  0  0  0  2  0  0  0  0  0  0
   38.6990   34.0140   40.2640 S   0  0  0  0  0  0  0  0  0  0  0  0
   40.0450   32.8620   40.6050 C   0  0  0  0  0  0  0  0  0  0  0  0
   40.6190   33.0690   41.5050 H   0  0  0  0  0  0  0  0  0  0  0  0
   39.5780   31.8350   40.6250 H   0  0  0  0  0  0  0  0  0  0  0  0
   42.1660   31.7690   37.7310 C   0  0  0  0  0  0  0  0  0  0  0  0
   42.5410   32.9930   37.1980 C   0  0  0  0  0  0  0  0  0  0  0  0
   42.0840   34.1570   37.8030 C   0  0  0  0  0  0  0  0  0  0  0  0
   41.2840   34.0690   38.8960 N   0  0  0  0  0  0  0  0  0  0  0  0
   40.9280   32.8440   39.4010 C   0  0  0  0  0  0  0  0  0  0  0  0
   41.3770   31.7410   38.8080 N   0  0  0  0  0  0  0  0  0  0  0  0
   42.5440   30.8990   37.2310 H   0  0  0  0  0  0  0  0  0  0  0  0
   43.1790   33.1620   36.3260 H   0  0  0  0  0  0  0  0  0  0  0  0
   42.3240   35.1680   37.4590 H   0  0  0  0  0  0  0  0  0  0  0  0
  1 10  1  0  0  0  0
  2  3  1  0  0  0  0
  2  1  2  0  0  0  0
  3  8  1  0  0  0  0
  4  3  1  0  0  0  0
  4  6  1  0  0  0  0
  5  4  2  0  0  0  0
  7  6  1  0  0  0  0
  8  6  1  1  0  0  0
  8  9  1  0  0  0  0
  9 10  1  0  0  0  0
 10 11  1  0  0  0  0
 12  2  1  0  0  0  0
 13 12  2  0  0  0  0
 14 15  1  0  0  0  0
 14 12  1  0  0  0  0
 16  1  1  0  0  0  0
 16 17  1  0  0  0  0
 17 18  1  0  0  0  0
 18 20  1  0  0  0  0
 18 19  1  0  0  0  0
 21 26  1  0  0  0  0
 22 21  2  0  0  0  0
 22 23  1  0  0  0  0
 23 24  2  0  0  0  0
 24 25  1  0  0  0  0
 25 18  1  0  0  0  0
 26 25  2  0  0  0  0
 27 21  1  0  0  0  0
 28 22  1  0  0  0  0
 29 23  1  0  0  0  0
M  END
>  <minimizedAffinity>
-4.67868376

$$$$
