
     RDKit          3D

 34 36  0  0  0  0  0  0  0  0999 V2000
   44.5232   36.0058   44.5236 C   0  0  0  0  0  0  0  0  0  0  0  0
   45.2147   35.8793   43.3288 C   0  0  0  0  0  0  0  0  0  0  0  0
   46.1081   34.8261   43.1792 C   0  0  0  0  0  0  0  0  0  0  0  0
   46.2821   33.9504   44.2013 N   0  0  0  0  0  0  0  0  0  0  0  0
   45.5838   34.1004   45.3735 C   0  0  0  0  0  0  0  0  0  0  0  0
   44.7329   35.1152   45.4967 N   0  0  0  0  0  0  0  0  0  0  0  0
   45.8517   33.0810   46.4314 C   0  0  0  0  0  0  0  0  0  0  0  0
   46.5265   31.6218   45.6105 S   0  0  0  0  0  0  0  0  0  0  0  0
   43.8448   36.8333   44.5932 H   0  0  0  0  0  0  0  0  0  0  0  0
   45.1414   36.5319   42.4552 H   0  0  0  0  0  0  0  0  0  0  0  0
   46.7002   34.6408   42.2767 H   0  0  0  0  0  0  0  0  0  0  0  0
   44.9661   32.9078   47.0366 H   0  0  0  0  0  0  0  0  0  0  0  0
   46.7001   33.5195   47.0327 H   0  0  0  0  0  0  0  0  0  0  0  0
   45.3758   30.7968   44.5168 C   0  0  0  0  0  0  0  0  0  0  0  0
   45.9414   29.7072   43.7124 C   0  0  0  0  0  0  0  0  0  0  0  0
   45.8753   29.8381   42.3899 C   0  0  0  0  0  0  0  0  0  0  0  0
   45.2705   31.0111   41.7229 C   0  0  0  0  0  0  0  0  0  0  0  0
   45.1694   31.2209   40.4870 O   0  0  0  0  0  0  0  0  0  0  0  0
   44.6349   32.2352   41.6880 O   0  0  0  0  0  0  0  0  0  0  0  0
   46.3887   28.8175   41.5439 N   0  0  0  0  0  0  0  0  0  0  0  0
   47.2420   28.5738   40.3997 C   0  0  0  0  0  0  0  0  0  0  0  0
   47.7789   29.2226   39.4376 O   0  0  0  0  0  0  0  0  0  0  0  0
   47.2562   27.1342   40.8131 C   0  0  1  0  0  0  0  0  0  0  0  0
   46.9529   26.5311   39.9056 H   0  0  0  0  0  0  0  0  0  0  0  0
   46.0617   27.3902   41.7081 C   0  0  1  0  0  0  0  0  0  0  0  0
   46.2516   26.9866   43.4396 S   0  0  0  0  0  0  0  0  0  0  0  0
   46.5618   28.5215   44.3461 C   0  0  1  0  0  0  0  0  0  0  0  0
   47.6661   28.6763   44.5043 H   0  0  0  0  0  0  0  0  0  0  0  0
   44.5484   30.3926   45.1773 H   0  0  0  0  0  0  0  0  0  0  0  0
   44.8719   31.5715   43.9109 H   0  0  0  0  0  0  0  0  0  0  0  0
   43.6665   32.3722   42.0215 H   0  0  0  0  0  0  0  0  0  0  0  0
   48.1569   26.7945   41.3289 H   0  0  0  0  0  0  0  0  0  0  0  0
   45.1058   27.1064   41.2335 H   0  0  0  0  0  0  0  0  0  0  0  0
   46.1253   28.3768   45.3602 H   0  0  0  0  0  0  0  0  0  0  0  0
  1  6  2  0
  2  1  1  0
  3  2  2  0
  3  4  1  0
  4  5  2  0
  5  6  1  0
  5  7  1  0
  8  7  1  0
  1  9  1  0
  2 10  1  0
  3 11  1  0
  7 12  1  0
  7 13  1  0
 14 15  1  0
 15 16  2  0
 16 17  1  0
 17 18  2  0
 17 19  1  0
 16 20  1  0
 20 21  1  0
 21 22  2  0
 21 23  1  0
 23 24  1  6
 23 25  1  0
 25 26  1  0
 26 27  1  0
 27 28  1  1
 27 15  1  0
 25 20  1  0
 14 29  1  0
 14 30  1  0
 19 31  1  0
 23 32  1  0
 25 33  1  6
 27 34  1  0
  8 14  1  0
M  ISO  7   9  14  10  14  11  14  12   8  13   8  24  15  28  15
M  END
>  <DihAtoms>  (1) 
6,7,13,14

>  <DihDeg>  (1) 
-67.13124208584534

$$$$
