
 OpenBabel03242523293D

 29 31  0  0  1  0  0  0  0  0999 V2000
   46.1160   29.1750   46.3870 C   0  0  0  0  0  0  0  0  0  0  0  0
   47.1610   28.3510   46.4040 C   0  0  0  0  0  0  0  0  0  0  0  0
   47.1070   27.1450   47.1550 N   0  0  0  0  0  0  0  0  0  0  0  0
   47.8230   26.3440   48.1270 C   0  0  0  0  0  0  0  0  0  0  0  0
   49.0000   26.2420   48.6170 O   0  0  0  0  0  0  0  0  0  0  0  0
   46.5380   25.6120   48.3590 C   0  0  0  0  0  3  0  0  0  0  0  0
   46.7630   24.5110   48.2390 H   0  0  0  0  0  0  0  0  0  0  0  0
   45.9880   26.1890   47.0700 C   0  0  1  0  0  3  0  0  0  0  0  0
   44.4680   27.1220   47.1880 S   0  0  0  0  0  0  0  0  0  0  0  0
   44.8830   28.8830   47.1520 C   0  0  0  0  0  3  0  0  0  0  0  0
   44.9440   29.3020   48.1950 H   0  0  0  0  0  0  0  0  0  0  0  0
   48.4110   28.6140   45.6600 C   0  0  0  0  0  0  0  0  0  0  0  0
   48.8350   28.0120   44.6410 O   0  0  0  0  0  0  0  0  0  0  0  0
   49.5960   29.2730   45.4070 O   0  0  0  0  0  0  0  0  0  0  0  0
   49.6340   30.2640   45.1170 H   0  0  0  0  0  0  0  0  0  0  0  0
   46.2450   30.3920   45.5770 C   0  0  0  0  0  2  0  0  0  0  0  0
   46.8620   31.8300   46.4440 S   0  0  0  0  0  0  0  0  0  0  0  0
   45.5910   33.0330   46.8830 C   0  0  0  0  0  0  0  0  0  0  0  0
   44.6270   32.6130   47.1580 H   0  0  0  0  0  0  0  0  0  0  0  0
   46.0310   33.6640   47.7100 H   0  0  0  0  0  0  0  0  0  0  0  0
   44.5700   35.8610   44.6660 C   0  0  0  0  0  0  0  0  0  0  0  0
   45.3290   35.5980   43.5350 C   0  0  0  0  0  0  0  0  0  0  0  0
   46.1630   34.4870   43.5300 C   0  0  0  0  0  0  0  0  0  0  0  0
   46.2170   33.6900   44.6270 N   0  0  0  0  0  0  0  0  0  0  0  0
   45.4550   33.9750   45.7330 C   0  0  0  0  0  0  0  0  0  0  0  0
   44.6620   35.0430   45.7180 N   0  0  0  0  0  0  0  0  0  0  0  0
   43.9420   36.7280   44.6230 H   0  0  0  0  0  0  0  0  0  0  0  0
   45.3520   36.1800   42.6100 H   0  0  0  0  0  0  0  0  0  0  0  0
   46.8000   34.1960   42.6890 H   0  0  0  0  0  0  0  0  0  0  0  0
  1  2  2  0  0  0  0
  1 10  1  0  0  0  0
  2  3  1  0  0  0  0
  3  4  1  0  0  0  0
  4  6  1  0  0  0  0
  4  5  2  0  0  0  0
  7  6  1  0  0  0  0
  8  3  1  0  0  0  0
  8  9  1  1  0  0  0
  8  6  1  0  0  0  0
 10  9  1  0  0  0  0
 10 11  1  0  0  0  0
 12  2  1  0  0  0  0
 13 12  2  0  0  0  0
 14 12  1  0  0  0  0
 15 14  1  0  0  0  0
 16  1  1  0  0  0  0
 16 17  1  0  0  0  0
 17 18  1  0  0  0  0
 18 19  1  0  0  0  0
 18 20  1  0  0  0  0
 21 26  1  0  0  0  0
 22 21  2  0  0  0  0
 23 22  1  0  0  0  0
 23 24  2  0  0  0  0
 24 25  1  0  0  0  0
 25 18  1  0  0  0  0
 26 25  2  0  0  0  0
 27 21  1  0  0  0  0
 28 22  1  0  0  0  0
 29 23  1  0  0  0  0
M  END
>  <minimizedAffinity>
-3.87232208

>  <minimizedRMSD>
2.91265535

$$$$
