
 OpenBabel03242523293D

 29 31  0  0  1  0  0  0  0  0999 V2000
   46.3840   30.6720   42.5240 C   0  0  0  0  0  0  0  0  0  0  0  0
   45.6530   31.3510   41.6440 C   0  0  0  0  0  0  0  0  0  0  0  0
   45.9580   31.2810   40.2560 N   0  0  0  0  0  0  0  0  0  0  0  0
   46.1810   32.0830   39.0720 C   0  0  0  0  0  0  0  0  0  0  0  0
   45.9790   33.2770   38.6600 O   0  0  0  0  0  0  0  0  0  0  0  0
   46.7980   30.8650   38.4570 C   0  0  0  0  0  3  0  0  0  0  0  0
   46.2790   30.7010   37.4660 H   0  0  0  0  0  0  0  0  0  0  0  0
   46.1680   30.0120   39.5370 C   0  0  1  0  0  3  0  0  0  0  0  0
   47.2750   29.0100   40.5200 S   0  0  0  0  0  0  0  0  0  0  0  0
   47.5380   29.8460   42.1040 C   0  0  0  0  0  3  0  0  0  0  0  0
   48.4870   30.4530   42.0830 H   0  0  0  0  0  0  0  0  0  0  0  0
   44.4990   32.1920   42.0280 C   0  0  0  0  0  0  0  0  0  0  0  0
   43.9260   33.0700   41.3330 O   0  0  0  0  0  0  0  0  0  0  0  0
   43.5110   32.6390   42.8810 O   0  0  0  0  0  0  0  0  0  0  0  0
   42.7250   32.0420   43.1860 H   0  0  0  0  0  0  0  0  0  0  0  0
   45.9960   30.7840   43.9350 C   0  0  0  0  0  2  0  0  0  0  0  0
   47.1130   31.7260   44.9670 S   0  0  0  0  0  0  0  0  0  0  0  0
   46.3210   33.0550   45.8950 C   0  0  0  0  0  0  0  0  0  0  0  0
   45.4840   32.7540   46.5200 H   0  0  0  0  0  0  0  0  0  0  0  0
   47.1410   33.5500   46.4930 H   0  0  0  0  0  0  0  0  0  0  0  0
   44.4870   35.7880   44.1260 C   0  0  0  0  0  0  0  0  0  0  0  0
   45.2840   35.9580   43.0040 C   0  0  0  0  0  0  0  0  0  0  0  0
   46.4130   35.1630   42.8560 C   0  0  0  0  0  0  0  0  0  0  0  0
   46.7090   34.2430   43.8090 N   0  0  0  0  0  0  0  0  0  0  0  0
   45.9030   34.0960   44.9090 C   0  0  0  0  0  0  0  0  0  0  0  0
   44.8250   34.8670   45.0330 N   0  0  0  0  0  0  0  0  0  0  0  0
   43.6260   36.4220   44.1960 H   0  0  0  0  0  0  0  0  0  0  0  0
   45.1270   36.6690   42.1890 H   0  0  0  0  0  0  0  0  0  0  0  0
   47.1040   35.2220   42.0090 H   0  0  0  0  0  0  0  0  0  0  0  0
  1 16  1  0  0  0  0
  2 12  1  0  0  0  0
  2  1  2  0  0  0  0
  3  2  1  0  0  0  0
  4  3  1  0  0  0  0
  5  4  2  0  0  0  0
  6  4  1  0  0  0  0
  7  6  1  0  0  0  0
  8  6  1  6  0  0  0
  8  3  1  0  0  0  0
  8  9  1  0  0  0  0
  9 10  1  0  0  0  0
 10  1  1  0  0  0  0
 11 10  1  0  0  0  0
 12 14  1  0  0  0  0
 13 12  2  0  0  0  0
 14 15  1  0  0  0  0
 16 17  1  0  0  0  0
 17 18  1  0  0  0  0
 18 20  1  0  0  0  0
 18 19  1  0  0  0  0
 21 27  1  0  0  0  0
 21 26  1  0  0  0  0
 22 21  2  0  0  0  0
 23 22  1  0  0  0  0
 23 24  2  0  0  0  0
 24 25  1  0  0  0  0
 25 26  2  0  0  0  0
 25 18  1  0  0  0  0
 28 22  1  0  0  0  0
 29 23  1  0  0  0  0
M  END
>  <minimizedAffinity>
-3.57339621

>  <minimizedRMSD>
0.740619004

$$$$
