REMARK  Name = 
REMARK  6 active torsions:
REMARK  status: ('A' for Active; 'I' for Inactive)
REMARK    1  A    between atoms: C_1  and  C_15
REMARK    2  A    between atoms: C_13  and  S_17
REMARK    3  A    between atoms: S_17  and  C_29
REMARK    4  A    between atoms: C_29  and  C_30
REMARK    5  A    between atoms: C_31  and  C_32
REMARK    6  A    between atoms: C_32  and  O_34
REMARK                            x       y       z     vdW  Elec       q    Type
REMARK                         _______ _______ _______ _____ _____    ______ ____
ROOT
ATOM      1  C   UNL     1      44.632  35.553  45.254  0.00  0.00    +0.000 A 
ATOM      2  C   UNL     1      44.326  35.659  43.908  0.00  0.00    +0.000 A 
ATOM      3  C   UNL     1      44.788  34.668  43.075  0.00  0.00    +0.000 A 
ATOM      4  N   UNL     1      45.514  33.658  43.648  0.00  0.00    +0.000 NA
ATOM      5  C   UNL     1      45.794  33.590  44.980  0.00  0.00    +0.000 A 
ATOM      6  N   UNL     1      45.331  34.538  45.668  0.00  0.00    +0.000 NA
ATOM      7  H   UNL     1      44.318  36.276  45.997  0.00  0.00    +0.000 HD
ATOM      8  H   UNL     1      43.760  36.525  43.711  0.00  0.00    +0.000 HD
ENDROOT
BRANCH   5   9
ATOM      9  C   UNL     1      46.567  32.400  44.975  0.00  0.00    +0.000 C 
ATOM     10  N   UNL     1      46.869  31.160  44.887  0.00  0.00    +0.000 NA
ATOM     11  C   UNL     1      47.950  30.519  44.730  0.00  0.00    +0.000 C 
ATOM     12  N   UNL     1      47.964  30.211  46.028  0.00  0.00    +0.000 N 
ATOM     13  C   UNL     1      47.134  30.882  46.874  0.00  0.00    +0.000 A 
ATOM     14  C   UNL     1      47.070  30.403  48.213  0.00  0.00    +0.000 A 
ATOM     15  C   UNL     1      46.223  31.039  49.053  0.00  0.00    +0.000 A 
ATOM     16  C   UNL     1      45.429  32.094  48.724  0.00  0.00    +0.000 A 
ATOM     17  C   UNL     1      45.575  32.474  47.395  0.00  0.00    +0.000 A 
ATOM     18  C   UNL     1      46.374  31.979  46.362  0.00  0.00    +0.000 A 
ATOM     19  H   UNL     1      47.632  32.900  45.034  0.00  0.00    +0.000 HD
ATOM     20  H   UNL     1      46.053  30.607  44.507  0.00  0.00    +0.000 HD
ATOM     21  H   UNL     1      48.860  31.059  44.395  0.00  0.00    +0.000 HD
ATOM     22  H   UNL     1      47.940  29.597  44.078  0.00  0.00    +0.000 HD
ATOM     23  H   UNL     1      48.636  29.445  46.321  0.00  0.00    +0.000 HD
ATOM     24  H   UNL     1      47.657  29.584  48.553  0.00  0.00    +0.000 HD
ATOM     25  H   UNL     1      46.186  30.655  50.088  0.00  0.00    +0.000 HD
ATOM     26  H   UNL     1      44.780  32.567  49.400  0.00  0.00    +0.000 HD
ATOM     27  H   UNL     1      44.898  33.291  47.189  0.00  0.00    +0.000 HD
ENDBRANCH   5   9
BRANCH   3  28
ATOM     28  S   UNL     1      44.444  34.717  41.299  0.00  0.00    +0.000 S 
BRANCH  28  29
ATOM     29  C   UNL     1      45.640  35.666  40.384  0.00  0.00    +0.000 C 
BRANCH  29  30
ATOM     30  C   UNL     1      46.745  34.890  39.807  0.00  0.00    +0.000 C 
ATOM     31  C   UNL     1      47.139  33.647  40.010  0.00  0.00    +0.000 C 
ATOM     32  N   UNL     1      48.226  33.021  39.378  0.00  0.00    +0.000 N 
ATOM     33  C   UNL     1      48.849  31.874  38.861  0.00  0.00    +0.000 C 
ATOM     34  O   UNL     1      48.743  30.614  39.012  0.00  0.00    +0.000 OA
ATOM     35  C   UNL     1      49.763  32.663  37.997  0.00  0.00    +0.000 C 
ATOM     36  H   UNL     1      50.829  32.354  38.004  0.00  0.00    +0.000 HD
ATOM     37  C   UNL     1      49.407  33.766  38.969  0.00  0.00    +0.000 C 
ATOM     38  S   UNL     1      48.813  35.204  37.998  0.00  0.00    +0.000 S 
ATOM     39  C   UNL     1      47.396  35.836  38.888  0.00  0.00    +0.000 C 
ATOM     40  H   UNL     1      47.785  36.697  39.515  0.00  0.00    +0.000 HD
BRANCH  31  41
ATOM     41  C   UNL     1      46.393  32.821  40.986  0.00  0.00    +0.000 C 
ATOM     42  O   UNL     1      46.748  31.608  41.179  0.00  0.00    +0.000 OA
BRANCH  41  43
ATOM     43  O   UNL     1      45.592  32.217  41.920  0.00  0.00    +0.000 OA
ATOM     44  H   UNL     1      45.543  32.548  42.892  0.00  0.00    +0.000 HD
ENDBRANCH  41  43
ENDBRANCH  31  41
ENDBRANCH  29  30
ENDBRANCH  28  29
ENDBRANCH   3  28
TORSDOF 6
