
 OpenBabel03242512173D

 40 43  0  0  1  0  0  0  0  0999 V2000
   48.3240   32.9230   41.9280 C   0  0  0  0  0  0  0  0  0  0  0  0
   47.9260   34.2470   42.0230 C   0  0  0  0  0  0  0  0  0  0  0  0
   48.8650   35.2230   42.2960 C   0  0  0  0  0  0  0  0  0  0  0  0
   50.1860   34.8330   42.4670 C   0  0  0  0  0  0  0  0  0  0  0  0
   50.5340   33.5050   42.3630 C   0  0  0  0  0  0  0  0  0  0  0  0
   49.6260   32.5040   42.0920 C   0  0  0  0  0  0  0  0  0  0  0  0
   48.4830   36.2110   42.3510 H   0  0  0  0  0  0  0  0  0  0  0  0
   50.8320   35.6680   42.6750 H   0  0  0  0  0  0  0  0  0  0  0  0
   51.5830   33.4060   42.5220 H   0  0  0  0  0  0  0  0  0  0  0  0
   46.4810   34.4900   41.8020 C   0  0  0  0  0  0  0  0  0  0  0  0
   45.9980   33.7190   41.2340 H   0  0  0  0  0  0  0  0  0  0  0  0
   46.4370   35.4220   41.1740 H   0  0  0  0  0  0  0  0  0  0  0  0
   45.8180   34.8230   43.1110 C   0  0  0  0  0  0  0  0  0  0  0  0
   45.9250   33.8780   44.1250 C   0  0  0  0  0  0  0  0  0  0  0  0
   45.3280   34.1600   45.3570 C   0  0  0  0  0  0  0  0  0  0  0  0
   44.6800   35.3410   45.4820 N   0  0  0  0  0  0  0  0  0  0  0  0
   44.5930   36.2520   44.4640 C   0  0  0  0  0  0  0  0  0  0  0  0
   45.1630   35.9900   43.2770 N   0  0  0  0  0  0  0  0  0  0  0  0
   46.4600   32.9510   43.9500 H   0  0  0  0  0  0  0  0  0  0  0  0
   45.3800   33.4710   46.1660 H   0  0  0  0  0  0  0  0  0  0  0  0
   44.0670   37.1630   44.6340 H   0  0  0  0  0  0  0  0  0  0  0  0
   47.4280   31.8630   41.6520 O   0  0  0  0  0  0  0  0  0  0  0  0
   46.9360   31.9530   40.7860 H   0  0  0  0  0  0  0  0  0  0  0  0
   50.0540   31.2180   42.0040 O   0  0  0  0  0  0  0  0  0  0  0  0
   51.1860   30.6130   41.5200 C   0  0  0  0  0  2  0  0  0  0  0  0
   51.3260   30.6250   40.0390 C   0  0  0  0  0  0  0  0  0  0  0  0
   50.5150   30.0390   39.1690 C   0  0  0  0  0  0  0  0  0  0  0  0
   50.7730   30.1290   37.8000 N   0  0  0  0  0  0  0  0  0  0  0  0
   50.2960   30.2110   36.4750 C   0  0  0  0  0  0  0  0  0  0  0  0
   49.2000   30.0370   35.8380 O   0  0  0  0  0  0  0  0  0  0  0  0
   51.6030   30.6210   35.9090 C   0  0  0  0  0  3  0  0  0  0  0  0
   51.5770   31.7270   35.7530 H   0  0  0  0  0  0  0  0  0  0  0  0
   52.1180   30.1750   37.2620 C   0  0  1  0  0  3  0  0  0  0  0  0
   53.0160   31.5430   38.0460 S   0  0  0  0  0  0  0  0  0  0  0  0
   52.5250   31.4110   39.7710 C   0  0  0  0  0  3  0  0  0  0  0  0
   52.4400   32.4220   40.2420 H   0  0  0  0  0  0  0  0  0  0  0  0
   49.3300   29.2710   39.5950 C   0  0  0  0  0  0  0  0  0  0  0  0
   49.0130   28.0720   39.7790 O   0  0  0  0  0  0  0  0  0  0  0  0
   48.1380   29.8490   39.9280 O   0  0  0  0  0  0  0  0  0  0  0  0
   47.6110   29.6750   40.7940 H   0  0  0  0  0  0  0  0  0  0  0  0
  1  2  2  0  0  0  0
  1  6  1  0  0  0  0
  2  3  1  0  0  0  0
  3  7  1  0  0  0  0
  3  4  2  0  0  0  0
  4  8  1  0  0  0  0
  5  4  1  0  0  0  0
  5  9  1  0  0  0  0
  6  5  2  0  0  0  0
 10  2  1  0  0  0  0
 10 13  1  0  0  0  0
 11 10  1  0  0  0  0
 12 10  1  0  0  0  0
 13 18  2  0  0  0  0
 13 14  1  0  0  0  0
 14 15  2  0  0  0  0
 15 16  1  0  0  0  0
 15 20  1  0  0  0  0
 17 21  1  0  0  0  0
 17 16  2  0  0  0  0
 18 17  1  0  0  0  0
 19 14  1  0  0  0  0
 22  1  1  0  0  0  0
 23 22  1  0  0  0  0
 24  6  1  0  0  0  0
 25 24  1  0  0  0  0
 26 25  1  0  0  0  0
 27 37  1  0  0  0  0
 27 26  2  0  0  0  0
 28 27  1  0  0  0  0
 29 28  1  0  0  0  0
 30 29  2  0  0  0  0
 31 29  1  0  0  0  0
 32 31  1  0  0  0  0
 33 31  1  6  0  0  0
 33 28  1  0  0  0  0
 33 34  1  0  0  0  0
 34 35  1  0  0  0  0
 35 26  1  0  0  0  0
 35 36  1  0  0  0  0
 37 38  2  0  0  0  0
 37 39  1  0  0  0  0
 39 40  1  0  0  0  0
M  END
>  <minimizedAffinity>
-5.05263519

>  <minimizedRMSD>
2.53822851

$$$$
