
 OpenBabel03242512163D

 40 43  0  0  1  0  0  0  0  0999 V2000
   48.4450   32.9370   41.5900 C   0  0  0  0  0  0  0  0  0  0  0  0
   48.0820   34.2390   41.8970 C   0  0  0  0  0  0  0  0  0  0  0  0
   49.0300   35.1100   42.3980 C   0  0  0  0  0  0  0  0  0  0  0  0
   50.3240   34.6400   42.5770 C   0  0  0  0  0  0  0  0  0  0  0  0
   50.6370   33.3390   42.2570 C   0  0  0  0  0  0  0  0  0  0  0  0
   49.7200   32.4410   41.7550 C   0  0  0  0  0  0  0  0  0  0  0  0
   48.6750   36.0870   42.6080 H   0  0  0  0  0  0  0  0  0  0  0  0
   50.9790   35.3970   42.9720 H   0  0  0  0  0  0  0  0  0  0  0  0
   51.6700   33.1690   42.4590 H   0  0  0  0  0  0  0  0  0  0  0  0
   46.6630   34.5780   41.6360 C   0  0  0  0  0  0  0  0  0  0  0  0
   46.1660   33.8780   40.9910 H   0  0  0  0  0  0  0  0  0  0  0  0
   46.6970   35.5540   41.0790 H   0  0  0  0  0  0  0  0  0  0  0  0
   45.9600   34.8500   42.9370 C   0  0  0  0  0  0  0  0  0  0  0  0
   46.0330   33.8580   43.9080 C   0  0  0  0  0  0  0  0  0  0  0  0
   45.3980   34.0830   45.1330 C   0  0  0  0  0  0  0  0  0  0  0  0
   44.7490   35.2590   45.2940 N   0  0  0  0  0  0  0  0  0  0  0  0
   44.6960   36.2180   44.3170 C   0  0  0  0  0  0  0  0  0  0  0  0
   45.3030   36.0100   43.1380 N   0  0  0  0  0  0  0  0  0  0  0  0
   46.5710   32.9390   43.7060 H   0  0  0  0  0  0  0  0  0  0  0  0
   45.4230   33.3560   45.9100 H   0  0  0  0  0  0  0  0  0  0  0  0
   44.1660   37.1220   44.5140 H   0  0  0  0  0  0  0  0  0  0  0  0
   47.5380   31.9810   41.0720 O   0  0  0  0  0  0  0  0  0  0  0  0
   47.1090   32.2450   40.2090 H   0  0  0  0  0  0  0  0  0  0  0  0
   50.1140   31.1750   41.4620 O   0  0  0  0  0  0  0  0  0  0  0  0
   50.9740   30.2780   42.0410 C   0  0  0  0  0  2  0  0  0  0  0  0
   50.5630   29.7790   43.3800 C   0  0  0  0  0  0  0  0  0  0  0  0
   51.3620   29.5760   44.4200 C   0  0  0  0  0  0  0  0  0  0  0  0
   50.8360   29.0960   45.6220 N   0  0  0  0  0  0  0  0  0  0  0  0
   50.8590   29.0650   47.0330 C   0  0  0  0  0  0  0  0  0  0  0  0
   51.6380   29.4070   47.9880 O   0  0  0  0  0  0  0  0  0  0  0  0
   49.5270   28.4270   47.1520 C   0  0  0  0  0  3  0  0  0  0  0  0
   48.7850   29.2250   47.4030 H   0  0  0  0  0  0  0  0  0  0  0  0
   49.7210   28.1730   45.6720 C   0  0  1  0  0  3  0  0  0  0  0  0
   48.3290   28.8840   44.7500 S   0  0  0  0  0  0  0  0  0  0  0  0
   49.1220   29.5730   43.2910 C   0  0  0  0  0  3  0  0  0  0  0  0
   48.6150   30.5150   42.9660 H   0  0  0  0  0  0  0  0  0  0  0  0
   52.8110   29.8330   44.3600 C   0  0  0  0  0  0  0  0  0  0  0  0
   53.8070   29.4150   43.7190 O   0  0  0  0  0  0  0  0  0  0  0  0
   53.4490   30.7510   45.1440 O   0  0  0  0  0  0  0  0  0  0  0  0
   54.0810   31.4890   44.8080 H   0  0  0  0  0  0  0  0  0  0  0  0
  1  6  2  0  0  0  0
  1  2  1  0  0  0  0
  2  3  2  0  0  0  0
  3  4  1  0  0  0  0
  3  7  1  0  0  0  0
  4  8  1  0  0  0  0
  5  9  1  0  0  0  0
  5  4  2  0  0  0  0
  6  5  1  0  0  0  0
 10  2  1  0  0  0  0
 10 13  1  0  0  0  0
 11 10  1  0  0  0  0
 12 10  1  0  0  0  0
 13 18  2  0  0  0  0
 13 14  1  0  0  0  0
 14 15  2  0  0  0  0
 15 16  1  0  0  0  0
 15 20  1  0  0  0  0
 17 21  1  0  0  0  0
 17 16  2  0  0  0  0
 18 17  1  0  0  0  0
 19 14  1  0  0  0  0
 22  1  1  0  0  0  0
 23 22  1  0  0  0  0
 24  6  1  0  0  0  0
 24 25  1  0  0  0  0
 25 26  1  0  0  0  0
 26 27  2  0  0  0  0
 27 28  1  0  0  0  0
 28 33  1  0  0  0  0
 28 29  1  0  0  0  0
 29 31  1  0  0  0  0
 29 30  2  0  0  0  0
 31 32  1  0  0  0  0
 33 34  1  6  0  0  0
 33 31  1  0  0  0  0
 35 26  1  0  0  0  0
 35 34  1  0  0  0  0
 36 35  1  0  0  0  0
 37 27  1  0  0  0  0
 37 39  1  0  0  0  0
 38 37  2  0  0  0  0
 40 39  1  0  0  0  0
M  END
>  <minimizedAffinity>
-5.25054169

>  <minimizedRMSD>
1.37019646

$$$$
