
 OpenBabel03242521103D

 26 28  0  0  1  0  0  0  0  0999 V2000
   45.6180   30.1500   45.1870 C   0  0  0  0  0  0  0  0  0  0  0  0
   45.9700   28.9670   45.6120 C   0  0  0  0  0  0  0  0  0  0  0  0
   45.9630   27.8390   44.7570 N   0  0  0  0  0  0  0  0  0  0  0  0
   46.5410   26.5940   44.3160 C   0  0  0  0  0  0  0  0  0  0  0  0
   47.1100   25.7070   44.9970 O   0  0  0  0  0  0  0  0  0  0  0  0
   46.0990   27.0200   42.9400 C   0  0  0  0  0  3  0  0  0  0  0  0
   45.8110   26.1730   42.2910 H   0  0  0  0  0  0  0  0  0  0  0  0
   44.9610   27.6240   43.7360 C   0  0  2  0  0  3  0  0  0  0  0  0
   44.2490   29.1270   43.1020 S   0  0  0  0  0  0  0  0  0  0  0  0
   45.1890   30.4850   43.8320 C   0  0  0  0  0  3  0  0  0  0  0  0
   44.4890   31.3440   43.8830 H   0  0  0  0  0  0  0  0  0  0  0  0
   46.3900   28.7280   46.9900 C   0  0  0  0  0  0  0  0  0  0  0  0
   45.9790   27.7650   47.7210 O   0  0  0  0  0  0  0  0  0  0  0  0
   47.0090   28.8400   48.2130 O   0  0  0  0  0  0  0  0  0  0  0  0
   47.0400   29.7030   48.7590 H   0  0  0  0  0  0  0  0  0  0  0  0
   45.6680   31.2240   46.1770 C   0  0  0  0  0  2  0  0  0  0  0  0
   46.9380   32.4560   45.6870 S   0  0  0  0  0  0  0  0  0  0  0  0
   44.5140   35.5980   44.9680 C   0  0  0  0  0  0  0  0  0  0  0  0
   44.9030   35.9520   43.6580 C   0  0  0  0  0  0  0  0  0  0  0  0
   45.9120   35.1910   43.0450 C   0  0  0  0  0  0  0  0  0  0  0  0
   46.4670   34.1600   43.7300 N   0  0  0  0  0  0  0  0  0  0  0  0
   46.0600   33.8520   44.9980 C   0  0  0  0  0  0  0  0  0  0  0  0
   45.0970   34.5660   45.6010 N   0  0  0  0  0  0  0  0  0  0  0  0
   43.7430   36.1490   45.4880 H   0  0  0  0  0  0  0  0  0  0  0  0
   44.4170   36.7870   43.1700 H   0  0  0  0  0  0  0  0  0  0  0  0
   46.2160   35.4520   42.0470 H   0  0  0  0  0  0  0  0  0  0  0  0
  1  2  2  0  0  0  0
  1 16  1  0  0  0  0
  2 12  1  0  0  0  0
  3  2  1  0  0  0  0
  4  3  1  0  0  0  0
  4  5  2  0  0  0  0
  6  4  1  0  0  0  0
  7  6  1  0  0  0  0
  8  6  1  6  0  0  0
  8  3  1  0  0  0  0
  9  8  1  0  0  0  0
  9 10  1  0  0  0  0
 10 11  1  0  0  0  0
 10  1  1  0  0  0  0
 12 13  2  0  0  0  0
 12 14  1  0  0  0  0
 14 15  1  0  0  0  0
 17 16  1  0  0  0  0
 18 24  1  0  0  0  0
 18 23  1  0  0  0  0
 19 18  2  0  0  0  0
 20 19  1  0  0  0  0
 20 21  2  0  0  0  0
 21 22  1  0  0  0  0
 22 23  2  0  0  0  0
 22 17  1  0  0  0  0
 25 19  1  0  0  0  0
 26 20  1  0  0  0  0
M  END
>  <minimizedAffinity>
-3.43286276

>  <minimizedRMSD>
1.60564804

$$$$
