
 OpenBabel03242522413D

 54 58  0  0  1  0  0  0  0  0999 V2000
   46.7980   34.5260   43.0320 C   0  0  0  0  0  0  0  0  0  0  0  0
   46.2850   33.8520   44.1110 C   0  0  0  0  0  0  0  0  0  0  0  0
   45.2460   34.2480   44.8610 C   0  0  0  0  0  0  0  0  0  0  0  0
   44.6240   35.4220   44.5420 C   0  0  0  0  0  0  0  0  0  0  0  0
   45.0400   36.1780   43.4910 C   0  0  0  0  0  0  0  0  0  0  0  0
   46.1190   35.7130   42.7550 C   0  0  0  0  0  0  0  0  0  0  0  0
   44.7720   33.8020   45.6880 H   0  0  0  0  0  0  0  0  0  0  0  0
   43.7790   35.8630   45.0590 H   0  0  0  0  0  0  0  0  0  0  0  0
   44.5850   37.1320   43.1770 H   0  0  0  0  0  0  0  0  0  0  0  0
   46.4440   36.3370   41.9030 H   0  0  0  0  0  0  0  0  0  0  0  0
   46.9290   32.5660   44.4510 C   0  0  0  0  0  0  0  0  0  0  0  0
   47.9520   32.7810   44.7320 H   0  0  0  0  0  0  0  0  0  0  0  0
   46.7700   31.9600   43.5350 H   0  0  0  0  0  0  0  0  0  0  0  0
   46.2210   31.7320   45.4680 C   0  0  0  0  0  0  0  0  0  0  0  0
   45.2100   32.1180   45.7690 H   0  0  0  0  0  0  0  0  0  0  0  0
   45.9400   30.6970   45.1180 H   0  0  0  0  0  0  0  0  0  0  0  0
   47.2500   32.5200   47.5710 C   0  0  0  0  0  0  0  0  0  0  0  0
   47.1230   31.5100   46.5890 C   0  0  0  0  0  0  0  0  0  0  0  0
   47.8470   30.3470   46.7670 C   0  0  0  0  0  0  0  0  0  0  0  0
   48.6320   30.2330   47.8620 N   0  0  0  0  0  0  0  0  0  0  0  0
   48.7280   31.2000   48.7720 C   0  0  0  0  0  0  0  0  0  0  0  0
   48.0440   32.3600   48.6470 N   0  0  0  0  0  0  0  0  0  0  0  0
   46.7900   33.4900   47.6260 H   0  0  0  0  0  0  0  0  0  0  0  0
   47.7520   29.5750   46.0160 H   0  0  0  0  0  0  0  0  0  0  0  0
   49.6170   30.9830   49.9650 C   0  0  0  0  0  0  0  0  0  0  0  0
   49.7770   29.8930   50.1240 H   0  0  0  0  0  0  0  0  0  0  0  0
   49.0330   31.3860   50.8360 H   0  0  0  0  0  0  0  0  0  0  0  0
   50.8780   31.7060   49.8890 C   0  0  0  0  0  0  0  0  0  0  0  0
   52.0750   31.1840   49.4150 C   0  0  0  0  0  0  0  0  0  0  0  0
   53.0390   32.1510   49.4970 C   0  0  0  0  0  0  0  0  0  0  0  0
   52.3940   33.2410   50.0200 N   0  0  0  0  0  0  0  0  0  0  0  0
   51.1090   32.9810   50.2550 N   0  0  0  0  0  0  0  0  0  0  0  0
   52.3160   30.1890   49.0240 H   0  0  0  0  0  0  0  0  0  0  0  0
   54.0890   32.1430   49.2310 H   0  0  0  0  0  0  0  0  0  0  0  0
   52.8580   34.1610   50.2110 H   0  0  0  0  0  0  0  0  0  0  0  0
   48.1730   34.1810   42.0910 S   0  0  0  0  0  0  0  0  0  0  0  0
   49.4670   34.4020   42.8230 O   0  0  0  0  0  0  0  0  0  0  0  0
   48.2140   35.2370   40.9560 O   0  0  0  0  0  0  0  0  0  0  0  0
   48.3690   32.7170   41.2110 C   0  0  0  0  0  0  0  0  0  0  0  0
   47.5210   32.8050   39.9580 C   0  0  0  0  0  0  0  0  0  0  0  0
   46.2690   32.4540   39.8610 C   0  0  0  0  0  0  0  0  0  0  0  0
   45.6160   32.5850   38.6110 N   0  0  0  0  0  0  0  0  0  0  0  0
   44.4660   33.0350   37.8630 C   0  0  0  0  0  0  0  0  0  0  0  0
   43.2210   33.1000   38.1390 O   0  0  0  0  0  0  0  0  0  0  0  0
   45.4500   33.3270   36.7600 C   0  0  0  0  0  0  0  0  0  0  0  0
   45.0490   33.1500   35.7430 H   0  0  0  0  0  0  0  0  0  0  0  0
   46.1660   32.1210   37.3520 C   0  0  1  0  0  0  0  0  0  0  0  0
   47.9540   32.3740   37.2730 S   0  0  0  0  0  0  0  0  0  0  0  0
   48.3240   33.3360   38.8040 C   0  0  0  0  0  0  0  0  0  0  0  0
   49.4050   33.1960   38.9210 H   0  0  0  0  0  0  0  0  0  0  0  0
   45.4980   31.9090   41.0060 C   0  0  0  0  0  0  0  0  0  0  0  0
   45.4490   30.9460   41.8100 O   0  0  0  0  0  0  0  0  0  0  0  0
   44.3980   32.4740   41.5880 O   0  0  0  0  0  0  0  0  0  0  0  0
   44.3320   32.8360   42.5170 H   0  0  0  0  0  0  0  0  0  0  0  0
  1  2  1  0  0  0  0
  2 11  1  0  0  0  0
  2  3  2  0  0  0  0
  3  7  1  0  0  0  0
  4  3  1  0  0  0  0
  4  8  1  0  0  0  0
  5  4  2  0  0  0  0
  6  1  2  0  0  0  0
  6  5  1  0  0  0  0
  9  5  1  0  0  0  0
 10  6  1  0  0  0  0
 11 12  1  0  0  0  0
 11 14  1  0  0  0  0
 13 11  1  0  0  0  0
 14 15  1  0  0  0  0
 14 18  1  0  0  0  0
 16 14  1  0  0  0  0
 17 23  1  0  0  0  0
 17 22  1  0  0  0  0
 18 19  1  0  0  0  0
 18 17  2  0  0  0  0
 19 20  2  0  0  0  0
 20 21  1  0  0  0  0
 21 25  1  0  0  0  0
 22 21  2  0  0  0  0
 24 19  1  0  0  0  0
 25 26  1  0  0  0  0
 25 27  1  0  0  0  0
 28 25  1  0  0  0  0
 28 32  2  0  0  0  0
 29 30  2  0  0  0  0
 29 28  1  0  0  0  0
 30 31  1  0  0  0  0
 31 35  1  0  0  0  0
 31 32  1  0  0  0  0
 33 29  1  0  0  0  0
 34 30  1  0  0  0  0
 36 37  2  0  0  0  0
 36  1  1  0  0  0  0
 38 36  2  0  0  0  0
 39 36  1  0  0  0  0
 40 39  1  0  0  0  0
 41 40  2  0  0  0  0
 41 51  1  0  0  0  0
 42 41  1  0  0  0  0
 43 44  2  0  0  0  0
 43 42  1  0  0  0  0
 45 43  1  0  0  0  0
 46 45  1  0  0  0  0
 47 45  1  6  0  0  0
 47 42  1  0  0  0  0
 48 47  1  0  0  0  0
 48 49  1  0  0  0  0
 49 50  1  0  0  0  0
 49 40  1  0  0  0  0
 51 53  1  0  0  0  0
 51 52  2  0  0  0  0
 53 54  1  0  0  0  0
M  END
>  <minimizedAffinity>
-6.25451851

>  <minimizedRMSD>
1.82107198

$$$$
