REMARK  Name = 
REMARK  8 active torsions:
REMARK  status: ('A' for Active; 'I' for Inactive)
REMARK    1  A    between atoms: C_1  and  C_2
REMARK    2  A    between atoms: C_1  and  C_9
REMARK    3  A    between atoms: C_8  and  O_14
REMARK    4  A    between atoms: C_13  and  O_15
REMARK    5  A    between atoms: O_15  and  C_25
REMARK    6  A    between atoms: C_25  and  C_26
REMARK    7  A    between atoms: C_27  and  C_28
REMARK    8  A    between atoms: C_28  and  O_30
REMARK                            x       y       z     vdW  Elec       q    Type
REMARK                         _______ _______ _______ _____ _____    ______ ____
ROOT
ATOM      1  C   UNL     1      48.375  33.000  41.502  0.00  0.00    +0.000 A 
ATOM      2  C   UNL     1      48.044  34.294  41.871  0.00  0.00    +0.000 A 
ATOM      3  C   UNL     1      49.011  35.115  42.417  0.00  0.00    +0.000 A 
ATOM      4  C   UNL     1      50.292  34.605  42.576  0.00  0.00    +0.000 A 
ATOM      5  C   UNL     1      50.574  33.313  42.194  0.00  0.00    +0.000 A 
ATOM      6  C   UNL     1      49.636  32.464  41.646  0.00  0.00    +0.000 A 
ATOM      7  H   UNL     1      48.680  36.090  42.673  0.00  0.00    +0.000 HD
ATOM      8  H   UNL     1      50.965  35.325  43.009  0.00  0.00    +0.000 HD
ATOM      9  H   UNL     1      51.601  33.107  42.390  0.00  0.00    +0.000 HD
ENDROOT
BRANCH   2  10
ATOM     10  C   UNL     1      46.635  34.681  41.623  0.00  0.00    +0.000 C 
ATOM     11  H   UNL     1      46.120  34.021  40.951  0.00  0.00    +0.000 HD
ATOM     12  H   UNL     1      46.696  35.677  41.105  0.00  0.00    +0.000 HD
BRANCH  10  13
ATOM     13  C   UNL     1      45.937  34.921  42.934  0.00  0.00    +0.000 A 
ATOM     14  C   UNL     1      46.005  33.900  43.875  0.00  0.00    +0.000 A 
ATOM     15  C   UNL     1      45.375  34.095  45.108  0.00  0.00    +0.000 A 
ATOM     16  N   UNL     1      44.736  35.271  45.305  0.00  0.00    +0.000 NA
ATOM     17  C   UNL     1      44.688  36.258  44.357  0.00  0.00    +0.000 A 
ATOM     18  N   UNL     1      45.290  36.080  43.170  0.00  0.00    +0.000 NA
ATOM     19  H   UNL     1      46.535  32.983  43.645  0.00  0.00    +0.000 HD
ATOM     20  H   UNL     1      45.396  33.345  45.863  0.00  0.00    +0.000 HD
ATOM     21  H   UNL     1      44.166  37.160  44.582  0.00  0.00    +0.000 HD
ENDBRANCH  10  13
ENDBRANCH   2  10
BRANCH   1  22
ATOM     22  O   UNL     1      47.446  32.094  40.936  0.00  0.00    +0.000 OA
ATOM     23  H   UNL     1      47.027  32.410  40.085  0.00  0.00    +0.000 HD
ENDBRANCH   1  22
BRANCH   6  24
ATOM     24  O   UNL     1      49.999  31.204  41.293  0.00  0.00    +0.000 OA
BRANCH  24  25
ATOM     25  C   UNL     1      51.167  30.488  41.352  0.00  0.00    +0.000 C 
BRANCH  25  26
ATOM     26  C   UNL     1      51.509  29.733  40.117  0.00  0.00    +0.000 C 
ATOM     27  C   UNL     1      51.679  28.420  40.023  0.00  0.00    +0.000 C 
ATOM     28  N   UNL     1      52.005  27.844  38.793  0.00  0.00    +0.000 N 
ATOM     29  C   UNL     1      51.911  26.759  37.895  0.00  0.00    +0.000 C 
ATOM     30  O   UNL     1      51.545  25.534  37.907  0.00  0.00    +0.000 OA
ATOM     31  C   UNL     1      52.430  27.527  36.738  0.00  0.00    +0.000 C 
ATOM     32  H   UNL     1      51.557  27.834  36.112  0.00  0.00    +0.000 HD
ATOM     33  C   UNL     1      52.831  28.517  37.811  0.00  0.00    +0.000 C 
ATOM     34  S   UNL     1      52.101  30.136  37.443  0.00  0.00    +0.000 S 
ATOM     35  C   UNL     1      51.610  30.736  39.064  0.00  0.00    +0.000 C 
ATOM     36  H   UNL     1      50.664  31.331  39.003  0.00  0.00    +0.000 HD
BRANCH  27  37
ATOM     37  C   UNL     1      51.542  27.525  41.186  0.00  0.00    +0.000 C 
ATOM     38  O   UNL     1      51.285  27.619  42.410  0.00  0.00    +0.000 OA
BRANCH  37  39
ATOM     39  O   UNL     1      51.703  26.171  41.118  0.00  0.00    +0.000 OA
ATOM     40  H   UNL     1      51.038  25.471  41.469  0.00  0.00    +0.000 HD
ENDBRANCH  37  39
ENDBRANCH  27  37
ENDBRANCH  25  26
ENDBRANCH  24  25
ENDBRANCH   6  24
TORSDOF 8
