REMARK  Name = 
REMARK  8 active torsions:
REMARK  status: ('A' for Active; 'I' for Inactive)
REMARK    1  A    between atoms: C_1  and  C_2
REMARK    2  A    between atoms: C_1  and  C_9
REMARK    3  A    between atoms: C_8  and  O_14
REMARK    4  A    between atoms: C_13  and  O_15
REMARK    5  A    between atoms: O_15  and  C_25
REMARK    6  A    between atoms: C_25  and  C_26
REMARK    7  A    between atoms: C_27  and  C_28
REMARK    8  A    between atoms: C_28  and  O_30
REMARK                            x       y       z     vdW  Elec       q    Type
REMARK                         _______ _______ _______ _____ _____    ______ ____
ROOT
ATOM      1  C   UNL     1      48.375  33.000  41.502  0.00  0.00    +0.000 A 
ATOM      2  C   UNL     1      48.044  34.294  41.871  0.00  0.00    +0.000 A 
ATOM      3  C   UNL     1      49.011  35.115  42.417  0.00  0.00    +0.000 A 
ATOM      4  C   UNL     1      50.292  34.605  42.576  0.00  0.00    +0.000 A 
ATOM      5  C   UNL     1      50.574  33.313  42.194  0.00  0.00    +0.000 A 
ATOM      6  C   UNL     1      49.636  32.464  41.646  0.00  0.00    +0.000 A 
ATOM      7  H   UNL     1      48.680  36.090  42.673  0.00  0.00    +0.000 HD
ATOM      8  H   UNL     1      50.965  35.325  43.009  0.00  0.00    +0.000 HD
ATOM      9  H   UNL     1      51.601  33.107  42.390  0.00  0.00    +0.000 HD
ENDROOT
BRANCH   2  10
ATOM     10  C   UNL     1      46.635  34.681  41.623  0.00  0.00    +0.000 C 
ATOM     11  H   UNL     1      46.120  34.021  40.951  0.00  0.00    +0.000 HD
ATOM     12  H   UNL     1      46.696  35.677  41.105  0.00  0.00    +0.000 HD
BRANCH  10  13
ATOM     13  C   UNL     1      45.937  34.921  42.934  0.00  0.00    +0.000 A 
ATOM     14  C   UNL     1      46.005  33.900  43.875  0.00  0.00    +0.000 A 
ATOM     15  C   UNL     1      45.375  34.095  45.108  0.00  0.00    +0.000 A 
ATOM     16  N   UNL     1      44.736  35.271  45.305  0.00  0.00    +0.000 NA
ATOM     17  C   UNL     1      44.688  36.258  44.357  0.00  0.00    +0.000 A 
ATOM     18  N   UNL     1      45.290  36.080  43.170  0.00  0.00    +0.000 NA
ATOM     19  H   UNL     1      46.535  32.983  43.645  0.00  0.00    +0.000 HD
ATOM     20  H   UNL     1      45.396  33.345  45.863  0.00  0.00    +0.000 HD
ATOM     21  H   UNL     1      44.166  37.160  44.582  0.00  0.00    +0.000 HD
ENDBRANCH  10  13
ENDBRANCH   2  10
BRANCH   1  22
ATOM     22  O   UNL     1      47.446  32.094  40.936  0.00  0.00    +0.000 OA
ATOM     23  H   UNL     1      47.027  32.410  40.085  0.00  0.00    +0.000 HD
ENDBRANCH   1  22
BRANCH   6  24
ATOM     24  O   UNL     1      49.999  31.204  41.293  0.00  0.00    +0.000 OA
BRANCH  24  25
ATOM     25  C   UNL     1      51.167  30.488  41.352  0.00  0.00    +0.000 C 
BRANCH  25  26
ATOM     26  C   UNL     1      51.197  29.256  40.519  0.00  0.00    +0.000 C 
ATOM     27  C   UNL     1      51.386  28.018  40.957  0.00  0.00    +0.000 C 
ATOM     28  N   UNL     1      51.395  26.952  40.055  0.00  0.00    +0.000 N 
ATOM     29  C   UNL     1      51.106  25.600  39.767  0.00  0.00    +0.000 C 
ATOM     30  O   UNL     1      50.804  24.529  40.395  0.00  0.00    +0.000 OA
ATOM     31  C   UNL     1      51.270  25.762  38.302  0.00  0.00    +0.000 C 
ATOM     32  H   UNL     1      50.251  25.846  37.851  0.00  0.00    +0.000 HD
ATOM     33  C   UNL     1      51.903  27.077  38.703  0.00  0.00    +0.000 C 
ATOM     34  S   UNL     1      51.040  28.442  37.877  0.00  0.00    +0.000 S 
ATOM     35  C   UNL     1      50.976  29.709  39.150  0.00  0.00    +0.000 C 
ATOM     36  H   UNL     1      50.026  30.296  39.084  0.00  0.00    +0.000 HD
BRANCH  27  37
ATOM     37  C   UNL     1      51.597  27.713  42.383  0.00  0.00    +0.000 C 
ATOM     38  O   UNL     1      51.671  28.337  43.469  0.00  0.00    +0.000 OA
BRANCH  37  39
ATOM     39  O   UNL     1      51.786  26.449  42.863  0.00  0.00    +0.000 OA
ATOM     40  H   UNL     1      51.265  26.020  43.638  0.00  0.00    +0.000 HD
ENDBRANCH  37  39
ENDBRANCH  27  37
ENDBRANCH  25  26
ENDBRANCH  24  25
ENDBRANCH   6  24
TORSDOF 8
