
 OpenBabel03242521103D

 26 28  0  0  1  0  0  0  0  0999 V2000
   46.5080   31.7300   45.0890 C   0  0  0  0  0  0  0  0  0  0  0  0
   46.4420   31.6810   46.3900 C   0  0  0  0  0  0  0  0  0  0  0  0
   47.2780   30.8230   47.1440 N   0  0  0  0  0  0  0  0  0  0  0  0
   48.0730   30.5550   48.3180 C   0  0  0  0  0  0  0  0  0  0  0  0
   47.8710   30.9160   49.5020 O   0  0  0  0  0  0  0  0  0  0  0  0
   48.9790   29.8010   47.3800 C   0  0  0  0  0  3  0  0  0  0  0  0
   49.4680   28.9280   47.8500 H   0  0  0  0  0  0  0  0  0  0  0  0
   47.6570   29.4980   46.7040 C   0  0  2  0  0  3  0  0  0  0  0  0
   47.6870   29.3100   44.9340 S   0  0  0  0  0  0  0  0  0  0  0  0
   47.4120   30.9560   44.2420 C   0  0  0  0  0  3  0  0  0  0  0  0
   46.9260   30.7930   43.2590 H   0  0  0  0  0  0  0  0  0  0  0  0
   45.5060   32.5000   47.1550 C   0  0  0  0  0  0  0  0  0  0  0  0
   44.8300   32.0940   48.1580 O   0  0  0  0  0  0  0  0  0  0  0  0
   44.7430   33.5560   47.6000 O   0  0  0  0  0  0  0  0  0  0  0  0
   44.1540   34.1290   46.9930 H   0  0  0  0  0  0  0  0  0  0  0  0
   45.5840   32.6580   44.4380 C   0  0  0  0  0  2  0  0  0  0  0  0
   46.4340   34.2540   44.1220 S   0  0  0  0  0  0  0  0  0  0  0  0
   46.9290   33.5520   40.1810 C   0  0  0  0  0  0  0  0  0  0  0  0
   48.0010   34.4200   39.8800 C   0  0  0  0  0  0  0  0  0  0  0  0
   48.5320   35.1940   40.9240 C   0  0  0  0  0  0  0  0  0  0  0  0
   47.9980   35.0800   42.1650 N   0  0  0  0  0  0  0  0  0  0  0  0
   46.9590   34.2280   42.4130 C   0  0  0  0  0  0  0  0  0  0  0  0
   46.4380   33.4780   41.4300 N   0  0  0  0  0  0  0  0  0  0  0  0
   46.4820   32.9330   39.4160 H   0  0  0  0  0  0  0  0  0  0  0  0
   48.3790   34.4600   38.8670 H   0  0  0  0  0  0  0  0  0  0  0  0
   49.3500   35.8580   40.7050 H   0  0  0  0  0  0  0  0  0  0  0  0
  1  2  2  0  0  0  0
  2  3  1  0  0  0  0
  2 12  1  0  0  0  0
  3  4  1  0  0  0  0
  4  5  2  0  0  0  0
  6  7  1  0  0  0  0
  6  4  1  0  0  0  0
  8  9  1  6  0  0  0
  8  3  1  0  0  0  0
  8  6  1  0  0  0  0
 10  9  1  0  0  0  0
 10  1  1  0  0  0  0
 11 10  1  0  0  0  0
 12 14  1  0  0  0  0
 12 13  2  0  0  0  0
 15 14  1  0  0  0  0
 16  1  1  0  0  0  0
 17 16  1  0  0  0  0
 18 23  1  0  0  0  0
 19 18  2  0  0  0  0
 19 20  1  0  0  0  0
 20 21  2  0  0  0  0
 21 22  1  0  0  0  0
 22 17  1  0  0  0  0
 23 22  2  0  0  0  0
 24 18  1  0  0  0  0
 25 19  1  0  0  0  0
 26 20  1  0  0  0  0
M  END
>  <minimizedAffinity>
-4.60811138

>  <minimizedRMSD>
4.91922951

$$$$
