
     RDKit          3D

 45 48  0  0  0  0  0  0  0  0999 V2000
   46.6348   34.6810   41.6231 C   0  0  0  0  0  0  0  0  0  0  0  0
   45.9370   34.9213   42.9340 C   0  0  0  0  0  0  0  0  0  0  0  0
   46.0046   33.8999   43.8753 C   0  0  0  0  0  0  0  0  0  0  0  0
   45.3746   34.0952   45.1075 C   0  0  0  0  0  0  0  0  0  0  0  0
   44.7365   35.2709   45.3053 N   0  0  0  0  0  0  0  0  0  0  0  0
   44.6875   36.2585   44.3568 C   0  0  0  0  0  0  0  0  0  0  0  0
   45.2899   36.0799   43.1702 N   0  0  0  0  0  0  0  0  0  0  0  0
   48.3754   33.0001   41.5021 C   0  0  0  0  0  0  0  0  0  0  0  0
   48.0437   34.2935   41.8706 C   0  0  0  0  0  0  0  0  0  0  0  0
   49.0115   35.1151   42.4170 C   0  0  0  0  0  0  0  0  0  0  0  0
   50.2920   34.6050   42.5762 C   0  0  0  0  0  0  0  0  0  0  0  0
   50.5741   33.3130   42.1945 C   0  0  0  0  0  0  0  0  0  0  0  0
   49.6358   32.4643   41.6460 C   0  0  0  0  0  0  0  0  0  0  0  0
   47.4459   32.0941   40.9364 O   0  0  0  0  0  0  0  0  0  0  0  0
   49.9987   31.2042   41.2930 O   0  0  0  0  0  0  0  0  0  0  0  0
   46.1197   34.0209   40.9507 H   0  0  0  0  0  0  0  0  0  0  0  0
   46.6957   35.6773   41.1052 H   0  0  0  0  0  0  0  0  0  0  0  0
   46.5352   32.9827   43.6455 H   0  0  0  0  0  0  0  0  0  0  0  0
   45.3963   33.3454   45.8630 H   0  0  0  0  0  0  0  0  0  0  0  0
   44.1657   37.1603   44.5823 H   0  0  0  0  0  0  0  0  0  0  0  0
   48.6800   36.0895   42.6730 H   0  0  0  0  0  0  0  0  0  0  0  0
   50.9649   35.3249   43.0089 H   0  0  0  0  0  0  0  0  0  0  0  0
   51.6008   33.1070   42.3901 H   0  0  0  0  0  0  0  0  0  0  0  0
   47.0270   32.4099   40.0846 H   0  0  0  0  0  0  0  0  0  0  0  0
   51.1668   30.4882   41.3518 C   0  0  0  0  0  0  0  0  0  0  0  0
   51.0882   29.1032   40.8155 C   0  0  0  0  0  0  0  0  0  0  0  0
   51.3397   27.9867   41.4874 C   0  0  0  0  0  0  0  0  0  0  0  0
   51.7450   27.9971   42.9040 C   0  0  0  0  0  0  0  0  0  0  0  0
   51.9640   28.8420   43.8051 O   0  0  0  0  0  0  0  0  0  0  0  0
   52.0026   26.8647   43.6227 O   0  0  0  0  0  0  0  0  0  0  0  0
   51.2300   26.7485   40.8508 N   0  0  0  0  0  0  0  0  0  0  0  0
   50.9107   25.3748   40.9098 C   0  0  0  0  0  0  0  0  0  0  0  0
   50.7014   24.4761   41.7948 O   0  0  0  0  0  0  0  0  0  0  0  0
   50.8720   25.2063   39.4371 C   0  0  2  0  0  0  0  0  0  0  0  0
   49.8005   25.2154   39.1196 H   0  0  0  0  0  0  0  0  0  0  0  0
   51.5491   26.5604   39.4496 C   0  0  1  0  0  0  0  0  0  0  0  0
   50.5760   27.7322   38.4650 S   0  0  0  0  0  0  0  0  0  0  0  0
   50.6804   29.2492   39.4229 C   0  0  1  0  0  0  0  0  0  0  0  0
   49.7279   29.8324   39.3569 H   0  0  0  0  0  0  0  0  0  0  0  0
   52.0014   31.0538   40.8068 H   0  0  0  0  0  0  0  0  0  0  0  0
   51.5279   30.5197   42.4054 H   0  0  0  0  0  0  0  0  0  0  0  0
   51.5938   26.6301   44.5358 H   0  0  0  0  0  0  0  0  0  0  0  0
   51.4824   24.3920   39.0132 H   0  0  0  0  0  0  0  0  0  0  0  0
   52.6231   26.4910   39.2048 H   0  0  0  0  0  0  0  0  0  0  0  0
   51.4588   29.8791   38.8945 H   0  0  0  0  0  0  0  0  0  0  0  0
  1  9  1  0
  1  2  1  0
  2  7  1  0
  2  3  2  0
  3  4  1  0
  4  5  2  0
  6  5  1  0
  7  6  2  0
  8 13  2  0
  8  9  1  0
  9 10  2  0
 10 11  1  0
 12 11  2  0
 13 12  1  0
 14  8  1  0
 15 13  1  0
  1 16  1  0
  1 17  1  0
  3 18  1  0
  4 19  1  0
  6 20  1  0
 10 21  1  0
 11 22  1  0
 12 23  1  0
 14 24  1  0
 25 26  1  0
 26 27  2  0
 27 28  1  0
 28 29  2  0
 28 30  1  0
 27 31  1  0
 31 32  1  0
 32 33  2  0
 32 34  1  0
 34 35  1  6
 34 36  1  0
 36 37  1  0
 37 38  1  0
 38 39  1  1
 38 26  1  0
 36 31  1  0
 25 40  1  0
 25 41  1  0
 30 42  1  0
 34 43  1  0
 36 44  1  1
 38 45  1  0
 15 25  1  0
M  ISO  8  16   8  17   8  18  14  19  14  20  14  21  14  22  14  23  14
M  ISO  3  24   3  35  15  39  15
M  END
>  <DihAtoms>  (1) 
12,14,24,25

>  <DihDeg>  (1) 
60.76097828039772

$$$$
