
     RDKit          3D

 59 63  0  0  0  0  0  0  0  0999 V2000
   46.0762   31.7354   45.2811 C   0  0  0  0  0  0  0  0  0  0  0  0
   47.1014   32.4998   47.3943 C   0  0  0  0  0  0  0  0  0  0  0  0
   46.9690   31.4972   46.4064 C   0  0  0  0  0  0  0  0  0  0  0  0
   47.6788   30.3250   46.5820 C   0  0  0  0  0  0  0  0  0  0  0  0
   48.4555   30.1960   47.6811 N   0  0  0  0  0  0  0  0  0  0  0  0
   48.5583   31.1566   48.5955 C   0  0  0  0  0  0  0  0  0  0  0  0
   47.8869   32.3251   48.4735 N   0  0  0  0  0  0  0  0  0  0  0  0
   49.4376   30.9243   49.7926 C   0  0  0  0  0  0  0  0  0  0  0  0
   50.7073   31.6342   49.7276 C   0  0  0  0  0  0  0  0  0  0  0  0
   51.8955   31.1088   49.2352 C   0  0  0  0  0  0  0  0  0  0  0  0
   52.8706   32.0632   49.3355 C   0  0  0  0  0  0  0  0  0  0  0  0
   52.2424   33.1465   49.8890 N   0  0  0  0  0  0  0  0  0  0  0  0
   50.9548   32.8959   50.1241 N   0  0  0  0  0  0  0  0  0  0  0  0
   46.7324   32.7062   44.3559 C   0  0  0  0  0  0  0  0  0  0  0  0
   46.2857   34.6744   43.0126 C   0  0  0  0  0  0  0  0  0  0  0  0
   46.0361   33.9995   44.1812 C   0  0  0  0  0  0  0  0  0  0  0  0
   45.2059   34.3987   45.1554 C   0  0  0  0  0  0  0  0  0  0  0  0
   44.5370   35.5786   44.9951 C   0  0  0  0  0  0  0  0  0  0  0  0
   44.6987   36.3371   43.8767 C   0  0  0  0  0  0  0  0  0  0  0  0
   45.5713   35.8669   42.9063 C   0  0  0  0  0  0  0  0  0  0  0  0
   47.3977   34.3223   41.7734 S   0  0  0  0  0  0  0  0  0  0  0  0
   48.3497   35.4504   41.4893 O   0  0  0  0  0  0  0  0  0  0  0  0
   46.5791   34.2000   40.4623 O   0  0  0  0  0  0  0  0  0  0  0  0
   45.0285   32.0082   45.5825 H   0  0  0  0  0  0  0  0  0  0  0  0
   45.8923   30.7117   44.8411 H   0  0  0  0  0  0  0  0  0  0  0  0
   46.6520   33.4739   47.4520 H   0  0  0  0  0  0  0  0  0  0  0  0
   47.5798   29.5581   45.8260 H   0  0  0  0  0  0  0  0  0  0  0  0
   49.5846   29.8312   49.9465 H   0  0  0  0  0  0  0  0  0  0  0  0
   48.8529   31.3279   50.6632 H   0  0  0  0  0  0  0  0  0  0  0  0
   52.1224   30.1221   48.8185 H   0  0  0  0  0  0  0  0  0  0  0  0
   53.9187   32.0492   49.0647 H   0  0  0  0  0  0  0  0  0  0  0  0
   52.7172   34.0562   50.0999 H   0  0  0  0  0  0  0  0  0  0  0  0
   47.7526   32.9246   44.6410 H   0  0  0  0  0  0  0  0  0  0  0  0
   46.5727   32.2055   43.3781 H   0  0  0  0  0  0  0  0  0  0  0  0
   44.9368   33.9526   46.0704 H   0  0  0  0  0  0  0  0  0  0  0  0
   43.8406   36.0236   45.6977 H   0  0  0  0  0  0  0  0  0  0  0  0
   44.1907   37.2953   43.6820 H   0  0  0  0  0  0  0  0  0  0  0  0
   45.6908   36.4919   42.0037 H   0  0  0  0  0  0  0  0  0  0  0  0
   48.3380   32.8844   41.7314 C   0  0  0  0  0  0  0  0  0  0  0  0
   48.6484   32.5667   40.2828 C   0  0  0  0  0  0  0  0  0  0  0  0
   48.2755   31.4935   39.6412 C   0  0  0  0  0  0  0  0  0  0  0  0
   47.4737   30.4187   40.2770 C   0  0  0  0  0  0  0  0  0  0  0  0
   46.9344   30.0822   41.3602 O   0  0  0  0  0  0  0  0  0  0  0  0
   47.0334   29.2717   39.6797 O   0  0  0  0  0  0  0  0  0  0  0  0
   48.6583   31.3373   38.2874 N   0  0  0  0  0  0  0  0  0  0  0  0
   48.2832   31.0147   36.9298 C   0  0  0  0  0  0  0  0  0  0  0  0
   47.4351   30.1991   36.4333 O   0  0  0  0  0  0  0  0  0  0  0  0
   49.3130   32.0387   36.5317 C   0  0  1  0  0  0  0  0  0  0  0  0
   49.8566   31.7885   35.5981 H   0  0  0  0  0  0  0  0  0  0  0  0
   50.0053   31.5401   37.7926 C   0  0  1  0  0  0  0  0  0  0  0  0
   50.8212   32.9208   38.6272 S   0  0  0  0  0  0  0  0  0  0  0  0
   49.4791   33.6542   39.6618 C   0  0  2  0  0  0  0  0  0  0  0  0
   50.0385   34.2494   40.3925 H   0  0  0  0  0  0  0  0  0  0  0  0
   49.3398   32.8980   42.1684 H   0  0  0  0  0  0  0  0  0  0  0  0
   47.7275   32.0082   42.0210 H   0  0  0  0  0  0  0  0  0  0  0  0
   46.0839   29.0180   39.4985 H   0  0  0  0  0  0  0  0  0  0  0  0
   48.9817   33.0868   36.6422 H   0  0  0  0  0  0  0  0  0  0  0  0
   50.6192   30.6578   37.6165 H   0  0  0  0  0  0  0  0  0  0  0  0
   48.8793   34.2356   38.9365 H   0  0  0  0  0  0  0  0  0  0  0  0
  1  3  1  0
  2  7  2  0
  3  4  2  0
  3  2  1  0
  4  5  1  0
  5  6  2  0
  6  8  1  0
  7  6  1  0
  9  8  1  0
  9 13  2  0
 10 11  2  0
 10  9  1  0
 11 12  1  0
 12 13  1  0
 14  1  1  0
 15 16  1  0
 16 14  1  0
 16 17  2  0
 18 17  1  0
 19 18  2  0
 20 15  2  0
 20 19  1  0
 21 15  1  0
 22 21  2  0
 23 21  2  0
  1 24  1  0
  1 25  1  0
  2 26  1  0
  4 27  1  0
  8 28  1  0
  8 29  1  0
 10 30  1  0
 11 31  1  0
 12 32  1  0
 14 33  1  0
 14 34  1  0
 17 35  1  0
 18 36  1  0
 19 37  1  0
 20 38  1  0
 39 40  1  0
 40 41  2  0
 41 42  1  0
 42 43  2  0
 42 44  1  0
 41 45  1  0
 45 46  1  0
 46 47  2  0
 46 48  1  0
 48 49  1  6
 48 50  1  0
 50 51  1  0
 51 52  1  0
 52 53  1  1
 52 40  1  0
 50 45  1  0
 39 54  1  0
 39 55  1  0
 44 56  1  0
 48 57  1  0
 50 58  1  6
 52 59  1  0
 21 39  1  0
M  ISO  8  24   8  25   8  26  14  27  14  28   8  29   8  30  14  31  14
M  ISO  8  32   9  33   8  34   8  35  14  36  14  37  14  38  14  49  15
M  ISO  1  53  15
M  END
>  <DihAtoms>  (1) 
14,20,38,39

>  <DihDeg>  (1) 
-177.8178464512124

$$$$
