
 OpenBabel03242512163D

 40 43  0  0  1  0  0  0  0  0999 V2000
   48.4730   33.0480   41.5610 C   0  0  0  0  0  0  0  0  0  0  0  0
   48.0000   34.2990   41.9240 C   0  0  0  0  0  0  0  0  0  0  0  0
   48.8750   35.2330   42.4430 C   0  0  0  0  0  0  0  0  0  0  0  0
   50.2090   34.8780   42.5820 C   0  0  0  0  0  0  0  0  0  0  0  0
   50.6330   33.6230   42.2060 C   0  0  0  0  0  0  0  0  0  0  0  0
   49.7900   32.6640   41.6850 C   0  0  0  0  0  0  0  0  0  0  0  0
   48.4370   36.1660   42.6970 H   0  0  0  0  0  0  0  0  0  0  0  0
   50.8010   35.6760   42.9950 H   0  0  0  0  0  0  0  0  0  0  0  0
   51.6800   33.5400   42.3840 H   0  0  0  0  0  0  0  0  0  0  0  0
   46.5510   34.5160   41.7010 C   0  0  0  0  0  0  0  0  0  0  0  0
   46.0850   33.7420   41.1210 H   0  0  0  0  0  0  0  0  0  0  0  0
   46.4920   35.4540   41.0830 H   0  0  0  0  0  0  0  0  0  0  0  0
   45.8760   34.8210   43.0100 C   0  0  0  0  0  0  0  0  0  0  0  0
   45.9480   33.8420   43.9940 C   0  0  0  0  0  0  0  0  0  0  0  0
   45.3390   34.0980   45.2260 C   0  0  0  0  0  0  0  0  0  0  0  0
   44.7160   35.2890   45.3810 N   0  0  0  0  0  0  0  0  0  0  0  0
   44.6640   36.2340   44.3920 C   0  0  0  0  0  0  0  0  0  0  0  0
   45.2460   35.9970   43.2050 N   0  0  0  0  0  0  0  0  0  0  0  0
   46.4640   32.9100   43.7960 H   0  0  0  0  0  0  0  0  0  0  0  0
   45.3640   33.3810   46.0130 H   0  0  0  0  0  0  0  0  0  0  0  0
   44.1550   37.1510   44.5850 H   0  0  0  0  0  0  0  0  0  0  0  0
   47.6450   32.0340   41.0220 O   0  0  0  0  0  0  0  0  0  0  0  0
   47.1770   32.2890   40.1760 H   0  0  0  0  0  0  0  0  0  0  0  0
   50.2910   31.4510   41.3370 O   0  0  0  0  0  0  0  0  0  0  0  0
   51.5510   30.9160   41.2660 C   0  0  0  0  0  2  0  0  0  0  0  0
   51.6080   29.4790   40.8880 C   0  0  0  0  0  0  0  0  0  0  0  0
   52.1300   28.4970   41.6120 C   0  0  0  0  0  0  0  0  0  0  0  0
   52.1190   27.1870   41.1270 N   0  0  0  0  0  0  0  0  0  0  0  0
   52.0300   25.8010   41.3710 C   0  0  0  0  0  0  0  0  0  0  0  0
   52.0990   24.9950   42.3620 O   0  0  0  0  0  0  0  0  0  0  0  0
   51.7940   25.4510   39.9490 C   0  0  0  0  0  3  0  0  0  0  0  0
   50.6980   25.2740   39.8180 H   0  0  0  0  0  0  0  0  0  0  0  0
   52.2470   26.8770   39.7170 C   0  0  1  0  0  3  0  0  0  0  0  0
   50.9650   27.7760   38.8010 S   0  0  0  0  0  0  0  0  0  0  0  0
   50.9760   29.3980   39.5760 C   0  0  0  0  0  3  0  0  0  0  0  0
   49.9460   29.8310   39.6140 H   0  0  0  0  0  0  0  0  0  0  0  0
   52.7390   28.7340   42.9330 C   0  0  0  0  0  0  0  0  0  0  0  0
   53.0230   29.7110   43.6670 O   0  0  0  0  0  0  0  0  0  0  0  0
   53.1880   27.7340   43.7470 O   0  0  0  0  0  0  0  0  0  0  0  0
   52.9380   27.6100   44.7370 H   0  0  0  0  0  0  0  0  0  0  0  0
  1  6  2  0  0  0  0
  1  2  1  0  0  0  0
  2  3  2  0  0  0  0
  3  4  1  0  0  0  0
  3  7  1  0  0  0  0
  4  8  1  0  0  0  0
  5  9  1  0  0  0  0
  5  4  2  0  0  0  0
  6  5  1  0  0  0  0
 10  2  1  0  0  0  0
 10 13  1  0  0  0  0
 11 10  1  0  0  0  0
 12 10  1  0  0  0  0
 13 18  2  0  0  0  0
 13 14  1  0  0  0  0
 14 15  2  0  0  0  0
 15 16  1  0  0  0  0
 15 20  1  0  0  0  0
 17 21  1  0  0  0  0
 17 16  2  0  0  0  0
 18 17  1  0  0  0  0
 19 14  1  0  0  0  0
 22  1  1  0  0  0  0
 23 22  1  0  0  0  0
 24  6  1  0  0  0  0
 25 24  1  0  0  0  0
 26 25  1  0  0  0  0
 26 27  2  0  0  0  0
 27 37  1  0  0  0  0
 28 29  1  0  0  0  0
 28 27  1  0  0  0  0
 29 30  2  0  0  0  0
 31 29  1  0  0  0  0
 32 31  1  0  0  0  0
 33 34  1  6  0  0  0
 33 31  1  0  0  0  0
 33 28  1  0  0  0  0
 34 35  1  0  0  0  0
 35 36  1  0  0  0  0
 35 26  1  0  0  0  0
 37 38  2  0  0  0  0
 37 39  1  0  0  0  0
 39 40  1  0  0  0  0
M  END
>  <minimizedAffinity>
-4.39851713

>  <minimizedRMSD>
0.74042064

$$$$
