REMARK  Name = 
REMARK  10 active torsions:
REMARK  status: ('A' for Active; 'I' for Inactive)
REMARK    1  A    between atoms: C_1  and  C_3
REMARK    2  A    between atoms: C_1  and  C_14
REMARK    3  A    between atoms: C_6  and  C_8
REMARK    4  A    between atoms: C_8  and  C_9
REMARK    5  A    between atoms: C_14  and  C_16
REMARK    6  A    between atoms: C_15  and  S_21
REMARK    7  A    between atoms: S_21  and  C_39
REMARK    8  A    between atoms: C_39  and  C_40
REMARK    9  A    between atoms: C_41  and  C_42
REMARK   10  A    between atoms: C_42  and  O_44
REMARK                            x       y       z     vdW  Elec       q    Type
REMARK                         _______ _______ _______ _____ _____    ______ ____
ROOT
ATOM      1  C   UNL     1      46.286  34.674  43.013  0.00  0.00    +0.000 A 
ATOM      2  C   UNL     1      46.036  33.999  44.181  0.00  0.00    +0.000 A 
ATOM      3  C   UNL     1      45.206  34.399  45.155  0.00  0.00    +0.000 A 
ATOM      4  C   UNL     1      44.537  35.579  44.995  0.00  0.00    +0.000 A 
ATOM      5  C   UNL     1      44.699  36.337  43.877  0.00  0.00    +0.000 A 
ATOM      6  C   UNL     1      45.571  35.867  42.906  0.00  0.00    +0.000 A 
ATOM      7  H   UNL     1      44.937  33.953  46.070  0.00  0.00    +0.000 HD
ATOM      8  H   UNL     1      43.841  36.024  45.698  0.00  0.00    +0.000 HD
ATOM      9  H   UNL     1      44.191  37.295  43.682  0.00  0.00    +0.000 HD
ATOM     10  H   UNL     1      45.691  36.492  42.004  0.00  0.00    +0.000 HD
ENDROOT
BRANCH   2  11
ATOM     11  C   UNL     1      46.732  32.706  44.356  0.00  0.00    +0.000 C 
ATOM     12  H   UNL     1      47.753  32.925  44.641  0.00  0.00    +0.000 HD
ATOM     13  H   UNL     1      46.573  32.206  43.378  0.00  0.00    +0.000 HD
BRANCH  11  14
ATOM     14  C   UNL     1      46.076  31.735  45.281  0.00  0.00    +0.000 C 
ATOM     15  H   UNL     1      45.029  32.008  45.583  0.00  0.00    +0.000 HD
ATOM     16  H   UNL     1      45.892  30.712  44.841  0.00  0.00    +0.000 HD
BRANCH  14  18
ATOM     17  C   UNL     1      47.101  32.500  47.394  0.00  0.00    +0.000 A 
ATOM     18  C   UNL     1      46.969  31.497  46.406  0.00  0.00    +0.000 A 
ATOM     19  C   UNL     1      47.679  30.325  46.582  0.00  0.00    +0.000 A 
ATOM     20  N   UNL     1      48.456  30.196  47.681  0.00  0.00    +0.000 NA
ATOM     21  C   UNL     1      48.558  31.157  48.596  0.00  0.00    +0.000 A 
ATOM     22  N   UNL     1      47.887  32.325  48.474  0.00  0.00    +0.000 NA
ATOM     23  H   UNL     1      46.652  33.474  47.452  0.00  0.00    +0.000 HD
ATOM     24  H   UNL     1      47.580  29.558  45.826  0.00  0.00    +0.000 HD
BRANCH  21  25
ATOM     25  C   UNL     1      49.438  30.924  49.793  0.00  0.00    +0.000 C 
ATOM     26  H   UNL     1      49.585  29.831  49.947  0.00  0.00    +0.000 HD
ATOM     27  H   UNL     1      48.853  31.328  50.663  0.00  0.00    +0.000 HD
BRANCH  25  28
ATOM     28  C   UNL     1      50.707  31.634  49.728  0.00  0.00    +0.000 A 
ATOM     29  C   UNL     1      51.895  31.109  49.235  0.00  0.00    +0.000 A 
ATOM     30  C   UNL     1      52.871  32.063  49.336  0.00  0.00    +0.000 A 
ATOM     31  N   UNL     1      52.242  33.147  49.889  0.00  0.00    +0.000 N 
ATOM     32  N   UNL     1      50.955  32.896  50.124  0.00  0.00    +0.000 NA
ATOM     33  H   UNL     1      52.122  30.122  48.819  0.00  0.00    +0.000 HD
ATOM     34  H   UNL     1      53.919  32.049  49.065  0.00  0.00    +0.000 HD
ATOM     35  H   UNL     1      52.717  34.056  50.100  0.00  0.00    +0.000 HD
ENDBRANCH  25  28
ENDBRANCH  21  25
ENDBRANCH  14  18
ENDBRANCH  11  14
ENDBRANCH   2  11
BRANCH   1  36
ATOM     36  S   UNL     1      47.398  34.322  41.773  0.00  0.00    +0.000 S 
ATOM     37  O   UNL     1      48.350  35.450  41.489  0.00  0.00    +0.000 OA
ATOM     38  O   UNL     1      46.579  34.200  40.462  0.00  0.00    +0.000 OA
BRANCH  36  39
ATOM     39  C   UNL     1      48.338  32.884  41.731  0.00  0.00    +0.000 C 
BRANCH  39  40
ATOM     40  C   UNL     1      47.579  31.849  40.927  0.00  0.00    +0.000 C 
ATOM     41  C   UNL     1      47.145  30.703  41.376  0.00  0.00    +0.000 C 
ATOM     42  N   UNL     1      46.461  29.836  40.491  0.00  0.00    +0.000 N 
ATOM     43  C   UNL     1      45.323  28.982  40.236  0.00  0.00    +0.000 C 
ATOM     44  O   UNL     1      44.619  28.225  40.986  0.00  0.00    +0.000 OA
ATOM     45  C   UNL     1      45.450  29.446  38.809  0.00  0.00    +0.000 C 
ATOM     46  H   UNL     1      45.196  28.669  38.060  0.00  0.00    +0.000 HD
ATOM     47  C   UNL     1      46.930  29.489  39.165  0.00  0.00    +0.000 C 
ATOM     48  S   UNL     1      47.714  30.897  38.346  0.00  0.00    +0.000 S 
ATOM     49  C   UNL     1      47.401  32.300  39.505  0.00  0.00    +0.000 C 
ATOM     50  H   UNL     1      48.140  33.043  39.185  0.00  0.00    +0.000 HD
BRANCH  41  51
ATOM     51  C   UNL     1      47.349  30.264  42.779  0.00  0.00    +0.000 C 
ATOM     52  O   UNL     1      47.860  30.614  43.871  0.00  0.00    +0.000 OA
BRANCH  51  53
ATOM     53  O   UNL     1      46.921  29.091  43.334  0.00  0.00    +0.000 OA
ATOM     54  H   UNL     1      46.237  28.985  44.055  0.00  0.00    +0.000 HD
ENDBRANCH  51  53
ENDBRANCH  41  51
ENDBRANCH  39  40
ENDBRANCH  36  39
ENDBRANCH   1  36
TORSDOF 10
