
     RDKit          3D

 59 63  0  0  0  0  0  0  0  0999 V2000
   43.2012   33.2304   41.1602 C   0  0  0  0  0  0  0  0  0  0  0  0
   44.2323   34.0760   41.7825 C   0  0  0  0  0  0  0  0  0  0  0  0
   43.8793   35.2605   42.3977 C   0  0  0  0  0  0  0  0  0  0  0  0
   44.8875   36.0337   42.9564 C   0  0  0  0  0  0  0  0  0  0  0  0
   46.1753   35.5813   42.8711 N   0  0  0  0  0  0  0  0  0  0  0  0
   46.4741   34.4388   42.2756 C   0  0  0  0  0  0  0  0  0  0  0  0
   45.4921   33.6847   41.7282 N   0  0  0  0  0  0  0  0  0  0  0  0
   47.8723   34.0088   42.2598 C   0  0  0  0  0  0  0  0  0  0  0  0
   48.2164   32.6888   42.0081 C   0  0  0  0  0  0  0  0  0  0  0  0
   49.5282   32.2900   42.0022 C   0  0  0  0  0  0  0  0  0  0  0  0
   50.4256   33.3066   42.2630 C   0  0  0  0  0  0  0  0  0  0  0  0
   50.1363   34.6424   42.5210 C   0  0  0  0  0  0  0  0  0  0  0  0
   48.8103   34.9335   42.5038 N   0  0  0  0  0  0  0  0  0  0  0  0
   41.8984   33.9396   41.2179 C   0  0  0  0  0  0  0  0  0  0  0  0
   41.0008   33.4982   40.3449 N   0  0  0  0  0  0  0  0  0  0  0  0
   40.3268   32.2480   40.3291 C   0  0  0  0  0  0  0  0  0  0  0  0
   38.9464   32.7148   40.7979 C   0  0  0  0  0  0  0  0  0  0  0  0
   38.3312   33.6931   39.9131 C   0  0  0  0  0  0  0  0  0  0  0  0
   39.1648   34.5206   39.0723 C   0  0  0  0  0  0  0  0  0  0  0  0
   40.6602   34.4570   39.2713 C   0  0  0  0  0  0  0  0  0  0  0  0
   41.7826   35.4123   38.3188 S   0  0  0  0  0  0  0  0  0  0  0  0
   43.1818   32.2695   41.7481 H   0  0  0  0  0  0  0  0  0  0  0  0
   43.4853   32.9630   40.1148 H   0  0  0  0  0  0  0  0  0  0  0  0
   42.9645   35.7907   42.5918 H   0  0  0  0  0  0  0  0  0  0  0  0
   44.8252   36.9883   43.4821 H   0  0  0  0  0  0  0  0  0  0  0  0
   47.4550   31.9224   41.8093 H   0  0  0  0  0  0  0  0  0  0  0  0
   49.8985   31.2937   41.8176 H   0  0  0  0  0  0  0  0  0  0  0  0
   51.5045   33.0811   42.2772 H   0  0  0  0  0  0  0  0  0  0  0  0
   50.9186   35.3598   42.7189 H   0  0  0  0  0  0  0  0  0  0  0  0
   41.5485   33.8481   42.2821 H   0  0  0  0  0  0  0  0  0  0  0  0
   42.1464   35.0393   41.1436 H   0  0  0  0  0  0  0  0  0  0  0  0
   40.6922   31.6010   41.1676 H   0  0  0  0  0  0  0  0  0  0  0  0
   40.3107   31.6627   39.4235 H   0  0  0  0  0  0  0  0  0  0  0  0
   38.3095   31.7930   40.8623 H   0  0  0  0  0  0  0  0  0  0  0  0
   39.0739   33.0622   41.8356 H   0  0  0  0  0  0  0  0  0  0  0  0
   37.6520   34.3516   40.5335 H   0  0  0  0  0  0  0  0  0  0  0  0
   37.5938   33.1757   39.2291 H   0  0  0  0  0  0  0  0  0  0  0  0
   38.8567   35.1905   38.3127 H   0  0  0  0  0  0  0  0  0  0  0  0
   41.0843   36.5069   37.1301 C   0  0  0  0  0  0  0  0  0  0  0  0
   40.2465   37.5652   37.6217 C   0  0  0  0  0  0  0  0  0  0  0  0
   39.8343   38.0179   38.7910 C   0  0  0  0  0  0  0  0  0  0  0  0
   40.2890   37.3337   39.9992 C   0  0  0  0  0  0  0  0  0  0  0  0
   40.9616   36.4435   40.5790 O   0  0  0  0  0  0  0  0  0  0  0  0
   40.0658   37.4681   41.3416 O   0  0  0  0  0  0  0  0  0  0  0  0
   39.0220   39.1457   39.0904 N   0  0  0  0  0  0  0  0  0  0  0  0
   38.2181   39.9931   39.9016 C   0  0  0  0  0  0  0  0  0  0  0  0
   37.3923   39.5601   40.7543 O   0  0  0  0  0  0  0  0  0  0  0  0
   38.9061   41.1405   39.1820 C   0  0  1  0  0  0  0  0  0  0  0  0
   38.3120   42.0714   39.1163 H   0  0  0  0  0  0  0  0  0  0  0  0
   38.7606   40.1617   38.0814 C   0  0  1  0  0  0  0  0  0  0  0  0
   39.9643   40.0864   36.7646 S   0  0  0  0  0  0  0  0  0  0  0  0
   39.7672   38.2876   36.4030 C   0  0  2  0  0  0  0  0  0  0  0  0
   38.7139   38.0262   36.2011 H   0  0  0  0  0  0  0  0  0  0  0  0
   40.5523   35.9135   36.2985 H   0  0  0  0  0  0  0  0  0  0  0  0
   41.9395   36.9556   36.5288 H   0  0  0  0  0  0  0  0  0  0  0  0
   39.3304   37.0063   41.8913 H   0  0  0  0  0  0  0  0  0  0  0  0
   39.9244   41.1987   39.6004 H   0  0  0  0  0  0  0  0  0  0  0  0
   37.6928   40.0599   37.7128 H   0  0  0  0  0  0  0  0  0  0  0  0
   40.4308   38.1213   35.5441 H   0  0  0  0  0  0  0  0  0  0  0  0
  1 14  1  0
  1  2  1  0
  2  3  2  0
  3  4  1  0
  5  4  2  0
  6  5  1  0
  7  2  1  0
  7  6  2  0
  8  6  1  0
  8 13  1  0
  9  8  2  0
 10  9  1  0
 10 11  2  0
 11 12  1  0
 13 12  2  0
 15 14  1  0
 16 15  1  0
 16 17  1  0
 18 17  1  0
 19 20  2  0
 19 18  1  0
 20 15  1  0
 21 20  1  0
  1 22  1  0
  1 23  1  0
  3 24  1  0
  4 25  1  0
  9 26  1  0
 10 27  1  0
 11 28  1  0
 12 29  1  0
 14 30  1  0
 14 31  1  0
 16 32  1  0
 16 33  1  0
 17 34  1  0
 17 35  1  0
 18 36  1  0
 18 37  1  0
 19 38  1  0
 39 40  1  0
 40 41  2  0
 41 42  1  0
 42 43  2  0
 42 44  1  0
 41 45  1  0
 45 46  1  0
 46 47  2  0
 46 48  1  0
 48 49  1  6
 48 50  1  0
 50 51  1  0
 51 52  1  0
 52 53  1  6
 52 40  1  0
 50 45  1  0
 39 54  1  0
 39 55  1  0
 44 56  1  0
 48 57  1  0
 50 58  1  6
 52 59  1  0
 21 39  1  0
M  ISO  8  22   8  23   8  24  14  25  14  26  14  27  14  28  14  29  14
M  ISO  8  30   8  31   8  32  13  33  13  34  13  35  13  36  13  37  13
M  ISO  3  38  13  49  15  53  15
M  END
>  <DihAtoms>  (1) 
19,20,38,39

>  <DihDeg>  (1) 
122.63398987583672

$$$$
