
 OpenBabel03242512163D

 40 43  0  0  1  0  0  0  0  0999 V2000
   48.3750   32.9400   41.7680 C   0  0  0  0  0  0  0  0  0  0  0  0
   47.9880   34.2540   41.9780 C   0  0  0  0  0  0  0  0  0  0  0  0
   48.9300   35.1880   42.3640 C   0  0  0  0  0  0  0  0  0  0  0  0
   50.2420   34.7680   42.5300 C   0  0  0  0  0  0  0  0  0  0  0  0
   50.5800   33.4520   42.3090 C   0  0  0  0  0  0  0  0  0  0  0  0
   49.6690   32.4920   41.9230 C   0  0  0  0  0  0  0  0  0  0  0  0
   48.5560   36.1710   42.5040 H   0  0  0  0  0  0  0  0  0  0  0  0
   50.8910   35.5720   42.8320 H   0  0  0  0  0  0  0  0  0  0  0  0
   51.6230   33.3250   42.4830 H   0  0  0  0  0  0  0  0  0  0  0  0
   46.5520   34.5340   41.7460 C   0  0  0  0  0  0  0  0  0  0  0  0
   46.0610   33.7950   41.1420 H   0  0  0  0  0  0  0  0  0  0  0  0
   46.5350   35.4900   41.1540 H   0  0  0  0  0  0  0  0  0  0  0  0
   45.8760   34.8310   43.0570 C   0  0  0  0  0  0  0  0  0  0  0  0
   45.9760   33.8600   44.0470 C   0  0  0  0  0  0  0  0  0  0  0  0
   45.3680   34.1080   45.2810 C   0  0  0  0  0  0  0  0  0  0  0  0
   44.7160   35.2840   45.4310 N   0  0  0  0  0  0  0  0  0  0  0  0
   44.6350   36.2210   44.4360 C   0  0  0  0  0  0  0  0  0  0  0  0
   45.2170   35.9920   43.2480 N   0  0  0  0  0  0  0  0  0  0  0  0
   46.5150   32.9390   43.8530 H   0  0  0  0  0  0  0  0  0  0  0  0
   45.4140   33.3980   46.0720 H   0  0  0  0  0  0  0  0  0  0  0  0
   44.1050   37.1270   44.6260 H   0  0  0  0  0  0  0  0  0  0  0  0
   47.4760   31.9220   41.3710 O   0  0  0  0  0  0  0  0  0  0  0  0
   47.0070   32.0990   40.5060 H   0  0  0  0  0  0  0  0  0  0  0  0
   50.0870   31.2150   41.7230 O   0  0  0  0  0  0  0  0  0  0  0  0
   51.3130   30.6080   41.6300 C   0  0  0  0  0  2  0  0  0  0  0  0
   51.7030   29.7830   42.8040 C   0  0  0  0  0  0  0  0  0  0  0  0
   52.9000   29.2580   43.0310 C   0  0  0  0  0  0  0  0  0  0  0  0
   53.1230   28.4960   44.1790 N   0  0  0  0  0  0  0  0  0  0  0  0
   53.9890   28.0760   45.2100 C   0  0  0  0  0  0  0  0  0  0  0  0
   55.2390   28.0990   45.4820 O   0  0  0  0  0  0  0  0  0  0  0  0
   52.9040   27.5030   46.0420 C   0  0  0  0  0  3  0  0  0  0  0  0
   52.6630   28.2410   46.8460 H   0  0  0  0  0  0  0  0  0  0  0  0
   52.0990   27.6560   44.7690 C   0  0  1  0  0  3  0  0  0  0  0  0
   50.6310   28.6680   45.1010 S   0  0  0  0  0  0  0  0  0  0  0  0
   50.5020   29.6890   43.6270 C   0  0  0  0  0  3  0  0  0  0  0  0
   50.1220   30.7110   43.8770 H   0  0  0  0  0  0  0  0  0  0  0  0
   54.0280   29.4430   42.0990 C   0  0  0  0  0  0  0  0  0  0  0  0
   54.3850   29.0210   40.9730 O   0  0  0  0  0  0  0  0  0  0  0  0
   55.0870   30.2670   42.3530 O   0  0  0  0  0  0  0  0  0  0  0  0
   55.4440   30.9930   41.7190 H   0  0  0  0  0  0  0  0  0  0  0  0
  1  6  2  0  0  0  0
  1  2  1  0  0  0  0
  2  3  2  0  0  0  0
  3  7  1  0  0  0  0
  3  4  1  0  0  0  0
  4  8  1  0  0  0  0
  5  9  1  0  0  0  0
  5  4  2  0  0  0  0
  6  5  1  0  0  0  0
 10  2  1  0  0  0  0
 10 13  1  0  0  0  0
 11 10  1  0  0  0  0
 12 10  1  0  0  0  0
 13 18  2  0  0  0  0
 13 14  1  0  0  0  0
 14 15  2  0  0  0  0
 15 16  1  0  0  0  0
 15 20  1  0  0  0  0
 17 21  1  0  0  0  0
 17 16  2  0  0  0  0
 18 17  1  0  0  0  0
 19 14  1  0  0  0  0
 22  1  1  0  0  0  0
 23 22  1  0  0  0  0
 24  6  1  0  0  0  0
 25 24  1  0  0  0  0
 25 26  1  0  0  0  0
 26 27  2  0  0  0  0
 26 35  1  0  0  0  0
 27 28  1  0  0  0  0
 28 33  1  0  0  0  0
 28 29  1  0  0  0  0
 29 30  2  0  0  0  0
 29 31  1  0  0  0  0
 31 32  1  0  0  0  0
 33 34  1  1  0  0  0
 33 31  1  0  0  0  0
 35 36  1  0  0  0  0
 35 34  1  0  0  0  0
 37 39  1  0  0  0  0
 37 27  1  0  0  0  0
 38 37  2  0  0  0  0
 40 39  1  0  0  0  0
M  END
>  <minimizedAffinity>
-4.95081186

>  <minimizedRMSD>
1.10437441

$$$$
