
     RDKit          3D

 45 48  0  0  0  0  0  0  0  0999 V2000
   46.6566   34.7593   41.9734 C   0  0  0  0  0  0  0  0  0  0  0  0
   47.9214   35.3281   41.9039 C   0  0  0  0  0  0  0  0  0  0  0  0
   48.6415   35.1504   40.7334 C   0  0  0  0  0  0  0  0  0  0  0  0
   48.1150   34.4397   39.6937 C   0  0  0  0  0  0  0  0  0  0  0  0
   46.8644   33.8671   39.7392 C   0  0  0  0  0  0  0  0  0  0  0  0
   46.1391   34.0511   40.9299 C   0  0  0  0  0  0  0  0  0  0  0  0
   44.5137   36.1491   44.7502 C   0  0  0  0  0  0  0  0  0  0  0  0
   45.1612   36.0695   43.4908 C   0  0  0  0  0  0  0  0  0  0  0  0
   45.9336   34.9709   43.2290 C   0  0  0  0  0  0  0  0  0  0  0  0
   46.0281   34.0208   44.2049 N   0  0  0  0  0  0  0  0  0  0  0  0
   45.4101   34.1033   45.3989 C   0  0  0  0  0  0  0  0  0  0  0  0
   44.6460   35.1799   45.6706 N   0  0  0  0  0  0  0  0  0  0  0  0
   43.5412   33.9270   40.8102 C   0  0  0  0  0  0  0  0  0  0  0  0
   43.2212   34.9724   40.2673 O   0  0  0  0  0  0  0  0  0  0  0  0
   44.8476   33.5183   41.1300 N   0  0  0  0  0  0  0  0  0  0  0  0
   42.4944   33.0630   41.1397 O   0  0  0  0  0  0  0  0  0  0  0  0
   48.3564   35.8905   42.7069 H   0  0  0  0  0  0  0  0  0  0  0  0
   49.6322   35.5490   40.5732 H   0  0  0  0  0  0  0  0  0  0  0  0
   48.6521   34.2822   38.7645 H   0  0  0  0  0  0  0  0  0  0  0  0
   46.4096   33.2951   38.9352 H   0  0  0  0  0  0  0  0  0  0  0  0
   43.9319   37.0423   44.8663 H   0  0  0  0  0  0  0  0  0  0  0  0
   45.0659   36.8411   42.7371 H   0  0  0  0  0  0  0  0  0  0  0  0
   45.5748   33.2765   46.0754 H   0  0  0  0  0  0  0  0  0  0  0  0
   45.0448   32.6061   41.6468 H   0  0  0  0  0  0  0  0  0  0  0  0
   41.1740   33.4662   40.8213 C   0  0  0  0  0  0  0  0  0  0  0  0
   41.2335   33.9976   39.4376 C   0  0  0  0  0  0  0  0  0  0  0  0
   40.9050   35.2217   39.1537 C   0  0  0  0  0  0  0  0  0  0  0  0
   40.4594   36.1296   40.1996 C   0  0  0  0  0  0  0  0  0  0  0  0
   40.1219   37.3151   40.0350 O   0  0  0  0  0  0  0  0  0  0  0  0
   40.0954   36.6880   41.4064 O   0  0  0  0  0  0  0  0  0  0  0  0
   40.9664   35.7251   37.8293 N   0  0  0  0  0  0  0  0  0  0  0  0
   40.3919   36.5150   36.7980 C   0  0  0  0  0  0  0  0  0  0  0  0
   39.4017   37.3164   36.6931 O   0  0  0  0  0  0  0  0  0  0  0  0
   41.4010   36.0655   35.8090 C   0  0  1  0  0  0  0  0  0  0  0  0
   41.0114   35.3446   35.0560 H   0  0  0  0  0  0  0  0  0  0  0  0
   42.0911   35.3635   36.9496 C   0  0  2  0  0  0  0  0  0  0  0  0
   42.0456   33.5521   36.8447 S   0  0  0  0  0  0  0  0  0  0  0  0
   41.7008   32.9468   38.5040 C   0  0  1  0  0  0  0  0  0  0  0  0
   42.6817   32.5557   38.9013 H   0  0  0  0  0  0  0  0  0  0  0  0
   40.5533   32.5322   40.8084 H   0  0  0  0  0  0  0  0  0  0  0  0
   40.7845   34.2030   41.5478 H   0  0  0  0  0  0  0  0  0  0  0  0
   40.4911   36.4540   42.3107 H   0  0  0  0  0  0  0  0  0  0  0  0
   42.0436   36.8660   35.3897 H   0  0  0  0  0  0  0  0  0  0  0  0
   43.0584   35.8003   37.2302 H   0  0  0  0  0  0  0  0  0  0  0  0
   40.9245   32.1563   38.5180 H   0  0  0  0  0  0  0  0  0  0  0  0
  1  9  1  0
  2  1  2  0
  3  2  1  0
  4  5  1  0
  4  3  2  0
  5  6  2  0
  6 15  1  0
  6  1  1  0
  7 12  2  0
  8  7  1  0
  9  8  2  0
  9 10  1  0
 10 11  2  0
 11 12  1  0
 13 15  1  0
 13 16  1  0
 14 13  2  0
  2 17  1  0
  3 18  1  0
  4 19  1  0
  5 20  1  0
  7 21  1  0
  8 22  1  0
 11 23  1  0
 15 24  1  0
 25 26  1  0
 26 27  2  0
 27 28  1  0
 28 29  2  0
 28 30  1  0
 27 31  1  0
 31 32  1  0
 32 33  2  0
 32 34  1  0
 34 35  1  6
 34 36  1  0
 36 37  1  0
 37 38  1  0
 38 39  1  1
 38 26  1  0
 36 31  1  0
 25 40  1  0
 25 41  1  0
 30 42  1  0
 34 43  1  0
 36 44  1  1
 38 45  1  0
 16 25  1  0
M  ISO  8  17  14  18  14  19  14  20  14  21  14  22  14  23  14  35  15
M  ISO  1  39  15
M  END
>  <DihAtoms>  (1) 
12,15,24,25

>  <DihDeg>  (1) 
-179.9981853037701

$$$$
