
 OpenBabel03242518283D

 28 30  0  0  1  0  0  0  0  0999 V2000
   47.9660   32.8810   39.1240 C   0  0  0  0  0  0  0  0  0  0  0  0
   47.0890   32.3510   38.2970 C   0  0  0  0  0  0  0  0  0  0  0  0
   47.2670   30.9950   37.9070 N   0  0  0  0  0  0  0  0  0  0  0  0
   46.5960   29.7710   37.6320 C   0  0  0  0  0  0  0  0  0  0  0  0
   45.4270   29.2820   37.5250 O   0  0  0  0  0  0  0  0  0  0  0  0
   47.8970   29.1080   37.4770 C   0  0  0  0  0  3  0  0  0  0  0  0
   48.1490   28.2970   38.1780 H   0  0  0  0  0  0  0  0  0  0  0  0
   48.5950   30.4180   37.6290 C   0  0  2  0  0  3  0  0  0  0  0  0
   49.5030   30.6130   39.2000 S   0  0  0  0  0  0  0  0  0  0  0  0
   49.1610   32.2950   39.7720 C   0  0  0  0  0  3  0  0  0  0  0  0
   50.0860   32.9050   39.5320 H   0  0  0  0  0  0  0  0  0  0  0  0
   45.9450   33.0700   37.7540 C   0  0  0  0  0  0  0  0  0  0  0  0
   45.5370   33.4260   36.6230 O   0  0  0  0  0  0  0  0  0  0  0  0
   44.9350   33.5720   38.5210 O   0  0  0  0  0  0  0  0  0  0  0  0
   44.5350   34.5010   38.4820 H   0  0  0  0  0  0  0  0  0  0  0  0
   47.9070   34.2670   39.6050 C   0  0  0  0  0  2  0  0  0  0  0  0
   47.0000   34.3930   40.7170 O   0  0  0  0  0  0  0  0  0  0  0  0
   47.4370   35.0390   41.8820 C   0  0  0  0  0  0  0  0  0  0  0  0
   48.5170   35.6920   41.8180 O   0  0  0  0  0  0  0  0  0  0  0  0
   46.5930   34.8760   43.0160 C   0  0  0  0  0  0  0  0  0  0  0  0
   45.5640   35.8080   43.0790 C   0  0  0  0  0  0  0  0  0  0  0  0
   44.6730   35.7320   44.1660 C   0  0  0  0  0  0  0  0  0  0  0  0
   44.8720   34.7510   45.0900 N   0  0  0  0  0  0  0  0  0  0  0  0
   45.8910   33.8740   44.9730 C   0  0  0  0  0  0  0  0  0  0  0  0
   46.7500   33.9360   43.9390 N   0  0  0  0  0  0  0  0  0  0  0  0
   45.3830   36.5890   42.3700 H   0  0  0  0  0  0  0  0  0  0  0  0
   43.8510   36.4160   44.2870 H   0  0  0  0  0  0  0  0  0  0  0  0
   45.9790   33.1230   45.7520 H   0  0  0  0  0  0  0  0  0  0  0  0
  1 16  1  0  0  0  0
  1 10  1  0  0  0  0
  2  1  2  0  0  0  0
  3  2  1  0  0  0  0
  4  3  1  0  0  0  0
  5  4  2  0  0  0  0
  6  4  1  0  0  0  0
  6  7  1  0  0  0  0
  8  6  1  1  0  0  0
  8  3  1  0  0  0  0
  8  9  1  0  0  0  0
  9 10  1  0  0  0  0
 11 10  1  0  0  0  0
 12  2  1  0  0  0  0
 12 14  1  0  0  0  0
 13 12  2  0  0  0  0
 15 14  1  0  0  0  0
 16 17  1  0  0  0  0
 17 18  1  0  0  0  0
 18 20  1  0  0  0  0
 19 18  2  0  0  0  0
 20 21  2  0  0  0  0
 20 25  1  0  0  0  0
 21 22  1  0  0  0  0
 22 27  1  0  0  0  0
 22 23  2  0  0  0  0
 24 23  1  0  0  0  0
 24 28  1  0  0  0  0
 25 24  2  0  0  0  0
 26 21  1  0  0  0  0
M  END
>  <minimizedAffinity>
-4.32286692

>  <minimizedRMSD>
0.952750206

$$$$
