
     RDKit          3D

 33 35  0  0  0  0  0  0  0  0999 V2000
   46.2580   34.8763   43.1635 C   0  0  0  0  0  0  0  0  0  0  0  0
   45.3381   35.9102   43.2838 C   0  0  0  0  0  0  0  0  0  0  0  0
   44.5629   35.9670   44.4577 C   0  0  0  0  0  0  0  0  0  0  0  0
   44.7605   35.0066   45.4042 N   0  0  0  0  0  0  0  0  0  0  0  0
   45.6723   34.0259   45.2269 C   0  0  0  0  0  0  0  0  0  0  0  0
   46.4190   33.9606   44.1100 N   0  0  0  0  0  0  0  0  0  0  0  0
   46.9900   34.9080   41.9425 C   0  0  0  0  0  0  0  0  0  0  0  0
   48.1335   35.4101   41.7479 O   0  0  0  0  0  0  0  0  0  0  0  0
   46.3497   34.3094   40.8495 O   0  0  0  0  0  0  0  0  0  0  0  0
   45.1603   36.6773   42.5599 H   0  0  0  0  0  0  0  0  0  0  0  0
   43.8290   36.7356   44.6277 H   0  0  0  0  0  0  0  0  0  0  0  0
   45.7665   33.3014   46.0293 H   0  0  0  0  0  0  0  0  0  0  0  0
   47.0152   34.2938   39.5713 C   0  0  0  0  0  0  0  0  0  0  0  0
   47.2296   32.9209   39.1008 C   0  0  0  0  0  0  0  0  0  0  0  0
   46.7392   32.4430   37.9753 C   0  0  0  0  0  0  0  0  0  0  0  0
   45.9197   33.2168   37.0516 C   0  0  0  0  0  0  0  0  0  0  0  0
   45.4670   34.3844   36.9831 O   0  0  0  0  0  0  0  0  0  0  0  0
   45.4106   32.7134   35.8909 O   0  0  0  0  0  0  0  0  0  0  0  0
   47.0271   31.0921   37.6355 N   0  0  0  0  0  0  0  0  0  0  0  0
   46.4925   29.9009   37.0719 C   0  0  0  0  0  0  0  0  0  0  0  0
   45.4512   29.4560   36.4940 O   0  0  0  0  0  0  0  0  0  0  0  0
   47.7346   29.1965   37.4185 C   0  0  1  0  0  0  0  0  0  0  0  0
   47.6699   28.3585   38.1313 H   0  0  0  0  0  0  0  0  0  0  0  0
   48.3441   30.4760   37.8825 C   0  0  2  0  0  0  0  0  0  0  0  0
   48.5600   30.5989   39.6910 S   0  0  0  0  0  0  0  0  0  0  0  0
   48.0572   32.2755   40.1449 C   0  0  1  0  0  0  0  0  0  0  0  0
   49.0141   32.8584   40.3139 H   0  0  0  0  0  0  0  0  0  0  0  0
   48.0128   34.7881   39.7724 H   0  0  0  0  0  0  0  0  0  0  0  0
   46.4694   34.9470   38.9012 H   0  0  0  0  0  0  0  0  0  0  0  0
   44.4591   32.7857   35.5543 H   0  0  0  0  0  0  0  0  0  0  0  0
   48.3131   28.8275   36.5218 H   0  0  0  0  0  0  0  0  0  0  0  0
   49.1456   30.9235   37.2933 H   0  0  0  0  0  0  0  0  0  0  0  0
   47.5239   32.2729   41.1338 H   0  0  0  0  0  0  0  0  0  0  0  0
  1  2  2  0
  1  6  1  0
  2  3  1  0
  3  4  2  0
  5  4  1  0
  6  5  2  0
  7  1  1  0
  8  7  2  0
  9  7  1  0
  2 10  1  0
  3 11  1  0
  5 12  1  0
 13 14  1  0
 14 15  2  0
 15 16  1  0
 16 17  2  0
 16 18  1  0
 15 19  1  0
 19 20  1  0
 20 21  2  0
 20 22  1  0
 22 23  1  1
 22 24  1  0
 24 25  1  0
 25 26  1  0
 26 27  1  1
 26 14  1  0
 24 19  1  0
 13 28  1  0
 13 29  1  0
 18 30  1  0
 22 31  1  0
 24 32  1  6
 26 33  1  0
  9 13  1  0
M  ISO  5  10  14  11  14  12  14  23  15  27  15
M  END
>  <DihAtoms>  (1) 
6,8,12,13

>  <DihDeg>  (1) 
-179.9996024630318

$$$$
