REMARK  Name = 
REMARK  6 active torsions:
REMARK  status: ('A' for Active; 'I' for Inactive)
REMARK    1  A    between atoms: C_1  and  C_7
REMARK    2  A    between atoms: C_7  and  O_9
REMARK    3  A    between atoms: O_9  and  C_13
REMARK    4  A    between atoms: C_13  and  C_14
REMARK    5  A    between atoms: C_15  and  C_16
REMARK    6  A    between atoms: C_16  and  O_18
REMARK                            x       y       z     vdW  Elec       q    Type
REMARK                         _______ _______ _______ _____ _____    ______ ____
ROOT
ATOM      1  C   UNL     1      46.917  32.974  38.937  0.00  0.00    +0.000 C 
ATOM      2  C   UNL     1      46.349  32.760  37.768  0.00  0.00    +0.000 C 
ATOM      3  N   UNL     1      46.325  31.429  37.266  0.00  0.00    +0.000 N 
ATOM      4  C   UNL     1      45.541  30.468  36.569  0.00  0.00    +0.000 C 
ATOM      5  O   UNL     1      44.435  30.347  35.954  0.00  0.00    +0.000 OA
ATOM      6  C   UNL     1      46.582  29.462  36.815  0.00  0.00    +0.000 C 
ATOM      7  H   UNL     1      46.315  28.582  37.423  0.00  0.00    +0.000 HD
ATOM      8  C   UNL     1      47.461  30.502  37.422  0.00  0.00    +0.000 C 
ATOM      9  S   UNL     1      47.669  30.356  39.230  0.00  0.00    +0.000 S 
ATOM     10  C   UNL     1      47.557  32.036  39.887  0.00  0.00    +0.000 C 
ATOM     11  H   UNL     1      48.619  32.360  40.114  0.00  0.00    +0.000 HD
ENDROOT
BRANCH   2  12
ATOM     12  C   UNL     1      45.744  33.806  36.953  0.00  0.00    +0.000 C 
ATOM     13  O   UNL     1      45.573  35.045  37.030  0.00  0.00    +0.000 OA
BRANCH  12  14
ATOM     14  O   UNL     1      45.153  33.575  35.746  0.00  0.00    +0.000 OA
ATOM     15  H   UNL     1      44.249  33.903  35.431  0.00  0.00    +0.000 HD
ENDBRANCH  12  14
ENDBRANCH   2  12
BRANCH   1  16
ATOM     16  C   UNL     1      47.015  34.294  39.571  0.00  0.00    +0.000 C 
BRANCH  16  17
ATOM     17  O   UNL     1      46.350  34.309  40.849  0.00  0.00    +0.000 OA
BRANCH  17  18
ATOM     18  C   UNL     1      46.990  34.908  41.943  0.00  0.00    +0.000 C 
ATOM     19  O   UNL     1      48.133  35.410  41.748  0.00  0.00    +0.000 OA
BRANCH  18  20
ATOM     20  C   UNL     1      46.258  34.876  43.163  0.00  0.00    +0.000 A 
ATOM     21  C   UNL     1      45.338  35.910  43.284  0.00  0.00    +0.000 A 
ATOM     22  C   UNL     1      44.563  35.967  44.458  0.00  0.00    +0.000 A 
ATOM     23  N   UNL     1      44.761  35.007  45.404  0.00  0.00    +0.000 NA
ATOM     24  C   UNL     1      45.672  34.026  45.227  0.00  0.00    +0.000 A 
ATOM     25  N   UNL     1      46.419  33.961  44.110  0.00  0.00    +0.000 NA
ATOM     26  H   UNL     1      45.160  36.677  42.560  0.00  0.00    +0.000 HD
ATOM     27  H   UNL     1      43.829  36.736  44.628  0.00  0.00    +0.000 HD
ATOM     28  H   UNL     1      45.767  33.301  46.029  0.00  0.00    +0.000 HD
ENDBRANCH  18  20
ENDBRANCH  17  18
ENDBRANCH  16  17
ENDBRANCH   1  16
TORSDOF 6
