
     RDKit          3D

 33 35  0  0  0  0  0  0  0  0999 V2000
   46.2580   34.8763   43.1635 C   0  0  0  0  0  0  0  0  0  0  0  0
   45.3381   35.9102   43.2838 C   0  0  0  0  0  0  0  0  0  0  0  0
   44.5629   35.9670   44.4577 C   0  0  0  0  0  0  0  0  0  0  0  0
   44.7605   35.0066   45.4042 N   0  0  0  0  0  0  0  0  0  0  0  0
   45.6723   34.0259   45.2269 C   0  0  0  0  0  0  0  0  0  0  0  0
   46.4190   33.9606   44.1100 N   0  0  0  0  0  0  0  0  0  0  0  0
   46.9900   34.9080   41.9425 C   0  0  0  0  0  0  0  0  0  0  0  0
   48.1335   35.4101   41.7479 O   0  0  0  0  0  0  0  0  0  0  0  0
   46.3497   34.3094   40.8495 O   0  0  0  0  0  0  0  0  0  0  0  0
   45.1603   36.6773   42.5599 H   0  0  0  0  0  0  0  0  0  0  0  0
   43.8290   36.7356   44.6277 H   0  0  0  0  0  0  0  0  0  0  0  0
   45.7665   33.3014   46.0293 H   0  0  0  0  0  0  0  0  0  0  0  0
   47.0152   34.2938   39.5713 C   0  0  0  0  0  0  0  0  0  0  0  0
   48.2952   33.5810   39.6476 C   0  0  0  0  0  0  0  0  0  0  0  0
   48.5858   32.5111   38.9360 C   0  0  0  0  0  0  0  0  0  0  0  0
   47.6729   31.8968   37.9806 C   0  0  0  0  0  0  0  0  0  0  0  0
   46.5120   32.1064   37.5550 O   0  0  0  0  0  0  0  0  0  0  0  0
   47.9788   30.7855   37.2516 O   0  0  0  0  0  0  0  0  0  0  0  0
   49.8680   31.9184   39.1045 N   0  0  0  0  0  0  0  0  0  0  0  0
   50.5717   30.6854   39.1862 C   0  0  0  0  0  0  0  0  0  0  0  0
   50.3958   29.4318   39.0688 O   0  0  0  0  0  0  0  0  0  0  0  0
   51.8002   31.4243   39.5081 C   0  0  1  0  0  0  0  0  0  0  0  0
   52.2675   31.2443   40.4898 H   0  0  0  0  0  0  0  0  0  0  0  0
   51.0933   32.7186   39.2865 C   0  0  2  0  0  0  0  0  0  0  0  0
   50.7762   33.6773   40.8073 S   0  0  0  0  0  0  0  0  0  0  0  0
   49.0905   34.3144   40.6580 C   0  0  1  0  0  0  0  0  0  0  0  0
   49.1888   35.4069   40.3738 H   0  0  0  0  0  0  0  0  0  0  0  0
   47.2002   35.3861   39.3421 H   0  0  0  0  0  0  0  0  0  0  0  0
   46.3117   33.9314   38.8315 H   0  0  0  0  0  0  0  0  0  0  0  0
   47.4117   29.9570   37.1261 H   0  0  0  0  0  0  0  0  0  0  0  0
   52.6107   31.3198   38.7290 H   0  0  0  0  0  0  0  0  0  0  0  0
   51.3499   33.3176   38.4117 H   0  0  0  0  0  0  0  0  0  0  0  0
   48.5758   34.3051   41.6567 H   0  0  0  0  0  0  0  0  0  0  0  0
  1  2  2  0
  1  6  1  0
  2  3  1  0
  3  4  2  0
  5  4  1  0
  6  5  2  0
  7  1  1  0
  8  7  2  0
  9  7  1  0
  2 10  1  0
  3 11  1  0
  5 12  1  0
 13 14  1  0
 14 15  2  0
 15 16  1  0
 16 17  2  0
 16 18  1  0
 15 19  1  0
 19 20  1  0
 20 21  2  0
 20 22  1  0
 22 23  1  1
 22 24  1  0
 24 25  1  0
 25 26  1  0
 26 27  1  6
 26 14  1  0
 24 19  1  0
 13 28  1  0
 13 29  1  0
 18 30  1  0
 22 31  1  0
 24 32  1  6
 26 33  1  0
  9 13  1  0
M  ISO  5  10  14  11  14  12  14  23  15  27  15
M  END
>  <DihAtoms>  (1) 
6,8,12,13

>  <DihDeg>  (1) 
-179.9996024630318

$$$$
