
 OpenBabel03242518293D

 28 30  0  0  1  0  0  0  0  0999 V2000
   38.4630   32.4550   39.4400 C   0  0  0  0  0  0  0  0  0  0  0  0
   38.9790   32.1630   38.2630 C   0  0  0  0  0  0  0  0  0  0  0  0
   40.3850   32.2990   38.0930 N   0  0  0  0  0  0  0  0  0  0  0  0
   41.5400   31.7210   37.4960 C   0  0  0  0  0  0  0  0  0  0  0  0
   41.8900   30.7810   36.7160 O   0  0  0  0  0  0  0  0  0  0  0  0
   42.3730   32.7230   38.1770 C   0  0  0  0  0  3  0  0  0  0  0  0
   43.1170   32.3640   38.9060 H   0  0  0  0  0  0  0  0  0  0  0  0
   41.1520   33.4090   38.6880 C   0  0  2  0  0  3  0  0  0  0  0  0
   40.8770   33.2260   40.4830 S   0  0  0  0  0  0  0  0  0  0  0  0
   39.1090   32.9090   40.6920 C   0  0  0  0  0  3  0  0  0  0  0  0
   38.6530   33.8830   41.0470 H   0  0  0  0  0  0  0  0  0  0  0  0
   38.1960   31.7100   37.1220 C   0  0  0  0  0  0  0  0  0  0  0  0
   37.4380   30.7480   36.8510 O   0  0  0  0  0  0  0  0  0  0  0  0
   38.1420   32.3760   35.9320 O   0  0  0  0  0  0  0  0  0  0  0  0
   38.2540   31.9870   35.0040 H   0  0  0  0  0  0  0  0  0  0  0  0
   37.0330   32.3630   39.7530 C   0  0  0  0  0  2  0  0  0  0  0  0
   36.8130   31.6240   40.9700 O   0  0  0  0  0  0  0  0  0  0  0  0
   36.3620   30.2990   40.8910 C   0  0  0  0  0  0  0  0  0  0  0  0
   35.4190   30.0500   40.0870 O   0  0  0  0  0  0  0  0  0  0  0  0
   37.0360   29.3790   41.7430 C   0  0  0  0  0  0  0  0  0  0  0  0
   36.4110   28.1410   41.8250 C   0  0  0  0  0  0  0  0  0  0  0  0
   37.0010   27.1600   42.6440 C   0  0  0  0  0  0  0  0  0  0  0  0
   38.1460   27.4820   43.3070 N   0  0  0  0  0  0  0  0  0  0  0  0
   38.7060   28.7050   43.1860 C   0  0  0  0  0  0  0  0  0  0  0  0
   38.1520   29.6520   42.4060 N   0  0  0  0  0  0  0  0  0  0  0  0
   35.5130   27.8580   41.3170 H   0  0  0  0  0  0  0  0  0  0  0  0
   36.5790   26.1760   42.7610 H   0  0  0  0  0  0  0  0  0  0  0  0
   39.6180   28.8800   43.7480 H   0  0  0  0  0  0  0  0  0  0  0  0
  1 16  1  0  0  0  0
  1 10  1  0  0  0  0
  2  1  2  0  0  0  0
  3  2  1  0  0  0  0
  3  8  1  0  0  0  0
  4  3  1  0  0  0  0
  4  6  1  0  0  0  0
  5  4  2  0  0  0  0
  6  7  1  0  0  0  0
  8  6  1  1  0  0  0
  8  9  1  0  0  0  0
  9 10  1  0  0  0  0
 10 11  1  0  0  0  0
 12  2  1  0  0  0  0
 13 12  2  0  0  0  0
 14 12  1  0  0  0  0
 15 14  1  0  0  0  0
 16 17  1  0  0  0  0
 18 17  1  0  0  0  0
 18 20  1  0  0  0  0
 19 18  2  0  0  0  0
 20 21  2  0  0  0  0
 20 25  1  0  0  0  0
 21 22  1  0  0  0  0
 22 27  1  0  0  0  0
 22 23  2  0  0  0  0
 24 23  1  0  0  0  0
 24 28  1  0  0  0  0
 25 24  2  0  0  0  0
 26 21  1  0  0  0  0
M  END
>  <minimizedAffinity>
-5.3655405

$$$$

 OpenBabel03242518293D

 28 30  0  0  1  0  0  0  0  0999 V2000
   38.6830   29.9940   42.1570 C   0  0  0  0  0  0  0  0  0  0  0  0
   37.9430   30.3900   41.1410 C   0  0  0  0  0  0  0  0  0  0  0  0
   38.5780   31.0970   40.0820 N   0  0  0  0  0  0  0  0  0  0  0  0
   38.6250   31.2710   38.6720 C   0  0  0  0  0  0  0  0  0  0  0  0
   38.0360   30.9070   37.6050 O   0  0  0  0  0  0  0  0  0  0  0  0
   39.7770   32.1690   38.8370 C   0  0  0  0  0  3  0  0  0  0  0  0
   40.7350   31.8660   38.3830 H   0  0  0  0  0  0  0  0  0  0  0  0
   39.6380   32.0940   40.3190 C   0  0  2  0  0  3  0  0  0  0  0  0
   40.9570   31.1500   41.1560 S   0  0  0  0  0  0  0  0  0  0  0  0
   40.1340   30.1400   42.4100 C   0  0  0  0  0  3  0  0  0  0  0  0
   40.3170   30.6560   43.4020 H   0  0  0  0  0  0  0  0  0  0  0  0
   36.5100   30.1510   41.0370 C   0  0  0  0  0  0  0  0  0  0  0  0
   35.7590   29.2300   40.6350 O   0  0  0  0  0  0  0  0  0  0  0  0
   35.5640   31.0520   41.4300 O   0  0  0  0  0  0  0  0  0  0  0  0
   34.7510   31.3560   40.9100 H   0  0  0  0  0  0  0  0  0  0  0  0
   38.1600   29.2590   43.3140 C   0  0  0  0  0  2  0  0  0  0  0  0
   38.3410   27.8390   43.1550 O   0  0  0  0  0  0  0  0  0  0  0  0
   37.2240   27.0360   42.8850 C   0  0  0  0  0  0  0  0  0  0  0  0
   36.2020   27.1940   43.6110 O   0  0  0  0  0  0  0  0  0  0  0  0
   37.3820   26.1250   41.8030 C   0  0  0  0  0  0  0  0  0  0  0  0
   36.9600   24.8350   42.1000 C   0  0  0  0  0  0  0  0  0  0  0  0
   37.0770   23.8570   41.0930 C   0  0  0  0  0  0  0  0  0  0  0  0
   37.5950   24.2330   39.8910 N   0  0  0  0  0  0  0  0  0  0  0  0
   37.9870   25.5050   39.6640 C   0  0  0  0  0  0  0  0  0  0  0  0
   37.8820   26.4480   40.6170 N   0  0  0  0  0  0  0  0  0  0  0  0
   36.5500   24.5100   43.0320 H   0  0  0  0  0  0  0  0  0  0  0  0
   36.7720   22.8350   41.2440 H   0  0  0  0  0  0  0  0  0  0  0  0
   38.3890   25.7210   38.6790 H   0  0  0  0  0  0  0  0  0  0  0  0
  1 10  1  0  0  0  0
  1 16  1  0  0  0  0
  2  1  2  0  0  0  0
  3  8  1  0  0  0  0
  3  2  1  0  0  0  0
  4  6  1  0  0  0  0
  4  3  1  0  0  0  0
  5  4  2  0  0  0  0
  7  6  1  0  0  0  0
  8  6  1  6  0  0  0
  8  9  1  0  0  0  0
  9 10  1  0  0  0  0
 10 11  1  0  0  0  0
 12  2  1  0  0  0  0
 12 14  1  0  0  0  0
 13 12  2  0  0  0  0
 15 14  1  0  0  0  0
 17 16  1  0  0  0  0
 18 17  1  0  0  0  0
 18 19  2  0  0  0  0
 20 21  1  0  0  0  0
 20 18  1  0  0  0  0
 21 26  1  0  0  0  0
 22 27  1  0  0  0  0
 22 21  2  0  0  0  0
 23 22  1  0  0  0  0
 24 23  2  0  0  0  0
 24 25  1  0  0  0  0
 25 20  2  0  0  0  0
 28 24  1  0  0  0  0
M  END
>  <minimizedAffinity>
-5.31492901

$$$$

 OpenBabel03242518293D

 28 30  0  0  1  0  0  0  0  0999 V2000
   38.5270   30.0780   40.4780 C   0  0  0  0  0  0  0  0  0  0  0  0
   37.3010   30.0710   39.9930 C   0  0  0  0  0  0  0  0  0  0  0  0
   37.1330   30.2090   38.5870 N   0  0  0  0  0  0  0  0  0  0  0  0
   36.3840   29.7670   37.4620 C   0  0  0  0  0  0  0  0  0  0  0  0
   35.3880   29.0380   37.1560 O   0  0  0  0  0  0  0  0  0  0  0  0
   37.2670   30.5490   36.5860 C   0  0  0  0  0  3  0  0  0  0  0  0
   37.8670   30.0040   35.8390 H   0  0  0  0  0  0  0  0  0  0  0  0
   37.9620   31.1190   37.7750 C   0  0  2  0  0  3  0  0  0  0  0  0
   39.6640   30.5080   38.0220 S   0  0  0  0  0  0  0  0  0  0  0  0
   39.8350   30.1940   39.7950 C   0  0  0  0  0  3  0  0  0  0  0  0
   40.4290   31.0630   40.2130 H   0  0  0  0  0  0  0  0  0  0  0  0
   36.1040   29.9320   40.8120 C   0  0  0  0  0  0  0  0  0  0  0  0
   35.3010   29.0190   41.1170 O   0  0  0  0  0  0  0  0  0  0  0  0
   35.5490   30.9600   41.5150 O   0  0  0  0  0  0  0  0  0  0  0  0
   34.5740   31.2340   41.5380 H   0  0  0  0  0  0  0  0  0  0  0  0
   38.8450   29.9480   41.9040 C   0  0  0  0  0  2  0  0  0  0  0  0
   39.2160   28.5950   42.2330 O   0  0  0  0  0  0  0  0  0  0  0  0
   38.2670   27.7560   42.8330 C   0  0  0  0  0  0  0  0  0  0  0  0
   37.4810   28.2720   43.6770 O   0  0  0  0  0  0  0  0  0  0  0  0
   38.3070   26.3980   42.4080 C   0  0  0  0  0  0  0  0  0  0  0  0
   37.0500   25.8270   42.2570 C   0  0  0  0  0  0  0  0  0  0  0  0
   36.9820   24.4840   41.8400 C   0  0  0  0  0  0  0  0  0  0  0  0
   38.1520   23.8250   41.6100 N   0  0  0  0  0  0  0  0  0  0  0  0
   39.3450   24.4360   41.7750 C   0  0  0  0  0  0  0  0  0  0  0  0
   39.4230   25.7190   42.1730 N   0  0  0  0  0  0  0  0  0  0  0  0
   36.1150   26.3180   42.4300 H   0  0  0  0  0  0  0  0  0  0  0  0
   36.0470   23.9700   41.7000 H   0  0  0  0  0  0  0  0  0  0  0  0
   40.2280   23.8400   41.5700 H   0  0  0  0  0  0  0  0  0  0  0  0
  1 16  1  0  0  0  0
  2  1  2  0  0  0  0
  2 12  1  0  0  0  0
  3  2  1  0  0  0  0
  4  3  1  0  0  0  0
  5  4  2  0  0  0  0
  6  4  1  0  0  0  0
  7  6  1  0  0  0  0
  8  6  1  6  0  0  0
  8  9  1  0  0  0  0
  8  3  1  0  0  0  0
  9 10  1  0  0  0  0
 10 11  1  0  0  0  0
 10  1  1  0  0  0  0
 12 13  2  0  0  0  0
 12 14  1  0  0  0  0
 14 15  1  0  0  0  0
 16 17  1  0  0  0  0
 17 18  1  0  0  0  0
 18 19  2  0  0  0  0
 20 18  1  0  0  0  0
 21 20  1  0  0  0  0
 21 26  1  0  0  0  0
 22 21  2  0  0  0  0
 23 24  2  0  0  0  0
 23 22  1  0  0  0  0
 24 25  1  0  0  0  0
 25 20  2  0  0  0  0
 27 22  1  0  0  0  0
 28 24  1  0  0  0  0
M  END
>  <minimizedAffinity>
-5.12336731

$$$$

 OpenBabel03242518293D

 28 30  0  0  1  0  0  0  0  0999 V2000
   36.8650   27.7020   40.7530 C   0  0  0  0  0  0  0  0  0  0  0  0
   37.5480   27.5760   41.8740 C   0  0  0  0  0  0  0  0  0  0  0  0
   38.0570   26.2910   42.2100 N   0  0  0  0  0  0  0  0  0  0  0  0
   39.1650   25.5940   42.7650 C   0  0  0  0  0  0  0  0  0  0  0  0
   40.2840   25.7990   43.3330 O   0  0  0  0  0  0  0  0  0  0  0  0
   38.5150   24.3200   42.4250 C   0  0  0  0  0  3  0  0  0  0  0  0
   39.0260   23.6560   41.7100 H   0  0  0  0  0  0  0  0  0  0  0  0
   37.2970   25.0500   41.9710 C   0  0  2  0  0  3  0  0  0  0  0  0
   37.0340   25.0310   40.1650 S   0  0  0  0  0  0  0  0  0  0  0  0
   36.5230   26.7060   39.7130 C   0  0  0  0  0  3  0  0  0  0  0  0
   35.4030   26.6630   39.5540 H   0  0  0  0  0  0  0  0  0  0  0  0
   37.8110   28.6750   42.7930 C   0  0  0  0  0  0  0  0  0  0  0  0
   38.7710   29.4340   43.0660 O   0  0  0  0  0  0  0  0  0  0  0  0
   36.8910   29.1540   43.6780 O   0  0  0  0  0  0  0  0  0  0  0  0
   37.0250   29.3410   44.6640 H   0  0  0  0  0  0  0  0  0  0  0  0
   36.2830   28.9650   40.2870 C   0  0  0  0  0  2  0  0  0  0  0  0
   36.7870   29.3220   38.9850 O   0  0  0  0  0  0  0  0  0  0  0  0
   38.0290   29.9660   38.8900 C   0  0  0  0  0  0  0  0  0  0  0  0
   38.9920   29.3090   38.4020 O   0  0  0  0  0  0  0  0  0  0  0  0
   38.0520   31.3080   39.3630 C   0  0  0  0  0  0  0  0  0  0  0  0
   39.0560   31.5510   40.2920 C   0  0  0  0  0  0  0  0  0  0  0  0
   39.1620   32.8510   40.8220 C   0  0  0  0  0  0  0  0  0  0  0  0
   38.2750   33.7920   40.3930 N   0  0  0  0  0  0  0  0  0  0  0  0
   37.3200   33.4930   39.4870 C   0  0  0  0  0  0  0  0  0  0  0  0
   37.2080   32.2550   38.9730 N   0  0  0  0  0  0  0  0  0  0  0  0
   39.7660   30.8340   40.6470 H   0  0  0  0  0  0  0  0  0  0  0  0
   39.9120   33.1200   41.5450 H   0  0  0  0  0  0  0  0  0  0  0  0
   36.6540   34.3010   39.1990 H   0  0  0  0  0  0  0  0  0  0  0  0
  1  2  2  0  0  0  0
  2  3  1  0  0  0  0
  2 12  1  0  0  0  0
  3  4  1  0  0  0  0
  4  5  2  0  0  0  0
  6  4  1  0  0  0  0
  7  6  1  0  0  0  0
  8  9  1  6  0  0  0
  8  3  1  0  0  0  0
  8  6  1  0  0  0  0
 10  9  1  0  0  0  0
 10  1  1  0  0  0  0
 11 10  1  0  0  0  0
 12 13  2  0  0  0  0
 12 14  1  0  0  0  0
 14 15  1  0  0  0  0
 16  1  1  0  0  0  0
 17 16  1  0  0  0  0
 18 17  1  0  0  0  0
 18 20  1  0  0  0  0
 19 18  2  0  0  0  0
 20 21  1  0  0  0  0
 21 26  1  0  0  0  0
 21 22  2  0  0  0  0
 22 27  1  0  0  0  0
 23 22  1  0  0  0  0
 24 23  2  0  0  0  0
 25 20  2  0  0  0  0
 25 24  1  0  0  0  0
 28 24  1  0  0  0  0
M  END
>  <minimizedAffinity>
-5.03604269

$$$$

 OpenBabel03242518293D

 28 30  0  0  1  0  0  0  0  0999 V2000
   39.1470   29.9920   40.5760 C   0  0  0  0  0  0  0  0  0  0  0  0
   38.1690   30.8680   40.6960 C   0  0  0  0  0  0  0  0  0  0  0  0
   38.4690   32.2420   40.4850 N   0  0  0  0  0  0  0  0  0  0  0  0
   37.9890   33.4590   39.9250 C   0  0  0  0  0  0  0  0  0  0  0  0
   36.9620   33.9580   39.3670 O   0  0  0  0  0  0  0  0  0  0  0  0
   39.2760   34.0940   40.2410 C   0  0  0  0  0  3  0  0  0  0  0  0
   39.8860   34.4680   39.4020 H   0  0  0  0  0  0  0  0  0  0  0  0
   39.7240   32.8610   40.9490 C   0  0  2  0  0  3  0  0  0  0  0  0
   41.0280   31.9230   40.0830 S   0  0  0  0  0  0  0  0  0  0  0  0
   40.5730   30.1780   40.2270 C   0  0  0  0  0  3  0  0  0  0  0  0
   41.2420   29.7430   41.0310 H   0  0  0  0  0  0  0  0  0  0  0  0
   36.7980   30.5140   41.0360 C   0  0  0  0  0  0  0  0  0  0  0  0
   35.6910   30.4590   40.4500 O   0  0  0  0  0  0  0  0  0  0  0  0
   36.4110   30.1060   42.2790 O   0  0  0  0  0  0  0  0  0  0  0  0
   35.6210   30.4400   42.8180 H   0  0  0  0  0  0  0  0  0  0  0  0
   38.9810   28.5470   40.7680 C   0  0  0  0  0  2  0  0  0  0  0  0
   38.7530   28.2290   42.1550 O   0  0  0  0  0  0  0  0  0  0  0  0
   39.2980   27.0500   42.6820 C   0  0  0  0  0  0  0  0  0  0  0  0
   40.1840   27.1640   43.5750 O   0  0  0  0  0  0  0  0  0  0  0  0
   38.7740   25.8450   42.1350 C   0  0  0  0  0  0  0  0  0  0  0  0
   37.4130   25.6800   42.3610 C   0  0  0  0  0  0  0  0  0  0  0  0
   36.7990   24.5170   41.8590 C   0  0  0  0  0  0  0  0  0  0  0  0
   37.5740   23.6240   41.1830 N   0  0  0  0  0  0  0  0  0  0  0  0
   38.8940   23.8420   40.9950 C   0  0  0  0  0  0  0  0  0  0  0  0
   39.4920   24.9490   41.4700 N   0  0  0  0  0  0  0  0  0  0  0  0
   36.7790   26.3620   42.8870 H   0  0  0  0  0  0  0  0  0  0  0  0
   35.7500   24.3150   41.9920 H   0  0  0  0  0  0  0  0  0  0  0  0
   39.4380   23.0810   40.4460 H   0  0  0  0  0  0  0  0  0  0  0  0
  1  2  2  0  0  0  0
  1 16  1  0  0  0  0
  2 12  1  0  0  0  0
  3  2  1  0  0  0  0
  3  8  1  0  0  0  0
  4  6  1  0  0  0  0
  4  3  1  0  0  0  0
  5  4  2  0  0  0  0
  6  8  1  0  0  0  0
  7  6  1  0  0  0  0
  8  9  1  6  0  0  0
  9 10  1  0  0  0  0
 10  1  1  0  0  0  0
 10 11  1  0  0  0  0
 12 14  1  0  0  0  0
 13 12  2  0  0  0  0
 14 15  1  0  0  0  0
 16 17  1  0  0  0  0
 17 18  1  0  0  0  0
 18 19  2  0  0  0  0
 20 21  1  0  0  0  0
 20 18  1  0  0  0  0
 21 26  1  0  0  0  0
 22 27  1  0  0  0  0
 22 21  2  0  0  0  0
 23 22  1  0  0  0  0
 24 23  2  0  0  0  0
 24 25  1  0  0  0  0
 25 20  2  0  0  0  0
 28 24  1  0  0  0  0
M  END
>  <minimizedAffinity>
-4.94760609

$$$$

 OpenBabel03242518293D

 28 30  0  0  1  0  0  0  0  0999 V2000
   37.2350   28.1290   39.0400 C   0  0  0  0  0  0  0  0  0  0  0  0
   36.4870   28.1770   40.1240 C   0  0  0  0  0  0  0  0  0  0  0  0
   36.7520   27.2450   41.1650 N   0  0  0  0  0  0  0  0  0  0  0  0
   36.8240   27.0740   42.5750 C   0  0  0  0  0  0  0  0  0  0  0  0
   36.6030   27.6930   43.6630 O   0  0  0  0  0  0  0  0  0  0  0  0
   37.3260   25.7080   42.3690 C   0  0  0  0  0  3  0  0  0  0  0  0
   38.3370   25.4700   42.7370 H   0  0  0  0  0  0  0  0  0  0  0  0
   37.1190   25.8410   40.8990 C   0  0  2  0  0  3  0  0  0  0  0  0
   38.6580   25.9610   39.9260 S   0  0  0  0  0  0  0  0  0  0  0  0
   38.3720   27.2500   38.6890 C   0  0  0  0  0  3  0  0  0  0  0  0
   38.1760   26.7120   37.7120 H   0  0  0  0  0  0  0  0  0  0  0  0
   35.4000   29.1260   40.3200 C   0  0  0  0  0  0  0  0  0  0  0  0
   34.2270   29.2790   39.9040 O   0  0  0  0  0  0  0  0  0  0  0  0
   35.4860   30.2120   41.1420 O   0  0  0  0  0  0  0  0  0  0  0  0
   35.2260   31.1670   40.9280 H   0  0  0  0  0  0  0  0  0  0  0  0
   37.0700   29.0260   37.8900 C   0  0  0  0  0  2  0  0  0  0  0  0
   38.2540   29.8170   37.6730 O   0  0  0  0  0  0  0  0  0  0  0  0
   38.1310   31.2090   37.5540 C   0  0  0  0  0  0  0  0  0  0  0  0
   37.4580   31.6540   36.5820 O   0  0  0  0  0  0  0  0  0  0  0  0
   38.7940   31.9620   38.5620 C   0  0  0  0  0  0  0  0  0  0  0  0
   37.9890   32.2490   39.6580 C   0  0  0  0  0  0  0  0  0  0  0  0
   38.5540   32.9930   40.7120 C   0  0  0  0  0  0  0  0  0  0  0  0
   39.8520   33.3870   40.5950 N   0  0  0  0  0  0  0  0  0  0  0  0
   40.5830   33.0770   39.5030 C   0  0  0  0  0  0  0  0  0  0  0  0
   40.0550   32.3670   38.4890 N   0  0  0  0  0  0  0  0  0  0  0  0
   36.9690   31.9530   39.7790 H   0  0  0  0  0  0  0  0  0  0  0  0
   37.9970   33.2550   41.5950 H   0  0  0  0  0  0  0  0  0  0  0  0
   41.6090   33.4290   39.4890 H   0  0  0  0  0  0  0  0  0  0  0  0
  1  2  2  0  0  0  0
  2 12  1  0  0  0  0
  2  3  1  0  0  0  0
  3  4  1  0  0  0  0
  4  5  2  0  0  0  0
  6  4  1  0  0  0  0
  6  7  1  0  0  0  0
  8  9  1  6  0  0  0
  8  3  1  0  0  0  0
  8  6  1  0  0  0  0
 10  1  1  0  0  0  0
 10  9  1  0  0  0  0
 11 10  1  0  0  0  0
 12 14  1  0  0  0  0
 13 12  2  0  0  0  0
 15 14  1  0  0  0  0
 16  1  1  0  0  0  0
 17 16  1  0  0  0  0
 18 17  1  0  0  0  0
 18 20  1  0  0  0  0
 19 18  2  0  0  0  0
 20 21  1  0  0  0  0
 21 26  1  0  0  0  0
 21 22  2  0  0  0  0
 22 27  1  0  0  0  0
 23 22  1  0  0  0  0
 24 23  2  0  0  0  0
 25 20  2  0  0  0  0
 25 24  1  0  0  0  0
 28 24  1  0  0  0  0
M  END
>  <minimizedAffinity>
-4.92934895

$$$$

 OpenBabel03242518293D

 28 30  0  0  1  0  0  0  0  0999 V2000
   36.3250   27.9140   39.9160 C   0  0  0  0  0  0  0  0  0  0  0  0
   36.6300   28.8900   40.7480 C   0  0  0  0  0  0  0  0  0  0  0  0
   37.3270   28.5610   41.9430 N   0  0  0  0  0  0  0  0  0  0  0  0
   38.3470   28.9800   42.8410 C   0  0  0  0  0  0  0  0  0  0  0  0
   39.1360   29.9510   43.0650 O   0  0  0  0  0  0  0  0  0  0  0  0
   38.1950   27.7170   43.5790 C   0  0  0  0  0  3  0  0  0  0  0  0
   39.0600   27.0360   43.6170 H   0  0  0  0  0  0  0  0  0  0  0  0
   37.0340   27.3430   42.7220 C   0  0  2  0  0  3  0  0  0  0  0  0
   37.3640   25.9790   41.5540 S   0  0  0  0  0  0  0  0  0  0  0  0
   36.6000   26.4620   39.9880 C   0  0  0  0  0  3  0  0  0  0  0  0
   35.6380   25.8680   39.9090 H   0  0  0  0  0  0  0  0  0  0  0  0
   36.2940   30.2890   40.5180 C   0  0  0  0  0  0  0  0  0  0  0  0
   36.5080   31.1520   39.6350 O   0  0  0  0  0  0  0  0  0  0  0  0
   35.5520   31.0380   41.3850 O   0  0  0  0  0  0  0  0  0  0  0  0
   35.7630   31.9650   41.7310 H   0  0  0  0  0  0  0  0  0  0  0  0
   35.6070   28.1100   38.6510 C   0  0  0  0  0  2  0  0  0  0  0  0
   36.4800   27.9160   37.5210 O   0  0  0  0  0  0  0  0  0  0  0  0
   37.1540   29.0220   36.9840 C   0  0  0  0  0  0  0  0  0  0  0  0
   36.4650   29.8850   36.3710 O   0  0  0  0  0  0  0  0  0  0  0  0
   38.5610   29.0360   37.2010 C   0  0  0  0  0  0  0  0  0  0  0  0
   39.2080   27.9110   36.7040 C   0  0  0  0  0  0  0  0  0  0  0  0
   40.6040   27.8290   36.8690 C   0  0  0  0  0  0  0  0  0  0  0  0
   41.2360   28.8550   37.5050 N   0  0  0  0  0  0  0  0  0  0  0  0
   40.5490   29.9230   37.9660 C   0  0  0  0  0  0  0  0  0  0  0  0
   39.2150   30.0130   37.8140 N   0  0  0  0  0  0  0  0  0  0  0  0
   38.7410   27.0910   36.2010 H   0  0  0  0  0  0  0  0  0  0  0  0
   41.1790   26.9920   36.5130 H   0  0  0  0  0  0  0  0  0  0  0  0
   41.1280   30.6960   38.4600 H   0  0  0  0  0  0  0  0  0  0  0  0
  1 10  1  0  0  0  0
  1  2  2  0  0  0  0
  2  3  1  0  0  0  0
  3  8  1  0  0  0  0
  3  4  1  0  0  0  0
  4  5  2  0  0  0  0
  4  6  1  0  0  0  0
  6  7  1  0  0  0  0
  8  9  1  6  0  0  0
  8  6  1  0  0  0  0
 10  9  1  0  0  0  0
 11 10  1  0  0  0  0
 12  2  1  0  0  0  0
 12 14  1  0  0  0  0
 13 12  2  0  0  0  0
 14 15  1  0  0  0  0
 16  1  1  0  0  0  0
 17 16  1  0  0  0  0
 18 20  1  0  0  0  0
 18 17  1  0  0  0  0
 19 18  2  0  0  0  0
 20 25  1  0  0  0  0
 21 22  1  0  0  0  0
 21 20  2  0  0  0  0
 22 23  2  0  0  0  0
 23 24  1  0  0  0  0
 24 28  1  0  0  0  0
 25 24  2  0  0  0  0
 26 21  1  0  0  0  0
 27 22  1  0  0  0  0
M  END
>  <minimizedAffinity>
-4.89247561

$$$$

 OpenBabel03242518293D

 28 30  0  0  1  0  0  0  0  0999 V2000
   37.7420   29.0230   39.5120 C   0  0  0  0  0  0  0  0  0  0  0  0
   36.7970   28.7270   40.3830 C   0  0  0  0  0  0  0  0  0  0  0  0
   37.0020   27.6130   41.2430 N   0  0  0  0  0  0  0  0  0  0  0  0
   36.8220   27.1240   42.5670 C   0  0  0  0  0  0  0  0  0  0  0  0
   36.2930   27.4390   43.6790 O   0  0  0  0  0  0  0  0  0  0  0  0
   37.5720   25.9120   42.2040 C   0  0  0  0  0  3  0  0  0  0  0  0
   38.5160   25.7130   42.7370 H   0  0  0  0  0  0  0  0  0  0  0  0
   37.6390   26.3640   40.7850 C   0  0  2  0  0  3  0  0  0  0  0  0
   39.2980   26.8870   40.2360 S   0  0  0  0  0  0  0  0  0  0  0  0
   39.0540   28.3890   39.2580 C   0  0  0  0  0  3  0  0  0  0  0  0
   39.1450   28.0780   38.1730 H   0  0  0  0  0  0  0  0  0  0  0  0
   35.5520   29.4710   40.5160 C   0  0  0  0  0  0  0  0  0  0  0  0
   34.3580   29.3350   40.1590 O   0  0  0  0  0  0  0  0  0  0  0  0
   35.4530   30.6630   41.1730 O   0  0  0  0  0  0  0  0  0  0  0  0
   35.0020   31.5090   40.8470 H   0  0  0  0  0  0  0  0  0  0  0  0
   37.6610   30.1400   38.5650 C   0  0  0  0  0  2  0  0  0  0  0  0
   38.6820   31.1220   38.8300 O   0  0  0  0  0  0  0  0  0  0  0  0
   38.6260   31.8580   40.0220 C   0  0  0  0  0  0  0  0  0  0  0  0
   37.5430   32.4490   40.2940 O   0  0  0  0  0  0  0  0  0  0  0  0
   39.8210   31.8470   40.7950 C   0  0  0  0  0  0  0  0  0  0  0  0
   39.7530   31.0190   41.9080 C   0  0  0  0  0  0  0  0  0  0  0  0
   40.8870   30.9390   42.7390 C   0  0  0  0  0  0  0  0  0  0  0  0
   41.9810   31.6780   42.4030 N   0  0  0  0  0  0  0  0  0  0  0  0
   41.9850   32.4650   41.3060 C   0  0  0  0  0  0  0  0  0  0  0  0
   40.9080   32.5500   40.5050 N   0  0  0  0  0  0  0  0  0  0  0  0
   38.9100   30.4270   42.1980 H   0  0  0  0  0  0  0  0  0  0  0  0
   40.9140   30.3210   43.6200 H   0  0  0  0  0  0  0  0  0  0  0  0
   42.8970   33.0210   41.1100 H   0  0  0  0  0  0  0  0  0  0  0  0
  1  2  2  0  0  0  0
  2 12  1  0  0  0  0
  2  3  1  0  0  0  0
  3  4  1  0  0  0  0
  4  5  2  0  0  0  0
  6  4  1  0  0  0  0
  6  7  1  0  0  0  0
  8  9  1  1  0  0  0
  8  3  1  0  0  0  0
  8  6  1  0  0  0  0
 10  1  1  0  0  0  0
 10  9  1  0  0  0  0
 11 10  1  0  0  0  0
 12 14  1  0  0  0  0
 13 12  2  0  0  0  0
 15 14  1  0  0  0  0
 16 17  1  0  0  0  0
 16  1  1  0  0  0  0
 17 18  1  0  0  0  0
 18 19  2  0  0  0  0
 18 20  1  0  0  0  0
 20 21  1  0  0  0  0
 21 26  1  0  0  0  0
 21 22  2  0  0  0  0
 22 27  1  0  0  0  0
 23 22  1  0  0  0  0
 24 23  2  0  0  0  0
 25 20  2  0  0  0  0
 25 24  1  0  0  0  0
 28 24  1  0  0  0  0
M  END
>  <minimizedAffinity>
-4.88151073

$$$$

 OpenBabel03242518293D

 28 30  0  0  1  0  0  0  0  0999 V2000
   37.5520   29.4330   42.1170 C   0  0  0  0  0  0  0  0  0  0  0  0
   38.5220   30.1820   41.6350 C   0  0  0  0  0  0  0  0  0  0  0  0
   38.3500   30.7560   40.3450 N   0  0  0  0  0  0  0  0  0  0  0  0
   38.5720   31.9190   39.5560 C   0  0  0  0  0  0  0  0  0  0  0  0
   39.1300   33.0600   39.6040 O   0  0  0  0  0  0  0  0  0  0  0  0
   37.8200   31.2980   38.4570 C   0  0  0  0  0  3  0  0  0  0  0  0
   36.8930   31.7920   38.1230 H   0  0  0  0  0  0  0  0  0  0  0  0
   37.7090   30.0300   39.2330 C   0  0  2  0  0  3  0  0  0  0  0  0
   36.0310   29.6650   39.8500 S   0  0  0  0  0  0  0  0  0  0  0  0
   36.2360   29.0690   41.5450 C   0  0  0  0  0  3  0  0  0  0  0  0
   36.1170   27.9430   41.5010 H   0  0  0  0  0  0  0  0  0  0  0  0
   39.7660   30.4570   42.3420 C   0  0  0  0  0  0  0  0  0  0  0  0
   40.8050   29.8270   42.6510 O   0  0  0  0  0  0  0  0  0  0  0  0
   40.0700   31.6690   42.8900 O   0  0  0  0  0  0  0  0  0  0  0  0
   40.4220   31.8510   43.8220 H   0  0  0  0  0  0  0  0  0  0  0  0
   37.5970   28.7780   43.4300 C   0  0  0  0  0  2  0  0  0  0  0  0
   37.4340   27.3520   43.3060 O   0  0  0  0  0  0  0  0  0  0  0  0
   38.5570   26.5600   43.0270 C   0  0  0  0  0  0  0  0  0  0  0  0
   39.6530   26.8900   43.5630 O   0  0  0  0  0  0  0  0  0  0  0  0
   38.3190   25.4600   42.1570 C   0  0  0  0  0  0  0  0  0  0  0  0
   36.9710   25.1600   41.9990 C   0  0  0  0  0  0  0  0  0  0  0  0
   36.6310   24.0850   41.1570 C   0  0  0  0  0  0  0  0  0  0  0  0
   37.6410   23.4030   40.5480 N   0  0  0  0  0  0  0  0  0  0  0  0
   38.9330   23.7440   40.7410 C   0  0  0  0  0  0  0  0  0  0  0  0
   39.2710   24.7690   41.5440 N   0  0  0  0  0  0  0  0  0  0  0  0
   36.1570   25.6760   42.4630 H   0  0  0  0  0  0  0  0  0  0  0  0
   35.6100   23.7890   40.9820 H   0  0  0  0  0  0  0  0  0  0  0  0
   39.6750   23.1500   40.2180 H   0  0  0  0  0  0  0  0  0  0  0  0
  1 16  1  0  0  0  0
  2  1  2  0  0  0  0
  2 12  1  0  0  0  0
  3  2  1  0  0  0  0
  4  5  2  0  0  0  0
  4  3  1  0  0  0  0
  6  4  1  0  0  0  0
  7  6  1  0  0  0  0
  8  6  1  6  0  0  0
  8  9  1  0  0  0  0
  8  3  1  0  0  0  0
  9 10  1  0  0  0  0
 10  1  1  0  0  0  0
 11 10  1  0  0  0  0
 12 13  2  0  0  0  0
 12 14  1  0  0  0  0
 14 15  1  0  0  0  0
 17 16  1  0  0  0  0
 18 17  1  0  0  0  0
 18 19  2  0  0  0  0
 20 18  1  0  0  0  0
 21 20  1  0  0  0  0
 21 26  1  0  0  0  0
 22 21  2  0  0  0  0
 23 24  2  0  0  0  0
 23 22  1  0  0  0  0
 24 25  1  0  0  0  0
 25 20  2  0  0  0  0
 27 22  1  0  0  0  0
 28 24  1  0  0  0  0
M  END
>  <minimizedAffinity>
-4.84556389

$$$$
