REMARK  Name = 
REMARK  7 active torsions:
REMARK  status: ('A' for Active; 'I' for Inactive)
REMARK    1  A    between atoms: C_1  and  C_9
REMARK    2  A    between atoms: C_6  and  N_15
REMARK    3  A    between atoms: C_13  and  O_16
REMARK    4  A    between atoms: O_16  and  C_25
REMARK    5  A    between atoms: C_25  and  C_26
REMARK    6  A    between atoms: C_27  and  C_28
REMARK    7  A    between atoms: C_28  and  O_30
REMARK                            x       y       z     vdW  Elec       q    Type
REMARK                         _______ _______ _______ _____ _____    ______ ____
ROOT
ATOM      1  C   UNL     1      43.541  33.927  40.810  0.00  0.00    +0.000 C 
ATOM      2  O   UNL     1      43.221  34.972  40.267  0.00  0.00    +0.000 OA
ATOM      3  N   UNL     1      44.848  33.518  41.130  0.00  0.00    +0.000 N 
ATOM      4  H   UNL     1      45.045  32.606  41.647  0.00  0.00    +0.000 HD
ENDROOT
BRANCH   3  10
ATOM      5  C   UNL     1      46.657  34.759  41.973  0.00  0.00    +0.000 A 
ATOM      6  C   UNL     1      47.921  35.328  41.904  0.00  0.00    +0.000 A 
ATOM      7  C   UNL     1      48.642  35.150  40.733  0.00  0.00    +0.000 A 
ATOM      8  C   UNL     1      48.115  34.440  39.694  0.00  0.00    +0.000 A 
ATOM      9  C   UNL     1      46.864  33.867  39.739  0.00  0.00    +0.000 A 
ATOM     10  C   UNL     1      46.139  34.051  40.930  0.00  0.00    +0.000 A 
ATOM     11  H   UNL     1      48.356  35.891  42.707  0.00  0.00    +0.000 HD
ATOM     12  H   UNL     1      49.632  35.549  40.573  0.00  0.00    +0.000 HD
ATOM     13  H   UNL     1      48.652  34.282  38.764  0.00  0.00    +0.000 HD
ATOM     14  H   UNL     1      46.410  33.295  38.935  0.00  0.00    +0.000 HD
BRANCH   5  17
ATOM     15  C   UNL     1      44.514  36.149  44.750  0.00  0.00    +0.000 A 
ATOM     16  C   UNL     1      45.161  36.069  43.491  0.00  0.00    +0.000 A 
ATOM     17  C   UNL     1      45.934  34.971  43.229  0.00  0.00    +0.000 A 
ATOM     18  N   UNL     1      46.028  34.021  44.205  0.00  0.00    +0.000 NA
ATOM     19  C   UNL     1      45.410  34.103  45.399  0.00  0.00    +0.000 A 
ATOM     20  N   UNL     1      44.646  35.180  45.671  0.00  0.00    +0.000 NA
ATOM     21  H   UNL     1      43.932  37.042  44.866  0.00  0.00    +0.000 HD
ATOM     22  H   UNL     1      45.066  36.841  42.737  0.00  0.00    +0.000 HD
ATOM     23  H   UNL     1      45.575  33.276  46.075  0.00  0.00    +0.000 HD
ENDBRANCH   5  17
ENDBRANCH   3  10
BRANCH   1  24
ATOM     24  O   UNL     1      42.494  33.063  41.140  0.00  0.00    +0.000 OA
BRANCH  24  25
ATOM     25  C   UNL     1      41.174  33.466  40.821  0.00  0.00    +0.000 C 
BRANCH  25  26
ATOM     26  C   UNL     1      40.278  32.571  41.593  0.00  0.00    +0.000 C 
ATOM     27  C   UNL     1      39.410  31.797  41.014  0.00  0.00    +0.000 C 
ATOM     28  N   UNL     1      38.558  30.940  41.757  0.00  0.00    +0.000 N 
ATOM     29  C   UNL     1      37.273  30.367  41.948  0.00  0.00    +0.000 C 
ATOM     30  O   UNL     1      36.163  30.359  41.313  0.00  0.00    +0.000 OA
ATOM     31  C   UNL     1      37.679  29.733  43.225  0.00  0.00    +0.000 C 
ATOM     32  H   UNL     1      37.259  30.224  44.131  0.00  0.00    +0.000 HD
ATOM     33  C   UNL     1      39.076  30.211  42.927  0.00  0.00    +0.000 C 
ATOM     34  S   UNL     1      39.679  31.497  44.057  0.00  0.00    +0.000 S 
ATOM     35  C   UNL     1      40.535  32.714  43.045  0.00  0.00    +0.000 C 
ATOM     36  H   UNL     1      41.636  32.536  43.211  0.00  0.00    +0.000 HD
BRANCH  27  37
ATOM     37  C   UNL     1      39.285  31.781  39.565  0.00  0.00    +0.000 C 
ATOM     38  O   UNL     1      38.489  31.081  38.914  0.00  0.00    +0.000 OA
BRANCH  37  39
ATOM     39  O   UNL     1      39.440  32.021  38.216  0.00  0.00    +0.000 OA
ATOM     40  H   UNL     1      40.310  32.261  37.753  0.00  0.00    +0.000 HD
ENDBRANCH  37  39
ENDBRANCH  27  37
ENDBRANCH  25  26
ENDBRANCH  24  25
ENDBRANCH   1  24
TORSDOF 7
