
 OpenBabel03252503373D

 49 53  0  0  1  0  0  0  0  0999 V2000
   38.4520   33.8380   39.6710 C   0  0  0  0  0  0  0  0  0  0  0  0
   39.1620   32.8030   39.2260 C   0  0  0  0  0  0  0  0  0  0  0  0
   40.5500   32.7170   39.4990 N   0  0  0  0  0  0  0  0  0  0  0  0
   41.6890   31.9370   39.8010 C   0  0  0  0  0  0  0  0  0  0  0  0
   41.9380   30.6950   39.8900 O   0  0  0  0  0  0  0  0  0  0  0  0
   42.5800   33.0670   40.0010 C   0  0  1  0  0  0  0  0  0  0  0  0
   41.4000   33.8900   39.5370 C   0  0  2  0  0  0  0  0  0  0  0  0
   40.7020   35.0200   40.7440 S   0  0  0  0  0  0  0  0  0  0  0  0
   38.9300   35.0010   40.4730 C   0  0  0  0  0  0  0  0  0  0  0  0
   43.4240   33.1320   39.2760 H   0  0  0  0  0  0  0  0  0  0  0  0
   41.5540   34.3150   38.5210 H   0  0  0  0  0  0  0  0  0  0  0  0
   38.4090   34.9400   41.4510 H   0  0  0  0  0  0  0  0  0  0  0  0
   38.6110   35.9500   40.0000 H   0  0  0  0  0  0  0  0  0  0  0  0
   43.0000   33.2370   41.3840 C   0  0  0  0  0  0  0  0  0  0  0  0
   42.6750   32.6880   42.4510 O   0  0  0  0  0  0  0  0  0  0  0  0
   44.0090   34.2580   41.5500 N   0  0  0  0  0  0  0  0  0  0  0  0
   44.5140   34.8970   40.8960 H   0  0  0  0  0  0  0  0  0  0  0  0
   45.9450   34.1210   44.7120 C   0  0  0  0  0  0  0  0  0  0  0  0
   45.4730   33.7820   43.4460 C   0  0  0  0  0  0  0  0  0  0  0  0
   44.5330   34.5790   42.8270 C   0  0  0  0  0  0  0  0  0  0  0  0
   44.0950   35.6730   43.4690 N   0  0  0  0  0  0  0  0  0  0  0  0
   44.5610   36.0030   44.7100 C   0  0  0  0  0  0  0  0  0  0  0  0
   45.4750   35.2230   45.3080 N   0  0  0  0  0  0  0  0  0  0  0  0
   46.6820   33.5150   45.2200 H   0  0  0  0  0  0  0  0  0  0  0  0
   45.8500   32.8980   42.9670 H   0  0  0  0  0  0  0  0  0  0  0  0
   44.1500   36.9010   45.1470 H   0  0  0  0  0  0  0  0  0  0  0  0
   37.0120   33.8160   39.3150 C   0  0  0  0  0  0  0  0  0  0  0  0
   36.4030   33.4640   40.1960 H   0  0  0  0  0  0  0  0  0  0  0  0
   36.6900   34.8770   39.1400 H   0  0  0  0  0  0  0  0  0  0  0  0
   36.7740   33.1920   38.4530 H   0  0  0  0  0  0  0  0  0  0  0  0
   38.5480   31.7400   38.4510 C   0  0  0  0  0  0  0  0  0  0  0  0
   38.8500   31.4850   37.2660 O   0  0  0  0  0  0  0  0  0  0  0  0
   37.5690   30.8080   38.7440 O   0  0  0  0  0  0  0  0  0  0  0  0
   37.7840   29.4120   38.6080 C   0  0  0  0  0  2  0  0  0  0  0  0
   38.0270   28.8770   39.9650 C   0  0  0  0  0  0  0  0  0  0  0  0
   37.1920   28.9250   40.9630 C   0  0  0  0  0  0  0  0  0  0  0  0
   37.5830   28.3720   42.1910 N   0  0  0  0  0  0  0  0  0  0  0  0
   37.2010   27.6620   43.3880 C   0  0  0  0  0  0  0  0  0  0  0  0
   36.1060   27.3380   43.9600 O   0  0  0  0  0  0  0  0  0  0  0  0
   38.5840   27.3950   43.7920 C   0  0  0  0  0  3  0  0  0  0  0  0
   38.8620   26.3390   43.5760 H   0  0  0  0  0  0  0  0  0  0  0  0
   38.9250   28.3980   42.7250 C   0  0  1  0  0  3  0  0  0  0  0  0
   39.9750   27.6090   41.4530 S   0  0  0  0  0  0  0  0  0  0  0  0
   39.3800   28.3060   39.9200 C   0  0  0  0  0  3  0  0  0  0  0  0
   40.1550   29.0550   39.5810 H   0  0  0  0  0  0  0  0  0  0  0  0
   35.8690   29.5330   40.8650 C   0  0  0  0  0  0  0  0  0  0  0  0
   34.7210   29.1990   40.4860 O   0  0  0  0  0  0  0  0  0  0  0  0
   35.5850   30.8260   41.2400 O   0  0  0  0  0  0  0  0  0  0  0  0
   34.8350   31.1150   41.8870 H   0  0  0  0  0  0  0  0  0  0  0  0
  1  9  1  0  0  0  0
  2  3  1  0  0  0  0
  2  1  2  0  0  0  0
  3  7  1  0  0  0  0
  3  4  1  0  0  0  0
  4  5  2  0  0  0  0
  4  6  1  0  0  0  0
  6 10  1  6  0  0  0
  6 14  1  0  0  0  0
  7 11  1  6  0  0  0
  7  6  1  0  0  0  0
  7  8  1  0  0  0  0
  9  8  1  0  0  0  0
  9 12  1  0  0  0  0
 13  9  1  0  0  0  0
 14 16  1  0  0  0  0
 14 15  2  0  0  0  0
 16 20  1  0  0  0  0
 17 16  1  0  0  0  0
 18 24  1  0  0  0  0
 18 23  1  0  0  0  0
 19 18  2  0  0  0  0
 20 19  1  0  0  0  0
 20 21  2  0  0  0  0
 21 22  1  0  0  0  0
 22 26  1  0  0  0  0
 22 23  2  0  0  0  0
 25 19  1  0  0  0  0
 27  1  1  0  0  0  0
 27 28  1  0  0  0  0
 29 27  1  0  0  0  0
 30 27  1  0  0  0  0
 31 33  1  0  0  0  0
 31  2  1  0  0  0  0
 32 31  2  0  0  0  0
 34 33  1  0  0  0  0
 34 35  1  0  0  0  0
 35 36  2  0  0  0  0
 36 37  1  0  0  0  0
 37 42  1  0  0  0  0
 37 38  1  0  0  0  0
 38 40  1  0  0  0  0
 38 39  2  0  0  0  0
 41 40  1  0  0  0  0
 42 43  1  6  0  0  0
 42 40  1  0  0  0  0
 44 35  1  0  0  0  0
 44 43  1  0  0  0  0
 45 44  1  0  0  0  0
 46 36  1  0  0  0  0
 46 48  1  0  0  0  0
 47 46  2  0  0  0  0
 48 49  1  0  0  0  0
M  END
>  <minimizedAffinity>
-7.04364157

$$$$

 OpenBabel03252503373D

 49 53  0  0  1  0  0  0  0  0999 V2000
   37.1690   29.6350   38.8620 C   0  0  0  0  0  0  0  0  0  0  0  0
   37.6130   30.5550   39.7170 C   0  0  0  0  0  0  0  0  0  0  0  0
   37.8650   30.2140   41.0680 N   0  0  0  0  0  0  0  0  0  0  0  0
   38.6400   30.3620   42.2410 C   0  0  0  0  0  0  0  0  0  0  0  0
   39.6010   31.1080   42.6030 O   0  0  0  0  0  0  0  0  0  0  0  0
   37.9580   29.3170   42.9880 C   0  0  1  0  0  0  0  0  0  0  0  0
   37.0410   29.2630   41.7880 C   0  0  2  0  0  0  0  0  0  0  0  0
   37.0530   27.7300   40.8550 S   0  0  0  0  0  0  0  0  0  0  0  0
   36.8790   28.1960   39.1330 C   0  0  0  0  0  0  0  0  0  0  0  0
   37.4130   29.6690   43.8940 H   0  0  0  0  0  0  0  0  0  0  0  0
   36.0340   29.6790   42.0060 H   0  0  0  0  0  0  0  0  0  0  0  0
   37.5960   27.6130   38.5190 H   0  0  0  0  0  0  0  0  0  0  0  0
   35.8640   27.9360   38.7730 H   0  0  0  0  0  0  0  0  0  0  0  0
   38.7880   28.1490   43.2390 C   0  0  0  0  0  0  0  0  0  0  0  0
   38.5620   27.0270   43.7270 O   0  0  0  0  0  0  0  0  0  0  0  0
   40.1630   28.3290   42.8330 N   0  0  0  0  0  0  0  0  0  0  0  0
   40.6940   29.1110   42.3880 H   0  0  0  0  0  0  0  0  0  0  0  0
   42.2660   25.3220   42.2860 C   0  0  0  0  0  0  0  0  0  0  0  0
   41.3230   26.3240   42.0620 C   0  0  0  0  0  0  0  0  0  0  0  0
   41.1270   27.3060   43.0090 C   0  0  0  0  0  0  0  0  0  0  0  0
   41.8600   27.2710   44.1340 N   0  0  0  0  0  0  0  0  0  0  0  0
   42.7840   26.2880   44.3490 C   0  0  0  0  0  0  0  0  0  0  0  0
   42.9690   25.3340   43.4240 N   0  0  0  0  0  0  0  0  0  0  0  0
   42.4400   24.5400   41.5610 H   0  0  0  0  0  0  0  0  0  0  0  0
   40.7580   26.3150   41.1500 H   0  0  0  0  0  0  0  0  0  0  0  0
   43.3240   26.3430   45.2830 H   0  0  0  0  0  0  0  0  0  0  0  0
   36.9380   30.1160   37.4790 C   0  0  0  0  0  0  0  0  0  0  0  0
   37.7990   29.8130   36.8170 H   0  0  0  0  0  0  0  0  0  0  0  0
   36.0480   29.5660   37.0720 H   0  0  0  0  0  0  0  0  0  0  0  0
   36.7960   31.1940   37.3980 H   0  0  0  0  0  0  0  0  0  0  0  0
   37.8490   31.9240   39.2980 C   0  0  0  0  0  0  0  0  0  0  0  0
   36.9560   32.7970   39.2540 O   0  0  0  0  0  0  0  0  0  0  0  0
   38.9810   32.5970   38.8760 O   0  0  0  0  0  0  0  0  0  0  0  0
   39.7880   33.3570   39.7610 C   0  0  0  0  0  2  0  0  0  0  0  0
   41.1550   33.3720   39.1950 C   0  0  0  0  0  0  0  0  0  0  0  0
   42.1270   34.1510   39.5730 C   0  0  0  0  0  0  0  0  0  0  0  0
   43.3660   34.0390   38.9250 N   0  0  0  0  0  0  0  0  0  0  0  0
   44.8050   34.0940   39.0230 C   0  0  0  0  0  0  0  0  0  0  0  0
   45.6570   34.4990   39.8830 O   0  0  0  0  0  0  0  0  0  0  0  0
   45.0180   33.4860   37.7070 C   0  0  0  0  0  3  0  0  0  0  0  0
   45.3200   32.4200   37.8090 H   0  0  0  0  0  0  0  0  0  0  0  0
   43.5470   33.7400   37.5240 C   0  0  1  0  0  3  0  0  0  0  0  0
   42.6800   32.1550   37.2430 S   0  0  0  0  0  0  0  0  0  0  0  0
   41.1500   32.3440   38.1470 C   0  0  0  0  0  3  0  0  0  0  0  0
   40.3380   32.5100   37.3780 H   0  0  0  0  0  0  0  0  0  0  0  0
   41.9870   35.1400   40.6370 C   0  0  0  0  0  0  0  0  0  0  0  0
   41.1080   35.9280   41.0610 O   0  0  0  0  0  0  0  0  0  0  0  0
   42.9800   35.4460   41.5390 O   0  0  0  0  0  0  0  0  0  0  0  0
   42.8820   35.4450   42.5670 H   0  0  0  0  0  0  0  0  0  0  0  0
  1  9  1  0  0  0  0
  1  2  2  0  0  0  0
  2  3  1  0  0  0  0
  3  7  1  0  0  0  0
  3  4  1  0  0  0  0
  4  5  2  0  0  0  0
  4  6  1  0  0  0  0
  6 14  1  0  0  0  0
  6 10  1  1  0  0  0
  7 11  1  1  0  0  0
  7  6  1  0  0  0  0
  8  7  1  0  0  0  0
  9  8  1  0  0  0  0
 12  9  1  0  0  0  0
 13  9  1  0  0  0  0
 14 15  2  0  0  0  0
 16 20  1  0  0  0  0
 16 14  1  0  0  0  0
 17 16  1  0  0  0  0
 18 23  1  0  0  0  0
 19 18  2  0  0  0  0
 19 20  1  0  0  0  0
 20 21  2  0  0  0  0
 21 22  1  0  0  0  0
 22 26  1  0  0  0  0
 23 22  2  0  0  0  0
 24 18  1  0  0  0  0
 25 19  1  0  0  0  0
 27  1  1  0  0  0  0
 28 27  1  0  0  0  0
 29 27  1  0  0  0  0
 30 27  1  0  0  0  0
 31  2  1  0  0  0  0
 32 31  2  0  0  0  0
 33 31  1  0  0  0  0
 33 34  1  0  0  0  0
 35 36  2  0  0  0  0
 35 34  1  0  0  0  0
 36 46  1  0  0  0  0
 37 38  1  0  0  0  0
 37 36  1  0  0  0  0
 38 39  2  0  0  0  0
 40 41  1  0  0  0  0
 40 38  1  0  0  0  0
 42 43  1  1  0  0  0
 42 40  1  0  0  0  0
 42 37  1  0  0  0  0
 43 44  1  0  0  0  0
 44 35  1  0  0  0  0
 45 44  1  0  0  0  0
 46 47  2  0  0  0  0
 46 48  1  0  0  0  0
 48 49  1  0  0  0  0
M  END
>  <minimizedAffinity>
-6.62441921

$$$$

 OpenBabel03252503373D

 49 53  0  0  1  0  0  0  0  0999 V2000
   36.6640   26.7770   39.5870 C   0  0  0  0  0  0  0  0  0  0  0  0
   36.5120   27.9000   40.2860 C   0  0  0  0  0  0  0  0  0  0  0  0
   37.2630   28.1140   41.4690 N   0  0  0  0  0  0  0  0  0  0  0  0
   37.9590   28.9920   42.3310 C   0  0  0  0  0  0  0  0  0  0  0  0
   38.1410   30.2460   42.3900 O   0  0  0  0  0  0  0  0  0  0  0  0
   38.4530   27.9500   43.2170 C   0  0  1  0  0  0  0  0  0  0  0  0
   37.5900   27.0340   42.3780 C   0  0  2  0  0  0  0  0  0  0  0  0
   38.4590   25.7810   41.4310 S   0  0  0  0  0  0  0  0  0  0  0  0
   37.5740   25.6320   39.8800 C   0  0  0  0  0  0  0  0  0  0  0  0
   38.0760   28.0080   44.2640 H   0  0  0  0  0  0  0  0  0  0  0  0
   36.6920   26.6780   42.9280 H   0  0  0  0  0  0  0  0  0  0  0  0
   38.3020   25.5900   39.0430 H   0  0  0  0  0  0  0  0  0  0  0  0
   37.0090   24.6790   39.8580 H   0  0  0  0  0  0  0  0  0  0  0  0
   39.8930   27.7560   43.1370 C   0  0  0  0  0  0  0  0  0  0  0  0
   40.7690   28.1640   42.3550 O   0  0  0  0  0  0  0  0  0  0  0  0
   40.4120   26.9150   44.1900 N   0  0  0  0  0  0  0  0  0  0  0  0
   39.9850   26.4210   45.0060 H   0  0  0  0  0  0  0  0  0  0  0  0
   43.9840   26.9090   45.1970 C   0  0  0  0  0  0  0  0  0  0  0  0
   42.6280   27.2340   45.1650 C   0  0  0  0  0  0  0  0  0  0  0  0
   41.7910   26.5990   44.2730 C   0  0  0  0  0  0  0  0  0  0  0  0
   42.3110   25.6740   43.4500 N   0  0  0  0  0  0  0  0  0  0  0  0
   43.6390   25.3580   43.4850 C   0  0  0  0  0  0  0  0  0  0  0  0
   44.4500   25.9800   44.3550 N   0  0  0  0  0  0  0  0  0  0  0  0
   44.6620   27.3920   45.8870 H   0  0  0  0  0  0  0  0  0  0  0  0
   42.2540   27.9800   45.8400 H   0  0  0  0  0  0  0  0  0  0  0  0
   43.9650   24.6020   42.7860 H   0  0  0  0  0  0  0  0  0  0  0  0
   35.8190   26.6690   38.3740 C   0  0  0  0  0  0  0  0  0  0  0  0
   36.4280   26.9130   37.4560 H   0  0  0  0  0  0  0  0  0  0  0  0
   35.5310   25.5900   38.2560 H   0  0  0  0  0  0  0  0  0  0  0  0
   34.9350   27.3060   38.3870 H   0  0  0  0  0  0  0  0  0  0  0  0
   35.5790   28.9310   39.8690 C   0  0  0  0  0  0  0  0  0  0  0  0
   34.3580   28.9040   40.1300 O   0  0  0  0  0  0  0  0  0  0  0  0
   35.7320   30.1030   39.1510 O   0  0  0  0  0  0  0  0  0  0  0  0
   36.4500   30.1570   37.9290 C   0  0  0  0  0  2  0  0  0  0  0  0
   37.8660   30.4130   38.2700 C   0  0  0  0  0  0  0  0  0  0  0  0
   38.3110   31.4120   38.9770 C   0  0  0  0  0  0  0  0  0  0  0  0
   39.6910   31.5090   39.2050 N   0  0  0  0  0  0  0  0  0  0  0  0
   40.7570   31.8800   40.1050 C   0  0  0  0  0  0  0  0  0  0  0  0
   40.8580   32.5330   41.1980 O   0  0  0  0  0  0  0  0  0  0  0  0
   41.7930   31.2150   39.3120 C   0  0  0  0  0  3  0  0  0  0  0  0
   42.0940   30.2520   39.7810 H   0  0  0  0  0  0  0  0  0  0  0  0
   40.7180   31.1310   38.2640 C   0  0  1  0  0  3  0  0  0  0  0  0
   40.3920   29.3790   37.8570 S   0  0  0  0  0  0  0  0  0  0  0  0
   38.6190   29.3170   37.6460 C   0  0  0  0  0  3  0  0  0  0  0  0
   38.4260   29.2360   36.5350 H   0  0  0  0  0  0  0  0  0  0  0  0
   37.4390   32.4400   39.5380 C   0  0  0  0  0  0  0  0  0  0  0  0
   37.0760   33.6050   39.2510 O   0  0  0  0  0  0  0  0  0  0  0  0
   36.7220   32.2890   40.7030 O   0  0  0  0  0  0  0  0  0  0  0  0
   35.7080   32.4460   40.8110 H   0  0  0  0  0  0  0  0  0  0  0  0
  1  9  1  0  0  0  0
  1  2  2  0  0  0  0
  2  3  1  0  0  0  0
  3  4  1  0  0  0  0
  3  7  1  0  0  0  0
  4  5  2  0  0  0  0
  4  6  1  0  0  0  0
  6 10  1  1  0  0  0
  7 11  1  1  0  0  0
  7  6  1  0  0  0  0
  8  7  1  0  0  0  0
  9  8  1  0  0  0  0
 12  9  1  0  0  0  0
 13  9  1  0  0  0  0
 14  6  1  0  0  0  0
 14 16  1  0  0  0  0
 15 14  2  0  0  0  0
 16 20  1  0  0  0  0
 16 17  1  0  0  0  0
 18 24  1  0  0  0  0
 19 18  1  0  0  0  0
 19 25  1  0  0  0  0
 20 19  2  0  0  0  0
 21 22  2  0  0  0  0
 21 20  1  0  0  0  0
 22 23  1  0  0  0  0
 23 18  2  0  0  0  0
 26 22  1  0  0  0  0
 27 30  1  0  0  0  0
 27  1  1  0  0  0  0
 28 27  1  0  0  0  0
 29 27  1  0  0  0  0
 31 32  2  0  0  0  0
 31  2  1  0  0  0  0
 33 31  1  0  0  0  0
 34 35  1  0  0  0  0
 34 33  1  0  0  0  0
 35 36  2  0  0  0  0
 36 37  1  0  0  0  0
 36 46  1  0  0  0  0
 37 38  1  0  0  0  0
 38 39  2  0  0  0  0
 40 41  1  0  0  0  0
 40 38  1  0  0  0  0
 42 43  1  1  0  0  0
 42 37  1  0  0  0  0
 42 40  1  0  0  0  0
 44 43  1  0  0  0  0
 44 35  1  0  0  0  0
 45 44  1  0  0  0  0
 46 48  1  0  0  0  0
 47 46  2  0  0  0  0
 48 49  1  0  0  0  0
M  END
>  <minimizedAffinity>
-6.56055737

$$$$

 OpenBabel03252503373D

 49 53  0  0  1  0  0  0  0  0999 V2000
   36.6040   28.0560   39.7660 C   0  0  0  0  0  0  0  0  0  0  0  0
   36.8680   29.0030   40.6640 C   0  0  0  0  0  0  0  0  0  0  0  0
   37.4490   28.6630   41.9110 N   0  0  0  0  0  0  0  0  0  0  0  0
   38.3260   28.9750   42.9750 C   0  0  0  0  0  0  0  0  0  0  0  0
   39.0410   29.9740   43.2950 O   0  0  0  0  0  0  0  0  0  0  0  0
   38.1620   27.7060   43.6650 C   0  0  1  0  0  0  0  0  0  0  0  0
   37.1170   27.4350   42.6060 C   0  0  2  0  0  0  0  0  0  0  0  0
   37.4620   26.0760   41.4860 S   0  0  0  0  0  0  0  0  0  0  0  0
   36.8480   26.5880   39.8820 C   0  0  0  0  0  0  0  0  0  0  0  0
   37.6990   27.7790   44.6760 H   0  0  0  0  0  0  0  0  0  0  0  0
   36.0840   27.4640   43.0140 H   0  0  0  0  0  0  0  0  0  0  0  0
   37.5970   26.3350   39.1020 H   0  0  0  0  0  0  0  0  0  0  0  0
   35.9270   26.0260   39.6340 H   0  0  0  0  0  0  0  0  0  0  0  0
   39.3560   26.8750   43.6410 C   0  0  0  0  0  0  0  0  0  0  0  0
   39.5640   25.6690   43.8610 O   0  0  0  0  0  0  0  0  0  0  0  0
   40.5510   27.6050   43.2840 N   0  0  0  0  0  0  0  0  0  0  0  0
   40.7480   28.5990   43.0280 H   0  0  0  0  0  0  0  0  0  0  0  0
   43.9060   26.3120   44.2010 C   0  0  0  0  0  0  0  0  0  0  0  0
   42.6600   26.9270   44.3120 C   0  0  0  0  0  0  0  0  0  0  0  0
   41.8150   26.9690   43.2220 C   0  0  0  0  0  0  0  0  0  0  0  0
   42.2220   26.4090   42.0710 N   0  0  0  0  0  0  0  0  0  0  0  0
   43.4430   25.8070   41.9670 C   0  0  0  0  0  0  0  0  0  0  0  0
   44.2610   25.7690   43.0310 N   0  0  0  0  0  0  0  0  0  0  0  0
   44.5860   26.2640   45.0380 H   0  0  0  0  0  0  0  0  0  0  0  0
   42.3730   27.3620   45.2500 H   0  0  0  0  0  0  0  0  0  0  0  0
   43.6820   25.3850   41.0020 H   0  0  0  0  0  0  0  0  0  0  0  0
   35.9920   28.5360   38.5030 C   0  0  0  0  0  0  0  0  0  0  0  0
   36.7750   28.5980   37.6950 H   0  0  0  0  0  0  0  0  0  0  0  0
   35.2720   27.7480   38.1540 H   0  0  0  0  0  0  0  0  0  0  0  0
   35.4970   29.5030   38.5860 H   0  0  0  0  0  0  0  0  0  0  0  0
   36.5710   30.3980   40.4020 C   0  0  0  0  0  0  0  0  0  0  0  0
   35.6920   31.0440   41.0110 O   0  0  0  0  0  0  0  0  0  0  0  0
   37.0960   31.3220   39.5160 O   0  0  0  0  0  0  0  0  0  0  0  0
   37.7640   32.4960   39.9500 C   0  0  0  0  0  2  0  0  0  0  0  0
   39.0960   32.4970   39.3070 C   0  0  0  0  0  0  0  0  0  0  0  0
   39.9730   33.4570   39.3740 C   0  0  0  0  0  0  0  0  0  0  0  0
   41.1920   33.2990   38.6990 N   0  0  0  0  0  0  0  0  0  0  0  0
   42.6150   33.5430   38.6730 C   0  0  0  0  0  0  0  0  0  0  0  0
   43.4380   34.2760   39.3170 O   0  0  0  0  0  0  0  0  0  0  0  0
   42.8580   32.6010   37.5770 C   0  0  0  0  0  3  0  0  0  0  0  0
   43.2980   31.6540   37.9600 H   0  0  0  0  0  0  0  0  0  0  0  0
   41.3610   32.6230   37.4340 C   0  0  1  0  0  3  0  0  0  0  0  0
   40.6960   30.9390   37.6850 S   0  0  0  0  0  0  0  0  0  0  0  0
   39.1870   31.2110   38.6030 C   0  0  0  0  0  3  0  0  0  0  0  0
   38.3340   31.0520   37.8790 H   0  0  0  0  0  0  0  0  0  0  0  0
   39.7450   34.6930   40.1150 C   0  0  0  0  0  0  0  0  0  0  0  0
   39.0160   35.7100   40.0220 O   0  0  0  0  0  0  0  0  0  0  0  0
   40.4120   35.0340   41.2700 O   0  0  0  0  0  0  0  0  0  0  0  0
   39.9720   35.3120   42.1610 H   0  0  0  0  0  0  0  0  0  0  0  0
  1  9  1  0  0  0  0
  1  2  2  0  0  0  0
  2  3  1  0  0  0  0
  3  7  1  0  0  0  0
  3  4  1  0  0  0  0
  4  5  2  0  0  0  0
  4  6  1  0  0  0  0
  6 10  1  1  0  0  0
  7 11  1  1  0  0  0
  7  6  1  0  0  0  0
  8  7  1  0  0  0  0
  9  8  1  0  0  0  0
 12  9  1  0  0  0  0
 13  9  1  0  0  0  0
 14  6  1  0  0  0  0
 14 15  2  0  0  0  0
 16 14  1  0  0  0  0
 17 16  1  0  0  0  0
 18 19  1  0  0  0  0
 18 24  1  0  0  0  0
 19 25  1  0  0  0  0
 20 16  1  0  0  0  0
 20 19  2  0  0  0  0
 21 20  1  0  0  0  0
 22 21  2  0  0  0  0
 22 23  1  0  0  0  0
 23 18  2  0  0  0  0
 26 22  1  0  0  0  0
 27 30  1  0  0  0  0
 27  1  1  0  0  0  0
 28 27  1  0  0  0  0
 29 27  1  0  0  0  0
 31  2  1  0  0  0  0
 31 32  2  0  0  0  0
 33 34  1  0  0  0  0
 33 31  1  0  0  0  0
 35 36  2  0  0  0  0
 35 34  1  0  0  0  0
 36 46  1  0  0  0  0
 37 36  1  0  0  0  0
 38 37  1  0  0  0  0
 38 39  2  0  0  0  0
 40 41  1  0  0  0  0
 40 38  1  0  0  0  0
 42 40  1  1  0  0  0
 42 43  1  0  0  0  0
 42 37  1  0  0  0  0
 43 44  1  0  0  0  0
 44 35  1  0  0  0  0
 45 44  1  0  0  0  0
 46 48  1  0  0  0  0
 47 46  2  0  0  0  0
 48 49  1  0  0  0  0
M  END
>  <minimizedAffinity>
-6.5462265

$$$$

 OpenBabel03252503373D

 49 53  0  0  1  0  0  0  0  0999 V2000
   37.3880   32.2930   39.9350 C   0  0  0  0  0  0  0  0  0  0  0  0
   38.5030   32.2350   40.6610 C   0  0  0  0  0  0  0  0  0  0  0  0
   38.8330   31.0550   41.3720 N   0  0  0  0  0  0  0  0  0  0  0  0
   39.8080   30.1470   41.8450 C   0  0  0  0  0  0  0  0  0  0  0  0
   41.0760   30.1030   41.8520 O   0  0  0  0  0  0  0  0  0  0  0  0
   38.8530   29.1850   42.3720 C   0  0  1  0  0  0  0  0  0  0  0  0
   37.8220   30.2250   41.9950 C   0  0  2  0  0  0  0  0  0  0  0  0
   36.6550   29.7510   40.7170 S   0  0  0  0  0  0  0  0  0  0  0  0
   36.3640   31.2260   39.7420 C   0  0  0  0  0  0  0  0  0  0  0  0
   38.8940   29.0420   43.4770 H   0  0  0  0  0  0  0  0  0  0  0  0
   37.3780   30.7220   42.8850 H   0  0  0  0  0  0  0  0  0  0  0  0
   36.3860   30.9650   38.6630 H   0  0  0  0  0  0  0  0  0  0  0  0
   35.3510   31.6240   39.9530 H   0  0  0  0  0  0  0  0  0  0  0  0
   38.8260   27.9310   41.6340 C   0  0  0  0  0  0  0  0  0  0  0  0
   39.3150   27.5650   40.5510 O   0  0  0  0  0  0  0  0  0  0  0  0
   38.0760   26.8940   42.3030 N   0  0  0  0  0  0  0  0  0  0  0  0
   37.5540   26.8390   43.2070 H   0  0  0  0  0  0  0  0  0  0  0  0
   38.6950   23.3730   41.3070 C   0  0  0  0  0  0  0  0  0  0  0  0
   38.8730   24.6200   41.9050 C   0  0  0  0  0  0  0  0  0  0  0  0
   37.9240   25.6060   41.7320 C   0  0  0  0  0  0  0  0  0  0  0  0
   36.8430   25.3340   40.9840 N   0  0  0  0  0  0  0  0  0  0  0  0
   36.6720   24.1100   40.4000 C   0  0  0  0  0  0  0  0  0  0  0  0
   37.5990   23.1550   40.5720 N   0  0  0  0  0  0  0  0  0  0  0  0
   39.4220   22.5830   41.4270 H   0  0  0  0  0  0  0  0  0  0  0  0
   39.7510   24.7960   42.4960 H   0  0  0  0  0  0  0  0  0  0  0  0
   35.7720   23.9850   39.8170 H   0  0  0  0  0  0  0  0  0  0  0  0
   37.1510   33.5830   39.2430 C   0  0  0  0  0  0  0  0  0  0  0  0
   37.4400   33.4970   38.1570 H   0  0  0  0  0  0  0  0  0  0  0  0
   36.0430   33.7670   39.2380 H   0  0  0  0  0  0  0  0  0  0  0  0
   37.6810   34.4290   39.6810 H   0  0  0  0  0  0  0  0  0  0  0  0
   39.4070   33.3670   40.7510 C   0  0  0  0  0  0  0  0  0  0  0  0
   39.0930   34.4640   41.2590 O   0  0  0  0  0  0  0  0  0  0  0  0
   40.7190   33.5570   40.3550 O   0  0  0  0  0  0  0  0  0  0  0  0
   41.0590   34.1440   39.1090 C   0  0  0  0  0  2  0  0  0  0  0  0
   42.1150   33.3010   38.5080 C   0  0  0  0  0  0  0  0  0  0  0  0
   41.9210   32.2180   37.8120 C   0  0  0  0  0  0  0  0  0  0  0  0
   43.0390   31.5320   37.3160 N   0  0  0  0  0  0  0  0  0  0  0  0
   43.6160   30.7460   36.2510 C   0  0  0  0  0  0  0  0  0  0  0  0
   43.1840   30.1300   35.2200 O   0  0  0  0  0  0  0  0  0  0  0  0
   44.9840   30.8810   36.7580 C   0  0  0  0  0  3  0  0  0  0  0  0
   45.5560   31.6230   36.1580 H   0  0  0  0  0  0  0  0  0  0  0  0
   44.3080   31.4100   37.9920 C   0  0  1  0  0  3  0  0  0  0  0  0
   44.8620   33.1240   38.3090 S   0  0  0  0  0  0  0  0  0  0  0  0
   43.3810   33.9500   38.8720 C   0  0  0  0  0  3  0  0  0  0  0  0
   43.4920   34.0910   39.9880 H   0  0  0  0  0  0  0  0  0  0  0  0
   40.5940   31.6820   37.5290 C   0  0  0  0  0  0  0  0  0  0  0  0
   39.9060   30.6860   37.8570 O   0  0  0  0  0  0  0  0  0  0  0  0
   39.6820   32.2840   36.6920 O   0  0  0  0  0  0  0  0  0  0  0  0
   38.7050   32.5150   36.9310 H   0  0  0  0  0  0  0  0  0  0  0  0
  1  2  2  0  0  0  0
  2 31  1  0  0  0  0
  2  3  1  0  0  0  0
  3  4  1  0  0  0  0
  3  7  1  0  0  0  0
  4  5  2  0  0  0  0
  4  6  1  0  0  0  0
  6 10  1  1  0  0  0
  7  6  1  0  0  0  0
  7 11  1  1  0  0  0
  8  7  1  0  0  0  0
  9  1  1  0  0  0  0
  9 13  1  0  0  0  0
  9  8  1  0  0  0  0
 12  9  1  0  0  0  0
 14 16  1  0  0  0  0
 14  6  1  0  0  0  0
 15 14  2  0  0  0  0
 16 17  1  0  0  0  0
 18 24  1  0  0  0  0
 18 19  1  0  0  0  0
 19 25  1  0  0  0  0
 20 19  2  0  0  0  0
 20 16  1  0  0  0  0
 21 20  1  0  0  0  0
 22 23  1  0  0  0  0
 22 21  2  0  0  0  0
 23 18  2  0  0  0  0
 26 22  1  0  0  0  0
 27 30  1  0  0  0  0
 27  1  1  0  0  0  0
 28 27  1  0  0  0  0
 29 27  1  0  0  0  0
 31 32  2  0  0  0  0
 33 31  1  0  0  0  0
 34 33  1  0  0  0  0
 35 44  1  0  0  0  0
 35 34  1  0  0  0  0
 36 35  2  0  0  0  0
 37 36  1  0  0  0  0
 37 42  1  0  0  0  0
 38 40  1  0  0  0  0
 38 37  1  0  0  0  0
 39 38  2  0  0  0  0
 41 40  1  0  0  0  0
 42 40  1  6  0  0  0
 42 43  1  0  0  0  0
 43 44  1  0  0  0  0
 44 45  1  0  0  0  0
 46 36  1  0  0  0  0
 46 47  2  0  0  0  0
 48 49  1  0  0  0  0
 48 46  1  0  0  0  0
M  END
>  <minimizedAffinity>
-6.49000406

$$$$

 OpenBabel03252503373D

 49 53  0  0  1  0  0  0  0  0999 V2000
   36.4580   27.9320   39.7910 C   0  0  0  0  0  0  0  0  0  0  0  0
   36.6770   28.8450   40.7360 C   0  0  0  0  0  0  0  0  0  0  0  0
   37.2960   28.4770   41.9560 N   0  0  0  0  0  0  0  0  0  0  0  0
   38.1680   28.7860   43.0250 C   0  0  0  0  0  0  0  0  0  0  0  0
   38.8260   29.8080   43.3900 O   0  0  0  0  0  0  0  0  0  0  0  0
   38.0910   27.4740   43.6480 C   0  0  1  0  0  0  0  0  0  0  0  0
   37.0490   27.1960   42.5880 C   0  0  2  0  0  0  0  0  0  0  0  0
   37.4590   25.9210   41.3930 S   0  0  0  0  0  0  0  0  0  0  0  0
   36.7920   26.4780   39.8260 C   0  0  0  0  0  0  0  0  0  0  0  0
   37.6400   27.4660   44.6670 H   0  0  0  0  0  0  0  0  0  0  0  0
   36.0220   27.1410   43.0090 H   0  0  0  0  0  0  0  0  0  0  0  0
   37.5430   26.3120   39.0260 H   0  0  0  0  0  0  0  0  0  0  0  0
   35.9020   25.8750   39.5600 H   0  0  0  0  0  0  0  0  0  0  0  0
   39.3330   26.7200   43.5660 C   0  0  0  0  0  0  0  0  0  0  0  0
   39.6080   25.5110   43.6620 O   0  0  0  0  0  0  0  0  0  0  0  0
   40.4880   27.5510   43.3200 N   0  0  0  0  0  0  0  0  0  0  0  0
   40.6310   28.5770   43.1760 H   0  0  0  0  0  0  0  0  0  0  0  0
   43.8780   26.3160   44.1870 C   0  0  0  0  0  0  0  0  0  0  0  0
   42.5950   26.8410   44.3310 C   0  0  0  0  0  0  0  0  0  0  0  0
   41.7900   26.9990   43.2230 C   0  0  0  0  0  0  0  0  0  0  0  0
   42.2700   26.6370   42.0220 N   0  0  0  0  0  0  0  0  0  0  0  0
   43.5280   26.1220   41.8860 C   0  0  0  0  0  0  0  0  0  0  0  0
   44.3070   25.9720   42.9680 N   0  0  0  0  0  0  0  0  0  0  0  0
   44.5290   26.1810   45.0390 H   0  0  0  0  0  0  0  0  0  0  0  0
   42.2500   27.1180   45.3090 H   0  0  0  0  0  0  0  0  0  0  0  0
   43.8260   25.8600   40.8810 H   0  0  0  0  0  0  0  0  0  0  0  0
   35.7990   28.4390   38.5630 C   0  0  0  0  0  0  0  0  0  0  0  0
   36.5650   28.5920   37.7500 H   0  0  0  0  0  0  0  0  0  0  0  0
   35.1230   27.6290   38.1810 H   0  0  0  0  0  0  0  0  0  0  0  0
   35.2480   29.3690   38.7040 H   0  0  0  0  0  0  0  0  0  0  0  0
   36.2920   30.2320   40.5520 C   0  0  0  0  0  0  0  0  0  0  0  0
   35.5830   30.8660   41.3620 O   0  0  0  0  0  0  0  0  0  0  0  0
   36.5540   31.1570   39.5580 O   0  0  0  0  0  0  0  0  0  0  0  0
   37.2570   32.3640   39.8080 C   0  0  0  0  0  2  0  0  0  0  0  0
   38.6980   32.0620   39.6690 C   0  0  0  0  0  0  0  0  0  0  0  0
   39.3000   31.7100   38.5690 C   0  0  0  0  0  0  0  0  0  0  0  0
   40.6780   31.4550   38.6120 N   0  0  0  0  0  0  0  0  0  0  0  0
   41.9550   31.5250   37.9430 C   0  0  0  0  0  0  0  0  0  0  0  0
   42.3630   31.7590   36.7560 O   0  0  0  0  0  0  0  0  0  0  0  0
   42.7200   31.2200   39.1540 C   0  0  0  0  0  3  0  0  0  0  0  0
   43.1880   32.1400   39.5690 H   0  0  0  0  0  0  0  0  0  0  0  0
   41.3770   30.8490   39.7210 C   0  0  1  0  0  3  0  0  0  0  0  0
   41.0100   31.9040   41.1680 S   0  0  0  0  0  0  0  0  0  0  0  0
   39.2630   32.2430   41.0130 C   0  0  0  0  0  3  0  0  0  0  0  0
   38.7390   31.6130   41.7920 H   0  0  0  0  0  0  0  0  0  0  0  0
   38.6050   31.5650   37.2940 C   0  0  0  0  0  0  0  0  0  0  0  0
   37.7460   30.8050   36.7870 O   0  0  0  0  0  0  0  0  0  0  0  0
   38.8030   32.3900   36.2110 O   0  0  0  0  0  0  0  0  0  0  0  0
   38.0650   32.8880   35.6890 H   0  0  0  0  0  0  0  0  0  0  0  0
  1  9  1  0  0  0  0
  1  2  2  0  0  0  0
  2  3  1  0  0  0  0
  3  7  1  0  0  0  0
  3  4  1  0  0  0  0
  4  5  2  0  0  0  0
  4  6  1  0  0  0  0
  6 10  1  1  0  0  0
  7 11  1  1  0  0  0
  7  6  1  0  0  0  0
  8  7  1  0  0  0  0
  9  8  1  0  0  0  0
 12  9  1  0  0  0  0
 13  9  1  0  0  0  0
 14  6  1  0  0  0  0
 14 15  2  0  0  0  0
 16 14  1  0  0  0  0
 17 16  1  0  0  0  0
 18 19  1  0  0  0  0
 18 24  1  0  0  0  0
 19 25  1  0  0  0  0
 20 16  1  0  0  0  0
 20 19  2  0  0  0  0
 21 20  1  0  0  0  0
 22 21  2  0  0  0  0
 22 23  1  0  0  0  0
 23 18  2  0  0  0  0
 26 22  1  0  0  0  0
 27 30  1  0  0  0  0
 27  1  1  0  0  0  0
 28 27  1  0  0  0  0
 29 27  1  0  0  0  0
 31  2  1  0  0  0  0
 31 32  2  0  0  0  0
 33 34  1  0  0  0  0
 33 31  1  0  0  0  0
 35 34  1  0  0  0  0
 35 44  1  0  0  0  0
 36 37  1  0  0  0  0
 36 35  2  0  0  0  0
 37 42  1  0  0  0  0
 38 37  1  0  0  0  0
 38 40  1  0  0  0  0
 39 38  2  0  0  0  0
 40 41  1  0  0  0  0
 42 40  1  6  0  0  0
 42 43  1  0  0  0  0
 44 43  1  0  0  0  0
 44 45  1  0  0  0  0
 46 36  1  0  0  0  0
 47 46  2  0  0  0  0
 48 46  1  0  0  0  0
 49 48  1  0  0  0  0
M  END
>  <minimizedAffinity>
-6.37605762

$$$$

 OpenBabel03252503373D

 49 53  0  0  1  0  0  0  0  0999 V2000
   37.8380   30.1560   38.8670 C   0  0  0  0  0  0  0  0  0  0  0  0
   38.2190   30.9800   39.8420 C   0  0  0  0  0  0  0  0  0  0  0  0
   38.3320   30.5090   41.1730 N   0  0  0  0  0  0  0  0  0  0  0  0
   38.9940   30.5250   42.4220 C   0  0  0  0  0  0  0  0  0  0  0  0
   39.9320   31.2050   42.9400 O   0  0  0  0  0  0  0  0  0  0  0  0
   38.2220   29.4380   43.0000 C   0  0  1  0  0  0  0  0  0  0  0  0
   37.4220   29.5220   41.7190 C   0  0  2  0  0  0  0  0  0  0  0  0
   37.4900   28.0810   40.6510 S   0  0  0  0  0  0  0  0  0  0  0  0
   37.4920   28.7090   38.9730 C   0  0  0  0  0  0  0  0  0  0  0  0
   37.6000   29.7220   43.8810 H   0  0  0  0  0  0  0  0  0  0  0  0
   36.4080   29.9470   41.8810 H   0  0  0  0  0  0  0  0  0  0  0  0
   38.2520   28.1620   38.3760 H   0  0  0  0  0  0  0  0  0  0  0  0
   36.5110   28.5140   38.4970 H   0  0  0  0  0  0  0  0  0  0  0  0
   38.9970   28.2260   43.2160 C   0  0  0  0  0  0  0  0  0  0  0  0
   38.7110   27.0890   43.6310 O   0  0  0  0  0  0  0  0  0  0  0  0
   40.3930   28.3750   42.8730 N   0  0  0  0  0  0  0  0  0  0  0  0
   40.9700   29.1590   42.4930 H   0  0  0  0  0  0  0  0  0  0  0  0
   42.3390   25.2720   42.2800 C   0  0  0  0  0  0  0  0  0  0  0  0
   41.4390   26.3180   42.0770 C   0  0  0  0  0  0  0  0  0  0  0  0
   41.3110   27.3080   43.0280 C   0  0  0  0  0  0  0  0  0  0  0  0
   42.0660   27.2370   44.1360 N   0  0  0  0  0  0  0  0  0  0  0  0
   42.9470   26.2110   44.3310 C   0  0  0  0  0  0  0  0  0  0  0  0
   43.0670   25.2500   43.4020 N   0  0  0  0  0  0  0  0  0  0  0  0
   42.4600   24.4840   41.5510 H   0  0  0  0  0  0  0  0  0  0  0  0
   40.8550   26.3370   41.1770 H   0  0  0  0  0  0  0  0  0  0  0  0
   43.5100   26.2390   45.2530 H   0  0  0  0  0  0  0  0  0  0  0  0
   37.7520   30.7690   37.5190 C   0  0  0  0  0  0  0  0  0  0  0  0
   38.6660   30.5020   36.9150 H   0  0  0  0  0  0  0  0  0  0  0  0
   36.8930   30.2860   36.9810 H   0  0  0  0  0  0  0  0  0  0  0  0
   37.6420   31.8530   37.5280 H   0  0  0  0  0  0  0  0  0  0  0  0
   38.5240   32.3740   39.5780 C   0  0  0  0  0  0  0  0  0  0  0  0
   37.7900   33.3210   39.9310 O   0  0  0  0  0  0  0  0  0  0  0  0
   39.5790   33.0020   38.9400 O   0  0  0  0  0  0  0  0  0  0  0  0
   40.3370   34.0300   39.5580 C   0  0  0  0  0  2  0  0  0  0  0  0
   41.6840   33.4760   39.8180 C   0  0  0  0  0  0  0  0  0  0  0  0
   42.5180   33.0470   38.9160 C   0  0  0  0  0  0  0  0  0  0  0  0
   43.7600   32.5470   39.3350 N   0  0  0  0  0  0  0  0  0  0  0  0
   45.1710   32.4020   39.0700 C   0  0  0  0  0  0  0  0  0  0  0  0
   45.9470   32.5850   38.0720 O   0  0  0  0  0  0  0  0  0  0  0  0
   45.4800   31.9350   40.4240 C   0  0  0  0  0  3  0  0  0  0  0  0
   45.9490   32.7460   41.0240 H   0  0  0  0  0  0  0  0  0  0  0  0
   43.9880   31.8000   40.5500 C   0  0  1  0  0  3  0  0  0  0  0  0
   43.3860   32.8710   41.9040 S   0  0  0  0  0  0  0  0  0  0  0  0
   41.8450   33.5220   41.2770 C   0  0  0  0  0  3  0  0  0  0  0  0
   41.0170   32.9790   41.8230 H   0  0  0  0  0  0  0  0  0  0  0  0
   42.2210   33.0590   37.4870 C   0  0  0  0  0  0  0  0  0  0  0  0
   41.7610   32.2680   36.6290 O   0  0  0  0  0  0  0  0  0  0  0  0
   42.4290   34.1430   36.6650 O   0  0  0  0  0  0  0  0  0  0  0  0
   41.7270   34.5700   36.0410 H   0  0  0  0  0  0  0  0  0  0  0  0
  1  9  1  0  0  0  0
  1  2  2  0  0  0  0
  2  3  1  0  0  0  0
  3  7  1  0  0  0  0
  3  4  1  0  0  0  0
  4  5  2  0  0  0  0
  4  6  1  0  0  0  0
  6 14  1  0  0  0  0
  6 10  1  1  0  0  0
  7 11  1  1  0  0  0
  7  6  1  0  0  0  0
  8  7  1  0  0  0  0
  9  8  1  0  0  0  0
 12  9  1  0  0  0  0
 13  9  1  0  0  0  0
 14 15  2  0  0  0  0
 16 20  1  0  0  0  0
 16 14  1  0  0  0  0
 17 16  1  0  0  0  0
 18 23  1  0  0  0  0
 19 18  2  0  0  0  0
 19 20  1  0  0  0  0
 20 21  2  0  0  0  0
 21 22  1  0  0  0  0
 22 26  1  0  0  0  0
 23 22  2  0  0  0  0
 24 18  1  0  0  0  0
 25 19  1  0  0  0  0
 27 30  1  0  0  0  0
 27  1  1  0  0  0  0
 28 27  1  0  0  0  0
 29 27  1  0  0  0  0
 31  2  1  0  0  0  0
 31 32  2  0  0  0  0
 33 34  1  0  0  0  0
 33 31  1  0  0  0  0
 34 35  1  0  0  0  0
 35 44  1  0  0  0  0
 36 37  1  0  0  0  0
 36 35  2  0  0  0  0
 37 42  1  0  0  0  0
 38 37  1  0  0  0  0
 38 40  1  0  0  0  0
 39 38  2  0  0  0  0
 40 41  1  0  0  0  0
 42 40  1  1  0  0  0
 42 43  1  0  0  0  0
 44 45  1  0  0  0  0
 44 43  1  0  0  0  0
 46 36  1  0  0  0  0
 47 46  2  0  0  0  0
 48 46  1  0  0  0  0
 49 48  1  0  0  0  0
M  END
>  <minimizedAffinity>
-6.25887537

$$$$

 OpenBabel03252503373D

 49 53  0  0  1  0  0  0  0  0999 V2000
   36.8900   26.9190   39.6120 C   0  0  0  0  0  0  0  0  0  0  0  0
   36.7060   27.9590   40.4240 C   0  0  0  0  0  0  0  0  0  0  0  0
   37.4530   28.0720   41.6220 N   0  0  0  0  0  0  0  0  0  0  0  0
   38.1250   28.8770   42.5710 C   0  0  0  0  0  0  0  0  0  0  0  0
   38.2700   30.1240   42.7580 O   0  0  0  0  0  0  0  0  0  0  0  0
   38.6520   27.7650   43.3440 C   0  0  1  0  0  0  0  0  0  0  0  0
   37.8160   26.9150   42.4150 C   0  0  2  0  0  0  0  0  0  0  0  0
   38.7190   25.7930   41.3440 S   0  0  0  0  0  0  0  0  0  0  0  0
   37.8350   25.7770   39.7860 C   0  0  0  0  0  0  0  0  0  0  0  0
   38.2770   27.7040   44.3920 H   0  0  0  0  0  0  0  0  0  0  0  0
   36.9300   26.4770   42.9250 H   0  0  0  0  0  0  0  0  0  0  0  0
   38.5610   25.8440   38.9490 H   0  0  0  0  0  0  0  0  0  0  0  0
   37.2990   24.8150   39.6660 H   0  0  0  0  0  0  0  0  0  0  0  0
   40.0970   27.6250   43.2460 C   0  0  0  0  0  0  0  0  0  0  0  0
   40.9490   28.0700   42.4560 O   0  0  0  0  0  0  0  0  0  0  0  0
   40.6600   26.7950   44.2850 N   0  0  0  0  0  0  0  0  0  0  0  0
   40.2610   26.2780   45.1020 H   0  0  0  0  0  0  0  0  0  0  0  0
   44.2380   26.8930   45.2650 C   0  0  0  0  0  0  0  0  0  0  0  0
   42.8710   27.1680   45.2530 C   0  0  0  0  0  0  0  0  0  0  0  0
   42.0500   26.5280   44.3480 C   0  0  0  0  0  0  0  0  0  0  0  0
   42.5970   25.6470   43.4940 N   0  0  0  0  0  0  0  0  0  0  0  0
   43.9370   25.3800   43.5100 C   0  0  0  0  0  0  0  0  0  0  0  0
   44.7310   26.0070   44.3930 N   0  0  0  0  0  0  0  0  0  0  0  0
   44.9030   27.3800   45.9630 H   0  0  0  0  0  0  0  0  0  0  0  0
   42.4740   27.8780   45.9520 H   0  0  0  0  0  0  0  0  0  0  0  0
   44.2840   24.6580   42.7860 H   0  0  0  0  0  0  0  0  0  0  0  0
   36.0450   26.9100   38.3940 C   0  0  0  0  0  0  0  0  0  0  0  0
   36.6430   27.2650   37.5070 H   0  0  0  0  0  0  0  0  0  0  0  0
   35.7890   25.8410   38.1660 H   0  0  0  0  0  0  0  0  0  0  0  0
   35.1420   27.5150   38.4720 H   0  0  0  0  0  0  0  0  0  0  0  0
   35.7410   28.9980   40.1150 C   0  0  0  0  0  0  0  0  0  0  0  0
   34.5270   28.9200   40.3980 O   0  0  0  0  0  0  0  0  0  0  0  0
   35.8510   30.2290   39.4940 O   0  0  0  0  0  0  0  0  0  0  0  0
   36.7780   30.4730   38.4480 C   0  0  0  0  0  2  0  0  0  0  0  0
   37.8880   31.2590   39.0290 C   0  0  0  0  0  0  0  0  0  0  0  0
   39.1080   30.8390   39.2050 C   0  0  0  0  0  0  0  0  0  0  0  0
   40.0420   31.7150   39.7760 N   0  0  0  0  0  0  0  0  0  0  0  0
   41.4070   32.1800   39.8290 C   0  0  0  0  0  0  0  0  0  0  0  0
   42.5370   31.7780   39.3900 O   0  0  0  0  0  0  0  0  0  0  0  0
   41.0770   33.3720   40.6150 C   0  0  0  0  0  3  0  0  0  0  0  0
   41.0750   34.2800   39.9730 H   0  0  0  0  0  0  0  0  0  0  0  0
   39.7500   32.6910   40.8000 C   0  0  1  0  0  3  0  0  0  0  0  0
   38.4200   33.7410   40.1120 S   0  0  0  0  0  0  0  0  0  0  0  0
   37.3080   32.5700   39.3480 C   0  0  0  0  0  3  0  0  0  0  0  0
   36.4040   32.4920   40.0220 H   0  0  0  0  0  0  0  0  0  0  0  0
   39.5480   29.4960   38.8410 C   0  0  0  0  0  0  0  0  0  0  0  0
   39.4980   28.7430   37.8390 O   0  0  0  0  0  0  0  0  0  0  0  0
   40.2240   28.6500   39.6900 O   0  0  0  0  0  0  0  0  0  0  0  0
   41.1170   28.1760   39.4830 H   0  0  0  0  0  0  0  0  0  0  0  0
  1  9  1  0  0  0  0
  1  2  2  0  0  0  0
  2  3  1  0  0  0  0
  3  7  1  0  0  0  0
  3  4  1  0  0  0  0
  4  5  2  0  0  0  0
  4  6  1  0  0  0  0
  6 10  1  1  0  0  0
  7 11  1  1  0  0  0
  7  6  1  0  0  0  0
  8  7  1  0  0  0  0
  9  8  1  0  0  0  0
 12  9  1  0  0  0  0
 13  9  1  0  0  0  0
 14  6  1  0  0  0  0
 14 16  1  0  0  0  0
 15 14  2  0  0  0  0
 16 20  1  0  0  0  0
 16 17  1  0  0  0  0
 18 24  1  0  0  0  0
 19 18  1  0  0  0  0
 19 25  1  0  0  0  0
 20 19  2  0  0  0  0
 21 22  2  0  0  0  0
 21 20  1  0  0  0  0
 22 23  1  0  0  0  0
 23 18  2  0  0  0  0
 26 22  1  0  0  0  0
 27 30  1  0  0  0  0
 27  1  1  0  0  0  0
 28 27  1  0  0  0  0
 29 27  1  0  0  0  0
 31 32  2  0  0  0  0
 31  2  1  0  0  0  0
 33 31  1  0  0  0  0
 34 35  1  0  0  0  0
 34 33  1  0  0  0  0
 35 36  2  0  0  0  0
 35 44  1  0  0  0  0
 36 37  1  0  0  0  0
 37 38  1  0  0  0  0
 37 42  1  0  0  0  0
 38 40  1  0  0  0  0
 39 38  2  0  0  0  0
 40 42  1  0  0  0  0
 41 40  1  0  0  0  0
 42 43  1  6  0  0  0
 44 45  1  0  0  0  0
 44 43  1  0  0  0  0
 46 36  1  0  0  0  0
 46 48  1  0  0  0  0
 47 46  2  0  0  0  0
 49 48  1  0  0  0  0
M  END
>  <minimizedAffinity>
-6.22367907

$$$$

 OpenBabel03252503373D

 49 53  0  0  1  0  0  0  0  0999 V2000
   39.9200   27.8730   43.2490 C   0  0  0  0  0  0  0  0  0  0  0  0
   38.9070   28.7100   43.0310 C   0  0  0  0  0  0  0  0  0  0  0  0
   39.1460   29.9940   42.4830 N   0  0  0  0  0  0  0  0  0  0  0  0
   38.7420   31.0590   41.6460 C   0  0  0  0  0  0  0  0  0  0  0  0
   37.7080   31.3290   40.9610 O   0  0  0  0  0  0  0  0  0  0  0  0
   39.9630   31.8310   41.8080 C   0  0  1  0  0  0  0  0  0  0  0  0
   40.3290   30.7630   42.8130 C   0  0  2  0  0  0  0  0  0  0  0  0
   41.7550   29.7530   42.4070 S   0  0  0  0  0  0  0  0  0  0  0  0
   41.3700   28.0990   42.9800 C   0  0  0  0  0  0  0  0  0  0  0  0
   39.8290   32.8210   42.3030 H   0  0  0  0  0  0  0  0  0  0  0  0
   40.2930   31.1380   43.8600 H   0  0  0  0  0  0  0  0  0  0  0  0
   41.6620   27.3630   42.2030 H   0  0  0  0  0  0  0  0  0  0  0  0
   41.9680   27.8650   43.8830 H   0  0  0  0  0  0  0  0  0  0  0  0
   40.7680   31.9030   40.5980 C   0  0  0  0  0  0  0  0  0  0  0  0
   40.7950   31.2380   39.5470 O   0  0  0  0  0  0  0  0  0  0  0  0
   41.7380   32.9720   40.6230 N   0  0  0  0  0  0  0  0  0  0  0  0
   41.9860   33.7160   41.3140 H   0  0  0  0  0  0  0  0  0  0  0  0
   43.1800   34.1790   37.4240 C   0  0  0  0  0  0  0  0  0  0  0  0
   42.2870   34.0080   38.4800 C   0  0  0  0  0  0  0  0  0  0  0  0
   42.6250   33.1920   39.5400 C   0  0  0  0  0  0  0  0  0  0  0  0
   43.8190   32.5790   39.5240 N   0  0  0  0  0  0  0  0  0  0  0  0
   44.6920   32.7500   38.4860 C   0  0  0  0  0  0  0  0  0  0  0  0
   44.3570   33.5440   37.4580 N   0  0  0  0  0  0  0  0  0  0  0  0
   42.9400   34.8120   36.5810 H   0  0  0  0  0  0  0  0  0  0  0  0
   41.3430   34.5170   38.4540 H   0  0  0  0  0  0  0  0  0  0  0  0
   45.6280   32.2160   38.5620 H   0  0  0  0  0  0  0  0  0  0  0  0
   39.5430   26.5620   43.8300 C   0  0  0  0  0  0  0  0  0  0  0  0
   39.5210   25.7750   43.0230 H   0  0  0  0  0  0  0  0  0  0  0  0
   40.3680   26.2480   44.5230 H   0  0  0  0  0  0  0  0  0  0  0  0
   38.5830   26.5610   44.3460 H   0  0  0  0  0  0  0  0  0  0  0  0
   37.5400   28.3410   43.3470 C   0  0  0  0  0  0  0  0  0  0  0  0
   37.0810   28.3170   44.5080 O   0  0  0  0  0  0  0  0  0  0  0  0
   36.4660   27.9530   42.5660 O   0  0  0  0  0  0  0  0  0  0  0  0
   36.5300   26.8440   41.6830 C   0  0  0  0  0  2  0  0  0  0  0  0
   37.0630   27.3450   40.3980 C   0  0  0  0  0  0  0  0  0  0  0  0
   36.5490   28.3040   39.6820 C   0  0  0  0  0  0  0  0  0  0  0  0
   37.1800   28.6550   38.4800 N   0  0  0  0  0  0  0  0  0  0  0  0
   37.5410   29.6970   37.5490 C   0  0  0  0  0  0  0  0  0  0  0  0
   37.2230   30.9200   37.3620 O   0  0  0  0  0  0  0  0  0  0  0  0
   38.4770   28.8490   36.8070 C   0  0  0  0  0  3  0  0  0  0  0  0
   39.5290   29.0930   37.0750 H   0  0  0  0  0  0  0  0  0  0  0  0
   37.8400   27.7320   37.5880 C   0  0  1  0  0  3  0  0  0  0  0  0
   39.1080   26.8900   38.6010 S   0  0  0  0  0  0  0  0  0  0  0  0
   38.2580   26.5350   40.1320 C   0  0  0  0  0  3  0  0  0  0  0  0
   38.0390   25.4260   40.1320 H   0  0  0  0  0  0  0  0  0  0  0  0
   35.3430   29.0280   40.0710 C   0  0  0  0  0  0  0  0  0  0  0  0
   34.1260   29.0350   39.7670 O   0  0  0  0  0  0  0  0  0  0  0  0
   35.3140   30.0240   41.0210 O   0  0  0  0  0  0  0  0  0  0  0  0
   34.6830   30.0610   41.8360 H   0  0  0  0  0  0  0  0  0  0  0  0
  1 27  1  0  0  0  0
  2  1  2  0  0  0  0
  2 31  1  0  0  0  0
  3  7  1  0  0  0  0
  3  2  1  0  0  0  0
  4  6  1  0  0  0  0
  4  3  1  0  0  0  0
  5  4  2  0  0  0  0
  6 10  1  1  0  0  0
  6  7  1  0  0  0  0
  7 11  1  1  0  0  0
  8  7  1  0  0  0  0
  8  9  1  0  0  0  0
  9  1  1  0  0  0  0
  9 13  1  0  0  0  0
 12  9  1  0  0  0  0
 14 16  1  0  0  0  0
 14  6  1  0  0  0  0
 15 14  2  0  0  0  0
 16 17  1  0  0  0  0
 18 23  2  0  0  0  0
 18 19  1  0  0  0  0
 19 20  2  0  0  0  0
 20 16  1  0  0  0  0
 21 20  1  0  0  0  0
 22 26  1  0  0  0  0
 22 21  2  0  0  0  0
 23 22  1  0  0  0  0
 24 18  1  0  0  0  0
 25 19  1  0  0  0  0
 27 30  1  0  0  0  0
 27 29  1  0  0  0  0
 28 27  1  0  0  0  0
 31 32  2  0  0  0  0
 33 31  1  0  0  0  0
 34 33  1  0  0  0  0
 35 34  1  0  0  0  0
 36 46  1  0  0  0  0
 36 35  2  0  0  0  0
 37 36  1  0  0  0  0
 38 37  1  0  0  0  0
 39 38  2  0  0  0  0
 40 41  1  0  0  0  0
 40 38  1  0  0  0  0
 42 40  1  6  0  0  0
 42 37  1  0  0  0  0
 42 43  1  0  0  0  0
 43 44  1  0  0  0  0
 44 45  1  0  0  0  0
 44 35  1  0  0  0  0
 46 48  1  0  0  0  0
 47 46  2  0  0  0  0
 48 49  1  0  0  0  0
M  END
>  <minimizedAffinity>
-6.194489

$$$$
