
 OpenBabel03252503363D

 49 53  0  0  1  0  0  0  0  0999 V2000
   48.0630   33.7180   42.3160 C   0  0  0  0  0  0  0  0  0  0  0  0
   47.7760   32.6280   41.6050 C   0  0  0  0  0  0  0  0  0  0  0  0
   48.8120   31.7640   41.1730 N   0  0  0  0  0  0  0  0  0  0  0  0
   49.2780   30.4570   40.9010 C   0  0  0  0  0  0  0  0  0  0  0  0
   48.7630   29.2980   40.8850 O   0  0  0  0  0  0  0  0  0  0  0  0
   50.6470   30.8570   40.6170 C   0  0  1  0  0  0  0  0  0  0  0  0
   50.1110   32.2630   40.7660 C   0  0  2  0  0  0  0  0  0  0  0  0
   50.7700   33.2180   42.1350 S   0  0  0  0  0  0  0  0  0  0  0  0
   49.4050   34.1960   42.7590 C   0  0  0  0  0  0  0  0  0  0  0  0
   50.9840   30.6640   39.5730 H   0  0  0  0  0  0  0  0  0  0  0  0
   50.0550   32.8000   39.7940 H   0  0  0  0  0  0  0  0  0  0  0  0
   49.3990   34.1560   43.8680 H   0  0  0  0  0  0  0  0  0  0  0  0
   49.5440   35.2590   42.4790 H   0  0  0  0  0  0  0  0  0  0  0  0
   51.6020   30.4050   41.6180 C   0  0  0  0  0  0  0  0  0  0  0  0
   52.8410   30.3030   41.6340 O   0  0  0  0  0  0  0  0  0  0  0  0
   50.9780   29.9910   42.8530 N   0  0  0  0  0  0  0  0  0  0  0  0
   49.9910   29.9530   43.1940 H   0  0  0  0  0  0  0  0  0  0  0  0
   52.3680   27.7820   45.4910 C   0  0  0  0  0  0  0  0  0  0  0  0
   51.6120   28.2120   44.4010 C   0  0  0  0  0  0  0  0  0  0  0  0
   51.7430   29.5060   43.9430 C   0  0  0  0  0  0  0  0  0  0  0  0
   52.6060   30.3250   44.5660 N   0  0  0  0  0  0  0  0  0  0  0  0
   53.3450   29.8990   45.6330 C   0  0  0  0  0  0  0  0  0  0  0  0
   53.2120   28.6390   46.0750 N   0  0  0  0  0  0  0  0  0  0  0  0
   52.2850   26.7740   45.8700 H   0  0  0  0  0  0  0  0  0  0  0  0
   50.9340   27.5250   43.9320 H   0  0  0  0  0  0  0  0  0  0  0  0
   54.0110   30.6290   46.0690 H   0  0  0  0  0  0  0  0  0  0  0  0
   46.8940   34.5440   42.7040 C   0  0  0  0  0  0  0  0  0  0  0  0
   46.6180   34.3400   43.7780 H   0  0  0  0  0  0  0  0  0  0  0  0
   47.2180   35.6190   42.6840 H   0  0  0  0  0  0  0  0  0  0  0  0
   46.0140   34.3940   42.0800 H   0  0  0  0  0  0  0  0  0  0  0  0
   46.4100   32.2940   41.2500 C   0  0  0  0  0  0  0  0  0  0  0  0
   45.9320   32.4590   40.1080 O   0  0  0  0  0  0  0  0  0  0  0  0
   45.3540   31.7630   41.9690 O   0  0  0  0  0  0  0  0  0  0  0  0
   45.1940   30.3660   42.1640 C   0  0  0  0  0  2  0  0  0  0  0  0
   43.7490   30.1220   42.3660 C   0  0  0  0  0  0  0  0  0  0  0  0
   43.2150   29.5070   43.3830 C   0  0  0  0  0  0  0  0  0  0  0  0
   41.8230   29.3540   43.4170 N   0  0  0  0  0  0  0  0  0  0  0  0
   40.6170   29.3070   44.2100 C   0  0  0  0  0  0  0  0  0  0  0  0
   40.3330   29.2160   45.4530 O   0  0  0  0  0  0  0  0  0  0  0  0
   39.7290   29.4030   43.0500 C   0  0  0  0  0  3  0  0  0  0  0  0
   39.3070   30.4280   42.9590 H   0  0  0  0  0  0  0  0  0  0  0  0
   40.9820   29.1320   42.2640 C   0  0  1  0  0  3  0  0  0  0  0  0
   41.3140   30.5310   41.1360 S   0  0  0  0  0  0  0  0  0  0  0  0
   43.0900   30.7100   41.1920 C   0  0  0  0  0  3  0  0  0  0  0  0
   43.4900   30.2980   40.2180 H   0  0  0  0  0  0  0  0  0  0  0  0
   44.0030   28.9660   44.4870 C   0  0  0  0  0  0  0  0  0  0  0  0
   44.7580   27.9890   44.6960 O   0  0  0  0  0  0  0  0  0  0  0  0
   44.0700   29.5400   45.7360 O   0  0  0  0  0  0  0  0  0  0  0  0
   44.9370   29.7850   46.2400 H   0  0  0  0  0  0  0  0  0  0  0  0
  1 27  1  0  0  0  0
  1  9  1  0  0  0  0
  2  1  2  0  0  0  0
  3  2  1  0  0  0  0
  4  3  1  0  0  0  0
  5  4  2  0  0  0  0
  6 10  1  6  0  0  0
  6  7  1  0  0  0  0
  6  4  1  0  0  0  0
  6 14  1  0  0  0  0
  7 11  1  6  0  0  0
  7  3  1  0  0  0  0
  7  8  1  0  0  0  0
  8  9  1  0  0  0  0
  9 12  1  0  0  0  0
 13  9  1  0  0  0  0
 14 15  2  0  0  0  0
 14 16  1  0  0  0  0
 16 17  1  0  0  0  0
 16 20  1  0  0  0  0
 18 24  1  0  0  0  0
 18 23  1  0  0  0  0
 19 18  2  0  0  0  0
 20 19  1  0  0  0  0
 20 21  2  0  0  0  0
 21 22  1  0  0  0  0
 22 26  1  0  0  0  0
 22 23  2  0  0  0  0
 25 19  1  0  0  0  0
 27 28  1  0  0  0  0
 29 27  1  0  0  0  0
 30 27  1  0  0  0  0
 31  2  1  0  0  0  0
 31 33  1  0  0  0  0
 32 31  2  0  0  0  0
 33 34  1  0  0  0  0
 34 35  1  0  0  0  0
 35 36  2  0  0  0  0
 36 37  1  0  0  0  0
 36 46  1  0  0  0  0
 37 38  1  0  0  0  0
 38 39  2  0  0  0  0
 40 38  1  0  0  0  0
 41 40  1  0  0  0  0
 42 43  1  6  0  0  0
 42 40  1  0  0  0  0
 42 37  1  0  0  0  0
 43 44  1  0  0  0  0
 44 35  1  0  0  0  0
 45 44  1  0  0  0  0
 46 47  2  0  0  0  0
 46 48  1  0  0  0  0
 48 49  1  0  0  0  0
M  END
>  <minimizedAffinity>
-3.95137978

>  <minimizedRMSD>
9.57119942

$$$$
