REMARK  Name = 
REMARK  9 active torsions:
REMARK  status: ('A' for Active; 'I' for Inactive)
REMARK    1  A    between atoms: C_1  and  C_19
REMARK    2  A    between atoms: C_2  and  C_20
REMARK    3  A    between atoms: C_6  and  C_10
REMARK    4  A    between atoms: N_12  and  C_15
REMARK    5  A    between atoms: C_20  and  O_22
REMARK    6  A    between atoms: O_22  and  C_34
REMARK    7  A    between atoms: C_34  and  C_35
REMARK    8  A    between atoms: C_36  and  C_37
REMARK    9  A    between atoms: C_37  and  O_39
REMARK                            x       y       z     vdW  Elec       q    Type
REMARK                         _______ _______ _______ _____ _____    ______ ____
ROOT
ATOM      1  C   UNL     1      49.169  30.377  40.558  0.00  0.00    +0.000 C 
ATOM      2  C   UNL     1      49.715  31.583  40.412  0.00  0.00    +0.000 C 
ATOM      3  N   UNL     1      48.894  32.735  40.334  0.00  0.00    +0.000 N 
ATOM      4  C   UNL     1      48.674  34.100  40.629  0.00  0.00    +0.000 C 
ATOM      5  O   UNL     1      49.356  35.034  41.152  0.00  0.00    +0.000 OA
ATOM      6  C   UNL     1      47.315  34.134  40.114  0.00  0.00    +0.000 C 
ATOM      7  C   UNL     1      47.606  32.718  39.670  0.00  0.00    +0.000 C 
ATOM      8  S   UNL     1      46.622  31.431  40.442  0.00  0.00    +0.000 S 
ATOM      9  C   UNL     1      47.721  30.033  40.663  0.00  0.00    +0.000 C 
ATOM     10  H   UNL     1      47.163  34.806  39.238  0.00  0.00    +0.000 HD
ATOM     11  H   UNL     1      47.717  32.635  38.567  0.00  0.00    +0.000 HD
ATOM     12  H   UNL     1      47.575  29.606  41.677  0.00  0.00    +0.000 HD
ATOM     13  H   UNL     1      47.464  29.234  39.940  0.00  0.00    +0.000 HD
ENDROOT
BRANCH   6  14
ATOM     14  C   UNL     1      46.307  34.307  41.149  0.00  0.00    +0.000 C 
ATOM     15  O   UNL     1      45.064  34.274  41.147  0.00  0.00    +0.000 OA
ATOM     16  N   UNL     1      46.870  34.570  42.453  0.00  0.00    +0.000 N 
ATOM     17  H   UNL     1      47.844  34.654  42.823  0.00  0.00    +0.000 HD
BRANCH  16  20
ATOM     18  C   UNL     1      44.435  36.057  44.825  0.00  0.00    +0.000 A 
ATOM     19  C   UNL     1      45.212  35.875  43.682  0.00  0.00    +0.000 A 
ATOM     20  C   UNL     1      46.046  34.781  43.586  0.00  0.00    +0.000 A 
ATOM     21  N   UNL     1      46.086  33.911  44.608  0.00  0.00    +0.000 NA
ATOM     22  C   UNL     1      45.322  34.093  45.726  0.00  0.00    +0.000 A 
ATOM     23  N   UNL     1      44.513  35.160  45.814  0.00  0.00    +0.000 NA
ATOM     24  H   UNL     1      43.773  36.905  44.926  0.00  0.00    +0.000 HD
ATOM     25  H   UNL     1      45.150  36.594  42.888  0.00  0.00    +0.000 HD
ATOM     26  H   UNL     1      45.422  33.341  46.495  0.00  0.00    +0.000 HD
ENDBRANCH  16  20
ENDBRANCH   6  14
BRANCH   1  27
ATOM     27  C   UNL     1      50.132  29.251  40.621  0.00  0.00    +0.000 C 
ATOM     28  H   UNL     1      50.281  28.931  41.692  0.00  0.00    +0.000 HD
ATOM     29  H   UNL     1      49.656  28.369  40.115  0.00  0.00    +0.000 HD
ATOM     30  H   UNL     1      51.105  29.470  40.182  0.00  0.00    +0.000 HD
ENDBRANCH   1  27
BRANCH   2  31
ATOM     31  C   UNL     1      51.153  31.757  40.325  0.00  0.00    +0.000 C 
ATOM     32  O   UNL     1      51.795  31.681  39.256  0.00  0.00    +0.000 OA
BRANCH  31  33
ATOM     33  O   UNL     1      52.127  32.024  41.270  0.00  0.00    +0.000 OA
BRANCH  33  34
ATOM     34  C   UNL     1      53.499  32.152  40.932  0.00  0.00    +0.000 C 
BRANCH  34  35
ATOM     35  C   UNL     1      54.172  30.913  41.380  0.00  0.00    +0.000 C 
ATOM     36  C   UNL     1      55.143  30.843  42.244  0.00  0.00    +0.000 C 
ATOM     37  N   UNL     1      55.675  29.584  42.555  0.00  0.00    +0.000 N 
ATOM     38  C   UNL     1      56.248  28.712  43.552  0.00  0.00    +0.000 C 
ATOM     39  O   UNL     1      56.721  28.843  44.731  0.00  0.00    +0.000 OA
ATOM     40  C   UNL     1      56.110  27.510  42.727  0.00  0.00    +0.000 C 
ATOM     41  H   UNL     1      55.250  26.892  43.068  0.00  0.00    +0.000 HD
ATOM     42  C   UNL     1      55.822  28.490  41.623  0.00  0.00    +0.000 C 
ATOM     43  S   UNL     1      54.148  28.187  40.954  0.00  0.00    +0.000 S 
ATOM     44  C   UNL     1      53.511  29.827  40.644  0.00  0.00    +0.000 C 
ATOM     45  H   UNL     1      53.539  29.981  39.525  0.00  0.00    +0.000 HD
BRANCH  36  46
ATOM     46  C   UNL     1      55.709  32.018  42.901  0.00  0.00    +0.000 C 
ATOM     47  O   UNL     1      55.535  33.259  42.893  0.00  0.00    +0.000 OA
BRANCH  46  48
ATOM     48  O   UNL     1      56.731  31.967  43.822  0.00  0.00    +0.000 OA
ATOM     49  H   UNL     1      56.715  32.390  44.763  0.00  0.00    +0.000 HD
ENDBRANCH  46  48
ENDBRANCH  36  46
ENDBRANCH  34  35
ENDBRANCH  33  34
ENDBRANCH  31  33
ENDBRANCH   2  31
TORSDOF 9
