
     RDKit          3D

 45 48  0  0  0  0  0  0  0  0999 V2000
   46.6566   34.7593   41.9734 C   0  0  0  0  0  0  0  0  0  0  0  0
   47.9214   35.3281   41.9039 C   0  0  0  0  0  0  0  0  0  0  0  0
   48.6415   35.1504   40.7334 C   0  0  0  0  0  0  0  0  0  0  0  0
   48.1150   34.4397   39.6937 C   0  0  0  0  0  0  0  0  0  0  0  0
   46.8644   33.8671   39.7392 C   0  0  0  0  0  0  0  0  0  0  0  0
   46.1391   34.0511   40.9299 C   0  0  0  0  0  0  0  0  0  0  0  0
   44.5137   36.1491   44.7502 C   0  0  0  0  0  0  0  0  0  0  0  0
   45.1612   36.0695   43.4908 C   0  0  0  0  0  0  0  0  0  0  0  0
   45.9336   34.9709   43.2290 C   0  0  0  0  0  0  0  0  0  0  0  0
   46.0281   34.0208   44.2049 N   0  0  0  0  0  0  0  0  0  0  0  0
   45.4101   34.1033   45.3989 C   0  0  0  0  0  0  0  0  0  0  0  0
   44.6460   35.1799   45.6706 N   0  0  0  0  0  0  0  0  0  0  0  0
   43.5412   33.9270   40.8102 C   0  0  0  0  0  0  0  0  0  0  0  0
   43.2212   34.9724   40.2673 O   0  0  0  0  0  0  0  0  0  0  0  0
   44.8476   33.5183   41.1300 N   0  0  0  0  0  0  0  0  0  0  0  0
   42.4944   33.0630   41.1397 O   0  0  0  0  0  0  0  0  0  0  0  0
   48.3564   35.8905   42.7069 H   0  0  0  0  0  0  0  0  0  0  0  0
   49.6322   35.5490   40.5732 H   0  0  0  0  0  0  0  0  0  0  0  0
   48.6521   34.2822   38.7645 H   0  0  0  0  0  0  0  0  0  0  0  0
   46.4096   33.2951   38.9352 H   0  0  0  0  0  0  0  0  0  0  0  0
   43.9319   37.0423   44.8663 H   0  0  0  0  0  0  0  0  0  0  0  0
   45.0659   36.8411   42.7371 H   0  0  0  0  0  0  0  0  0  0  0  0
   45.5748   33.2765   46.0754 H   0  0  0  0  0  0  0  0  0  0  0  0
   45.0448   32.6061   41.6468 H   0  0  0  0  0  0  0  0  0  0  0  0
   41.1740   33.4662   40.8213 C   0  0  0  0  0  0  0  0  0  0  0  0
   40.3381   32.2458   40.9325 C   0  0  0  0  0  0  0  0  0  0  0  0
   39.6665   31.7752   39.9253 C   0  0  0  0  0  0  0  0  0  0  0  0
   39.7106   32.4393   38.6316 C   0  0  0  0  0  0  0  0  0  0  0  0
   39.1066   32.0734   37.6080 O   0  0  0  0  0  0  0  0  0  0  0  0
   39.9814   33.3018   37.5907 O   0  0  0  0  0  0  0  0  0  0  0  0
   38.8710   30.6064   40.0368 N   0  0  0  0  0  0  0  0  0  0  0  0
   37.6711   29.9143   39.7221 C   0  0  0  0  0  0  0  0  0  0  0  0
   36.6546   30.1230   38.9760 O   0  0  0  0  0  0  0  0  0  0  0  0
   38.0182   28.7833   40.6159 C   0  0  1  0  0  0  0  0  0  0  0  0
   37.4297   28.7515   41.5600 H   0  0  0  0  0  0  0  0  0  0  0  0
   39.3542   29.4514   40.8127 C   0  0  2  0  0  0  0  0  0  0  0  0
   39.6270   30.0893   42.4897 S   0  0  0  0  0  0  0  0  0  0  0  0
   40.4033   31.7027   42.3091 C   0  0  1  0  0  0  0  0  0  0  0  0
   41.4930   31.5522   42.5602 H   0  0  0  0  0  0  0  0  0  0  0  0
   40.8582   34.1783   41.6281 H   0  0  0  0  0  0  0  0  0  0  0  0
   41.1189   33.9347   39.8214 H   0  0  0  0  0  0  0  0  0  0  0  0
   40.8536   33.7990   37.4452 H   0  0  0  0  0  0  0  0  0  0  0  0
   38.1363   27.8015   40.1145 H   0  0  0  0  0  0  0  0  0  0  0  0
   40.1993   28.9125   40.3647 H   0  0  0  0  0  0  0  0  0  0  0  0
   39.9487   32.4718   42.9645 H   0  0  0  0  0  0  0  0  0  0  0  0
  1  9  1  0
  2  1  2  0
  3  2  1  0
  4  5  1  0
  4  3  2  0
  5  6  2  0
  6 15  1  0
  6  1  1  0
  7 12  2  0
  8  7  1  0
  9  8  2  0
  9 10  1  0
 10 11  2  0
 11 12  1  0
 13 15  1  0
 13 16  1  0
 14 13  2  0
  2 17  1  0
  3 18  1  0
  4 19  1  0
  5 20  1  0
  7 21  1  0
  8 22  1  0
 11 23  1  0
 15 24  1  0
 25 26  1  0
 26 27  2  0
 27 28  1  0
 28 29  2  0
 28 30  1  0
 27 31  1  0
 31 32  1  0
 32 33  2  0
 32 34  1  0
 34 35  1  1
 34 36  1  0
 36 37  1  0
 37 38  1  0
 38 39  1  1
 38 26  1  0
 36 31  1  0
 25 40  1  0
 25 41  1  0
 30 42  1  0
 34 43  1  0
 36 44  1  6
 38 45  1  0
 16 25  1  0
M  ISO  8  17  14  18  14  19  14  20  14  21  14  22  14  23  14  35  15
M  ISO  1  39  15
M  END
>  <DihAtoms>  (1) 
12,15,24,25

>  <DihDeg>  (1) 
-179.9981853037701

$$$$
