
     RDKit          3D

 33 35  0  0  0  0  0  0  0  0999 V2000
   46.2580   34.8763   43.1635 C   0  0  0  0  0  0  0  0  0  0  0  0
   45.3381   35.9102   43.2838 C   0  0  0  0  0  0  0  0  0  0  0  0
   44.5629   35.9670   44.4577 C   0  0  0  0  0  0  0  0  0  0  0  0
   44.7605   35.0066   45.4042 N   0  0  0  0  0  0  0  0  0  0  0  0
   45.6723   34.0259   45.2269 C   0  0  0  0  0  0  0  0  0  0  0  0
   46.4190   33.9606   44.1100 N   0  0  0  0  0  0  0  0  0  0  0  0
   46.9900   34.9080   41.9425 C   0  0  0  0  0  0  0  0  0  0  0  0
   48.1335   35.4101   41.7479 O   0  0  0  0  0  0  0  0  0  0  0  0
   46.3497   34.3094   40.8495 O   0  0  0  0  0  0  0  0  0  0  0  0
   45.1603   36.6773   42.5599 H   0  0  0  0  0  0  0  0  0  0  0  0
   43.8290   36.7356   44.6277 H   0  0  0  0  0  0  0  0  0  0  0  0
   45.7665   33.3014   46.0293 H   0  0  0  0  0  0  0  0  0  0  0  0
   47.0152   34.2938   39.5713 C   0  0  0  0  0  0  0  0  0  0  0  0
   48.0961   33.3021   39.5473 C   0  0  0  0  0  0  0  0  0  0  0  0
   48.1454   32.2867   38.7094 C   0  0  0  0  0  0  0  0  0  0  0  0
   47.1321   32.0170   37.6975 C   0  0  0  0  0  0  0  0  0  0  0  0
   46.0575   32.5368   37.3131 O   0  0  0  0  0  0  0  0  0  0  0  0
   47.1871   30.9602   36.8372 O   0  0  0  0  0  0  0  0  0  0  0  0
   49.2544   31.3997   38.7914 N   0  0  0  0  0  0  0  0  0  0  0  0
   49.6551   30.0372   38.7169 C   0  0  0  0  0  0  0  0  0  0  0  0
   49.1983   28.8807   38.4520 O   0  0  0  0  0  0  0  0  0  0  0  0
   51.0148   30.4304   39.1113 C   0  0  1  0  0  0  0  0  0  0  0  0
   51.4118   30.0321   40.0591 H   0  0  0  0  0  0  0  0  0  0  0  0
   50.6274   31.8694   39.0543 C   0  0  2  0  0  0  0  0  0  0  0  0
   50.5132   32.6870   40.6825 S   0  0  0  0  0  0  0  0  0  0  0  0
   49.0214   33.7074   40.6294 C   0  0  1  0  0  0  0  0  0  0  0  0
   49.3724   34.7740   40.4771 H   0  0  0  0  0  0  0  0  0  0  0  0
   47.4496   35.3337   39.4726 H   0  0  0  0  0  0  0  0  0  0  0  0
   46.2598   34.1936   38.8013 H   0  0  0  0  0  0  0  0  0  0  0  0
   46.4473   30.3051   36.6197 H   0  0  0  0  0  0  0  0  0  0  0  0
   51.7926   30.2361   38.3163 H   0  0  0  0  0  0  0  0  0  0  0  0
   51.0292   32.4932   38.2548 H   0  0  0  0  0  0  0  0  0  0  0  0
   48.5016   33.6976   41.6255 H   0  0  0  0  0  0  0  0  0  0  0  0
  1  2  2  0
  1  6  1  0
  2  3  1  0
  3  4  2  0
  5  4  1  0
  6  5  2  0
  7  1  1  0
  8  7  2  0
  9  7  1  0
  2 10  1  0
  3 11  1  0
  5 12  1  0
 13 14  1  0
 14 15  2  0
 15 16  1  0
 16 17  2  0
 16 18  1  0
 15 19  1  0
 19 20  1  0
 20 21  2  0
 20 22  1  0
 22 23  1  1
 22 24  1  0
 24 25  1  0
 25 26  1  0
 26 27  1  6
 26 14  1  0
 24 19  1  0
 13 28  1  0
 13 29  1  0
 18 30  1  0
 22 31  1  0
 24 32  1  6
 26 33  1  0
  9 13  1  0
M  ISO  5  10  14  11  14  12  14  23  15  27  15
M  END
>  <DihAtoms>  (1) 
6,8,12,13

>  <DihDeg>  (1) 
-179.9996024630318

$$$$
