
 OpenBabel03242517423D

 26 28  0  0  1  0  0  0  0  0999 V2000
   46.4400   32.9270   40.6050 C   0  0  0  0  0  0  0  0  0  0  0  0
   46.9570   31.7490   40.9170 C   0  0  0  0  0  0  0  0  0  0  0  0
   48.3270   31.5020   40.6170 N   0  0  0  0  0  0  0  0  0  0  0  0
   49.5740   31.0130   41.1000 C   0  0  0  0  0  0  0  0  0  0  0  0
   49.9860   30.2200   42.0150 O   0  0  0  0  0  0  0  0  0  0  0  0
   50.2710   31.8290   40.0740 C   0  0  0  0  0  3  0  0  0  0  0  0
   50.5620   32.8020   40.5010 H   0  0  0  0  0  0  0  0  0  0  0  0
   48.9710   31.7720   39.3300 C   0  0  2  0  0  3  0  0  0  0  0  0
   48.3500   33.3250   38.6950 S   0  0  0  0  0  0  0  0  0  0  0  0
   47.2280   33.9990   39.9840 C   0  0  0  0  0  3  0  0  0  0  0  0
   46.5910   34.7770   39.5420 H   0  0  0  0  0  0  0  0  0  0  0  0
   46.1870   30.6570   41.5530 C   0  0  0  0  0  0  0  0  0  0  0  0
   45.9490   30.1860   42.6890 O   0  0  0  0  0  0  0  0  0  0  0  0
   45.4070   29.7310   40.9460 O   0  0  0  0  0  0  0  0  0  0  0  0
   45.5620   28.7150   40.8980 H   0  0  0  0  0  0  0  0  0  0  0  0
   45.0390   33.3040   40.8450 C   0  0  0  0  0  2  0  0  0  0  0  0
   44.9060   34.9220   41.6670 S   0  0  0  0  0  0  0  0  0  0  0  0
   44.4870   35.6320   44.3090 C   0  0  0  0  0  0  0  0  0  0  0  0
   44.9910   34.6550   43.4380 C   0  0  0  0  0  0  0  0  0  0  0  0
   45.5440   33.4970   43.9640 C   0  0  0  0  0  0  0  0  0  0  0  0
   45.5720   33.3670   45.3170 N   0  0  0  0  0  0  0  0  0  0  0  0
   45.0840   34.3150   46.1360 C   0  0  0  0  0  0  0  0  0  0  0  0
   44.5410   35.4480   45.6610 N   0  0  0  0  0  0  0  0  0  0  0  0
   44.0600   36.5260   43.8890 H   0  0  0  0  0  0  0  0  0  0  0  0
   45.9350   32.7350   43.3350 H   0  0  0  0  0  0  0  0  0  0  0  0
   45.1430   34.1350   47.2110 H   0  0  0  0  0  0  0  0  0  0  0  0
  1 16  1  0  0  0  0
  1  2  2  0  0  0  0
  2 12  1  0  0  0  0
  3  2  1  0  0  0  0
  3  4  1  0  0  0  0
  4  5  2  0  0  0  0
  6  7  1  0  0  0  0
  6  4  1  0  0  0  0
  8  9  1  1  0  0  0
  8  6  1  0  0  0  0
  8  3  1  0  0  0  0
  9 10  1  0  0  0  0
 10  1  1  0  0  0  0
 11 10  1  0  0  0  0
 12 13  2  0  0  0  0
 14 12  1  0  0  0  0
 15 14  1  0  0  0  0
 16 17  1  0  0  0  0
 17 19  1  0  0  0  0
 18 23  1  0  0  0  0
 19 20  1  0  0  0  0
 19 18  2  0  0  0  0
 20 21  2  0  0  0  0
 21 22  1  0  0  0  0
 22 26  1  0  0  0  0
 23 22  2  0  0  0  0
 24 18  1  0  0  0  0
 25 20  1  0  0  0  0
M  END
>  <minimizedAffinity>
-3.3949976

>  <minimizedRMSD>
1.28215384

$$$$
