
 OpenBabel03242518283D

 28 30  0  0  1  0  0  0  0  0999 V2000
   46.7670   33.1920   38.8890 C   0  0  0  0  0  0  0  0  0  0  0  0
   46.0690   32.9770   37.7920 C   0  0  0  0  0  0  0  0  0  0  0  0
   46.7720   32.6170   36.6090 N   0  0  0  0  0  0  0  0  0  0  0  0
   46.7440   31.7890   35.4530 C   0  0  0  0  0  0  0  0  0  0  0  0
   45.9950   30.9660   34.8380 O   0  0  0  0  0  0  0  0  0  0  0  0
   48.0960   32.2520   35.1080 C   0  0  0  0  0  3  0  0  0  0  0  0
   48.9050   31.5030   35.0770 H   0  0  0  0  0  0  0  0  0  0  0  0
   48.0670   33.2190   36.2420 C   0  0  2  0  0  3  0  0  0  0  0  0
   49.1680   32.7880   37.6320 S   0  0  0  0  0  0  0  0  0  0  0  0
   48.2230   33.1110   39.1400 C   0  0  0  0  0  3  0  0  0  0  0  0
   48.6140   34.0900   39.5540 H   0  0  0  0  0  0  0  0  0  0  0  0
   44.6190   33.0880   37.7160 C   0  0  0  0  0  0  0  0  0  0  0  0
   43.7270   33.8230   38.2020 O   0  0  0  0  0  0  0  0  0  0  0  0
   43.8380   32.2590   36.9650 O   0  0  0  0  0  0  0  0  0  0  0  0
   42.9950   31.7790   37.2540 H   0  0  0  0  0  0  0  0  0  0  0  0
   46.1730   33.5720   40.1760 C   0  0  0  0  0  2  0  0  0  0  0  0
   47.1610   33.5760   41.2250 O   0  0  0  0  0  0  0  0  0  0  0  0
   47.3040   34.7200   42.0230 C   0  0  0  0  0  0  0  0  0  0  0  0
   48.1610   35.5770   41.6670 O   0  0  0  0  0  0  0  0  0  0  0  0
   46.4470   34.7750   43.1580 C   0  0  0  0  0  0  0  0  0  0  0  0
   45.5600   35.8440   43.1300 C   0  0  0  0  0  0  0  0  0  0  0  0
   44.6690   35.9880   44.2100 C   0  0  0  0  0  0  0  0  0  0  0  0
   44.7290   35.0720   45.2170 N   0  0  0  0  0  0  0  0  0  0  0  0
   45.6150   34.0530   45.1860 C   0  0  0  0  0  0  0  0  0  0  0  0
   46.4720   33.9060   44.1590 N   0  0  0  0  0  0  0  0  0  0  0  0
   45.4890   36.5780   42.3550 H   0  0  0  0  0  0  0  0  0  0  0  0
   43.9510   36.7880   44.2640 H   0  0  0  0  0  0  0  0  0  0  0  0
   45.5970   33.3680   46.0270 H   0  0  0  0  0  0  0  0  0  0  0  0
  1 10  1  0  0  0  0
  1 16  1  0  0  0  0
  2  1  2  0  0  0  0
  3  2  1  0  0  0  0
  4  3  1  0  0  0  0
  5  4  2  0  0  0  0
  6  4  1  0  0  0  0
  7  6  1  0  0  0  0
  8  6  1  6  0  0  0
  8  3  1  0  0  0  0
  8  9  1  0  0  0  0
  9 10  1  0  0  0  0
 10 11  1  0  0  0  0
 12  2  1  0  0  0  0
 12 13  2  0  0  0  0
 14 15  1  0  0  0  0
 14 12  1  0  0  0  0
 16 17  1  0  0  0  0
 17 18  1  0  0  0  0
 18 20  1  0  0  0  0
 19 18  2  0  0  0  0
 20 25  1  0  0  0  0
 21 20  2  0  0  0  0
 21 22  1  0  0  0  0
 22 27  1  0  0  0  0
 22 23  2  0  0  0  0
 24 23  1  0  0  0  0
 24 28  1  0  0  0  0
 25 24  2  0  0  0  0
 26 21  1  0  0  0  0
M  END
>  <minimizedAffinity>
-4.77711535

>  <minimizedRMSD>
1.73877764

$$$$
