
 OpenBabel03252506333D

 40 44  0  0  1  0  0  0  0  0999 V2000
   44.4800   35.6940   45.2140 C   0  0  0  0  0  0  0  0  0  0  0  0
   45.0500   35.6710   43.9120 C   0  0  0  0  0  0  0  0  0  0  0  0
   45.8900   34.6530   43.5720 C   0  0  0  0  0  0  0  0  0  0  0  0
   46.1240   33.7140   44.5230 N   0  0  0  0  0  0  0  0  0  0  0  0
   45.5920   33.7340   45.7370 C   0  0  0  0  0  0  0  0  0  0  0  0
   44.7710   34.7180   46.0870 N   0  0  0  0  0  0  0  0  0  0  0  0
   45.9340   32.6790   46.6240 N   0  0  0  0  0  0  0  0  0  0  0  0
   45.2080   32.3980   47.8740 C   0  0  0  0  0  0  0  0  0  0  0  0
   46.3510   32.0130   48.7990 C   0  0  0  0  0  0  0  0  0  0  0  0
   47.5640   31.8150   47.9430 C   0  0  0  0  0  0  0  0  0  0  0  0
   46.9710   31.6970   46.5580 C   0  0  1  0  0  0  0  0  0  0  0  0
   43.8050   36.4520   45.5860 H   0  0  0  0  0  0  0  0  0  0  0  0
   46.3140   34.6510   42.5810 H   0  0  0  0  0  0  0  0  0  0  0  0
   44.5290   31.5430   47.6980 H   0  0  0  0  0  0  0  0  0  0  0  0
   44.6820   33.3100   48.1990 H   0  0  0  0  0  0  0  0  0  0  0  0
   46.1410   31.0480   49.3190 H   0  0  0  0  0  0  0  0  0  0  0  0
   46.5040   32.8460   49.5190 H   0  0  0  0  0  0  0  0  0  0  0  0
   48.2360   32.6920   48.0180 H   0  0  0  0  0  0  0  0  0  0  0  0
   48.1520   30.9150   48.2360 H   0  0  0  0  0  0  0  0  0  0  0  0
   47.7530   31.9630   45.8120 H   0  0  0  0  0  0  0  0  0  0  0  0
   44.6770   36.7600   43.0500 N   0  0  0  0  0  0  0  0  0  0  0  0
   43.6280   36.9070   42.9960 H   0  0  0  0  0  0  0  0  0  0  0  0
   45.3310   37.3820   42.5030 H   0  0  0  0  0  0  0  0  0  0  0  0
   46.3410   30.0330   46.3070 S   0  0  0  0  0  0  0  0  0  0  0  0
   47.6000   28.8000   46.7200 C   0  0  0  0  0  2  0  0  0  0  0  0
   46.9730   27.5740   47.2600 C   0  0  0  0  0  0  0  0  0  0  0  0
   47.6080   26.6780   47.9810 C   0  0  0  0  0  0  0  0  0  0  0  0
   46.9630   25.5280   48.4780 N   0  0  0  0  0  0  0  0  0  0  0  0
   47.0190   24.2300   49.1050 C   0  0  1  0  0  0  0  0  0  0  0  0
   47.8330   23.2810   48.9260 O   0  0  0  0  0  1  0  0  0  0  0  0
   45.7970   24.7200   49.8560 C   0  0  0  0  0  3  0  0  0  0  0  0
   45.1500   23.9340   50.2450 H   0  0  0  0  0  0  0  0  0  0  0  0
   45.5370   25.2630   48.4940 C   0  0  1  0  0  0  0  0  0  0  0  0
   44.6690   26.8120   48.3200 S   0  0  0  0  0  0  0  0  0  0  0  0
   45.5650   27.5090   46.8670 C   0  0  0  0  0  3  0  0  0  0  0  0
   45.1080   28.4420   46.5590 H   0  0  0  0  0  0  0  0  0  0  0  0
   49.0390   26.7850   48.3480 C   0  0  0  0  0  0  0  0  0  0  0  0
   49.6890   27.3830   49.2330 O   0  0  0  0  0  0  0  0  0  0  0  0
   50.0440   26.1410   47.6670 O   0  0  0  0  0  0  0  0  0  0  0  0
   50.9470   26.5220   47.4390 H   0  0  0  0  0  0  0  0  0  0  0  0
  1 12  1  0  0  0  0
  1  6  1  0  0  0  0
  2  1  2  0  0  0  0
  3  2  1  0  0  0  0
  3  4  2  0  0  0  0
  4  5  1  0  0  0  0
  5  6  2  0  0  0  0
  5  7  1  0  0  0  0
  7  8  1  0  0  0  0
  8 15  1  0  0  0  0
  8  9  1  0  0  0  0
  9 16  1  0  0  0  0
  9 17  1  0  0  0  0
 10 18  1  0  0  0  0
 10 19  1  0  0  0  0
 10  9  1  0  0  0  0
 11 20  1  6  0  0  0
 11  7  1  0  0  0  0
 11 10  1  0  0  0  0
 13  3  1  0  0  0  0
 14  8  1  0  0  0  0
 21  2  1  0  0  0  0
 22 21  1  0  0  0  0
 23 21  1  0  0  0  0
 24 11  1  0  0  0  0
 24 25  1  0  0  0  0
 25 26  1  0  0  0  0
 26 27  2  0  0  0  0
 27 37  1  0  0  0  0
 27 28  1  0  0  0  0
 28 33  1  0  0  0  0
 28 29  1  0  0  0  0
 29 30  1  6  0  0  0
 29 31  1  0  0  0  0
 31 32  1  0  0  0  0
 33 34  1  6  0  0  0
 33 29  1  0  0  0  0
 33 31  1  0  0  0  0
 35 26  1  0  0  0  0
 35 34  1  0  0  0  0
 36 35  1  0  0  0  0
 37 38  2  0  0  0  0
 39 37  1  0  0  0  0
 40 39  1  0  0  0  0
M  END
>  <minimizedAffinity>
-5.71092749

>  <minimizedRMSD>
3.25794363

$$$$
