REMARK  Name = 
REMARK  6 active torsions:
REMARK  status: ('A' for Active; 'I' for Inactive)
REMARK    1  A    between atoms: C_1  and  S_17
REMARK    2  A    between atoms: C_11  and  N_16
REMARK    3  A    between atoms: S_17  and  C_24
REMARK    4  A    between atoms: C_24  and  C_25
REMARK    5  A    between atoms: C_26  and  C_27
REMARK    6  A    between atoms: C_27  and  O_29
REMARK                            x       y       z     vdW  Elec       q    Type
REMARK                         _______ _______ _______ _____ _____    ______ ____
ROOT
ATOM      1  C   UNL     1      47.702  33.491  40.132  0.00  0.00    +0.000 A 
ATOM      2  C   UNL     1      49.045  33.219  40.387  0.00  0.00    +0.000 A 
ATOM      3  C   UNL     1      49.512  33.296  41.715  0.00  0.00    +0.000 A 
ATOM      4  N   UNL     1      48.593  33.639  42.673  0.00  0.00    +0.000 NA
ATOM      5  C   UNL     1      47.302  33.892  42.376  0.00  0.00    +0.000 A 
ATOM      6  N   UNL     1      46.857  33.821  41.121  0.00  0.00    +0.000 NA
ATOM      7  N   UNL     1      46.422  34.241  43.445  0.00  0.00    +0.000 N 
ATOM      8  C   UNL     1      45.505  35.232  43.440  0.00  0.00    +0.000 A 
ATOM      9  N   UNL     1      44.872  35.240  44.641  0.00  0.00    +0.000 NA
ATOM     10  C   UNL     1      45.408  34.260  45.358  0.00  0.00    +0.000 A 
ATOM     11  C   UNL     1      45.194  33.776  46.634  0.00  0.00    +0.000 A 
ATOM     12  N   UNL     1      45.880  32.752  47.142  0.00  0.00    +0.000 NA
ATOM     13  C   UNL     1      46.832  32.124  46.433  0.00  0.00    +0.000 A 
ATOM     14  N   UNL     1      47.051  32.582  45.195  0.00  0.00    +0.000 NA
ATOM     15  C   UNL     1      46.390  33.606  44.639  0.00  0.00    +0.000 A 
ATOM     16  H   UNL     1      49.750  32.949  39.592  0.00  0.00    +0.000 HD
ATOM     17  H   UNL     1      50.539  33.094  41.948  0.00  0.00    +0.000 HD
ATOM     18  H   UNL     1      45.318  35.907  42.593  0.00  0.00    +0.000 HD
ATOM     19  H   UNL     1      47.380  31.294  46.860  0.00  0.00    +0.000 HD
ENDROOT
BRANCH  11  20
ATOM     20  N   UNL     1      44.222  34.340  47.496  0.00  0.00    +0.000 N 
ATOM     21  H   UNL     1      43.186  34.396  47.293  0.00  0.00    +0.000 HD
ATOM     22  H   UNL     1      44.452  34.754  48.419  0.00  0.00    +0.000 HD
ENDBRANCH  11  20
BRANCH   1  23
ATOM     23  S   UNL     1      47.207  33.364  38.396  0.00  0.00    +0.000 S 
BRANCH  23  24
ATOM     24  C   UNL     1      46.662  31.676  38.027  0.00  0.00    +0.000 C 
BRANCH  24  25
ATOM     25  C   UNL     1      47.598  30.697  38.604  0.00  0.00    +0.000 C 
ATOM     26  C   UNL     1      48.249  29.831  37.891  0.00  0.00    +0.000 C 
ATOM     27  N   UNL     1      49.145  28.898  38.460  0.00  0.00    +0.000 N 
ATOM     28  C   UNL     1      49.713  27.601  38.497  0.00  0.00    +0.000 C 
ATOM     29  O   UNL     1      49.685  26.590  37.717  0.00  0.00    +0.000 OA
ATOM     30  C   UNL     1      50.375  27.837  39.803  0.00  0.00    +0.000 C 
ATOM     31  H   UNL     1      51.444  27.576  39.726  0.00  0.00    +0.000 HD
ATOM     32  C   UNL     1      49.995  29.264  39.578  0.00  0.00    +0.000 C 
ATOM     33  S   UNL     1      48.853  29.821  40.895  0.00  0.00    +0.000 S 
ATOM     34  C   UNL     1      47.657  30.866  40.051  0.00  0.00    +0.000 C 
ATOM     35  H   UNL     1      47.958  31.932  40.270  0.00  0.00    +0.000 HD
BRANCH  26  36
ATOM     36  C   UNL     1      48.060  29.808  36.446  0.00  0.00    +0.000 C 
ATOM     37  O   UNL     1      48.644  29.005  35.654  0.00  0.00    +0.000 OA
BRANCH  36  38
ATOM     38  O   UNL     1      47.707  29.995  35.127  0.00  0.00    +0.000 OA
ATOM     39  H   UNL     1      47.248  30.818  34.746  0.00  0.00    +0.000 HD
ENDBRANCH  36  38
ENDBRANCH  26  36
ENDBRANCH  24  25
ENDBRANCH  23  24
ENDBRANCH   1  23
TORSDOF 6
