
 OpenBabel03252504223D

 39 43  0  0  1  0  0  0  0  0999 V2000
   47.7000   33.6770   40.1110 C   0  0  0  0  0  0  0  0  0  0  0  0
   49.0420   33.3970   40.3600 C   0  0  0  0  0  0  0  0  0  0  0  0
   49.5070   33.4390   41.6910 C   0  0  0  0  0  0  0  0  0  0  0  0
   48.5860   33.7570   42.6560 N   0  0  0  0  0  0  0  0  0  0  0  0
   47.2960   34.0180   42.3640 C   0  0  0  0  0  0  0  0  0  0  0  0
   46.8530   33.9810   41.1070 N   0  0  0  0  0  0  0  0  0  0  0  0
   46.4150   34.3390   43.4400 N   0  0  0  0  0  0  0  0  0  0  0  0
   45.4980   35.3310   43.4600 C   0  0  0  0  0  0  0  0  0  0  0  0
   44.8630   35.3070   44.6600 N   0  0  0  0  0  0  0  0  0  0  0  0
   45.3970   34.3080   45.3520 C   0  0  0  0  0  0  0  0  0  0  0  0
   45.1810   33.7900   46.6140 C   0  0  0  0  0  0  0  0  0  0  0  0
   45.8660   32.7530   47.0950 N   0  0  0  0  0  0  0  0  0  0  0  0
   46.8180   32.1430   46.3710 C   0  0  0  0  0  0  0  0  0  0  0  0
   47.0400   32.6340   45.1460 N   0  0  0  0  0  0  0  0  0  0  0  0
   46.3800   33.6730   44.6170 C   0  0  0  0  0  0  0  0  0  0  0  0
   49.7480   33.1480   39.5600 H   0  0  0  0  0  0  0  0  0  0  0  0
   50.5330   33.2300   41.9200 H   0  0  0  0  0  0  0  0  0  0  0  0
   45.3130   36.0280   42.6310 H   0  0  0  0  0  0  0  0  0  0  0  0
   47.3650   31.3020   46.7770 H   0  0  0  0  0  0  0  0  0  0  0  0
   44.2080   34.3320   47.4890 N   0  0  0  0  0  0  0  0  0  0  0  0
   43.1720   34.3940   47.2860 H   0  0  0  0  0  0  0  0  0  0  0  0
   44.4370   34.7210   48.4230 H   0  0  0  0  0  0  0  0  0  0  0  0
   47.2070   33.5970   38.3710 S   0  0  0  0  0  0  0  0  0  0  0  0
   46.4080   32.0080   38.0240 C   0  0  0  0  0  2  0  0  0  0  0  0
   47.2820   30.8950   38.4290 C   0  0  0  0  0  0  0  0  0  0  0  0
   48.2940   30.4940   37.7230 C   0  0  0  0  0  0  0  0  0  0  0  0
   49.1250   29.4240   38.1260 N   0  0  0  0  0  0  0  0  0  0  0  0
   49.9020   28.2820   37.8110 C   0  0  0  0  0  0  0  0  0  0  0  0
   50.3400   27.7700   36.7260 O   0  0  0  0  0  0  0  0  0  0  0  0
   50.0350   27.8770   39.2320 C   0  0  0  0  0  3  0  0  0  0  0  0
   51.1000   27.7110   39.4690 H   0  0  0  0  0  0  0  0  0  0  0  0
   49.4660   29.2270   39.5230 C   0  0  2  0  0  3  0  0  0  0  0  0
   47.8670   29.0560   40.3950 S   0  0  0  0  0  0  0  0  0  0  0  0
   46.8270   30.3490   39.7020 C   0  0  0  0  0  3  0  0  0  0  0  0
   46.8140   31.1850   40.4600 H   0  0  0  0  0  0  0  0  0  0  0  0
   48.5990   31.1640   36.4650 C   0  0  0  0  0  0  0  0  0  0  0  0
   49.7560   31.5580   36.1190 O   0  0  0  0  0  0  0  0  0  0  0  0
   48.6180   31.7680   35.2270 O   0  0  0  0  0  0  0  0  0  0  0  0
   47.8060   32.1170   34.7240 H   0  0  0  0  0  0  0  0  0  0  0  0
  1  2  2  0  0  0  0
  1  6  1  0  0  0  0
  2  3  1  0  0  0  0
  3 17  1  0  0  0  0
  3  4  2  0  0  0  0
  5  4  1  0  0  0  0
  5  7  1  0  0  0  0
  6  5  2  0  0  0  0
  7  8  1  0  0  0  0
  7 15  1  0  0  0  0
  8  9  2  0  0  0  0
  9 10  1  0  0  0  0
 10 11  1  0  0  0  0
 11 12  2  0  0  0  0
 11 20  1  0  0  0  0
 13 19  1  0  0  0  0
 13 12  1  0  0  0  0
 14 13  2  0  0  0  0
 15 14  1  0  0  0  0
 15 10  2  0  0  0  0
 16  2  1  0  0  0  0
 18  8  1  0  0  0  0
 20 22  1  0  0  0  0
 21 20  1  0  0  0  0
 23  1  1  0  0  0  0
 24 23  1  0  0  0  0
 24 25  1  0  0  0  0
 25 34  1  0  0  0  0
 26 27  1  0  0  0  0
 26 25  2  0  0  0  0
 27 32  1  0  0  0  0
 28 27  1  0  0  0  0
 28 30  1  0  0  0  0
 29 28  2  0  0  0  0
 30 31  1  0  0  0  0
 32 30  1  6  0  0  0
 32 33  1  0  0  0  0
 34 33  1  0  0  0  0
 34 35  1  0  0  0  0
 36 26  1  0  0  0  0
 37 36  2  0  0  0  0
 38 36  1  0  0  0  0
 39 38  1  0  0  0  0
M  END
>  <minimizedAffinity>
-5.05501699

>  <minimizedRMSD>
0.874076307

$$$$
