
 OpenBabel03252506343D

 40 44  0  0  1  0  0  0  0  0999 V2000
   44.4930   35.7670   45.0450 C   0  0  0  0  0  0  0  0  0  0  0  0
   45.1060   35.7270   43.7640 C   0  0  0  0  0  0  0  0  0  0  0  0
   45.9690   34.7140   43.4700 C   0  0  0  0  0  0  0  0  0  0  0  0
   46.1830   33.7960   44.4460 N   0  0  0  0  0  0  0  0  0  0  0  0
   45.6110   33.8320   45.6410 C   0  0  0  0  0  0  0  0  0  0  0  0
   44.7670   34.8110   45.9460 N   0  0  0  0  0  0  0  0  0  0  0  0
   45.9370   32.7970   46.5590 N   0  0  0  0  0  0  0  0  0  0  0  0
   45.1730   32.5300   47.7890 C   0  0  0  0  0  0  0  0  0  0  0  0
   46.2890   32.1770   48.7580 C   0  0  0  0  0  0  0  0  0  0  0  0
   47.5320   31.9790   47.9470 C   0  0  0  0  0  0  0  0  0  0  0  0
   46.9870   31.8280   46.5460 C   0  0  1  0  0  0  0  0  0  0  0  0
   43.7970   36.5230   45.3810 H   0  0  0  0  0  0  0  0  0  0  0  0
   46.4260   34.6990   42.4940 H   0  0  0  0  0  0  0  0  0  0  0  0
   44.5100   31.6630   47.6070 H   0  0  0  0  0  0  0  0  0  0  0  0
   44.6250   33.4410   48.0790 H   0  0  0  0  0  0  0  0  0  0  0  0
   46.0730   31.2190   49.2900 H   0  0  0  0  0  0  0  0  0  0  0  0
   46.4080   33.0250   49.4680 H   0  0  0  0  0  0  0  0  0  0  0  0
   48.1900   32.8660   48.0280 H   0  0  0  0  0  0  0  0  0  0  0  0
   48.1210   31.0920   48.2760 H   0  0  0  0  0  0  0  0  0  0  0  0
   47.7900   32.0900   45.8210 H   0  0  0  0  0  0  0  0  0  0  0  0
   44.7490   36.7960   42.8690 N   0  0  0  0  0  0  0  0  0  0  0  0
   43.7010   36.9280   42.7780 H   0  0  0  0  0  0  0  0  0  0  0  0
   45.4130   37.4160   42.3320 H   0  0  0  0  0  0  0  0  0  0  0  0
   46.3850   30.1520   46.3050 S   0  0  0  0  0  0  0  0  0  0  0  0
   47.6670   28.9430   46.7220 C   0  0  0  0  0  2  0  0  0  0  0  0
   47.0610   27.6930   47.2300 C   0  0  0  0  0  0  0  0  0  0  0  0
   47.7010   26.8040   47.9540 C   0  0  0  0  0  0  0  0  0  0  0  0
   47.0750   25.6300   48.4190 N   0  0  0  0  0  0  0  0  0  0  0  0
   47.1500   24.3250   49.0300 C   0  0  1  0  0  0  0  0  0  0  0  0
   47.9930   23.4000   48.8570 O   0  0  0  0  0  1  0  0  0  0  0  0
   45.8990   24.7730   49.7580 C   0  0  0  0  0  3  0  0  0  0  0  0
   45.2650   23.9650   50.1210 H   0  0  0  0  0  0  0  0  0  0  0  0
   45.6560   25.3290   48.3980 C   0  0  1  0  0  0  0  0  0  0  0  0
   44.7530   26.8580   48.2250 S   0  0  0  0  0  0  0  0  0  0  0  0
   45.6630   27.5980   46.8020 C   0  0  0  0  0  3  0  0  0  0  0  0
   45.1900   28.5230   46.4980 H   0  0  0  0  0  0  0  0  0  0  0  0
   49.1200   26.9420   48.3560 C   0  0  0  0  0  0  0  0  0  0  0  0
   49.7330   27.5440   49.2650 O   0  0  0  0  0  0  0  0  0  0  0  0
   50.1580   26.3370   47.6890 O   0  0  0  0  0  0  0  0  0  0  0  0
   51.0550   26.7470   47.4880 H   0  0  0  0  0  0  0  0  0  0  0  0
  1 12  1  0  0  0  0
  1  6  1  0  0  0  0
  2  1  2  0  0  0  0
  3  2  1  0  0  0  0
  3  4  2  0  0  0  0
  4  5  1  0  0  0  0
  5  6  2  0  0  0  0
  5  7  1  0  0  0  0
  7  8  1  0  0  0  0
  8 15  1  0  0  0  0
  8  9  1  0  0  0  0
  9 16  1  0  0  0  0
  9 17  1  0  0  0  0
 10 18  1  0  0  0  0
 10 19  1  0  0  0  0
 10  9  1  0  0  0  0
 11 20  1  6  0  0  0
 11  7  1  0  0  0  0
 11 10  1  0  0  0  0
 13  3  1  0  0  0  0
 14  8  1  0  0  0  0
 21  2  1  0  0  0  0
 22 21  1  0  0  0  0
 23 21  1  0  0  0  0
 24 11  1  0  0  0  0
 24 25  1  0  0  0  0
 25 26  1  0  0  0  0
 26 27  2  0  0  0  0
 27 37  1  0  0  0  0
 27 28  1  0  0  0  0
 28 29  1  0  0  0  0
 29 30  1  6  0  0  0
 29 31  1  0  0  0  0
 31 32  1  0  0  0  0
 33 34  1  6  0  0  0
 33 28  1  0  0  0  0
 33 29  1  0  0  0  0
 33 31  1  0  0  0  0
 35 26  1  0  0  0  0
 35 34  1  0  0  0  0
 36 35  1  0  0  0  0
 37 38  2  0  0  0  0
 39 37  1  0  0  0  0
 40 39  1  0  0  0  0
M  END
>  <minimizedAffinity>
-5.73573112

>  <minimizedRMSD>
2.14621806

$$$$
