REMARK  Name = 
REMARK  6 active torsions:
REMARK  status: ('A' for Active; 'I' for Inactive)
REMARK    1  A    between atoms: C_2  and  N_12
REMARK    2  A    between atoms: C_11  and  S_13
REMARK    3  A    between atoms: S_13  and  C_25
REMARK    4  A    between atoms: C_25  and  C_26
REMARK    5  A    between atoms: C_27  and  C_28
REMARK    6  A    between atoms: C_28  and  O_30
REMARK                            x       y       z     vdW  Elec       q    Type
REMARK                         _______ _______ _______ _____ _____    ______ ____
ROOT
ATOM      1  C   UNL     1      44.473  35.749  45.010  0.00  0.00    +0.000 A 
ATOM      2  C   UNL     1      45.123  35.712  43.747  0.00  0.00    +0.000 A 
ATOM      3  C   UNL     1      46.020  34.719  43.489  0.00  0.00    +0.000 A 
ATOM      4  N   UNL     1      46.231  33.817  44.481  0.00  0.00    +0.000 NA
ATOM      5  C   UNL     1      45.624  33.850  45.659  0.00  0.00    +0.000 A 
ATOM      6  N   UNL     1      44.747  34.810  45.929  0.00  0.00    +0.000 NA
ATOM      7  N   UNL     1      45.951  32.834  46.597  0.00  0.00    +0.000 N 
ATOM      8  C   UNL     1      45.160  32.560  47.808  0.00  0.00    +0.000 C 
ATOM      9  C   UNL     1      46.258  32.247  48.812  0.00  0.00    +0.000 C 
ATOM     10  C   UNL     1      47.528  32.073  48.038  0.00  0.00    +0.000 C 
ATOM     11  C   UNL     1      47.026  31.893  46.624  0.00  0.00    +0.000 C 
ATOM     12  H   UNL     1      43.748  36.490  45.318  0.00  0.00    +0.000 HD
ATOM     13  H   UNL     1      46.505  34.706  42.526  0.00  0.00    +0.000 HD
ATOM     14  H   UNL     1      44.526  31.674  47.618  0.00  0.00    +0.000 HD
ATOM     15  H   UNL     1      44.581  33.459  48.073  0.00  0.00    +0.000 HD
ATOM     16  H   UNL     1      46.052  31.289  49.348  0.00  0.00    +0.000 HD
ATOM     17  H   UNL     1      46.334  33.105  49.515  0.00  0.00    +0.000 HD
ATOM     18  H   UNL     1      48.160  32.978  48.127  0.00  0.00    +0.000 HD
ATOM     19  H   UNL     1      48.130  31.206  48.393  0.00  0.00    +0.000 HD
ATOM     20  H   UNL     1      47.842  32.169  45.919  0.00  0.00    +0.000 HD
ENDROOT
BRANCH   2  21
ATOM     21  N   UNL     1      44.763  36.761  42.831  0.00  0.00    +0.000 N 
ATOM     22  H   UNL     1      43.715  36.865  42.709  0.00  0.00    +0.000 HD
ATOM     23  H   UNL     1      45.426  37.393  42.306  0.00  0.00    +0.000 HD
ENDBRANCH   2  21
BRANCH  11  24
ATOM     24  S   UNL     1      46.476  30.199  46.385  0.00  0.00    +0.000 S 
BRANCH  24  25
ATOM     25  C   UNL     1      47.878  29.055  46.438  0.00  0.00    +0.000 C 
BRANCH  25  26
ATOM     26  C   UNL     1      48.209  28.699  47.835  0.00  0.00    +0.000 C 
ATOM     27  C   UNL     1      48.188  27.474  48.309  0.00  0.00    +0.000 C 
ATOM     28  N   UNL     1      48.519  27.187  49.648  0.00  0.00    +0.000 N 
ATOM     29  C   UNL     1      48.568  26.269  50.760  0.00  0.00    +0.000 C 
ATOM     30  O   UNL     1      47.713  25.423  51.146  0.00  0.00    +0.000 OA
ATOM     31  C   UNL     1      49.930  26.887  51.002  0.00  0.00    +0.000 C 
ATOM     32  H   UNL     1      50.296  26.808  52.025  0.00  0.00    +0.000 HD
ATOM     33  C   UNL     1      49.135  28.084  50.609  0.00  0.00    +0.000 C 
ATOM     34  S   UNL     1      49.930  29.410  49.720  0.00  0.00    +0.000 S 
ATOM     35  C   UNL     1      48.552  29.902  48.597  0.00  0.00    +0.000 C 
ATOM     36  H   UNL     1      48.835  30.773  48.019  0.00  0.00    +0.000 HD
BRANCH  27  37
ATOM     37  C   UNL     1      47.828  26.288  47.499  0.00  0.00    +0.000 C 
ATOM     38  O   UNL     1      47.488  26.089  46.312  0.00  0.00    +0.000 OA
BRANCH  37  39
ATOM     39  O   UNL     1      47.804  25.008  48.000  0.00  0.00    +0.000 OA
ATOM     40  H   UNL     1      47.116  24.303  47.798  0.00  0.00    +0.000 HD
ENDBRANCH  37  39
ENDBRANCH  27  37
ENDBRANCH  25  26
ENDBRANCH  24  25
ENDBRANCH  11  24
TORSDOF 6
