
 OpenBabel03242521113D

 38 42  0  0  1  0  0  0  0  0999 V2000
   38.6550   26.7920   42.9350 C   0  0  1  0  0  0  0  0  0  0  0  0
   38.8350   25.5540   42.0510 C   0  0  1  0  0  0  0  0  0  0  0  0
   39.7680   24.7370   42.9110 C   0  0  0  0  0  0  0  0  0  0  0  0
   40.5160   25.5910   43.6790 O   0  0  0  0  0  0  0  0  0  0  0  0
   39.9830   26.8750   43.5910 C   0  0  0  0  0  0  0  0  0  0  0  0
   37.7990   26.5630   43.6310 H   0  0  0  0  0  0  0  0  0  0  0  0
   39.3100   25.8040   41.0950 H   0  0  0  0  0  0  0  0  0  0  0  0
   40.3750   24.0150   42.3270 H   0  0  0  0  0  0  0  0  0  0  0  0
   39.1650   24.1110   43.6240 H   0  0  0  0  0  0  0  0  0  0  0  0
   39.9860   27.3930   44.5720 H   0  0  0  0  0  0  0  0  0  0  0  0
   40.6570   27.4480   42.9220 H   0  0  0  0  0  0  0  0  0  0  0  0
   37.3100   24.6000   41.9000 S   0  0  0  0  0  0  0  0  0  0  0  0
   35.4140   24.1280   38.3760 C   0  0  0  0  0  0  0  0  0  0  0  0
   35.4850   25.4720   37.8800 C   0  0  0  0  0  0  0  0  0  0  0  0
   36.1060   26.4390   38.6510 C   0  0  0  0  0  0  0  0  0  0  0  0
   36.6220   26.0680   39.8430 N   0  0  0  0  0  0  0  0  0  0  0  0
   36.5480   24.7960   40.3020 C   0  0  0  0  0  0  0  0  0  0  0  0
   35.9480   23.8170   39.5770 N   0  0  0  0  0  0  0  0  0  0  0  0
   34.9380   23.3400   37.8080 H   0  0  0  0  0  0  0  0  0  0  0  0
   35.0490   25.6860   36.9180 H   0  0  0  0  0  0  0  0  0  0  0  0
   36.1520   27.4460   38.2620 H   0  0  0  0  0  0  0  0  0  0  0  0
   38.4610   27.8710   42.1280 O   0  0  0  0  0  0  0  0  0  0  0  0
   38.3900   29.0310   42.8910 C   0  0  0  0  0  2  0  0  0  0  0  0
   38.8270   30.2220   42.1710 C   0  0  0  0  0  0  0  0  0  0  0  0
   38.0960   30.9160   41.3380 C   0  0  0  0  0  0  0  0  0  0  0  0
   38.5930   32.0660   40.6650 N   0  0  0  0  0  0  0  0  0  0  0  0
   38.4220   33.1690   39.7820 C   0  0  2  0  0  0  0  0  0  0  0  0
   37.4660   33.9500   39.5490 O   0  0  0  0  0  1  0  0  0  0  0  0
   39.8260   32.9420   39.3220 C   0  0  0  0  0  3  0  0  0  0  0  0
   40.3300   33.8670   39.0430 H   0  0  0  0  0  0  0  0  0  0  0  0
   39.9520   32.5660   40.7800 C   0  0  2  0  0  0  0  0  0  0  0  0
   41.0940   31.1950   41.1230 S   0  0  0  0  0  0  0  0  0  0  0  0
   40.2120   30.4750   42.5620 C   0  0  0  0  0  3  0  0  0  0  0  0
   40.8000   29.6080   42.8630 H   0  0  0  0  0  0  0  0  0  0  0  0
   36.6910   30.5900   40.9930 C   0  0  0  0  0  0  0  0  0  0  0  0
   36.1330   29.8270   40.1720 O   0  0  0  0  0  0  0  0  0  0  0  0
   35.6000   31.1530   41.6040 O   0  0  0  0  0  0  0  0  0  0  0  0
   34.7880   30.6320   41.8970 H   0  0  0  0  0  0  0  0  0  0  0  0
  1  5  1  0  0  0  0
  1  6  1  1  0  0  0
  2  7  1  6  0  0  0
  2  3  1  0  0  0  0
  2  1  1  0  0  0  0
  3  9  1  0  0  0  0
  3  4  1  0  0  0  0
  5  4  1  0  0  0  0
  5 10  1  0  0  0  0
  8  3  1  0  0  0  0
 11  5  1  0  0  0  0
 12  2  1  0  0  0  0
 13 18  1  0  0  0  0
 14 13  2  0  0  0  0
 14 15  1  0  0  0  0
 15 16  2  0  0  0  0
 16 17  1  0  0  0  0
 17 12  1  0  0  0  0
 18 17  2  0  0  0  0
 19 13  1  0  0  0  0
 20 14  1  0  0  0  0
 21 15  1  0  0  0  0
 22 23  1  0  0  0  0
 22  1  1  0  0  0  0
 24 33  1  0  0  0  0
 24 23  1  0  0  0  0
 25 24  2  0  0  0  0
 26 31  1  0  0  0  0
 26 25  1  0  0  0  0
 27 28  1  1  0  0  0
 27 26  1  0  0  0  0
 27 31  1  0  0  0  0
 29 27  1  0  0  0  0
 30 29  1  0  0  0  0
 31 29  1  6  0  0  0
 31 32  1  0  0  0  0
 32 33  1  0  0  0  0
 33 34  1  0  0  0  0
 35 25  1  0  0  0  0
 35 37  1  0  0  0  0
 36 35  2  0  0  0  0
 37 38  1  0  0  0  0
M  END
>  <minimizedAffinity>
-5.67296076

$$$$

 OpenBabel03242521113D

 38 42  0  0  1  0  0  0  0  0999 V2000
   38.7440   32.8530   41.0700 C   0  0  1  0  0  0  0  0  0  0  0  0
   39.7610   31.7090   41.0960 C   0  0  1  0  0  0  0  0  0  0  0  0
   41.0470   32.4810   40.9250 C   0  0  0  0  0  0  0  0  0  0  0  0
   40.7800   33.6260   40.2210 O   0  0  0  0  0  0  0  0  0  0  0  0
   39.4000   33.8030   40.1380 C   0  0  0  0  0  0  0  0  0  0  0  0
   38.6540   33.2220   42.1310 H   0  0  0  0  0  0  0  0  0  0  0  0
   39.6130   31.0150   40.2610 H   0  0  0  0  0  0  0  0  0  0  0  0
   41.8650   31.8700   40.4900 H   0  0  0  0  0  0  0  0  0  0  0  0
   41.4230   32.8060   41.9330 H   0  0  0  0  0  0  0  0  0  0  0  0
   39.1100   34.8650   40.2730 H   0  0  0  0  0  0  0  0  0  0  0  0
   39.1110   33.5190   39.1040 H   0  0  0  0  0  0  0  0  0  0  0  0
   39.8510   30.9170   42.7160 S   0  0  0  0  0  0  0  0  0  0  0  0
   38.6070   27.1140   43.1960 C   0  0  0  0  0  0  0  0  0  0  0  0
   37.2710   27.2290   42.6860 C   0  0  0  0  0  0  0  0  0  0  0  0
   36.8330   28.4590   42.2280 C   0  0  0  0  0  0  0  0  0  0  0  0
   37.6900   29.5020   42.2810 N   0  0  0  0  0  0  0  0  0  0  0  0
   38.9490   29.3810   42.7660 C   0  0  0  0  0  0  0  0  0  0  0  0
   39.4200   28.1930   43.2250 N   0  0  0  0  0  0  0  0  0  0  0  0
   38.9920   26.1730   43.5640 H   0  0  0  0  0  0  0  0  0  0  0  0
   36.6490   26.3490   42.6770 H   0  0  0  0  0  0  0  0  0  0  0  0
   35.8240   28.5280   41.8470 H   0  0  0  0  0  0  0  0  0  0  0  0
   37.5860   32.3870   40.5280 O   0  0  0  0  0  0  0  0  0  0  0  0
   37.6720   32.3910   39.1400 C   0  0  0  0  0  2  0  0  0  0  0  0
   37.6540   31.0540   38.5570 C   0  0  0  0  0  0  0  0  0  0  0  0
   38.6120   30.5250   37.8420 C   0  0  0  0  0  0  0  0  0  0  0  0
   38.5220   29.2150   37.2980 N   0  0  0  0  0  0  0  0  0  0  0  0
   39.0690   28.1260   36.5620 C   0  0  2  0  0  0  0  0  0  0  0  0
   40.2250   27.6460   36.4600 O   0  0  0  0  0  1  0  0  0  0  0  0
   37.6960   27.8740   36.0290 C   0  0  0  0  0  3  0  0  0  0  0  0
   37.5040   26.8160   35.8470 H   0  0  0  0  0  0  0  0  0  0  0  0
   37.3640   28.3470   37.4240 C   0  0  2  0  0  0  0  0  0  0  0  0
   35.8500   29.3430   37.5570 S   0  0  0  0  0  0  0  0  0  0  0  0
   36.3790   30.4430   38.9270 C   0  0  0  0  0  3  0  0  0  0  0  0
   35.5440   31.1210   39.0980 H   0  0  0  0  0  0  0  0  0  0  0  0
   39.8810   31.2180   37.5090 C   0  0  0  0  0  0  0  0  0  0  0  0
   41.0860   31.0540   37.8080 O   0  0  0  0  0  0  0  0  0  0  0  0
   39.9650   32.3210   36.6990 O   0  0  0  0  0  0  0  0  0  0  0  0
   40.6640   32.4420   35.9840 H   0  0  0  0  0  0  0  0  0  0  0  0
  1  2  1  0  0  0  0
  1  6  1  1  0  0  0
  2  7  1  6  0  0  0
  2 12  1  0  0  0  0
  3  2  1  0  0  0  0
  3  9  1  0  0  0  0
  4  3  1  0  0  0  0
  5  4  1  0  0  0  0
  5 10  1  0  0  0  0
  5  1  1  0  0  0  0
  8  3  1  0  0  0  0
 11  5  1  0  0  0  0
 12 17  1  0  0  0  0
 13 18  1  0  0  0  0
 13 19  1  0  0  0  0
 14 13  2  0  0  0  0
 15 16  2  0  0  0  0
 15 14  1  0  0  0  0
 16 17  1  0  0  0  0
 17 18  2  0  0  0  0
 20 14  1  0  0  0  0
 21 15  1  0  0  0  0
 22  1  1  0  0  0  0
 23 22  1  0  0  0  0
 24 33  1  0  0  0  0
 24 23  1  0  0  0  0
 25 24  2  0  0  0  0
 26 31  1  0  0  0  0
 26 25  1  0  0  0  0
 27 28  1  1  0  0  0
 27 26  1  0  0  0  0
 27 31  1  0  0  0  0
 29 27  1  0  0  0  0
 30 29  1  0  0  0  0
 31 29  1  6  0  0  0
 31 32  1  0  0  0  0
 32 33  1  0  0  0  0
 33 34  1  0  0  0  0
 35 36  2  0  0  0  0
 35 25  1  0  0  0  0
 37 35  1  0  0  0  0
 38 37  1  0  0  0  0
M  END
>  <minimizedAffinity>
-5.5538187

$$$$

 OpenBabel03242521113D

 38 42  0  0  1  0  0  0  0  0999 V2000
   37.9820   30.1390   38.9490 C   0  0  1  0  0  0  0  0  0  0  0  0
   36.5930   30.6970   39.2720 C   0  0  1  0  0  0  0  0  0  0  0  0
   35.7190   29.6230   38.6720 C   0  0  0  0  0  0  0  0  0  0  0  0
   36.3950   29.0390   37.6320 O   0  0  0  0  0  0  0  0  0  0  0  0
   37.7250   29.4530   37.6580 C   0  0  0  0  0  0  0  0  0  0  0  0
   38.2550   29.4530   39.8000 H   0  0  0  0  0  0  0  0  0  0  0  0
   36.4170   31.6590   38.7780 H   0  0  0  0  0  0  0  0  0  0  0  0
   34.7080   29.9890   38.3970 H   0  0  0  0  0  0  0  0  0  0  0  0
   35.5460   28.8150   39.4340 H   0  0  0  0  0  0  0  0  0  0  0  0
   38.4220   28.6230   37.4260 H   0  0  0  0  0  0  0  0  0  0  0  0
   37.8340   30.2030   36.8470 H   0  0  0  0  0  0  0  0  0  0  0  0
   36.2580   30.6980   41.0460 S   0  0  0  0  0  0  0  0  0  0  0  0
   38.9290   28.4700   43.0800 C   0  0  0  0  0  0  0  0  0  0  0  0
   38.2170   27.2260   43.1350 C   0  0  0  0  0  0  0  0  0  0  0  0
   36.9660   27.1450   42.5480 C   0  0  0  0  0  0  0  0  0  0  0  0
   36.4710   28.2480   41.9460 N   0  0  0  0  0  0  0  0  0  0  0  0
   37.1530   29.4170   41.9010 C   0  0  0  0  0  0  0  0  0  0  0  0
   38.3820   29.5410   42.4640 N   0  0  0  0  0  0  0  0  0  0  0  0
   39.9090   28.5800   43.5250 H   0  0  0  0  0  0  0  0  0  0  0  0
   38.6810   26.3920   43.6340 H   0  0  0  0  0  0  0  0  0  0  0  0
   36.4430   26.2000   42.5980 H   0  0  0  0  0  0  0  0  0  0  0  0
   38.8330   31.1850   38.7630 O   0  0  0  0  0  0  0  0  0  0  0  0
   39.9720   31.0200   39.5420 C   0  0  0  0  0  2  0  0  0  0  0  0
   41.0680   30.3700   38.8320 C   0  0  0  0  0  0  0  0  0  0  0  0
   41.7160   30.8720   37.8150 C   0  0  0  0  0  0  0  0  0  0  0  0
   42.7720   30.1750   37.1660 N   0  0  0  0  0  0  0  0  0  0  0  0
   43.7950   30.0930   36.1800 C   0  0  2  0  0  0  0  0  0  0  0  0
   44.5970   30.9280   35.6940 O   0  0  0  0  0  1  0  0  0  0  0  0
   43.4570   28.6440   36.0360 C   0  0  0  0  0  3  0  0  0  0  0  0
   44.3250   28.0330   35.7900 H   0  0  0  0  0  0  0  0  0  0  0  0
   43.2130   28.8350   37.5140 C   0  0  2  0  0  0  0  0  0  0  0  0
   41.8250   27.8790   38.1930 S   0  0  0  0  0  0  0  0  0  0  0  0
   41.2870   29.0750   39.4760 C   0  0  0  0  0  3  0  0  0  0  0  0
   40.4240   28.6190   39.9590 H   0  0  0  0  0  0  0  0  0  0  0  0
   41.4290   32.1990   37.2190 C   0  0  0  0  0  0  0  0  0  0  0  0
   42.0870   33.2490   37.0310 O   0  0  0  0  0  0  0  0  0  0  0  0
   40.2140   32.5600   36.6950 O   0  0  0  0  0  0  0  0  0  0  0  0
   40.1010   33.0560   35.8250 H   0  0  0  0  0  0  0  0  0  0  0  0
  1  2  1  0  0  0  0
  1  6  1  1  0  0  0
  2  7  1  6  0  0  0
  2 12  1  0  0  0  0
  3  2  1  0  0  0  0
  3  9  1  0  0  0  0
  4  5  1  0  0  0  0
  4  3  1  0  0  0  0
  5  1  1  0  0  0  0
  8  3  1  0  0  0  0
 10  5  1  0  0  0  0
 11  5  1  0  0  0  0
 12 17  1  0  0  0  0
 13 14  1  0  0  0  0
 13 19  1  0  0  0  0
 14 20  1  0  0  0  0
 15 21  1  0  0  0  0
 15 14  2  0  0  0  0
 16 15  1  0  0  0  0
 17 16  2  0  0  0  0
 17 18  1  0  0  0  0
 18 13  2  0  0  0  0
 22  1  1  0  0  0  0
 22 23  1  0  0  0  0
 24 33  1  0  0  0  0
 24 23  1  0  0  0  0
 25 24  2  0  0  0  0
 26 31  1  0  0  0  0
 26 25  1  0  0  0  0
 27 28  1  6  0  0  0
 27 26  1  0  0  0  0
 27 31  1  0  0  0  0
 29 27  1  0  0  0  0
 30 29  1  0  0  0  0
 31 29  1  6  0  0  0
 31 32  1  0  0  0  0
 32 33  1  0  0  0  0
 33 34  1  0  0  0  0
 35 25  1  0  0  0  0
 36 35  2  0  0  0  0
 37 35  1  0  0  0  0
 38 37  1  0  0  0  0
M  END
>  <minimizedAffinity>
-5.17028236

$$$$

 OpenBabel03242521113D

 38 42  0  0  1  0  0  0  0  0999 V2000
   38.2640   27.0030   41.7900 C   0  0  1  0  0  0  0  0  0  0  0  0
   39.0140   25.7500   41.3310 C   0  0  1  0  0  0  0  0  0  0  0  0
   37.8720   24.7680   41.2320 C   0  0  0  0  0  0  0  0  0  0  0  0
   36.9000   25.1360   42.1250 O   0  0  0  0  0  0  0  0  0  0  0  0
   37.1840   26.4090   42.6150 C   0  0  0  0  0  0  0  0  0  0  0  0
   37.9100   27.5220   40.8540 H   0  0  0  0  0  0  0  0  0  0  0  0
   39.7450   25.4180   42.0770 H   0  0  0  0  0  0  0  0  0  0  0  0
   38.1980   23.7120   41.3370 H   0  0  0  0  0  0  0  0  0  0  0  0
   37.4100   24.8360   40.2100 H   0  0  0  0  0  0  0  0  0  0  0  0
   36.2710   27.0310   42.7050 H   0  0  0  0  0  0  0  0  0  0  0  0
   37.5800   26.2670   43.6420 H   0  0  0  0  0  0  0  0  0  0  0  0
   39.6810   25.9300   39.6630 S   0  0  0  0  0  0  0  0  0  0  0  0
   38.7670   29.4850   38.0000 C   0  0  0  0  0  0  0  0  0  0  0  0
   37.5360   29.1400   37.3500 C   0  0  0  0  0  0  0  0  0  0  0  0
   37.0600   27.8450   37.4600 C   0  0  0  0  0  0  0  0  0  0  0  0
   37.7830   26.9590   38.1800 N   0  0  0  0  0  0  0  0  0  0  0  0
   38.9460   27.2960   38.7880 C   0  0  0  0  0  0  0  0  0  0  0  0
   39.4480   28.5550   38.7060 N   0  0  0  0  0  0  0  0  0  0  0  0
   39.1770   30.4850   37.9410 H   0  0  0  0  0  0  0  0  0  0  0  0
   37.0180   29.9050   36.7950 H   0  0  0  0  0  0  0  0  0  0  0  0
   36.1310   27.6030   36.9650 H   0  0  0  0  0  0  0  0  0  0  0  0
   39.0990   27.7420   42.5710 O   0  0  0  0  0  0  0  0  0  0  0  0
   38.4550   28.8960   43.0020 C   0  0  0  0  0  2  0  0  0  0  0  0
   38.8340   30.0850   42.2480 C   0  0  0  0  0  0  0  0  0  0  0  0
   38.0620   30.7360   41.4180 C   0  0  0  0  0  0  0  0  0  0  0  0
   38.5040   31.8870   40.7100 N   0  0  0  0  0  0  0  0  0  0  0  0
   38.2750   32.9640   39.8080 C   0  0  2  0  0  0  0  0  0  0  0  0
   37.2880   33.7070   39.5800 O   0  0  0  0  0  1  0  0  0  0  0  0
   39.6750   32.7740   39.3210 C   0  0  0  0  0  3  0  0  0  0  0  0
   40.1420   33.7090   39.0100 H   0  0  0  0  0  0  0  0  0  0  0  0
   39.8470   32.4350   40.7820 C   0  0  2  0  0  0  0  0  0  0  0  0
   41.0420   31.1110   41.1270 S   0  0  0  0  0  0  0  0  0  0  0  0
   40.2190   30.3930   42.6010 C   0  0  0  0  0  3  0  0  0  0  0  0
   40.8430   29.5530   42.9060 H   0  0  0  0  0  0  0  0  0  0  0  0
   36.6610   30.3550   41.1130 C   0  0  0  0  0  0  0  0  0  0  0  0
   36.1090   29.3830   40.5490 O   0  0  0  0  0  0  0  0  0  0  0  0
   35.5690   31.1160   41.4440 O   0  0  0  0  0  0  0  0  0  0  0  0
   34.7220   30.7400   41.8390 H   0  0  0  0  0  0  0  0  0  0  0  0
  1  6  1  6  0  0  0
  1 22  1  0  0  0  0
  1  5  1  0  0  0  0
  2  1  1  0  0  0  0
  2  7  1  1  0  0  0
  3  2  1  0  0  0  0
  3  8  1  0  0  0  0
  3  4  1  0  0  0  0
  4  5  1  0  0  0  0
  5 10  1  0  0  0  0
  5 11  1  0  0  0  0
  9  3  1  0  0  0  0
 12  2  1  0  0  0  0
 13 18  1  0  0  0  0
 14 15  1  0  0  0  0
 14 13  2  0  0  0  0
 15 16  2  0  0  0  0
 16 17  1  0  0  0  0
 17 12  1  0  0  0  0
 18 17  2  0  0  0  0
 19 13  1  0  0  0  0
 20 14  1  0  0  0  0
 21 15  1  0  0  0  0
 22 23  1  0  0  0  0
 24 33  1  0  0  0  0
 24 23  1  0  0  0  0
 25 24  2  0  0  0  0
 26 31  1  0  0  0  0
 26 25  1  0  0  0  0
 27 28  1  1  0  0  0
 27 26  1  0  0  0  0
 27 31  1  0  0  0  0
 29 27  1  0  0  0  0
 30 29  1  0  0  0  0
 31 29  1  6  0  0  0
 31 32  1  0  0  0  0
 32 33  1  0  0  0  0
 33 34  1  0  0  0  0
 35 25  1  0  0  0  0
 35 37  1  0  0  0  0
 36 35  2  0  0  0  0
 37 38  1  0  0  0  0
M  END
>  <minimizedAffinity>
-5.1660943

$$$$

 OpenBabel03242521113D

 38 42  0  0  1  0  0  0  0  0999 V2000
   37.3820   30.2130   39.0030 C   0  0  1  0  0  0  0  0  0  0  0  0
   37.7500   29.4440   40.2750 C   0  0  1  0  0  0  0  0  0  0  0  0
   36.6370   29.8870   41.1940 C   0  0  0  0  0  0  0  0  0  0  0  0
   36.2230   31.1360   40.8100 O   0  0  0  0  0  0  0  0  0  0  0  0
   36.7820   31.4450   39.5710 C   0  0  0  0  0  0  0  0  0  0  0  0
   36.6630   29.5590   38.4330 H   0  0  0  0  0  0  0  0  0  0  0  0
   38.7240   29.7550   40.6700 H   0  0  0  0  0  0  0  0  0  0  0  0
   36.9080   29.8180   42.2680 H   0  0  0  0  0  0  0  0  0  0  0  0
   35.7540   29.2040   41.0650 H   0  0  0  0  0  0  0  0  0  0  0  0
   36.0590   31.9600   38.9070 H   0  0  0  0  0  0  0  0  0  0  0  0
   37.6050   32.1630   39.7710 H   0  0  0  0  0  0  0  0  0  0  0  0
   37.5640   27.6600   40.0690 S   0  0  0  0  0  0  0  0  0  0  0  0
   38.8810   24.8650   42.6550 C   0  0  0  0  0  0  0  0  0  0  0  0
   39.6970   25.6850   43.5040 C   0  0  0  0  0  0  0  0  0  0  0  0
   39.7950   27.0390   43.2340 C   0  0  0  0  0  0  0  0  0  0  0  0
   39.1110   27.5300   42.1780 N   0  0  0  0  0  0  0  0  0  0  0  0
   38.3440   26.7450   41.3820 C   0  0  0  0  0  0  0  0  0  0  0  0
   38.2210   25.4130   41.6110 N   0  0  0  0  0  0  0  0  0  0  0  0
   38.7750   23.8020   42.8280 H   0  0  0  0  0  0  0  0  0  0  0  0
   40.2100   25.2170   44.3280 H   0  0  0  0  0  0  0  0  0  0  0  0
   40.4130   27.6420   43.8840 H   0  0  0  0  0  0  0  0  0  0  0  0
   38.5300   30.5140   38.3360 O   0  0  0  0  0  0  0  0  0  0  0  0
   38.7450   31.8870   38.3500 C   0  0  0  0  0  2  0  0  0  0  0  0
   40.1220   32.2530   38.6620 C   0  0  0  0  0  0  0  0  0  0  0  0
   40.5830   32.5270   39.8550 C   0  0  0  0  0  0  0  0  0  0  0  0
   41.9390   32.8840   40.0830 N   0  0  0  0  0  0  0  0  0  0  0  0
   43.0100   33.2360   40.9530 C   0  0  2  0  0  0  0  0  0  0  0  0
   43.3360   32.8790   42.1110 O   0  0  0  0  0  1  0  0  0  0  0  0
   43.4970   34.1580   39.8810 C   0  0  0  0  0  3  0  0  0  0  0  0
   44.5840   34.2460   39.8660 H   0  0  0  0  0  0  0  0  0  0  0  0
   42.9400   33.0330   39.0410 C   0  0  2  0  0  0  0  0  0  0  0  0
   42.1510   33.5530   37.4890 S   0  0  0  0  0  0  0  0  0  0  0  0
   40.8620   32.2500   37.4020 C   0  0  0  0  0  3  0  0  0  0  0  0
   40.2900   32.4630   36.5000 H   0  0  0  0  0  0  0  0  0  0  0  0
   39.7600   32.5080   41.0890 C   0  0  0  0  0  0  0  0  0  0  0  0
   39.5950   31.7010   42.0330 O   0  0  0  0  0  0  0  0  0  0  0  0
   38.9120   33.5190   41.4630 O   0  0  0  0  0  0  0  0  0  0  0  0
   38.8430   33.8770   42.4020 H   0  0  0  0  0  0  0  0  0  0  0  0
  1  6  1  6  0  0  0
  1  5  1  0  0  0  0
  1  2  1  0  0  0  0
  2  7  1  1  0  0  0
  2  3  1  0  0  0  0
  3  8  1  0  0  0  0
  4  3  1  0  0  0  0
  5 11  1  0  0  0  0
  5  4  1  0  0  0  0
  9  3  1  0  0  0  0
 10  5  1  0  0  0  0
 12  2  1  0  0  0  0
 12 17  1  0  0  0  0
 13 19  1  0  0  0  0
 13 14  1  0  0  0  0
 14 20  1  0  0  0  0
 15 14  2  0  0  0  0
 15 21  1  0  0  0  0
 16 15  1  0  0  0  0
 17 18  1  0  0  0  0
 17 16  2  0  0  0  0
 18 13  2  0  0  0  0
 22 23  1  0  0  0  0
 22  1  1  0  0  0  0
 23 24  1  0  0  0  0
 24 25  2  0  0  0  0
 25 26  1  0  0  0  0
 25 35  1  0  0  0  0
 26 27  1  0  0  0  0
 27 28  1  1  0  0  0
 29 27  1  0  0  0  0
 30 29  1  0  0  0  0
 31 32  1  6  0  0  0
 31 29  1  0  0  0  0
 31 26  1  0  0  0  0
 31 27  1  0  0  0  0
 33 32  1  0  0  0  0
 33 24  1  0  0  0  0
 34 33  1  0  0  0  0
 35 37  1  0  0  0  0
 35 36  2  0  0  0  0
 37 38  1  0  0  0  0
M  END
>  <minimizedAffinity>
-5.11755705

$$$$

 OpenBabel03242521113D

 38 42  0  0  1  0  0  0  0  0999 V2000
   38.9240   31.8250   40.9910 C   0  0  1  0  0  0  0  0  0  0  0  0
   39.5800   32.6180   39.8560 C   0  0  1  0  0  0  0  0  0  0  0  0
   38.5590   33.7120   39.6600 C   0  0  0  0  0  0  0  0  0  0  0  0
   37.3280   33.2310   40.0240 O   0  0  0  0  0  0  0  0  0  0  0  0
   37.4860   32.0130   40.6810 C   0  0  0  0  0  0  0  0  0  0  0  0
   39.2650   32.3050   41.9520 H   0  0  0  0  0  0  0  0  0  0  0  0
   39.6810   32.0160   38.9460 H   0  0  0  0  0  0  0  0  0  0  0  0
   38.5830   34.1500   38.6410 H   0  0  0  0  0  0  0  0  0  0  0  0
   38.7880   34.5640   40.3560 H   0  0  0  0  0  0  0  0  0  0  0  0
   36.8060   31.9210   41.5530 H   0  0  0  0  0  0  0  0  0  0  0  0
   37.1880   31.2270   39.9570 H   0  0  0  0  0  0  0  0  0  0  0  0
   41.1030   33.4290   40.3870 S   0  0  0  0  0  0  0  0  0  0  0  0
   43.5180   32.2940   37.3670 C   0  0  0  0  0  0  0  0  0  0  0  0
   44.6480   33.1370   37.6300 C   0  0  0  0  0  0  0  0  0  0  0  0
   44.6040   33.9990   38.7120 C   0  0  0  0  0  0  0  0  0  0  0  0
   43.4900   34.0060   39.4770 N   0  0  0  0  0  0  0  0  0  0  0  0
   42.4280   33.2060   39.2180 C   0  0  0  0  0  0  0  0  0  0  0  0
   42.4300   32.3460   38.1670 N   0  0  0  0  0  0  0  0  0  0  0  0
   43.5080   31.6050   36.5330 H   0  0  0  0  0  0  0  0  0  0  0  0
   45.5000   33.0710   36.9730 H   0  0  0  0  0  0  0  0  0  0  0  0
   45.4650   34.6260   38.8960 H   0  0  0  0  0  0  0  0  0  0  0  0
   39.2670   30.5150   40.8540 O   0  0  0  0  0  0  0  0  0  0  0  0
   39.6650   29.9940   42.0790 C   0  0  0  0  0  2  0  0  0  0  0  0
   39.7030   28.5360   42.1010 C   0  0  0  0  0  0  0  0  0  0  0  0
   38.6720   27.7520   42.2780 C   0  0  0  0  0  0  0  0  0  0  0  0
   38.7870   26.3350   42.2950 N   0  0  0  0  0  0  0  0  0  0  0  0
   38.2140   25.0350   42.3910 C   0  0  2  0  0  0  0  0  0  0  0  0
   37.1350   24.5340   41.9890 O   0  0  0  0  0  1  0  0  0  0  0  0
   39.4370   24.6170   43.1420 C   0  0  0  0  0  3  0  0  0  0  0  0
   39.7060   23.5770   42.9590 H   0  0  0  0  0  0  0  0  0  0  0  0
   40.0380   25.6070   42.1720 C   0  0  2  0  0  0  0  0  0  0  0  0
   41.4050   26.6000   42.8370 S   0  0  0  0  0  0  0  0  0  0  0  0
   41.0950   28.1410   41.8900 C   0  0  0  0  0  3  0  0  0  0  0  0
   41.8570   28.8460   42.2180 H   0  0  0  0  0  0  0  0  0  0  0  0
   37.2860   28.2360   42.4880 C   0  0  0  0  0  0  0  0  0  0  0  0
   36.2610   28.3320   41.7740 O   0  0  0  0  0  0  0  0  0  0  0  0
   36.8190   28.7370   43.6760 O   0  0  0  0  0  0  0  0  0  0  0  0
   35.9240   28.5000   44.0740 H   0  0  0  0  0  0  0  0  0  0  0  0
  1  6  1  1  0  0  0
  2  7  1  6  0  0  0
  2 12  1  0  0  0  0
  2  1  1  0  0  0  0
  3  2  1  0  0  0  0
  3  4  1  0  0  0  0
  3  9  1  0  0  0  0
  4  5  1  0  0  0  0
  5  1  1  0  0  0  0
  5 10  1  0  0  0  0
  8  3  1  0  0  0  0
 11  5  1  0  0  0  0
 13 14  2  0  0  0  0
 13 18  1  0  0  0  0
 14 15  1  0  0  0  0
 15 21  1  0  0  0  0
 15 16  2  0  0  0  0
 17 16  1  0  0  0  0
 17 12  1  0  0  0  0
 18 17  2  0  0  0  0
 19 13  1  0  0  0  0
 20 14  1  0  0  0  0
 22  1  1  0  0  0  0
 22 23  1  0  0  0  0
 23 24  1  0  0  0  0
 24 25  2  0  0  0  0
 25 26  1  0  0  0  0
 25 35  1  0  0  0  0
 26 27  1  0  0  0  0
 27 28  1  6  0  0  0
 27 29  1  0  0  0  0
 30 29  1  0  0  0  0
 31 26  1  0  0  0  0
 31 27  1  0  0  0  0
 31 32  1  6  0  0  0
 31 29  1  0  0  0  0
 33 24  1  0  0  0  0
 33 34  1  0  0  0  0
 33 32  1  0  0  0  0
 35 37  1  0  0  0  0
 36 35  2  0  0  0  0
 37 38  1  0  0  0  0
M  END
>  <minimizedAffinity>
-5.07919359

$$$$

 OpenBabel03242521113D

 38 42  0  0  1  0  0  0  0  0999 V2000
   36.3680   28.9520   37.6670 C   0  0  1  0  0  0  0  0  0  0  0  0
   36.1270   27.7890   38.6340 C   0  0  1  0  0  0  0  0  0  0  0  0
   35.4850   26.7880   37.7040 C   0  0  0  0  0  0  0  0  0  0  0  0
   34.8360   27.4710   36.7080 O   0  0  0  0  0  0  0  0  0  0  0  0
   35.2080   28.8120   36.7520 C   0  0  0  0  0  0  0  0  0  0  0  0
   37.3700   28.7650   37.1880 H   0  0  0  0  0  0  0  0  0  0  0  0
   35.4380   28.0660   39.4390 H   0  0  0  0  0  0  0  0  0  0  0  0
   34.8420   26.0550   38.2340 H   0  0  0  0  0  0  0  0  0  0  0  0
   36.2840   26.1770   37.2050 H   0  0  0  0  0  0  0  0  0  0  0  0
   35.3630   29.2330   35.7370 H   0  0  0  0  0  0  0  0  0  0  0  0
   34.3530   29.3590   37.2010 H   0  0  0  0  0  0  0  0  0  0  0  0
   37.6730   27.0450   39.1980 S   0  0  0  0  0  0  0  0  0  0  0  0
   39.0370   27.1540   42.9870 C   0  0  0  0  0  0  0  0  0  0  0  0
   37.8190   27.4700   43.6760 C   0  0  0  0  0  0  0  0  0  0  0  0
   36.6570   27.6300   42.9410 C   0  0  0  0  0  0  0  0  0  0  0  0
   36.7250   27.4790   41.6000 N   0  0  0  0  0  0  0  0  0  0  0  0
   37.8820   27.1820   40.9610 C   0  0  0  0  0  0  0  0  0  0  0  0
   39.0440   27.0160   41.6430 N   0  0  0  0  0  0  0  0  0  0  0  0
   39.9690   27.0200   43.5210 H   0  0  0  0  0  0  0  0  0  0  0  0
   37.8490   27.5730   44.7480 H   0  0  0  0  0  0  0  0  0  0  0  0
   35.7480   27.8670   43.4750 H   0  0  0  0  0  0  0  0  0  0  0  0
   36.2770   30.1170   38.3650 O   0  0  0  0  0  0  0  0  0  0  0  0
   37.2940   30.9840   37.9840 C   0  0  0  0  0  2  0  0  0  0  0  0
   38.1880   31.3420   39.0800 C   0  0  0  0  0  0  0  0  0  0  0  0
   39.4590   31.6230   38.9620 C   0  0  0  0  0  0  0  0  0  0  0  0
   40.2720   31.9580   40.0800 N   0  0  0  0  0  0  0  0  0  0  0  0
   41.5180   32.3460   40.6480 C   0  0  2  0  0  0  0  0  0  0  0  0
   42.4430   33.1050   40.2660 O   0  0  0  0  0  1  0  0  0  0  0  0
   41.1900   31.4720   41.8150 C   0  0  0  0  0  3  0  0  0  0  0  0
   41.5900   31.8570   42.7530 H   0  0  0  0  0  0  0  0  0  0  0  0
   39.8120   31.9780   41.4580 C   0  0  2  0  0  0  0  0  0  0  0  0
   38.4700   30.7750   41.6850 S   0  0  0  0  0  0  0  0  0  0  0  0
   37.3910   31.3230   40.3060 C   0  0  0  0  0  3  0  0  0  0  0  0
   36.5330   30.6520   40.3200 H   0  0  0  0  0  0  0  0  0  0  0  0
   40.1960   31.6190   37.6750 C   0  0  0  0  0  0  0  0  0  0  0  0
   41.1330   30.9430   37.1910 O   0  0  0  0  0  0  0  0  0  0  0  0
   39.9410   32.4830   36.6410 O   0  0  0  0  0  0  0  0  0  0  0  0
   39.8900   32.2040   35.6740 H   0  0  0  0  0  0  0  0  0  0  0  0
  1  6  1  6  0  0  0
  1 22  1  0  0  0  0
  1  2  1  0  0  0  0
  2 12  1  0  0  0  0
  2  7  1  1  0  0  0
  3  8  1  0  0  0  0
  3  2  1  0  0  0  0
  4  5  1  0  0  0  0
  4  3  1  0  0  0  0
  5 11  1  0  0  0  0
  5  1  1  0  0  0  0
  9  3  1  0  0  0  0
 10  5  1  0  0  0  0
 12 17  1  0  0  0  0
 13 19  1  0  0  0  0
 13 14  1  0  0  0  0
 14 20  1  0  0  0  0
 15 21  1  0  0  0  0
 15 14  2  0  0  0  0
 16 15  1  0  0  0  0
 17 16  2  0  0  0  0
 17 18  1  0  0  0  0
 18 13  2  0  0  0  0
 23 22  1  0  0  0  0
 23 24  1  0  0  0  0
 24 33  1  0  0  0  0
 25 24  2  0  0  0  0
 25 26  1  0  0  0  0
 26 27  1  0  0  0  0
 26 31  1  0  0  0  0
 27 28  1  6  0  0  0
 27 31  1  0  0  0  0
 27 29  1  0  0  0  0
 29 30  1  0  0  0  0
 31 32  1  1  0  0  0
 31 29  1  0  0  0  0
 33 34  1  0  0  0  0
 33 32  1  0  0  0  0
 35 25  1  0  0  0  0
 36 35  2  0  0  0  0
 37 35  1  0  0  0  0
 38 37  1  0  0  0  0
M  END
>  <minimizedAffinity>
-5.03863287

$$$$

 OpenBabel03242521113D

 38 42  0  0  1  0  0  0  0  0999 V2000
   39.7780   31.9700   38.4990 C   0  0  1  0  0  0  0  0  0  0  0  0
   39.0510   32.3820   39.7820 C   0  0  1  0  0  0  0  0  0  0  0  0
   39.5000   33.8190   39.9020 C   0  0  0  0  0  0  0  0  0  0  0  0
   40.7310   33.9430   39.3120 O   0  0  0  0  0  0  0  0  0  0  0  0
   41.0150   32.7840   38.5930 C   0  0  0  0  0  0  0  0  0  0  0  0
   39.0970   32.2460   37.6450 H   0  0  0  0  0  0  0  0  0  0  0  0
   39.3890   31.7990   40.6450 H   0  0  0  0  0  0  0  0  0  0  0  0
   39.4640   34.1980   40.9440 H   0  0  0  0  0  0  0  0  0  0  0  0
   38.7990   34.4770   39.3210 H   0  0  0  0  0  0  0  0  0  0  0  0
   41.5000   33.0080   37.6210 H   0  0  0  0  0  0  0  0  0  0  0  0
   41.7520   32.2150   39.1970 H   0  0  0  0  0  0  0  0  0  0  0  0
   37.2590   32.4230   39.5630 S   0  0  0  0  0  0  0  0  0  0  0  0
   36.1480   28.8300   38.1150 C   0  0  0  0  0  0  0  0  0  0  0  0
   35.3800   28.3470   39.2260 C   0  0  0  0  0  0  0  0  0  0  0  0
   35.2490   29.1470   40.3480 C   0  0  0  0  0  0  0  0  0  0  0  0
   35.8530   30.3550   40.3440 N   0  0  0  0  0  0  0  0  0  0  0  0
   36.5770   30.8000   39.2890 C   0  0  0  0  0  0  0  0  0  0  0  0
   36.7320   30.0480   38.1690 N   0  0  0  0  0  0  0  0  0  0  0  0
   36.2780   28.2390   37.2180 H   0  0  0  0  0  0  0  0  0  0  0  0
   34.9280   27.3720   39.1510 H   0  0  0  0  0  0  0  0  0  0  0  0
   34.6660   28.7690   41.1750 H   0  0  0  0  0  0  0  0  0  0  0  0
   40.0810   30.6460   38.5830 O   0  0  0  0  0  0  0  0  0  0  0  0
   40.1960   30.2650   39.9150 C   0  0  0  0  0  2  0  0  0  0  0  0
   39.5850   28.9710   40.2000 C   0  0  0  0  0  0  0  0  0  0  0  0
   38.8890   28.6790   41.2670 C   0  0  0  0  0  0  0  0  0  0  0  0
   38.3290   27.3900   41.4810 N   0  0  0  0  0  0  0  0  0  0  0  0
   37.5580   26.4740   42.2520 C   0  0  2  0  0  0  0  0  0  0  0  0
   36.5220   26.5910   42.9510 O   0  0  0  0  0  1  0  0  0  0  0  0
   38.5210   25.4090   41.8380 C   0  0  0  0  0  3  0  0  0  0  0  0
   38.0480   24.4320   41.7370 H   0  0  0  0  0  0  0  0  0  0  0  0
   38.5010   26.2570   40.5890 C   0  0  2  0  0  0  0  0  0  0  0  0
   40.0910   26.3830   39.7210 S   0  0  0  0  0  0  0  0  0  0  0  0
   39.9040   28.0910   39.0770 C   0  0  0  0  0  3  0  0  0  0  0  0
   40.8250   28.3040   38.5360 H   0  0  0  0  0  0  0  0  0  0  0  0
   38.6120   29.6350   42.3660 C   0  0  0  0  0  0  0  0  0  0  0  0
   39.2730   30.5130   42.9670 O   0  0  0  0  0  0  0  0  0  0  0  0
   37.4050   29.7350   43.0110 O   0  0  0  0  0  0  0  0  0  0  0  0
   36.9600   30.6110   43.2370 H   0  0  0  0  0  0  0  0  0  0  0  0
  1  6  1  6  0  0  0
  1 22  1  0  0  0  0
  1  5  1  0  0  0  0
  1  2  1  0  0  0  0
  2  3  1  0  0  0  0
  2  7  1  1  0  0  0
  3  8  1  0  0  0  0
  4  3  1  0  0  0  0
  5 11  1  0  0  0  0
  5  4  1  0  0  0  0
  9  3  1  0  0  0  0
 10  5  1  0  0  0  0
 12  2  1  0  0  0  0
 13 18  2  0  0  0  0
 13 14  1  0  0  0  0
 14 15  2  0  0  0  0
 15 21  1  0  0  0  0
 16 15  1  0  0  0  0
 17 12  1  0  0  0  0
 17 16  2  0  0  0  0
 18 17  1  0  0  0  0
 19 13  1  0  0  0  0
 20 14  1  0  0  0  0
 22 23  1  0  0  0  0
 23 24  1  0  0  0  0
 24 25  2  0  0  0  0
 25 26  1  0  0  0  0
 25 35  1  0  0  0  0
 26 27  1  0  0  0  0
 27 28  1  1  0  0  0
 29 27  1  0  0  0  0
 30 29  1  0  0  0  0
 31 32  1  6  0  0  0
 31 26  1  0  0  0  0
 31 29  1  0  0  0  0
 31 27  1  0  0  0  0
 33 32  1  0  0  0  0
 33 24  1  0  0  0  0
 34 33  1  0  0  0  0
 35 36  2  0  0  0  0
 35 37  1  0  0  0  0
 37 38  1  0  0  0  0
M  END
>  <minimizedAffinity>
-5.00951529

$$$$

 OpenBabel03242521113D

 38 42  0  0  1  0  0  0  0  0999 V2000
   37.6400   25.3240   38.6240 C   0  0  1  0  0  0  0  0  0  0  0  0
   36.4140   25.1120   39.5170 C   0  0  1  0  0  0  0  0  0  0  0  0
   35.5650   24.2480   38.6160 C   0  0  0  0  0  0  0  0  0  0  0  0
   35.8700   24.5430   37.3120 O   0  0  0  0  0  0  0  0  0  0  0  0
   37.0190   25.3300   37.2760 C   0  0  0  0  0  0  0  0  0  0  0  0
   38.3300   24.4550   38.8190 H   0  0  0  0  0  0  0  0  0  0  0  0
   35.9050   26.0570   39.7380 H   0  0  0  0  0  0  0  0  0  0  0  0
   34.4810   24.3160   38.8460 H   0  0  0  0  0  0  0  0  0  0  0  0
   35.8350   23.1690   38.7720 H   0  0  0  0  0  0  0  0  0  0  0  0
   37.6970   25.0360   36.4490 H   0  0  0  0  0  0  0  0  0  0  0  0
   36.6810   26.3650   37.0620 H   0  0  0  0  0  0  0  0  0  0  0  0
   36.7980   24.1130   40.9710 S   0  0  0  0  0  0  0  0  0  0  0  0
   38.7890   26.6290   43.4080 C   0  0  0  0  0  0  0  0  0  0  0  0
   39.9530   25.8340   43.6800 C   0  0  0  0  0  0  0  0  0  0  0  0
   40.0570   24.5810   43.1020 C   0  0  0  0  0  0  0  0  0  0  0  0
   39.0520   24.1610   42.3030 N   0  0  0  0  0  0  0  0  0  0  0  0
   37.9580   24.9200   42.0550 C   0  0  0  0  0  0  0  0  0  0  0  0
   37.8150   26.1550   42.6010 N   0  0  0  0  0  0  0  0  0  0  0  0
   38.6650   27.6140   43.8380 H   0  0  0  0  0  0  0  0  0  0  0  0
   40.7110   26.2420   44.3280 H   0  0  0  0  0  0  0  0  0  0  0  0
   40.9400   23.9960   43.3160 H   0  0  0  0  0  0  0  0  0  0  0  0
   38.1680   26.5470   38.9020 O   0  0  0  0  0  0  0  0  0  0  0  0
   37.1720   27.4090   39.3450 C   0  0  0  0  0  2  0  0  0  0  0  0
   37.4820   28.8160   39.1160 C   0  0  0  0  0  0  0  0  0  0  0  0
   37.5290   29.7430   40.0370 C   0  0  0  0  0  0  0  0  0  0  0  0
   37.8310   31.0990   39.7380 N   0  0  0  0  0  0  0  0  0  0  0  0
   38.0560   32.4470   40.1360 C   0  0  2  0  0  0  0  0  0  0  0  0
   38.6040   32.9730   41.1360 O   0  0  0  0  0  1  0  0  0  0  0  0
   37.3750   32.8700   38.8750 C   0  0  0  0  0  3  0  0  0  0  0  0
   37.7800   33.7980   38.4700 H   0  0  0  0  0  0  0  0  0  0  0  0
   38.0700   31.6160   38.4010 C   0  0  2  0  0  0  0  0  0  0  0  0
   37.1430   30.6390   37.1810 S   0  0  0  0  0  0  0  0  0  0  0  0
   37.7250   28.9730   37.6830 C   0  0  0  0  0  3  0  0  0  0  0  0
   37.2150   28.2730   37.0230 H   0  0  0  0  0  0  0  0  0  0  0  0
   37.2670   29.4990   41.4760 C   0  0  0  0  0  0  0  0  0  0  0  0
   37.8760   29.7440   42.5430 O   0  0  0  0  0  0  0  0  0  0  0  0
   36.1490   28.8670   41.9580 O   0  0  0  0  0  0  0  0  0  0  0  0
   35.6230   29.1850   42.7560 H   0  0  0  0  0  0  0  0  0  0  0  0
  1  6  1  1  0  0  0
  1 22  1  0  0  0  0
  1  2  1  0  0  0  0
  2  7  1  1  0  0  0
  2 12  1  0  0  0  0
  3  9  1  0  0  0  0
  3  8  1  0  0  0  0
  3  2  1  0  0  0  0
  4  3  1  0  0  0  0
  5  4  1  0  0  0  0
  5  1  1  0  0  0  0
 10  5  1  0  0  0  0
 11  5  1  0  0  0  0
 12 17  1  0  0  0  0
 13 14  1  0  0  0  0
 13 19  1  0  0  0  0
 14 20  1  0  0  0  0
 15 21  1  0  0  0  0
 15 14  2  0  0  0  0
 16 15  1  0  0  0  0
 17 16  2  0  0  0  0
 17 18  1  0  0  0  0
 18 13  2  0  0  0  0
 22 23  1  0  0  0  0
 24 23  1  0  0  0  0
 24 25  2  0  0  0  0
 25 35  1  0  0  0  0
 26 25  1  0  0  0  0
 26 27  1  0  0  0  0
 27 28  1  1  0  0  0
 29 27  1  0  0  0  0
 30 29  1  0  0  0  0
 31 32  1  6  0  0  0
 31 29  1  0  0  0  0
 31 26  1  0  0  0  0
 31 27  1  0  0  0  0
 32 33  1  0  0  0  0
 33 24  1  0  0  0  0
 34 33  1  0  0  0  0
 35 37  1  0  0  0  0
 35 36  2  0  0  0  0
 37 38  1  0  0  0  0
M  END
>  <minimizedAffinity>
-4.91654205

$$$$
