
     RDKit          3D

 60 65  0  0  0  0  0  0  0  0999 V2000
   45.9417   32.3452   46.0821 C   0  0  0  0  0  0  0  0  0  0  0  0
   45.6421   33.0151   47.2665 C   0  0  0  0  0  0  0  0  0  0  0  0
   45.8604   32.4622   48.5334 C   0  0  0  0  0  0  0  0  0  0  0  0
   46.3920   31.2086   48.6593 C   0  0  0  0  0  0  0  0  0  0  0  0
   46.6975   30.5047   47.4787 C   0  0  0  0  0  0  0  0  0  0  0  0
   47.1721   29.2422   47.6465 C   0  0  0  0  0  0  0  0  0  0  0  0
   47.4150   28.4898   46.4956 C   0  0  0  0  0  0  0  0  0  0  0  0
   47.1439   29.0860   45.2111 C   0  0  0  0  0  0  0  0  0  0  0  0
   46.6646   30.3748   45.2134 C   0  0  0  0  0  0  0  0  0  0  0  0
   46.4346   31.1436   46.2650 C   0  0  0  0  0  0  0  0  0  0  0  0
   45.2468   34.1329   42.8806 C   0  0  0  0  0  0  0  0  0  0  0  0
   46.5598   34.5384   42.5409 C   0  0  0  0  0  0  0  0  0  0  0  0
   47.5586   34.1499   43.4046 C   0  0  0  0  0  0  0  0  0  0  0  0
   47.1586   33.4418   44.4575 N   0  0  0  0  0  0  0  0  0  0  0  0
   45.9404   33.0461   44.8081 C   0  0  0  0  0  0  0  0  0  0  0  0
   45.0067   33.4153   43.9824 N   0  0  0  0  0  0  0  0  0  0  0  0
   48.9263   34.4321   43.1592 N   0  0  0  0  0  0  0  0  0  0  0  0
   44.8828   29.7579   43.8384 C   0  0  0  0  0  0  0  0  0  0  0  0
   46.2333   30.2826   43.8331 C   0  0  0  0  0  0  0  0  0  0  0  0
   46.6901   30.3781   42.5865 C   0  0  0  0  0  0  0  0  0  0  0  0
   46.0027   30.0301   41.4434 C   0  0  0  0  0  0  0  0  0  0  0  0
   44.7313   29.5331   41.4746 C   0  0  0  0  0  0  0  0  0  0  0  0
   44.1621   29.3965   42.7168 C   0  0  0  0  0  0  0  0  0  0  0  0
   44.0721   29.5284   44.9835 O   0  0  0  0  0  0  0  0  0  0  0  0
   42.8837   28.8867   42.6847 O   0  0  0  0  0  0  0  0  0  0  0  0
   45.2133   34.0273   47.1767 H   0  0  0  0  0  0  0  0  0  0  0  0
   45.5807   33.0936   49.3744 H   0  0  0  0  0  0  0  0  0  0  0  0
   46.5606   30.7984   49.6365 H   0  0  0  0  0  0  0  0  0  0  0  0
   47.3529   28.8409   48.6335 H   0  0  0  0  0  0  0  0  0  0  0  0
   47.7948   27.5009   46.7042 H   0  0  0  0  0  0  0  0  0  0  0  0
   47.4178   28.2926   44.5329 H   0  0  0  0  0  0  0  0  0  0  0  0
   44.4702   34.4264   42.2199 H   0  0  0  0  0  0  0  0  0  0  0  0
   46.7821   35.1154   41.6648 H   0  0  0  0  0  0  0  0  0  0  0  0
   49.1116   35.1892   43.8665 H   0  0  0  0  0  0  0  0  0  0  0  0
   49.5655   33.9942   42.4576 H   0  0  0  0  0  0  0  0  0  0  0  0
   47.7104   30.7857   42.6812 H   0  0  0  0  0  0  0  0  0  0  0  0
   46.5992   30.2028   40.5458 H   0  0  0  0  0  0  0  0  0  0  0  0
   44.3691   29.3190   40.4842 H   0  0  0  0  0  0  0  0  0  0  0  0
   43.3357   30.1932   45.1476 H   0  0  0  0  0  0  0  0  0  0  0  0
   42.3164   28.5783   41.4289 C   0  0  0  0  0  0  0  0  0  0  0  0
   42.2987   27.1150   41.1771 C   0  0  0  0  0  0  0  0  0  0  0  0
   41.2233   26.3839   40.9633 C   0  0  0  0  0  0  0  0  0  0  0  0
   39.8694   26.9867   40.9548 C   0  0  0  0  0  0  0  0  0  0  0  0
   39.2937   28.0693   41.0933 O   0  0  0  0  0  0  0  0  0  0  0  0
   38.7194   26.2935   40.7412 O   0  0  0  0  0  0  0  0  0  0  0  0
   41.2497   24.9825   40.7254 N   0  0  0  0  0  0  0  0  0  0  0  0
   40.6451   23.7146   41.0606 C   0  0  0  0  0  0  0  0  0  0  0  0
   39.5027   23.3947   41.4817 O   0  0  0  0  0  0  0  0  0  0  0  0
   41.9488   23.0580   40.6843 C   0  0  1  0  0  0  0  0  0  0  0  0
   42.6713   22.9396   41.4958 H   0  0  0  0  0  0  0  0  0  0  0  0
   42.1652   24.2698   39.8167 C   0  0  2  0  0  0  0  0  0  0  0  0
   43.7638   25.0990   40.0033 S   0  0  0  0  0  0  0  0  0  0  0  0
   43.6368   26.4695   41.1788 C   0  0  2  0  0  0  0  0  0  0  0  0
   43.7161   25.9941   42.1983 H   0  0  0  0  0  0  0  0  0  0  0  0
   42.9593   29.0803   40.6586 H   0  0  0  0  0  0  0  0  0  0  0  0
   41.3383   29.0649   41.3568 H   0  0  0  0  0  0  0  0  0  0  0  0
   38.1426   26.2926   39.9246 H   0  0  0  0  0  0  0  0  0  0  0  0
   41.7031   22.1606   40.0877 H   0  0  0  0  0  0  0  0  0  0  0  0
   41.7840   24.1935   38.7798 H   0  0  0  0  0  0  0  0  0  0  0  0
   44.4738   27.1630   41.1177 H   0  0  0  0  0  0  0  0  0  0  0  0
  1 10  1  0
  1  2  2  0
  2  3  1  0
  3  4  2  0
  5  6  2  0
  5  4  1  0
  7  6  1  0
  8  7  2  0
  9  8  1  0
  9 10  2  0
 10  5  1  0
 11 16  2  0
 12 11  1  0
 12 13  2  0
 13 14  1  0
 14 15  2  0
 15  1  1  0
 16 15  1  0
 17 13  1  0
 18 24  1  0
 19 18  2  0
 19  9  1  0
 20 19  1  0
 21 22  1  0
 21 20  2  0
 22 23  2  0
 23 18  1  0
 25 23  1  0
  2 26  1  0
  3 27  1  0
  4 28  1  0
  6 29  1  0
  7 30  1  0
  8 31  1  0
 11 32  1  0
 12 33  1  0
 17 34  1  0
 17 35  1  0
 20 36  1  0
 21 37  1  0
 22 38  1  0
 24 39  1  0
 40 41  1  0
 41 42  2  0
 42 43  1  0
 43 44  2  0
 43 45  1  0
 42 46  1  0
 46 47  1  0
 47 48  2  0
 47 49  1  0
 49 50  1  1
 49 51  1  0
 51 52  1  0
 52 53  1  0
 53 54  1  1
 53 41  1  0
 51 46  1  0
 40 55  1  0
 40 56  1  0
 45 57  1  0
 49 58  1  0
 51 59  1  6
 53 60  1  0
 25 40  1  0
M  ISO  8  26  14  27  14  28  14  29  14  30  14  31  14  32  14  33  14
M  ISO  6  36  14  37  14  38  14  39   3  50  15  54  15
M  END
>  <DihAtoms>  (1) 
22,24,39,40

>  <DihDeg>  (1) 
179.44507580664265

$$$$
