REMARK  Name = 
REMARK  9 active torsions:
REMARK  status: ('A' for Active; 'I' for Inactive)
REMARK    1  A    between atoms: C_1  and  C_15
REMARK    2  A    between atoms: C_9  and  C_19
REMARK    3  A    between atoms: C_13  and  N_17
REMARK    4  A    between atoms: C_18  and  O_24
REMARK    5  A    between atoms: C_23  and  O_25
REMARK    6  A    between atoms: O_25  and  C_40
REMARK    7  A    between atoms: C_40  and  C_41
REMARK    8  A    between atoms: C_42  and  C_43
REMARK    9  A    between atoms: C_43  and  O_45
REMARK                            x       y       z     vdW  Elec       q    Type
REMARK                         _______ _______ _______ _____ _____    ______ ____
ROOT
ATOM      1  C   UNL     1      44.883  29.758  43.838  0.00  0.00    +0.000 A 
ATOM      2  C   UNL     1      46.233  30.283  43.833  0.00  0.00    +0.000 A 
ATOM      3  C   UNL     1      46.690  30.378  42.587  0.00  0.00    +0.000 A 
ATOM      4  C   UNL     1      46.003  30.030  41.443  0.00  0.00    +0.000 A 
ATOM      5  C   UNL     1      44.731  29.533  41.475  0.00  0.00    +0.000 A 
ATOM      6  C   UNL     1      44.162  29.396  42.717  0.00  0.00    +0.000 A 
ATOM      7  H   UNL     1      47.710  30.786  42.681  0.00  0.00    +0.000 HD
ATOM      8  H   UNL     1      46.599  30.203  40.546  0.00  0.00    +0.000 HD
ATOM      9  H   UNL     1      44.369  29.319  40.484  0.00  0.00    +0.000 HD
ENDROOT
BRANCH   2  18
ATOM     10  C   UNL     1      45.942  32.345  46.082  0.00  0.00    +0.000 A 
ATOM     11  C   UNL     1      45.642  33.015  47.267  0.00  0.00    +0.000 A 
ATOM     12  C   UNL     1      45.860  32.462  48.533  0.00  0.00    +0.000 A 
ATOM     13  C   UNL     1      46.392  31.209  48.659  0.00  0.00    +0.000 A 
ATOM     14  C   UNL     1      46.697  30.505  47.479  0.00  0.00    +0.000 A 
ATOM     15  C   UNL     1      47.172  29.242  47.647  0.00  0.00    +0.000 A 
ATOM     16  C   UNL     1      47.415  28.490  46.496  0.00  0.00    +0.000 A 
ATOM     17  C   UNL     1      47.144  29.086  45.211  0.00  0.00    +0.000 A 
ATOM     18  C   UNL     1      46.665  30.375  45.213  0.00  0.00    +0.000 A 
ATOM     19  C   UNL     1      46.435  31.144  46.265  0.00  0.00    +0.000 A 
ATOM     20  H   UNL     1      45.213  34.027  47.177  0.00  0.00    +0.000 HD
ATOM     21  H   UNL     1      45.581  33.094  49.374  0.00  0.00    +0.000 HD
ATOM     22  H   UNL     1      46.561  30.798  49.636  0.00  0.00    +0.000 HD
ATOM     23  H   UNL     1      47.353  28.841  48.633  0.00  0.00    +0.000 HD
ATOM     24  H   UNL     1      47.795  27.501  46.704  0.00  0.00    +0.000 HD
ATOM     25  H   UNL     1      47.418  28.293  44.533  0.00  0.00    +0.000 HD
BRANCH  10  30
ATOM     26  C   UNL     1      45.247  34.133  42.881  0.00  0.00    +0.000 A 
ATOM     27  C   UNL     1      46.560  34.538  42.541  0.00  0.00    +0.000 A 
ATOM     28  C   UNL     1      47.559  34.150  43.405  0.00  0.00    +0.000 A 
ATOM     29  N   UNL     1      47.159  33.442  44.458  0.00  0.00    +0.000 NA
ATOM     30  C   UNL     1      45.940  33.046  44.808  0.00  0.00    +0.000 A 
ATOM     31  N   UNL     1      45.007  33.415  43.982  0.00  0.00    +0.000 NA
ATOM     32  H   UNL     1      44.470  34.426  42.220  0.00  0.00    +0.000 HD
ATOM     33  H   UNL     1      46.782  35.115  41.665  0.00  0.00    +0.000 HD
BRANCH  28  34
ATOM     34  N   UNL     1      48.926  34.432  43.159  0.00  0.00    +0.000 N 
ATOM     35  H   UNL     1      49.112  35.189  43.867  0.00  0.00    +0.000 HD
ATOM     36  H   UNL     1      49.566  33.994  42.458  0.00  0.00    +0.000 HD
ENDBRANCH  28  34
ENDBRANCH  10  30
ENDBRANCH   2  18
BRANCH   1  37
ATOM     37  O   UNL     1      44.072  29.528  44.983  0.00  0.00    +0.000 OA
ATOM     38  H   UNL     1      43.336  30.193  45.148  0.00  0.00    +0.000 HD
ENDBRANCH   1  37
BRANCH   6  39
ATOM     39  O   UNL     1      42.884  28.887  42.685  0.00  0.00    +0.000 OA
BRANCH  39  40
ATOM     40  C   UNL     1      42.316  28.578  41.429  0.00  0.00    +0.000 C 
BRANCH  40  41
ATOM     41  C   UNL     1      41.576  29.733  40.861  0.00  0.00    +0.000 C 
ATOM     42  C   UNL     1      41.841  30.329  39.715  0.00  0.00    +0.000 C 
ATOM     43  N   UNL     1      41.106  31.434  39.206  0.00  0.00    +0.000 N 
ATOM     44  C   UNL     1      41.204  32.738  38.592  0.00  0.00    +0.000 C 
ATOM     45  O   UNL     1      42.088  33.287  37.884  0.00  0.00    +0.000 OA
ATOM     46  C   UNL     1      39.851  33.052  39.178  0.00  0.00    +0.000 C 
ATOM     47  H   UNL     1      39.859  33.508  40.171  0.00  0.00    +0.000 HD
ATOM     48  C   UNL     1      39.638  31.561  39.167  0.00  0.00    +0.000 C 
ATOM     49  S   UNL     1      39.056  30.837  40.721  0.00  0.00    +0.000 S 
ATOM     50  C   UNL     1      40.449  30.220  41.698  0.00  0.00    +0.000 C 
ATOM     51  H   UNL     1      40.865  31.125  42.226  0.00  0.00    +0.000 HD
BRANCH  42  52
ATOM     52  C   UNL     1      42.956  29.877  38.850  0.00  0.00    +0.000 C 
ATOM     53  O   UNL     1      43.855  29.034  38.796  0.00  0.00    +0.000 OA
BRANCH  52  54
ATOM     54  O   UNL     1      43.285  30.444  37.659  0.00  0.00    +0.000 OA
ATOM     55  H   UNL     1      43.132  30.082  36.740  0.00  0.00    +0.000 HD
ENDBRANCH  52  54
ENDBRANCH  42  52
ENDBRANCH  40  41
ENDBRANCH  39  40
ENDBRANCH   6  39
TORSDOF 9
