
 OpenBabel03242521553D

 55 60  0  0  1  0  0  0  0  0999 V2000
   44.9460   29.7030   43.8480 C   0  0  0  0  0  0  0  0  0  0  0  0
   46.2950   30.2300   43.8600 C   0  0  0  0  0  0  0  0  0  0  0  0
   46.7800   30.2960   42.6220 C   0  0  0  0  0  0  0  0  0  0  0  0
   46.1180   29.9200   41.4720 C   0  0  0  0  0  0  0  0  0  0  0  0
   44.8460   29.4220   41.4880 C   0  0  0  0  0  0  0  0  0  0  0  0
   44.2500   29.3140   42.7200 C   0  0  0  0  0  0  0  0  0  0  0  0
   47.7970   30.7080   42.7290 H   0  0  0  0  0  0  0  0  0  0  0  0
   46.7340   30.0730   40.5840 H   0  0  0  0  0  0  0  0  0  0  0  0
   44.5060   29.1840   40.4940 H   0  0  0  0  0  0  0  0  0  0  0  0
   45.9190   32.3260   46.0640 C   0  0  0  0  0  0  0  0  0  0  0  0
   45.5820   33.0110   47.2300 C   0  0  0  0  0  0  0  0  0  0  0  0
   45.7840   32.4860   48.5100 C   0  0  0  0  0  0  0  0  0  0  0  0
   46.3370   31.2460   48.6700 C   0  0  0  0  0  0  0  0  0  0  0  0
   46.6800   30.5270   47.5100 C   0  0  0  0  0  0  0  0  0  0  0  0
   47.1750   29.2760   47.7110 C   0  0  0  0  0  0  0  0  0  0  0  0
   47.4560   28.5080   46.5790 C   0  0  0  0  0  0  0  0  0  0  0  0
   47.2000   29.0760   45.2780 C   0  0  0  0  0  0  0  0  0  0  0  0
   46.6970   30.3550   45.2460 C   0  0  0  0  0  0  0  0  0  0  0  0
   46.4310   31.1380   46.2790 C   0  0  0  0  0  0  0  0  0  0  0  0
   45.1360   34.0130   47.1130 H   0  0  0  0  0  0  0  0  0  0  0  0
   45.4760   33.1270   49.3340 H   0  0  0  0  0  0  0  0  0  0  0  0
   46.4930   30.8560   49.6580 H   0  0  0  0  0  0  0  0  0  0  0  0
   47.3430   28.8970   48.7070 H   0  0  0  0  0  0  0  0  0  0  0  0
   47.8500   27.5310   46.8130 H   0  0  0  0  0  0  0  0  0  0  0  0
   47.5030   28.2760   44.6200 H   0  0  0  0  0  0  0  0  0  0  0  0
   45.2560   34.0380   42.8150 C   0  0  0  0  0  0  0  0  0  0  0  0
   46.5670   34.4700   42.4990 C   0  0  0  0  0  0  0  0  0  0  0  0
   47.5540   34.1230   43.3930 C   0  0  0  0  0  0  0  0  0  0  0  0
   47.1470   33.4240   44.4490 N   0  0  0  0  0  0  0  0  0  0  0  0
   45.9300   33.0040   44.7780 C   0  0  0  0  0  0  0  0  0  0  0  0
   45.0080   33.3340   43.9230 N   0  0  0  0  0  0  0  0  0  0  0  0
   44.4880   34.3000   42.1310 H   0  0  0  0  0  0  0  0  0  0  0  0
   46.7950   35.0370   41.6170 H   0  0  0  0  0  0  0  0  0  0  0  0
   48.9190   34.4350   43.1740 N   0  0  0  0  0  0  0  0  0  0  0  0
   49.0700   35.2090   43.8720 H   0  0  0  0  0  0  0  0  0  0  0  0
   49.5860   34.0010   42.4960 H   0  0  0  0  0  0  0  0  0  0  0  0
   44.1110   29.4990   44.9800 O   0  0  0  0  0  0  0  0  0  0  0  0
   43.3700   30.1660   45.1130 H   0  0  0  0  0  0  0  0  0  0  0  0
   42.9740   28.8020   42.6720 O   0  0  0  0  0  0  0  0  0  0  0  0
   42.3830   28.5900   41.4060 C   0  0  0  0  0  2  0  0  0  0  0  0
   40.9560   29.0000   41.3900 C   0  0  0  0  0  0  0  0  0  0  0  0
   40.4630   30.0490   40.7630 C   0  0  0  0  0  0  0  0  0  0  0  0
   39.0870   30.4060   40.7720 N   0  0  0  0  0  0  0  0  0  0  0  0
   38.1490   31.4920   40.9260 C   0  0  0  0  0  0  0  0  0  0  0  0
   38.2390   32.7350   40.7480 O   0  0  0  0  0  0  0  0  0  0  0  0
   37.1280   30.4720   41.3640 C   0  0  0  0  0  3  0  0  0  0  0  0
   37.0880   30.2710   42.4370 H   0  0  0  0  0  0  0  0  0  0  0  0
   37.9490   29.4930   40.5660 C   0  0  2  0  0  3  0  0  0  0  0  0
   38.4030   27.9630   41.4220 S   0  0  0  0  0  0  0  0  0  0  0  0
   40.0480   28.1140   42.1630 C   0  0  0  0  0  3  0  0  0  0  0  0
   39.8870   28.6610   43.1360 H   0  0  0  0  0  0  0  0  0  0  0  0
   41.3330   30.9600   39.9820 C   0  0  0  0  0  0  0  0  0  0  0  0
   42.5150   31.1380   39.6740 O   0  0  0  0  0  0  0  0  0  0  0  0
   40.8880   32.0390   39.2840 O   0  0  0  0  0  0  0  0  0  0  0  0
   40.7990   32.1380   38.2930 H   0  0  0  0  0  0  0  0  0  0  0  0
  1  2  1  0  0  0  0
  1 37  1  0  0  0  0
  2 18  1  0  0  0  0
  3  7  1  0  0  0  0
  3  2  2  0  0  0  0
  4  5  2  0  0  0  0
  4  3  1  0  0  0  0
  5  6  1  0  0  0  0
  6  1  2  0  0  0  0
  8  4  1  0  0  0  0
  9  5  1  0  0  0  0
 10 19  2  0  0  0  0
 10 11  1  0  0  0  0
 11 12  2  0  0  0  0
 12 13  1  0  0  0  0
 12 21  1  0  0  0  0
 13 22  1  0  0  0  0
 14 15  1  0  0  0  0
 14 13  2  0  0  0  0
 15 23  1  0  0  0  0
 16 24  1  0  0  0  0
 16 15  2  0  0  0  0
 17 16  1  0  0  0  0
 18 17  2  0  0  0  0
 18 19  1  0  0  0  0
 19 14  1  0  0  0  0
 20 11  1  0  0  0  0
 25 17  1  0  0  0  0
 26 31  1  0  0  0  0
 27 26  2  0  0  0  0
 27 28  1  0  0  0  0
 28 29  2  0  0  0  0
 29 30  1  0  0  0  0
 30 10  1  0  0  0  0
 31 30  2  0  0  0  0
 32 26  1  0  0  0  0
 33 27  1  0  0  0  0
 34 28  1  0  0  0  0
 34 35  1  0  0  0  0
 36 34  1  0  0  0  0
 37 38  1  0  0  0  0
 39  6  1  0  0  0  0
 40 39  1  0  0  0  0
 41 40  1  0  0  0  0
 41 50  1  0  0  0  0
 42 43  1  0  0  0  0
 42 41  2  0  0  0  0
 43 44  1  0  0  0  0
 44 46  1  0  0  0  0
 45 44  2  0  0  0  0
 46 47  1  0  0  0  0
 48 43  1  0  0  0  0
 48 46  1  1  0  0  0
 48 49  1  0  0  0  0
 49 50  1  0  0  0  0
 50 51  1  0  0  0  0
 52 42  1  0  0  0  0
 53 52  2  0  0  0  0
 54 52  1  0  0  0  0
 55 54  1  0  0  0  0
M  END
>  <minimizedAffinity>
-6.02371264

>  <minimizedRMSD>
0.361420035

$$$$
