
 OpenBabel03242521543D

 55 60  0  0  1  0  0  0  0  0999 V2000
   44.5690   30.2630   42.9760 C   0  0  0  0  0  0  0  0  0  0  0  0
   45.9620   30.6290   43.1280 C   0  0  0  0  0  0  0  0  0  0  0  0
   46.5470   30.7330   41.9380 C   0  0  0  0  0  0  0  0  0  0  0  0
   45.9430   30.5240   40.7160 C   0  0  0  0  0  0  0  0  0  0  0  0
   44.6270   30.1750   40.6000 C   0  0  0  0  0  0  0  0  0  0  0  0
   43.9270   30.0430   41.7730 C   0  0  0  0  0  0  0  0  0  0  0  0
   47.5920   31.0150   42.1500 H   0  0  0  0  0  0  0  0  0  0  0  0
   46.6400   30.6720   39.8900 H   0  0  0  0  0  0  0  0  0  0  0  0
   44.3430   30.0540   39.5680 H   0  0  0  0  0  0  0  0  0  0  0  0
   45.7820   32.6320   45.4400 C   0  0  0  0  0  0  0  0  0  0  0  0
   45.4770   33.3010   46.6240 C   0  0  0  0  0  0  0  0  0  0  0  0
   45.4760   32.6770   47.8760 C   0  0  0  0  0  0  0  0  0  0  0  0
   45.7840   31.3500   47.9880 C   0  0  0  0  0  0  0  0  0  0  0  0
   46.0890   30.6460   46.8080 C   0  0  0  0  0  0  0  0  0  0  0  0
   46.3360   29.3170   46.9560 C   0  0  0  0  0  0  0  0  0  0  0  0
   46.5690   28.5760   45.7960 C   0  0  0  0  0  0  0  0  0  0  0  0
   46.5270   29.2520   44.5230 C   0  0  0  0  0  0  0  0  0  0  0  0
   46.2630   30.6010   44.5450 C   0  0  0  0  0  0  0  0  0  0  0  0
   46.0550   31.3610   45.6080 C   0  0  0  0  0  0  0  0  0  0  0  0
   45.2270   34.3730   46.5460 H   0  0  0  0  0  0  0  0  0  0  0  0
   45.2190   33.3170   48.7180 H   0  0  0  0  0  0  0  0  0  0  0  0
   45.7870   30.8840   48.9550 H   0  0  0  0  0  0  0  0  0  0  0  0
   46.3510   28.8590   47.9330 H   0  0  0  0  0  0  0  0  0  0  0  0
   46.7630   27.5310   45.9890 H   0  0  0  0  0  0  0  0  0  0  0  0
   46.7370   28.4480   43.8350 H   0  0  0  0  0  0  0  0  0  0  0  0
   45.7010   34.5660   42.2490 C   0  0  0  0  0  0  0  0  0  0  0  0
   47.0780   34.8640   42.1130 C   0  0  0  0  0  0  0  0  0  0  0  0
   47.9080   34.3660   43.0920 C   0  0  0  0  0  0  0  0  0  0  0  0
   47.3050   33.6650   44.0490 N   0  0  0  0  0  0  0  0  0  0  0  0
   46.0200   33.3670   44.2080 C   0  0  0  0  0  0  0  0  0  0  0  0
   45.2480   33.8400   43.2760 N   0  0  0  0  0  0  0  0  0  0  0  0
   45.0530   34.9440   41.4990 H   0  0  0  0  0  0  0  0  0  0  0  0
   47.4700   35.4450   41.3010 H   0  0  0  0  0  0  0  0  0  0  0  0
   49.3150   34.5350   43.0520 N   0  0  0  0  0  0  0  0  0  0  0  0
   49.4590   35.2520   43.8090 H   0  0  0  0  0  0  0  0  0  0  0  0
   50.0100   34.0630   42.4300 H   0  0  0  0  0  0  0  0  0  0  0  0
   43.6280   30.0710   44.0250 O   0  0  0  0  0  0  0  0  0  0  0  0
   42.9570   30.8070   44.1610 H   0  0  0  0  0  0  0  0  0  0  0  0
   42.6100   29.6870   41.5920 O   0  0  0  0  0  0  0  0  0  0  0  0
   42.3260   28.3900   41.1100 C   0  0  0  0  0  2  0  0  0  0  0  0
   42.2840   27.3910   42.2070 C   0  0  0  0  0  0  0  0  0  0  0  0
   41.3380   27.2880   43.1190 C   0  0  0  0  0  0  0  0  0  0  0  0
   41.3360   26.3150   44.1550 N   0  0  0  0  0  0  0  0  0  0  0  0
   41.1290   26.0910   45.5670 C   0  0  0  0  0  0  0  0  0  0  0  0
   40.4540   26.6980   46.4410 O   0  0  0  0  0  0  0  0  0  0  0  0
   42.0370   24.8940   45.4530 C   0  0  0  0  0  3  0  0  0  0  0  0
   43.0990   25.0870   45.6280 H   0  0  0  0  0  0  0  0  0  0  0  0
   41.6290   24.8780   44.0030 C   0  0  2  0  0  3  0  0  0  0  0  0
   42.9810   24.7930   42.8030 S   0  0  0  0  0  0  0  0  0  0  0  0
   43.4340   26.4500   42.2340 C   0  0  0  0  0  3  0  0  0  0  0  0
   44.1140   26.8630   43.0340 H   0  0  0  0  0  0  0  0  0  0  0  0
   40.1750   28.2070   43.1310 C   0  0  0  0  0  0  0  0  0  0  0  0
   39.8090   29.2940   43.5830 O   0  0  0  0  0  0  0  0  0  0  0  0
   39.0010   27.9700   42.4870 O   0  0  0  0  0  0  0  0  0  0  0  0
   38.6560   28.4020   41.6540 H   0  0  0  0  0  0  0  0  0  0  0  0
  1  2  1  0  0  0  0
  1 37  1  0  0  0  0
  2 18  1  0  0  0  0
  3  7  1  0  0  0  0
  3  2  2  0  0  0  0
  4  3  1  0  0  0  0
  5  4  2  0  0  0  0
  5  6  1  0  0  0  0
  6  1  2  0  0  0  0
  8  4  1  0  0  0  0
  9  5  1  0  0  0  0
 10 19  2  0  0  0  0
 10 11  1  0  0  0  0
 11 12  2  0  0  0  0
 12 13  1  0  0  0  0
 12 21  1  0  0  0  0
 13 22  1  0  0  0  0
 14 15  1  0  0  0  0
 14 13  2  0  0  0  0
 15 23  1  0  0  0  0
 16 24  1  0  0  0  0
 16 15  2  0  0  0  0
 17 18  2  0  0  0  0
 17 16  1  0  0  0  0
 18 19  1  0  0  0  0
 19 14  1  0  0  0  0
 20 11  1  0  0  0  0
 25 17  1  0  0  0  0
 26 31  1  0  0  0  0
 27 26  2  0  0  0  0
 27 28  1  0  0  0  0
 28 29  2  0  0  0  0
 29 30  1  0  0  0  0
 30 10  1  0  0  0  0
 31 30  2  0  0  0  0
 32 26  1  0  0  0  0
 33 27  1  0  0  0  0
 34 28  1  0  0  0  0
 34 35  1  0  0  0  0
 36 34  1  0  0  0  0
 37 38  1  0  0  0  0
 39  6  1  0  0  0  0
 40 39  1  0  0  0  0
 40 41  1  0  0  0  0
 41 50  1  0  0  0  0
 41 42  2  0  0  0  0
 42 52  1  0  0  0  0
 42 43  1  0  0  0  0
 43 44  1  0  0  0  0
 44 45  2  0  0  0  0
 46 44  1  0  0  0  0
 46 47  1  0  0  0  0
 48 49  1  6  0  0  0
 48 43  1  0  0  0  0
 48 46  1  0  0  0  0
 50 49  1  0  0  0  0
 50 51  1  0  0  0  0
 52 53  2  0  0  0  0
 54 52  1  0  0  0  0
 55 54  1  0  0  0  0
M  END
>  <minimizedAffinity>
-5.53524113

>  <minimizedRMSD>
2.40258932

$$$$
