
 OpenBabel03242521543D

 55 60  0  0  1  0  0  0  0  0999 V2000
   44.5150   30.2620   43.0230 C   0  0  0  0  0  0  0  0  0  0  0  0
   45.8990   30.6720   43.1470 C   0  0  0  0  0  0  0  0  0  0  0  0
   46.4390   30.8540   41.9440 C   0  0  0  0  0  0  0  0  0  0  0  0
   45.8000   30.6810   40.7340 C   0  0  0  0  0  0  0  0  0  0  0  0
   44.4950   30.2890   40.6450 C   0  0  0  0  0  0  0  0  0  0  0  0
   43.8400   30.0750   41.8330 C   0  0  0  0  0  0  0  0  0  0  0  0
   47.4790   31.1650   42.1360 H   0  0  0  0  0  0  0  0  0  0  0  0
   46.4630   30.8930   39.8940 H   0  0  0  0  0  0  0  0  0  0  0  0
   44.1800   30.2070   39.6180 H   0  0  0  0  0  0  0  0  0  0  0  0
   45.7940   32.5790   45.5430 C   0  0  0  0  0  0  0  0  0  0  0  0
   45.5270   33.1990   46.7630 C   0  0  0  0  0  0  0  0  0  0  0  0
   45.5720   32.5240   47.9880 C   0  0  0  0  0  0  0  0  0  0  0  0
   45.8900   31.1950   48.0350 C   0  0  0  0  0  0  0  0  0  0  0  0
   46.1550   30.5410   46.8170 C   0  0  0  0  0  0  0  0  0  0  0  0
   46.4120   29.2090   46.9030 C   0  0  0  0  0  0  0  0  0  0  0  0
   46.6070   28.5160   45.7070 C   0  0  0  0  0  0  0  0  0  0  0  0
   46.5180   29.2420   44.4640 C   0  0  0  0  0  0  0  0  0  0  0  0
   46.2500   30.5880   44.5500 C   0  0  0  0  0  0  0  0  0  0  0  0
   46.0770   31.3040   45.6500 C   0  0  0  0  0  0  0  0  0  0  0  0
   45.2710   34.2710   46.7370 H   0  0  0  0  0  0  0  0  0  0  0  0
   45.3430   33.1290   48.8640 H   0  0  0  0  0  0  0  0  0  0  0  0
   45.9280   30.6900   48.9810 H   0  0  0  0  0  0  0  0  0  0  0  0
   46.4630   28.7110   47.8590 H   0  0  0  0  0  0  0  0  0  0  0  0
   46.8110   27.4650   45.8500 H   0  0  0  0  0  0  0  0  0  0  0  0
   46.7060   28.4680   43.7370 H   0  0  0  0  0  0  0  0  0  0  0  0
   45.5960   34.6600   42.4520 C   0  0  0  0  0  0  0  0  0  0  0  0
   46.9710   34.9310   42.2550 C   0  0  0  0  0  0  0  0  0  0  0  0
   47.8380   34.3680   43.1640 C   0  0  0  0  0  0  0  0  0  0  0  0
   47.2680   33.6390   44.1200 N   0  0  0  0  0  0  0  0  0  0  0  0
   45.9850   33.3650   44.3350 C   0  0  0  0  0  0  0  0  0  0  0  0
   45.1780   33.8980   43.4670 N   0  0  0  0  0  0  0  0  0  0  0  0
   44.9200   35.0880   41.7550 H   0  0  0  0  0  0  0  0  0  0  0  0
   47.3340   35.5390   41.4500 H   0  0  0  0  0  0  0  0  0  0  0  0
   49.2440   34.5050   43.0560 N   0  0  0  0  0  0  0  0  0  0  0  0
   49.4470   35.1830   43.8360 H   0  0  0  0  0  0  0  0  0  0  0  0
   49.8930   34.0460   42.3770 H   0  0  0  0  0  0  0  0  0  0  0  0
   43.6190   29.9850   44.0920 O   0  0  0  0  0  0  0  0  0  0  0  0
   42.9270   30.6880   44.2860 H   0  0  0  0  0  0  0  0  0  0  0  0
   42.5320   29.6790   41.6780 O   0  0  0  0  0  0  0  0  0  0  0  0
   41.5500   30.6730   41.4700 C   0  0  0  0  0  2  0  0  0  0  0  0
   40.3790   30.1440   40.7260 C   0  0  0  0  0  0  0  0  0  0  0  0
   39.3660   29.4870   41.2540 C   0  0  0  0  0  0  0  0  0  0  0  0
   38.2610   28.9970   40.5030 N   0  0  0  0  0  0  0  0  0  0  0  0
   37.3940   27.8640   40.2790 C   0  0  0  0  0  0  0  0  0  0  0  0
   37.0450   26.8960   41.0040 O   0  0  0  0  0  0  0  0  0  0  0  0
   37.1590   28.3920   38.8880 C   0  0  0  0  0  3  0  0  0  0  0  0
   37.8470   28.0290   38.1200 H   0  0  0  0  0  0  0  0  0  0  0  0
   37.5120   29.7350   39.4710 C   0  0  2  0  0  3  0  0  0  0  0  0
   38.7580   30.6860   38.5660 S   0  0  0  0  0  0  0  0  0  0  0  0
   40.4040   30.4050   39.2640 C   0  0  0  0  0  3  0  0  0  0  0  0
   40.7560   29.4330   38.8120 H   0  0  0  0  0  0  0  0  0  0  0  0
   39.3010   29.2030   42.7070 C   0  0  0  0  0  0  0  0  0  0  0  0
   40.0260   28.9680   43.6770 O   0  0  0  0  0  0  0  0  0  0  0  0
   38.1500   29.1300   43.4260 O   0  0  0  0  0  0  0  0  0  0  0  0
   37.7890   29.7930   44.0810 H   0  0  0  0  0  0  0  0  0  0  0  0
  1  2  1  0  0  0  0
  1 37  1  0  0  0  0
  2 18  1  0  0  0  0
  3  7  1  0  0  0  0
  3  2  2  0  0  0  0
  4  3  1  0  0  0  0
  5  4  2  0  0  0  0
  5  6  1  0  0  0  0
  6  1  2  0  0  0  0
  8  4  1  0  0  0  0
  9  5  1  0  0  0  0
 10 19  2  0  0  0  0
 10 11  1  0  0  0  0
 11 12  2  0  0  0  0
 12 13  1  0  0  0  0
 12 21  1  0  0  0  0
 13 22  1  0  0  0  0
 14 15  1  0  0  0  0
 14 13  2  0  0  0  0
 15 23  1  0  0  0  0
 16 24  1  0  0  0  0
 16 15  2  0  0  0  0
 17 18  2  0  0  0  0
 17 16  1  0  0  0  0
 18 19  1  0  0  0  0
 19 14  1  0  0  0  0
 20 11  1  0  0  0  0
 25 17  1  0  0  0  0
 26 31  1  0  0  0  0
 27 26  2  0  0  0  0
 27 28  1  0  0  0  0
 28 29  2  0  0  0  0
 29 30  1  0  0  0  0
 30 10  1  0  0  0  0
 31 30  2  0  0  0  0
 32 26  1  0  0  0  0
 33 27  1  0  0  0  0
 34 28  1  0  0  0  0
 34 35  1  0  0  0  0
 36 34  1  0  0  0  0
 37 38  1  0  0  0  0
 39  6  1  0  0  0  0
 40 39  1  0  0  0  0
 41 42  2  0  0  0  0
 41 40  1  0  0  0  0
 42 52  1  0  0  0  0
 43 42  1  0  0  0  0
 44 43  1  0  0  0  0
 44 45  2  0  0  0  0
 46 48  1  0  0  0  0
 46 44  1  0  0  0  0
 47 46  1  0  0  0  0
 48 49  1  6  0  0  0
 48 43  1  0  0  0  0
 49 50  1  0  0  0  0
 50 41  1  0  0  0  0
 51 50  1  0  0  0  0
 52 54  1  0  0  0  0
 52 53  2  0  0  0  0
 54 55  1  0  0  0  0
M  END
>  <minimizedAffinity>
-6.02675724

>  <minimizedRMSD>
2.54741502

$$$$
