
 OpenBabel03242521543D

 55 60  0  0  1  0  0  0  0  0999 V2000
   45.0290   29.9050   43.6490 C   0  0  0  0  0  0  0  0  0  0  0  0
   46.3720   30.4440   43.7190 C   0  0  0  0  0  0  0  0  0  0  0  0
   46.8860   30.5700   42.4980 C   0  0  0  0  0  0  0  0  0  0  0  0
   46.2580   30.2390   41.3160 C   0  0  0  0  0  0  0  0  0  0  0  0
   44.9920   29.7290   41.2770 C   0  0  0  0  0  0  0  0  0  0  0  0
   44.3660   29.5590   42.4880 C   0  0  0  0  0  0  0  0  0  0  0  0
   47.8960   30.9870   42.6490 H   0  0  0  0  0  0  0  0  0  0  0  0
   46.8940   30.4370   40.4520 H   0  0  0  0  0  0  0  0  0  0  0  0
   44.6790   29.5320   40.2660 H   0  0  0  0  0  0  0  0  0  0  0  0
   45.9120   32.4330   46.0050 C   0  0  0  0  0  0  0  0  0  0  0  0
   45.5370   33.0610   47.1920 C   0  0  0  0  0  0  0  0  0  0  0  0
   45.7140   32.4800   48.4520 C   0  0  0  0  0  0  0  0  0  0  0  0
   46.2800   31.2410   48.5700 C   0  0  0  0  0  0  0  0  0  0  0  0
   46.6610   30.5800   47.3870 C   0  0  0  0  0  0  0  0  0  0  0  0
   47.1680   29.3280   47.5440 C   0  0  0  0  0  0  0  0  0  0  0  0
   47.4880   28.6160   46.3860 C   0  0  0  0  0  0  0  0  0  0  0  0
   47.2570   29.2380   45.1060 C   0  0  0  0  0  0  0  0  0  0  0  0
   46.7370   30.5110   45.1200 C   0  0  0  0  0  0  0  0  0  0  0  0
   46.4350   31.2430   46.1790 C   0  0  0  0  0  0  0  0  0  0  0  0
   45.0800   34.0610   47.1080 H   0  0  0  0  0  0  0  0  0  0  0  0
   45.3770   33.0800   49.2950 H   0  0  0  0  0  0  0  0  0  0  0  0
   46.4170   30.8090   49.5420 H   0  0  0  0  0  0  0  0  0  0  0  0
   47.3170   28.9060   48.5270 H   0  0  0  0  0  0  0  0  0  0  0  0
   47.8900   27.6340   46.5860 H   0  0  0  0  0  0  0  0  0  0  0  0
   47.5870   28.4730   44.4210 H   0  0  0  0  0  0  0  0  0  0  0  0
   45.3090   34.3420   42.8550 C   0  0  0  0  0  0  0  0  0  0  0  0
   46.6410   34.6910   42.5260 C   0  0  0  0  0  0  0  0  0  0  0  0
   47.6190   34.2300   43.3790 C   0  0  0  0  0  0  0  0  0  0  0  0
   47.1830   33.5140   44.4120 N   0  0  0  0  0  0  0  0  0  0  0  0
   45.9460   33.1690   44.7510 C   0  0  0  0  0  0  0  0  0  0  0  0
   45.0330   33.6060   43.9360 N   0  0  0  0  0  0  0  0  0  0  0  0
   44.5480   34.6910   42.2030 H   0  0  0  0  0  0  0  0  0  0  0  0
   46.8920   35.2800   41.6670 H   0  0  0  0  0  0  0  0  0  0  0  0
   48.9980   34.4510   43.1400 N   0  0  0  0  0  0  0  0  0  0  0  0
   49.2210   35.1780   43.8690 H   0  0  0  0  0  0  0  0  0  0  0  0
   49.6160   34.0020   42.4270 H   0  0  0  0  0  0  0  0  0  0  0  0
   44.1680   29.6420   44.7490 O   0  0  0  0  0  0  0  0  0  0  0  0
   43.4170   30.2960   44.8930 H   0  0  0  0  0  0  0  0  0  0  0  0
   43.0970   29.0380   42.3850 O   0  0  0  0  0  0  0  0  0  0  0  0
   42.6550   28.5940   41.1190 C   0  0  0  0  0  2  0  0  0  0  0  0
   41.1880   28.3670   41.0950 C   0  0  0  0  0  0  0  0  0  0  0  0
   40.2720   29.2760   40.8310 C   0  0  0  0  0  0  0  0  0  0  0  0
   38.8740   29.0170   40.8190 N   0  0  0  0  0  0  0  0  0  0  0  0
   37.5790   29.4920   41.2460 C   0  0  0  0  0  0  0  0  0  0  0  0
   37.1370   30.6370   41.5260 O   0  0  0  0  0  0  0  0  0  0  0  0
   37.0980   28.0650   41.1840 C   0  0  0  0  0  3  0  0  0  0  0  0
   37.2030   27.4900   42.1070 H   0  0  0  0  0  0  0  0  0  0  0  0
   38.2070   27.8650   40.1850 C   0  0  2  0  0  3  0  0  0  0  0  0
   39.3000   26.4530   40.4910 S   0  0  0  0  0  0  0  0  0  0  0  0
   40.7710   26.9740   41.4070 C   0  0  0  0  0  3  0  0  0  0  0  0
   40.4500   27.0140   42.4870 H   0  0  0  0  0  0  0  0  0  0  0  0
   40.6430   30.6760   40.5160 C   0  0  0  0  0  0  0  0  0  0  0  0
   41.6140   31.4390   40.5060 O   0  0  0  0  0  0  0  0  0  0  0  0
   39.7740   31.6230   40.0730 O   0  0  0  0  0  0  0  0  0  0  0  0
   39.6900   32.0000   39.1520 H   0  0  0  0  0  0  0  0  0  0  0  0
  1  2  1  0  0  0  0
  1 37  1  0  0  0  0
  2 18  1  0  0  0  0
  3  7  1  0  0  0  0
  3  2  2  0  0  0  0
  4  3  1  0  0  0  0
  5  4  2  0  0  0  0
  5  6  1  0  0  0  0
  6  1  2  0  0  0  0
  8  4  1  0  0  0  0
  9  5  1  0  0  0  0
 10 19  2  0  0  0  0
 10 11  1  0  0  0  0
 11 12  2  0  0  0  0
 12 13  1  0  0  0  0
 12 21  1  0  0  0  0
 13 22  1  0  0  0  0
 14 15  1  0  0  0  0
 14 13  2  0  0  0  0
 15 23  1  0  0  0  0
 16 24  1  0  0  0  0
 16 15  2  0  0  0  0
 17 18  2  0  0  0  0
 17 16  1  0  0  0  0
 18 19  1  0  0  0  0
 19 14  1  0  0  0  0
 20 11  1  0  0  0  0
 25 17  1  0  0  0  0
 26 31  1  0  0  0  0
 27 26  2  0  0  0  0
 27 28  1  0  0  0  0
 28 29  2  0  0  0  0
 29 30  1  0  0  0  0
 30 10  1  0  0  0  0
 31 30  2  0  0  0  0
 32 26  1  0  0  0  0
 33 27  1  0  0  0  0
 34 28  1  0  0  0  0
 34 35  1  0  0  0  0
 36 34  1  0  0  0  0
 37 38  1  0  0  0  0
 39  6  1  0  0  0  0
 40 39  1  0  0  0  0
 41 40  1  0  0  0  0
 41 50  1  0  0  0  0
 42 41  2  0  0  0  0
 43 42  1  0  0  0  0
 43 44  1  0  0  0  0
 44 45  2  0  0  0  0
 46 44  1  0  0  0  0
 46 47  1  0  0  0  0
 48 49  1  1  0  0  0
 48 43  1  0  0  0  0
 48 46  1  0  0  0  0
 49 50  1  0  0  0  0
 50 51  1  0  0  0  0
 52 42  1  0  0  0  0
 53 52  2  0  0  0  0
 54 52  1  0  0  0  0
 55 54  1  0  0  0  0
M  END
>  <minimizedAffinity>
-5.59735203

>  <minimizedRMSD>
0.528286159

$$$$
