
 OpenBabel03242521553D

 55 60  0  0  1  0  0  0  0  0999 V2000
   44.8210   30.5540   42.5850 C   0  0  0  0  0  0  0  0  0  0  0  0
   46.2080   30.8550   42.8750 C   0  0  0  0  0  0  0  0  0  0  0  0
   46.9260   30.8630   41.7540 C   0  0  0  0  0  0  0  0  0  0  0  0
   46.4480   30.6200   40.4840 C   0  0  0  0  0  0  0  0  0  0  0  0
   45.1350   30.3350   40.2370 C   0  0  0  0  0  0  0  0  0  0  0  0
   44.3030   30.3030   41.3300 C   0  0  0  0  0  0  0  0  0  0  0  0
   47.9550   31.1020   42.0690 H   0  0  0  0  0  0  0  0  0  0  0  0
   47.2390   30.6870   39.7360 H   0  0  0  0  0  0  0  0  0  0  0  0
   44.9600   30.1730   39.1880 H   0  0  0  0  0  0  0  0  0  0  0  0
   45.9000   32.9890   45.0530 C   0  0  0  0  0  0  0  0  0  0  0  0
   45.5090   33.7390   46.1610 C   0  0  0  0  0  0  0  0  0  0  0  0
   45.3320   33.1850   47.4330 C   0  0  0  0  0  0  0  0  0  0  0  0
   45.5440   31.8510   47.6430 C   0  0  0  0  0  0  0  0  0  0  0  0
   45.9320   31.0680   46.5400 C   0  0  0  0  0  0  0  0  0  0  0  0
   46.0790   29.7370   46.7800 C   0  0  0  0  0  0  0  0  0  0  0  0
   46.3920   28.9210   45.6910 C   0  0  0  0  0  0  0  0  0  0  0  0
   46.5310   29.5270   44.3900 C   0  0  0  0  0  0  0  0  0  0  0  0
   46.3500   30.8880   44.3170 C   0  0  0  0  0  0  0  0  0  0  0  0
   46.0740   31.7160   45.3120 C   0  0  0  0  0  0  0  0  0  0  0  0
   45.3350   34.8160   46.0030 H   0  0  0  0  0  0  0  0  0  0  0  0
   45.0240   33.8840   48.2090 H   0  0  0  0  0  0  0  0  0  0  0  0
   45.4120   31.4390   48.6260 H   0  0  0  0  0  0  0  0  0  0  0  0
   45.9580   29.3330   47.7730 H   0  0  0  0  0  0  0  0  0  0  0  0
   46.4980   27.8790   45.9550 H   0  0  0  0  0  0  0  0  0  0  0  0
   46.7650   28.6760   43.7690 H   0  0  0  0  0  0  0  0  0  0  0  0
   46.2880   34.7270   41.7730 C   0  0  0  0  0  0  0  0  0  0  0  0
   47.6820   34.9760   41.7960 C   0  0  0  0  0  0  0  0  0  0  0  0
   48.3640   34.5140   42.8980 C   0  0  0  0  0  0  0  0  0  0  0  0
   47.6210   33.8910   43.8090 N   0  0  0  0  0  0  0  0  0  0  0  0
   46.3160   33.6410   43.8210 C   0  0  0  0  0  0  0  0  0  0  0  0
   45.6850   34.0780   42.7730 N   0  0  0  0  0  0  0  0  0  0  0  0
   45.7540   35.0780   40.9260 H   0  0  0  0  0  0  0  0  0  0  0  0
   48.1920   35.4950   41.0080 H   0  0  0  0  0  0  0  0  0  0  0  0
   49.7700   34.6390   43.0260 N   0  0  0  0  0  0  0  0  0  0  0  0
   49.8450   35.3960   43.7540 H   0  0  0  0  0  0  0  0  0  0  0  0
   50.5200   34.1100   42.5250 H   0  0  0  0  0  0  0  0  0  0  0  0
   43.7620   30.4680   43.5300 O   0  0  0  0  0  0  0  0  0  0  0  0
   43.1230   31.2440   43.5540 H   0  0  0  0  0  0  0  0  0  0  0  0
   42.9960   30.0060   41.0190 O   0  0  0  0  0  0  0  0  0  0  0  0
   42.0920   31.0750   40.8310 C   0  0  0  0  0  2  0  0  0  0  0  0
   40.7570   30.5970   40.3910 C   0  0  0  0  0  0  0  0  0  0  0  0
   39.8360   30.0650   41.1690 C   0  0  0  0  0  0  0  0  0  0  0  0
   38.5680   29.6190   40.7070 N   0  0  0  0  0  0  0  0  0  0  0  0
   37.5980   28.5500   40.7640 C   0  0  0  0  0  0  0  0  0  0  0  0
   37.3450   27.6680   41.6250 O   0  0  0  0  0  0  0  0  0  0  0  0
   37.1090   28.9980   39.4100 C   0  0  0  0  0  3  0  0  0  0  0  0
   37.5950   28.5260   38.5520 H   0  0  0  0  0  0  0  0  0  0  0  0
   37.6690   30.3430   39.7920 C   0  0  2  0  0  3  0  0  0  0  0  0
   38.7570   31.1210   38.5710 S   0  0  0  0  0  0  0  0  0  0  0  0
   40.4910   30.7520   38.9380 C   0  0  0  0  0  3  0  0  0  0  0  0
   40.6720   29.7250   38.5090 H   0  0  0  0  0  0  0  0  0  0  0  0
   40.0610   29.8900   42.6240 C   0  0  0  0  0  0  0  0  0  0  0  0
   40.6820   30.3800   43.5700 O   0  0  0  0  0  0  0  0  0  0  0  0
   39.4860   28.9170   43.3800 O   0  0  0  0  0  0  0  0  0  0  0  0
   38.7480   29.0100   44.0460 H   0  0  0  0  0  0  0  0  0  0  0  0
  1  2  1  0  0  0  0
  1 37  1  0  0  0  0
  2 18  1  0  0  0  0
  3  7  1  0  0  0  0
  3  2  2  0  0  0  0
  4  3  1  0  0  0  0
  5  4  2  0  0  0  0
  5  6  1  0  0  0  0
  6  1  2  0  0  0  0
  8  4  1  0  0  0  0
  9  5  1  0  0  0  0
 10 19  2  0  0  0  0
 10 11  1  0  0  0  0
 11 12  2  0  0  0  0
 12 13  1  0  0  0  0
 12 21  1  0  0  0  0
 13 22  1  0  0  0  0
 14 15  1  0  0  0  0
 14 13  2  0  0  0  0
 15 23  1  0  0  0  0
 16 24  1  0  0  0  0
 16 15  2  0  0  0  0
 17 16  1  0  0  0  0
 18 17  2  0  0  0  0
 18 19  1  0  0  0  0
 19 14  1  0  0  0  0
 20 11  1  0  0  0  0
 25 17  1  0  0  0  0
 26 27  2  0  0  0  0
 26 31  1  0  0  0  0
 27 28  1  0  0  0  0
 28 34  1  0  0  0  0
 28 29  2  0  0  0  0
 29 30  1  0  0  0  0
 30 10  1  0  0  0  0
 31 30  2  0  0  0  0
 32 26  1  0  0  0  0
 33 27  1  0  0  0  0
 34 35  1  0  0  0  0
 36 34  1  0  0  0  0
 37 38  1  0  0  0  0
 39  6  1  0  0  0  0
 40 39  1  0  0  0  0
 41 40  1  0  0  0  0
 41 42  2  0  0  0  0
 42 52  1  0  0  0  0
 43 44  1  0  0  0  0
 43 42  1  0  0  0  0
 44 45  2  0  0  0  0
 46 48  1  0  0  0  0
 46 44  1  0  0  0  0
 47 46  1  0  0  0  0
 48 49  1  6  0  0  0
 48 43  1  0  0  0  0
 49 50  1  0  0  0  0
 50 41  1  0  0  0  0
 51 50  1  0  0  0  0
 52 54  1  0  0  0  0
 52 53  2  0  0  0  0
 54 55  1  0  0  0  0
M  END
>  <minimizedAffinity>
-6.34654379

>  <minimizedRMSD>
3.32905364

$$$$
