
 OpenBabel03242519493D

 51 54  0  0  1  0  0  0  0  0999 V2000
   45.1320   29.0970   47.2910 C   0  0  0  0  0  0  0  0  0  0  0  0
   45.2980   28.8960   48.3100 H   0  0  0  0  0  0  0  0  0  0  0  0
   43.9070   29.3080   47.4300 H   0  0  0  0  0  0  0  0  0  0  0  0
   45.0410   27.9690   46.2550 C   0  0  0  0  0  0  0  0  0  0  0  0
   45.6050   28.1930   45.3590 H   0  0  0  0  0  0  0  0  0  0  0  0
   45.4760   27.0710   46.7410 H   0  0  0  0  0  0  0  0  0  0  0  0
   43.0040   28.6040   45.0910 C   0  0  0  0  0  0  0  0  0  0  0  0
   43.6340   27.6940   45.9550 C   0  0  0  0  0  0  0  0  0  0  0  0
   42.8090   26.6900   46.4080 C   0  0  0  0  0  0  0  0  0  0  0  0
   41.4920   26.5450   46.0800 C   0  0  0  0  0  0  0  0  0  0  0  0
   40.8930   27.4580   45.2250 C   0  0  0  0  0  0  0  0  0  0  0  0
   41.6750   28.5190   44.7170 C   0  0  0  0  0  0  0  0  0  0  0  0
   43.3270   26.0090   47.0690 H   0  0  0  0  0  0  0  0  0  0  0  0
   40.9860   25.6950   46.5250 H   0  0  0  0  0  0  0  0  0  0  0  0
   39.8540   27.3060   44.9930 H   0  0  0  0  0  0  0  0  0  0  0  0
   43.5860   29.6990   44.4870 O   0  0  0  0  0  0  0  0  0  0  0  0
   44.1650   30.3180   45.0250 H   0  0  0  0  0  0  0  0  0  0  0  0
   40.9940   29.3320   43.9070 O   0  0  0  0  0  0  0  0  0  0  0  0
   40.8330   29.6190   42.6030 C   0  0  0  0  0  3  0  0  0  0  0  0
   39.4410   30.0630   42.1970 C   0  0  0  0  0  3  0  0  0  0  0  0
   39.0090   30.8010   42.8630 H   0  0  0  0  0  0  0  0  0  0  0  0
   38.4800   28.9060   42.0850 C   0  0  0  0  0  3  0  0  0  0  0  0
   38.4380   28.2870   42.9890 H   0  0  0  0  0  0  0  0  0  0  0  0
   38.9530   28.1540   40.9850 O   0  0  0  0  0  0  0  0  0  0  0  0
   40.0780   27.4960   41.4560 C   0  0  0  0  0  3  0  0  0  0  0  0
   39.7970   26.8390   42.2850 H   0  0  0  0  0  0  0  0  0  0  0  0
   41.2290   28.4130   41.7700 C   0  0  0  0  0  3  0  0  0  0  0  0
   41.9870   27.8110   42.3110 H   0  0  0  0  0  0  0  0  0  0  0  0
   45.4400   30.2780   46.7490 O   0  0  0  0  0  0  0  0  0  0  0  0
   46.4990   32.4090   46.7040 C   0  0  2  0  0  0  0  0  0  0  0  0
   47.1570   32.5710   45.4080 C   0  0  1  0  0  0  0  0  0  0  0  0
   46.9760   31.2400   44.7750 O   0  0  0  0  0  0  0  0  0  0  0  0
   47.5440   30.4870   45.7950 C   0  0  0  0  0  0  0  0  0  0  0  0
   46.5630   30.9520   47.0140 C   0  0  2  0  0  0  0  0  0  0  0  0
   46.9260   33.0360   47.5100 H   0  0  0  0  0  0  0  0  0  0  0  0
   48.2700   32.6330   45.4840 H   0  0  0  0  0  0  0  0  0  0  0  0
   47.4170   29.4100   45.6890 H   0  0  0  0  0  0  0  0  0  0  0  0
   48.5410   30.8470   46.0450 H   0  0  0  0  0  0  0  0  0  0  0  0
   47.1970   30.5850   47.8390 H   0  0  0  0  0  0  0  0  0  0  0  0
   44.9090   35.1770   44.2040 C   0  0  0  0  0  0  0  0  0  0  0  0
   45.4650   35.5570   42.9830 C   0  0  0  0  0  0  0  0  0  0  0  0
   46.6290   34.9070   42.5470 C   0  0  0  0  0  0  0  0  0  0  0  0
   47.1710   33.9380   43.3190 N   0  0  0  0  0  0  0  0  0  0  0  0
   46.6160   33.5820   44.5020 C   0  0  0  0  0  0  0  0  0  0  0  0
   45.4850   34.1950   44.9530 N   0  0  0  0  0  0  0  0  0  0  0  0
   44.9750   36.3400   42.4220 H   0  0  0  0  0  0  0  0  0  0  0  0
   47.0520   35.2060   41.6020 H   0  0  0  0  0  0  0  0  0  0  0  0
   43.7520   35.7890   44.6870 O   0  0  0  0  0  0  0  0  0  0  0  0
   42.9530   35.8650   44.0770 H   0  0  0  0  0  0  0  0  0  0  0  0
   45.0880   32.7420   46.5430 O   0  0  0  0  0  0  0  0  0  0  0  0
   44.7910   32.8920   47.4950 H   0  0  0  0  0  0  0  0  0  0  0  0
  1  3  1  0  0  0  0
  1  2  1  0  0  0  0
  4  6  1  0  0  0  0
  4  1  1  0  0  0  0
  5  4  1  0  0  0  0
  7  8  1  0  0  0  0
  8  4  1  0  0  0  0
  8  9  2  0  0  0  0
  9 13  1  0  0  0  0
 10  9  1  0  0  0  0
 10 14  1  0  0  0  0
 11 10  2  0  0  0  0
 12  7  2  0  0  0  0
 12 11  1  0  0  0  0
 15 11  1  0  0  0  0
 16 17  1  0  0  0  0
 16  7  1  0  0  0  0
 18 12  1  0  0  0  0
 19 18  1  0  0  0  0
 20 19  1  0  0  0  0
 20 21  1  0  0  0  0
 22 20  1  0  0  0  0
 22 23  1  0  0  0  0
 24 25  1  0  0  0  0
 24 22  1  0  0  0  0
 25 27  1  0  0  0  0
 25 26  1  0  0  0  0
 27 28  1  0  0  0  0
 27 19  1  0  0  0  0
 29 34  1  0  0  0  0
 29  1  1  0  0  0  0
 30 34  1  0  0  0  0
 30 35  1  1  0  0  0
 31 36  1  1  0  0  0
 31 30  1  0  0  0  0
 32 31  1  0  0  0  0
 32 33  1  0  0  0  0
 33 38  1  0  0  0  0
 33 34  1  0  0  0  0
 34 39  1  1  0  0  0
 37 33  1  0  0  0  0
 40 48  1  0  0  0  0
 40 45  1  0  0  0  0
 41 40  2  0  0  0  0
 42 41  1  0  0  0  0
 42 43  2  0  0  0  0
 43 44  1  0  0  0  0
 44 45  2  0  0  0  0
 44 31  1  0  0  0  0
 46 41  1  0  0  0  0
 47 42  1  0  0  0  0
 49 48  1  0  0  0  0
 50 30  1  0  0  0  0
 50 51  1  0  0  0  0
M  END
>  <minimizedAffinity>
-5.82266378

>  <minimizedRMSD>
1.61492133

$$$$
