
 OpenBabel03252503353D

 23 24  0  0  0  0  0  0  0  0999 V2000
   46.6040   34.0720   40.8350 C   0  0  0  0  0  0  0  0  0  0  0  0
   45.4280   33.5800   40.9490 O   0  0  0  0  0  0  0  0  0  0  0  0
   47.0280   34.7790   41.9870 N   0  0  0  0  0  0  0  0  0  0  0  0
   47.9750   35.2030   41.9900 H   0  0  0  0  0  0  0  0  0  0  0  0
   47.4020   33.9010   39.6160 C   0  0  0  0  0  3  0  0  0  0  0  0
   46.6100   33.3180   38.4590 C   0  0  0  0  0  3  0  0  0  0  0  0
   46.5420   32.2400   38.6110 H   0  0  0  0  0  0  0  0  0  0  0  0
   47.4420   33.5870   37.2100 C   0  0  0  0  0  3  0  0  0  0  0  0
   47.3170   34.6450   36.8600 H   0  0  0  0  0  0  0  0  0  0  0  0
   48.7960   33.4140   37.4190 O   0  0  0  0  0  0  0  0  0  0  0  0
   49.0200   32.5090   38.4380 C   0  0  0  0  0  3  0  0  0  0  0  0
   50.0810   32.2010   38.4980 H   0  0  0  0  0  0  0  0  0  0  0  0
   48.6290   33.0550   39.8000 C   0  0  0  0  0  3  0  0  0  0  0  0
   48.4470   32.1670   40.4410 H   0  0  0  0  0  0  0  0  0  0  0  0
   44.5540   36.0560   44.4560 C   0  0  0  0  0  0  0  0  0  0  0  0
   45.3180   35.9920   43.2770 C   0  0  0  0  0  0  0  0  0  0  0  0
   46.2180   34.9290   43.1340 C   0  0  0  0  0  0  0  0  0  0  0  0
   46.3170   34.0140   44.1240 N   0  0  0  0  0  0  0  0  0  0  0  0
   45.5620   34.0990   45.2600 C   0  0  0  0  0  0  0  0  0  0  0  0
   44.6950   35.1150   45.4100 N   0  0  0  0  0  0  0  0  0  0  0  0
   43.8560   36.8900   44.5560 H   0  0  0  0  0  0  0  0  0  0  0  0
   45.2300   36.7290   42.4950 H   0  0  0  0  0  0  0  0  0  0  0  0
   45.6240   33.3800   46.0640 H   0  0  0  0  0  0  0  0  0  0  0  0
  1  2  2  0  0  0  0
  1  3  1  0  0  0  0
  3  4  1  0  0  0  0
  3 17  1  0  0  0  0
  5 13  1  0  0  0  0
  5  1  1  0  0  0  0
  6  7  1  0  0  0  0
  6  5  1  0  0  0  0
  8 10  1  0  0  0  0
  8  6  1  0  0  0  0
  9  8  1  0  0  0  0
 10 11  1  0  0  0  0
 11 12  1  0  0  0  0
 11 13  1  0  0  0  0
 13 14  1  0  0  0  0
 15 21  1  0  0  0  0
 15 20  1  0  0  0  0
 16 15  2  0  0  0  0
 17 16  1  0  0  0  0
 17 18  2  0  0  0  0
 18 19  1  0  0  0  0
 19 20  2  0  0  0  0
 19 23  1  0  0  0  0
 22 16  1  0  0  0  0
M  END
>  <minimizedAffinity>
-4.31870556

>  <minimizedRMSD>
0.317562282

$$$$
