
 OpenBabel03242516163D

 44 48  0  0  1  0  0  0  0  0999 V2000
   48.0060   34.4080   41.6000 C   0  0  0  0  0  0  0  0  0  0  0  0
   48.9130   35.6180   41.3360 C   0  0  0  0  0  0  0  0  0  0  0  0
   49.3810   34.4270   42.0440 C   0  0  0  0  0  0  0  0  0  0  0  0
   48.6680   36.5440   41.8950 H   0  0  0  0  0  0  0  0  0  0  0  0
   49.2340   35.8340   40.3040 H   0  0  0  0  0  0  0  0  0  0  0  0
   50.1260   33.8310   41.4730 H   0  0  0  0  0  0  0  0  0  0  0  0
   49.7520   34.6310   43.0560 H   0  0  0  0  0  0  0  0  0  0  0  0
   47.6300   33.6780   40.3630 C   0  0  0  0  0  0  0  0  0  0  0  0
   48.1200   34.3100   39.0720 C   0  0  0  0  0  0  0  0  0  0  0  0
   47.7440   33.2950   37.9780 C   0  0  0  0  0  0  0  0  0  0  0  0
   46.3630   33.4360   37.7800 O   0  0  0  0  0  0  0  0  0  0  0  0
   45.8160   32.8080   38.9310 C   0  0  0  0  0  0  0  0  0  0  0  0
   46.0930   33.6730   40.1560 C   0  0  0  0  0  0  0  0  0  0  0  0
   47.8990   32.6140   40.3460 H   0  0  0  0  0  0  0  0  0  0  0  0
   49.2170   34.3870   39.0090 H   0  0  0  0  0  0  0  0  0  0  0  0
   47.5720   35.2450   38.8780 H   0  0  0  0  0  0  0  0  0  0  0  0
   48.0360   32.2800   38.2640 H   0  0  0  0  0  0  0  0  0  0  0  0
   48.3110   33.5750   37.0700 H   0  0  0  0  0  0  0  0  0  0  0  0
   44.7450   32.6220   38.8420 H   0  0  0  0  0  0  0  0  0  0  0  0
   46.3350   31.8420   39.0830 H   0  0  0  0  0  0  0  0  0  0  0  0
   45.5740   33.2240   41.0030 H   0  0  0  0  0  0  0  0  0  0  0  0
   45.8330   34.7270   39.9610 H   0  0  0  0  0  0  0  0  0  0  0  0
   46.2420   35.8900   42.6420 C   0  0  0  0  0  0  0  0  0  0  0  0
   46.8970   34.6710   42.5840 C   0  0  0  0  0  0  0  0  0  0  0  0
   46.4950   33.6990   43.4930 C   0  0  0  0  0  0  0  0  0  0  0  0
   45.4960   33.9620   44.3920 N   0  0  0  0  0  0  0  0  0  0  0  0
   44.9160   35.1620   44.3830 C   0  0  0  0  0  0  0  0  0  0  0  0
   45.2640   36.1080   43.5420 N   0  0  0  0  0  0  0  0  0  0  0  0
   43.8720   35.4920   45.2980 N   0  0  0  0  0  0  0  0  0  0  0  0
   46.5370   36.6580   41.9470 H   0  0  0  0  0  0  0  0  0  0  0  0
   44.2450   36.0040   46.1350 H   0  0  0  0  0  0  0  0  0  0  0  0
   42.9250   35.1810   45.0070 H   0  0  0  0  0  0  0  0  0  0  0  0
   47.1520   32.4120   43.6020 C   0  0  2  0  0  0  0  0  0  0  0  0
   47.2660   31.4920   42.7590 O   0  0  0  0  0  0  0  0  0  0  0  0
   47.9200   31.3320   44.2620 C   0  0  0  0  0  0  0  0  0  0  0  0
   47.4170   31.0210   45.6700 C   0  0  0  0  0  0  0  0  0  0  0  0
   46.8960   31.9070   46.0740 H   0  0  0  0  0  0  0  0  0  0  0  0
   46.5380   29.8270   45.7670 C   0  0  0  0  0  0  0  0  0  0  0  0
   46.3370   29.6770   46.8670 H   0  0  0  0  0  0  0  0  0  0  0  0
   47.1780   28.6500   45.3650 O   0  0  0  0  0  0  0  0  0  0  0  0
   48.2720   28.9510   44.5470 C   0  0  0  0  0  0  0  0  0  0  0  0
   48.7180   28.0720   44.0890 H   0  0  0  0  0  0  0  0  0  0  0  0
   47.8670   30.0060   43.5230 C   0  0  0  0  0  0  0  0  0  0  0  0
   48.6020   29.9500   42.7310 H   0  0  0  0  0  0  0  0  0  0  0  0
  1  3  1  0  0  0  0
  1 24  1  0  0  0  0
  2  1  1  0  0  0  0
  2  4  1  0  0  0  0
  2  3  1  0  0  0  0
  3  7  1  0  0  0  0
  5  2  1  0  0  0  0
  6  3  1  0  0  0  0
  8  1  1  0  0  0  0
  9  8  1  0  0  0  0
 10 17  1  0  0  0  0
 10  9  1  0  0  0  0
 11 10  1  0  0  0  0
 11 12  1  0  0  0  0
 12 20  1  0  0  0  0
 12 13  1  0  0  0  0
 13  8  1  0  0  0  0
 13 21  1  0  0  0  0
 14  8  1  0  0  0  0
 15  9  1  0  0  0  0
 16  9  1  0  0  0  0
 18 10  1  0  0  0  0
 19 12  1  0  0  0  0
 22 13  1  0  0  0  0
 23 28  1  0  0  0  0
 24 23  2  0  0  0  0
 24 25  1  0  0  0  0
 25 26  2  0  0  0  0
 27 26  1  0  0  0  0
 27 29  1  0  0  0  0
 28 27  2  0  0  0  0
 29 31  1  0  0  0  0
 30 23  1  0  0  0  0
 32 29  1  0  0  0  0
 33 25  1  1  0  0  0
 33 35  1  0  0  0  0
 34 33  1  0  0  0  0
 34 35  1  0  0  0  0
 35 36  1  0  0  0  0
 36 38  1  0  0  0  0
 36 37  1  0  0  0  0
 38 39  1  0  0  0  0
 40 38  1  0  0  0  0
 41 40  1  0  0  0  0
 42 41  1  0  0  0  0
 43 35  1  0  0  0  0
 43 41  1  0  0  0  0
 44 43  1  0  0  0  0
M  END
>  <minimizedAffinity>
-5.22792864

>  <minimizedRMSD>
1.17379963

$$$$
