REMARK  Name = 
REMARK  9 active torsions:
REMARK  status: ('A' for Active; 'I' for Inactive)
REMARK    1  A    between atoms: C_1  and  C_2
REMARK    2  A    between atoms: C_1  and  C_12
REMARK    3  A    between atoms: C_5  and  O_7
REMARK    4  A    between atoms: O_7  and  P_9
REMARK    5  A    between atoms: P_9  and  O_10
REMARK    6  A    between atoms: P_9  and  O_11
REMARK    7  A    between atoms: C_12  and  C_13
REMARK    8  A    between atoms: C_14  and  S_19
REMARK    9  A    between atoms: S_19  and  C_29
REMARK                            x       y       z     vdW  Elec       q    Type
REMARK                         _______ _______ _______ _____ _____    ______ ____
ROOT
ATOM      1  C   UNL     1      47.117  34.318  40.843  0.00  0.00    +0.000 C 
ATOM      2  H   UNL     1      46.538  33.473  40.433  0.00  0.00    +0.000 HD
ATOM      3  H   UNL     1      47.270  35.040  40.001  0.00  0.00    +0.000 HD
ENDROOT
BRANCH   1   4
ATOM      4  C   UNL     1      48.462  33.902  41.288  0.00  0.00    +0.000 A 
ATOM      5  C   UNL     1      48.935  32.692  40.788  0.00  0.00    +0.000 A 
ATOM      6  C   UNL     1      50.188  32.240  41.157  0.00  0.00    +0.000 A 
ATOM      7  N   UNL     1      50.925  33.006  42.010  0.00  0.00    +0.000 NA
ATOM      8  C   UNL     1      50.432  34.179  42.477  0.00  0.00    +0.000 A 
ATOM      9  N   UNL     1      49.234  34.593  42.112  0.00  0.00    +0.000 NA
ATOM     10  H   UNL     1      50.564  31.288  40.766  0.00  0.00    +0.000 HD
ATOM     11  H   UNL     1      51.077  34.735  43.153  0.00  0.00    +0.000 HD
BRANCH   5  12
ATOM     12  S   UNL     1      47.919  31.720  39.661  0.00  0.00    +0.000 S 
BRANCH  12  13
ATOM     13  C   UNL     1      46.878  30.537  40.573  0.00  0.00    +0.000 C 
ATOM     14  C   UNL     1      45.648  31.271  41.038  0.00  0.00    +0.000 C 
ATOM     15  H   UNL     1      45.806  32.368  40.983  0.00  0.00    +0.000 HD
ATOM     16  C   UNL     1      45.380  30.950  42.477  0.00  0.00    +0.000 C 
ATOM     17  H   UNL     1      46.119  31.492  43.097  0.00  0.00    +0.000 HD
ATOM     18  O   UNL     1      45.490  29.566  42.609  0.00  0.00    +0.000 OA
ATOM     19  C   UNL     1      46.818  29.183  42.623  0.00  0.00    +0.000 C 
ATOM     20  H   UNL     1      46.924  28.146  42.238  0.00  0.00    +0.000 HD
ATOM     21  C   UNL     1      47.680  30.075  41.768  0.00  0.00    +0.000 C 
ATOM     22  H   UNL     1      48.545  29.503  41.342  0.00  0.00    +0.000 HD
ENDBRANCH  12  13
ENDBRANCH   5  12
ENDBRANCH   1   4
BRANCH   1  23
ATOM     23  C   UNL     1      46.331  34.998  41.908  0.00  0.00    +0.000 C 
ATOM     24  H   UNL     1      46.526  34.478  42.875  0.00  0.00    +0.000 HD
ATOM     25  H   UNL     1      46.653  36.041  41.993  0.00  0.00    +0.000 HD
BRANCH  23  26
ATOM     26  C   UNL     1      44.853  34.945  41.699  0.00  0.00    +0.000 A 
ATOM     27  C   UNL     1      43.968  35.429  42.708  0.00  0.00    +0.000 A 
ATOM     28  S   UNL     1      42.312  35.141  41.976  0.00  0.00    +0.000 S 
ATOM     29  C   UNL     1      43.101  34.407  40.409  0.00  0.00    +0.000 A 
ATOM     30  N   UNL     1      44.215  34.486  40.650  0.00  0.00    +0.000 NA
ATOM     31  H   UNL     1      44.248  35.854  43.660  0.00  0.00    +0.000 HD
BRANCH  29  32
ATOM     32  O   UNL     1      42.350  33.940  39.336  0.00  0.00    +0.000 OA
BRANCH  32  34
ATOM     33  O   UNL     1      40.416  34.393  37.594  0.00  0.00    +0.000 OA
ATOM     34  P   UNL     1      41.494  35.084  38.420  0.00  0.00    +0.000 P 
BRANCH  34  35
ATOM     35  O   UNL     1      40.773  36.175  39.497  0.00  0.00    +0.000 OA
ATOM     36  H   UNL     1      40.138  35.717  40.088  0.00  0.00    +0.000 HD
ENDBRANCH  34  35
BRANCH  34  37
ATOM     37  O   UNL     1      42.554  35.944  37.427  0.00  0.00    +0.000 OA
ATOM     38  H   UNL     1      42.192  35.937  36.492  0.00  0.00    +0.000 HD
ENDBRANCH  34  37
ENDBRANCH  32  34
ENDBRANCH  29  32
ENDBRANCH  23  26
ENDBRANCH   1  23
TORSDOF 9
