
 OpenBabel03242516533D

 46 49  0  0  1  0  0  0  0  0999 V2000
   47.7790   32.8210   41.7250 C   0  0  1  0  0  0  0  0  0  0  0  0
   47.3960   32.1230   40.4990 C   0  0  0  0  0  0  0  0  0  0  0  0
   48.3780   32.5820   39.4270 C   0  0  0  0  0  0  0  0  0  0  0  0
   48.0620   34.0400   39.1370 C   0  0  0  0  0  0  0  0  0  0  0  0
   48.0630   34.9210   40.3480 C   0  0  0  0  0  0  0  0  0  0  0  0
   47.6050   34.3400   41.6110 C   0  0  1  0  0  0  0  0  0  0  0  0
   48.9000   32.7230   41.8580 H   0  0  0  0  0  0  0  0  0  0  0  0
   46.3490   32.3640   40.1960 H   0  0  0  0  0  0  0  0  0  0  0  0
   47.4410   31.0440   40.6410 H   0  0  0  0  0  0  0  0  0  0  0  0
   49.3950   32.4630   39.8370 H   0  0  0  0  0  0  0  0  0  0  0  0
   48.1830   32.0240   38.5010 H   0  0  0  0  0  0  0  0  0  0  0  0
   47.0850   34.0710   38.6170 H   0  0  0  0  0  0  0  0  0  0  0  0
   48.8170   34.3890   38.4030 H   0  0  0  0  0  0  0  0  0  0  0  0
   49.1050   35.3280   40.4410 H   0  0  0  0  0  0  0  0  0  0  0  0
   47.4450   35.8180   40.1030 H   0  0  0  0  0  0  0  0  0  0  0  0
   48.2450   34.7540   42.4490 H   0  0  0  0  0  0  0  0  0  0  0  0
   45.4660   30.9700   44.0770 C   0  0  0  0  0  0  0  0  0  0  0  0
   46.1080   31.4640   42.9350 C   0  0  0  0  0  0  0  0  0  0  0  0
   47.1810   32.3580   42.9610 C   0  0  0  0  0  0  0  0  0  0  0  0
   47.5820   32.7320   44.1770 N   0  0  0  0  0  0  0  0  0  0  0  0
   46.9710   32.2630   45.2970 C   0  0  0  0  0  0  0  0  0  0  0  0
   45.9460   31.4090   45.2620 N   0  0  0  0  0  0  0  0  0  0  0  0
   44.6500   30.2860   43.9130 H   0  0  0  0  0  0  0  0  0  0  0  0
   45.7690   31.1480   41.9560 H   0  0  0  0  0  0  0  0  0  0  0  0
   47.3620   32.6200   46.2550 H   0  0  0  0  0  0  0  0  0  0  0  0
   46.2440   34.7520   41.9650 C   0  0  0  0  0  0  0  0  0  0  0  0
   45.8570   35.4100   43.1410 C   0  0  0  0  0  0  0  0  0  0  0  0
   44.5000   35.7160   43.2540 C   0  0  0  0  0  0  0  0  0  0  0  0
   43.6660   35.3520   42.2190 C   0  0  0  0  0  0  0  0  0  0  0  0
   44.0620   34.7010   41.0620 C   0  0  0  0  0  0  0  0  0  0  0  0
   45.3910   34.4090   40.9660 N   0  0  0  0  0  0  0  0  0  0  0  0
   46.6180   35.6160   43.8340 H   0  0  0  0  0  0  0  0  0  0  0  0
   44.1880   36.2150   44.1390 H   0  0  0  0  0  0  0  0  0  0  0  0
   42.6060   35.5960   42.3180 H   0  0  0  0  0  0  0  0  0  0  0  0
   43.1040   34.3630   40.0170 C   0  0  0  0  0  0  0  0  0  0  0  0
   42.8730   35.2230   39.1210 O   0  0  0  0  0  0  0  0  0  0  0  0
   42.3990   33.0360   39.9890 C   0  0  0  0  0  3  0  0  0  0  0  0
   43.1240   32.0340   40.8670 C   0  0  0  0  0  3  0  0  0  0  0  0
   42.4510   31.5940   41.6300 H   0  0  0  0  0  0  0  0  0  0  0  0
   43.6960   30.8810   40.0670 C   0  0  0  0  0  3  0  0  0  0  0  0
   44.1260   30.1850   40.8410 H   0  0  0  0  0  0  0  0  0  0  0  0
   42.7520   30.2160   39.3040 O   0  0  0  0  0  0  0  0  0  0  0  0
   41.8230   31.0660   38.7230 C   0  0  0  0  0  3  0  0  0  0  0  0
   41.3920   30.6780   37.7990 H   0  0  0  0  0  0  0  0  0  0  0  0
   42.4250   32.4500   38.5890 C   0  0  0  0  0  3  0  0  0  0  0  0
   41.8680   33.0380   37.8570 H   0  0  0  0  0  0  0  0  0  0  0  0
  1  7  1  1  0  0  0
  1 19  1  0  0  0  0
  2  9  1  0  0  0  0
  2  1  1  0  0  0  0
  3 10  1  0  0  0  0
  3  2  1  0  0  0  0
  4  3  1  0  0  0  0
  4  5  1  0  0  0  0
  5 14  1  0  0  0  0
  5  6  1  0  0  0  0
  6  1  1  0  0  0  0
  6 26  1  0  0  0  0
  6 16  1  1  0  0  0
  8  2  1  0  0  0  0
 11  3  1  0  0  0  0
 12  4  1  0  0  0  0
 13  4  1  0  0  0  0
 15  5  1  0  0  0  0
 17 22  1  0  0  0  0
 18 19  1  0  0  0  0
 18 17  2  0  0  0  0
 19 20  2  0  0  0  0
 20 21  1  0  0  0  0
 21 25  1  0  0  0  0
 22 21  2  0  0  0  0
 23 17  1  0  0  0  0
 24 18  1  0  0  0  0
 26 27  1  0  0  0  0
 27 28  2  0  0  0  0
 27 32  1  0  0  0  0
 28 33  1  0  0  0  0
 29 34  1  0  0  0  0
 29 28  1  0  0  0  0
 30 29  2  0  0  0  0
 31 30  1  0  0  0  0
 31 26  2  0  0  0  0
 35 30  1  0  0  0  0
 36 35  2  0  0  0  0
 37 35  1  0  0  0  0
 37 38  1  0  0  0  0
 38 39  1  0  0  0  0
 40 41  1  0  0  0  0
 40 38  1  0  0  0  0
 42 40  1  0  0  0  0
 43 42  1  0  0  0  0
 44 43  1  0  0  0  0
 45 43  1  0  0  0  0
 45 37  1  0  0  0  0
 46 45  1  0  0  0  0
M  END
>  <minimizedAffinity>
-5.00458908

>  <minimizedRMSD>
1.07364225

$$$$
