
 OpenBabel03242521173D

 39 41  0  0  0  0  0  0  0  0999 V2000
   46.5310   32.8500   46.5020 C   0  0  0  0  0  0  0  0  0  0  0  0
   47.0770   32.0570   45.9800 H   0  0  0  0  0  0  0  0  0  0  0  0
   47.2930   33.4060   47.1170 H   0  0  0  0  0  0  0  0  0  0  0  0
   44.5570   35.5680   44.8540 C   0  0  0  0  0  0  0  0  0  0  0  0
   45.1430   35.5620   43.5770 C   0  0  0  0  0  0  0  0  0  0  0  0
   46.1590   34.6440   43.3600 C   0  0  0  0  0  0  0  0  0  0  0  0
   46.5410   33.7990   44.3830 N   0  0  0  0  0  0  0  0  0  0  0  0
   45.9440   33.8540   45.5780 C   0  0  0  0  0  0  0  0  0  0  0  0
   44.9390   34.7380   45.8430 N   0  0  0  0  0  0  0  0  0  0  0  0
   43.7520   36.2740   45.0690 H   0  0  0  0  0  0  0  0  0  0  0  0
   44.8050   36.2410   42.8190 H   0  0  0  0  0  0  0  0  0  0  0  0
   46.7750   34.6150   42.0690 N   0  0  0  0  0  0  0  0  0  0  0  0
   47.9570   35.2250   41.9090 C   0  0  0  0  0  0  0  0  0  0  0  0
   48.5640   35.2050   40.6670 C   0  0  0  0  0  0  0  0  0  0  0  0
   47.9250   34.5570   39.6550 C   0  0  0  0  0  0  0  0  0  0  0  0
   48.4900   34.5420   38.5070 O   0  0  0  0  0  0  0  0  0  0  0  0
   46.7340   33.9350   39.7920 N   0  0  0  0  0  0  0  0  0  0  0  0
   46.2010   33.9950   41.0260 C   0  0  0  0  0  0  0  0  0  0  0  0
   45.0940   33.4470   41.2700 O   0  0  0  0  0  0  0  0  0  0  0  0
   48.4750   35.7460   42.7130 H   0  0  0  0  0  0  0  0  0  0  0  0
   49.5190   35.6880   40.4970 H   0  0  0  0  0  0  0  0  0  0  0  0
   46.2530   33.4410   39.0060 H   0  0  0  0  0  0  0  0  0  0  0  0
   45.4970   32.3280   47.4660 C   0  0  0  0  0  0  0  0  0  0  0  0
   44.6500   33.0360   47.4780 H   0  0  0  0  0  0  0  0  0  0  0  0
   45.8790   32.2570   48.5000 H   0  0  0  0  0  0  0  0  0  0  0  0
   45.5070   29.8700   47.4730 C   0  0  0  0  0  0  0  0  0  0  0  0
   46.3810   29.9840   48.3740 O   0  0  0  0  0  0  0  0  0  0  0  0
   44.9880   31.0610   46.9600 N   0  0  0  0  0  0  0  0  0  0  0  0
   44.2530   31.0740   46.2310 H   0  0  0  0  0  0  0  0  0  0  0  0
   45.0600   28.5350   46.9940 C   0  0  0  0  0  3  0  0  0  0  0  0
   44.7600   27.5920   48.1420 C   0  0  0  0  0  3  0  0  0  0  0  0
   43.7870   27.9050   48.6050 H   0  0  0  0  0  0  0  0  0  0  0  0
   44.4950   26.2280   47.5200 C   0  0  0  0  0  3  0  0  0  0  0  0
   44.3860   25.4400   48.2730 H   0  0  0  0  0  0  0  0  0  0  0  0
   43.2970   26.3770   46.7890 O   0  0  0  0  0  0  0  0  0  0  0  0
   43.5140   27.1900   45.6980 C   0  0  0  0  0  3  0  0  0  0  0  0
   42.5620   27.2410   45.1220 H   0  0  0  0  0  0  0  0  0  0  0  0
   43.8700   28.6050   46.0780 C   0  0  0  0  0  3  0  0  0  0  0  0
   43.0070   29.1440   46.4650 H   0  0  0  0  0  0  0  0  0  0  0  0
  1  3  1  0  0  0  0
  1 23  1  0  0  0  0
  2  1  1  0  0  0  0
  4 10  1  0  0  0  0
  4  9  1  0  0  0  0
  5  4  2  0  0  0  0
  6  5  1  0  0  0  0
  6  7  2  0  0  0  0
  7  8  1  0  0  0  0
  8  9  2  0  0  0  0
  8  1  1  0  0  0  0
 11  5  1  0  0  0  0
 12  6  1  0  0  0  0
 13 12  1  0  0  0  0
 13 20  1  0  0  0  0
 14 13  2  0  0  0  0
 15 17  1  0  0  0  0
 15 14  1  0  0  0  0
 16 15  2  0  0  0  0
 17 18  1  0  0  0  0
 18 19  2  0  0  0  0
 18 12  1  0  0  0  0
 21 14  1  0  0  0  0
 22 17  1  0  0  0  0
 23 24  1  0  0  0  0
 23 25  1  0  0  0  0
 26 27  2  0  0  0  0
 28 23  1  0  0  0  0
 28 26  1  0  0  0  0
 29 28  1  0  0  0  0
 30 26  1  0  0  0  0
 30 31  1  0  0  0  0
 31 32  1  0  0  0  0
 33 31  1  0  0  0  0
 33 34  1  0  0  0  0
 35 33  1  0  0  0  0
 36 38  1  0  0  0  0
 36 35  1  0  0  0  0
 37 36  1  0  0  0  0
 38 39  1  0  0  0  0
 38 30  1  0  0  0  0
M  END
>  <minimizedAffinity>
-6.313972

>  <minimizedRMSD>
1.40699577

$$$$
