
 OpenBabel03242519493D

 51 54  0  0  1  0  0  0  0  0999 V2000
   44.6860   29.4690   46.7870 C   0  0  0  0  0  0  0  0  0  0  0  0
   43.6520   29.6600   46.8040 H   0  0  0  0  0  0  0  0  0  0  0  0
   44.6100   28.5900   45.9000 H   0  0  0  0  0  0  0  0  0  0  0  0
   45.3650   28.6230   47.8720 C   0  0  0  0  0  0  0  0  0  0  0  0
   46.4370   28.7670   47.8880 H   0  0  0  0  0  0  0  0  0  0  0  0
   44.9400   28.9660   48.8380 H   0  0  0  0  0  0  0  0  0  0  0  0
   46.0000   26.2830   48.0320 C   0  0  0  0  0  0  0  0  0  0  0  0
   45.0090   27.2140   47.6860 C   0  0  0  0  0  0  0  0  0  0  0  0
   43.8540   26.6480   47.1980 C   0  0  0  0  0  0  0  0  0  0  0  0
   43.6390   25.3090   47.0410 C   0  0  0  0  0  0  0  0  0  0  0  0
   44.6350   24.4090   47.3890 C   0  0  0  0  0  0  0  0  0  0  0  0
   45.8510   24.9140   47.8990 C   0  0  0  0  0  0  0  0  0  0  0  0
   43.1140   27.3940   46.9430 H   0  0  0  0  0  0  0  0  0  0  0  0
   42.6700   25.0310   46.6430 H   0  0  0  0  0  0  0  0  0  0  0  0
   44.4230   23.3640   47.2500 H   0  0  0  0  0  0  0  0  0  0  0  0
   47.2480   26.5650   48.5480 O   0  0  0  0  0  0  0  0  0  0  0  0
   47.8060   27.2920   48.1370 H   0  0  0  0  0  0  0  0  0  0  0  0
   46.7320   23.9570   48.1990 O   0  0  0  0  0  0  0  0  0  0  0  0
   46.8450   22.8200   48.9090 C   0  0  0  0  0  3  0  0  0  0  0  0
   47.0980   22.9960   50.3940 C   0  0  0  0  0  3  0  0  0  0  0  0
   46.4590   23.7390   50.8580 H   0  0  0  0  0  0  0  0  0  0  0  0
   48.5320   23.3530   50.6930 C   0  0  0  0  0  3  0  0  0  0  0  0
   48.8880   24.2280   50.1360 H   0  0  0  0  0  0  0  0  0  0  0  0
   49.2680   22.2000   50.3370 O   0  0  0  0  0  0  0  0  0  0  0  0
   49.2960   22.2040   48.9520 C   0  0  0  0  0  3  0  0  0  0  0  0
   49.7990   23.1110   48.5980 H   0  0  0  0  0  0  0  0  0  0  0  0
   47.9520   21.9660   48.3180 C   0  0  0  0  0  3  0  0  0  0  0  0
   48.0590   22.1820   47.2340 H   0  0  0  0  0  0  0  0  0  0  0  0
   45.5370   30.2740   46.1460 O   0  0  0  0  0  0  0  0  0  0  0  0
   45.6440   32.4720   45.2380 C   0  0  2  0  0  0  0  0  0  0  0  0
   47.0360   32.7650   44.9010 C   0  0  1  0  0  0  0  0  0  0  0  0
   47.7630   31.5850   45.4330 O   0  0  0  0  0  0  0  0  0  0  0  0
   47.2930   31.6700   46.7380 C   0  0  0  0  0  0  0  0  0  0  0  0
   45.6940   31.5720   46.4260 C   0  0  2  0  0  0  0  0  0  0  0  0
   45.0210   33.3700   45.4100 H   0  0  0  0  0  0  0  0  0  0  0  0
   47.4730   33.5920   45.5130 H   0  0  0  0  0  0  0  0  0  0  0  0
   47.5390   30.8130   47.3650 H   0  0  0  0  0  0  0  0  0  0  0  0
   47.4660   32.6590   47.1580 H   0  0  0  0  0  0  0  0  0  0  0  0
   45.3470   31.9280   47.4100 H   0  0  0  0  0  0  0  0  0  0  0  0
   46.7110   33.8750   41.4430 C   0  0  0  0  0  0  0  0  0  0  0  0
   47.8350   33.3390   40.8150 C   0  0  0  0  0  0  0  0  0  0  0  0
   48.7260   32.5710   41.5800 C   0  0  0  0  0  0  0  0  0  0  0  0
   48.4670   32.3750   42.8920 N   0  0  0  0  0  0  0  0  0  0  0  0
   47.3700   32.9020   43.4850 C   0  0  0  0  0  0  0  0  0  0  0  0
   46.4860   33.6540   42.7680 N   0  0  0  0  0  0  0  0  0  0  0  0
   47.9740   33.5400   39.7620 H   0  0  0  0  0  0  0  0  0  0  0  0
   49.5910   32.1600   41.0870 H   0  0  0  0  0  0  0  0  0  0  0  0
   45.7920   34.6470   40.7310 O   0  0  0  0  0  0  0  0  0  0  0  0
   45.4290   34.2900   39.8620 H   0  0  0  0  0  0  0  0  0  0  0  0
   45.0650   31.6950   44.1480 O   0  0  0  0  0  0  0  0  0  0  0  0
   44.0750   31.7950   44.3120 H   0  0  0  0  0  0  0  0  0  0  0  0
  1  2  1  0  0  0  0
  1  4  1  0  0  0  0
  3  1  1  0  0  0  0
  4  5  1  0  0  0  0
  4  6  1  0  0  0  0
  7 16  1  0  0  0  0
  8  4  1  0  0  0  0
  8  7  2  0  0  0  0
  9  8  1  0  0  0  0
 10  9  2  0  0  0  0
 10 11  1  0  0  0  0
 11 12  2  0  0  0  0
 12  7  1  0  0  0  0
 12 18  1  0  0  0  0
 13  9  1  0  0  0  0
 14 10  1  0  0  0  0
 15 11  1  0  0  0  0
 17 16  1  0  0  0  0
 18 19  1  0  0  0  0
 19 20  1  0  0  0  0
 20 22  1  0  0  0  0
 20 21  1  0  0  0  0
 23 22  1  0  0  0  0
 24 22  1  0  0  0  0
 25 24  1  0  0  0  0
 26 25  1  0  0  0  0
 27 19  1  0  0  0  0
 27 25  1  0  0  0  0
 28 27  1  0  0  0  0
 29 34  1  0  0  0  0
 29  1  1  0  0  0  0
 30 35  1  1  0  0  0
 30 34  1  0  0  0  0
 31 30  1  0  0  0  0
 31 32  1  0  0  0  0
 31 36  1  1  0  0  0
 32 33  1  0  0  0  0
 33 38  1  0  0  0  0
 33 37  1  0  0  0  0
 34 33  1  0  0  0  0
 34 39  1  1  0  0  0
 40 45  1  0  0  0  0
 41 40  2  0  0  0  0
 41 42  1  0  0  0  0
 42 43  2  0  0  0  0
 43 44  1  0  0  0  0
 44 31  1  0  0  0  0
 45 44  2  0  0  0  0
 46 41  1  0  0  0  0
 47 42  1  0  0  0  0
 48 40  1  0  0  0  0
 49 48  1  0  0  0  0
 50 51  1  0  0  0  0
 50 30  1  0  0  0  0
M  END
>  <minimizedAffinity>
-4.59441042

>  <minimizedRMSD>
6.41807032

$$$$
