
 OpenBabel03242523553D

 46 49  0  0  1  0  0  0  0  0999 V2000
   42.8760   34.2010   39.1950 C   0  0  1  0  0  0  0  0  0  0  0  0
   43.1240   35.1450   40.3630 C   0  0  1  0  0  0  0  0  0  0  0  0
   41.8830   35.6830   40.7620 O   0  0  0  0  0  0  0  0  0  0  0  0
   41.0320   35.9220   39.6790 C   0  0  0  0  0  0  0  0  0  0  0  0
   40.5410   34.6360   39.0490 C   0  0  2  0  0  0  0  0  0  0  0  0
   41.5690   33.5260   39.4660 C   0  0  1  0  0  0  0  0  0  0  0  0
   43.7000   33.4510   39.1240 H   0  0  0  0  0  0  0  0  0  0  0  0
   43.8570   35.9270   40.1500 H   0  0  0  0  0  0  0  0  0  0  0  0
   41.4790   36.6170   38.9290 H   0  0  0  0  0  0  0  0  0  0  0  0
   40.1810   36.4890   40.1100 H   0  0  0  0  0  0  0  0  0  0  0  0
   39.5370   34.3450   39.4000 H   0  0  0  0  0  0  0  0  0  0  0  0
   41.2950   33.5470   40.5690 H   0  0  0  0  0  0  0  0  0  0  0  0
   42.8280   34.9080   37.9860 O   0  0  0  0  0  0  0  0  0  0  0  0
   43.1250   34.3420   37.2340 H   0  0  0  0  0  0  0  0  0  0  0  0
   40.6320   34.7300   37.6690 O   0  0  0  0  0  0  0  0  0  0  0  0
   40.5770   33.8440   37.2280 H   0  0  0  0  0  0  0  0  0  0  0  0
   43.4810   34.3020   41.4370 O   0  0  0  0  0  0  0  0  0  0  0  0
   44.6600   34.3360   42.0660 C   0  0  0  0  0  0  0  0  0  0  0  0
   45.8570   34.5170   41.3580 C   0  0  0  0  0  0  0  0  0  0  0  0
   47.0460   34.5440   42.0640 C   0  0  0  0  0  0  0  0  0  0  0  0
   47.0240   34.3930   43.4420 N   0  0  0  0  0  0  0  0  0  0  0  0
   45.8500   34.2190   44.0890 C   0  0  0  0  0  0  0  0  0  0  0  0
   44.6770   34.1890   43.4090 N   0  0  0  0  0  0  0  0  0  0  0  0
   45.8620   34.6340   40.2920 H   0  0  0  0  0  0  0  0  0  0  0  0
   45.8500   34.1000   45.1670 H   0  0  0  0  0  0  0  0  0  0  0  0
   48.3640   34.7140   41.3750 C   0  0  0  0  0  0  0  0  0  0  0  0
   49.0720   36.0550   41.5640 C   0  0  0  0  0  0  0  0  0  0  0  0
   49.5870   34.7120   42.1130 C   0  0  0  0  0  0  0  0  0  0  0  0
   48.3300   34.3280   40.3240 H   0  0  0  0  0  0  0  0  0  0  0  0
   48.5540   36.7490   42.2420 H   0  0  0  0  0  0  0  0  0  0  0  0
   49.5400   36.4580   40.6690 H   0  0  0  0  0  0  0  0  0  0  0  0
   50.5080   34.3820   41.6350 H   0  0  0  0  0  0  0  0  0  0  0  0
   49.5340   34.6880   43.2330 H   0  0  0  0  0  0  0  0  0  0  0  0
   41.2930   32.4290   38.7390 O   0  0  0  0  0  0  0  0  0  0  0  0
   40.2980   31.5330   38.8870 C   0  0  0  0  0  0  0  0  0  0  0  0
   39.6830   31.0030   37.8620 O   0  0  0  0  0  0  0  0  0  0  0  0
   39.4110   30.7180   39.7570 C   0  0  0  0  0  3  0  0  0  0  0  0
   40.1700   29.9000   40.7630 C   0  0  0  0  0  3  0  0  0  0  0  0
   40.5890   30.5250   41.5770 H   0  0  0  0  0  0  0  0  0  0  0  0
   39.1320   28.9750   41.3700 C   0  0  0  0  0  3  0  0  0  0  0  0
   38.7300   28.3860   40.4970 H   0  0  0  0  0  0  0  0  0  0  0  0
   38.1570   29.7010   42.0120 O   0  0  0  0  0  0  0  0  0  0  0  0
   37.4660   30.5580   41.1730 C   0  0  0  0  0  3  0  0  0  0  0  0
   37.0750   29.9580   40.3100 H   0  0  0  0  0  0  0  0  0  0  0  0
   38.4270   31.5580   40.5370 C   0  0  0  0  0  3  0  0  0  0  0  0
   38.9310   32.1750   41.3040 H   0  0  0  0  0  0  0  0  0  0  0  0
  1  7  1  6  0  0  0
  1  6  1  0  0  0  0
  1  2  1  0  0  0  0
  2  8  1  6  0  0  0
  2  3  1  0  0  0  0
  2 17  1  0  0  0  0
  4 10  1  0  0  0  0
  4  3  1  0  0  0  0
  5 11  1  1  0  0  0
  5  6  1  0  0  0  0
  5  4  1  0  0  0  0
  6 12  1  1  0  0  0
  9  4  1  0  0  0  0
 13  1  1  0  0  0  0
 14 13  1  0  0  0  0
 15  5  1  0  0  0  0
 16 15  1  0  0  0  0
 17 18  1  0  0  0  0
 18 23  1  0  0  0  0
 19 20  1  0  0  0  0
 19 18  2  0  0  0  0
 20 21  2  0  0  0  0
 21 22  1  0  0  0  0
 22 25  1  0  0  0  0
 23 22  2  0  0  0  0
 24 19  1  0  0  0  0
 26 27  1  0  0  0  0
 26 20  1  0  0  0  0
 26 28  1  0  0  0  0
 27 28  1  0  0  0  0
 27 30  1  0  0  0  0
 28 33  1  0  0  0  0
 29 26  1  0  0  0  0
 31 27  1  0  0  0  0
 32 28  1  0  0  0  0
 34 35  1  0  0  0  0
 34  6  1  0  0  0  0
 35 37  1  0  0  0  0
 36 35  2  0  0  0  0
 37 45  1  0  0  0  0
 37 38  1  0  0  0  0
 38 40  1  0  0  0  0
 38 39  1  0  0  0  0
 40 42  1  0  0  0  0
 41 40  1  0  0  0  0
 43 42  1  0  0  0  0
 44 43  1  0  0  0  0
 45 43  1  0  0  0  0
 45 46  1  0  0  0  0
M  END
>  <minimizedAffinity>
-6.23567295

>  <minimizedRMSD>
1.89959717

$$$$
