
 OpenBabel03242510513D

 23 24  0  0  0  0  0  0  0  0999 V2000
   44.7120   36.6420   43.9640 C   0  0  0  0  0  0  0  0  0  0  0  0
   45.4660   36.2820   42.8220 C   0  0  0  0  0  0  0  0  0  0  0  0
   46.1200   35.0340   42.8500 C   0  0  0  0  0  0  0  0  0  0  0  0
   45.9930   34.2550   43.9590 N   0  0  0  0  0  0  0  0  0  0  0  0
   45.2710   34.6310   45.0190 C   0  0  0  0  0  0  0  0  0  0  0  0
   44.6240   35.8310   45.0290 N   0  0  0  0  0  0  0  0  0  0  0  0
   46.1520   32.7140   46.2010 C   0  0  0  0  0  0  0  0  0  0  0  0
   47.0560   32.5030   45.3640 O   0  0  0  0  0  0  0  0  0  0  0  0
   45.1950   33.7540   46.1330 N   0  0  0  0  0  0  0  0  0  0  0  0
   44.2310   37.6060   43.8940 H   0  0  0  0  0  0  0  0  0  0  0  0
   45.5650   36.8970   41.9460 H   0  0  0  0  0  0  0  0  0  0  0  0
   46.7210   34.6590   42.0310 H   0  0  0  0  0  0  0  0  0  0  0  0
   44.4740   33.8570   46.8760 H   0  0  0  0  0  0  0  0  0  0  0  0
   46.0760   31.7810   47.3780 C   0  0  0  0  0  0  0  0  0  0  0  0
   45.3750   30.4970   47.0620 C   0  0  0  0  0  0  0  0  0  0  0  0
   45.8990   30.0400   46.2070 H   0  0  0  0  0  0  0  0  0  0  0  0
   45.5550   29.6000   48.2700 C   0  0  0  0  0  0  0  0  0  0  0  0
   44.5530   29.2100   48.5700 H   0  0  0  0  0  0  0  0  0  0  0  0
   46.0370   30.2670   49.3870 O   0  0  0  0  0  0  0  0  0  0  0  0
   45.2580   31.4010   49.6350 C   0  0  0  0  0  0  0  0  0  0  0  0
   45.5420   31.7950   50.6130 H   0  0  0  0  0  0  0  0  0  0  0  0
   45.4920   32.4680   48.5860 C   0  0  0  0  0  0  0  0  0  0  0  0
   44.5260   32.9270   48.2570 H   0  0  0  0  0  0  0  0  0  0  0  0
  1  6  1  0  0  0  0
  2  3  1  0  0  0  0
  2  1  2  0  0  0  0
  3  4  2  0  0  0  0
  4  5  1  0  0  0  0
  5  6  2  0  0  0  0
  5  9  1  0  0  0  0
  7 14  1  0  0  0  0
  8  7  2  0  0  0  0
  9  7  1  0  0  0  0
  9 13  1  0  0  0  0
 10  1  1  0  0  0  0
 11  2  1  0  0  0  0
 12  3  1  0  0  0  0
 14 22  1  0  0  0  0
 15 14  1  0  0  0  0
 15 17  1  0  0  0  0
 16 15  1  0  0  0  0
 17 18  1  0  0  0  0
 17 19  1  0  0  0  0
 19 20  1  0  0  0  0
 20 21  1  0  0  0  0
 22 20  1  0  0  0  0
 23 22  1  0  0  0  0
M  END
>  <minimizedAffinity>
-4.79110765

>  <minimizedRMSD>
0.994367301

$$$$
