
 OpenBabel03242519343D

 41 43  0  0  0  0  0  0  0  0999 V2000
   46.2890   33.3390   45.3460 C   0  0  0  0  0  0  0  0  0  0  0  0
   46.8230   33.2620   44.0710 C   0  0  0  0  0  0  0  0  0  0  0  0
   46.3830   34.1170   43.0770 C   0  0  0  0  0  0  0  0  0  0  0  0
   45.4050   35.0130   43.4370 N   0  0  0  0  0  0  0  0  0  0  0  0
   44.8880   35.0690   44.6980 C   0  0  0  0  0  0  0  0  0  0  0  0
   45.3250   34.2450   45.6400 N   0  0  0  0  0  0  0  0  0  0  0  0
   43.8470   36.0150   44.9430 N   0  0  0  0  0  0  0  0  0  0  0  0
   48.2620   33.5210   41.8250 C   0  0  0  0  0  0  0  0  0  0  0  0
   48.7510   33.1560   42.9150 O   0  0  0  0  0  0  0  0  0  0  0  0
   46.9270   34.0900   41.7740 N   0  0  0  0  0  0  0  0  0  0  0  0
   47.5140   32.4410   44.0540 H   0  0  0  0  0  0  0  0  0  0  0  0
   43.9710   36.8530   45.5250 H   0  0  0  0  0  0  0  0  0  0  0  0
   42.9270   35.7890   44.4770 H   0  0  0  0  0  0  0  0  0  0  0  0
   46.3820   34.4380   40.9830 H   0  0  0  0  0  0  0  0  0  0  0  0
   46.8740   32.4550   46.4000 C   0  0  0  0  0  0  0  0  0  0  0  0
   47.2060   31.1200   45.8540 C   0  0  0  0  0  0  0  0  0  0  0  0
   46.2860   30.0700   46.4050 C   0  0  0  0  0  0  0  0  0  0  0  0
   46.3300   30.0230   47.9190 C   0  0  0  0  0  0  0  0  0  0  0  0
   46.2670   31.3670   48.5550 C   0  0  0  0  0  0  0  0  0  0  0  0
   45.9470   32.4600   47.5680 C   0  0  0  0  0  0  0  0  0  0  0  0
   47.8290   32.9830   46.6920 H   0  0  0  0  0  0  0  0  0  0  0  0
   47.1720   31.0140   44.7630 H   0  0  0  0  0  0  0  0  0  0  0  0
   48.2240   30.8310   46.1850 H   0  0  0  0  0  0  0  0  0  0  0  0
   46.5890   29.0950   46.0080 H   0  0  0  0  0  0  0  0  0  0  0  0
   45.2450   30.3270   46.0710 H   0  0  0  0  0  0  0  0  0  0  0  0
   45.6210   29.2840   48.2910 H   0  0  0  0  0  0  0  0  0  0  0  0
   47.3460   29.5880   48.1530 H   0  0  0  0  0  0  0  0  0  0  0  0
   45.4610   31.3530   49.3140 H   0  0  0  0  0  0  0  0  0  0  0  0
   47.2090   31.6490   49.0890 H   0  0  0  0  0  0  0  0  0  0  0  0
   45.9810   33.4390   48.0770 H   0  0  0  0  0  0  0  0  0  0  0  0
   44.9000   32.2740   47.2390 H   0  0  0  0  0  0  0  0  0  0  0  0
   48.9270   33.4480   40.4260 C   0  0  0  0  0  3  0  0  0  0  0  0
   48.9050   32.0300   39.9540 C   0  0  0  0  0  3  0  0  0  0  0  0
   48.5920   31.3400   40.7390 H   0  0  0  0  0  0  0  0  0  0  0  0
   48.0140   31.9550   38.7210 C   0  0  0  0  0  3  0  0  0  0  0  0
   48.1030   30.9400   38.2710 H   0  0  0  0  0  0  0  0  0  0  0  0
   48.5260   32.8320   37.7660 O   0  0  0  0  0  0  0  0  0  0  0  0
   48.4610   34.1560   38.1400 C   0  0  0  0  0  3  0  0  0  0  0  0
   47.8070   34.6970   37.4470 H   0  0  0  0  0  0  0  0  0  0  0  0
   48.0160   34.3320   39.5710 C   0  0  0  0  0  3  0  0  0  0  0  0
   48.2380   35.3830   39.8810 H   0  0  0  0  0  0  0  0  0  0  0  0
  1  6  1  0  0  0  0
  1 15  1  0  0  0  0
  2  1  2  0  0  0  0
  3  4  2  0  0  0  0
  3  2  1  0  0  0  0
  4  5  1  0  0  0  0
  5  7  1  0  0  0  0
  5  6  2  0  0  0  0
  7 12  1  0  0  0  0
  8  9  2  0  0  0  0
 10  8  1  0  0  0  0
 10  3  1  0  0  0  0
 11  2  1  0  0  0  0
 13  7  1  0  0  0  0
 14 10  1  0  0  0  0
 15 21  1  0  0  0  0
 15 20  1  0  0  0  0
 16 23  1  0  0  0  0
 16 15  1  0  0  0  0
 16 17  1  0  0  0  0
 17 18  1  0  0  0  0
 18 27  1  0  0  0  0
 18 26  1  0  0  0  0
 18 19  1  0  0  0  0
 19 29  1  0  0  0  0
 19 28  1  0  0  0  0
 20 30  1  0  0  0  0
 20 19  1  0  0  0  0
 22 16  1  0  0  0  0
 24 17  1  0  0  0  0
 25 17  1  0  0  0  0
 31 20  1  0  0  0  0
 32  8  1  0  0  0  0
 33 32  1  0  0  0  0
 33 34  1  0  0  0  0
 35 33  1  0  0  0  0
 36 35  1  0  0  0  0
 37 38  1  0  0  0  0
 37 35  1  0  0  0  0
 38 40  1  0  0  0  0
 39 38  1  0  0  0  0
 40 41  1  0  0  0  0
 40 32  1  0  0  0  0
M  END
>  <minimizedAffinity>
-5.78060007

>  <minimizedRMSD>
1.27136683

$$$$
