
 OpenBabel03252507463D

 38 40  0  0  0  0  0  0  0  0999 V2000
   47.4060   34.6270   40.9570 C   0  0  0  0  0  0  0  0  0  0  0  0
   46.8140   33.9820   40.2850 H   0  0  0  0  0  0  0  0  0  0  0  0
   47.6860   35.5350   40.3650 H   0  0  0  0  0  0  0  0  0  0  0  0
   48.6720   33.9860   41.3640 C   0  0  0  0  0  0  0  0  0  0  0  0
   48.8950   32.6950   40.8930 C   0  0  0  0  0  0  0  0  0  0  0  0
   50.0610   32.0330   41.2290 C   0  0  0  0  0  0  0  0  0  0  0  0
   50.9630   32.6780   42.0220 N   0  0  0  0  0  0  0  0  0  0  0  0
   50.7120   33.9350   42.4630 C   0  0  0  0  0  0  0  0  0  0  0  0
   49.5940   34.5490   42.1300 N   0  0  0  0  0  0  0  0  0  0  0  0
   50.2400   31.0170   40.8600 H   0  0  0  0  0  0  0  0  0  0  0  0
   51.4780   34.3840   43.0910 H   0  0  0  0  0  0  0  0  0  0  0  0
   47.6690   31.8910   39.8450 S   0  0  0  0  0  0  0  0  0  0  0  0
   46.6700   30.7050   40.7980 C   0  0  0  0  0  3  0  0  0  0  0  0
   46.4950   31.2630   42.1870 C   0  0  0  0  0  3  0  0  0  0  0  0
   47.2340   32.0700   42.3760 H   0  0  0  0  0  0  0  0  0  0  0  0
   46.7620   30.1920   43.2000 C   0  0  0  0  0  3  0  0  0  0  0  0
   47.8540   30.0210   43.2440 H   0  0  0  0  0  0  0  0  0  0  0  0
   46.0640   29.0590   42.7820 O   0  0  0  0  0  0  0  0  0  0  0  0
   46.7260   28.4360   41.7410 C   0  0  0  0  0  3  0  0  0  0  0  0
   46.0050   27.8840   41.1010 H   0  0  0  0  0  0  0  0  0  0  0  0
   47.4570   29.4170   40.8600 C   0  0  0  0  0  3  0  0  0  0  0  0
   47.5030   29.0450   39.8040 H   0  0  0  0  0  0  0  0  0  0  0  0
   46.5690   35.0570   42.1100 C   0  0  0  0  0  0  0  0  0  0  0  0
   46.7680   34.3690   42.9650 H   0  0  0  0  0  0  0  0  0  0  0  0
   46.8420   36.0760   42.4020 H   0  0  0  0  0  0  0  0  0  0  0  0
   45.1000   34.9850   41.8530 C   0  0  0  0  0  0  0  0  0  0  0  0
   44.1790   35.5210   42.8020 C   0  0  0  0  0  0  0  0  0  0  0  0
   42.5500   35.1850   42.0300 S   0  0  0  0  0  0  0  0  0  0  0  0
   43.3950   34.3670   40.5360 C   0  0  0  0  0  0  0  0  0  0  0  0
   44.5000   34.4650   40.8100 N   0  0  0  0  0  0  0  0  0  0  0  0
   44.4240   36.0010   43.7370 H   0  0  0  0  0  0  0  0  0  0  0  0
   42.6830   33.8360   39.4650 O   0  0  0  0  0  0  0  0  0  0  0  0
   40.6940   34.1330   37.7520 O   0  0  0  0  0  0  0  0  0  0  0  0
   41.7460   34.9060   38.5390 P   0  0  0  0  0  0  0  0  0  0  0  0
   40.9830   35.9800   39.6040 O   0  0  0  0  0  0  0  0  0  0  0  0
   40.3860   35.5020   40.2180 H   0  0  0  0  0  0  0  0  0  0  0  0
   42.7350   35.8000   37.5050 O   0  0  0  0  0  0  0  0  0  0  0  0
   42.3570   35.7480   36.5780 H   0  0  0  0  0  0  0  0  0  0  0  0
  1  4  1  0  0  0  0
  1 23  1  0  0  0  0
  2  1  1  0  0  0  0
  3  1  1  0  0  0  0
  4  9  1  0  0  0  0
  5  6  1  0  0  0  0
  5  4  2  0  0  0  0
  6  7  2  0  0  0  0
  7  8  1  0  0  0  0
  8 11  1  0  0  0  0
  9  8  2  0  0  0  0
 10  6  1  0  0  0  0
 12 13  1  0  0  0  0
 12  5  1  0  0  0  0
 13 21  1  0  0  0  0
 13 14  1  0  0  0  0
 14 15  1  0  0  0  0
 14 16  1  0  0  0  0
 16 17  1  0  0  0  0
 18 16  1  0  0  0  0
 19 18  1  0  0  0  0
 20 19  1  0  0  0  0
 21 19  1  0  0  0  0
 22 21  1  0  0  0  0
 23 25  1  0  0  0  0
 23 24  1  0  0  0  0
 26 23  1  0  0  0  0
 26 27  2  0  0  0  0
 27 31  1  0  0  0  0
 28 27  1  0  0  0  0
 29 30  2  0  0  0  0
 29 28  1  0  0  0  0
 30 26  1  0  0  0  0
 32 29  1  0  0  0  0
 33 34  2  0  0  0  0
 34 32  1  0  0  0  0
 34 35  1  0  0  0  0
 35 36  1  0  0  0  0
 37 34  1  0  0  0  0
 38 37  1  0  0  0  0
M  END
>  <minimizedAffinity>
-4.32337999

>  <minimizedRMSD>
0.426187724

$$$$
