
 OpenBabel03242523543D

 46 49  0  0  1  0  0  0  0  0999 V2000
   42.8270   34.4910   38.7840 C   0  0  1  0  0  0  0  0  0  0  0  0
   42.9670   35.1910   40.1280 C   0  0  1  0  0  0  0  0  0  0  0  0
   41.6720   35.4220   40.6370 O   0  0  0  0  0  0  0  0  0  0  0  0
   40.7540   35.7470   39.6340 C   0  0  0  0  0  0  0  0  0  0  0  0
   40.4490   34.5620   38.7410 C   0  0  2  0  0  0  0  0  0  0  0  0
   41.6540   33.5710   38.9050 C   0  0  1  0  0  0  0  0  0  0  0  0
   43.7560   33.9180   38.5490 H   0  0  0  0  0  0  0  0  0  0  0  0
   43.5580   36.1090   40.0880 H   0  0  0  0  0  0  0  0  0  0  0  0
   41.0570   36.6490   39.0510 H   0  0  0  0  0  0  0  0  0  0  0  0
   39.8410   36.0620   40.1810 H   0  0  0  0  0  0  0  0  0  0  0  0
   39.5180   34.0440   39.0240 H   0  0  0  0  0  0  0  0  0  0  0  0
   41.4220   33.3110   39.9870 H   0  0  0  0  0  0  0  0  0  0  0  0
   42.6230   35.4230   37.7570 O   0  0  0  0  0  0  0  0  0  0  0  0
   42.9760   35.0860   36.8990 H   0  0  0  0  0  0  0  0  0  0  0  0
   40.4710   34.9620   37.4150 O   0  0  0  0  0  0  0  0  0  0  0  0
   40.5410   34.1940   36.7920 H   0  0  0  0  0  0  0  0  0  0  0  0
   43.4930   34.2080   40.9920 O   0  0  0  0  0  0  0  0  0  0  0  0
   44.6050   34.3550   41.7180 C   0  0  0  0  0  0  0  0  0  0  0  0
   45.8640   34.4550   41.1060 C   0  0  0  0  0  0  0  0  0  0  0  0
   46.9800   34.6070   41.9100 C   0  0  0  0  0  0  0  0  0  0  0  0
   46.8270   34.6550   43.2870 N   0  0  0  0  0  0  0  0  0  0  0  0
   45.5970   34.5540   43.8390 C   0  0  0  0  0  0  0  0  0  0  0  0
   44.4950   34.4040   43.0630 N   0  0  0  0  0  0  0  0  0  0  0  0
   45.9710   34.4170   40.0400 H   0  0  0  0  0  0  0  0  0  0  0  0
   45.4950   34.5920   44.9180 H   0  0  0  0  0  0  0  0  0  0  0  0
   48.3570   34.7000   41.3300 C   0  0  0  0  0  0  0  0  0  0  0  0
   49.0870   36.0320   41.5050 C   0  0  0  0  0  0  0  0  0  0  0  0
   49.5110   34.7100   42.1710 C   0  0  0  0  0  0  0  0  0  0  0  0
   48.4010   34.2540   40.3040 H   0  0  0  0  0  0  0  0  0  0  0  0
   48.5350   36.7780   42.0940 H   0  0  0  0  0  0  0  0  0  0  0  0
   49.6430   36.3680   40.6320 H   0  0  0  0  0  0  0  0  0  0  0  0
   50.4590   34.3290   41.7950 H   0  0  0  0  0  0  0  0  0  0  0  0
   49.3620   34.7540   43.2820 H   0  0  0  0  0  0  0  0  0  0  0  0
   41.5280   32.6240   37.9580 O   0  0  0  0  0  0  0  0  0  0  0  0
   40.8430   31.4650   37.9950 C   0  0  0  0  0  0  0  0  0  0  0  0
   40.8490   30.6230   36.9940 O   0  0  0  0  0  0  0  0  0  0  0  0
   39.9510   30.5120   38.7040 C   0  0  0  0  0  3  0  0  0  0  0  0
   40.3730   30.2620   40.1230 C   0  0  0  0  0  3  0  0  0  0  0  0
   40.1620   31.1310   40.7810 H   0  0  0  0  0  0  0  0  0  0  0  0
   39.5080   29.1040   40.5870 C   0  0  0  0  0  3  0  0  0  0  0  0
   39.7480   28.2650   39.8730 H   0  0  0  0  0  0  0  0  0  0  0  0
   38.1790   29.4570   40.5590 O   0  0  0  0  0  0  0  0  0  0  0  0
   37.7250   29.7990   39.2970 C   0  0  0  0  0  3  0  0  0  0  0  0
   37.9750   28.9560   38.5990 H   0  0  0  0  0  0  0  0  0  0  0  0
   38.5170   30.9840   38.7570 C   0  0  0  0  0  3  0  0  0  0  0  0
   38.4010   31.8730   39.4050 H   0  0  0  0  0  0  0  0  0  0  0  0
  1  7  1  6  0  0  0
  1  6  1  0  0  0  0
  1  2  1  0  0  0  0
  2  8  1  6  0  0  0
  2  3  1  0  0  0  0
  2 17  1  0  0  0  0
  4 10  1  0  0  0  0
  4  3  1  0  0  0  0
  5  6  1  0  0  0  0
  5 11  1  1  0  0  0
  5  4  1  0  0  0  0
  6 12  1  1  0  0  0
  9  4  1  0  0  0  0
 13  1  1  0  0  0  0
 14 13  1  0  0  0  0
 15  5  1  0  0  0  0
 16 15  1  0  0  0  0
 17 18  1  0  0  0  0
 18 23  1  0  0  0  0
 19 18  2  0  0  0  0
 19 20  1  0  0  0  0
 20 21  2  0  0  0  0
 21 22  1  0  0  0  0
 22 25  1  0  0  0  0
 23 22  2  0  0  0  0
 24 19  1  0  0  0  0
 26 27  1  0  0  0  0
 26 20  1  0  0  0  0
 26 28  1  0  0  0  0
 27 30  1  0  0  0  0
 27 28  1  0  0  0  0
 28 33  1  0  0  0  0
 29 26  1  0  0  0  0
 31 27  1  0  0  0  0
 32 28  1  0  0  0  0
 34 35  1  0  0  0  0
 34  6  1  0  0  0  0
 35 37  1  0  0  0  0
 36 35  2  0  0  0  0
 37 45  1  0  0  0  0
 37 38  1  0  0  0  0
 38 40  1  0  0  0  0
 38 39  1  0  0  0  0
 41 40  1  0  0  0  0
 42 40  1  0  0  0  0
 43 42  1  0  0  0  0
 44 43  1  0  0  0  0
 45 43  1  0  0  0  0
 45 46  1  0  0  0  0
M  END
>  <minimizedAffinity>
-6.19465733

>  <minimizedRMSD>
1.47791386

$$$$
