
 OpenBabel03242522473D

 42 45  0  0  0  0  0  0  0  0999 V2000
   45.8940   34.5450   44.0410 C   0  0  0  0  0  0  0  0  0  0  0  0
   46.9560   33.8450   43.4120 C   0  0  0  0  0  0  0  0  0  0  0  0
   47.5610   32.7700   44.0920 C   0  0  0  0  0  0  0  0  0  0  0  0
   47.0860   32.4620   45.3270 N   0  0  0  0  0  0  0  0  0  0  0  0
   46.0770   33.1390   45.9060 C   0  0  0  0  0  0  0  0  0  0  0  0
   45.4950   34.1660   45.2630 N   0  0  0  0  0  0  0  0  0  0  0  0
   45.2890   35.6130   43.3680 N   0  0  0  0  0  0  0  0  0  0  0  0
   48.3740   32.2150   43.6420 H   0  0  0  0  0  0  0  0  0  0  0  0
   44.9960   35.3880   42.3810 H   0  0  0  0  0  0  0  0  0  0  0  0
   45.1940   36.5150   43.9130 H   0  0  0  0  0  0  0  0  0  0  0  0
   47.4410   34.1970   42.0950 C   0  0  0  0  0  0  0  0  0  0  0  0
   48.3820   35.1490   41.7630 C   0  0  0  0  0  0  0  0  0  0  0  0
   48.7350   35.3590   40.4430 C   0  0  0  0  0  0  0  0  0  0  0  0
   48.1560   34.6200   39.4030 C   0  0  0  0  0  0  0  0  0  0  0  0
   48.5600   34.8960   38.1640 N   0  0  0  0  0  0  0  0  0  0  0  0
   48.0060   34.1830   37.1280 C   0  0  0  0  0  0  0  0  0  0  0  0
   47.0690   33.2340   37.4490 C   0  0  0  0  0  0  0  0  0  0  0  0
   46.6450   32.9420   38.7240 C   0  0  0  0  0  0  0  0  0  0  0  0
   47.2090   33.6640   39.7530 C   0  0  0  0  0  0  0  0  0  0  0  0
   46.8540   33.4510   41.0720 C   0  0  0  0  0  0  0  0  0  0  0  0
   48.7960   35.6890   42.5970 H   0  0  0  0  0  0  0  0  0  0  0  0
   49.4840   36.1240   40.2350 H   0  0  0  0  0  0  0  0  0  0  0  0
   48.2700   34.3360   36.1060 H   0  0  0  0  0  0  0  0  0  0  0  0
   46.6220   32.6620   36.6330 H   0  0  0  0  0  0  0  0  0  0  0  0
   45.9000   32.1800   38.9230 H   0  0  0  0  0  0  0  0  0  0  0  0
   46.1190   32.6930   41.2240 H   0  0  0  0  0  0  0  0  0  0  0  0
   45.6280   32.7200   47.2740 C   0  0  0  0  0  0  0  0  0  0  0  0
   44.9100   33.4210   47.7050 H   0  0  0  0  0  0  0  0  0  0  0  0
   46.5870   32.6820   47.8690 H   0  0  0  0  0  0  0  0  0  0  0  0
   45.0730   31.3030   47.1930 C   0  0  0  0  0  0  0  0  0  0  0  0
   43.9900   31.2950   47.3010 H   0  0  0  0  0  0  0  0  0  0  0  0
   45.4030   30.8890   46.2160 H   0  0  0  0  0  0  0  0  0  0  0  0
   45.7530   30.4880   48.2940 C   0  0  0  0  0  3  0  0  0  0  0  0
   44.9180   29.2580   48.6190 C   0  0  0  0  0  3  0  0  0  0  0  0
   44.9780   29.0500   49.7010 H   0  0  0  0  0  0  0  0  0  0  0  0
   45.4760   28.0360   47.8980 C   0  0  0  0  0  3  0  0  0  0  0  0
   44.6680   27.2880   47.8660 H   0  0  0  0  0  0  0  0  0  0  0  0
   45.8350   28.3550   46.5860 O   0  0  0  0  0  0  0  0  0  0  0  0
   46.9540   29.1840   46.5500 C   0  0  0  0  0  3  0  0  0  0  0  0
   47.8550   28.5520   46.4670 H   0  0  0  0  0  0  0  0  0  0  0  0
   47.0970   29.9840   47.8210 C   0  0  0  0  0  3  0  0  0  0  0  0
   47.8210   30.7790   47.6480 H   0  0  0  0  0  0  0  0  0  0  0  0
  1  6  1  0  0  0  0
  2  1  2  0  0  0  0
  2  3  1  0  0  0  0
  3  4  2  0  0  0  0
  4  5  1  0  0  0  0
  5 27  1  0  0  0  0
  6  5  2  0  0  0  0
  7 10  1  0  0  0  0
  7  1  1  0  0  0  0
  8  3  1  0  0  0  0
  9  7  1  0  0  0  0
 11  2  1  0  0  0  0
 12 11  1  0  0  0  0
 12 21  1  0  0  0  0
 13 12  2  0  0  0  0
 14 19  1  0  0  0  0
 14 13  1  0  0  0  0
 15 14  2  0  0  0  0
 16 17  2  0  0  0  0
 16 15  1  0  0  0  0
 17 18  1  0  0  0  0
 18 25  1  0  0  0  0
 18 19  2  0  0  0  0
 19 20  1  0  0  0  0
 20 26  1  0  0  0  0
 20 11  2  0  0  0  0
 22 13  1  0  0  0  0
 23 16  1  0  0  0  0
 24 17  1  0  0  0  0
 27 28  1  0  0  0  0
 27 29  1  0  0  0  0
 30 27  1  0  0  0  0
 30 31  1  0  0  0  0
 30 33  1  0  0  0  0
 32 30  1  0  0  0  0
 33 34  1  0  0  0  0
 34 35  1  0  0  0  0
 36 34  1  0  0  0  0
 37 36  1  0  0  0  0
 38 36  1  0  0  0  0
 39 38  1  0  0  0  0
 39 41  1  0  0  0  0
 40 39  1  0  0  0  0
 41 33  1  0  0  0  0
 42 41  1  0  0  0  0
M  END
>  <minimizedAffinity>
-5.65662718

>  <minimizedRMSD>
2.3591876

$$$$
