
 OpenBabel03242514333D

 27 29  0  0  1  0  0  0  0  0999 V2000
   49.5300   35.3410   42.8220 O   0  0  0  0  0  0  0  0  0  0  0  0
   48.9520   34.2460   42.0050 P   0  0  1  0  0  0  0  0  0  0  0  0
   50.2150   33.2390   41.5280 O   0  0  0  0  0  0  0  0  0  0  0  0
   50.2010   32.4040   42.0570 H   0  0  0  0  0  0  0  0  0  0  0  0
   47.7930   33.3460   42.9000 O   0  0  0  0  0  0  0  0  0  0  0  0
   46.1710   35.0950   42.9930 C   0  0  0  0  0  0  0  0  0  0  0  0
   46.7750   34.0020   43.5980 C   0  0  0  0  0  0  0  0  0  0  0  0
   46.3330   33.6250   44.8630 C   0  0  0  0  0  0  0  0  0  0  0  0
   45.3370   34.3420   45.4380 N   0  0  0  0  0  0  0  0  0  0  0  0
   44.7720   35.3990   44.8220 C   0  0  0  0  0  0  0  0  0  0  0  0
   45.1860   35.7700   43.6110 N   0  0  0  0  0  0  0  0  0  0  0  0
   46.4710   35.4430   41.9990 H   0  0  0  0  0  0  0  0  0  0  0  0
   46.8170   32.7700   45.3210 H   0  0  0  0  0  0  0  0  0  0  0  0
   43.9810   35.9500   45.3040 H   0  0  0  0  0  0  0  0  0  0  0  0
   48.2330   34.9120   40.6510 O   0  0  0  0  0  0  0  0  0  0  0  0
   47.7000   34.2190   39.6140 C   0  0  1  0  0  3  0  0  0  0  0  0
   46.5280   33.8030   39.8920 O   0  0  0  0  0  0  0  0  0  0  0  0
   47.1910   33.4790   38.4360 C   0  0  0  0  0  0  0  0  0  0  0  0
   47.4450   32.0120   38.4340 C   0  0  0  0  0  3  0  0  0  0  0  0
   46.8850   31.6370   37.5250 H   0  0  0  0  0  0  0  0  0  0  0  0
   48.8600   31.5910   38.2200 C   0  0  0  0  0  3  0  0  0  0  0  0
   49.2360   31.1180   39.1450 H   0  0  0  0  0  0  0  0  0  0  0  0
   49.6650   32.6330   37.7710 O   0  0  0  0  0  0  0  0  0  0  0  0
   49.0000   33.2390   36.6980 C   0  0  0  0  0  3  0  0  0  0  0  0
   48.5990   32.4450   36.0410 H   0  0  0  0  0  0  0  0  0  0  0  0
   47.8800   34.0870   37.2290 C   0  0  0  0  0  3  0  0  0  0  0  0
   48.3310   35.0890   37.4610 H   0  0  0  0  0  0  0  0  0  0  0  0
  2  1  2  1  0  0  0
  2  5  1  0  0  0  0
  3  2  1  0  0  0  0
  3  4  1  0  0  0  0
  5  7  1  0  0  0  0
  6  7  2  0  0  0  0
  6 11  1  0  0  0  0
  7  8  1  0  0  0  0
  8 13  1  0  0  0  0
  8  9  2  0  0  0  0
 10 14  1  0  0  0  0
 10  9  1  0  0  0  0
 11 10  2  0  0  0  0
 12  6  1  0  0  0  0
 15  2  1  0  0  0  0
 16 17  1  0  0  0  0
 16 15  1  6  0  0  0
 18 16  1  0  0  0  0
 18 17  1  0  0  0  0
 19 18  1  0  0  0  0
 20 19  1  0  0  0  0
 21 19  1  0  0  0  0
 21 22  1  0  0  0  0
 23 21  1  0  0  0  0
 24 26  1  0  0  0  0
 24 23  1  0  0  0  0
 25 24  1  0  0  0  0
 26 27  1  0  0  0  0
 26 18  1  0  0  0  0
M  END
>  <minimizedAffinity>
-4.50874329

>  <minimizedRMSD>
0.612627625

$$$$
