
 OpenBabel03242517003D

 33 35  0  0  0  0  0  0  0  0999 V2000
   46.5960   34.7430   41.9840 C   0  0  0  0  0  0  0  0  0  0  0  0
   47.8950   35.1980   41.9210 C   0  0  0  0  0  0  0  0  0  0  0  0
   48.6130   35.0100   40.7590 C   0  0  0  0  0  0  0  0  0  0  0  0
   48.0250   34.3780   39.6930 C   0  0  0  0  0  0  0  0  0  0  0  0
   46.7340   33.9130   39.7180 C   0  0  0  0  0  0  0  0  0  0  0  0
   46.0300   34.1190   40.9160 C   0  0  0  0  0  0  0  0  0  0  0  0
   48.3610   35.6980   42.7640 H   0  0  0  0  0  0  0  0  0  0  0  0
   49.6250   35.3780   40.7480 H   0  0  0  0  0  0  0  0  0  0  0  0
   48.6260   34.2520   38.8020 H   0  0  0  0  0  0  0  0  0  0  0  0
   46.2510   33.4160   38.9000 H   0  0  0  0  0  0  0  0  0  0  0  0
   44.4900   36.1870   44.7750 C   0  0  0  0  0  0  0  0  0  0  0  0
   45.1250   36.0830   43.5220 C   0  0  0  0  0  0  0  0  0  0  0  0
   45.8870   34.9710   43.2410 C   0  0  0  0  0  0  0  0  0  0  0  0
   45.9820   34.0140   44.2200 N   0  0  0  0  0  0  0  0  0  0  0  0
   45.3650   34.1310   45.4170 C   0  0  0  0  0  0  0  0  0  0  0  0
   44.6140   35.2270   45.6930 N   0  0  0  0  0  0  0  0  0  0  0  0
   43.9250   37.1130   44.8530 H   0  0  0  0  0  0  0  0  0  0  0  0
   45.0600   36.8220   42.7480 H   0  0  0  0  0  0  0  0  0  0  0  0
   45.4560   33.3680   46.1600 H   0  0  0  0  0  0  0  0  0  0  0  0
   43.4270   34.2340   40.7680 C   0  0  0  0  0  0  0  0  0  0  0  0
   43.1870   35.3130   40.2230 O   0  0  0  0  0  0  0  0  0  0  0  0
   44.6950   33.6840   41.0770 N   0  0  0  0  0  0  0  0  0  0  0  0
   44.8470   32.7470   41.5290 H   0  0  0  0  0  0  0  0  0  0  0  0
   42.2930   33.3340   41.1860 C   0  0  0  0  0  0  0  0  0  0  0  0
   41.0110   34.1680   41.3030 C   0  0  0  0  0  0  0  0  0  0  0  0
   41.2010   34.9110   42.0970 H   0  0  0  0  0  0  0  0  0  0  0  0
   39.9200   33.1890   41.6760 C   0  0  0  0  0  0  0  0  0  0  0  0
   39.5840   33.4640   42.7110 H   0  0  0  0  0  0  0  0  0  0  0  0
   40.3290   31.8800   41.7460 O   0  0  0  0  0  0  0  0  0  0  0  0
   40.8890   31.4200   40.5560 C   0  0  0  0  0  0  0  0  0  0  0  0
   41.3550   30.4340   40.7910 H   0  0  0  0  0  0  0  0  0  0  0  0
   42.0080   32.3300   40.0850 C   0  0  0  0  0  0  0  0  0  0  0  0
   41.6320   32.8310   39.1660 H   0  0  0  0  0  0  0  0  0  0  0  0
  1 13  1  0  0  0  0
  2  1  1  0  0  0  0
  2  7  1  0  0  0  0
  3  2  2  0  0  0  0
  4  5  2  0  0  0  0
  4  3  1  0  0  0  0
  5  6  1  0  0  0  0
  6 22  1  0  0  0  0
  6  1  2  0  0  0  0
  8  3  1  0  0  0  0
  9  4  1  0  0  0  0
 10  5  1  0  0  0  0
 11 17  1  0  0  0  0
 11 16  1  0  0  0  0
 12 11  2  0  0  0  0
 13 12  1  0  0  0  0
 13 14  2  0  0  0  0
 14 15  1  0  0  0  0
 15 16  2  0  0  0  0
 15 19  1  0  0  0  0
 18 12  1  0  0  0  0
 20 22  1  0  0  0  0
 20 24  1  0  0  0  0
 21 20  2  0  0  0  0
 22 23  1  0  0  0  0
 24 25  1  0  0  0  0
 25 27  1  0  0  0  0
 25 26  1  0  0  0  0
 27 29  1  0  0  0  0
 27 28  1  0  0  0  0
 30 31  1  0  0  0  0
 30 29  1  0  0  0  0
 32 30  1  0  0  0  0
 32 24  1  0  0  0  0
 33 32  1  0  0  0  0
M  END
>  <minimizedAffinity>
-6.2312746

>  <minimizedRMSD>
0.398371845

$$$$
