
 OpenBabel03252507463D

 38 40  0  0  0  0  0  0  0  0999 V2000
   47.1900   34.4130   40.8560 C   0  0  0  0  0  0  0  0  0  0  0  0
   46.6080   33.6110   40.3690 H   0  0  0  0  0  0  0  0  0  0  0  0
   47.3720   35.1950   40.0760 H   0  0  0  0  0  0  0  0  0  0  0  0
   48.5180   33.9420   41.2960 C   0  0  0  0  0  0  0  0  0  0  0  0
   48.9560   32.7330   40.7630 C   0  0  0  0  0  0  0  0  0  0  0  0
   50.1920   32.2310   41.1260 C   0  0  0  0  0  0  0  0  0  0  0  0
   50.9470   32.9480   42.0050 N   0  0  0  0  0  0  0  0  0  0  0  0
   50.4880   34.1220   42.5030 C   0  0  0  0  0  0  0  0  0  0  0  0
   49.3060   34.5840   42.1440 N   0  0  0  0  0  0  0  0  0  0  0  0
   50.5410   31.2790   40.7090 H   0  0  0  0  0  0  0  0  0  0  0  0
   51.1460   34.6380   43.1990 H   0  0  0  0  0  0  0  0  0  0  0  0
   47.9180   31.8260   39.6030 S   0  0  0  0  0  0  0  0  0  0  0  0
   46.7950   30.6910   40.4780 C   0  0  0  0  0  3  0  0  0  0  0  0
   46.9770   29.3190   39.8860 C   0  0  0  0  0  3  0  0  0  0  0  0
   47.4950   29.3840   38.9060 H   0  0  0  0  0  0  0  0  0  0  0  0
   45.6380   28.7000   39.6200 C   0  0  0  0  0  3  0  0  0  0  0  0
   45.2000   29.1900   38.7290 H   0  0  0  0  0  0  0  0  0  0  0  0
   44.8680   28.8980   40.7660 O   0  0  0  0  0  0  0  0  0  0  0  0
   44.4120   30.2010   40.8270 C   0  0  0  0  0  3  0  0  0  0  0  0
   44.2490   30.5030   41.8830 H   0  0  0  0  0  0  0  0  0  0  0  0
   45.3870   31.1770   40.2210 C   0  0  0  0  0  3  0  0  0  0  0  0
   45.3200   32.1750   40.7280 H   0  0  0  0  0  0  0  0  0  0  0  0
   46.3890   35.0200   41.9530 C   0  0  0  0  0  0  0  0  0  0  0  0
   46.5850   34.4470   42.8900 H   0  0  0  0  0  0  0  0  0  0  0  0
   46.6980   36.0600   42.1010 H   0  0  0  0  0  0  0  0  0  0  0  0
   44.9130   34.9620   41.7320 C   0  0  0  0  0  0  0  0  0  0  0  0
   44.0190   35.4600   42.7260 C   0  0  0  0  0  0  0  0  0  0  0  0
   42.3700   35.1590   41.9840 S   0  0  0  0  0  0  0  0  0  0  0  0
   43.1730   34.4020   40.4350 C   0  0  0  0  0  0  0  0  0  0  0  0
   44.2850   34.4860   40.6850 N   0  0  0  0  0  0  0  0  0  0  0  0
   44.2900   35.9000   43.6740 H   0  0  0  0  0  0  0  0  0  0  0  0
   42.4320   33.9180   39.3630 O   0  0  0  0  0  0  0  0  0  0  0  0
   40.4770   34.3240   37.6330 O   0  0  0  0  0  0  0  0  0  0  0  0
   41.5430   35.0410   38.4530 P   0  0  0  0  0  0  0  0  0  0  0  0
   40.8020   36.1140   39.5340 O   0  0  0  0  0  0  0  0  0  0  0  0
   40.1820   35.6400   40.1290 H   0  0  0  0  0  0  0  0  0  0  0  0
   42.5750   35.9270   37.4530 O   0  0  0  0  0  0  0  0  0  0  0  0
   42.2080   35.9110   36.5210 H   0  0  0  0  0  0  0  0  0  0  0  0
  1  4  1  0  0  0  0
  1 23  1  0  0  0  0
  2  1  1  0  0  0  0
  3  1  1  0  0  0  0
  4  9  1  0  0  0  0
  5  6  1  0  0  0  0
  5  4  2  0  0  0  0
  6  7  2  0  0  0  0
  7  8  1  0  0  0  0
  8 11  1  0  0  0  0
  9  8  2  0  0  0  0
 10  6  1  0  0  0  0
 12 13  1  0  0  0  0
 12  5  1  0  0  0  0
 14 13  1  0  0  0  0
 15 14  1  0  0  0  0
 16 14  1  0  0  0  0
 16 18  1  0  0  0  0
 17 16  1  0  0  0  0
 18 19  1  0  0  0  0
 19 20  1  0  0  0  0
 21 13  1  0  0  0  0
 21 22  1  0  0  0  0
 21 19  1  0  0  0  0
 23 25  1  0  0  0  0
 23 24  1  0  0  0  0
 26 23  1  0  0  0  0
 26 27  2  0  0  0  0
 27 31  1  0  0  0  0
 28 27  1  0  0  0  0
 29 30  2  0  0  0  0
 29 28  1  0  0  0  0
 30 26  1  0  0  0  0
 32 29  1  0  0  0  0
 33 34  2  0  0  0  0
 34 32  1  0  0  0  0
 34 35  1  0  0  0  0
 35 36  1  0  0  0  0
 37 34  1  0  0  0  0
 38 37  1  0  0  0  0
M  END
>  <minimizedAffinity>
-4.27638769

>  <minimizedRMSD>
0.175024718

$$$$
