
 OpenBabel03252503353D

 23 24  0  0  0  0  0  0  0  0999 V2000
   46.5830   33.2360   41.3970 C   0  0  0  0  0  0  0  0  0  0  0  0
   45.4060   32.7730   41.5960 O   0  0  0  0  0  0  0  0  0  0  0  0
   46.9980   34.1570   42.3910 N   0  0  0  0  0  0  0  0  0  0  0  0
   47.9430   34.5760   42.3170 H   0  0  0  0  0  0  0  0  0  0  0  0
   47.3910   32.8320   40.2410 C   0  0  0  0  0  3  0  0  0  0  0  0
   48.8800   32.7920   40.5370 C   0  0  0  0  0  3  0  0  0  0  0  0
   49.2580   33.8120   40.4940 H   0  0  0  0  0  0  0  0  0  0  0  0
   49.5060   31.9850   39.4050 C   0  0  0  0  0  3  0  0  0  0  0  0
   49.3670   30.8840   39.5670 H   0  0  0  0  0  0  0  0  0  0  0  0
   48.9450   32.2610   38.1740 O   0  0  0  0  0  0  0  0  0  0  0  0
   48.4270   33.5420   38.1520 C   0  0  0  0  0  3  0  0  0  0  0  0
   48.1500   33.8630   37.1300 H   0  0  0  0  0  0  0  0  0  0  0  0
   47.1940   33.6900   39.0250 C   0  0  0  0  0  3  0  0  0  0  0  0
   47.1220   34.7700   39.2670 H   0  0  0  0  0  0  0  0  0  0  0  0
   44.5480   35.9250   44.5640 C   0  0  0  0  0  0  0  0  0  0  0  0
   45.3260   35.6370   43.4290 C   0  0  0  0  0  0  0  0  0  0  0  0
   46.1780   34.5270   43.4800 C   0  0  0  0  0  0  0  0  0  0  0  0
   46.2200   33.7820   44.6080 N   0  0  0  0  0  0  0  0  0  0  0  0
   45.4540   34.0840   45.6980 C   0  0  0  0  0  0  0  0  0  0  0  0
   44.6320   35.1480   45.6620 N   0  0  0  0  0  0  0  0  0  0  0  0
   43.8880   36.7940   44.5120 H   0  0  0  0  0  0  0  0  0  0  0  0
   45.2830   36.2390   42.5350 H   0  0  0  0  0  0  0  0  0  0  0  0
   45.4700   33.5040   46.6090 H   0  0  0  0  0  0  0  0  0  0  0  0
  1  2  2  0  0  0  0
  1  3  1  0  0  0  0
  3 17  1  0  0  0  0
  4  3  1  0  0  0  0
  5  6  1  0  0  0  0
  5  1  1  0  0  0  0
  7  6  1  0  0  0  0
  8  9  1  0  0  0  0
  8  6  1  0  0  0  0
 10  8  1  0  0  0  0
 11 10  1  0  0  0  0
 11 13  1  0  0  0  0
 12 11  1  0  0  0  0
 13 14  1  0  0  0  0
 13  5  1  0  0  0  0
 15 20  1  0  0  0  0
 16 17  1  0  0  0  0
 16 15  2  0  0  0  0
 17 18  2  0  0  0  0
 18 19  1  0  0  0  0
 19 23  1  0  0  0  0
 20 19  2  0  0  0  0
 21 15  1  0  0  0  0
 22 16  1  0  0  0  0
M  END
>  <minimizedAffinity>
-3.89562654

>  <minimizedRMSD>
1.19388497

$$$$
