
 OpenBabel03252503353D

 23 24  0  0  0  0  0  0  0  0999 V2000
   46.7310   34.0960   40.7600 C   0  0  0  0  0  0  0  0  0  0  0  0
   45.5430   33.6250   40.8300 O   0  0  0  0  0  0  0  0  0  0  0  0
   47.1250   34.7960   41.9270 N   0  0  0  0  0  0  0  0  0  0  0  0
   48.0780   35.2040   41.9650 H   0  0  0  0  0  0  0  0  0  0  0  0
   47.5710   33.9120   39.5710 C   0  0  0  0  0  3  0  0  0  0  0  0
   46.7910   33.4420   38.3560 C   0  0  0  0  0  3  0  0  0  0  0  0
   46.6290   32.3690   38.4560 H   0  0  0  0  0  0  0  0  0  0  0  0
   47.7010   33.6930   37.1580 C   0  0  0  0  0  3  0  0  0  0  0  0
   47.6770   34.7710   36.8500 H   0  0  0  0  0  0  0  0  0  0  0  0
   49.0250   33.4020   37.4190 O   0  0  0  0  0  0  0  0  0  0  0  0
   49.1270   32.4410   38.4050 C   0  0  0  0  0  3  0  0  0  0  0  0
   50.1560   32.0460   38.4980 H   0  0  0  0  0  0  0  0  0  0  0  0
   48.7160   32.9610   39.7720 C   0  0  0  0  0  3  0  0  0  0  0  0
   48.4330   32.0660   40.3630 H   0  0  0  0  0  0  0  0  0  0  0  0
   44.5800   36.1160   44.3000 C   0  0  0  0  0  0  0  0  0  0  0  0
   45.3860   36.0380   43.1510 C   0  0  0  0  0  0  0  0  0  0  0  0
   46.2750   34.9620   43.0430 C   0  0  0  0  0  0  0  0  0  0  0  0
   46.3250   34.0480   44.0390 N   0  0  0  0  0  0  0  0  0  0  0  0
   45.5310   34.1470   45.1460 C   0  0  0  0  0  0  0  0  0  0  0  0
   44.6730   35.1760   45.2620 N   0  0  0  0  0  0  0  0  0  0  0  0
   43.8910   36.9600   44.3730 H   0  0  0  0  0  0  0  0  0  0  0  0
   45.3370   36.7740   42.3640 H   0  0  0  0  0  0  0  0  0  0  0  0
   45.5530   33.4300   45.9540 H   0  0  0  0  0  0  0  0  0  0  0  0
  1  2  2  0  0  0  0
  1  3  1  0  0  0  0
  3  4  1  0  0  0  0
  3 17  1  0  0  0  0
  5 13  1  0  0  0  0
  5  1  1  0  0  0  0
  6  7  1  0  0  0  0
  6  5  1  0  0  0  0
  8 10  1  0  0  0  0
  8  6  1  0  0  0  0
  9  8  1  0  0  0  0
 10 11  1  0  0  0  0
 11 12  1  0  0  0  0
 11 13  1  0  0  0  0
 13 14  1  0  0  0  0
 15 21  1  0  0  0  0
 15 20  1  0  0  0  0
 16 15  2  0  0  0  0
 17 16  1  0  0  0  0
 17 18  2  0  0  0  0
 18 19  1  0  0  0  0
 19 20  2  0  0  0  0
 19 23  1  0  0  0  0
 22 16  1  0  0  0  0
M  END
>  <minimizedAffinity>
-4.32420444

>  <minimizedRMSD>
0.541850746

$$$$
