
 OpenBabel03242520023D

 26 28  0  0  0  0  0  0  0  0999 V2000
   46.0220   33.6290   45.5470 C   0  0  0  0  0  0  0  0  0  0  0  0
   44.9950   34.5660   45.4140 C   0  0  0  0  0  0  0  0  0  0  0  0
   45.1570   35.1960   44.2210 C   0  0  0  0  0  0  0  0  0  0  0  0
   46.2580   34.6630   43.6270 N   0  0  0  0  0  0  0  0  0  0  0  0
   46.7650   33.7190   44.4460 N   0  0  0  0  0  0  0  0  0  0  0  0
   44.2260   34.7170   46.1710 H   0  0  0  0  0  0  0  0  0  0  0  0
   44.5110   35.9870   43.8200 H   0  0  0  0  0  0  0  0  0  0  0  0
   46.8140   35.0240   42.3460 C   0  0  0  0  0  0  0  0  0  0  0  0
   46.3740   34.0980   41.2240 C   0  0  0  0  0  0  0  0  0  0  0  0
   45.4740   34.4720   40.7120 H   0  0  0  0  0  0  0  0  0  0  0  0
   47.4620   33.9330   40.2010 C   0  0  0  0  0  0  0  0  0  0  0  0
   46.9860   33.7040   39.2260 H   0  0  0  0  0  0  0  0  0  0  0  0
   48.2230   35.0700   40.0080 O   0  0  0  0  0  0  0  0  0  0  0  0
   48.8920   35.5130   41.1270 C   0  0  0  0  0  0  0  0  0  0  0  0
   49.9700   35.2710   41.1180 H   0  0  0  0  0  0  0  0  0  0  0  0
   48.3200   34.9270   42.4090 C   0  0  0  0  0  0  0  0  0  0  0  0
   48.7710   35.4600   43.2460 H   0  0  0  0  0  0  0  0  0  0  0  0
   47.4050   31.0620   47.7720 C   0  0  0  0  0  0  0  0  0  0  0  0
   46.5170   31.0870   48.8740 C   0  0  0  0  0  0  0  0  0  0  0  0
   45.4510   32.0000   48.8210 C   0  0  0  0  0  0  0  0  0  0  0  0
   45.3320   32.8000   47.7270 N   0  0  0  0  0  0  0  0  0  0  0  0
   46.1990   32.7460   46.6970 C   0  0  0  0  0  0  0  0  0  0  0  0
   47.2440   31.8830   46.7010 N   0  0  0  0  0  0  0  0  0  0  0  0
   48.2410   30.3670   47.7830 H   0  0  0  0  0  0  0  0  0  0  0  0
   46.6740   30.4200   49.7130 H   0  0  0  0  0  0  0  0  0  0  0  0
   44.7520   32.0450   49.6480 H   0  0  0  0  0  0  0  0  0  0  0  0
  1 22  1  0  0  0  0
  2  1  1  0  0  0  0
  2  6  1  0  0  0  0
  3  2  2  0  0  0  0
  4  3  1  0  0  0  0
  4  5  1  0  0  0  0
  5  1  2  0  0  0  0
  7  3  1  0  0  0  0
  8 16  1  0  0  0  0
  8  4  1  0  0  0  0
  9  8  1  0  0  0  0
 10  9  1  0  0  0  0
 11  9  1  0  0  0  0
 12 11  1  0  0  0  0
 13 11  1  0  0  0  0
 13 14  1  0  0  0  0
 14 16  1  0  0  0  0
 15 14  1  0  0  0  0
 16 17  1  0  0  0  0
 18 24  1  0  0  0  0
 18 19  1  0  0  0  0
 19 25  1  0  0  0  0
 20 19  2  0  0  0  0
 20 26  1  0  0  0  0
 21 20  1  0  0  0  0
 22 23  1  0  0  0  0
 22 21  2  0  0  0  0
 23 18  2  0  0  0  0
M  END
>  <minimizedAffinity>
-5.41205406

>  <minimizedRMSD>
7.61731911

$$$$
