
 OpenBabel03242523543D

 46 49  0  0  1  0  0  0  0  0999 V2000
   42.8070   34.3470   38.9380 C   0  0  1  0  0  0  0  0  0  0  0  0
   43.0050   35.1750   40.1990 C   0  0  1  0  0  0  0  0  0  0  0  0
   41.7340   35.5660   40.6700 O   0  0  0  0  0  0  0  0  0  0  0  0
   40.8450   35.8530   39.6310 C   0  0  0  0  0  0  0  0  0  0  0  0
   40.4420   34.6080   38.8690 C   0  0  2  0  0  0  0  0  0  0  0  0
   41.5620   33.5450   39.1490 C   0  0  1  0  0  0  0  0  0  0  0  0
   43.6850   33.6780   38.7740 H   0  0  0  0  0  0  0  0  0  0  0  0
   43.6700   36.0320   40.0650 H   0  0  0  0  0  0  0  0  0  0  0  0
   41.2210   36.6590   38.9560 H   0  0  0  0  0  0  0  0  0  0  0  0
   39.9610   36.3000   40.1330 H   0  0  0  0  0  0  0  0  0  0  0  0
   39.4720   34.2010   39.1980 H   0  0  0  0  0  0  0  0  0  0  0  0
   41.3110   33.4230   40.2500 H   0  0  0  0  0  0  0  0  0  0  0  0
   42.6790   35.1760   37.8150 O   0  0  0  0  0  0  0  0  0  0  0  0
   43.0030   34.7210   37.0020 H   0  0  0  0  0  0  0  0  0  0  0  0
   40.4960   34.8590   37.5070 O   0  0  0  0  0  0  0  0  0  0  0  0
   40.5020   34.0250   36.9710 H   0  0  0  0  0  0  0  0  0  0  0  0
   43.4490   34.2510   41.1690 O   0  0  0  0  0  0  0  0  0  0  0  0
   44.5920   34.3620   41.8520 C   0  0  0  0  0  0  0  0  0  0  0  0
   45.8240   34.4870   41.1920 C   0  0  0  0  0  0  0  0  0  0  0  0
   46.9740   34.5980   41.9530 C   0  0  0  0  0  0  0  0  0  0  0  0
   46.8810   34.5840   43.3360 N   0  0  0  0  0  0  0  0  0  0  0  0
   45.6750   34.4610   43.9360 C   0  0  0  0  0  0  0  0  0  0  0  0
   44.5400   34.3500   43.2020 N   0  0  0  0  0  0  0  0  0  0  0  0
   45.8840   34.4970   40.1220 H   0  0  0  0  0  0  0  0  0  0  0  0
   45.6190   34.4510   45.0190 H   0  0  0  0  0  0  0  0  0  0  0  0
   48.3250   34.7140   41.3200 C   0  0  0  0  0  0  0  0  0  0  0  0
   49.0700   36.0340   41.5240 C   0  0  0  0  0  0  0  0  0  0  0  0
   49.5140   34.6810   42.1090 C   0  0  0  0  0  0  0  0  0  0  0  0
   48.3230   34.3160   40.2720 H   0  0  0  0  0  0  0  0  0  0  0  0
   48.5480   36.7530   42.1700 H   0  0  0  0  0  0  0  0  0  0  0  0
   49.5890   36.4090   40.6440 H   0  0  0  0  0  0  0  0  0  0  0  0
   50.4440   34.3140   41.6750 H   0  0  0  0  0  0  0  0  0  0  0  0
   49.4130   34.6730   43.2260 H   0  0  0  0  0  0  0  0  0  0  0  0
   41.3570   32.5150   38.3090 O   0  0  0  0  0  0  0  0  0  0  0  0
   40.4540   31.5180   38.3820 C   0  0  0  0  0  0  0  0  0  0  0  0
   39.8580   31.0410   37.3210 O   0  0  0  0  0  0  0  0  0  0  0  0
   39.6750   30.5360   39.1790 C   0  0  0  0  0  3  0  0  0  0  0  0
   40.2730   30.2730   40.5310 C   0  0  0  0  0  3  0  0  0  0  0  0
   40.1300   31.1260   41.2240 H   0  0  0  0  0  0  0  0  0  0  0  0
   39.4950   29.0900   41.0760 C   0  0  0  0  0  3  0  0  0  0  0  0
   39.6610   28.2670   40.3230 H   0  0  0  0  0  0  0  0  0  0  0  0
   38.1670   29.4150   41.2190 O   0  0  0  0  0  0  0  0  0  0  0  0
   37.5530   29.7670   40.0290 C   0  0  0  0  0  3  0  0  0  0  0  0
   37.7310   28.9400   39.2900 H   0  0  0  0  0  0  0  0  0  0  0  0
   38.2500   30.9770   39.4170 C   0  0  0  0  0  3  0  0  0  0  0  0
   38.1980   31.8530   40.0910 H   0  0  0  0  0  0  0  0  0  0  0  0
  1  7  1  6  0  0  0
  1  6  1  0  0  0  0
  1  2  1  0  0  0  0
  2  8  1  6  0  0  0
  2  3  1  0  0  0  0
  2 17  1  0  0  0  0
  4 10  1  0  0  0  0
  4  3  1  0  0  0  0
  5  6  1  0  0  0  0
  5 11  1  1  0  0  0
  5  4  1  0  0  0  0
  6 12  1  1  0  0  0
  9  4  1  0  0  0  0
 13  1  1  0  0  0  0
 14 13  1  0  0  0  0
 15  5  1  0  0  0  0
 16 15  1  0  0  0  0
 17 18  1  0  0  0  0
 18 23  1  0  0  0  0
 19 18  2  0  0  0  0
 19 20  1  0  0  0  0
 20 21  2  0  0  0  0
 21 22  1  0  0  0  0
 22 25  1  0  0  0  0
 23 22  2  0  0  0  0
 24 19  1  0  0  0  0
 26 27  1  0  0  0  0
 26 20  1  0  0  0  0
 26 28  1  0  0  0  0
 27 28  1  0  0  0  0
 27 30  1  0  0  0  0
 28 33  1  0  0  0  0
 29 26  1  0  0  0  0
 31 27  1  0  0  0  0
 32 28  1  0  0  0  0
 34 35  1  0  0  0  0
 34  6  1  0  0  0  0
 35 37  1  0  0  0  0
 36 35  2  0  0  0  0
 37 45  1  0  0  0  0
 37 38  1  0  0  0  0
 38 40  1  0  0  0  0
 38 39  1  0  0  0  0
 40 42  1  0  0  0  0
 41 40  1  0  0  0  0
 43 42  1  0  0  0  0
 44 43  1  0  0  0  0
 45 43  1  0  0  0  0
 45 46  1  0  0  0  0
M  END
>  <minimizedAffinity>
-6.15672255

>  <minimizedRMSD>
1.41082382

$$$$
