REMARK  Name = 
REMARK  4 active torsions:
REMARK  status: ('A' for Active; 'I' for Inactive)
REMARK    1  A    between atoms: C_1  and  C_9
REMARK    2  A    between atoms: C_6  and  C_13
REMARK    3  A    between atoms: C_17  and  C_19
REMARK    4  A    between atoms: C_19  and  C_37
REMARK                            x       y       z     vdW  Elec       q    Type
REMARK                         _______ _______ _______ _____ _____    ______ ____
ROOT
ATOM      1  C   UNL     1      47.869  32.921  41.817  0.00  0.00    +0.000 C 
ATOM      2  C   UNL     1      47.568  32.175  40.596  0.00  0.00    +0.000 C 
ATOM      3  C   UNL     1      48.590  32.630  39.560  0.00  0.00    +0.000 C 
ATOM      4  C   UNL     1      48.248  34.069  39.209  0.00  0.00    +0.000 C 
ATOM      5  C   UNL     1      48.162  34.986  40.390  0.00  0.00    +0.000 C 
ATOM      6  C   UNL     1      47.658  34.430  41.646  0.00  0.00    +0.000 C 
ATOM      7  H   UNL     1      48.984  32.860  42.008  0.00  0.00    +0.000 HD
ATOM      8  H   UNL     1      46.532  32.375  40.234  0.00  0.00    +0.000 HD
ATOM      9  H   UNL     1      47.637  31.102  40.774  0.00  0.00    +0.000 HD
ATOM     10  H   UNL     1      49.588  32.554  40.024  0.00  0.00    +0.000 HD
ATOM     11  H   UNL     1      48.458  32.039  38.643  0.00  0.00    +0.000 HD
ATOM     12  H   UNL     1      47.298  34.055  38.640  0.00  0.00    +0.000 HD
ATOM     13  H   UNL     1      49.029  34.418  38.502  0.00  0.00    +0.000 HD
ATOM     14  H   UNL     1      49.186  35.426  40.521  0.00  0.00    +0.000 HD
ATOM     15  H   UNL     1      47.532  35.856  40.086  0.00  0.00    +0.000 HD
ATOM     16  H   UNL     1      48.242  34.888  42.501  0.00  0.00    +0.000 HD
ENDROOT
BRANCH   1  19
ATOM     17  C   UNL     1      45.474  31.095  44.106  0.00  0.00    +0.000 A 
ATOM     18  C   UNL     1      46.160  31.572  42.982  0.00  0.00    +0.000 A 
ATOM     19  C   UNL     1      47.223  32.477  43.035  0.00  0.00    +0.000 A 
ATOM     20  N   UNL     1      47.567  32.881  44.259  0.00  0.00    +0.000 NA
ATOM     21  C   UNL     1      46.913  32.429  45.362  0.00  0.00    +0.000 A 
ATOM     22  N   UNL     1      45.898  31.564  45.301  0.00  0.00    +0.000 NA
ATOM     23  H   UNL     1      44.673  30.399  43.922  0.00  0.00    +0.000 HD
ATOM     24  H   UNL     1      45.867  31.232  41.997  0.00  0.00    +0.000 HD
ATOM     25  H   UNL     1      47.258  32.810  46.328  0.00  0.00    +0.000 HD
ENDBRANCH   1  19
BRANCH   6  26
ATOM     26  C   UNL     1      46.269  34.811  41.919  0.00  0.00    +0.000 A 
ATOM     27  C   UNL     1      45.805  35.497  43.050  0.00  0.00    +0.000 A 
ATOM     28  C   UNL     1      44.436  35.764  43.086  0.00  0.00    +0.000 A 
ATOM     29  C   UNL     1      43.665  35.339  42.026  0.00  0.00    +0.000 A 
ATOM     30  C   UNL     1      44.137  34.661  40.914  0.00  0.00    +0.000 A 
ATOM     31  N   UNL     1      45.477  34.407  40.893  0.00  0.00    +0.000 NA
ATOM     32  H   UNL     1      46.525  35.751  43.771  0.00  0.00    +0.000 HD
ATOM     33  H   UNL     1      44.066  36.284  43.936  0.00  0.00    +0.000 HD
ATOM     34  H   UNL     1      42.595  35.553  42.065  0.00  0.00    +0.000 HD
BRANCH  30  35
ATOM     35  C   UNL     1      43.242  34.257  39.837  0.00  0.00    +0.000 C 
ATOM     36  O   UNL     1      42.366  35.081  39.451  0.00  0.00    +0.000 OA
BRANCH  35  37
ATOM     37  C   UNL     1      43.341  32.903  39.192  0.00  0.00    +0.000 C 
ATOM     38  C   UNL     1      44.171  31.969  40.050  0.00  0.00    +0.000 C 
ATOM     39  H   UNL     1      43.617  31.041  40.302  0.00  0.00    +0.000 HD
ATOM     40  C   UNL     1      45.451  31.543  39.359  0.00  0.00    +0.000 C 
ATOM     41  H   UNL     1      45.919  30.798  40.062  0.00  0.00    +0.000 HD
ATOM     42  O   UNL     1      45.242  30.956  38.122  0.00  0.00    +0.000 OA
ATOM     43  C   UNL     1      44.234  31.568  37.393  0.00  0.00    +0.000 C 
ATOM     44  H   UNL     1      44.352  31.468  36.312  0.00  0.00    +0.000 HD
ATOM     45  C   UNL     1      44.071  32.999  37.864  0.00  0.00    +0.000 C 
ATOM     46  H   UNL     1      43.541  33.589  37.114  0.00  0.00    +0.000 HD
ENDBRANCH  35  37
ENDBRANCH  30  35
ENDBRANCH   6  26
TORSDOF 4
