
 OpenBabel03242519493D

 51 54  0  0  1  0  0  0  0  0999 V2000
   45.1510   28.0150   48.0740 C   0  0  0  0  0  0  0  0  0  0  0  0
   45.5230   27.5800   48.9570 H   0  0  0  0  0  0  0  0  0  0  0  0
   43.9540   27.9630   48.4350 H   0  0  0  0  0  0  0  0  0  0  0  0
   45.0200   27.2090   46.7750 C   0  0  0  0  0  0  0  0  0  0  0  0
   45.6280   27.6200   45.9800 H   0  0  0  0  0  0  0  0  0  0  0  0
   45.3770   26.1860   47.0120 H   0  0  0  0  0  0  0  0  0  0  0  0
   43.1280   28.1830   45.6020 C   0  0  0  0  0  0  0  0  0  0  0  0
   43.6080   27.1280   46.3920 C   0  0  0  0  0  0  0  0  0  0  0  0
   42.6570   26.1840   46.7050 C   0  0  0  0  0  0  0  0  0  0  0  0
   41.3510   26.2230   46.3110 C   0  0  0  0  0  0  0  0  0  0  0  0
   40.9000   27.2770   45.5320 C   0  0  0  0  0  0  0  0  0  0  0  0
   41.8180   28.2870   45.1680 C   0  0  0  0  0  0  0  0  0  0  0  0
   43.0630   25.3880   47.3140 H   0  0  0  0  0  0  0  0  0  0  0  0
   40.7330   25.3970   46.6460 H   0  0  0  0  0  0  0  0  0  0  0  0
   39.8640   27.2680   45.2440 H   0  0  0  0  0  0  0  0  0  0  0  0
   43.8560   29.2590   45.1370 O   0  0  0  0  0  0  0  0  0  0  0  0
   44.4700   29.7520   45.7600 H   0  0  0  0  0  0  0  0  0  0  0  0
   41.2730   29.2480   44.4190 O   0  0  0  0  0  0  0  0  0  0  0  0
   41.2120   29.6790   43.1460 C   0  0  0  0  0  3  0  0  0  0  0  0
   39.8640   30.2040   42.6950 C   0  0  0  0  0  3  0  0  0  0  0  0
   39.3990   30.8770   43.4060 H   0  0  0  0  0  0  0  0  0  0  0  0
   38.8900   29.0940   42.3890 C   0  0  0  0  0  3  0  0  0  0  0  0
   38.7680   28.3820   43.2150 H   0  0  0  0  0  0  0  0  0  0  0  0
   39.4250   28.4520   41.2500 O   0  0  0  0  0  0  0  0  0  0  0  0
   40.4980   27.7140   41.7230 C   0  0  0  0  0  3  0  0  0  0  0  0
   40.1450   26.9800   42.4530 H   0  0  0  0  0  0  0  0  0  0  0  0
   41.6420   28.5590   42.2160 C   0  0  0  0  0  3  0  0  0  0  0  0
   42.3480   27.8810   42.7400 H   0  0  0  0  0  0  0  0  0  0  0  0
   45.2020   29.3330   47.8660 O   0  0  0  0  0  0  0  0  0  0  0  0
   45.9890   31.5740   48.0200 C   0  0  2  0  0  0  0  0  0  0  0  0
   46.9390   31.8060   46.9320 C   0  0  1  0  0  0  0  0  0  0  0  0
   47.0800   30.4600   46.3220 O   0  0  0  0  0  0  0  0  0  0  0  0
   47.4450   29.7850   47.4800 C   0  0  0  0  0  0  0  0  0  0  0  0
   46.1340   30.1370   48.3880 C   0  0  2  0  0  0  0  0  0  0  0  0
   46.1180   32.2510   48.8860 H   0  0  0  0  0  0  0  0  0  0  0  0
   47.9800   32.0000   47.2900 H   0  0  0  0  0  0  0  0  0  0  0  0
   47.4710   28.7000   47.3840 H   0  0  0  0  0  0  0  0  0  0  0  0
   48.2940   30.2610   47.9660 H   0  0  0  0  0  0  0  0  0  0  0  0
   46.5680   29.8520   49.3600 H   0  0  0  0  0  0  0  0  0  0  0  0
   45.1590   34.5760   45.3670 C   0  0  0  0  0  0  0  0  0  0  0  0
   45.6920   34.6290   44.0790 C   0  0  0  0  0  0  0  0  0  0  0  0
   46.6760   33.6930   43.7250 C   0  0  0  0  0  0  0  0  0  0  0  0
   47.0720   32.7770   44.6360 N   0  0  0  0  0  0  0  0  0  0  0  0
   46.5420   32.7410   45.8810 C   0  0  0  0  0  0  0  0  0  0  0  0
   45.5850   33.6360   46.2560 N   0  0  0  0  0  0  0  0  0  0  0  0
   45.3240   35.3910   43.4070 H   0  0  0  0  0  0  0  0  0  0  0  0
   47.0820   33.7400   42.7280 H   0  0  0  0  0  0  0  0  0  0  0  0
   44.1790   35.4820   45.7750 O   0  0  0  0  0  0  0  0  0  0  0  0
   43.3690   35.6160   45.1900 H   0  0  0  0  0  0  0  0  0  0  0  0
   44.6410   31.7370   47.4880 O   0  0  0  0  0  0  0  0  0  0  0  0
   44.0900   31.8560   48.3250 H   0  0  0  0  0  0  0  0  0  0  0  0
  1  3  1  0  0  0  0
  1  2  1  0  0  0  0
  4  6  1  0  0  0  0
  4  1  1  0  0  0  0
  5  4  1  0  0  0  0
  7  8  1  0  0  0  0
  8  9  2  0  0  0  0
  8  4  1  0  0  0  0
  9 13  1  0  0  0  0
 10 14  1  0  0  0  0
 10  9  1  0  0  0  0
 11 10  2  0  0  0  0
 12 11  1  0  0  0  0
 12  7  2  0  0  0  0
 15 11  1  0  0  0  0
 16  7  1  0  0  0  0
 16 17  1  0  0  0  0
 18 12  1  0  0  0  0
 19 18  1  0  0  0  0
 20 19  1  0  0  0  0
 20 21  1  0  0  0  0
 22 20  1  0  0  0  0
 22 23  1  0  0  0  0
 24 25  1  0  0  0  0
 24 22  1  0  0  0  0
 25 27  1  0  0  0  0
 25 26  1  0  0  0  0
 27 28  1  0  0  0  0
 27 19  1  0  0  0  0
 29  1  1  0  0  0  0
 29 34  1  0  0  0  0
 30 34  1  0  0  0  0
 30 35  1  1  0  0  0
 31 36  1  1  0  0  0
 31 30  1  0  0  0  0
 32 31  1  0  0  0  0
 32 33  1  0  0  0  0
 33 38  1  0  0  0  0
 33 34  1  0  0  0  0
 34 39  1  1  0  0  0
 37 33  1  0  0  0  0
 40 48  1  0  0  0  0
 40 45  1  0  0  0  0
 41 40  2  0  0  0  0
 42 41  1  0  0  0  0
 42 43  2  0  0  0  0
 43 44  1  0  0  0  0
 44 45  2  0  0  0  0
 44 31  1  0  0  0  0
 46 41  1  0  0  0  0
 47 42  1  0  0  0  0
 49 48  1  0  0  0  0
 50 30  1  0  0  0  0
 50 51  1  0  0  0  0
M  END
>  <minimizedAffinity>
-5.97852898

>  <minimizedRMSD>
1.86836267

$$$$
