
 OpenBabel03242523543D

 46 49  0  0  1  0  0  0  0  0999 V2000
   42.8500   34.3000   39.0590 C   0  0  1  0  0  0  0  0  0  0  0  0
   43.0600   35.1850   40.2790 C   0  0  1  0  0  0  0  0  0  0  0  0
   41.7980   35.6440   40.7090 O   0  0  0  0  0  0  0  0  0  0  0  0
   40.9350   35.9100   39.6420 C   0  0  0  0  0  0  0  0  0  0  0  0
   40.4980   34.6420   38.9380 C   0  0  2  0  0  0  0  0  0  0  0  0
   41.5740   33.5560   39.2900 C   0  0  1  0  0  0  0  0  0  0  0  0
   43.7060   33.5920   38.9440 H   0  0  0  0  0  0  0  0  0  0  0  0
   43.7580   36.0090   40.1120 H   0  0  0  0  0  0  0  0  0  0  0  0
   41.3500   36.6660   38.9330 H   0  0  0  0  0  0  0  0  0  0  0  0
   40.0610   36.4130   40.1060 H   0  0  0  0  0  0  0  0  0  0  0  0
   39.5090   34.2880   39.2720 H   0  0  0  0  0  0  0  0  0  0  0  0
   41.3020   33.5000   40.3920 H   0  0  0  0  0  0  0  0  0  0  0  0
   42.7690   35.0740   37.8930 O   0  0  0  0  0  0  0  0  0  0  0  0
   43.0880   34.5660   37.1090 H   0  0  0  0  0  0  0  0  0  0  0  0
   40.5810   34.8200   37.5660 O   0  0  0  0  0  0  0  0  0  0  0  0
   40.5640   33.9600   37.0740 H   0  0  0  0  0  0  0  0  0  0  0  0
   43.4560   34.2970   41.3020 O   0  0  0  0  0  0  0  0  0  0  0  0
   44.6190   34.3670   41.9570 C   0  0  0  0  0  0  0  0  0  0  0  0
   45.8320   34.5190   41.2690 C   0  0  0  0  0  0  0  0  0  0  0  0
   47.0040   34.5860   42.0020 C   0  0  0  0  0  0  0  0  0  0  0  0
   46.9490   34.5010   43.3840 N   0  0  0  0  0  0  0  0  0  0  0  0
   45.7600   34.3540   44.0110 C   0  0  0  0  0  0  0  0  0  0  0  0
   44.6050   34.2860   43.3060 N   0  0  0  0  0  0  0  0  0  0  0  0
   45.8620   34.5830   40.2000 H   0  0  0  0  0  0  0  0  0  0  0  0
   45.7350   34.2880   45.0930 H   0  0  0  0  0  0  0  0  0  0  0  0
   48.3370   34.7280   41.3370 C   0  0  0  0  0  0  0  0  0  0  0  0
   49.0730   36.0510   41.5460 C   0  0  0  0  0  0  0  0  0  0  0  0
   49.5460   34.6930   42.0960 C   0  0  0  0  0  0  0  0  0  0  0  0
   48.3130   34.3480   40.2830 H   0  0  0  0  0  0  0  0  0  0  0  0
   48.5600   36.7530   42.2180 H   0  0  0  0  0  0  0  0  0  0  0  0
   49.5660   36.4470   40.6610 H   0  0  0  0  0  0  0  0  0  0  0  0
   50.4680   34.3440   41.6320 H   0  0  0  0  0  0  0  0  0  0  0  0
   49.4740   34.6650   43.2150 H   0  0  0  0  0  0  0  0  0  0  0  0
   41.3440   32.4910   38.5000 O   0  0  0  0  0  0  0  0  0  0  0  0
   40.3940   31.5410   38.6010 C   0  0  0  0  0  0  0  0  0  0  0  0
   39.8940   30.9440   37.5510 O   0  0  0  0  0  0  0  0  0  0  0  0
   39.4920   30.6980   39.4270 C   0  0  0  0  0  3  0  0  0  0  0  0
   39.2460   31.2690   40.7940 C   0  0  0  0  0  3  0  0  0  0  0  0
   38.5820   32.1550   40.7620 H   0  0  0  0  0  0  0  0  0  0  0  0
   38.5240   30.1680   41.5490 C   0  0  0  0  0  3  0  0  0  0  0  0
   39.2350   29.2940   41.5280 H   0  0  0  0  0  0  0  0  0  0  0  0
   37.3200   29.8840   40.9480 O   0  0  0  0  0  0  0  0  0  0  0  0
   37.4450   29.4400   39.6440 C   0  0  0  0  0  3  0  0  0  0  0  0
   38.1580   28.5740   39.6400 H   0  0  0  0  0  0  0  0  0  0  0  0
   38.1360   30.5010   38.7920 C   0  0  0  0  0  3  0  0  0  0  0  0
   37.5520   31.4390   38.7700 H   0  0  0  0  0  0  0  0  0  0  0  0
  1  7  1  6  0  0  0
  1  6  1  0  0  0  0
  1  2  1  0  0  0  0
  2  8  1  6  0  0  0
  2  3  1  0  0  0  0
  2 17  1  0  0  0  0
  4 10  1  0  0  0  0
  4  3  1  0  0  0  0
  5 11  1  1  0  0  0
  5  6  1  0  0  0  0
  5  4  1  0  0  0  0
  6 12  1  1  0  0  0
  9  4  1  0  0  0  0
 13  1  1  0  0  0  0
 14 13  1  0  0  0  0
 15  5  1  0  0  0  0
 16 15  1  0  0  0  0
 17 18  1  0  0  0  0
 18 23  1  0  0  0  0
 19 18  2  0  0  0  0
 19 20  1  0  0  0  0
 20 21  2  0  0  0  0
 21 22  1  0  0  0  0
 22 25  1  0  0  0  0
 23 22  2  0  0  0  0
 24 19  1  0  0  0  0
 26 27  1  0  0  0  0
 26 20  1  0  0  0  0
 26 28  1  0  0  0  0
 27 28  1  0  0  0  0
 27 30  1  0  0  0  0
 28 33  1  0  0  0  0
 29 26  1  0  0  0  0
 31 27  1  0  0  0  0
 32 28  1  0  0  0  0
 34 35  1  0  0  0  0
 34  6  1  0  0  0  0
 35 37  1  0  0  0  0
 36 35  2  0  0  0  0
 37 38  1  0  0  0  0
 38 40  1  0  0  0  0
 39 38  1  0  0  0  0
 41 40  1  0  0  0  0
 42 40  1  0  0  0  0
 43 42  1  0  0  0  0
 44 43  1  0  0  0  0
 45 37  1  0  0  0  0
 45 43  1  0  0  0  0
 46 45  1  0  0  0  0
M  END
>  <minimizedAffinity>
-6.273633

>  <minimizedRMSD>
1.59859955

$$$$
