
     RDKit          3D

 38 40  0  0  0  0  0  0  0  0999 V2000
   46.6888   34.7619   41.9730 C   0  0  0  0  0  0  0  0  0  0  0  0
   47.9302   35.3558   41.8882 C   0  0  0  0  0  0  0  0  0  0  0  0
   48.6648   35.2058   40.7319 C   0  0  0  0  0  0  0  0  0  0  0  0
   48.1524   34.4733   39.6919 C   0  0  0  0  0  0  0  0  0  0  0  0
   46.9209   33.8676   39.7395 C   0  0  0  0  0  0  0  0  0  0  0  0
   46.1967   34.0389   40.9312 C   0  0  0  0  0  0  0  0  0  0  0  0
   44.5087   36.1149   44.7517 C   0  0  0  0  0  0  0  0  0  0  0  0
   45.1628   36.0428   43.5064 C   0  0  0  0  0  0  0  0  0  0  0  0
   45.9593   34.9558   43.2234 C   0  0  0  0  0  0  0  0  0  0  0  0
   46.0679   33.9912   44.1928 N   0  0  0  0  0  0  0  0  0  0  0  0
   45.4326   34.0767   45.3832 C   0  0  0  0  0  0  0  0  0  0  0  0
   44.6477   35.1489   45.6607 N   0  0  0  0  0  0  0  0  0  0  0  0
   43.5972   33.8611   40.7937 C   0  0  0  0  0  0  0  0  0  0  0  0
   43.2384   34.8895   40.2178 O   0  0  0  0  0  0  0  0  0  0  0  0
   44.9187   33.4637   41.1118 N   0  0  0  0  0  0  0  0  0  0  0  0
   48.3361   35.9358   42.7110 H   0  0  0  0  0  0  0  0  0  0  0  0
   49.6296   35.6842   40.7032 H   0  0  0  0  0  0  0  0  0  0  0  0
   48.7637   34.3823   38.8043 H   0  0  0  0  0  0  0  0  0  0  0  0
   46.4970   33.2900   38.9414 H   0  0  0  0  0  0  0  0  0  0  0  0
   43.9178   37.0251   44.8333 H   0  0  0  0  0  0  0  0  0  0  0  0
   45.0874   36.7888   42.7391 H   0  0  0  0  0  0  0  0  0  0  0  0
   45.5365   33.3090   46.1192 H   0  0  0  0  0  0  0  0  0  0  0  0
   45.1746   32.5636   41.5915 H   0  0  0  0  0  0  0  0  0  0  0  0
   42.5714   32.8540   41.2464 C   0  0  1  0  0  0  0  0  0  0  0  0
   41.7876   32.3574   40.0251 C   0  0  1  0  0  0  0  0  0  0  0  0
   41.2734   33.2418   39.6111 H   0  0  0  0  0  0  0  0  0  0  0  0
   40.8200   31.3216   40.5539 C   0  0  1  0  0  0  0  0  0  0  0  0
   39.7901   31.7413   40.4053 H   0  0  0  0  0  0  0  0  0  0  0  0
   40.9361   31.0691   41.8981 O   0  0  0  0  0  0  0  0  0  0  0  0
   42.2121   30.6482   42.2657 C   0  0  1  0  0  0  0  0  0  0  0  0
   42.2396   30.6673   43.3812 H   0  0  0  0  0  0  0  0  0  0  0  0
   43.2735   31.6218   41.7866 C   0  0  1  0  0  0  0  0  0  0  0  0
   43.8398   31.0935   40.9887 H   0  0  0  0  0  0  0  0  0  0  0  0
   41.8890   33.2380   42.0020 H   0  0  0  0  0  0  0  0  0  0  0  0
   42.4976   31.9336   39.2850 H   0  0  0  0  0  0  0  0  0  0  0  0
   40.8339   30.4001   39.9371 H   0  0  0  0  0  0  0  0  0  0  0  0
   42.4289   29.6051   41.9792 H   0  0  0  0  0  0  0  0  0  0  0  0
   43.9877   31.8814   42.5927 H   0  0  0  0  0  0  0  0  0  0  0  0
  1  9  1  0
  2  1  2  0
  3  2  1  0
  4  5  1  0
  4  3  2  0
  5  6  2  0
  6 15  1  0
  6  1  1  0
  7 12  2  0
  8  7  1  0
  9  8  2  0
  9 10  1  0
 10 11  2  0
 11 12  1  0
 13 15  1  0
 14 13  2  0
  2 16  1  0
  3 17  1  0
  4 18  1  0
  5 19  1  0
  7 20  1  0
  8 21  1  0
 11 22  1  0
 15 23  1  0
 24 25  1  0
 25 26  1  6
 25 27  1  0
 27 28  1  1
 27 29  1  0
 29 30  1  0
 30 31  1  1
 30 32  1  0
 32 33  1  6
 32 24  1  0
 24 34  1  1
 25 35  1  0
 27 36  1  0
 30 37  1  0
 32 38  1  0
 13 24  1  0
M  ISO  8  16  14  17  14  18  14  19  14  20  14  21  14  22  14  26  15
M  ISO  3  28  15  31  15  33  15
M  END
>  <DihAtoms>  (1) 
14,12,23,24

>  <DihDeg>  (1) 
59.69800612487544

$$$$
