
     RDKit          3D

 47 50  0  0  0  0  0  0  0  0999 V2000
   47.0758   34.5427   42.1200 C   0  0  0  0  0  0  0  0  0  0  0  0
   48.1758   35.3035   41.7824 C   0  0  0  0  0  0  0  0  0  0  0  0
   48.6416   35.3263   40.4810 C   0  0  0  0  0  0  0  0  0  0  0  0
   48.0214   34.5863   39.4674 C   0  0  0  0  0  0  0  0  0  0  0  0
   48.5427   34.6726   38.2443 N   0  0  0  0  0  0  0  0  0  0  0  0
   47.9502   33.9553   37.2344 C   0  0  0  0  0  0  0  0  0  0  0  0
   46.8565   33.1964   37.5606 C   0  0  0  0  0  0  0  0  0  0  0  0
   46.3086   33.0987   38.8188 C   0  0  0  0  0  0  0  0  0  0  0  0
   46.9134   33.8238   39.8223 C   0  0  0  0  0  0  0  0  0  0  0  0
   46.4452   33.7989   41.1229 C   0  0  0  0  0  0  0  0  0  0  0  0
   45.3920   35.2348   43.8486 C   0  0  0  0  0  0  0  0  0  0  0  0
   46.4566   34.4014   43.4197 C   0  0  0  0  0  0  0  0  0  0  0  0
   46.9301   33.3991   44.2896 C   0  0  0  0  0  0  0  0  0  0  0  0
   46.3315   33.2882   45.5042 N   0  0  0  0  0  0  0  0  0  0  0  0
   45.3222   34.0902   45.8911 C   0  0  0  0  0  0  0  0  0  0  0  0
   44.8653   35.0482   45.0670 N   0  0  0  0  0  0  0  0  0  0  0  0
   44.9184   36.2321   42.9869 N   0  0  0  0  0  0  0  0  0  0  0  0
   44.7304   33.8861   47.2538 C   0  0  0  0  0  0  0  0  0  0  0  0
   45.3480   32.6381   47.8728 C   0  0  0  0  0  0  0  0  0  0  0  0
   48.6159   35.8531   42.5964 H   0  0  0  0  0  0  0  0  0  0  0  0
   49.5147   35.9440   40.2666 H   0  0  0  0  0  0  0  0  0  0  0  0
   48.3007   33.9654   36.2264 H   0  0  0  0  0  0  0  0  0  0  0  0
   46.3775   32.6218   36.7649 H   0  0  0  0  0  0  0  0  0  0  0  0
   45.4410   32.4828   39.0240 H   0  0  0  0  0  0  0  0  0  0  0  0
   45.5897   33.1804   41.2817 H   0  0  0  0  0  0  0  0  0  0  0  0
   47.7407   32.7455   43.9949 H   0  0  0  0  0  0  0  0  0  0  0  0
   44.6980   35.8894   42.0149 H   0  0  0  0  0  0  0  0  0  0  0  0
   44.8352   37.2026   43.3982 H   0  0  0  0  0  0  0  0  0  0  0  0
   43.6395   33.8372   47.2267 H   0  0  0  0  0  0  0  0  0  0  0  0
   45.0955   34.7803   47.8394 H   0  0  0  0  0  0  0  0  0  0  0  0
   45.1855   31.7626   47.2470 H   0  0  0  0  0  0  0  0  0  0  0  0
   46.4267   32.8582   48.0188 H   0  0  0  0  0  0  0  0  0  0  0  0
   44.7212   32.4628   49.2572 C   0  0  0  0  0  0  0  0  0  0  0  0
   45.2965   31.2278   49.9335 C   0  0  1  0  0  0  0  0  0  0  0  0
   44.5087   30.7343   50.5268 H   0  0  0  0  0  0  0  0  0  0  0  0
   46.4030   31.6261   50.9062 C   0  0  2  0  0  0  0  0  0  0  0  0
   47.0104   30.7251   51.0848 H   0  0  0  0  0  0  0  0  0  0  0  0
   47.2239   32.6090   50.3473 O   0  0  0  0  0  0  0  0  0  0  0  0
   46.5575   33.8270   50.2318 C   0  0  1  0  0  0  0  0  0  0  0  0
   46.7496   34.4189   51.1436 H   0  0  0  0  0  0  0  0  0  0  0  0
   45.0629   33.6390   50.1425 C   0  0  1  0  0  0  0  0  0  0  0  0
   44.6169   34.5751   49.8090 H   0  0  0  0  0  0  0  0  0  0  0  0
   43.6170   32.3873   49.1765 H   0  0  0  0  0  0  0  0  0  0  0  0
   45.7781   30.5354   49.2065 H   0  0  0  0  0  0  0  0  0  0  0  0
   45.9935   31.9860   51.8711 H   0  0  0  0  0  0  0  0  0  0  0  0
   46.9159   34.3353   49.3379 H   0  0  0  0  0  0  0  0  0  0  0  0
   44.6515   33.4214   51.1502 H   0  0  0  0  0  0  0  0  0  0  0  0
  1 12  1  0
  2  1  2  0
  3  2  1  0
  4  9  1  0
  4  3  2  0
  5  4  1  0
  6  7  1  0
  6  5  2  0
  7  8  2  0
  8  9  1  0
  9 10  2  0
 10  1  1  0
 11 16  2  0
 12 11  1  0
 12 13  2  0
 13 14  1  0
 14 15  2  0
 15 18  1  0
 16 15  1  0
 17 11  1  0
 18 19  1  0
  2 20  1  0
  3 21  1  0
  6 22  1  0
  7 23  1  0
  8 24  1  0
 10 25  1  0
 13 26  1  0
 17 27  1  0
 17 28  1  0
 18 29  1  0
 18 30  1  0
 19 31  1  0
 19 32  1  0
 33 34  1  0
 34 35  1  1
 34 36  1  0
 36 37  1  1
 36 38  1  0
 38 39  1  0
 39 40  1  1
 39 41  1  0
 41 42  1  6
 41 33  1  0
 33 43  1  0
 34 44  1  0
 36 45  1  0
 39 46  1  0
 41 47  1  0
 19 33  1  0
M  ISO  8  20  14  21  14  22  14  23  14  24  14  25  14  26  14  29   8
M  ISO  7  30   8  31   8  32   8  35  15  37  15  40  15  42  15
M  END
>  <DihAtoms>  (1) 
17,18,32,33

>  <DihDeg>  (1) 
179.9768602724484

$$$$
