
 OpenBabel03242519503D

 51 54  0  0  1  0  0  0  0  0999 V2000
   38.2090   33.3920   40.0590 C   0  0  0  0  0  0  0  0  0  0  0  0
   38.3310   33.5170   41.0960 H   0  0  0  0  0  0  0  0  0  0  0  0
   37.8740   34.5800   39.8550 H   0  0  0  0  0  0  0  0  0  0  0  0
   36.9640   32.7130   39.4720 C   0  0  0  0  0  0  0  0  0  0  0  0
   36.0690   32.9570   40.0290 H   0  0  0  0  0  0  0  0  0  0  0  0
   36.8630   33.1020   38.4380 H   0  0  0  0  0  0  0  0  0  0  0  0
   36.6150   30.5120   40.4390 C   0  0  0  0  0  0  0  0  0  0  0  0
   37.1850   31.2670   39.4030 C   0  0  0  0  0  0  0  0  0  0  0  0
   37.8890   30.5190   38.4870 C   0  0  0  0  0  0  0  0  0  0  0  0
   38.0520   29.1650   38.5360 C   0  0  0  0  0  0  0  0  0  0  0  0
   37.4800   28.4420   39.5710 C   0  0  0  0  0  0  0  0  0  0  0  0
   36.7400   29.1390   40.5510 C   0  0  0  0  0  0  0  0  0  0  0  0
   38.3130   31.1340   37.7040 H   0  0  0  0  0  0  0  0  0  0  0  0
   38.6380   28.7320   37.7320 H   0  0  0  0  0  0  0  0  0  0  0  0
   37.6340   27.3770   39.5700 H   0  0  0  0  0  0  0  0  0  0  0  0
   35.8560   30.9940   41.4860 O   0  0  0  0  0  0  0  0  0  0  0  0
   36.1600   31.8080   41.9890 H   0  0  0  0  0  0  0  0  0  0  0  0
   36.2380   28.3400   41.4960 O   0  0  0  0  0  0  0  0  0  0  0  0
   36.5230   27.8500   42.7150 C   0  0  0  0  0  3  0  0  0  0  0  0
   37.5500   28.6310   43.5120 C   0  0  0  0  0  3  0  0  0  0  0  0
   37.3850   29.7020   43.5000 H   0  0  0  0  0  0  0  0  0  0  0  0
   38.9600   28.3630   43.0500 C   0  0  0  0  0  3  0  0  0  0  0  0
   39.1020   28.5270   41.9740 H   0  0  0  0  0  0  0  0  0  0  0  0
   39.1960   27.0120   43.3860 O   0  0  0  0  0  0  0  0  0  0  0  0
   38.4860   26.2780   42.4500 C   0  0  0  0  0  3  0  0  0  0  0  0
   38.8630   26.5010   41.4460 H   0  0  0  0  0  0  0  0  0  0  0  0
   36.9930   26.4110   42.5810 C   0  0  0  0  0  3  0  0  0  0  0  0
   36.5420   25.9490   41.6780 H   0  0  0  0  0  0  0  0  0  0  0  0
   39.2540   33.3720   39.2270 O   0  0  0  0  0  0  0  0  0  0  0  0
   41.5380   33.2880   38.5620 C   0  0  2  0  0  0  0  0  0  0  0  0
   42.0600   31.9580   38.8730 C   0  0  1  0  0  0  0  0  0  0  0  0
   40.9390   31.3240   39.6100 O   0  0  0  0  0  0  0  0  0  0  0  0
   40.8000   32.3030   40.5860 C   0  0  0  0  0  0  0  0  0  0  0  0
   40.5180   33.5800   39.6090 C   0  0  2  0  0  0  0  0  0  0  0  0
   42.3130   34.0750   38.4910 H   0  0  0  0  0  0  0  0  0  0  0  0
   42.8610   31.9710   39.6530 H   0  0  0  0  0  0  0  0  0  0  0  0
   39.9170   32.1940   41.2160 H   0  0  0  0  0  0  0  0  0  0  0  0
   41.7460   32.5000   41.0870 H   0  0  0  0  0  0  0  0  0  0  0  0
   40.7010   34.3640   40.3630 H   0  0  0  0  0  0  0  0  0  0  0  0
   43.9550   30.7450   36.0040 C   0  0  0  0  0  0  0  0  0  0  0  0
   43.2840   29.5800   35.6310 C   0  0  0  0  0  0  0  0  0  0  0  0
   42.1510   29.1970   36.3650 C   0  0  0  0  0  0  0  0  0  0  0  0
   41.7480   29.9660   37.4020 N   0  0  0  0  0  0  0  0  0  0  0  0
   42.4110   31.0940   37.7490 C   0  0  0  0  0  0  0  0  0  0  0  0
   43.5160   31.4920   37.0550 N   0  0  0  0  0  0  0  0  0  0  0  0
   43.6670   29.0190   34.7910 H   0  0  0  0  0  0  0  0  0  0  0  0
   41.6390   28.2970   36.0710 H   0  0  0  0  0  0  0  0  0  0  0  0
   45.0870   31.1730   35.3100 O   0  0  0  0  0  0  0  0  0  0  0  0
   45.0450   31.2370   34.3050 H   0  0  0  0  0  0  0  0  0  0  0  0
   40.8240   33.2100   37.2920 O   0  0  0  0  0  0  0  0  0  0  0  0
   40.7640   34.1780   37.0170 H   0  0  0  0  0  0  0  0  0  0  0  0
  1  2  1  0  0  0  0
  3  1  1  0  0  0  0
  4  5  1  0  0  0  0
  4  1  1  0  0  0  0
  6  4  1  0  0  0  0
  7 12  1  0  0  0  0
  7 16  1  0  0  0  0
  8  4  1  0  0  0  0
  8  7  2  0  0  0  0
  9 10  2  0  0  0  0
  9  8  1  0  0  0  0
 10 11  1  0  0  0  0
 11 12  2  0  0  0  0
 12 18  1  0  0  0  0
 13  9  1  0  0  0  0
 14 10  1  0  0  0  0
 15 11  1  0  0  0  0
 16 17  1  0  0  0  0
 18 19  1  0  0  0  0
 19 20  1  0  0  0  0
 21 20  1  0  0  0  0
 22 24  1  0  0  0  0
 22 20  1  0  0  0  0
 23 22  1  0  0  0  0
 25 27  1  0  0  0  0
 25 24  1  0  0  0  0
 26 25  1  0  0  0  0
 27 19  1  0  0  0  0
 28 27  1  0  0  0  0
 29 34  1  0  0  0  0
 29  1  1  0  0  0  0
 30 35  1  6  0  0  0
 30 31  1  0  0  0  0
 30 34  1  0  0  0  0
 31 32  1  0  0  0  0
 31 36  1  1  0  0  0
 32 33  1  0  0  0  0
 33 38  1  0  0  0  0
 33 37  1  0  0  0  0
 34 39  1  1  0  0  0
 34 33  1  0  0  0  0
 40 45  1  0  0  0  0
 41 40  2  0  0  0  0
 41 42  1  0  0  0  0
 42 43  2  0  0  0  0
 43 44  1  0  0  0  0
 44 31  1  0  0  0  0
 45 44  2  0  0  0  0
 46 41  1  0  0  0  0
 47 42  1  0  0  0  0
 48 40  1  0  0  0  0
 49 48  1  0  0  0  0
 50 30  1  0  0  0  0
 51 50  1  0  0  0  0
M  END
>  <minimizedAffinity>
-6.73501492

$$$$

 OpenBabel03242519503D

 51 54  0  0  1  0  0  0  0  0999 V2000
   36.8220   31.5220   39.8290 C   0  0  0  0  0  0  0  0  0  0  0  0
   36.2360   32.1110   39.1840 H   0  0  0  0  0  0  0  0  0  0  0  0
   36.8750   30.5440   39.0490 H   0  0  0  0  0  0  0  0  0  0  0  0
   36.2090   30.8020   41.0370 C   0  0  0  0  0  0  0  0  0  0  0  0
   36.5500   31.2220   41.9750 H   0  0  0  0  0  0  0  0  0  0  0  0
   35.1120   30.9450   40.9540 H   0  0  0  0  0  0  0  0  0  0  0  0
   37.1100   28.7970   42.0720 C   0  0  0  0  0  0  0  0  0  0  0  0
   36.4950   29.3690   40.9480 C   0  0  0  0  0  0  0  0  0  0  0  0
   36.2780   28.4830   39.9170 C   0  0  0  0  0  0  0  0  0  0  0  0
   36.6120   27.1600   39.9330 C   0  0  0  0  0  0  0  0  0  0  0  0
   37.2200   26.6190   41.0560 C   0  0  0  0  0  0  0  0  0  0  0  0
   37.4770   27.4650   42.1570 C   0  0  0  0  0  0  0  0  0  0  0  0
   35.8030   28.9570   39.0700 H   0  0  0  0  0  0  0  0  0  0  0  0
   36.3700   26.6010   39.0360 H   0  0  0  0  0  0  0  0  0  0  0  0
   37.4670   25.5730   41.0260 H   0  0  0  0  0  0  0  0  0  0  0  0
   37.4410   29.4430   43.2450 O   0  0  0  0  0  0  0  0  0  0  0  0
   37.8990   30.3360   43.2110 H   0  0  0  0  0  0  0  0  0  0  0  0
   38.0630   26.8360   43.1770 O   0  0  0  0  0  0  0  0  0  0  0  0
   39.2800   26.5550   43.6760 C   0  0  0  0  0  3  0  0  0  0  0  0
   40.3820   27.5290   43.3070 C   0  0  0  0  0  3  0  0  0  0  0  0
   40.0960   28.5680   43.4160 H   0  0  0  0  0  0  0  0  0  0  0  0
   40.8840   27.3210   41.9010 C   0  0  0  0  0  3  0  0  0  0  0  0
   40.0870   27.3390   41.1480 H   0  0  0  0  0  0  0  0  0  0  0  0
   41.5170   26.0580   41.9300 O   0  0  0  0  0  0  0  0  0  0  0  0
   40.4820   25.1380   41.9610 C   0  0  0  0  0  3  0  0  0  0  0  0
   39.8690   25.2450   41.0600 H   0  0  0  0  0  0  0  0  0  0  0  0
   39.6910   25.1580   43.2410 C   0  0  0  0  0  3  0  0  0  0  0  0
   38.7890   24.5320   43.0780 H   0  0  0  0  0  0  0  0  0  0  0  0
   38.1390   31.7070   39.9460 O   0  0  0  0  0  0  0  0  0  0  0  0
   39.7070   33.4800   40.2030 C   0  0  2  0  0  0  0  0  0  0  0  0
   41.0130   32.9000   40.5110 C   0  0  1  0  0  0  0  0  0  0  0  0
   40.7080   31.4560   40.6690 O   0  0  0  0  0  0  0  0  0  0  0  0
   39.7220   31.5960   41.6390 C   0  0  0  0  0  0  0  0  0  0  0  0
   38.7010   32.5610   40.8070 C   0  0  2  0  0  0  0  0  0  0  0  0
   39.5850   34.5270   40.5400 H   0  0  0  0  0  0  0  0  0  0  0  0
   41.3830   33.1640   41.5330 H   0  0  0  0  0  0  0  0  0  0  0  0
   39.1710   30.6820   41.8610 H   0  0  0  0  0  0  0  0  0  0  0  0
   40.0780   32.1790   42.4860 H   0  0  0  0  0  0  0  0  0  0  0  0
   38.0970   32.8860   41.6710 H   0  0  0  0  0  0  0  0  0  0  0  0
   43.8540   31.9350   38.4390 C   0  0  0  0  0  0  0  0  0  0  0  0
   44.0630   33.0470   37.6230 C   0  0  0  0  0  0  0  0  0  0  0  0
   43.2260   34.1610   37.7840 C   0  0  0  0  0  0  0  0  0  0  0  0
   42.2500   34.1220   38.7190 N   0  0  0  0  0  0  0  0  0  0  0  0
   42.0630   33.0340   39.5030 C   0  0  0  0  0  0  0  0  0  0  0  0
   42.8600   31.9360   39.3710 N   0  0  0  0  0  0  0  0  0  0  0  0
   44.8630   33.0020   36.8980 H   0  0  0  0  0  0  0  0  0  0  0  0
   43.3940   35.0160   37.1500 H   0  0  0  0  0  0  0  0  0  0  0  0
   44.6560   30.7990   38.3230 O   0  0  0  0  0  0  0  0  0  0  0  0
   45.6580   30.9110   38.3280 H   0  0  0  0  0  0  0  0  0  0  0  0
   39.5130   33.4220   38.7580 O   0  0  0  0  0  0  0  0  0  0  0  0
   38.7650   34.0830   38.6130 H   0  0  0  0  0  0  0  0  0  0  0  0
  1 29  1  0  0  0  0
  1  4  1  0  0  0  0
  2  1  1  0  0  0  0
  3  1  1  0  0  0  0
  4  5  1  0  0  0  0
  6  4  1  0  0  0  0
  7 12  1  0  0  0  0
  7 16  1  0  0  0  0
  8  4  1  0  0  0  0
  8  7  2  0  0  0  0
  9 10  2  0  0  0  0
  9  8  1  0  0  0  0
 10 11  1  0  0  0  0
 11 12  2  0  0  0  0
 12 18  1  0  0  0  0
 13  9  1  0  0  0  0
 14 10  1  0  0  0  0
 15 11  1  0  0  0  0
 17 16  1  0  0  0  0
 18 19  1  0  0  0  0
 20 21  1  0  0  0  0
 20 19  1  0  0  0  0
 22 24  1  0  0  0  0
 22 20  1  0  0  0  0
 23 22  1  0  0  0  0
 24 25  1  0  0  0  0
 25 27  1  0  0  0  0
 26 25  1  0  0  0  0
 27 19  1  0  0  0  0
 28 27  1  0  0  0  0
 29 34  1  0  0  0  0
 30 31  1  0  0  0  0
 30 35  1  1  0  0  0
 30 34  1  0  0  0  0
 31 32  1  0  0  0  0
 31 36  1  1  0  0  0
 32 33  1  0  0  0  0
 33 37  1  0  0  0  0
 33 38  1  0  0  0  0
 34 33  1  0  0  0  0
 34 39  1  1  0  0  0
 40 45  1  0  0  0  0
 41 42  1  0  0  0  0
 41 40  2  0  0  0  0
 42 43  2  0  0  0  0
 43 44  1  0  0  0  0
 44 31  1  0  0  0  0
 45 44  2  0  0  0  0
 46 41  1  0  0  0  0
 47 42  1  0  0  0  0
 48 49  1  0  0  0  0
 48 40  1  0  0  0  0
 50 30  1  0  0  0  0
 51 50  1  0  0  0  0
M  END
>  <minimizedAffinity>
-6.11866808

$$$$

 OpenBabel03242519503D

 51 54  0  0  1  0  0  0  0  0999 V2000
   37.6100   31.7590   39.8280 C   0  0  0  0  0  0  0  0  0  0  0  0
   37.4880   32.3410   40.6960 H   0  0  0  0  0  0  0  0  0  0  0  0
   36.7020   32.3390   39.1920 H   0  0  0  0  0  0  0  0  0  0  0  0
   37.0590   30.3300   39.7350 C   0  0  0  0  0  0  0  0  0  0  0  0
   35.9920   30.3170   39.5530 H   0  0  0  0  0  0  0  0  0  0  0  0
   37.5780   29.8570   38.8760 H   0  0  0  0  0  0  0  0  0  0  0  0
   37.0330   28.2400   40.9750 C   0  0  0  0  0  0  0  0  0  0  0  0
   37.4100   29.5920   40.9510 C   0  0  0  0  0  0  0  0  0  0  0  0
   38.0380   30.0190   42.0980 C   0  0  0  0  0  0  0  0  0  0  0  0
   38.2940   29.2430   43.1910 C   0  0  0  0  0  0  0  0  0  0  0  0
   37.9100   27.9100   43.1920 C   0  0  0  0  0  0  0  0  0  0  0  0
   37.2590   27.3960   42.0480 C   0  0  0  0  0  0  0  0  0  0  0  0
   38.3140   31.0630   42.0430 H   0  0  0  0  0  0  0  0  0  0  0  0
   38.7990   29.7380   44.0130 H   0  0  0  0  0  0  0  0  0  0  0  0
   38.1310   27.3360   44.0730 H   0  0  0  0  0  0  0  0  0  0  0  0
   36.3950   27.5470   39.9680 O   0  0  0  0  0  0  0  0  0  0  0  0
   35.6060   27.9560   39.5020 H   0  0  0  0  0  0  0  0  0  0  0  0
   36.9380   26.1060   42.1630 O   0  0  0  0  0  0  0  0  0  0  0  0
   37.4690   24.8770   42.0340 C   0  0  0  0  0  3  0  0  0  0  0  0
   38.9010   24.8300   41.5400 C   0  0  0  0  0  3  0  0  0  0  0  0
   39.5550   25.5390   42.0350 H   0  0  0  0  0  0  0  0  0  0  0  0
   39.0020   25.0550   40.0520 C   0  0  0  0  0  3  0  0  0  0  0  0
   38.5090   25.9760   39.7180 H   0  0  0  0  0  0  0  0  0  0  0  0
   38.3860   23.9220   39.4770 O   0  0  0  0  0  0  0  0  0  0  0  0
   37.0270   24.1160   39.6640 C   0  0  0  0  0  3  0  0  0  0  0  0
   36.7130   25.0300   39.1510 H   0  0  0  0  0  0  0  0  0  0  0  0
   36.5990   24.0480   41.1050 C   0  0  0  0  0  3  0  0  0  0  0  0
   35.5490   24.4060   41.1510 H   0  0  0  0  0  0  0  0  0  0  0  0
   38.5950   31.9940   38.9580 O   0  0  0  0  0  0  0  0  0  0  0  0
   40.6550   32.8400   38.1170 C   0  0  2  0  0  0  0  0  0  0  0  0
   41.7250   31.9230   38.5090 C   0  0  1  0  0  0  0  0  0  0  0  0
   41.0270   30.9560   39.3920 O   0  0  0  0  0  0  0  0  0  0  0  0
   40.4990   31.8850   40.2800 C   0  0  0  0  0  0  0  0  0  0  0  0
   39.6460   32.7800   39.2130 C   0  0  2  0  0  0  0  0  0  0  0  0
   40.9970   33.8720   37.9080 H   0  0  0  0  0  0  0  0  0  0  0  0
   42.4610   32.3810   39.2150 H   0  0  0  0  0  0  0  0  0  0  0  0
   39.7780   31.4780   40.9880 H   0  0  0  0  0  0  0  0  0  0  0  0
   41.2740   32.5370   40.6800 H   0  0  0  0  0  0  0  0  0  0  0  0
   39.4860   33.6500   39.8710 H   0  0  0  0  0  0  0  0  0  0  0  0
   44.2730   31.0950   36.0360 C   0  0  0  0  0  0  0  0  0  0  0  0
   43.8290   29.8900   35.4920 C   0  0  0  0  0  0  0  0  0  0  0  0
   42.6270   29.3450   35.9670 C   0  0  0  0  0  0  0  0  0  0  0  0
   41.9410   30.0010   36.9300 N   0  0  0  0  0  0  0  0  0  0  0  0
   42.3880   31.1710   37.4460 C   0  0  0  0  0  0  0  0  0  0  0  0
   43.5530   31.7260   37.0050 N   0  0  0  0  0  0  0  0  0  0  0  0
   44.4320   29.4250   34.7250 H   0  0  0  0  0  0  0  0  0  0  0  0
   42.2910   28.4140   35.5410 H   0  0  0  0  0  0  0  0  0  0  0  0
   45.4620   31.6830   35.6010 O   0  0  0  0  0  0  0  0  0  0  0  0
   45.6100   31.8020   34.6120 H   0  0  0  0  0  0  0  0  0  0  0  0
   40.0110   32.3030   36.9240 O   0  0  0  0  0  0  0  0  0  0  0  0
   39.5170   33.1060   36.5640 H   0  0  0  0  0  0  0  0  0  0  0  0
  1  2  1  0  0  0  0
  3  1  1  0  0  0  0
  4  1  1  0  0  0  0
  4  8  1  0  0  0  0
  5  4  1  0  0  0  0
  6  4  1  0  0  0  0
  7 12  1  0  0  0  0
  8  7  2  0  0  0  0
  8  9  1  0  0  0  0
  9 10  2  0  0  0  0
 10 11  1  0  0  0  0
 10 14  1  0  0  0  0
 11 15  1  0  0  0  0
 12 18  1  0  0  0  0
 12 11  2  0  0  0  0
 13  9  1  0  0  0  0
 16  7  1  0  0  0  0
 17 16  1  0  0  0  0
 19 18  1  0  0  0  0
 20 19  1  0  0  0  0
 20 21  1  0  0  0  0
 22 20  1  0  0  0  0
 23 22  1  0  0  0  0
 24 25  1  0  0  0  0
 24 22  1  0  0  0  0
 25 27  1  0  0  0  0
 26 25  1  0  0  0  0
 27 28  1  0  0  0  0
 27 19  1  0  0  0  0
 29 34  1  0  0  0  0
 29  1  1  0  0  0  0
 30 35  1  6  0  0  0
 30 31  1  0  0  0  0
 30 34  1  0  0  0  0
 31 36  1  1  0  0  0
 31 32  1  0  0  0  0
 32 33  1  0  0  0  0
 33 38  1  0  0  0  0
 33 37  1  0  0  0  0
 34 39  1  1  0  0  0
 34 33  1  0  0  0  0
 40 45  1  0  0  0  0
 41 42  1  0  0  0  0
 41 40  2  0  0  0  0
 42 43  2  0  0  0  0
 43 44  1  0  0  0  0
 44 31  1  0  0  0  0
 45 44  2  0  0  0  0
 46 41  1  0  0  0  0
 47 42  1  0  0  0  0
 48 40  1  0  0  0  0
 49 48  1  0  0  0  0
 50 30  1  0  0  0  0
 51 50  1  0  0  0  0
M  END
>  <minimizedAffinity>
-6.05003786

$$$$

 OpenBabel03242519503D

 51 54  0  0  1  0  0  0  0  0999 V2000
   36.7700   24.7070   40.5460 C   0  0  0  0  0  0  0  0  0  0  0  0
   35.8610   24.4240   40.0970 H   0  0  0  0  0  0  0  0  0  0  0  0
   37.3280   23.6060   40.3420 H   0  0  0  0  0  0  0  0  0  0  0  0
   36.9320   24.7520   42.0710 C   0  0  0  0  0  0  0  0  0  0  0  0
   36.0230   24.4650   42.5840 H   0  0  0  0  0  0  0  0  0  0  0  0
   37.7310   24.0210   42.3150 H   0  0  0  0  0  0  0  0  0  0  0  0
   38.7320   26.1810   42.8590 C   0  0  0  0  0  0  0  0  0  0  0  0
   37.3860   26.0840   42.4750 C   0  0  0  0  0  0  0  0  0  0  0  0
   36.6920   27.2700   42.5630 C   0  0  0  0  0  0  0  0  0  0  0  0
   37.2160   28.4590   42.9800 C   0  0  0  0  0  0  0  0  0  0  0  0
   38.5480   28.5280   43.3560 C   0  0  0  0  0  0  0  0  0  0  0  0
   39.3280   27.3520   43.2930 C   0  0  0  0  0  0  0  0  0  0  0  0
   35.6600   27.1570   42.2590 H   0  0  0  0  0  0  0  0  0  0  0  0
   36.5290   29.2980   42.9900 H   0  0  0  0  0  0  0  0  0  0  0  0
   38.9190   29.4840   43.6780 H   0  0  0  0  0  0  0  0  0  0  0  0
   39.6590   25.1590   42.8660 O   0  0  0  0  0  0  0  0  0  0  0  0
   39.4150   24.2660   43.2540 H   0  0  0  0  0  0  0  0  0  0  0  0
   40.5920   27.5390   43.6770 O   0  0  0  0  0  0  0  0  0  0  0  0
   41.7640   28.0230   43.2280 C   0  0  0  0  0  3  0  0  0  0  0  0
   41.8610   28.2210   41.7280 C   0  0  0  0  0  3  0  0  0  0  0  0
   40.9940   28.7100   41.2990 H   0  0  0  0  0  0  0  0  0  0  0  0
   42.0870   26.9260   40.9920 C   0  0  0  0  0  3  0  0  0  0  0  0
   41.3440   26.1550   41.2310 H   0  0  0  0  0  0  0  0  0  0  0  0
   43.3800   26.5130   41.3830 O   0  0  0  0  0  0  0  0  0  0  0  0
   43.2310   26.0390   42.6750 C   0  0  0  0  0  3  0  0  0  0  0  0
   42.5360   25.1930   42.6780 H   0  0  0  0  0  0  0  0  0  0  0  0
   42.8910   27.1080   43.6780 C   0  0  0  0  0  3  0  0  0  0  0  0
   42.6080   26.5950   44.6210 H   0  0  0  0  0  0  0  0  0  0  0  0
   37.6630   25.4650   39.9050 O   0  0  0  0  0  0  0  0  0  0  0  0
   38.0710   27.1170   38.2410 C   0  0  2  0  0  0  0  0  0  0  0  0
   36.8610   27.9230   38.0830 C   0  0  1  0  0  0  0  0  0  0  0  0
   35.8790   27.2200   38.9470 O   0  0  0  0  0  0  0  0  0  0  0  0
   36.0040   25.9660   38.3620 C   0  0  0  0  0  0  0  0  0  0  0  0
   37.6040   25.7480   38.6000 C   0  0  2  0  0  0  0  0  0  0  0  0
   38.7370   27.1230   37.3570 H   0  0  0  0  0  0  0  0  0  0  0  0
   36.3890   27.8170   37.0760 H   0  0  0  0  0  0  0  0  0  0  0  0
   35.4990   25.1630   38.8990 H   0  0  0  0  0  0  0  0  0  0  0  0
   35.8550   26.0140   37.2850 H   0  0  0  0  0  0  0  0  0  0  0  0
   37.7290   24.9130   37.8910 H   0  0  0  0  0  0  0  0  0  0  0  0
   36.2940   30.8420   40.1930 C   0  0  0  0  0  0  0  0  0  0  0  0
   36.9630   31.8690   39.5270 C   0  0  0  0  0  0  0  0  0  0  0  0
   37.6180   31.5680   38.3230 C   0  0  0  0  0  0  0  0  0  0  0  0
   37.5780   30.3020   37.8490 N   0  0  0  0  0  0  0  0  0  0  0  0
   36.9230   29.3190   38.5100 C   0  0  0  0  0  0  0  0  0  0  0  0
   36.2770   29.5790   39.6830 N   0  0  0  0  0  0  0  0  0  0  0  0
   36.9500   32.8550   39.9690 H   0  0  0  0  0  0  0  0  0  0  0  0
   38.1320   32.3670   37.8140 H   0  0  0  0  0  0  0  0  0  0  0  0
   35.6270   31.0830   41.3950 O   0  0  0  0  0  0  0  0  0  0  0  0
   34.9820   31.8550   41.4450 H   0  0  0  0  0  0  0  0  0  0  0  0
   38.8080   27.6240   39.3930 O   0  0  0  0  0  0  0  0  0  0  0  0
   39.7270   27.2330   39.2520 H   0  0  0  0  0  0  0  0  0  0  0  0
  1  4  1  0  0  0  0
  2  1  1  0  0  0  0
  3  1  1  0  0  0  0
  4  6  1  0  0  0  0
  4  8  1  0  0  0  0
  4  5  1  0  0  0  0
  7 16  1  0  0  0  0
  7 12  1  0  0  0  0
  8  9  1  0  0  0  0
  8  7  2  0  0  0  0
  9 10  2  0  0  0  0
 10 14  1  0  0  0  0
 10 11  1  0  0  0  0
 11 15  1  0  0  0  0
 12 11  2  0  0  0  0
 12 18  1  0  0  0  0
 13  9  1  0  0  0  0
 16 17  1  0  0  0  0
 19 18  1  0  0  0  0
 19 27  1  0  0  0  0
 20 19  1  0  0  0  0
 21 20  1  0  0  0  0
 22 23  1  0  0  0  0
 22 24  1  0  0  0  0
 22 20  1  0  0  0  0
 24 25  1  0  0  0  0
 25 26  1  0  0  0  0
 25 27  1  0  0  0  0
 27 28  1  0  0  0  0
 29  1  1  0  0  0  0
 30 35  1  6  0  0  0
 30 34  1  0  0  0  0
 30 50  1  0  0  0  0
 31 36  1  6  0  0  0
 31 30  1  0  0  0  0
 31 44  1  0  0  0  0
 31 32  1  0  0  0  0
 33 34  1  0  0  0  0
 33 37  1  0  0  0  0
 33 32  1  0  0  0  0
 34 39  1  6  0  0  0
 34 29  1  0  0  0  0
 38 33  1  0  0  0  0
 40 48  1  0  0  0  0
 41 46  1  0  0  0  0
 41 40  2  0  0  0  0
 42 41  1  0  0  0  0
 43 42  2  0  0  0  0
 43 44  1  0  0  0  0
 44 45  2  0  0  0  0
 45 40  1  0  0  0  0
 47 42  1  0  0  0  0
 48 49  1  0  0  0  0
 51 50  1  0  0  0  0
M  END
>  <minimizedAffinity>
-5.87826061

$$$$

 OpenBabel03242519503D

 51 54  0  0  1  0  0  0  0  0999 V2000
   36.5230   31.1640   40.7820 C   0  0  0  0  0  0  0  0  0  0  0  0
   36.1670   31.6590   41.6400 H   0  0  0  0  0  0  0  0  0  0  0  0
   35.6880   31.6890   40.0120 H   0  0  0  0  0  0  0  0  0  0  0  0
   36.1790   29.6950   40.5030 C   0  0  0  0  0  0  0  0  0  0  0  0
   35.1110   29.5320   40.4460 H   0  0  0  0  0  0  0  0  0  0  0  0
   36.6350   29.4560   39.5200 H   0  0  0  0  0  0  0  0  0  0  0  0
   36.8470   27.4740   41.2290 C   0  0  0  0  0  0  0  0  0  0  0  0
   36.8050   28.8470   41.5200 C   0  0  0  0  0  0  0  0  0  0  0  0
   37.3440   29.1770   42.7430 C   0  0  0  0  0  0  0  0  0  0  0  0
   37.8820   28.2910   43.6310 C   0  0  0  0  0  0  0  0  0  0  0  0
   37.9110   26.9400   43.3200 C   0  0  0  0  0  0  0  0  0  0  0  0
   37.3760   26.5210   42.0820 C   0  0  0  0  0  0  0  0  0  0  0  0
   37.2940   30.2400   42.9320 H   0  0  0  0  0  0  0  0  0  0  0  0
   38.2650   28.7200   44.5500 H   0  0  0  0  0  0  0  0  0  0  0  0
   38.3440   26.2780   44.0490 H   0  0  0  0  0  0  0  0  0  0  0  0
   36.3860   26.8630   40.0820 O   0  0  0  0  0  0  0  0  0  0  0  0
   35.4840   27.1080   39.7140 H   0  0  0  0  0  0  0  0  0  0  0  0
   37.4580   25.2030   41.8930 O   0  0  0  0  0  0  0  0  0  0  0  0
   38.3450   24.2420   41.5770 C   0  0  0  0  0  3  0  0  0  0  0  0
   39.5950   24.7130   40.8610 C   0  0  0  0  0  3  0  0  0  0  0  0
   40.0450   25.5930   41.3060 H   0  0  0  0  0  0  0  0  0  0  0  0
   39.3470   24.9970   39.4010 C   0  0  0  0  0  3  0  0  0  0  0  0
   38.5180   25.6950   39.2290 H   0  0  0  0  0  0  0  0  0  0  0  0
   39.0620   23.7340   38.8340 O   0  0  0  0  0  0  0  0  0  0  0  0
   37.7760   23.4350   39.2500 C   0  0  0  0  0  3  0  0  0  0  0  0
   37.0820   24.1940   38.8740 H   0  0  0  0  0  0  0  0  0  0  0  0
   37.6590   23.1850   40.7290 C   0  0  0  0  0  3  0  0  0  0  0  0
   36.5760   23.1500   40.9710 H   0  0  0  0  0  0  0  0  0  0  0  0
   37.6180   31.5740   40.1390 O   0  0  0  0  0  0  0  0  0  0  0  0
   39.4170   33.0300   39.5820 C   0  0  2  0  0  0  0  0  0  0  0  0
   40.6740   32.3470   39.8860 C   0  0  1  0  0  0  0  0  0  0  0  0
   40.2230   31.0990   40.5510 O   0  0  0  0  0  0  0  0  0  0  0  0
   39.4600   31.7020   41.5440 C   0  0  0  0  0  0  0  0  0  0  0  0
   38.4330   32.5350   40.5860 C   0  0  2  0  0  0  0  0  0  0  0  0
   39.4940   34.1340   39.5680 H   0  0  0  0  0  0  0  0  0  0  0  0
   41.2570   32.8390   40.7030 H   0  0  0  0  0  0  0  0  0  0  0  0
   38.8490   31.0130   42.1270 H   0  0  0  0  0  0  0  0  0  0  0  0
   40.0380   32.4410   42.0940 H   0  0  0  0  0  0  0  0  0  0  0  0
   38.0460   33.2100   41.3670 H   0  0  0  0  0  0  0  0  0  0  0  0
   41.8650   30.3970   37.0440 C   0  0  0  0  0  0  0  0  0  0  0  0
   42.9580   31.1260   36.5750 C   0  0  0  0  0  0  0  0  0  0  0  0
   43.3100   32.3070   37.2450 C   0  0  0  0  0  0  0  0  0  0  0  0
   42.5850   32.6980   38.3170 N   0  0  0  0  0  0  0  0  0  0  0  0
   41.5270   31.9770   38.7580 C   0  0  0  0  0  0  0  0  0  0  0  0
   41.1600   30.8250   38.1280 N   0  0  0  0  0  0  0  0  0  0  0  0
   43.4880   30.7500   35.7120 H   0  0  0  0  0  0  0  0  0  0  0  0
   44.1560   32.8640   36.8770 H   0  0  0  0  0  0  0  0  0  0  0  0
   41.4690   29.2160   36.4160 O   0  0  0  0  0  0  0  0  0  0  0  0
   42.1620   28.5080   36.2330 H   0  0  0  0  0  0  0  0  0  0  0  0
   38.9540   32.5700   38.2780 O   0  0  0  0  0  0  0  0  0  0  0  0
   38.2820   33.2790   38.0250 H   0  0  0  0  0  0  0  0  0  0  0  0
  1  2  1  0  0  0  0
  3  1  1  0  0  0  0
  4  1  1  0  0  0  0
  4  8  1  0  0  0  0
  5  4  1  0  0  0  0
  6  4  1  0  0  0  0
  7  8  2  0  0  0  0
  7 12  1  0  0  0  0
  8  9  1  0  0  0  0
  9 13  1  0  0  0  0
  9 10  2  0  0  0  0
 10 14  1  0  0  0  0
 11 10  1  0  0  0  0
 11 15  1  0  0  0  0
 12 11  2  0  0  0  0
 16  7  1  0  0  0  0
 17 16  1  0  0  0  0
 18 12  1  0  0  0  0
 19 18  1  0  0  0  0
 20 21  1  0  0  0  0
 20 19  1  0  0  0  0
 22 20  1  0  0  0  0
 23 22  1  0  0  0  0
 24 25  1  0  0  0  0
 24 22  1  0  0  0  0
 25 27  1  0  0  0  0
 26 25  1  0  0  0  0
 27 28  1  0  0  0  0
 27 19  1  0  0  0  0
 29 34  1  0  0  0  0
 29  1  1  0  0  0  0
 30 35  1  1  0  0  0
 30 31  1  0  0  0  0
 30 34  1  0  0  0  0
 31 32  1  0  0  0  0
 31 36  1  1  0  0  0
 32 33  1  0  0  0  0
 33 38  1  0  0  0  0
 33 37  1  0  0  0  0
 34 39  1  1  0  0  0
 34 33  1  0  0  0  0
 40 45  1  0  0  0  0
 41 40  2  0  0  0  0
 41 42  1  0  0  0  0
 42 43  2  0  0  0  0
 43 44  1  0  0  0  0
 44 31  1  0  0  0  0
 45 44  2  0  0  0  0
 46 41  1  0  0  0  0
 47 42  1  0  0  0  0
 48 40  1  0  0  0  0
 49 48  1  0  0  0  0
 50 30  1  0  0  0  0
 51 50  1  0  0  0  0
M  END
>  <minimizedAffinity>
-5.86520052

$$$$

 OpenBabel03242519503D

 51 54  0  0  1  0  0  0  0  0999 V2000
   37.7720   25.8210   37.2940 C   0  0  0  0  0  0  0  0  0  0  0  0
   37.9670   25.2930   36.4050 H   0  0  0  0  0  0  0  0  0  0  0  0
   38.4030   25.0240   38.0230 H   0  0  0  0  0  0  0  0  0  0  0  0
   36.4120   25.7290   38.0000 C   0  0  0  0  0  0  0  0  0  0  0  0
   35.8230   26.6260   37.8620 H   0  0  0  0  0  0  0  0  0  0  0  0
   35.8830   24.8730   37.5340 H   0  0  0  0  0  0  0  0  0  0  0  0
   36.8140   26.5360   40.2570 C   0  0  0  0  0  0  0  0  0  0  0  0
   36.6190   25.4270   39.4180 C   0  0  0  0  0  0  0  0  0  0  0  0
   36.6780   24.2160   40.0690 C   0  0  0  0  0  0  0  0  0  0  0  0
   36.9050   24.0500   41.4040 C   0  0  0  0  0  0  0  0  0  0  0  0
   37.0960   25.1610   42.2110 C   0  0  0  0  0  0  0  0  0  0  0  0
   37.0490   26.4420   41.6170 C   0  0  0  0  0  0  0  0  0  0  0  0
   36.5230   23.3870   39.3930 H   0  0  0  0  0  0  0  0  0  0  0  0
   36.9190   23.0240   41.7560 H   0  0  0  0  0  0  0  0  0  0  0  0
   37.2710   24.9850   43.2570 H   0  0  0  0  0  0  0  0  0  0  0  0
   36.8040   27.8630   39.8800 O   0  0  0  0  0  0  0  0  0  0  0  0
   37.3060   28.1530   39.0600 H   0  0  0  0  0  0  0  0  0  0  0  0
   37.2460   27.4330   42.4890 O   0  0  0  0  0  0  0  0  0  0  0  0
   38.1660   27.9060   43.3480 C   0  0  0  0  0  3  0  0  0  0  0  0
   38.4830   29.3840   43.2210 C   0  0  0  0  0  3  0  0  0  0  0  0
   37.6030   30.0100   43.1350 H   0  0  0  0  0  0  0  0  0  0  0  0
   39.3900   29.6770   42.0530 C   0  0  0  0  0  3  0  0  0  0  0  0
   39.0140   29.2810   41.1010 H   0  0  0  0  0  0  0  0  0  0  0  0
   40.6200   29.0740   42.3940 O   0  0  0  0  0  0  0  0  0  0  0  0
   40.4180   27.7160   42.2140 C   0  0  0  0  0  3  0  0  0  0  0  0
   40.1660   27.5180   41.1670 H   0  0  0  0  0  0  0  0  0  0  0  0
   39.4520   27.1110   43.1970 C   0  0  0  0  0  3  0  0  0  0  0  0
   39.2230   26.0850   42.8410 H   0  0  0  0  0  0  0  0  0  0  0  0
   38.4560   26.9190   37.6220 O   0  0  0  0  0  0  0  0  0  0  0  0
   39.3170   29.1220   37.3560 C   0  0  2  0  0  0  0  0  0  0  0  0
   38.1900   30.0490   37.2600 C   0  0  1  0  0  0  0  0  0  0  0  0
   37.0150   29.1430   37.2230 O   0  0  0  0  0  0  0  0  0  0  0  0
   37.4260   28.3760   36.1390 C   0  0  0  0  0  0  0  0  0  0  0  0
   38.8480   27.8470   36.7430 C   0  0  2  0  0  0  0  0  0  0  0  0
   40.2520   29.4970   36.8980 H   0  0  0  0  0  0  0  0  0  0  0  0
   38.1160   30.5520   36.2640 H   0  0  0  0  0  0  0  0  0  0  0  0
   36.8190   27.4890   35.9550 H   0  0  0  0  0  0  0  0  0  0  0  0
   37.6670   29.0000   35.2810 H   0  0  0  0  0  0  0  0  0  0  0  0
   39.2730   27.4980   35.7880 H   0  0  0  0  0  0  0  0  0  0  0  0
   36.7510   31.4490   40.3040 C   0  0  0  0  0  0  0  0  0  0  0  0
   37.5100   32.5960   40.5340 C   0  0  0  0  0  0  0  0  0  0  0  0
   38.5330   32.9130   39.6270 C   0  0  0  0  0  0  0  0  0  0  0  0
   38.7480   32.1020   38.5670 N   0  0  0  0  0  0  0  0  0  0  0  0
   38.0000   30.9930   38.3600 C   0  0  0  0  0  0  0  0  0  0  0  0
   36.9990   30.6580   39.2230 N   0  0  0  0  0  0  0  0  0  0  0  0
   37.2780   33.1940   41.4030 H   0  0  0  0  0  0  0  0  0  0  0  0
   39.1140   33.8020   39.8110 H   0  0  0  0  0  0  0  0  0  0  0  0
   35.7210   31.0850   41.1730 O   0  0  0  0  0  0  0  0  0  0  0  0
   35.0330   31.7760   41.4250 H   0  0  0  0  0  0  0  0  0  0  0  0
   39.5580   28.8450   38.7670 O   0  0  0  0  0  0  0  0  0  0  0  0
   40.4920   28.4630   38.7570 H   0  0  0  0  0  0  0  0  0  0  0  0
  1 29  1  0  0  0  0
  1  4  1  0  0  0  0
  1  3  1  0  0  0  0
  2  1  1  0  0  0  0
  4  8  1  0  0  0  0
  5  4  1  0  0  0  0
  6  4  1  0  0  0  0
  7 12  1  0  0  0  0
  8  9  1  0  0  0  0
  8  7  2  0  0  0  0
  9 10  2  0  0  0  0
 10 14  1  0  0  0  0
 10 11  1  0  0  0  0
 11 15  1  0  0  0  0
 12 11  2  0  0  0  0
 12 18  1  0  0  0  0
 13  9  1  0  0  0  0
 16  7  1  0  0  0  0
 17 16  1  0  0  0  0
 18 19  1  0  0  0  0
 20 19  1  0  0  0  0
 21 20  1  0  0  0  0
 22 24  1  0  0  0  0
 22 20  1  0  0  0  0
 23 22  1  0  0  0  0
 25 24  1  0  0  0  0
 25 27  1  0  0  0  0
 26 25  1  0  0  0  0
 27 19  1  0  0  0  0
 28 27  1  0  0  0  0
 30 35  1  6  0  0  0
 30 50  1  0  0  0  0
 31 36  1  6  0  0  0
 31 30  1  0  0  0  0
 31 44  1  0  0  0  0
 32 31  1  0  0  0  0
 33 34  1  0  0  0  0
 33 32  1  0  0  0  0
 34 39  1  6  0  0  0
 34 30  1  0  0  0  0
 34 29  1  0  0  0  0
 37 33  1  0  0  0  0
 38 33  1  0  0  0  0
 40 41  1  0  0  0  0
 40 48  1  0  0  0  0
 41 46  1  0  0  0  0
 42 47  1  0  0  0  0
 42 41  2  0  0  0  0
 43 42  1  0  0  0  0
 44 43  2  0  0  0  0
 44 45  1  0  0  0  0
 45 40  2  0  0  0  0
 48 49  1  0  0  0  0
 51 50  1  0  0  0  0
M  END
>  <minimizedAffinity>
-5.85790253

$$$$

 OpenBabel03242519503D

 51 54  0  0  1  0  0  0  0  0999 V2000
   39.2970   27.3640   43.3290 C   0  0  0  0  0  0  0  0  0  0  0  0
   39.9460   26.5570   43.1430 H   0  0  0  0  0  0  0  0  0  0  0  0
   39.4680   27.3460   44.5680 H   0  0  0  0  0  0  0  0  0  0  0  0
   37.7730   27.1870   43.3180 C   0  0  0  0  0  0  0  0  0  0  0  0
   37.4470   26.4360   44.0260 H   0  0  0  0  0  0  0  0  0  0  0  0
   37.3480   28.1690   43.6120 H   0  0  0  0  0  0  0  0  0  0  0  0
   37.0410   27.9880   41.1440 C   0  0  0  0  0  0  0  0  0  0  0  0
   37.3270   26.8800   41.9570 C   0  0  0  0  0  0  0  0  0  0  0  0
   37.1170   25.6660   41.3440 C   0  0  0  0  0  0  0  0  0  0  0  0
   36.6700   25.4970   40.0650 C   0  0  0  0  0  0  0  0  0  0  0  0
   36.3940   26.6080   39.2830 C   0  0  0  0  0  0  0  0  0  0  0  0
   36.5850   27.8910   39.8410 C   0  0  0  0  0  0  0  0  0  0  0  0
   37.3480   24.8380   41.9990 H   0  0  0  0  0  0  0  0  0  0  0  0
   36.5600   24.4700   39.7370 H   0  0  0  0  0  0  0  0  0  0  0  0
   36.0440   26.4280   38.2820 H   0  0  0  0  0  0  0  0  0  0  0  0
   37.1640   29.3170   41.4930 O   0  0  0  0  0  0  0  0  0  0  0  0
   36.8120   29.6350   42.3780 H   0  0  0  0  0  0  0  0  0  0  0  0
   36.2870   28.8800   38.9970 O   0  0  0  0  0  0  0  0  0  0  0  0
   36.8160   29.5900   37.9850 C   0  0  0  0  0  3  0  0  0  0  0  0
   36.0990   29.4690   36.6540 C   0  0  0  0  0  3  0  0  0  0  0  0
   35.0220   29.5570   36.7320 H   0  0  0  0  0  0  0  0  0  0  0  0
   36.4180   28.1770   35.9460 C   0  0  0  0  0  3  0  0  0  0  0  0
   36.2370   27.2880   36.5630 H   0  0  0  0  0  0  0  0  0  0  0  0
   37.7850   28.2820   35.6080 O   0  0  0  0  0  0  0  0  0  0  0  0
   38.4660   28.0860   36.7980 C   0  0  0  0  0  3  0  0  0  0  0  0
   38.2390   27.0900   37.1910 H   0  0  0  0  0  0  0  0  0  0  0  0
   38.2710   29.1930   37.7990 C   0  0  0  0  0  3  0  0  0  0  0  0
   38.6930   28.8410   38.7630 H   0  0  0  0  0  0  0  0  0  0  0  0
   39.6750   28.6290   43.1310 O   0  0  0  0  0  0  0  0  0  0  0  0
   41.0490   30.4520   42.4530 C   0  0  2  0  0  0  0  0  0  0  0  0
   40.8580   30.6650   41.0190 C   0  0  1  0  0  0  0  0  0  0  0  0
   39.9930   29.5250   40.6250 O   0  0  0  0  0  0  0  0  0  0  0  0
   40.8120   28.5130   41.1120 C   0  0  0  0  0  0  0  0  0  0  0  0
   40.8790   28.9870   42.6730 C   0  0  2  0  0  0  0  0  0  0  0  0
   42.0120   30.8330   42.8440 H   0  0  0  0  0  0  0  0  0  0  0  0
   41.7790   30.4660   40.4170 H   0  0  0  0  0  0  0  0  0  0  0  0
   40.3590   27.5220   41.1080 H   0  0  0  0  0  0  0  0  0  0  0  0
   41.8230   28.5980   40.7190 H   0  0  0  0  0  0  0  0  0  0  0  0
   41.7410   28.3630   42.9610 H   0  0  0  0  0  0  0  0  0  0  0  0
   38.1100   32.9420   40.2740 C   0  0  0  0  0  0  0  0  0  0  0  0
   38.7490   34.1300   39.9190 C   0  0  0  0  0  0  0  0  0  0  0  0
   40.1520   34.1610   39.9220 C   0  0  0  0  0  0  0  0  0  0  0  0
   40.8340   33.0450   40.2650 N   0  0  0  0  0  0  0  0  0  0  0  0
   40.1960   31.9010   40.6060 C   0  0  0  0  0  0  0  0  0  0  0  0
   38.8340   31.8390   40.6130 N   0  0  0  0  0  0  0  0  0  0  0  0
   38.1350   34.9800   39.6580 H   0  0  0  0  0  0  0  0  0  0  0  0
   40.6380   35.0820   39.6470 H   0  0  0  0  0  0  0  0  0  0  0  0
   36.7170   32.8550   40.2890 O   0  0  0  0  0  0  0  0  0  0  0  0
   36.2030   33.1670   39.4810 H   0  0  0  0  0  0  0  0  0  0  0  0
   39.9560   31.1100   43.1600 O   0  0  0  0  0  0  0  0  0  0  0  0
   40.3130   31.1720   44.1010 H   0  0  0  0  0  0  0  0  0  0  0  0
  1  3  1  0  0  0  0
  2  1  1  0  0  0  0
  4  1  1  0  0  0  0
  4  6  1  0  0  0  0
  4  5  1  0  0  0  0
  7 16  1  0  0  0  0
  7  8  1  0  0  0  0
  8  4  1  0  0  0  0
  9  8  2  0  0  0  0
  9 13  1  0  0  0  0
 10  9  1  0  0  0  0
 11 12  1  0  0  0  0
 11 10  2  0  0  0  0
 12  7  2  0  0  0  0
 14 10  1  0  0  0  0
 15 11  1  0  0  0  0
 16 17  1  0  0  0  0
 18 12  1  0  0  0  0
 19 18  1  0  0  0  0
 20 21  1  0  0  0  0
 20 19  1  0  0  0  0
 22 23  1  0  0  0  0
 22 20  1  0  0  0  0
 24 22  1  0  0  0  0
 24 25  1  0  0  0  0
 25 26  1  0  0  0  0
 25 27  1  0  0  0  0
 27 19  1  0  0  0  0
 27 28  1  0  0  0  0
 29  1  1  0  0  0  0
 30 34  1  0  0  0  0
 30 35  1  1  0  0  0
 30 50  1  0  0  0  0
 31 36  1  6  0  0  0
 31 30  1  0  0  0  0
 32 31  1  0  0  0  0
 32 33  1  0  0  0  0
 33 34  1  0  0  0  0
 34 39  1  1  0  0  0
 34 29  1  0  0  0  0
 37 33  1  0  0  0  0
 38 33  1  0  0  0  0
 40 48  1  0  0  0  0
 40 45  1  0  0  0  0
 41 42  1  0  0  0  0
 41 40  2  0  0  0  0
 42 43  2  0  0  0  0
 43 44  1  0  0  0  0
 44 45  2  0  0  0  0
 44 31  1  0  0  0  0
 46 41  1  0  0  0  0
 47 42  1  0  0  0  0
 49 48  1  0  0  0  0
 50 51  1  0  0  0  0
M  END
>  <minimizedAffinity>
-5.8332963

$$$$

 OpenBabel03242519503D

 51 54  0  0  1  0  0  0  0  0999 V2000
   36.4530   30.8420   40.8780 C   0  0  0  0  0  0  0  0  0  0  0  0
   36.2120   31.5680   41.6010 H   0  0  0  0  0  0  0  0  0  0  0  0
   35.6590   31.2890   40.0210 H   0  0  0  0  0  0  0  0  0  0  0  0
   35.8990   29.4130   40.9610 C   0  0  0  0  0  0  0  0  0  0  0  0
   34.8990   29.3890   41.3740 H   0  0  0  0  0  0  0  0  0  0  0  0
   35.8680   29.0370   39.9170 H   0  0  0  0  0  0  0  0  0  0  0  0
   37.3930   27.4980   41.0280 C   0  0  0  0  0  0  0  0  0  0  0  0
   36.8240   28.5750   41.7260 C   0  0  0  0  0  0  0  0  0  0  0  0
   37.2140   28.6570   43.0430 C   0  0  0  0  0  0  0  0  0  0  0  0
   38.0710   27.7970   43.6660 C   0  0  0  0  0  0  0  0  0  0  0  0
   38.6190   26.7400   42.9550 C   0  0  0  0  0  0  0  0  0  0  0  0
   38.2680   26.5880   41.5950 C   0  0  0  0  0  0  0  0  0  0  0  0
   36.7570   29.4980   43.5480 H   0  0  0  0  0  0  0  0  0  0  0  0
   38.2730   28.0060   44.7100 H   0  0  0  0  0  0  0  0  0  0  0  0
   39.2900   26.0870   43.4840 H   0  0  0  0  0  0  0  0  0  0  0  0
   37.1860   27.1770   39.7030 O   0  0  0  0  0  0  0  0  0  0  0  0
   36.2540   27.1740   39.3300 H   0  0  0  0  0  0  0  0  0  0  0  0
   38.8550   25.5400   41.0150 O   0  0  0  0  0  0  0  0  0  0  0  0
   38.7230   24.2080   40.8750 C   0  0  0  0  0  3  0  0  0  0  0  0
   39.0140   23.6630   39.4910 C   0  0  0  0  0  3  0  0  0  0  0  0
   39.9210   24.0600   39.0500 H   0  0  0  0  0  0  0  0  0  0  0  0
   37.8770   23.9000   38.5300 C   0  0  0  0  0  3  0  0  0  0  0  0
   37.5700   24.9520   38.4720 H   0  0  0  0  0  0  0  0  0  0  0  0
   36.8230   23.0970   39.0170 O   0  0  0  0  0  0  0  0  0  0  0  0
   36.3460   23.7660   40.1330 C   0  0  0  0  0  3  0  0  0  0  0  0
   35.9780   24.7540   39.8380 H   0  0  0  0  0  0  0  0  0  0  0  0
   37.3180   23.7970   41.2820 C   0  0  0  0  0  3  0  0  0  0  0  0
   36.9160   24.5110   42.0310 H   0  0  0  0  0  0  0  0  0  0  0  0
   37.5600   30.9300   40.1370 O   0  0  0  0  0  0  0  0  0  0  0  0
   39.1340   31.9270   38.6560 C   0  0  2  0  0  0  0  0  0  0  0  0
   39.6950   33.1100   39.3070 C   0  0  1  0  0  0  0  0  0  0  0  0
   38.8930   33.2180   40.5510 O   0  0  0  0  0  0  0  0  0  0  0  0
   37.6420   33.2400   39.9460 C   0  0  0  0  0  0  0  0  0  0  0  0
   37.7320   31.8160   39.1520 C   0  0  2  0  0  0  0  0  0  0  0  0
   39.1940   31.9460   37.5510 H   0  0  0  0  0  0  0  0  0  0  0  0
   39.4340   34.0650   38.7890 H   0  0  0  0  0  0  0  0  0  0  0  0
   36.8030   33.1570   40.6360 H   0  0  0  0  0  0  0  0  0  0  0  0
   37.5840   34.0160   39.1840 H   0  0  0  0  0  0  0  0  0  0  0  0
   36.8840   31.9930   38.4700 H   0  0  0  0  0  0  0  0  0  0  0  0
   42.6110   32.8530   41.4820 C   0  0  0  0  0  0  0  0  0  0  0  0
   43.6890   32.8990   40.5990 C   0  0  0  0  0  0  0  0  0  0  0  0
   43.4250   33.0300   39.2270 C   0  0  0  0  0  0  0  0  0  0  0  0
   42.1420   33.1090   38.8090 N   0  0  0  0  0  0  0  0  0  0  0  0
   41.1080   33.0640   39.6810 C   0  0  0  0  0  0  0  0  0  0  0  0
   41.3320   32.9360   41.0200 N   0  0  0  0  0  0  0  0  0  0  0  0
   44.6860   32.8290   41.0100 H   0  0  0  0  0  0  0  0  0  0  0  0
   44.2640   33.0650   38.5520 H   0  0  0  0  0  0  0  0  0  0  0  0
   42.8140   32.7230   42.8570 O   0  0  0  0  0  0  0  0  0  0  0  0
   43.4650   33.3440   43.3110 H   0  0  0  0  0  0  0  0  0  0  0  0
   39.8470   30.7540   39.1500 O   0  0  0  0  0  0  0  0  0  0  0  0
   39.6180   30.0550   38.4600 H   0  0  0  0  0  0  0  0  0  0  0  0
  1  4  1  0  0  0  0
  1  2  1  0  0  0  0
  3  1  1  0  0  0  0
  4  5  1  0  0  0  0
  4  8  1  0  0  0  0
  6  4  1  0  0  0  0
  7 12  2  0  0  0  0
  7  8  1  0  0  0  0
  8  9  2  0  0  0  0
  9 13  1  0  0  0  0
  9 10  1  0  0  0  0
 10 14  1  0  0  0  0
 11 15  1  0  0  0  0
 11 10  2  0  0  0  0
 12 11  1  0  0  0  0
 16  7  1  0  0  0  0
 17 16  1  0  0  0  0
 18 12  1  0  0  0  0
 19 18  1  0  0  0  0
 19 27  1  0  0  0  0
 20 19  1  0  0  0  0
 21 20  1  0  0  0  0
 22 24  1  0  0  0  0
 22 20  1  0  0  0  0
 23 22  1  0  0  0  0
 24 25  1  0  0  0  0
 25 27  1  0  0  0  0
 26 25  1  0  0  0  0
 27 28  1  0  0  0  0
 29  1  1  0  0  0  0
 30 35  1  6  0  0  0
 30 50  1  0  0  0  0
 30 34  1  0  0  0  0
 30 31  1  0  0  0  0
 31 36  1  6  0  0  0
 31 44  1  0  0  0  0
 31 32  1  0  0  0  0
 33 32  1  0  0  0  0
 33 37  1  0  0  0  0
 34 39  1  6  0  0  0
 34 33  1  0  0  0  0
 34 29  1  0  0  0  0
 38 33  1  0  0  0  0
 40 48  1  0  0  0  0
 41 46  1  0  0  0  0
 41 40  2  0  0  0  0
 42 41  1  0  0  0  0
 43 42  2  0  0  0  0
 43 44  1  0  0  0  0
 44 45  2  0  0  0  0
 45 40  1  0  0  0  0
 47 42  1  0  0  0  0
 48 49  1  0  0  0  0
 51 50  1  0  0  0  0
M  END
>  <minimizedAffinity>
-5.80736065

$$$$

 OpenBabel03242519503D

 51 54  0  0  1  0  0  0  0  0999 V2000
   37.0170   25.9710   42.4280 C   0  0  0  0  0  0  0  0  0  0  0  0
   36.8850   25.0370   42.8940 H   0  0  0  0  0  0  0  0  0  0  0  0
   38.2620   25.8720   42.3610 H   0  0  0  0  0  0  0  0  0  0  0  0
   36.9460   27.2820   43.2220 C   0  0  0  0  0  0  0  0  0  0  0  0
   36.0620   27.8560   42.9790 H   0  0  0  0  0  0  0  0  0  0  0  0
   36.9040   26.9890   44.2920 H   0  0  0  0  0  0  0  0  0  0  0  0
   38.0030   29.3110   42.4060 C   0  0  0  0  0  0  0  0  0  0  0  0
   38.1720   28.0520   43.0020 C   0  0  0  0  0  0  0  0  0  0  0  0
   39.4830   27.7280   43.2660 C   0  0  0  0  0  0  0  0  0  0  0  0
   40.5600   28.5210   42.9920 C   0  0  0  0  0  0  0  0  0  0  0  0
   40.3670   29.7600   42.4020 C   0  0  0  0  0  0  0  0  0  0  0  0
   39.0480   30.1650   42.1000 C   0  0  0  0  0  0  0  0  0  0  0  0
   39.5740   26.7530   43.7240 H   0  0  0  0  0  0  0  0  0  0  0  0
   41.5270   28.1130   43.2650 H   0  0  0  0  0  0  0  0  0  0  0  0
   41.2430   30.3520   42.2040 H   0  0  0  0  0  0  0  0  0  0  0  0
   36.8080   29.8930   42.0390 O   0  0  0  0  0  0  0  0  0  0  0  0
   36.1230   29.3530   41.5400 H   0  0  0  0  0  0  0  0  0  0  0  0
   38.9860   31.3730   41.5360 O   0  0  0  0  0  0  0  0  0  0  0  0
   39.3000   32.0170   40.3970 C   0  0  0  0  0  3  0  0  0  0  0  0
   38.5980   33.3420   40.1780 C   0  0  0  0  0  3  0  0  0  0  0  0
   38.5940   33.9810   41.0530 H   0  0  0  0  0  0  0  0  0  0  0  0
   37.1740   33.1670   39.7130 C   0  0  0  0  0  3  0  0  0  0  0  0
   36.5790   32.5210   40.3710 H   0  0  0  0  0  0  0  0  0  0  0  0
   37.2850   32.6020   38.4240 O   0  0  0  0  0  0  0  0  0  0  0  0
   37.6390   31.2800   38.6390 C   0  0  0  0  0  3  0  0  0  0  0  0
   36.8550   30.7800   39.2160 H   0  0  0  0  0  0  0  0  0  0  0  0
   39.0190   31.1080   39.2130 C   0  0  0  0  0  3  0  0  0  0  0  0
   39.1160   30.0450   39.5200 H   0  0  0  0  0  0  0  0  0  0  0  0
   36.7960   26.1400   41.1220 O   0  0  0  0  0  0  0  0  0  0  0  0
   37.7780   26.7050   39.0290 C   0  0  2  0  0  0  0  0  0  0  0  0
   36.9230   26.1850   37.9620 C   0  0  1  0  0  0  0  0  0  0  0  0
   35.9030   25.4040   38.7050 O   0  0  0  0  0  0  0  0  0  0  0  0
   36.7850   24.5860   39.4000 C   0  0  0  0  0  0  0  0  0  0  0  0
   37.6410   25.7480   40.1630 C   0  0  2  0  0  0  0  0  0  0  0  0
   38.8320   26.8620   38.7280 H   0  0  0  0  0  0  0  0  0  0  0  0
   37.4150   25.3870   37.3520 H   0  0  0  0  0  0  0  0  0  0  0  0
   36.3240   23.9790   40.1780 H   0  0  0  0  0  0  0  0  0  0  0  0
   37.4770   24.0860   38.7240 H   0  0  0  0  0  0  0  0  0  0  0  0
   38.4900   25.1100   40.4610 H   0  0  0  0  0  0  0  0  0  0  0  0
   36.4260   28.5580   35.2390 C   0  0  0  0  0  0  0  0  0  0  0  0
   35.0990   28.9610   35.3870 C   0  0  0  0  0  0  0  0  0  0  0  0
   34.3520   28.4230   36.4460 C   0  0  0  0  0  0  0  0  0  0  0  0
   34.9380   27.5370   37.2830 N   0  0  0  0  0  0  0  0  0  0  0  0
   36.2280   27.1580   37.1230 C   0  0  0  0  0  0  0  0  0  0  0  0
   36.9800   27.6630   36.1040 N   0  0  0  0  0  0  0  0  0  0  0  0
   34.7010   29.6720   34.6780 H   0  0  0  0  0  0  0  0  0  0  0  0
   33.3280   28.7400   36.5540 H   0  0  0  0  0  0  0  0  0  0  0  0
   37.2160   29.0600   34.2040 O   0  0  0  0  0  0  0  0  0  0  0  0
   37.2560   30.0570   34.0650 H   0  0  0  0  0  0  0  0  0  0  0  0
   37.2200   27.9740   39.4810 O   0  0  0  0  0  0  0  0  0  0  0  0
   37.9960   28.3890   39.9740 H   0  0  0  0  0  0  0  0  0  0  0  0
  1  2  1  0  0  0  0
  1  4  1  0  0  0  0
  3  1  1  0  0  0  0
  4  6  1  0  0  0  0
  5  4  1  0  0  0  0
  7  8  1  0  0  0  0
  8  4  1  0  0  0  0
  8  9  2  0  0  0  0
  9 13  1  0  0  0  0
 10 14  1  0  0  0  0
 10  9  1  0  0  0  0
 11 10  2  0  0  0  0
 12 11  1  0  0  0  0
 12  7  2  0  0  0  0
 15 11  1  0  0  0  0
 16  7  1  0  0  0  0
 17 16  1  0  0  0  0
 18 12  1  0  0  0  0
 19 18  1  0  0  0  0
 20 19  1  0  0  0  0
 20 21  1  0  0  0  0
 22 20  1  0  0  0  0
 22 23  1  0  0  0  0
 24 25  1  0  0  0  0
 24 22  1  0  0  0  0
 25 27  1  0  0  0  0
 25 26  1  0  0  0  0
 27 28  1  0  0  0  0
 27 19  1  0  0  0  0
 29  1  1  0  0  0  0
 30 35  1  6  0  0  0
 30 50  1  0  0  0  0
 30 34  1  0  0  0  0
 31 36  1  6  0  0  0
 31 32  1  0  0  0  0
 31 30  1  0  0  0  0
 32 33  1  0  0  0  0
 33 34  1  0  0  0  0
 33 37  1  0  0  0  0
 34 39  1  1  0  0  0
 34 29  1  0  0  0  0
 38 33  1  0  0  0  0
 40 41  2  0  0  0  0
 40 45  1  0  0  0  0
 41 42  1  0  0  0  0
 42 47  1  0  0  0  0
 42 43  2  0  0  0  0
 44 43  1  0  0  0  0
 44 31  1  0  0  0  0
 45 44  2  0  0  0  0
 46 41  1  0  0  0  0
 48 40  1  0  0  0  0
 49 48  1  0  0  0  0
 50 51  1  0  0  0  0
M  END
>  <minimizedAffinity>
-5.78496122

$$$$
