
 OpenBabel03242519493D

 51 54  0  0  1  0  0  0  0  0999 V2000
   45.0230   29.2670   47.3720 C   0  0  0  0  0  0  0  0  0  0  0  0
   45.1270   29.0710   48.4010 H   0  0  0  0  0  0  0  0  0  0  0  0
   43.7890   29.4650   47.4330 H   0  0  0  0  0  0  0  0  0  0  0  0
   45.0100   28.1350   46.3360 C   0  0  0  0  0  0  0  0  0  0  0  0
   45.6750   28.3360   45.5070 H   0  0  0  0  0  0  0  0  0  0  0  0
   45.3610   27.2280   46.8700 H   0  0  0  0  0  0  0  0  0  0  0  0
   43.1370   28.8200   44.9470 C   0  0  0  0  0  0  0  0  0  0  0  0
   43.6350   27.9030   45.8850 C   0  0  0  0  0  0  0  0  0  0  0  0
   42.7320   26.9330   46.2550 C   0  0  0  0  0  0  0  0  0  0  0  0
   41.4550   26.8270   45.7850 C   0  0  0  0  0  0  0  0  0  0  0  0
   40.9860   27.7460   44.8590 C   0  0  0  0  0  0  0  0  0  0  0  0
   41.8550   28.7730   44.4290 C   0  0  0  0  0  0  0  0  0  0  0  0
   43.1500   26.2460   46.9780 H   0  0  0  0  0  0  0  0  0  0  0  0
   40.8740   26.0010   46.1810 H   0  0  0  0  0  0  0  0  0  0  0  0
   39.9740   27.6250   44.5150 H   0  0  0  0  0  0  0  0  0  0  0  0
   43.8190   29.8860   44.3980 O   0  0  0  0  0  0  0  0  0  0  0  0
   44.3560   30.4930   44.9910 H   0  0  0  0  0  0  0  0  0  0  0  0
   41.2960   29.5950   43.5390 O   0  0  0  0  0  0  0  0  0  0  0  0
   41.2490   29.8340   42.2160 C   0  0  0  0  0  3  0  0  0  0  0  0
   41.3960   31.2870   41.8070 C   0  0  0  0  0  3  0  0  0  0  0  0
   42.2030   31.8010   42.3150 H   0  0  0  0  0  0  0  0  0  0  0  0
   40.1270   32.0740   42.0180 C   0  0  0  0  0  3  0  0  0  0  0  0
   39.7360   32.0000   43.0390 H   0  0  0  0  0  0  0  0  0  0  0  0
   39.2110   31.5300   41.0890 O   0  0  0  0  0  0  0  0  0  0  0  0
   38.8360   30.3090   41.6270 C   0  0  0  0  0  3  0  0  0  0  0  0
   38.3580   30.4670   42.5990 H   0  0  0  0  0  0  0  0  0  0  0  0
   39.9460   29.2930   41.6540 C   0  0  0  0  0  3  0  0  0  0  0  0
   39.5940   28.4400   42.2700 H   0  0  0  0  0  0  0  0  0  0  0  0
   45.3520   30.4500   46.8470 O   0  0  0  0  0  0  0  0  0  0  0  0
   46.5980   32.4680   46.6400 C   0  0  2  0  0  0  0  0  0  0  0  0
   47.1210   32.5490   45.2770 C   0  0  1  0  0  0  0  0  0  0  0  0
   46.7460   31.2350   44.6970 O   0  0  0  0  0  0  0  0  0  0  0  0
   47.3490   30.4420   45.6670 C   0  0  0  0  0  0  0  0  0  0  0  0
   46.5560   31.0150   46.9740 C   0  0  2  0  0  0  0  0  0  0  0  0
   47.1690   33.0600   47.3810 H   0  0  0  0  0  0  0  0  0  0  0  0
   48.2370   32.5040   45.2300 H   0  0  0  0  0  0  0  0  0  0  0  0
   47.1090   29.3820   45.6000 H   0  0  0  0  0  0  0  0  0  0  0  0
   48.3970   30.7070   45.8000 H   0  0  0  0  0  0  0  0  0  0  0  0
   47.2390   30.5990   47.7330 H   0  0  0  0  0  0  0  0  0  0  0  0
   44.8590   35.1820   44.1610 C   0  0  0  0  0  0  0  0  0  0  0  0
   45.4320   35.6290   42.9700 C   0  0  0  0  0  0  0  0  0  0  0  0
   46.6130   35.0170   42.5250 C   0  0  0  0  0  0  0  0  0  0  0  0
   47.1540   34.0180   43.2590 N   0  0  0  0  0  0  0  0  0  0  0  0
   46.5830   33.5960   44.4120 C   0  0  0  0  0  0  0  0  0  0  0  0
   45.4350   34.1720   44.8710 N   0  0  0  0  0  0  0  0  0  0  0  0
   44.9410   36.4330   42.4400 H   0  0  0  0  0  0  0  0  0  0  0  0
   47.0490   35.3680   41.6040 H   0  0  0  0  0  0  0  0  0  0  0  0
   43.6850   35.7550   44.6520 O   0  0  0  0  0  0  0  0  0  0  0  0
   42.8960   35.8500   44.0320 H   0  0  0  0  0  0  0  0  0  0  0  0
   45.2160   32.9330   46.6240 O   0  0  0  0  0  0  0  0  0  0  0  0
   45.0400   33.1240   47.5990 H   0  0  0  0  0  0  0  0  0  0  0  0
  1  3  1  0  0  0  0
  1  2  1  0  0  0  0
  4  6  1  0  0  0  0
  4  1  1  0  0  0  0
  5  4  1  0  0  0  0
  7  8  1  0  0  0  0
  8  9  2  0  0  0  0
  8  4  1  0  0  0  0
  9 13  1  0  0  0  0
 10 14  1  0  0  0  0
 10  9  1  0  0  0  0
 11 10  2  0  0  0  0
 12 11  1  0  0  0  0
 12  7  2  0  0  0  0
 15 11  1  0  0  0  0
 16  7  1  0  0  0  0
 16 17  1  0  0  0  0
 18 12  1  0  0  0  0
 19 18  1  0  0  0  0
 20 22  1  0  0  0  0
 20 19  1  0  0  0  0
 20 21  1  0  0  0  0
 22 23  1  0  0  0  0
 24 25  1  0  0  0  0
 24 22  1  0  0  0  0
 25 27  1  0  0  0  0
 25 26  1  0  0  0  0
 27 19  1  0  0  0  0
 27 28  1  0  0  0  0
 29 34  1  0  0  0  0
 29  1  1  0  0  0  0
 30 34  1  0  0  0  0
 30 35  1  1  0  0  0
 31 36  1  1  0  0  0
 31 30  1  0  0  0  0
 32 31  1  0  0  0  0
 32 33  1  0  0  0  0
 33 38  1  0  0  0  0
 33 34  1  0  0  0  0
 34 39  1  1  0  0  0
 37 33  1  0  0  0  0
 40 48  1  0  0  0  0
 40 45  1  0  0  0  0
 41 40  2  0  0  0  0
 42 41  1  0  0  0  0
 42 43  2  0  0  0  0
 43 44  1  0  0  0  0
 44 45  2  0  0  0  0
 44 31  1  0  0  0  0
 46 41  1  0  0  0  0
 47 42  1  0  0  0  0
 49 48  1  0  0  0  0
 50 30  1  0  0  0  0
 50 51  1  0  0  0  0
M  END
>  <minimizedAffinity>
-6.0741477

>  <minimizedRMSD>
1.61637914

$$$$
