
 OpenBabel03242523543D

 46 49  0  0  1  0  0  0  0  0999 V2000
   42.8160   34.5240   38.7480 C   0  0  1  0  0  0  0  0  0  0  0  0
   42.9560   35.1890   40.1090 C   0  0  1  0  0  0  0  0  0  0  0  0
   41.6610   35.3970   40.6290 O   0  0  0  0  0  0  0  0  0  0  0  0
   40.7370   35.7410   39.6380 C   0  0  0  0  0  0  0  0  0  0  0  0
   40.4370   34.5780   38.7150 C   0  0  2  0  0  0  0  0  0  0  0  0
   41.6500   33.5920   38.8490 C   0  0  1  0  0  0  0  0  0  0  0  0
   43.7480   33.9640   38.4950 H   0  0  0  0  0  0  0  0  0  0  0  0
   43.5400   36.1120   40.0920 H   0  0  0  0  0  0  0  0  0  0  0  0
   41.0320   36.6610   39.0780 H   0  0  0  0  0  0  0  0  0  0  0  0
   39.8230   36.0350   40.1950 H   0  0  0  0  0  0  0  0  0  0  0  0
   39.5110   34.0460   38.9870 H   0  0  0  0  0  0  0  0  0  0  0  0
   41.4240   33.3020   39.9240 H   0  0  0  0  0  0  0  0  0  0  0  0
   42.6010   35.4810   37.7470 O   0  0  0  0  0  0  0  0  0  0  0  0
   42.9540   35.1700   36.8790 H   0  0  0  0  0  0  0  0  0  0  0  0
   40.4520   35.0140   37.3990 O   0  0  0  0  0  0  0  0  0  0  0  0
   40.5250   34.2630   36.7560 H   0  0  0  0  0  0  0  0  0  0  0  0
   43.4910   34.1870   40.9450 O   0  0  0  0  0  0  0  0  0  0  0  0
   44.5960   34.3290   41.6840 C   0  0  0  0  0  0  0  0  0  0  0  0
   45.8610   34.4350   41.0860 C   0  0  0  0  0  0  0  0  0  0  0  0
   46.9690   34.5800   41.9030 C   0  0  0  0  0  0  0  0  0  0  0  0
   46.8020   34.6170   43.2780 N   0  0  0  0  0  0  0  0  0  0  0  0
   45.5660   34.5110   43.8170 C   0  0  0  0  0  0  0  0  0  0  0  0
   44.4730   34.3670   43.0290 N   0  0  0  0  0  0  0  0  0  0  0  0
   45.9790   34.4050   40.0210 H   0  0  0  0  0  0  0  0  0  0  0  0
   45.4530   34.5400   44.8950 H   0  0  0  0  0  0  0  0  0  0  0  0
   48.3510   34.6790   41.3380 C   0  0  0  0  0  0  0  0  0  0  0  0
   49.0700   36.0170   41.5090 C   0  0  0  0  0  0  0  0  0  0  0  0
   49.4960   34.7040   42.1910 C   0  0  0  0  0  0  0  0  0  0  0  0
   48.4110   34.2250   40.3150 H   0  0  0  0  0  0  0  0  0  0  0  0
   48.5060   36.7640   42.0860 H   0  0  0  0  0  0  0  0  0  0  0  0
   49.6330   36.3510   40.6400 H   0  0  0  0  0  0  0  0  0  0  0  0
   50.4510   34.3270   41.8300 H   0  0  0  0  0  0  0  0  0  0  0  0
   49.3340   34.7560   43.3000 H   0  0  0  0  0  0  0  0  0  0  0  0
   41.5270   32.6700   37.8770 O   0  0  0  0  0  0  0  0  0  0  0  0
   40.8590   31.5010   37.8880 C   0  0  0  0  0  0  0  0  0  0  0  0
   39.6180   31.4060   37.4870 O   0  0  0  0  0  0  0  0  0  0  0  0
   40.8100   30.0420   38.1660 C   0  0  0  0  0  3  0  0  0  0  0  0
   41.2070   29.2080   36.9830 C   0  0  0  0  0  3  0  0  0  0  0  0
   42.2970   29.2540   36.7870 H   0  0  0  0  0  0  0  0  0  0  0  0
   40.8610   27.7850   37.3770 C   0  0  0  0  0  3  0  0  0  0  0  0
   39.7530   27.8070   37.5840 H   0  0  0  0  0  0  0  0  0  0  0  0
   41.5940   27.4000   38.4760 O   0  0  0  0  0  0  0  0  0  0  0  0
   41.3620   28.1790   39.5950 C   0  0  0  0  0  3  0  0  0  0  0  0
   40.2570   28.1940   39.7840 H   0  0  0  0  0  0  0  0  0  0  0  0
   41.7160   29.6350   39.3040 C   0  0  0  0  0  3  0  0  0  0  0  0
   42.7840   29.7420   39.0380 H   0  0  0  0  0  0  0  0  0  0  0  0
  1  7  1  6  0  0  0
  1  6  1  0  0  0  0
  1  2  1  0  0  0  0
  2  8  1  6  0  0  0
  2  3  1  0  0  0  0
  2 17  1  0  0  0  0
  4 10  1  0  0  0  0
  4  3  1  0  0  0  0
  5  6  1  0  0  0  0
  5 11  1  1  0  0  0
  5  4  1  0  0  0  0
  6 12  1  1  0  0  0
  9  4  1  0  0  0  0
 13  1  1  0  0  0  0
 14 13  1  0  0  0  0
 15  5  1  0  0  0  0
 16 15  1  0  0  0  0
 17 18  1  0  0  0  0
 18 23  1  0  0  0  0
 19 18  2  0  0  0  0
 19 20  1  0  0  0  0
 20 21  2  0  0  0  0
 21 22  1  0  0  0  0
 22 25  1  0  0  0  0
 23 22  2  0  0  0  0
 24 19  1  0  0  0  0
 26 27  1  0  0  0  0
 26 20  1  0  0  0  0
 26 28  1  0  0  0  0
 27 30  1  0  0  0  0
 27 28  1  0  0  0  0
 28 33  1  0  0  0  0
 29 26  1  0  0  0  0
 31 27  1  0  0  0  0
 32 28  1  0  0  0  0
 34 35  1  0  0  0  0
 34  6  1  0  0  0  0
 35 37  1  0  0  0  0
 36 35  2  0  0  0  0
 37 45  1  0  0  0  0
 38 40  1  0  0  0  0
 38 37  1  0  0  0  0
 39 38  1  0  0  0  0
 40 41  1  0  0  0  0
 40 42  1  0  0  0  0
 42 43  1  0  0  0  0
 43 44  1  0  0  0  0
 45 43  1  0  0  0  0
 46 45  1  0  0  0  0
M  END
>  <minimizedAffinity>
-5.67679691

>  <minimizedRMSD>
0.101966612

$$$$
