
 OpenBabel03252507463D

 38 40  0  0  0  0  0  0  0  0999 V2000
   46.9830   34.3780   41.0290 C   0  0  0  0  0  0  0  0  0  0  0  0
   46.4580   33.4670   40.6940 H   0  0  0  0  0  0  0  0  0  0  0  0
   47.1050   35.0280   40.1260 H   0  0  0  0  0  0  0  0  0  0  0  0
   48.3430   34.0820   41.5210 C   0  0  0  0  0  0  0  0  0  0  0  0
   48.8030   32.7820   41.3340 C   0  0  0  0  0  0  0  0  0  0  0  0
   50.0690   32.4330   41.7640 C   0  0  0  0  0  0  0  0  0  0  0  0
   50.8320   33.3880   42.3660 N   0  0  0  0  0  0  0  0  0  0  0  0
   50.3520   34.6450   42.5310 C   0  0  0  0  0  0  0  0  0  0  0  0
   49.1410   34.9580   42.1130 N   0  0  0  0  0  0  0  0  0  0  0  0
   50.4340   31.4100   41.6190 H   0  0  0  0  0  0  0  0  0  0  0  0
   51.0180   35.3520   43.0190 H   0  0  0  0  0  0  0  0  0  0  0  0
   47.7520   31.5580   40.5300 S   0  0  0  0  0  0  0  0  0  0  0  0
   46.6780   30.7220   41.7390 C   0  0  0  0  0  3  0  0  0  0  0  0
   45.2630   31.1670   41.4820 C   0  0  0  0  0  3  0  0  0  0  0  0
   45.2520   32.0820   40.8530 H   0  0  0  0  0  0  0  0  0  0  0  0
   44.6020   31.5310   42.7780 C   0  0  0  0  0  3  0  0  0  0  0  0
   45.0060   32.5050   43.1110 H   0  0  0  0  0  0  0  0  0  0  0  0
   44.8860   30.5030   43.6760 O   0  0  0  0  0  0  0  0  0  0  0  0
   46.1820   30.6090   44.1440 C   0  0  0  0  0  3  0  0  0  0  0  0
   46.5710   29.6090   44.4300 H   0  0  0  0  0  0  0  0  0  0  0  0
   47.1170   31.1820   43.1100 C   0  0  0  0  0  3  0  0  0  0  0  0
   48.1540   30.7750   43.2420 H   0  0  0  0  0  0  0  0  0  0  0  0
   46.1460   35.1050   42.0220 C   0  0  0  0  0  0  0  0  0  0  0  0
   46.3130   34.6480   43.0250 H   0  0  0  0  0  0  0  0  0  0  0  0
   46.4460   36.1580   42.0550 H   0  0  0  0  0  0  0  0  0  0  0  0
   44.6780   35.0120   41.7620 C   0  0  0  0  0  0  0  0  0  0  0  0
   43.7450   35.4190   42.7620 C   0  0  0  0  0  0  0  0  0  0  0  0
   42.1240   35.1080   41.9640 S   0  0  0  0  0  0  0  0  0  0  0  0
   42.9870   34.4730   40.3930 C   0  0  0  0  0  0  0  0  0  0  0  0
   44.0890   34.5790   40.6730 N   0  0  0  0  0  0  0  0  0  0  0  0
   43.9800   35.8090   43.7410 H   0  0  0  0  0  0  0  0  0  0  0  0
   42.2870   34.0300   39.2760 O   0  0  0  0  0  0  0  0  0  0  0  0
   40.3490   34.5240   37.5500 O   0  0  0  0  0  0  0  0  0  0  0  0
   41.4530   35.1910   38.3610 P   0  0  0  0  0  0  0  0  0  0  0  0
   40.7710   36.3070   39.4380 O   0  0  0  0  0  0  0  0  0  0  0  0
   40.1300   35.8690   40.0380 H   0  0  0  0  0  0  0  0  0  0  0  0
   42.5250   36.0170   37.3530 O   0  0  0  0  0  0  0  0  0  0  0  0
   42.1540   36.0140   36.4220 H   0  0  0  0  0  0  0  0  0  0  0  0
  1  4  1  0  0  0  0
  1 23  1  0  0  0  0
  2  1  1  0  0  0  0
  3  1  1  0  0  0  0
  4  9  1  0  0  0  0
  5  4  2  0  0  0  0
  5  6  1  0  0  0  0
  6  7  2  0  0  0  0
  7  8  1  0  0  0  0
  8 11  1  0  0  0  0
  9  8  2  0  0  0  0
 10  6  1  0  0  0  0
 12  5  1  0  0  0  0
 12 13  1  0  0  0  0
 13 21  1  0  0  0  0
 14 13  1  0  0  0  0
 14 16  1  0  0  0  0
 15 14  1  0  0  0  0
 16 17  1  0  0  0  0
 16 18  1  0  0  0  0
 18 19  1  0  0  0  0
 19 20  1  0  0  0  0
 21 22  1  0  0  0  0
 21 19  1  0  0  0  0
 23 25  1  0  0  0  0
 23 24  1  0  0  0  0
 26 23  1  0  0  0  0
 26 27  2  0  0  0  0
 27 31  1  0  0  0  0
 28 27  1  0  0  0  0
 29 30  2  0  0  0  0
 29 28  1  0  0  0  0
 30 26  1  0  0  0  0
 32 29  1  0  0  0  0
 33 34  2  0  0  0  0
 34 32  1  0  0  0  0
 34 35  1  0  0  0  0
 35 36  1  0  0  0  0
 37 34  1  0  0  0  0
 38 37  1  0  0  0  0
M  END
>  <minimizedAffinity>
-4.44692326

>  <minimizedRMSD>
0.733161688

$$$$
