REMARK  Name = 
REMARK  4 active torsions:
REMARK  status: ('A' for Active; 'I' for Inactive)
REMARK    1  A    between atoms: C_1  and  C_9
REMARK    2  A    between atoms: C_6  and  N_19
REMARK    3  A    between atoms: C_7  and  C_13
REMARK    4  A    between atoms: C_17  and  C_27
REMARK                            x       y       z     vdW  Elec       q    Type
REMARK                         _______ _______ _______ _____ _____    ______ ____
ROOT
ATOM      1  C   UNL     1      45.130  34.413  41.187  0.00  0.00    +0.000 A 
ATOM      2  C   UNL     1      45.549  35.018  42.369  0.00  0.00    +0.000 A 
ATOM      3  C   UNL     1      46.910  35.244  42.551  0.00  0.00    +0.000 A 
ATOM      4  C   UNL     1      47.804  34.871  41.577  0.00  0.00    +0.000 A 
ATOM      5  C   UNL     1      47.405  34.274  40.409  0.00  0.00    +0.000 A 
ATOM      6  C   UNL     1      46.035  34.054  40.238  0.00  0.00    +0.000 A 
ATOM      7  H   UNL     1      44.854  35.315  43.141  0.00  0.00    +0.000 HD
ATOM      8  H   UNL     1      47.324  35.707  43.437  0.00  0.00    +0.000 HD
ATOM      9  H   UNL     1      48.865  35.044  41.712  0.00  0.00    +0.000 HD
ATOM     10  H   UNL     1      48.078  33.966  39.616  0.00  0.00    +0.000 HD
ENDROOT
BRANCH   1  13
ATOM     11  C   UNL     1      41.431  34.843  40.583  0.00  0.00    +0.000 A 
ATOM     12  C   UNL     1      42.793  35.160  40.669  0.00  0.00    +0.000 A 
ATOM     13  C   UNL     1      43.705  34.210  41.060  0.00  0.00    +0.000 A 
ATOM     14  N   UNL     1      43.197  32.984  41.345  0.00  0.00    +0.000 NA
ATOM     15  C   UNL     1      41.887  32.675  41.264  0.00  0.00    +0.000 A 
ATOM     16  N   UNL     1      40.991  33.615  40.878  0.00  0.00    +0.000 NA
ATOM     17  H   UNL     1      43.169  36.147  40.435  0.00  0.00    +0.000 HD
ATOM     18  H   UNL     1      41.642  31.664  41.521  0.00  0.00    +0.000 HD
BRANCH  11  19
ATOM     19  C   UNL     1      40.453  35.871  40.162  0.00  0.00    +0.000 C 
ATOM     20  F   UNL     1      39.230  35.224  39.953  0.00  0.00    +0.000 F 
ATOM     21  F   UNL     1      40.843  36.294  38.887  0.00  0.00    +0.000 F 
ATOM     22  F   UNL     1      40.322  36.903  41.037  0.00  0.00    +0.000 F 
ENDBRANCH  11  19
ENDBRANCH   1  13
BRANCH   6  25
ATOM     23  C   UNL     1      45.460  32.144  38.568  0.00  0.00    +0.000 C 
ATOM     24  O   UNL     1      45.938  31.148  39.092  0.00  0.00    +0.000 OA
ATOM     25  N   UNL     1      45.493  33.457  39.082  0.00  0.00    +0.000 N 
ATOM     26  H   UNL     1      45.029  34.252  38.541  0.00  0.00    +0.000 HD
BRANCH  23  27
ATOM     27  C   UNL     1      44.764  31.956  37.244  0.00  0.00    +0.000 C 
ATOM     28  C   UNL     1      44.579  33.282  36.604  0.00  0.00    +0.000 C 
ATOM     29  H   UNL     1      45.492  33.895  36.571  0.00  0.00    +0.000 HD
ATOM     30  C   UNL     1      44.044  33.012  35.191  0.00  0.00    +0.000 C 
ATOM     31  H   UNL     1      43.571  33.893  34.743  0.00  0.00    +0.000 HD
ATOM     32  O   UNL     1      43.239  31.886  35.188  0.00  0.00    +0.000 OA
ATOM     33  C   UNL     1      42.515  31.718  36.366  0.00  0.00    +0.000 C 
ATOM     34  H   UNL     1      41.979  32.635  36.678  0.00  0.00    +0.000 HD
ATOM     35  C   UNL     1      43.412  31.334  37.522  0.00  0.00    +0.000 C 
ATOM     36  H   UNL     1      43.068  31.731  38.500  0.00  0.00    +0.000 HD
ENDBRANCH  23  27
ENDBRANCH   6  25
TORSDOF 4
