
 OpenBabel03242516533D

 46 49  0  0  1  0  0  0  0  0999 V2000
   47.8600   32.8700   41.8500 C   0  0  1  0  0  0  0  0  0  0  0  0
   47.5730   32.1510   40.6100 C   0  0  0  0  0  0  0  0  0  0  0  0
   48.5790   32.6590   39.5830 C   0  0  0  0  0  0  0  0  0  0  0  0
   48.2000   34.0980   39.2730 C   0  0  0  0  0  0  0  0  0  0  0  0
   48.0970   34.9800   40.4790 C   0  0  0  0  0  0  0  0  0  0  0  0
   47.6110   34.3780   41.7210 C   0  0  1  0  0  0  0  0  0  0  0  0
   48.9770   32.8320   42.0350 H   0  0  0  0  0  0  0  0  0  0  0  0
   46.5310   32.3350   40.2570 H   0  0  0  0  0  0  0  0  0  0  0  0
   47.6690   31.0750   40.7580 H   0  0  0  0  0  0  0  0  0  0  0  0
   49.5810   32.5950   40.0420 H   0  0  0  0  0  0  0  0  0  0  0  0
   48.4580   32.0900   38.6510 H   0  0  0  0  0  0  0  0  0  0  0  0
   47.2490   34.0760   38.7070 H   0  0  0  0  0  0  0  0  0  0  0  0
   48.9700   34.4860   38.5730 H   0  0  0  0  0  0  0  0  0  0  0  0
   49.1100   35.4420   40.6190 H   0  0  0  0  0  0  0  0  0  0  0  0
   47.4440   35.8420   40.2010 H   0  0  0  0  0  0  0  0  0  0  0  0
   48.1870   34.8260   42.5860 H   0  0  0  0  0  0  0  0  0  0  0  0
   45.4740   30.9770   44.0940 C   0  0  0  0  0  0  0  0  0  0  0  0
   46.1470   31.4980   42.9810 C   0  0  0  0  0  0  0  0  0  0  0  0
   47.2300   32.3770   43.0570 C   0  0  0  0  0  0  0  0  0  0  0  0
   47.6080   32.7100   44.2920 N   0  0  0  0  0  0  0  0  0  0  0  0
   46.9670   32.2150   45.3850 C   0  0  0  0  0  0  0  0  0  0  0  0
   45.9330   31.3750   45.3020 N   0  0  0  0  0  0  0  0  0  0  0  0
   44.6550   30.3080   43.8920 H   0  0  0  0  0  0  0  0  0  0  0  0
   45.8270   31.2150   41.9860 H   0  0  0  0  0  0  0  0  0  0  0  0
   47.3400   32.5390   46.3610 H   0  0  0  0  0  0  0  0  0  0  0  0
   46.2140   34.7170   42.0090 C   0  0  0  0  0  0  0  0  0  0  0  0
   45.7180   35.2300   43.2150 C   0  0  0  0  0  0  0  0  0  0  0  0
   44.3480   35.4910   43.2530 C   0  0  0  0  0  0  0  0  0  0  0  0
   43.6070   35.2270   42.1210 C   0  0  0  0  0  0  0  0  0  0  0  0
   44.1110   34.7190   40.9350 C   0  0  0  0  0  0  0  0  0  0  0  0
   45.4520   34.4690   40.9130 N   0  0  0  0  0  0  0  0  0  0  0  0
   46.4170   35.3740   43.9850 H   0  0  0  0  0  0  0  0  0  0  0  0
   43.9540   35.8810   44.1590 H   0  0  0  0  0  0  0  0  0  0  0  0
   42.5360   35.4350   42.1620 H   0  0  0  0  0  0  0  0  0  0  0  0
   43.2470   34.4790   39.7860 C   0  0  0  0  0  0  0  0  0  0  0  0
   42.4870   35.4150   39.4070 O   0  0  0  0  0  0  0  0  0  0  0  0
   43.2430   33.1630   39.0600 C   0  0  0  0  0  3  0  0  0  0  0  0
   42.9600   32.0290   40.0230 C   0  0  0  0  0  3  0  0  0  0  0  0
   42.0900   31.4220   39.6990 H   0  0  0  0  0  0  0  0  0  0  0  0
   44.1350   31.0810   40.1530 C   0  0  0  0  0  3  0  0  0  0  0  0
   43.7620   30.2550   40.8220 H   0  0  0  0  0  0  0  0  0  0  0  0
   44.5550   30.5540   38.9430 O   0  0  0  0  0  0  0  0  0  0  0  0
   44.5210   31.4740   37.9080 C   0  0  0  0  0  3  0  0  0  0  0  0
   45.2430   31.2670   37.1140 H   0  0  0  0  0  0  0  0  0  0  0  0
   44.6150   32.8740   38.4770 C   0  0  0  0  0  3  0  0  0  0  0  0
   44.9200   33.5810   37.7020 H   0  0  0  0  0  0  0  0  0  0  0  0
  1  7  1  1  0  0  0
  1 19  1  0  0  0  0
  2  9  1  0  0  0  0
  2  1  1  0  0  0  0
  3 10  1  0  0  0  0
  3  2  1  0  0  0  0
  4  3  1  0  0  0  0
  4  5  1  0  0  0  0
  5 14  1  0  0  0  0
  5  6  1  0  0  0  0
  6  1  1  0  0  0  0
  6 26  1  0  0  0  0
  6 16  1  1  0  0  0
  8  2  1  0  0  0  0
 11  3  1  0  0  0  0
 12  4  1  0  0  0  0
 13  4  1  0  0  0  0
 15  5  1  0  0  0  0
 17 22  1  0  0  0  0
 18 19  1  0  0  0  0
 18 17  2  0  0  0  0
 19 20  2  0  0  0  0
 20 21  1  0  0  0  0
 21 25  1  0  0  0  0
 22 21  2  0  0  0  0
 23 17  1  0  0  0  0
 24 18  1  0  0  0  0
 26 27  1  0  0  0  0
 27 28  2  0  0  0  0
 27 32  1  0  0  0  0
 28 33  1  0  0  0  0
 29 34  1  0  0  0  0
 29 28  1  0  0  0  0
 30 29  2  0  0  0  0
 31 30  1  0  0  0  0
 31 26  2  0  0  0  0
 35 30  1  0  0  0  0
 36 35  2  0  0  0  0
 37 35  1  0  0  0  0
 37 38  1  0  0  0  0
 38 40  1  0  0  0  0
 39 38  1  0  0  0  0
 40 41  1  0  0  0  0
 42 40  1  0  0  0  0
 43 45  1  0  0  0  0
 43 42  1  0  0  0  0
 44 43  1  0  0  0  0
 45 37  1  0  0  0  0
 46 45  1  0  0  0  0
M  END
>  <minimizedAffinity>
-5.01328754

>  <minimizedRMSD>
0.235336259

$$$$
