
 OpenBabel03252503353D

 23 24  0  0  0  0  0  0  0  0999 V2000
   46.7290   34.0960   40.7590 C   0  0  0  0  0  0  0  0  0  0  0  0
   45.5390   33.6280   40.8280 O   0  0  0  0  0  0  0  0  0  0  0  0
   47.1240   34.7940   41.9270 N   0  0  0  0  0  0  0  0  0  0  0  0
   48.0780   35.2000   41.9650 H   0  0  0  0  0  0  0  0  0  0  0  0
   47.5680   33.9100   39.5700 C   0  0  0  0  0  3  0  0  0  0  0  0
   46.7880   33.4360   38.3560 C   0  0  0  0  0  3  0  0  0  0  0  0
   46.6300   32.3630   38.4600 H   0  0  0  0  0  0  0  0  0  0  0  0
   47.6970   33.6870   37.1580 C   0  0  0  0  0  3  0  0  0  0  0  0
   47.6710   34.7640   36.8470 H   0  0  0  0  0  0  0  0  0  0  0  0
   49.0220   33.3990   37.4170 O   0  0  0  0  0  0  0  0  0  0  0  0
   49.1260   32.4410   38.4080 C   0  0  0  0  0  3  0  0  0  0  0  0
   50.1570   32.0480   38.5000 H   0  0  0  0  0  0  0  0  0  0  0  0
   48.7160   32.9630   39.7730 C   0  0  0  0  0  3  0  0  0  0  0  0
   48.4340   32.0690   40.3670 H   0  0  0  0  0  0  0  0  0  0  0  0
   44.5810   36.1160   44.3000 C   0  0  0  0  0  0  0  0  0  0  0  0
   45.3870   36.0380   43.1500 C   0  0  0  0  0  0  0  0  0  0  0  0
   46.2740   34.9610   43.0430 C   0  0  0  0  0  0  0  0  0  0  0  0
   46.3240   34.0470   44.0390 N   0  0  0  0  0  0  0  0  0  0  0  0
   45.5300   34.1480   45.1460 C   0  0  0  0  0  0  0  0  0  0  0  0
   44.6730   35.1770   45.2620 N   0  0  0  0  0  0  0  0  0  0  0  0
   43.8920   36.9620   44.3720 H   0  0  0  0  0  0  0  0  0  0  0  0
   45.3380   36.7730   42.3630 H   0  0  0  0  0  0  0  0  0  0  0  0
   45.5510   33.4310   45.9540 H   0  0  0  0  0  0  0  0  0  0  0  0
  1  2  2  0  0  0  0
  1  3  1  0  0  0  0
  3  4  1  0  0  0  0
  3 17  1  0  0  0  0
  5 13  1  0  0  0  0
  5  1  1  0  0  0  0
  6  7  1  0  0  0  0
  6  5  1  0  0  0  0
  8 10  1  0  0  0  0
  8  6  1  0  0  0  0
  9  8  1  0  0  0  0
 10 11  1  0  0  0  0
 11 12  1  0  0  0  0
 11 13  1  0  0  0  0
 13 14  1  0  0  0  0
 15 21  1  0  0  0  0
 15 20  1  0  0  0  0
 16 15  2  0  0  0  0
 17 16  1  0  0  0  0
 17 18  2  0  0  0  0
 18 19  1  0  0  0  0
 19 20  2  0  0  0  0
 19 23  1  0  0  0  0
 22 16  1  0  0  0  0
M  END
>  <minimizedAffinity>
-4.32455063

>  <minimizedRMSD>
0.433329821

$$$$
