
 OpenBabel03242510513D

 23 24  0  0  0  0  0  0  0  0999 V2000
   44.5460   36.2660   44.4940 C   0  0  0  0  0  0  0  0  0  0  0  0
   45.1580   36.3100   43.2190 C   0  0  0  0  0  0  0  0  0  0  0  0
   45.9360   35.1990   42.8400 C   0  0  0  0  0  0  0  0  0  0  0  0
   46.0560   34.1580   43.7090 N   0  0  0  0  0  0  0  0  0  0  0  0
   45.4620   34.1540   44.9070 C   0  0  0  0  0  0  0  0  0  0  0  0
   44.7010   35.2120   45.3080 N   0  0  0  0  0  0  0  0  0  0  0  0
   46.7030   32.1450   45.4280 C   0  0  0  0  0  0  0  0  0  0  0  0
   47.4920   32.2770   44.4680 O   0  0  0  0  0  0  0  0  0  0  0  0
   45.6430   33.0260   45.7490 N   0  0  0  0  0  0  0  0  0  0  0  0
   43.9610   37.1410   44.7380 H   0  0  0  0  0  0  0  0  0  0  0  0
   45.0620   37.1310   42.5310 H   0  0  0  0  0  0  0  0  0  0  0  0
   46.4470   35.1270   41.8860 H   0  0  0  0  0  0  0  0  0  0  0  0
   45.0320   32.8390   46.5700 H   0  0  0  0  0  0  0  0  0  0  0  0
   46.8990   30.9480   46.3170 C   0  0  0  0  0  3  0  0  0  0  0  0
   47.5930   29.8150   45.6250 C   0  0  0  0  0  3  0  0  0  0  0  0
   48.5490   30.2040   45.2390 H   0  0  0  0  0  0  0  0  0  0  0  0
   47.8900   28.7800   46.6890 C   0  0  0  0  0  3  0  0  0  0  0  0
   47.5180   27.7890   46.3310 H   0  0  0  0  0  0  0  0  0  0  0  0
   47.2250   29.0080   47.8860 O   0  0  0  0  0  0  0  0  0  0  0  0
   45.8620   29.1950   47.6430 C   0  0  0  0  0  3  0  0  0  0  0  0
   45.3460   29.1870   48.6050 H   0  0  0  0  0  0  0  0  0  0  0  0
   45.6010   30.5190   46.9540 C   0  0  0  0  0  3  0  0  0  0  0  0
   44.8620   30.4010   46.1250 H   0  0  0  0  0  0  0  0  0  0  0  0
  1 10  1  0  0  0  0
  1  6  1  0  0  0  0
  2  1  2  0  0  0  0
  3  2  1  0  0  0  0
  3  4  2  0  0  0  0
  4  5  1  0  0  0  0
  5  6  2  0  0  0  0
  5  9  1  0  0  0  0
  7  9  1  0  0  0  0
  7 14  1  0  0  0  0
  8  7  2  0  0  0  0
  9 13  1  0  0  0  0
 11  2  1  0  0  0  0
 12  3  1  0  0  0  0
 14 22  1  0  0  0  0
 15 14  1  0  0  0  0
 15 17  1  0  0  0  0
 16 15  1  0  0  0  0
 17 19  1  0  0  0  0
 18 17  1  0  0  0  0
 20 19  1  0  0  0  0
 20 21  1  0  0  0  0
 22 20  1  0  0  0  0
 23 22  1  0  0  0  0
M  END
>  <minimizedAffinity>
-4.42665958

>  <minimizedRMSD>
2.19588709

$$$$
