
 OpenBabel03242523543D

 46 49  0  0  1  0  0  0  0  0999 V2000
   42.7320   34.3160   39.0730 C   0  0  1  0  0  0  0  0  0  0  0  0
   43.1550   35.1150   40.2970 C   0  0  1  0  0  0  0  0  0  0  0  0
   41.9920   35.6270   40.9090 O   0  0  0  0  0  0  0  0  0  0  0  0
   41.0220   36.0070   39.9760 C   0  0  0  0  0  0  0  0  0  0  0  0
   40.4130   34.8110   39.2740 C   0  0  2  0  0  0  0  0  0  0  0  0
   41.4470   33.6410   39.4310 C   0  0  1  0  0  0  0  0  0  0  0  0
   43.5150   33.5640   38.8140 H   0  0  0  0  0  0  0  0  0  0  0  0
   43.8820   35.9020   40.0820 H   0  0  0  0  0  0  0  0  0  0  0  0
   41.3960   36.7740   39.2580 H   0  0  0  0  0  0  0  0  0  0  0  0
   40.2500   36.5360   40.5730 H   0  0  0  0  0  0  0  0  0  0  0  0
   39.4510   34.5010   39.7150 H   0  0  0  0  0  0  0  0  0  0  0  0
   41.3130   33.5400   40.5550 H   0  0  0  0  0  0  0  0  0  0  0  0
   42.5590   35.1590   37.9660 O   0  0  0  0  0  0  0  0  0  0  0  0
   42.7400   34.6780   37.1240 H   0  0  0  0  0  0  0  0  0  0  0  0
   40.3350   35.0610   37.9130 O   0  0  0  0  0  0  0  0  0  0  0  0
   40.1960   34.2340   37.3860 H   0  0  0  0  0  0  0  0  0  0  0  0
   43.6130   34.1470   41.2160 O   0  0  0  0  0  0  0  0  0  0  0  0
   44.7530   34.2400   41.9080 C   0  0  0  0  0  0  0  0  0  0  0  0
   45.9820   34.4400   41.2610 C   0  0  0  0  0  0  0  0  0  0  0  0
   47.1280   34.5300   42.0310 C   0  0  0  0  0  0  0  0  0  0  0  0
   47.0340   34.4200   43.4090 N   0  0  0  0  0  0  0  0  0  0  0  0
   45.8320   34.2270   43.9960 C   0  0  0  0  0  0  0  0  0  0  0  0
   44.7010   34.1370   43.2540 N   0  0  0  0  0  0  0  0  0  0  0  0
   46.0430   34.5230   40.1940 H   0  0  0  0  0  0  0  0  0  0  0  0
   45.7750   34.1430   45.0760 H   0  0  0  0  0  0  0  0  0  0  0  0
   48.4760   34.7220   41.4100 C   0  0  0  0  0  0  0  0  0  0  0  0
   49.1100   36.1050   41.5570 C   0  0  0  0  0  0  0  0  0  0  0  0
   49.6510   34.8230   42.2150 C   0  0  0  0  0  0  0  0  0  0  0  0
   48.5240   34.2740   40.3840 H   0  0  0  0  0  0  0  0  0  0  0  0
   48.5220   36.8120   42.1590 H   0  0  0  0  0  0  0  0  0  0  0  0
   49.6130   36.4770   40.6660 H   0  0  0  0  0  0  0  0  0  0  0  0
   50.6140   34.5110   41.8130 H   0  0  0  0  0  0  0  0  0  0  0  0
   49.5320   34.8630   43.3300 H   0  0  0  0  0  0  0  0  0  0  0  0
   41.0450   32.6400   38.6270 O   0  0  0  0  0  0  0  0  0  0  0  0
   40.0090   31.7920   38.7700 C   0  0  0  0  0  0  0  0  0  0  0  0
   39.2300   31.4720   37.7690 O   0  0  0  0  0  0  0  0  0  0  0  0
   39.1770   30.8980   39.6160 C   0  0  0  0  0  3  0  0  0  0  0  0
   39.9910   29.9010   40.3890 C   0  0  0  0  0  3  0  0  0  0  0  0
   40.5450   30.3720   41.2260 H   0  0  0  0  0  0  0  0  0  0  0  0
   38.9730   28.9450   40.9810 C   0  0  0  0  0  3  0  0  0  0  0  0
   38.4300   28.5160   40.0900 H   0  0  0  0  0  0  0  0  0  0  0  0
   38.1310   29.6120   41.8400 O   0  0  0  0  0  0  0  0  0  0  0  0
   37.4060   30.6220   41.2300 C   0  0  0  0  0  3  0  0  0  0  0  0
   36.8770   30.1800   40.3450 H   0  0  0  0  0  0  0  0  0  0  0  0
   38.3510   31.6570   40.6280 C   0  0  0  0  0  3  0  0  0  0  0  0
   38.9830   32.1240   41.4080 H   0  0  0  0  0  0  0  0  0  0  0  0
  1  7  1  6  0  0  0
  1  6  1  0  0  0  0
  1  2  1  0  0  0  0
  2  8  1  6  0  0  0
  2  3  1  0  0  0  0
  2 17  1  0  0  0  0
  4 10  1  0  0  0  0
  4  3  1  0  0  0  0
  5  6  1  0  0  0  0
  5 11  1  1  0  0  0
  5  4  1  0  0  0  0
  6 12  1  1  0  0  0
  9  4  1  0  0  0  0
 13  1  1  0  0  0  0
 14 13  1  0  0  0  0
 15  5  1  0  0  0  0
 16 15  1  0  0  0  0
 17 18  1  0  0  0  0
 18 23  1  0  0  0  0
 19 18  2  0  0  0  0
 19 20  1  0  0  0  0
 20 21  2  0  0  0  0
 21 22  1  0  0  0  0
 22 25  1  0  0  0  0
 23 22  2  0  0  0  0
 24 19  1  0  0  0  0
 26 27  1  0  0  0  0
 26 20  1  0  0  0  0
 26 28  1  0  0  0  0
 27 30  1  0  0  0  0
 27 28  1  0  0  0  0
 28 33  1  0  0  0  0
 29 26  1  0  0  0  0
 31 27  1  0  0  0  0
 32 28  1  0  0  0  0
 34 35  1  0  0  0  0
 34  6  1  0  0  0  0
 35 37  1  0  0  0  0
 36 35  2  0  0  0  0
 37 38  1  0  0  0  0
 37 45  1  0  0  0  0
 38 40  1  0  0  0  0
 38 39  1  0  0  0  0
 40 42  1  0  0  0  0
 41 40  1  0  0  0  0
 43 42  1  0  0  0  0
 44 43  1  0  0  0  0
 45 43  1  0  0  0  0
 45 46  1  0  0  0  0
M  END
>  <minimizedAffinity>
-6.24533463

>  <minimizedRMSD>
2.01695609

$$$$
