
     RDKit          3D

 31 33  0  0  0  0  0  0  0  0999 V2000
   44.5483   35.8642   44.4028 C   0  0  0  0  0  0  0  0  0  0  0  0
   45.3044   35.5956   43.2363 C   0  0  0  0  0  0  0  0  0  0  0  0
   46.2118   34.5257   43.2888 C   0  0  0  0  0  0  0  0  0  0  0  0
   46.3137   33.8138   44.4443 N   0  0  0  0  0  0  0  0  0  0  0  0
   45.5760   34.1008   45.5340 C   0  0  0  0  0  0  0  0  0  0  0  0
   44.6872   35.1225   45.5336 N   0  0  0  0  0  0  0  0  0  0  0  0
   45.7275   33.3016   46.7485 C   0  0  0  0  0  0  0  0  0  0  0  0
   46.8525   32.5345   47.0607 C   0  0  0  0  0  0  0  0  0  0  0  0
   46.6294   31.9377   48.2605 C   0  0  0  0  0  0  0  0  0  0  0  0
   45.3951   32.3255   48.6827 N   0  0  0  0  0  0  0  0  0  0  0  0
   44.8690   33.1490   47.7539 N   0  0  0  0  0  0  0  0  0  0  0  0
   43.8374   36.6858   44.3939 H   0  0  0  0  0  0  0  0  0  0  0  0
   45.1696   36.2062   42.3510 H   0  0  0  0  0  0  0  0  0  0  0  0
   46.8062   34.2933   42.4131 H   0  0  0  0  0  0  0  0  0  0  0  0
   47.7247   32.4680   46.4126 H   0  0  0  0  0  0  0  0  0  0  0  0
   47.3227   31.2682   48.7842 H   0  0  0  0  0  0  0  0  0  0  0  0
   44.7356   31.9399   49.9072 C   0  0  2  0  0  0  0  0  0  0  0  0
   43.2209   32.0282   49.8209 C   0  0  2  0  0  0  0  0  0  0  0  0
   42.7704   31.0708   49.5145 H   0  0  0  0  0  0  0  0  0  0  0  0
   42.6259   32.4263   51.1425 C   0  0  2  0  0  0  0  0  0  0  0  0
   41.5980   32.0119   51.1947 H   0  0  0  0  0  0  0  0  0  0  0  0
   43.3082   31.9226   52.2343 O   0  0  0  0  0  0  0  0  0  0  0  0
   44.6203   32.3290   52.3311 C   0  0  1  0  0  0  0  0  0  0  0  0
   44.7813   33.1144   53.0928 H   0  0  0  0  0  0  0  0  0  0  0  0
   45.1519   32.8769   51.0162 C   0  0  1  0  0  0  0  0  0  0  0  0
   46.2296   33.0002   51.1214 H   0  0  0  0  0  0  0  0  0  0  0  0
   44.9526   30.8979   50.2061 H   0  0  0  0  0  0  0  0  0  0  0  0
   42.9040   32.7809   49.0556 H   0  0  0  0  0  0  0  0  0  0  0  0
   42.5620   33.5329   51.1773 H   0  0  0  0  0  0  0  0  0  0  0  0
   45.2660   31.4654   52.5811 H   0  0  0  0  0  0  0  0  0  0  0  0
   44.6601   33.8556   50.8760 H   0  0  0  0  0  0  0  0  0  0  0  0
  1  6  2  0
  2  3  2  0
  2  1  1  0
  3  4  1  0
  4  5  2  0
  5  7  1  0
  6  5  1  0
  7  8  1  0
  7 11  2  0
  8  9  2  0
  9 10  1  0
 11 10  1  0
  1 12  1  0
  2 13  1  0
  3 14  1  0
  8 15  1  0
  9 16  1  0
 17 18  1  0
 18 19  1  6
 18 20  1  0
 20 21  1  6
 20 22  1  0
 22 23  1  0
 23 24  1  1
 23 25  1  0
 25 26  1  1
 25 17  1  0
 17 27  1  1
 18 28  1  0
 20 29  1  0
 23 30  1  0
 25 31  1  0
 10 17  1  0
M  ISO  8  12  14  13  14  14  14  15  14  16  14  19  15  21  15  24  15
M  ISO  1  26  15
M  END
>  <DihAtoms>  (1) 
8,9,16,17

>  <DihDeg>  (1) 
129.79388584935907

$$$$
