
 OpenBabel03242516533D

 46 49  0  0  1  0  0  0  0  0999 V2000
   47.8060   32.8400   41.6910 C   0  0  1  0  0  0  0  0  0  0  0  0
   47.4260   32.1520   40.4570 C   0  0  0  0  0  0  0  0  0  0  0  0
   48.4270   32.6010   39.3980 C   0  0  0  0  0  0  0  0  0  0  0  0
   48.1350   34.0650   39.1110 C   0  0  0  0  0  0  0  0  0  0  0  0
   48.1340   34.9410   40.3260 C   0  0  0  0  0  0  0  0  0  0  0  0
   47.6540   34.3620   41.5810 C   0  0  1  0  0  0  0  0  0  0  0  0
   48.9230   32.7250   41.8350 H   0  0  0  0  0  0  0  0  0  0  0  0
   46.3870   32.4090   40.1440 H   0  0  0  0  0  0  0  0  0  0  0  0
   47.4550   31.0720   40.5950 H   0  0  0  0  0  0  0  0  0  0  0  0
   49.4370   32.4660   39.8190 H   0  0  0  0  0  0  0  0  0  0  0  0
   48.2340   32.0500   38.4670 H   0  0  0  0  0  0  0  0  0  0  0  0
   47.1640   34.1120   38.5800 H   0  0  0  0  0  0  0  0  0  0  0  0
   48.9030   34.4060   38.3860 H   0  0  0  0  0  0  0  0  0  0  0  0
   49.1810   35.3320   40.4320 H   0  0  0  0  0  0  0  0  0  0  0  0
   47.5320   35.8480   40.0780 H   0  0  0  0  0  0  0  0  0  0  0  0
   48.2900   34.7630   42.4270 H   0  0  0  0  0  0  0  0  0  0  0  0
   45.4250   31.0300   44.0080 C   0  0  0  0  0  0  0  0  0  0  0  0
   46.0880   31.5190   42.8750 C   0  0  0  0  0  0  0  0  0  0  0  0
   47.1880   32.3790   42.9170 C   0  0  0  0  0  0  0  0  0  0  0  0
   47.5930   32.7270   44.1400 N   0  0  0  0  0  0  0  0  0  0  0  0
   46.9620   32.2620   45.2510 C   0  0  0  0  0  0  0  0  0  0  0  0
   45.9120   31.4410   45.2010 N   0  0  0  0  0  0  0  0  0  0  0  0
   44.5900   30.3730   43.8320 H   0  0  0  0  0  0  0  0  0  0  0  0
   45.7450   31.2250   41.8910 H   0  0  0  0  0  0  0  0  0  0  0  0
   47.3580   32.5960   46.2160 H   0  0  0  0  0  0  0  0  0  0  0  0
   46.2950   34.7910   41.9220 C   0  0  0  0  0  0  0  0  0  0  0  0
   45.9110   35.4870   43.0770 C   0  0  0  0  0  0  0  0  0  0  0  0
   44.5560   35.8030   43.1800 C   0  0  0  0  0  0  0  0  0  0  0  0
   43.7200   35.4120   42.1560 C   0  0  0  0  0  0  0  0  0  0  0  0
   44.1130   34.7240   41.0200 C   0  0  0  0  0  0  0  0  0  0  0  0
   45.4400   34.4220   40.9340 N   0  0  0  0  0  0  0  0  0  0  0  0
   46.6730   35.7100   43.7630 H   0  0  0  0  0  0  0  0  0  0  0  0
   44.2460   36.3310   44.0480 H   0  0  0  0  0  0  0  0  0  0  0  0
   42.6610   35.6640   42.2470 H   0  0  0  0  0  0  0  0  0  0  0  0
   43.1530   34.3580   39.9860 C   0  0  0  0  0  0  0  0  0  0  0  0
   42.7100   35.2730   39.2360 O   0  0  0  0  0  0  0  0  0  0  0  0
   42.6910   32.9400   39.8000 C   0  0  0  0  0  3  0  0  0  0  0  0
   42.3370   32.6860   38.3490 C   0  0  0  0  0  3  0  0  0  0  0  0
   42.9000   31.8250   37.9330 H   0  0  0  0  0  0  0  0  0  0  0  0
   40.8650   32.3790   38.1640 C   0  0  0  0  0  3  0  0  0  0  0  0
   40.7610   32.1320   37.0700 H   0  0  0  0  0  0  0  0  0  0  0  0
   40.4220   31.3140   38.9330 O   0  0  0  0  0  0  0  0  0  0  0  0
   40.9790   31.2910   40.2000 C   0  0  0  0  0  3  0  0  0  0  0  0
   40.3490   30.8030   40.9470 H   0  0  0  0  0  0  0  0  0  0  0  0
   41.4170   32.6900   40.5850 C   0  0  0  0  0  3  0  0  0  0  0  0
   41.5450   32.7660   41.6660 H   0  0  0  0  0  0  0  0  0  0  0  0
  1  7  1  1  0  0  0
  1 19  1  0  0  0  0
  2  9  1  0  0  0  0
  2  1  1  0  0  0  0
  3 10  1  0  0  0  0
  3  2  1  0  0  0  0
  4  3  1  0  0  0  0
  4  5  1  0  0  0  0
  5 14  1  0  0  0  0
  5  6  1  0  0  0  0
  6  1  1  0  0  0  0
  6 26  1  0  0  0  0
  6 16  1  1  0  0  0
  8  2  1  0  0  0  0
 11  3  1  0  0  0  0
 12  4  1  0  0  0  0
 13  4  1  0  0  0  0
 15  5  1  0  0  0  0
 17 22  1  0  0  0  0
 18 19  1  0  0  0  0
 18 17  2  0  0  0  0
 19 20  2  0  0  0  0
 20 21  1  0  0  0  0
 21 25  1  0  0  0  0
 22 21  2  0  0  0  0
 23 17  1  0  0  0  0
 24 18  1  0  0  0  0
 26 27  1  0  0  0  0
 27 28  2  0  0  0  0
 27 32  1  0  0  0  0
 28 33  1  0  0  0  0
 29 34  1  0  0  0  0
 29 28  1  0  0  0  0
 30 29  2  0  0  0  0
 31 30  1  0  0  0  0
 31 26  2  0  0  0  0
 35 30  1  0  0  0  0
 36 35  2  0  0  0  0
 37 35  1  0  0  0  0
 37 45  1  0  0  0  0
 38 37  1  0  0  0  0
 39 38  1  0  0  0  0
 40 38  1  0  0  0  0
 40 42  1  0  0  0  0
 41 40  1  0  0  0  0
 42 43  1  0  0  0  0
 43 45  1  0  0  0  0
 43 44  1  0  0  0  0
 45 46  1  0  0  0  0
M  END
>  <minimizedAffinity>
-5.47341824

>  <minimizedRMSD>
0.909590185

$$$$
