
 OpenBabel03252507463D

 38 40  0  0  0  0  0  0  0  0999 V2000
   47.5920   34.8100   41.0510 C   0  0  0  0  0  0  0  0  0  0  0  0
   47.0210   34.4020   40.1990 H   0  0  0  0  0  0  0  0  0  0  0  0
   47.9500   35.8240   40.7400 H   0  0  0  0  0  0  0  0  0  0  0  0
   48.7990   34.0100   41.3410 C   0  0  0  0  0  0  0  0  0  0  0  0
   48.9140   32.7940   40.6740 C   0  0  0  0  0  0  0  0  0  0  0  0
   50.0190   31.9940   40.8920 C   0  0  0  0  0  0  0  0  0  0  0  0
   50.9690   32.4300   41.7660 N   0  0  0  0  0  0  0  0  0  0  0  0
   50.8240   33.6200   42.3990 C   0  0  0  0  0  0  0  0  0  0  0  0
   49.7610   34.3690   42.1760 N   0  0  0  0  0  0  0  0  0  0  0  0
   50.1130   31.0350   40.3690 H   0  0  0  0  0  0  0  0  0  0  0  0
   51.6220   33.9010   43.0810 H   0  0  0  0  0  0  0  0  0  0  0  0
   47.6280   32.2670   39.5260 S   0  0  0  0  0  0  0  0  0  0  0  0
   46.6610   30.8870   40.2160 C   0  0  0  0  0  3  0  0  0  0  0  0
   45.3680   30.8040   39.4480 C   0  0  0  0  0  3  0  0  0  0  0  0
   45.1910   31.7430   38.8840 H   0  0  0  0  0  0  0  0  0  0  0  0
   44.2220   30.6540   40.4010 C   0  0  0  0  0  3  0  0  0  0  0  0
   44.0440   31.6330   40.8860 H   0  0  0  0  0  0  0  0  0  0  0  0
   44.5860   29.6670   41.3170 O   0  0  0  0  0  0  0  0  0  0  0  0
   45.4770   30.1690   42.2460 C   0  0  0  0  0  3  0  0  0  0  0  0
   46.1250   29.3560   42.6360 H   0  0  0  0  0  0  0  0  0  0  0  0
   46.3780   31.2260   41.6610 C   0  0  0  0  0  3  0  0  0  0  0  0
   47.3760   31.2240   42.1690 H   0  0  0  0  0  0  0  0  0  0  0  0
   46.6950   34.9680   42.2280 C   0  0  0  0  0  0  0  0  0  0  0  0
   46.8760   34.1150   42.9240 H   0  0  0  0  0  0  0  0  0  0  0  0
   46.9280   35.9050   42.7440 H   0  0  0  0  0  0  0  0  0  0  0  0
   45.2400   34.9280   41.8920 C   0  0  0  0  0  0  0  0  0  0  0  0
   44.2840   35.5110   42.7770 C   0  0  0  0  0  0  0  0  0  0  0  0
   42.6910   35.1980   41.9240 S   0  0  0  0  0  0  0  0  0  0  0  0
   43.5940   34.3230   40.4970 C   0  0  0  0  0  0  0  0  0  0  0  0
   44.6840   34.3990   40.8300 N   0  0  0  0  0  0  0  0  0  0  0  0
   44.4910   36.0060   43.7130 H   0  0  0  0  0  0  0  0  0  0  0  0
   42.9270   33.7860   39.4020 O   0  0  0  0  0  0  0  0  0  0  0  0
   40.8300   33.9800   37.8060 O   0  0  0  0  0  0  0  0  0  0  0  0
   41.8750   34.8060   38.5450 P   0  0  0  0  0  0  0  0  0  0  0  0
   41.1100   35.8200   39.6660 O   0  0  0  0  0  0  0  0  0  0  0  0
   40.5790   35.2990   40.3060 H   0  0  0  0  0  0  0  0  0  0  0  0
   42.7490   35.7710   37.4710 O   0  0  0  0  0  0  0  0  0  0  0  0
   42.3230   35.7070   36.5650 H   0  0  0  0  0  0  0  0  0  0  0  0
  1  4  1  0  0  0  0
  1 23  1  0  0  0  0
  2  1  1  0  0  0  0
  3  1  1  0  0  0  0
  4  9  1  0  0  0  0
  5  6  1  0  0  0  0
  5  4  2  0  0  0  0
  6  7  2  0  0  0  0
  7  8  1  0  0  0  0
  8 11  1  0  0  0  0
  9  8  2  0  0  0  0
 10  6  1  0  0  0  0
 12 13  1  0  0  0  0
 12  5  1  0  0  0  0
 13 21  1  0  0  0  0
 14 13  1  0  0  0  0
 14 16  1  0  0  0  0
 15 14  1  0  0  0  0
 16 17  1  0  0  0  0
 16 18  1  0  0  0  0
 18 19  1  0  0  0  0
 19 20  1  0  0  0  0
 21 22  1  0  0  0  0
 21 19  1  0  0  0  0
 23 25  1  0  0  0  0
 23 24  1  0  0  0  0
 26 23  1  0  0  0  0
 26 27  2  0  0  0  0
 27 31  1  0  0  0  0
 28 27  1  0  0  0  0
 29 30  2  0  0  0  0
 29 28  1  0  0  0  0
 30 26  1  0  0  0  0
 32 29  1  0  0  0  0
 33 34  2  0  0  0  0
 34 32  1  0  0  0  0
 34 35  1  0  0  0  0
 35 36  1  0  0  0  0
 37 34  1  0  0  0  0
 38 37  1  0  0  0  0
M  END
>  <minimizedAffinity>
-4.43915415

>  <minimizedRMSD>
0.644797325

$$$$
