REMARK  Name = 
REMARK  2 active torsions:
REMARK  status: ('A' for Active; 'I' for Inactive)
REMARK    1  A    between atoms: C_1  and  C_7
REMARK    2  A    between atoms: C_14  and  C_32
REMARK                            x       y       z     vdW  Elec       q    Type
REMARK                         _______ _______ _______ _____ _____    ______ ____
ROOT
ATOM      1  C   UNL     1      46.282  33.576  44.813  0.00  0.00    +0.000 A 
ATOM      2  C   UNL     1      47.111  33.763  43.720  0.00  0.00    +0.000 A 
ATOM      3  C   UNL     1      46.792  34.700  42.754  0.00  0.00    +0.000 A 
ATOM      4  N   UNL     1      45.627  35.402  42.952  0.00  0.00    +0.000 NA
ATOM      5  C   UNL     1      44.821  35.198  44.033  0.00  0.00    +0.000 A 
ATOM      6  N   UNL     1      45.145  34.299  44.952  0.00  0.00    +0.000 NA
ATOM      7  N   UNL     1      43.615  35.959  44.110  0.00  0.00    +0.000 N 
ATOM      8  C   UNL     1      48.986  34.541  41.971  0.00  0.00    +0.000 C 
ATOM      9  O   UNL     1      49.252  34.075  43.099  0.00  0.00    +0.000 OA
ATOM     10  N   UNL     1      47.630  34.941  41.643  0.00  0.00    +0.000 N 
ATOM     11  H   UNL     1      47.907  33.046  43.786  0.00  0.00    +0.000 HD
ATOM     12  H   UNL     1      43.462  36.706  44.799  0.00  0.00    +0.000 HD
ATOM     13  H   UNL     1      42.882  35.696  43.398  0.00  0.00    +0.000 HD
ATOM     14  H   UNL     1      47.242  35.337  40.785  0.00  0.00    +0.000 HD
ENDROOT
BRANCH   1  15
ATOM     15  C   UNL     1      46.730  32.619  45.871  0.00  0.00    +0.000 C 
ATOM     16  C   UNL     1      46.867  31.249  45.328  0.00  0.00    +0.000 C 
ATOM     17  C   UNL     1      45.803  30.344  45.878  0.00  0.00    +0.000 C 
ATOM     18  C   UNL     1      45.836  30.295  47.393  0.00  0.00    +0.000 C 
ATOM     19  C   UNL     1      45.966  31.635  48.026  0.00  0.00    +0.000 C 
ATOM     20  C   UNL     1      45.810  32.761  47.036  0.00  0.00    +0.000 C 
ATOM     21  H   UNL     1      47.750  33.004  46.165  0.00  0.00    +0.000 HD
ATOM     22  H   UNL     1      46.821  31.146  44.237  0.00  0.00    +0.000 HD
ATOM     23  H   UNL     1      47.832  30.816  45.663  0.00  0.00    +0.000 HD
ATOM     24  H   UNL     1      45.963  29.334  45.484  0.00  0.00    +0.000 HD
ATOM     25  H   UNL     1      44.811  30.748  45.541  0.00  0.00    +0.000 HD
ATOM     26  H   UNL     1      45.026  29.667  47.764  0.00  0.00    +0.000 HD
ATOM     27  H   UNL     1      46.777  29.718  47.631  0.00  0.00    +0.000 HD
ATOM     28  H   UNL     1      45.164  31.740  48.782  0.00  0.00    +0.000 HD
ATOM     29  H   UNL     1      46.937  31.779  48.562  0.00  0.00    +0.000 HD
ATOM     30  H   UNL     1      45.984  33.726  47.543  0.00  0.00    +0.000 HD
ATOM     31  H   UNL     1      44.748  32.727  46.704  0.00  0.00    +0.000 HD
ENDBRANCH   1  15
BRANCH   8  32
ATOM     32  C   UNL     1      49.970  34.767  40.793  0.00  0.00    +0.000 C 
ATOM     33  C   UNL     1      50.006  33.533  39.951  0.00  0.00    +0.000 C 
ATOM     34  H   UNL     1      49.482  32.698  40.419  0.00  0.00    +0.000 HD
ATOM     35  C   UNL     1      49.442  33.880  38.579  0.00  0.00    +0.000 C 
ATOM     36  H   UNL     1      49.597  33.016  37.894  0.00  0.00    +0.000 HD
ATOM     37  O   UNL     1      50.208  34.918  38.048  0.00  0.00    +0.000 OA
ATOM     38  C   UNL     1      50.107  36.096  38.755  0.00  0.00    +0.000 C 
ATOM     39  H   UNL     1      49.666  36.867  38.112  0.00  0.00    +0.000 HD
ATOM     40  C   UNL     1      49.334  35.937  40.039  0.00  0.00    +0.000 C 
ATOM     41  H   UNL     1      49.516  36.839  40.673  0.00  0.00    +0.000 HD
ENDBRANCH   8  32
TORSDOF 2
