
 OpenBabel03252502283D

 36 38  0  0  0  0  0  0  0  0999 V2000
   45.1420   34.3680   41.1050 C   0  0  0  0  0  0  0  0  0  0  0  0
   45.5570   34.9900   42.2790 C   0  0  0  0  0  0  0  0  0  0  0  0
   46.9170   35.2250   42.4590 C   0  0  0  0  0  0  0  0  0  0  0  0
   47.8140   34.8430   41.4900 C   0  0  0  0  0  0  0  0  0  0  0  0
   47.4180   34.2290   40.3300 C   0  0  0  0  0  0  0  0  0  0  0  0
   46.0490   34.0010   40.1610 C   0  0  0  0  0  0  0  0  0  0  0  0
   44.8600   35.2940   43.0470 H   0  0  0  0  0  0  0  0  0  0  0  0
   47.3280   35.7010   43.3390 H   0  0  0  0  0  0  0  0  0  0  0  0
   48.8740   35.0230   41.6240 H   0  0  0  0  0  0  0  0  0  0  0  0
   48.0930   33.9140   39.5410 H   0  0  0  0  0  0  0  0  0  0  0  0
   41.4390   34.7790   40.5120 C   0  0  0  0  0  0  0  0  0  0  0  0
   42.7990   35.1040   40.5980 C   0  0  0  0  0  0  0  0  0  0  0  0
   43.7180   34.1570   40.9790 C   0  0  0  0  0  0  0  0  0  0  0  0
   43.2180   32.9250   41.2560 N   0  0  0  0  0  0  0  0  0  0  0  0
   41.9100   32.6090   41.1760 C   0  0  0  0  0  0  0  0  0  0  0  0
   41.0070   33.5460   40.7990 N   0  0  0  0  0  0  0  0  0  0  0  0
   43.1680   36.0950   40.3700 H   0  0  0  0  0  0  0  0  0  0  0  0
   41.6720   31.5940   41.4250 H   0  0  0  0  0  0  0  0  0  0  0  0
   40.4530   35.8040   40.1020 C   0  0  0  0  0  0  0  0  0  0  0  0
   39.2510   35.1420   39.8290 F   0  0  0  0  0  0  0  0  0  0  0  0
   40.8730   36.2850   38.8570 F   0  0  0  0  0  0  0  0  0  0  0  0
   40.2750   36.7970   41.0120 F   0  0  0  0  0  0  0  0  0  0  0  0
   45.6330   32.1110   38.4220 C   0  0  0  0  0  0  0  0  0  0  0  0
   46.2960   31.1760   38.8470 O   0  0  0  0  0  0  0  0  0  0  0  0
   45.5110   33.3860   39.0120 N   0  0  0  0  0  0  0  0  0  0  0  0
   44.8910   34.1270   38.5570 H   0  0  0  0  0  0  0  0  0  0  0  0
   44.8680   31.8850   37.1420 C   0  0  0  0  0  3  0  0  0  0  0  0
   44.7940   30.4280   36.8760 C   0  0  0  0  0  3  0  0  0  0  0  0
   44.4540   29.8320   37.7370 H   0  0  0  0  0  0  0  0  0  0  0  0
   43.8520   30.2530   35.6770 C   0  0  0  0  0  3  0  0  0  0  0  0
   43.9650   29.2770   35.1890 H   0  0  0  0  0  0  0  0  0  0  0  0
   43.9710   31.3260   34.8110 O   0  0  0  0  0  0  0  0  0  0  0  0
   45.2590   31.8480   34.7490 C   0  0  0  0  0  3  0  0  0  0  0  0
   46.0330   31.0730   34.5900 H   0  0  0  0  0  0  0  0  0  0  0  0
   45.6320   32.5670   36.0260 C   0  0  0  0  0  3  0  0  0  0  0  0
   46.7110   32.4900   36.2790 H   0  0  0  0  0  0  0  0  0  0  0  0
  1  2  1  0  0  0  0
  2  3  2  0  0  0  0
  2  7  1  0  0  0  0
  3  8  1  0  0  0  0
  4  9  1  0  0  0  0
  4  3  1  0  0  0  0
  5  4  2  0  0  0  0
  6  5  1  0  0  0  0
  6  1  2  0  0  0  0
 10  5  1  0  0  0  0
 11 12  2  0  0  0  0
 11 16  1  0  0  0  0
 12 13  1  0  0  0  0
 13  1  1  0  0  0  0
 13 14  2  0  0  0  0
 15 14  1  0  0  0  0
 15 18  1  0  0  0  0
 16 15  2  0  0  0  0
 17 12  1  0  0  0  0
 19 11  1  0  0  0  0
 19 22  1  0  0  0  0
 20 19  1  0  0  0  0
 21 19  1  0  0  0  0
 23 24  2  0  0  0  0
 23 25  1  0  0  0  0
 25  6  1  0  0  0  0
 26 25  1  0  0  0  0
 27 23  1  0  0  0  0
 28 27  1  0  0  0  0
 28 29  1  0  0  0  0
 30 28  1  0  0  0  0
 31 30  1  0  0  0  0
 32 30  1  0  0  0  0
 33 32  1  0  0  0  0
 33 35  1  0  0  0  0
 34 33  1  0  0  0  0
 35 36  1  0  0  0  0
 35 27  1  0  0  0  0
M  END
>  <minimizedAffinity>
-6.00358248

>  <minimizedRMSD>
0.277978361

$$$$
