REMARK  Name = 
REMARK  4 active torsions:
REMARK  status: ('A' for Active; 'I' for Inactive)
REMARK    1  A    between atoms: C_1  and  C_12
REMARK    2  A    between atoms: C_15  and  C_18
REMARK    3  A    between atoms: C_18  and  C_19
REMARK    4  A    between atoms: C_19  and  C_33
REMARK                            x       y       z     vdW  Elec       q    Type
REMARK                         _______ _______ _______ _____ _____    ______ ____
ROOT
ATOM      1  C   UNL     1      45.392  35.235  43.849  0.00  0.00    +0.000 A 
ATOM      2  C   UNL     1      46.457  34.401  43.420  0.00  0.00    +0.000 A 
ATOM      3  C   UNL     1      46.930  33.399  44.290  0.00  0.00    +0.000 A 
ATOM      4  N   UNL     1      46.331  33.288  45.504  0.00  0.00    +0.000 NA
ATOM      5  C   UNL     1      45.322  34.090  45.891  0.00  0.00    +0.000 A 
ATOM      6  N   UNL     1      44.865  35.048  45.067  0.00  0.00    +0.000 NA
ATOM      7  N   UNL     1      44.918  36.232  42.987  0.00  0.00    +0.000 N 
ATOM      8  H   UNL     1      47.741  32.745  43.995  0.00  0.00    +0.000 HD
ATOM      9  H   UNL     1      44.698  35.889  42.015  0.00  0.00    +0.000 HD
ATOM     10  H   UNL     1      44.835  37.203  43.398  0.00  0.00    +0.000 HD
ENDROOT
BRANCH   2  11
ATOM     11  C   UNL     1      47.076  34.543  42.120  0.00  0.00    +0.000 A 
ATOM     12  C   UNL     1      48.176  35.303  41.782  0.00  0.00    +0.000 A 
ATOM     13  C   UNL     1      48.642  35.326  40.481  0.00  0.00    +0.000 A 
ATOM     14  C   UNL     1      48.021  34.586  39.467  0.00  0.00    +0.000 A 
ATOM     15  N   UNL     1      48.543  34.673  38.244  0.00  0.00    +0.000 NA
ATOM     16  C   UNL     1      47.950  33.955  37.234  0.00  0.00    +0.000 A 
ATOM     17  C   UNL     1      46.856  33.196  37.561  0.00  0.00    +0.000 A 
ATOM     18  C   UNL     1      46.309  33.099  38.819  0.00  0.00    +0.000 A 
ATOM     19  C   UNL     1      46.913  33.824  39.822  0.00  0.00    +0.000 A 
ATOM     20  C   UNL     1      46.445  33.799  41.123  0.00  0.00    +0.000 A 
ATOM     21  H   UNL     1      48.616  35.853  42.596  0.00  0.00    +0.000 HD
ATOM     22  H   UNL     1      49.515  35.944  40.267  0.00  0.00    +0.000 HD
ATOM     23  H   UNL     1      48.301  33.965  36.226  0.00  0.00    +0.000 HD
ATOM     24  H   UNL     1      46.377  32.622  36.765  0.00  0.00    +0.000 HD
ATOM     25  H   UNL     1      45.441  32.483  39.024  0.00  0.00    +0.000 HD
ATOM     26  H   UNL     1      45.590  33.180  41.282  0.00  0.00    +0.000 HD
ENDBRANCH   2  11
BRANCH   5  27
ATOM     27  C   UNL     1      44.730  33.886  47.254  0.00  0.00    +0.000 C 
ATOM     28  H   UNL     1      43.639  33.837  47.227  0.00  0.00    +0.000 HD
ATOM     29  H   UNL     1      45.096  34.780  47.839  0.00  0.00    +0.000 HD
BRANCH  27  30
ATOM     30  C   UNL     1      45.348  32.638  47.873  0.00  0.00    +0.000 C 
ATOM     31  H   UNL     1      45.185  31.763  47.247  0.00  0.00    +0.000 HD
ATOM     32  H   UNL     1      46.427  32.858  48.019  0.00  0.00    +0.000 HD
BRANCH  30  33
ATOM     33  C   UNL     1      44.721  32.463  49.257  0.00  0.00    +0.000 C 
ATOM     34  C   UNL     1      44.671  30.986  49.620  0.00  0.00    +0.000 C 
ATOM     35  H   UNL     1      43.749  30.780  50.189  0.00  0.00    +0.000 HD
ATOM     36  C   UNL     1      45.844  30.626  50.526  0.00  0.00    +0.000 C 
ATOM     37  H   UNL     1      45.972  29.534  50.464  0.00  0.00    +0.000 HD
ATOM     38  O   UNL     1      47.020  31.235  50.081  0.00  0.00    +0.000 OA
ATOM     39  C   UNL     1      46.986  32.614  50.272  0.00  0.00    +0.000 C 
ATOM     40  H   UNL     1      47.435  32.843  51.254  0.00  0.00    +0.000 HD
ATOM     41  C   UNL     1      45.571  33.137  50.309  0.00  0.00    +0.000 C 
ATOM     42  H   UNL     1      45.602  34.222  50.210  0.00  0.00    +0.000 HD
ENDBRANCH  30  33
ENDBRANCH  27  30
ENDBRANCH   5  27
TORSDOF 4
