
 OpenBabel03242516533D

 46 49  0  0  1  0  0  0  0  0999 V2000
   47.8360   32.9070   41.8130 C   0  0  1  0  0  0  0  0  0  0  0  0
   47.5360   32.2780   40.5280 C   0  0  0  0  0  0  0  0  0  0  0  0
   48.5600   32.8260   39.5400 C   0  0  0  0  0  0  0  0  0  0  0  0
   48.2210   34.2920   39.3240 C   0  0  0  0  0  0  0  0  0  0  0  0
   48.1340   35.0950   40.5850 C   0  0  0  0  0  0  0  0  0  0  0  0
   47.6270   34.4260   41.7830 C   0  0  1  0  0  0  0  0  0  0  0  0
   48.9500   32.8270   42.0000 H   0  0  0  0  0  0  0  0  0  0  0  0
   46.5010   32.5120   40.1840 H   0  0  0  0  0  0  0  0  0  0  0  0
   47.6030   31.1930   40.6060 H   0  0  0  0  0  0  0  0  0  0  0  0
   49.5570   32.7060   39.9970 H   0  0  0  0  0  0  0  0  0  0  0  0
   48.4290   32.3230   38.5720 H   0  0  0  0  0  0  0  0  0  0  0  0
   47.2720   34.3320   38.7540 H   0  0  0  0  0  0  0  0  0  0  0  0
   49.0030   34.7040   38.6530 H   0  0  0  0  0  0  0  0  0  0  0  0
   49.1580   35.5200   40.7580 H   0  0  0  0  0  0  0  0  0  0  0  0
   47.5050   35.9910   40.3620 H   0  0  0  0  0  0  0  0  0  0  0  0
   48.2100   34.8020   42.6780 H   0  0  0  0  0  0  0  0  0  0  0  0
   45.4060   30.9140   43.9200 C   0  0  0  0  0  0  0  0  0  0  0  0
   46.0970   31.4900   42.8460 C   0  0  0  0  0  0  0  0  0  0  0  0
   47.1870   32.3530   42.9840 C   0  0  0  0  0  0  0  0  0  0  0  0
   47.5530   32.6130   44.2400 N   0  0  0  0  0  0  0  0  0  0  0  0
   46.8950   32.0630   45.2960 C   0  0  0  0  0  0  0  0  0  0  0  0
   45.8540   31.2390   45.1540 N   0  0  0  0  0  0  0  0  0  0  0  0
   44.5840   30.2660   43.6710 H   0  0  0  0  0  0  0  0  0  0  0  0
   45.7860   31.2670   41.8340 H   0  0  0  0  0  0  0  0  0  0  0  0
   47.2590   32.3280   46.2930 H   0  0  0  0  0  0  0  0  0  0  0  0
   46.2380   34.7820   42.0880 C   0  0  0  0  0  0  0  0  0  0  0  0
   45.7750   35.3760   43.2700 C   0  0  0  0  0  0  0  0  0  0  0  0
   44.4060   35.6370   43.3300 C   0  0  0  0  0  0  0  0  0  0  0  0
   43.6330   35.2960   42.2410 C   0  0  0  0  0  0  0  0  0  0  0  0
   44.1040   34.7080   41.0780 C   0  0  0  0  0  0  0  0  0  0  0  0
   45.4440   34.4590   41.0350 N   0  0  0  0  0  0  0  0  0  0  0  0
   46.4960   35.5740   44.0070 H   0  0  0  0  0  0  0  0  0  0  0  0
   44.0370   36.0880   44.2190 H   0  0  0  0  0  0  0  0  0  0  0  0
   42.5630   35.5040   42.2990 H   0  0  0  0  0  0  0  0  0  0  0  0
   43.2070   34.3880   39.9750 C   0  0  0  0  0  0  0  0  0  0  0  0
   42.7020   35.3450   39.3230 O   0  0  0  0  0  0  0  0  0  0  0  0
   42.8790   32.9680   39.6080 C   0  0  0  0  0  3  0  0  0  0  0  0
   44.0790   32.2980   38.9680 C   0  0  0  0  0  3  0  0  0  0  0  0
   44.3600   31.3640   39.4980 H   0  0  0  0  0  0  0  0  0  0  0  0
   43.8220   31.9220   37.5230 C   0  0  0  0  0  3  0  0  0  0  0  0
   44.7480   31.3670   37.2040 H   0  0  0  0  0  0  0  0  0  0  0  0
   42.7070   31.1160   37.3520 O   0  0  0  0  0  0  0  0  0  0  0  0
   41.6490   31.4720   38.1730 C   0  0  0  0  0  3  0  0  0  0  0  0
   40.6710   31.2080   37.7650 H   0  0  0  0  0  0  0  0  0  0  0  0
   41.7810   32.9300   38.5610 C   0  0  0  0  0  3  0  0  0  0  0  0
   40.8230   33.3180   38.9150 H   0  0  0  0  0  0  0  0  0  0  0  0
  1  7  1  1  0  0  0
  1 19  1  0  0  0  0
  2  9  1  0  0  0  0
  2  1  1  0  0  0  0
  3 10  1  0  0  0  0
  3  2  1  0  0  0  0
  4  3  1  0  0  0  0
  4  5  1  0  0  0  0
  5 14  1  0  0  0  0
  5  6  1  0  0  0  0
  6  1  1  0  0  0  0
  6 26  1  0  0  0  0
  6 16  1  1  0  0  0
  8  2  1  0  0  0  0
 11  3  1  0  0  0  0
 12  4  1  0  0  0  0
 13  4  1  0  0  0  0
 15  5  1  0  0  0  0
 17 22  1  0  0  0  0
 18 19  1  0  0  0  0
 18 17  2  0  0  0  0
 19 20  2  0  0  0  0
 20 21  1  0  0  0  0
 21 25  1  0  0  0  0
 22 21  2  0  0  0  0
 23 17  1  0  0  0  0
 24 18  1  0  0  0  0
 26 27  1  0  0  0  0
 27 28  2  0  0  0  0
 27 32  1  0  0  0  0
 28 33  1  0  0  0  0
 29 34  1  0  0  0  0
 29 28  1  0  0  0  0
 30 29  2  0  0  0  0
 31 30  1  0  0  0  0
 31 26  2  0  0  0  0
 35 30  1  0  0  0  0
 36 35  2  0  0  0  0
 37 35  1  0  0  0  0
 38 39  1  0  0  0  0
 38 37  1  0  0  0  0
 40 38  1  0  0  0  0
 41 40  1  0  0  0  0
 42 40  1  0  0  0  0
 42 43  1  0  0  0  0
 43 45  1  0  0  0  0
 44 43  1  0  0  0  0
 45 46  1  0  0  0  0
 45 37  1  0  0  0  0
M  END
>  <minimizedAffinity>
-5.3157053

>  <minimizedRMSD>
0.748534918

$$$$
