
     RDKit          3D

 51 54  0  0  0  0  0  0  0  0999 V2000
   42.8292   34.4787   38.7791 C   0  0  1  0  0  0  0  0  0  0  0  0
   42.9570   35.1657   40.1308 C   0  0  1  0  0  0  0  0  0  0  0  0
   41.6585   35.3772   40.6390 O   0  0  0  0  0  0  0  0  0  0  0  0
   40.7392   35.7022   39.6368 C   0  0  0  0  0  0  0  0  0  0  0  0
   40.4504   34.5241   38.7298 C   0  0  2  0  0  0  0  0  0  0  0  0
   41.6664   33.5455   38.8866 C   0  0  1  0  0  0  0  0  0  0  0  0
   42.6166   35.4203   37.7622 O   0  0  0  0  0  0  0  0  0  0  0  0
   40.4722   34.9386   37.4081 O   0  0  0  0  0  0  0  0  0  0  0  0
   43.4906   34.1795   40.9857 O   0  0  0  0  0  0  0  0  0  0  0  0
   44.6019   34.3286   41.7142 C   0  0  0  0  0  0  0  0  0  0  0  0
   45.8597   34.4481   41.1042 C   0  0  0  0  0  0  0  0  0  0  0  0
   46.9742   34.6020   41.9101 C   0  0  0  0  0  0  0  0  0  0  0  0
   46.8198   34.6338   43.2871 N   0  0  0  0  0  0  0  0  0  0  0  0
   45.5912   34.5147   43.8382 C   0  0  0  0  0  0  0  0  0  0  0  0
   44.4907   34.3634   43.0600 N   0  0  0  0  0  0  0  0  0  0  0  0
   48.3499   34.7150   41.3324 C   0  0  0  0  0  0  0  0  0  0  0  0
   49.0624   36.0558   41.5084 C   0  0  0  0  0  0  0  0  0  0  0  0
   49.5028   34.7397   42.1737 C   0  0  0  0  0  0  0  0  0  0  0  0
   41.5533   32.6074   37.9290 O   0  0  0  0  0  0  0  0  0  0  0  0
   40.9164   31.4210   37.9653 C   0  0  0  0  0  0  0  0  0  0  0  0
   39.6637   31.2945   37.6093 O   0  0  0  0  0  0  0  0  0  0  0  0
   43.7650   33.9188   38.5415 H   0  0  0  0  0  0  0  0  0  0  0  0
   43.5384   36.0910   40.1030 H   0  0  0  0  0  0  0  0  0  0  0  0
   41.0336   36.6141   39.0650 H   0  0  0  0  0  0  0  0  0  0  0  0
   39.8213   36.0014   40.1839 H   0  0  0  0  0  0  0  0  0  0  0  0
   39.5238   33.9918   39.0041 H   0  0  0  0  0  0  0  0  0  0  0  0
   41.4340   33.2702   39.9645 H   0  0  0  0  0  0  0  0  0  0  0  0
   42.9770   35.0973   36.9024 H   0  0  0  0  0  0  0  0  0  0  0  0
   40.5520   34.1792   36.7771 H   0  0  0  0  0  0  0  0  0  0  0  0
   45.9668   34.4221   40.0379 H   0  0  0  0  0  0  0  0  0  0  0  0
   45.4879   34.5410   44.9172 H   0  0  0  0  0  0  0  0  0  0  0  0
   48.4022   34.2700   40.3049 H   0  0  0  0  0  0  0  0  0  0  0  0
   48.4992   36.7940   42.0972 H   0  0  0  0  0  0  0  0  0  0  0  0
   49.6145   36.4010   40.6358 H   0  0  0  0  0  0  0  0  0  0  0  0
   50.4568   34.3717   41.7993 H   0  0  0  0  0  0  0  0  0  0  0  0
   49.3517   34.7809   43.2851 H   0  0  0  0  0  0  0  0  0  0  0  0
   40.9152   29.9621   38.2447 C   0  0  1  0  0  0  0  0  0  0  0  0
   41.2339   29.6406   39.6762 C   0  0  2  0  0  0  0  0  0  0  0  0
   40.3950   29.8908   40.3569 H   0  0  0  0  0  0  0  0  0  0  0  0
   41.4245   28.1353   39.7022 C   0  0  1  0  0  0  0  0  0  0  0  0
   42.2688   27.9419   38.9805 H   0  0  0  0  0  0  0  0  0  0  0  0
   40.2620   27.4978   39.3375 O   0  0  0  0  0  0  0  0  0  0  0  0
   39.8380   27.8121   38.0582 C   0  0  1  0  0  0  0  0  0  0  0  0
   40.6895   27.6182   37.3539 H   0  0  0  0  0  0  0  0  0  0  0  0
   39.5855   29.3123   37.9422 C   0  0  1  0  0  0  0  0  0  0  0  0
   38.7975   29.6411   38.6452 H   0  0  0  0  0  0  0  0  0  0  0  0
   41.6617   29.4317   37.6225 H   0  0  0  0  0  0  0  0  0  0  0  0
   42.1355   30.1487   40.0734 H   0  0  0  0  0  0  0  0  0  0  0  0
   41.7078   27.7963   40.6996 H   0  0  0  0  0  0  0  0  0  0  0  0
   38.9622   27.2037   37.8179 H   0  0  0  0  0  0  0  0  0  0  0  0
   39.2894   29.5243   36.9137 H   0  0  0  0  0  0  0  0  0  0  0  0
  1  6  1  0
  1  2  1  0
  2  3  1  0
  2  9  1  0
  4  3  1  0
  5  6  1  0
  5  4  1  0
  7  1  1  0
  8  5  1  0
  9 10  1  0
 10 15  1  0
 11 10  2  0
 11 12  1  0
 12 13  2  0
 13 14  1  0
 15 14  2  0
 16 17  1  0
 16 12  1  0
 16 18  1  0
 17 18  1  0
 19 20  1  0
 19  6  1  0
 21 20  2  0
  1 22  1  6
  2 23  1  6
  4 24  1  0
  4 25  1  0
  5 26  1  1
  6 27  1  1
  7 28  1  0
  8 29  1  0
 11 30  1  0
 14 31  1  0
 16 32  1  0
 17 33  1  0
 17 34  1  0
 18 35  1  0
 18 36  1  0
 37 38  1  0
 38 39  1  1
 38 40  1  0
 40 41  1  6
 40 42  1  0
 42 43  1  0
 43 44  1  6
 43 45  1  0
 45 46  1  1
 45 37  1  0
 37 47  1  6
 38 48  1  0
 40 49  1  0
 43 50  1  0
 45 51  1  0
 20 37  1  0
M  ISO  8  22  13  23  13  24  13  25  13  26  13  27  13  28   3  29   3
M  ISO  8  30  14  31  14  32  13  33  13  34  13  35  13  36  13  39  15
M  ISO  3  41  15  44  15  46  15
M  END
>  <DihAtoms>  (1) 
18,19,36,37

>  <DihDeg>  (1) 
-179.7704945190317

$$$$
