
 OpenBabel03252507463D

 38 40  0  0  0  0  0  0  0  0999 V2000
   47.5910   34.8110   41.0510 C   0  0  0  0  0  0  0  0  0  0  0  0
   47.0210   34.4030   40.1990 H   0  0  0  0  0  0  0  0  0  0  0  0
   47.9490   35.8250   40.7420 H   0  0  0  0  0  0  0  0  0  0  0  0
   48.7980   34.0110   41.3420 C   0  0  0  0  0  0  0  0  0  0  0  0
   48.9130   32.7950   40.6740 C   0  0  0  0  0  0  0  0  0  0  0  0
   50.0190   31.9950   40.8920 C   0  0  0  0  0  0  0  0  0  0  0  0
   50.9690   32.4310   41.7660 N   0  0  0  0  0  0  0  0  0  0  0  0
   50.8230   33.6200   42.3990 C   0  0  0  0  0  0  0  0  0  0  0  0
   49.7610   34.3700   42.1760 N   0  0  0  0  0  0  0  0  0  0  0  0
   50.1130   31.0370   40.3690 H   0  0  0  0  0  0  0  0  0  0  0  0
   51.6220   33.9020   43.0810 H   0  0  0  0  0  0  0  0  0  0  0  0
   47.6280   32.2680   39.5270 S   0  0  0  0  0  0  0  0  0  0  0  0
   46.6610   30.8880   40.2160 C   0  0  0  0  0  3  0  0  0  0  0  0
   45.3690   30.8040   39.4490 C   0  0  0  0  0  3  0  0  0  0  0  0
   45.1900   31.7440   38.8850 H   0  0  0  0  0  0  0  0  0  0  0  0
   44.2210   30.6540   40.4020 C   0  0  0  0  0  3  0  0  0  0  0  0
   44.0440   31.6320   40.8870 H   0  0  0  0  0  0  0  0  0  0  0  0
   44.5850   29.6660   41.3170 O   0  0  0  0  0  0  0  0  0  0  0  0
   45.4770   30.1680   42.2460 C   0  0  0  0  0  3  0  0  0  0  0  0
   46.1260   29.3550   42.6360 H   0  0  0  0  0  0  0  0  0  0  0  0
   46.3770   31.2270   41.6610 C   0  0  0  0  0  3  0  0  0  0  0  0
   47.3760   31.2240   42.1690 H   0  0  0  0  0  0  0  0  0  0  0  0
   46.6950   34.9680   42.2290 C   0  0  0  0  0  0  0  0  0  0  0  0
   46.8750   34.1150   42.9240 H   0  0  0  0  0  0  0  0  0  0  0  0
   46.9270   35.9040   42.7450 H   0  0  0  0  0  0  0  0  0  0  0  0
   45.2400   34.9280   41.8930 C   0  0  0  0  0  0  0  0  0  0  0  0
   44.2830   35.5110   42.7770 C   0  0  0  0  0  0  0  0  0  0  0  0
   42.6910   35.1990   41.9240 S   0  0  0  0  0  0  0  0  0  0  0  0
   43.5930   34.3230   40.4980 C   0  0  0  0  0  0  0  0  0  0  0  0
   44.6840   34.3990   40.8310 N   0  0  0  0  0  0  0  0  0  0  0  0
   44.4910   36.0060   43.7130 H   0  0  0  0  0  0  0  0  0  0  0  0
   42.9270   33.7860   39.4020 O   0  0  0  0  0  0  0  0  0  0  0  0
   40.8300   33.9800   37.8060 O   0  0  0  0  0  0  0  0  0  0  0  0
   41.8750   34.8070   38.5450 P   0  0  0  0  0  0  0  0  0  0  0  0
   41.1100   35.8200   39.6660 O   0  0  0  0  0  0  0  0  0  0  0  0
   40.5790   35.2990   40.3050 H   0  0  0  0  0  0  0  0  0  0  0  0
   42.7500   35.7710   37.4710 O   0  0  0  0  0  0  0  0  0  0  0  0
   42.3240   35.7070   36.5650 H   0  0  0  0  0  0  0  0  0  0  0  0
  1  4  1  0  0  0  0
  1 23  1  0  0  0  0
  2  1  1  0  0  0  0
  3  1  1  0  0  0  0
  4  9  1  0  0  0  0
  5  6  1  0  0  0  0
  5  4  2  0  0  0  0
  6  7  2  0  0  0  0
  7  8  1  0  0  0  0
  8 11  1  0  0  0  0
  9  8  2  0  0  0  0
 10  6  1  0  0  0  0
 12 13  1  0  0  0  0
 12  5  1  0  0  0  0
 13 21  1  0  0  0  0
 14 13  1  0  0  0  0
 14 16  1  0  0  0  0
 15 14  1  0  0  0  0
 16 17  1  0  0  0  0
 16 18  1  0  0  0  0
 18 19  1  0  0  0  0
 19 20  1  0  0  0  0
 21 22  1  0  0  0  0
 21 19  1  0  0  0  0
 23 25  1  0  0  0  0
 23 24  1  0  0  0  0
 26 23  1  0  0  0  0
 26 27  2  0  0  0  0
 27 31  1  0  0  0  0
 28 27  1  0  0  0  0
 29 30  2  0  0  0  0
 29 28  1  0  0  0  0
 30 26  1  0  0  0  0
 32 29  1  0  0  0  0
 33 34  2  0  0  0  0
 34 32  1  0  0  0  0
 34 35  1  0  0  0  0
 35 36  1  0  0  0  0
 37 34  1  0  0  0  0
 38 37  1  0  0  0  0
M  END
>  <minimizedAffinity>
-4.43892765

>  <minimizedRMSD>
0.762163162

$$$$
