
 OpenBabel03252507463D

 38 40  0  0  0  0  0  0  0  0999 V2000
   46.9840   34.3810   41.0310 C   0  0  0  0  0  0  0  0  0  0  0  0
   46.4600   33.4710   40.6920 H   0  0  0  0  0  0  0  0  0  0  0  0
   47.1070   35.0340   40.1300 H   0  0  0  0  0  0  0  0  0  0  0  0
   48.3450   34.0840   41.5220 C   0  0  0  0  0  0  0  0  0  0  0  0
   48.8030   32.7840   41.3340 C   0  0  0  0  0  0  0  0  0  0  0  0
   50.0690   32.4330   41.7640 C   0  0  0  0  0  0  0  0  0  0  0  0
   50.8330   33.3880   42.3660 N   0  0  0  0  0  0  0  0  0  0  0  0
   50.3540   34.6450   42.5330 C   0  0  0  0  0  0  0  0  0  0  0  0
   49.1430   34.9590   42.1140 N   0  0  0  0  0  0  0  0  0  0  0  0
   50.4340   31.4100   41.6190 H   0  0  0  0  0  0  0  0  0  0  0  0
   51.0200   35.3520   43.0210 H   0  0  0  0  0  0  0  0  0  0  0  0
   47.7510   31.5610   40.5300 S   0  0  0  0  0  0  0  0  0  0  0  0
   46.6780   30.7240   41.7390 C   0  0  0  0  0  3  0  0  0  0  0  0
   45.2630   31.1690   41.4820 C   0  0  0  0  0  3  0  0  0  0  0  0
   45.2510   32.0840   40.8550 H   0  0  0  0  0  0  0  0  0  0  0  0
   44.6030   31.5310   42.7780 C   0  0  0  0  0  3  0  0  0  0  0  0
   45.0060   32.5060   43.1120 H   0  0  0  0  0  0  0  0  0  0  0  0
   44.8870   30.5030   43.6770 O   0  0  0  0  0  0  0  0  0  0  0  0
   46.1830   30.6100   44.1430 C   0  0  0  0  0  3  0  0  0  0  0  0
   46.5730   29.6090   44.4290 H   0  0  0  0  0  0  0  0  0  0  0  0
   47.1180   31.1830   43.1100 C   0  0  0  0  0  3  0  0  0  0  0  0
   48.1540   30.7760   43.2410 H   0  0  0  0  0  0  0  0  0  0  0  0
   46.1460   35.1050   42.0250 C   0  0  0  0  0  0  0  0  0  0  0  0
   46.3130   34.6440   43.0270 H   0  0  0  0  0  0  0  0  0  0  0  0
   46.4470   36.1570   42.0620 H   0  0  0  0  0  0  0  0  0  0  0  0
   44.6790   35.0110   41.7640 C   0  0  0  0  0  0  0  0  0  0  0  0
   43.7450   35.4190   42.7630 C   0  0  0  0  0  0  0  0  0  0  0  0
   42.1250   35.1090   41.9630 S   0  0  0  0  0  0  0  0  0  0  0  0
   42.9890   34.4740   40.3930 C   0  0  0  0  0  0  0  0  0  0  0  0
   44.0910   34.5790   40.6750 N   0  0  0  0  0  0  0  0  0  0  0  0
   43.9790   35.8100   43.7410 H   0  0  0  0  0  0  0  0  0  0  0  0
   42.2900   34.0310   39.2750 O   0  0  0  0  0  0  0  0  0  0  0  0
   40.3500   34.5240   37.5510 O   0  0  0  0  0  0  0  0  0  0  0  0
   41.4540   35.1920   38.3610 P   0  0  0  0  0  0  0  0  0  0  0  0
   40.7730   36.3070   39.4390 O   0  0  0  0  0  0  0  0  0  0  0  0
   40.1330   35.8690   40.0400 H   0  0  0  0  0  0  0  0  0  0  0  0
   42.5260   36.0180   37.3520 O   0  0  0  0  0  0  0  0  0  0  0  0
   42.1540   36.0150   36.4210 H   0  0  0  0  0  0  0  0  0  0  0  0
  1  4  1  0  0  0  0
  1 23  1  0  0  0  0
  2  1  1  0  0  0  0
  3  1  1  0  0  0  0
  4  9  1  0  0  0  0
  5  4  2  0  0  0  0
  5  6  1  0  0  0  0
  6  7  2  0  0  0  0
  7  8  1  0  0  0  0
  8 11  1  0  0  0  0
  9  8  2  0  0  0  0
 10  6  1  0  0  0  0
 12  5  1  0  0  0  0
 12 13  1  0  0  0  0
 13 21  1  0  0  0  0
 14 13  1  0  0  0  0
 14 16  1  0  0  0  0
 15 14  1  0  0  0  0
 16 17  1  0  0  0  0
 16 18  1  0  0  0  0
 18 19  1  0  0  0  0
 19 20  1  0  0  0  0
 21 22  1  0  0  0  0
 21 19  1  0  0  0  0
 23 25  1  0  0  0  0
 23 24  1  0  0  0  0
 26 23  1  0  0  0  0
 26 27  2  0  0  0  0
 27 31  1  0  0  0  0
 28 27  1  0  0  0  0
 29 30  2  0  0  0  0
 29 28  1  0  0  0  0
 30 26  1  0  0  0  0
 32 29  1  0  0  0  0
 33 34  2  0  0  0  0
 34 32  1  0  0  0  0
 34 35  1  0  0  0  0
 35 36  1  0  0  0  0
 37 34  1  0  0  0  0
 38 37  1  0  0  0  0
M  END
>  <minimizedAffinity>
-4.45296335

>  <minimizedRMSD>
0.799350619

$$$$
