
 OpenBabel03242520033D

 26 28  0  0  0  0  0  0  0  0999 V2000
   37.4670   29.9880   41.2080 C   0  0  0  0  0  0  0  0  0  0  0  0
   36.2070   29.4070   41.0520 C   0  0  0  0  0  0  0  0  0  0  0  0
   36.2630   28.1470   41.5580 C   0  0  0  0  0  0  0  0  0  0  0  0
   37.5280   27.9510   42.0170 N   0  0  0  0  0  0  0  0  0  0  0  0
   38.2380   29.0760   41.7950 N   0  0  0  0  0  0  0  0  0  0  0  0
   35.3650   29.9260   40.5950 H   0  0  0  0  0  0  0  0  0  0  0  0
   35.4340   27.4290   41.5860 H   0  0  0  0  0  0  0  0  0  0  0  0
   38.0520   26.7590   42.6380 C   0  0  0  0  0  3  0  0  0  0  0  0
   39.1390   27.0470   43.6600 C   0  0  0  0  0  3  0  0  0  0  0  0
   38.7300   27.1540   44.6770 H   0  0  0  0  0  0  0  0  0  0  0  0
   40.1680   25.9530   43.6800 C   0  0  0  0  0  3  0  0  0  0  0  0
   40.6180   25.9210   44.6930 H   0  0  0  0  0  0  0  0  0  0  0  0
   39.6460   24.6940   43.4440 O   0  0  0  0  0  0  0  0  0  0  0  0
   39.0330   24.5450   42.2200 C   0  0  0  0  0  3  0  0  0  0  0  0
   39.6490   23.9930   41.4850 H   0  0  0  0  0  0  0  0  0  0  0  0
   38.6840   25.8810   41.5840 C   0  0  0  0  0  3  0  0  0  0  0  0
   38.0460   25.6810   40.7230 H   0  0  0  0  0  0  0  0  0  0  0  0
   37.2910   33.2730   39.5860 C   0  0  0  0  0  0  0  0  0  0  0  0
   38.4920   33.8970   40.0030 C   0  0  0  0  0  0  0  0  0  0  0  0
   39.3410   33.1590   40.8440 C   0  0  0  0  0  0  0  0  0  0  0  0
   38.9690   31.9020   41.2060 N   0  0  0  0  0  0  0  0  0  0  0  0
   37.8170   31.3430   40.7870 C   0  0  0  0  0  0  0  0  0  0  0  0
   36.9630   32.0130   39.9760 N   0  0  0  0  0  0  0  0  0  0  0  0
   36.6120   33.8180   38.9350 H   0  0  0  0  0  0  0  0  0  0  0  0
   38.7240   34.9030   39.6750 H   0  0  0  0  0  0  0  0  0  0  0  0
   40.2690   33.6060   41.1820 H   0  0  0  0  0  0  0  0  0  0  0  0
  1  5  2  0  0  0  0
  2  1  1  0  0  0  0
  2  3  2  0  0  0  0
  3  7  1  0  0  0  0
  3  4  1  0  0  0  0
  4  8  1  0  0  0  0
  5  4  1  0  0  0  0
  6  2  1  0  0  0  0
  8  9  1  0  0  0  0
  9 11  1  0  0  0  0
  9 10  1  0  0  0  0
 11 12  1  0  0  0  0
 13 11  1  0  0  0  0
 14 13  1  0  0  0  0
 15 14  1  0  0  0  0
 16 14  1  0  0  0  0
 16  8  1  0  0  0  0
 17 16  1  0  0  0  0
 18 23  2  0  0  0  0
 18 19  1  0  0  0  0
 19 20  2  0  0  0  0
 20 26  1  0  0  0  0
 20 21  1  0  0  0  0
 22 21  2  0  0  0  0
 22  1  1  0  0  0  0
 23 22  1  0  0  0  0
 24 18  1  0  0  0  0
 25 19  1  0  0  0  0
M  END
>  <minimizedAffinity>
-4.92500162

$$$$

 OpenBabel03242520033D

 26 28  0  0  0  0  0  0  0  0999 V2000
   37.8830   29.2620   42.0060 C   0  0  0  0  0  0  0  0  0  0  0  0
   38.0490   29.0490   43.3770 C   0  0  0  0  0  0  0  0  0  0  0  0
   37.9270   27.7160   43.6090 C   0  0  0  0  0  0  0  0  0  0  0  0
   37.6910   27.1160   42.4110 N   0  0  0  0  0  0  0  0  0  0  0  0
   37.6680   28.0690   41.4580 N   0  0  0  0  0  0  0  0  0  0  0  0
   38.2410   29.8540   44.0850 H   0  0  0  0  0  0  0  0  0  0  0  0
   38.0070   27.2240   44.5870 H   0  0  0  0  0  0  0  0  0  0  0  0
   37.4930   25.7070   42.1700 C   0  0  0  0  0  3  0  0  0  0  0  0
   38.7870   24.9090   42.2080 C   0  0  0  0  0  3  0  0  0  0  0  0
   38.9900   24.5030   43.2120 H   0  0  0  0  0  0  0  0  0  0  0  0
   38.7450   23.7640   41.2370 C   0  0  0  0  0  3  0  0  0  0  0  0
   39.4130   22.9650   41.6180 H   0  0  0  0  0  0  0  0  0  0  0  0
   37.4920   23.1960   41.1000 O   0  0  0  0  0  0  0  0  0  0  0  0
   36.5190   24.0520   40.6370 C   0  0  0  0  0  3  0  0  0  0  0  0
   36.2690   23.8970   39.5710 H   0  0  0  0  0  0  0  0  0  0  0  0
   36.9160   25.5120   40.7880 C   0  0  0  0  0  3  0  0  0  0  0  0
   36.0350   26.1180   40.5780 H   0  0  0  0  0  0  0  0  0  0  0  0
   36.9800   32.1550   39.9400 C   0  0  0  0  0  0  0  0  0  0  0  0
   38.0730   33.0340   40.1320 C   0  0  0  0  0  0  0  0  0  0  0  0
   39.1050   32.6010   40.9800 C   0  0  0  0  0  0  0  0  0  0  0  0
   39.0000   31.3760   41.5630 N   0  0  0  0  0  0  0  0  0  0  0  0
   37.9430   30.5680   41.3540 C   0  0  0  0  0  0  0  0  0  0  0  0
   36.9210   30.9400   40.5460 N   0  0  0  0  0  0  0  0  0  0  0  0
   36.1650   32.4610   39.2890 H   0  0  0  0  0  0  0  0  0  0  0  0
   38.0890   33.9960   39.6350 H   0  0  0  0  0  0  0  0  0  0  0  0
   39.9580   33.2490   41.1490 H   0  0  0  0  0  0  0  0  0  0  0  0
  1  2  1  0  0  0  0
  2  3  2  0  0  0  0
  2  6  1  0  0  0  0
  3  7  1  0  0  0  0
  4  3  1  0  0  0  0
  5  1  2  0  0  0  0
  5  4  1  0  0  0  0
  8  9  1  0  0  0  0
  8  4  1  0  0  0  0
  9 10  1  0  0  0  0
 11 12  1  0  0  0  0
 11  9  1  0  0  0  0
 13 11  1  0  0  0  0
 14 16  1  0  0  0  0
 14 13  1  0  0  0  0
 15 14  1  0  0  0  0
 16  8  1  0  0  0  0
 17 16  1  0  0  0  0
 18 19  2  0  0  0  0
 18 23  1  0  0  0  0
 19 20  1  0  0  0  0
 20 26  1  0  0  0  0
 20 21  2  0  0  0  0
 22 21  1  0  0  0  0
 22  1  1  0  0  0  0
 23 22  2  0  0  0  0
 24 18  1  0  0  0  0
 25 19  1  0  0  0  0
M  END
>  <minimizedAffinity>
-4.76278543

$$$$

 OpenBabel03242520033D

 26 28  0  0  0  0  0  0  0  0999 V2000
   38.0030   27.8640   41.8030 C   0  0  0  0  0  0  0  0  0  0  0  0
   38.6890   28.5000   42.8410 C   0  0  0  0  0  0  0  0  0  0  0  0
   38.5760   29.8410   42.6550 C   0  0  0  0  0  0  0  0  0  0  0  0
   37.8380   30.0340   41.5280 N   0  0  0  0  0  0  0  0  0  0  0  0
   37.5030   28.8260   41.0300 N   0  0  0  0  0  0  0  0  0  0  0  0
   39.2040   27.9580   43.6330 H   0  0  0  0  0  0  0  0  0  0  0  0
   39.0050   30.6180   43.3010 H   0  0  0  0  0  0  0  0  0  0  0  0
   37.4630   31.2970   40.9410 C   0  0  0  0  0  3  0  0  0  0  0  0
   36.8700   31.1540   39.5490 C   0  0  0  0  0  3  0  0  0  0  0  0
   35.7720   31.0700   39.5760 H   0  0  0  0  0  0  0  0  0  0  0  0
   37.2310   32.3280   38.6840 C   0  0  0  0  0  3  0  0  0  0  0  0
   36.4340   32.4510   37.9220 H   0  0  0  0  0  0  0  0  0  0  0  0
   37.3030   33.5250   39.3720 O   0  0  0  0  0  0  0  0  0  0  0  0
   38.2460   33.5570   40.3750 C   0  0  0  0  0  3  0  0  0  0  0  0
   39.1600   34.1160   40.1010 H   0  0  0  0  0  0  0  0  0  0  0  0
   38.6910   32.1630   40.7910 C   0  0  0  0  0  3  0  0  0  0  0  0
   39.2850   32.2640   41.7000 H   0  0  0  0  0  0  0  0  0  0  0  0
   38.6610   24.2720   42.1500 C   0  0  0  0  0  0  0  0  0  0  0  0
   37.6600   23.6880   41.3350 C   0  0  0  0  0  0  0  0  0  0  0  0
   36.7740   24.5580   40.6810 C   0  0  0  0  0  0  0  0  0  0  0  0
   36.9230   25.8990   40.8610 N   0  0  0  0  0  0  0  0  0  0  0  0
   37.8890   26.4160   41.6450 C   0  0  0  0  0  0  0  0  0  0  0  0
   38.7680   25.6190   42.2990 N   0  0  0  0  0  0  0  0  0  0  0  0
   39.3620   23.6250   42.6700 H   0  0  0  0  0  0  0  0  0  0  0  0
   37.6010   22.6110   41.2380 H   0  0  0  0  0  0  0  0  0  0  0  0
   35.9970   24.1440   40.0490 H   0  0  0  0  0  0  0  0  0  0  0  0
  1  2  1  0  0  0  0
  2  6  1  0  0  0  0
  3  2  2  0  0  0  0
  3  7  1  0  0  0  0
  4  3  1  0  0  0  0
  5  4  1  0  0  0  0
  5  1  2  0  0  0  0
  8  4  1  0  0  0  0
  9 10  1  0  0  0  0
  9  8  1  0  0  0  0
 11 13  1  0  0  0  0
 11  9  1  0  0  0  0
 12 11  1  0  0  0  0
 13 14  1  0  0  0  0
 14 16  1  0  0  0  0
 15 14  1  0  0  0  0
 16  8  1  0  0  0  0
 16 17  1  0  0  0  0
 18 23  1  0  0  0  0
 18 24  1  0  0  0  0
 19 18  2  0  0  0  0
 20 21  2  0  0  0  0
 20 19  1  0  0  0  0
 21 22  1  0  0  0  0
 22  1  1  0  0  0  0
 22 23  2  0  0  0  0
 25 19  1  0  0  0  0
 26 20  1  0  0  0  0
M  END
>  <minimizedAffinity>
-4.61697865

$$$$

 OpenBabel03242520033D

 26 28  0  0  0  0  0  0  0  0999 V2000
   38.1610   30.1830   41.3320 C   0  0  0  0  0  0  0  0  0  0  0  0
   38.8250   29.6760   42.4520 C   0  0  0  0  0  0  0  0  0  0  0  0
   38.4900   28.3650   42.5770 C   0  0  0  0  0  0  0  0  0  0  0  0
   37.6390   28.0650   41.5590 N   0  0  0  0  0  0  0  0  0  0  0  0
   37.4540   29.1780   40.8200 N   0  0  0  0  0  0  0  0  0  0  0  0
   39.4830   30.2780   43.0760 H   0  0  0  0  0  0  0  0  0  0  0  0
   38.8470   27.6830   43.3590 H   0  0  0  0  0  0  0  0  0  0  0  0
   37.0220   26.7890   41.2900 C   0  0  0  0  0  3  0  0  0  0  0  0
   36.9980   25.8720   42.5020 C   0  0  0  0  0  3  0  0  0  0  0  0
   36.0640   25.9750   43.0770 H   0  0  0  0  0  0  0  0  0  0  0  0
   37.1440   24.4330   42.0960 C   0  0  0  0  0  3  0  0  0  0  0  0
   36.6440   23.8070   42.8630 H   0  0  0  0  0  0  0  0  0  0  0  0
   36.5410   24.1320   40.8890 O   0  0  0  0  0  0  0  0  0  0  0  0
   37.0340   24.8280   39.8090 C   0  0  0  0  0  3  0  0  0  0  0  0
   37.7070   24.2270   39.1700 H   0  0  0  0  0  0  0  0  0  0  0  0
   37.8140   26.0640   40.2280 C   0  0  0  0  0  3  0  0  0  0  0  0
   38.0080   26.6530   39.3310 H   0  0  0  0  0  0  0  0  0  0  0  0
   39.4550   33.5620   40.7320 C   0  0  0  0  0  0  0  0  0  0  0  0
   38.4300   34.1610   39.9600 C   0  0  0  0  0  0  0  0  0  0  0  0
   37.3060   33.3740   39.6620 C   0  0  0  0  0  0  0  0  0  0  0  0
   37.2630   32.0950   40.1270 N   0  0  0  0  0  0  0  0  0  0  0  0
   38.2610   31.5620   40.8590 C   0  0  0  0  0  0  0  0  0  0  0  0
   39.3660   32.2790   41.1720 N   0  0  0  0  0  0  0  0  0  0  0  0
   40.3390   34.1450   40.9790 H   0  0  0  0  0  0  0  0  0  0  0  0
   38.5330   35.1850   39.6240 H   0  0  0  0  0  0  0  0  0  0  0  0
   36.5020   33.8010   39.0740 H   0  0  0  0  0  0  0  0  0  0  0  0
  1  2  1  0  0  0  0
  2  3  2  0  0  0  0
  2  6  1  0  0  0  0
  3  7  1  0  0  0  0
  4  3  1  0  0  0  0
  5  1  2  0  0  0  0
  5  4  1  0  0  0  0
  8  4  1  0  0  0  0
  8  9  1  0  0  0  0
  9 10  1  0  0  0  0
 11  9  1  0  0  0  0
 11 12  1  0  0  0  0
 13 11  1  0  0  0  0
 14 16  1  0  0  0  0
 14 13  1  0  0  0  0
 15 14  1  0  0  0  0
 16  8  1  0  0  0  0
 17 16  1  0  0  0  0
 18 24  1  0  0  0  0
 18 23  1  0  0  0  0
 19 18  2  0  0  0  0
 20 19  1  0  0  0  0
 20 21  2  0  0  0  0
 21 22  1  0  0  0  0
 22 23  2  0  0  0  0
 22  1  1  0  0  0  0
 25 19  1  0  0  0  0
 26 20  1  0  0  0  0
M  END
>  <minimizedAffinity>
-4.58180952

$$$$

 OpenBabel03242520033D

 26 28  0  0  0  0  0  0  0  0999 V2000
   37.9720   27.9120   41.8810 C   0  0  0  0  0  0  0  0  0  0  0  0
   36.6160   28.0820   41.5920 C   0  0  0  0  0  0  0  0  0  0  0  0
   36.4240   29.3800   41.2390 C   0  0  0  0  0  0  0  0  0  0  0  0
   37.6320   30.0010   41.3070 N   0  0  0  0  0  0  0  0  0  0  0  0
   38.5520   29.0960   41.6970 N   0  0  0  0  0  0  0  0  0  0  0  0
   35.8880   27.2740   41.6570 H   0  0  0  0  0  0  0  0  0  0  0  0
   35.4660   29.8330   40.9520 H   0  0  0  0  0  0  0  0  0  0  0  0
   37.9140   31.3870   41.0190 C   0  0  0  0  0  3  0  0  0  0  0  0
   36.8140   32.0640   40.2180 C   0  0  0  0  0  3  0  0  0  0  0  0
   36.0750   32.5580   40.8690 H   0  0  0  0  0  0  0  0  0  0  0  0
   37.3810   33.0940   39.2830 C   0  0  0  0  0  3  0  0  0  0  0  0
   36.6040   33.8670   39.1100 H   0  0  0  0  0  0  0  0  0  0  0  0
   38.4860   33.7550   39.7870 O   0  0  0  0  0  0  0  0  0  0  0  0
   39.5620   32.9440   40.0720 C   0  0  0  0  0  3  0  0  0  0  0  0
   40.3670   33.0020   39.3160 H   0  0  0  0  0  0  0  0  0  0  0  0
   39.1670   31.4800   40.1810 C   0  0  0  0  0  3  0  0  0  0  0  0
   40.0200   30.9360   40.5860 H   0  0  0  0  0  0  0  0  0  0  0  0
   40.0830   25.5040   43.6700 C   0  0  0  0  0  0  0  0  0  0  0  0
   39.7210   24.2690   43.0810 C   0  0  0  0  0  0  0  0  0  0  0  0
   38.7470   24.2980   42.0700 C   0  0  0  0  0  0  0  0  0  0  0  0
   38.2100   25.4980   41.7160 N   0  0  0  0  0  0  0  0  0  0  0  0
   38.5820   26.6530   42.3010 C   0  0  0  0  0  0  0  0  0  0  0  0
   39.5160   26.6780   43.2810 N   0  0  0  0  0  0  0  0  0  0  0  0
   40.8340   25.5150   44.4550 H   0  0  0  0  0  0  0  0  0  0  0  0
   40.1910   23.3510   43.4130 H   0  0  0  0  0  0  0  0  0  0  0  0
   38.4480   23.3700   41.5970 H   0  0  0  0  0  0  0  0  0  0  0  0
  1 22  1  0  0  0  0
  2  6  1  0  0  0  0
  2  1  1  0  0  0  0
  3  4  1  0  0  0  0
  3  2  2  0  0  0  0
  4  5  1  0  0  0  0
  5  1  2  0  0  0  0
  7  3  1  0  0  0  0
  8  4  1  0  0  0  0
  9 10  1  0  0  0  0
  9  8  1  0  0  0  0
 11 13  1  0  0  0  0
 11  9  1  0  0  0  0
 12 11  1  0  0  0  0
 13 14  1  0  0  0  0
 14 16  1  0  0  0  0
 15 14  1  0  0  0  0
 16 17  1  0  0  0  0
 16  8  1  0  0  0  0
 18 24  1  0  0  0  0
 19 25  1  0  0  0  0
 19 18  2  0  0  0  0
 20 19  1  0  0  0  0
 21 20  2  0  0  0  0
 21 22  1  0  0  0  0
 22 23  2  0  0  0  0
 23 18  1  0  0  0  0
 26 20  1  0  0  0  0
M  END
>  <minimizedAffinity>
-4.53093529

$$$$

 OpenBabel03242520033D

 26 28  0  0  0  0  0  0  0  0999 V2000
   37.8510   27.7230   41.5290 C   0  0  0  0  0  0  0  0  0  0  0  0
   37.8810   28.3780   42.7630 C   0  0  0  0  0  0  0  0  0  0  0  0
   38.0730   29.7020   42.5280 C   0  0  0  0  0  0  0  0  0  0  0  0
   38.1610   29.8660   41.1800 N   0  0  0  0  0  0  0  0  0  0  0  0
   38.0240   28.6580   40.5970 N   0  0  0  0  0  0  0  0  0  0  0  0
   37.7640   27.8590   43.7140 H   0  0  0  0  0  0  0  0  0  0  0  0
   38.1430   30.4860   43.2920 H   0  0  0  0  0  0  0  0  0  0  0  0
   38.3650   31.1040   40.4680 C   0  0  0  0  0  3  0  0  0  0  0  0
   39.3450   32.0360   41.1620 C   0  0  0  0  0  3  0  0  0  0  0  0
   40.3750   31.8920   40.8010 H   0  0  0  0  0  0  0  0  0  0  0  0
   38.9680   33.4740   40.9480 C   0  0  0  0  0  3  0  0  0  0  0  0
   39.8920   34.0850   41.0080 H   0  0  0  0  0  0  0  0  0  0  0  0
   38.4120   33.7260   39.7080 O   0  0  0  0  0  0  0  0  0  0  0  0
   37.2460   33.0400   39.4490 C   0  0  0  0  0  3  0  0  0  0  0  0
   36.3390   33.6670   39.5420 H   0  0  0  0  0  0  0  0  0  0  0  0
   37.0570   31.8540   40.3810 C   0  0  0  0  0  3  0  0  0  0  0  0
   36.2240   31.2630   40.0000 H   0  0  0  0  0  0  0  0  0  0  0  0
   36.6180   24.5140   40.2510 C   0  0  0  0  0  0  0  0  0  0  0  0
   37.3210   23.5690   41.0390 C   0  0  0  0  0  0  0  0  0  0  0  0
   38.2130   24.0700   42.0010 C   0  0  0  0  0  0  0  0  0  0  0  0
   38.3510   25.4190   42.1230 N   0  0  0  0  0  0  0  0  0  0  0  0
   37.6630   26.2850   41.3540 C   0  0  0  0  0  0  0  0  0  0  0  0
   36.7920   25.8520   40.4110 N   0  0  0  0  0  0  0  0  0  0  0  0
   35.9210   24.1580   39.4980 H   0  0  0  0  0  0  0  0  0  0  0  0
   37.1610   22.5090   40.8860 H   0  0  0  0  0  0  0  0  0  0  0  0
   38.7660   23.3750   42.6210 H   0  0  0  0  0  0  0  0  0  0  0  0
  1  2  1  0  0  0  0
  2  6  1  0  0  0  0
  3  2  2  0  0  0  0
  3  7  1  0  0  0  0
  4  3  1  0  0  0  0
  5  4  1  0  0  0  0
  5  1  2  0  0  0  0
  8  9  1  0  0  0  0
  8  4  1  0  0  0  0
 10  9  1  0  0  0  0
 11 12  1  0  0  0  0
 11  9  1  0  0  0  0
 13 11  1  0  0  0  0
 14 15  1  0  0  0  0
 14 13  1  0  0  0  0
 14 16  1  0  0  0  0
 16  8  1  0  0  0  0
 17 16  1  0  0  0  0
 18 23  2  0  0  0  0
 18 19  1  0  0  0  0
 19 20  2  0  0  0  0
 20 21  1  0  0  0  0
 20 26  1  0  0  0  0
 22  1  1  0  0  0  0
 22 21  2  0  0  0  0
 23 22  1  0  0  0  0
 24 18  1  0  0  0  0
 25 19  1  0  0  0  0
M  END
>  <minimizedAffinity>
-4.46437263

$$$$

 OpenBabel03242520033D

 26 28  0  0  0  0  0  0  0  0999 V2000
   38.0620   31.0480   40.9210 C   0  0  0  0  0  0  0  0  0  0  0  0
   37.1740   31.8980   40.2580 C   0  0  0  0  0  0  0  0  0  0  0  0
   37.9050   32.8560   39.6300 C   0  0  0  0  0  0  0  0  0  0  0  0
   39.2150   32.6070   39.8970 N   0  0  0  0  0  0  0  0  0  0  0  0
   39.2860   31.5100   40.6790 N   0  0  0  0  0  0  0  0  0  0  0  0
   36.0930   31.7630   40.2780 H   0  0  0  0  0  0  0  0  0  0  0  0
   37.5020   33.6760   39.0210 H   0  0  0  0  0  0  0  0  0  0  0  0
   40.3540   33.3650   39.4400 C   0  0  0  0  0  3  0  0  0  0  0  0
   40.8480   32.9290   38.0700 C   0  0  0  0  0  3  0  0  0  0  0  0
   40.3870   33.5170   37.2610 H   0  0  0  0  0  0  0  0  0  0  0  0
   42.3400   33.0710   37.9630 C   0  0  0  0  0  3  0  0  0  0  0  0
   42.5940   33.2350   36.8960 H   0  0  0  0  0  0  0  0  0  0  0  0
   42.8480   34.1530   38.6580 O   0  0  0  0  0  0  0  0  0  0  0  0
   42.6190   34.1250   40.0150 C   0  0  0  0  0  3  0  0  0  0  0  0
   43.5090   33.8350   40.6040 H   0  0  0  0  0  0  0  0  0  0  0  0
   41.5080   33.1580   40.3920 C   0  0  0  0  0  3  0  0  0  0  0  0
   41.2630   33.3280   41.4400 H   0  0  0  0  0  0  0  0  0  0  0  0
   36.3150   28.0040   41.9890 C   0  0  0  0  0  0  0  0  0  0  0  0
   36.9310   27.7040   43.2280 C   0  0  0  0  0  0  0  0  0  0  0  0
   37.9460   28.5700   43.6680 C   0  0  0  0  0  0  0  0  0  0  0  0
   38.2770   29.6360   42.8900 N   0  0  0  0  0  0  0  0  0  0  0  0
   37.6660   29.8870   41.7160 C   0  0  0  0  0  0  0  0  0  0  0  0
   36.6820   29.0830   41.2470 N   0  0  0  0  0  0  0  0  0  0  0  0
   35.5260   27.3530   41.6200 H   0  0  0  0  0  0  0  0  0  0  0  0
   36.6160   26.8370   43.7940 H   0  0  0  0  0  0  0  0  0  0  0  0
   38.4380   28.3700   44.6130 H   0  0  0  0  0  0  0  0  0  0  0  0
  1 22  1  0  0  0  0
  2  6  1  0  0  0  0
  2  1  1  0  0  0  0
  3  4  1  0  0  0  0
  3  2  2  0  0  0  0
  4  5  1  0  0  0  0
  5  1  2  0  0  0  0
  7  3  1  0  0  0  0
  8  4  1  0  0  0  0
  8 16  1  0  0  0  0
  9  8  1  0  0  0  0
 10  9  1  0  0  0  0
 11  9  1  0  0  0  0
 11 13  1  0  0  0  0
 12 11  1  0  0  0  0
 13 14  1  0  0  0  0
 14 16  1  0  0  0  0
 14 15  1  0  0  0  0
 16 17  1  0  0  0  0
 18 19  1  0  0  0  0
 19 20  2  0  0  0  0
 19 25  1  0  0  0  0
 20 26  1  0  0  0  0
 21 20  1  0  0  0  0
 22 21  2  0  0  0  0
 23 22  1  0  0  0  0
 23 18  2  0  0  0  0
 24 18  1  0  0  0  0
M  END
>  <minimizedAffinity>
-4.44530106

$$$$

 OpenBabel03242520033D

 26 28  0  0  0  0  0  0  0  0999 V2000
   39.1070   31.7060   39.2500 C   0  0  0  0  0  0  0  0  0  0  0  0
   37.8120   31.7020   38.7260 C   0  0  0  0  0  0  0  0  0  0  0  0
   37.0140   31.0210   39.5900 C   0  0  0  0  0  0  0  0  0  0  0  0
   37.7960   30.6120   40.6250 N   0  0  0  0  0  0  0  0  0  0  0  0
   39.0550   31.0360   40.3990 N   0  0  0  0  0  0  0  0  0  0  0  0
   37.5500   32.1810   37.7830 H   0  0  0  0  0  0  0  0  0  0  0  0
   35.9390   30.8410   39.4650 H   0  0  0  0  0  0  0  0  0  0  0  0
   37.3800   29.8530   41.7790 C   0  0  0  0  0  3  0  0  0  0  0  0
   38.5080   29.6030   42.7660 C   0  0  0  0  0  3  0  0  0  0  0  0
   38.5540   30.3810   43.5450 H   0  0  0  0  0  0  0  0  0  0  0  0
   38.3520   28.2700   43.4410 C   0  0  0  0  0  3  0  0  0  0  0  0
   38.8380   28.3290   44.4370 H   0  0  0  0  0  0  0  0  0  0  0  0
   37.0360   27.9120   43.6680 O   0  0  0  0  0  0  0  0  0  0  0  0
   36.2660   27.7950   42.5330 C   0  0  0  0  0  3  0  0  0  0  0  0
   36.0840   26.7470   42.2320 H   0  0  0  0  0  0  0  0  0  0  0  0
   36.8960   28.4930   41.3370 C   0  0  0  0  0  3  0  0  0  0  0  0
   36.1530   28.5170   40.5390 H   0  0  0  0  0  0  0  0  0  0  0  0
   41.7170   34.1540   38.4460 C   0  0  0  0  0  0  0  0  0  0  0  0
   42.4350   33.5200   37.4030 C   0  0  0  0  0  0  0  0  0  0  0  0
   41.9950   32.2480   37.0000 C   0  0  0  0  0  0  0  0  0  0  0  0
   40.9160   31.7030   37.6250 N   0  0  0  0  0  0  0  0  0  0  0  0
   40.2600   32.3400   38.6140 C   0  0  0  0  0  0  0  0  0  0  0  0
   40.6450   33.5670   39.0400 N   0  0  0  0  0  0  0  0  0  0  0  0
   42.0330   35.1380   38.7810 H   0  0  0  0  0  0  0  0  0  0  0  0
   43.2860   34.0150   36.9510 H   0  0  0  0  0  0  0  0  0  0  0  0
   42.5210   31.7350   36.2040 H   0  0  0  0  0  0  0  0  0  0  0  0
  1  5  2  0  0  0  0
  2  1  1  0  0  0  0
  2  3  2  0  0  0  0
  3  4  1  0  0  0  0
  4  8  1  0  0  0  0
  5  4  1  0  0  0  0
  6  2  1  0  0  0  0
  7  3  1  0  0  0  0
  8  9  1  0  0  0  0
  9 11  1  0  0  0  0
  9 10  1  0  0  0  0
 11 13  1  0  0  0  0
 11 12  1  0  0  0  0
 14 13  1  0  0  0  0
 15 14  1  0  0  0  0
 16  8  1  0  0  0  0
 16 14  1  0  0  0  0
 17 16  1  0  0  0  0
 18 24  1  0  0  0  0
 18 23  1  0  0  0  0
 19 18  2  0  0  0  0
 20 19  1  0  0  0  0
 20 21  2  0  0  0  0
 21 22  1  0  0  0  0
 22 23  2  0  0  0  0
 22  1  1  0  0  0  0
 25 19  1  0  0  0  0
 26 20  1  0  0  0  0
M  END
>  <minimizedAffinity>
-4.41291189

$$$$

 OpenBabel03242520033D

 26 28  0  0  0  0  0  0  0  0999 V2000
   37.1050   27.4500   41.1610 C   0  0  0  0  0  0  0  0  0  0  0  0
   36.2950   28.5230   41.5410 C   0  0  0  0  0  0  0  0  0  0  0  0
   35.4930   28.8340   40.4890 C   0  0  0  0  0  0  0  0  0  0  0  0
   35.7980   27.9740   39.4800 N   0  0  0  0  0  0  0  0  0  0  0  0
   36.7740   27.1480   39.9080 N   0  0  0  0  0  0  0  0  0  0  0  0
   36.3460   28.9860   42.5260 H   0  0  0  0  0  0  0  0  0  0  0  0
   34.7410   29.6330   40.4690 H   0  0  0  0  0  0  0  0  0  0  0  0
   35.2000   27.9290   38.1680 C   0  0  0  0  0  3  0  0  0  0  0  0
   36.1150   28.4630   37.0780 C   0  0  0  0  0  3  0  0  0  0  0  0
   36.7120   27.6630   36.6130 H   0  0  0  0  0  0  0  0  0  0  0  0
   35.3270   29.1510   35.9990 C   0  0  0  0  0  3  0  0  0  0  0  0
   35.9010   29.0750   35.0530 H   0  0  0  0  0  0  0  0  0  0  0  0
   34.0940   28.5740   35.7570 O   0  0  0  0  0  0  0  0  0  0  0  0
   33.2380   28.5710   36.8350 C   0  0  0  0  0  3  0  0  0  0  0  0
   32.4470   29.3410   36.7690 H   0  0  0  0  0  0  0  0  0  0  0  0
   33.9660   28.8000   38.1500 C   0  0  0  0  0  3  0  0  0  0  0  0
   33.2620   28.6000   38.9570 H   0  0  0  0  0  0  0  0  0  0  0  0
   39.7430   27.0080   43.6700 C   0  0  0  0  0  0  0  0  0  0  0  0
   39.9950   25.6150   43.6220 C   0  0  0  0  0  0  0  0  0  0  0  0
   39.2380   24.8550   42.7150 C   0  0  0  0  0  0  0  0  0  0  0  0
   38.3170   25.4910   41.9410 N   0  0  0  0  0  0  0  0  0  0  0  0
   38.1080   26.8200   42.0170 C   0  0  0  0  0  0  0  0  0  0  0  0
   38.8100   27.5960   42.8760 N   0  0  0  0  0  0  0  0  0  0  0  0
   40.3120   27.6230   44.3630 H   0  0  0  0  0  0  0  0  0  0  0  0
   40.7450   25.1760   44.2690 H   0  0  0  0  0  0  0  0  0  0  0  0
   39.4060   23.7860   42.6520 H   0  0  0  0  0  0  0  0  0  0  0  0
  1  2  1  0  0  0  0
  1 22  1  0  0  0  0
  2  6  1  0  0  0  0
  3  2  2  0  0  0  0
  4  5  1  0  0  0  0
  4  3  1  0  0  0  0
  5  1  2  0  0  0  0
  7  3  1  0  0  0  0
  8  4  1  0  0  0  0
  9  8  1  0  0  0  0
 10  9  1  0  0  0  0
 11  9  1  0  0  0  0
 12 11  1  0  0  0  0
 13 11  1  0  0  0  0
 13 14  1  0  0  0  0
 14 16  1  0  0  0  0
 15 14  1  0  0  0  0
 16  8  1  0  0  0  0
 16 17  1  0  0  0  0
 18 24  1  0  0  0  0
 19 18  1  0  0  0  0
 19 25  1  0  0  0  0
 20 19  2  0  0  0  0
 21 22  2  0  0  0  0
 21 20  1  0  0  0  0
 22 23  1  0  0  0  0
 23 18  2  0  0  0  0
 26 20  1  0  0  0  0
M  END
>  <minimizedAffinity>
-4.15660429

$$$$
