
 OpenBabel03252507463D

 38 40  0  0  0  0  0  0  0  0999 V2000
   47.5480   34.5850   40.8170 C   0  0  0  0  0  0  0  0  0  0  0  0
   46.9100   34.0520   40.0920 H   0  0  0  0  0  0  0  0  0  0  0  0
   47.8780   35.5320   40.3180 H   0  0  0  0  0  0  0  0  0  0  0  0
   48.7760   33.8280   41.1320 C   0  0  0  0  0  0  0  0  0  0  0  0
   49.0310   32.7040   40.3520 C   0  0  0  0  0  0  0  0  0  0  0  0
   50.1640   31.9490   40.5860 C   0  0  0  0  0  0  0  0  0  0  0  0
   51.0020   32.3360   41.5890 N   0  0  0  0  0  0  0  0  0  0  0  0
   50.7220   33.4370   42.3290 C   0  0  0  0  0  0  0  0  0  0  0  0
   49.6350   34.1450   42.0880 N   0  0  0  0  0  0  0  0  0  0  0  0
   50.3690   31.0630   39.9740 H   0  0  0  0  0  0  0  0  0  0  0  0
   51.4360   33.6840   43.1100 H   0  0  0  0  0  0  0  0  0  0  0  0
   47.8900   32.2380   39.0370 S   0  0  0  0  0  0  0  0  0  0  0  0
   46.4920   31.2740   39.6950 C   0  0  0  0  0  3  0  0  0  0  0  0
   46.9190   29.8320   39.7580 C   0  0  0  0  0  3  0  0  0  0  0  0
   47.8240   29.6670   39.1350 H   0  0  0  0  0  0  0  0  0  0  0  0
   45.8420   28.9590   39.1900 C   0  0  0  0  0  3  0  0  0  0  0  0
   45.8520   29.0690   38.0890 H   0  0  0  0  0  0  0  0  0  0  0  0
   44.6400   29.3840   39.7550 O   0  0  0  0  0  0  0  0  0  0  0  0
   44.2060   30.5510   39.1560 C   0  0  0  0  0  3  0  0  0  0  0  0
   43.5870   31.1410   39.8650 H   0  0  0  0  0  0  0  0  0  0  0  0
   45.3510   31.4270   38.7170 C   0  0  0  0  0  3  0  0  0  0  0  0
   45.0630   32.5110   38.7620 H   0  0  0  0  0  0  0  0  0  0  0  0
   46.7530   34.9420   42.0220 C   0  0  0  0  0  0  0  0  0  0  0  0
   46.9500   34.1800   42.8120 H   0  0  0  0  0  0  0  0  0  0  0  0
   47.0640   35.9250   42.3900 H   0  0  0  0  0  0  0  0  0  0  0  0
   45.2760   34.9350   41.7990 C   0  0  0  0  0  0  0  0  0  0  0  0
   44.4080   35.6000   42.7160 C   0  0  0  0  0  0  0  0  0  0  0  0
   42.7460   35.2970   42.0050 S   0  0  0  0  0  0  0  0  0  0  0  0
   43.5100   34.3100   40.5690 C   0  0  0  0  0  0  0  0  0  0  0  0
   44.6240   34.3660   40.8140 N   0  0  0  0  0  0  0  0  0  0  0  0
   44.7020   36.1400   43.6030 H   0  0  0  0  0  0  0  0  0  0  0  0
   42.7450   33.7360   39.5600 O   0  0  0  0  0  0  0  0  0  0  0  0
   40.7870   33.9710   37.8010 O   0  0  0  0  0  0  0  0  0  0  0  0
   41.8100   34.7740   38.5950 P   0  0  0  0  0  0  0  0  0  0  0  0
   41.0100   35.8550   39.6240 O   0  0  0  0  0  0  0  0  0  0  0  0
   40.4080   35.3790   40.2350 H   0  0  0  0  0  0  0  0  0  0  0  0
   42.8070   35.6640   37.5650 O   0  0  0  0  0  0  0  0  0  0  0  0
   42.4490   35.5900   36.6310 H   0  0  0  0  0  0  0  0  0  0  0  0
  1  4  1  0  0  0  0
  1 23  1  0  0  0  0
  2  1  1  0  0  0  0
  3  1  1  0  0  0  0
  4  9  1  0  0  0  0
  5  6  1  0  0  0  0
  5  4  2  0  0  0  0
  6  7  2  0  0  0  0
  7  8  1  0  0  0  0
  8 11  1  0  0  0  0
  9  8  2  0  0  0  0
 10  6  1  0  0  0  0
 12 13  1  0  0  0  0
 12  5  1  0  0  0  0
 13 14  1  0  0  0  0
 15 14  1  0  0  0  0
 16 18  1  0  0  0  0
 16 14  1  0  0  0  0
 17 16  1  0  0  0  0
 19 18  1  0  0  0  0
 19 20  1  0  0  0  0
 21 22  1  0  0  0  0
 21 19  1  0  0  0  0
 21 13  1  0  0  0  0
 23 25  1  0  0  0  0
 23 24  1  0  0  0  0
 26 23  1  0  0  0  0
 26 27  2  0  0  0  0
 27 31  1  0  0  0  0
 28 27  1  0  0  0  0
 29 30  2  0  0  0  0
 29 28  1  0  0  0  0
 30 26  1  0  0  0  0
 32 29  1  0  0  0  0
 33 34  2  0  0  0  0
 34 32  1  0  0  0  0
 34 35  1  0  0  0  0
 35 36  1  0  0  0  0
 37 34  1  0  0  0  0
 38 37  1  0  0  0  0
M  END
>  <minimizedAffinity>
-4.38131237

>  <minimizedRMSD>
0.83727771

$$$$
