REMARK  Name = 
REMARK  1 active torsions:
REMARK  status: ('A' for Active; 'I' for Inactive)
REMARK    1  A    between atoms: C_7  and  C_14
REMARK                            x       y       z     vdW  Elec       q    Type
REMARK                         _______ _______ _______ _____ _____    ______ ____
ROOT
ATOM      1  C   UNL     1      44.668  36.076  44.286  0.00  0.00    +0.000 A 
ATOM      2  C   UNL     1      45.480  35.584  43.236  0.00  0.00    +0.000 A 
ATOM      3  C   UNL     1      46.178  34.383  43.471  0.00  0.00    +0.000 A 
ATOM      4  N   UNL     1      46.036  33.770  44.678  0.00  0.00    +0.000 NA
ATOM      5  C   UNL     1      45.259  34.267  45.646  0.00  0.00    +0.000 A 
ATOM      6  N   UNL     1      44.568  35.427  45.455  0.00  0.00    +0.000 NA
ATOM      7  C   UNL     1      46.162  32.583  47.128  0.00  0.00    +0.000 C 
ATOM      8  O   UNL     1      47.106  32.290  46.363  0.00  0.00    +0.000 OA
ATOM      9  N   UNL     1      45.171  33.561  46.874  0.00  0.00    +0.000 N 
ATOM     10  H   UNL     1      44.155  36.998  44.057  0.00  0.00    +0.000 HD
ATOM     11  H   UNL     1      45.591  36.067  42.282  0.00  0.00    +0.000 HD
ATOM     12  H   UNL     1      46.825  33.917  42.737  0.00  0.00    +0.000 HD
ATOM     13  H   UNL     1      44.418  33.741  47.569  0.00  0.00    +0.000 HD
ENDROOT
BRANCH   7  14
ATOM     14  C   UNL     1      46.074  31.831  48.427  0.00  0.00    +0.000 C 
ATOM     15  C   UNL     1      44.669  31.681  48.922  0.00  0.00    +0.000 C 
ATOM     16  H   UNL     1      44.091  31.192  48.121  0.00  0.00    +0.000 HD
ATOM     17  C   UNL     1      44.730  30.747  50.112  0.00  0.00    +0.000 C 
ATOM     18  H   UNL     1      44.188  31.226  50.964  0.00  0.00    +0.000 HD
ATOM     19  O   UNL     1      46.019  30.525  50.577  0.00  0.00    +0.000 OA
ATOM     20  C   UNL     1      46.665  31.747  50.783  0.00  0.00    +0.000 C 
ATOM     21  H   UNL     1      47.596  31.546  51.318  0.00  0.00    +0.000 HD
ATOM     22  C   UNL     1      46.986  32.428  49.469  0.00  0.00    +0.000 C 
ATOM     23  H   UNL     1      46.748  33.520  49.514  0.00  0.00    +0.000 HD
ENDBRANCH   7  14
TORSDOF 1
