
     RDKit          3D

 38 40  0  0  0  0  0  0  0  0999 V2000
   46.6888   34.7619   41.9730 C   0  0  0  0  0  0  0  0  0  0  0  0
   47.9302   35.3558   41.8882 C   0  0  0  0  0  0  0  0  0  0  0  0
   48.6648   35.2058   40.7319 C   0  0  0  0  0  0  0  0  0  0  0  0
   48.1524   34.4733   39.6919 C   0  0  0  0  0  0  0  0  0  0  0  0
   46.9209   33.8676   39.7395 C   0  0  0  0  0  0  0  0  0  0  0  0
   46.1967   34.0389   40.9312 C   0  0  0  0  0  0  0  0  0  0  0  0
   44.5087   36.1149   44.7517 C   0  0  0  0  0  0  0  0  0  0  0  0
   45.1628   36.0428   43.5064 C   0  0  0  0  0  0  0  0  0  0  0  0
   45.9593   34.9558   43.2234 C   0  0  0  0  0  0  0  0  0  0  0  0
   46.0679   33.9912   44.1928 N   0  0  0  0  0  0  0  0  0  0  0  0
   45.4326   34.0767   45.3832 C   0  0  0  0  0  0  0  0  0  0  0  0
   44.6477   35.1489   45.6607 N   0  0  0  0  0  0  0  0  0  0  0  0
   43.5972   33.8611   40.7937 C   0  0  0  0  0  0  0  0  0  0  0  0
   43.2384   34.8895   40.2178 O   0  0  0  0  0  0  0  0  0  0  0  0
   44.9187   33.4637   41.1118 N   0  0  0  0  0  0  0  0  0  0  0  0
   48.3361   35.9358   42.7110 H   0  0  0  0  0  0  0  0  0  0  0  0
   49.6296   35.6842   40.7032 H   0  0  0  0  0  0  0  0  0  0  0  0
   48.7637   34.3823   38.8043 H   0  0  0  0  0  0  0  0  0  0  0  0
   46.4970   33.2900   38.9414 H   0  0  0  0  0  0  0  0  0  0  0  0
   43.9178   37.0251   44.8333 H   0  0  0  0  0  0  0  0  0  0  0  0
   45.0874   36.7888   42.7391 H   0  0  0  0  0  0  0  0  0  0  0  0
   45.5365   33.3090   46.1192 H   0  0  0  0  0  0  0  0  0  0  0  0
   45.1746   32.5636   41.5915 H   0  0  0  0  0  0  0  0  0  0  0  0
   42.5714   32.8540   41.2464 C   0  0  1  0  0  0  0  0  0  0  0  0
   41.5529   32.6391   40.1199 C   0  0  1  0  0  0  0  0  0  0  0  0
   41.0618   33.6146   39.9610 H   0  0  0  0  0  0  0  0  0  0  0  0
   40.5942   31.5862   40.6310 C   0  0  1  0  0  0  0  0  0  0  0  0
   39.5976   32.0894   40.7434 H   0  0  0  0  0  0  0  0  0  0  0  0
   40.9077   31.0853   41.8698 O   0  0  0  0  0  0  0  0  0  0  0  0
   42.1822   30.5256   41.9252 C   0  0  1  0  0  0  0  0  0  0  0  0
   42.3961   30.3385   43.0044 H   0  0  0  0  0  0  0  0  0  0  0  0
   43.2354   31.5025   41.4349 C   0  0  1  0  0  0  0  0  0  0  0  0
   43.6097   31.0949   40.4704 H   0  0  0  0  0  0  0  0  0  0  0  0
   42.0627   33.1349   42.1664 H   0  0  0  0  0  0  0  0  0  0  0  0
   42.0875   32.3145   39.2032 H   0  0  0  0  0  0  0  0  0  0  0  0
   40.4195   30.7942   39.8748 H   0  0  0  0  0  0  0  0  0  0  0  0
   42.2502   29.5411   41.4320 H   0  0  0  0  0  0  0  0  0  0  0  0
   44.0946   31.5652   42.1314 H   0  0  0  0  0  0  0  0  0  0  0  0
  1  9  1  0
  2  1  2  0
  3  2  1  0
  4  5  1  0
  4  3  2  0
  5  6  2  0
  6 15  1  0
  6  1  1  0
  7 12  2  0
  8  7  1  0
  9  8  2  0
  9 10  1  0
 10 11  2  0
 11 12  1  0
 13 15  1  0
 14 13  2  0
  2 16  1  0
  3 17  1  0
  4 18  1  0
  5 19  1  0
  7 20  1  0
  8 21  1  0
 11 22  1  0
 15 23  1  0
 24 25  1  0
 25 26  1  6
 25 27  1  0
 27 28  1  1
 27 29  1  0
 29 30  1  0
 30 31  1  1
 30 32  1  0
 32 33  1  6
 32 24  1  0
 24 34  1  1
 25 35  1  0
 27 36  1  0
 30 37  1  0
 32 38  1  0
 13 24  1  0
M  ISO  8  16  14  17  14  18  14  19  14  20  14  21  14  22  14  26  15
M  ISO  3  28  15  31  15  33  15
M  END
>  <DihAtoms>  (1) 
14,12,23,24

>  <DihDeg>  (1) 
59.69800612487544

$$$$
