
 OpenBabel03242518363D

 36 39  0  0  1  0  0  0  0  0999 V2000
   47.4110   33.7720   39.7400 C   0  0  0  0  0  0  0  0  0  0  0  0
   48.3220   34.5790   39.0600 C   0  0  0  0  0  0  0  0  0  0  0  0
   48.2010   34.3360   37.7000 C   0  0  0  0  0  0  0  0  0  0  0  0
   47.2150   33.3870   37.6260 C   0  0  0  0  0  0  0  0  0  0  0  0
   46.7620   33.0640   38.8180 O   0  0  0  0  0  0  0  0  0  0  0  0
   48.9820   35.2610   39.6050 H   0  0  0  0  0  0  0  0  0  0  0  0
   48.7890   34.8270   36.9370 H   0  0  0  0  0  0  0  0  0  0  0  0
   46.7180   32.8010   36.3680 C   0  0  2  0  0  0  0  0  0  0  0  0
   46.4190   31.3560   36.3050 C   0  0  0  0  0  0  0  0  0  0  0  0
   47.7070   31.8210   35.7040 C   0  0  1  0  0  0  0  0  0  0  0  0
   46.2580   33.5460   35.6920 H   0  0  0  0  0  0  0  0  0  0  0  0
   45.5540   31.0450   35.7250 H   0  0  0  0  0  0  0  0  0  0  0  0
   46.5350   30.7540   37.2430 H   0  0  0  0  0  0  0  0  0  0  0  0
   48.6470   31.6030   36.2430 H   0  0  0  0  0  0  0  0  0  0  0  0
   47.7650   31.9580   34.2120 C   0  0  0  0  0  0  0  0  0  0  0  0
   47.7810   30.5990   33.5610 C   0  0  0  0  0  0  0  0  0  0  0  0
   46.8320   30.0860   33.8040 H   0  0  0  0  0  0  0  0  0  0  0  0
   47.8550   30.7070   32.0510 C   0  0  0  0  0  0  0  0  0  0  0  0
   46.9540   31.0990   31.5810 H   0  0  0  0  0  0  0  0  0  0  0  0
   49.0210   31.4230   31.7720 O   0  0  0  0  0  0  0  0  0  0  0  0
   48.8070   32.7400   32.1730 C   0  0  0  0  0  0  0  0  0  0  0  0
   47.7660   32.9930   31.8300 H   0  0  0  0  0  0  0  0  0  0  0  0
   48.8400   32.8630   33.7020 C   0  0  0  0  0  0  0  0  0  0  0  0
   49.8570   32.5880   34.0180 H   0  0  0  0  0  0  0  0  0  0  0  0
   47.1380   33.6410   41.1180 O   0  0  0  0  0  0  0  0  0  0  0  0
   47.3150   34.7570   41.9710 C   0  0  0  0  0  0  0  0  0  0  0  0
   48.2150   35.5660   41.6480 O   0  0  0  0  0  0  0  0  0  0  0  0
   46.4420   34.8220   43.0960 C   0  0  0  0  0  0  0  0  0  0  0  0
   45.5570   35.8650   43.0840 C   0  0  0  0  0  0  0  0  0  0  0  0
   44.6700   35.9970   44.1520 C   0  0  0  0  0  0  0  0  0  0  0  0
   44.7330   35.0750   45.1530 N   0  0  0  0  0  0  0  0  0  0  0  0
   45.6120   34.0760   45.1190 C   0  0  0  0  0  0  0  0  0  0  0  0
   46.4560   33.9600   44.0950 N   0  0  0  0  0  0  0  0  0  0  0  0
   45.4920   36.6050   42.2990 H   0  0  0  0  0  0  0  0  0  0  0  0
   43.9470   36.8030   44.1960 H   0  0  0  0  0  0  0  0  0  0  0  0
   45.5760   33.4010   45.9690 H   0  0  0  0  0  0  0  0  0  0  0  0
  1 25  1  0  0  0  0
  2  6  1  0  0  0  0
  2  1  2  0  0  0  0
  3  2  1  0  0  0  0
  4  3  2  0  0  0  0
  4  5  1  0  0  0  0
  5  1  1  0  0  0  0
  7  3  1  0  0  0  0
  8 11  1  6  0  0  0
  8  4  1  0  0  0  0
  9  8  1  0  0  0  0
  9 13  1  0  0  0  0
 10 14  1  1  0  0  0
 10  9  1  0  0  0  0
 10  8  1  0  0  0  0
 12  9  1  0  0  0  0
 15 10  1  0  0  0  0
 16 17  1  0  0  0  0
 16 15  1  0  0  0  0
 18 16  1  0  0  0  0
 19 18  1  0  0  0  0
 20 18  1  0  0  0  0
 20 21  1  0  0  0  0
 21 23  1  0  0  0  0
 22 21  1  0  0  0  0
 23 24  1  0  0  0  0
 23 15  1  0  0  0  0
 25 26  1  0  0  0  0
 26 28  1  0  0  0  0
 27 26  2  0  0  0  0
 28 33  1  0  0  0  0
 29 28  2  0  0  0  0
 29 30  1  0  0  0  0
 30 35  1  0  0  0  0
 30 31  2  0  0  0  0
 32 31  1  0  0  0  0
 32 36  1  0  0  0  0
 33 32  2  0  0  0  0
 34 29  1  0  0  0  0
M  END
>  <minimizedAffinity>
-5.50735855

>  <minimizedRMSD>
1.19811583

$$$$
