
 OpenBabel03252501183D

 22 23  0  0  0  0  0  0  0  0999 V2000
   39.3240   25.1800   41.8550 C   0  0  0  0  0  0  0  0  0  0  0  0
   38.1300   25.9600   41.9060 C   0  0  0  0  0  0  0  0  0  0  0  0
   38.1600   27.0000   42.8460 C   0  0  0  0  0  0  0  0  0  0  0  0
   39.2750   27.1890   43.6140 N   0  0  0  0  0  0  0  0  0  0  0  0
   40.3720   26.4100   43.5110 C   0  0  0  0  0  0  0  0  0  0  0  0
   40.3880   25.4030   42.6260 N   0  0  0  0  0  0  0  0  0  0  0  0
   39.4560   24.3470   41.1810 H   0  0  0  0  0  0  0  0  0  0  0  0
   41.0990   26.7730   44.2250 H   0  0  0  0  0  0  0  0  0  0  0  0
   37.0160   25.6300   41.0000 C   0  0  0  0  0  3  0  0  0  0  0  0
   37.4490   25.9390   39.5980 C   0  0  0  0  0  3  0  0  0  0  0  0
   36.7610   26.6780   39.0900 H   0  0  0  0  0  0  0  0  0  0  0  0
   37.5500   24.7800   38.6760 C   0  0  0  0  0  3  0  0  0  0  0  0
   36.6100   24.6750   38.0590 H   0  0  0  0  0  0  0  0  0  0  0  0
   37.8150   23.5730   39.3390 O   0  0  0  0  0  0  0  0  0  0  0  0
   36.6540   23.3090   40.0620 C   0  0  0  0  0  3  0  0  0  0  0  0
   35.8020   23.5110   39.3620 H   0  0  0  0  0  0  0  0  0  0  0  0
   36.6170   24.2100   41.2500 C   0  0  0  0  0  3  0  0  0  0  0  0
   37.1820   23.7020   42.0610 H   0  0  0  0  0  0  0  0  0  0  0  0
   36.9480   27.8170   42.9100 C   0  0  0  0  0  0  0  0  0  0  0  0
   37.1890   28.9500   43.6780 F   0  0  0  0  0  0  0  0  0  0  0  0
   36.0110   27.1000   43.6130 F   0  0  0  0  0  0  0  0  0  0  0  0
   36.5260   28.2480   41.6810 F   0  0  0  0  0  0  0  0  0  0  0  0
  1  2  2  0  0  0  0
  1  6  1  0  0  0  0
  2  3  1  0  0  0  0
  3 19  1  0  0  0  0
  3  4  2  0  0  0  0
  5  4  1  0  0  0  0
  5  8  1  0  0  0  0
  6  5  2  0  0  0  0
  7  1  1  0  0  0  0
  9 17  1  0  0  0  0
  9  2  1  0  0  0  0
 10  9  1  0  0  0  0
 11 10  1  0  0  0  0
 12 14  1  0  0  0  0
 12 10  1  0  0  0  0
 13 12  1  0  0  0  0
 14 15  1  0  0  0  0
 15 17  1  0  0  0  0
 16 15  1  0  0  0  0
 17 18  1  0  0  0  0
 19 21  1  0  0  0  0
 19 20  1  0  0  0  0
 22 19  1  0  0  0  0
M  END
>  <minimizedAffinity>
-4.42283392

$$$$

 OpenBabel03252501183D

 22 23  0  0  0  0  0  0  0  0999 V2000
   37.7130   31.4240   37.9290 C   0  0  0  0  0  0  0  0  0  0  0  0
   37.3090   31.1470   39.2690 C   0  0  0  0  0  0  0  0  0  0  0  0
   36.4010   30.0850   39.3910 C   0  0  0  0  0  0  0  0  0  0  0  0
   35.9840   29.4180   38.2730 N   0  0  0  0  0  0  0  0  0  0  0  0
   36.4100   29.7350   37.0320 C   0  0  0  0  0  0  0  0  0  0  0  0
   37.2770   30.7440   36.8680 N   0  0  0  0  0  0  0  0  0  0  0  0
   38.4080   32.2080   37.6730 H   0  0  0  0  0  0  0  0  0  0  0  0
   35.9300   29.0580   36.3380 H   0  0  0  0  0  0  0  0  0  0  0  0
   37.8600   31.9570   40.3690 C   0  0  0  0  0  3  0  0  0  0  0  0
   39.2460   31.4640   40.6600 C   0  0  0  0  0  3  0  0  0  0  0  0
   39.3670   31.1350   41.7350 H   0  0  0  0  0  0  0  0  0  0  0  0
   40.3480   32.4250   40.4040 C   0  0  0  0  0  3  0  0  0  0  0  0
   40.6440   32.9580   41.3550 H   0  0  0  0  0  0  0  0  0  0  0  0
   40.0350   33.3680   39.4150 O   0  0  0  0  0  0  0  0  0  0  0  0
   39.0430   34.1600   39.9880 C   0  0  0  0  0  3  0  0  0  0  0  0
   39.3890   34.3800   41.0310 H   0  0  0  0  0  0  0  0  0  0  0  0
   37.7610   33.3990   39.9810 C   0  0  0  0  0  3  0  0  0  0  0  0
   37.2780   33.5850   38.9980 H   0  0  0  0  0  0  0  0  0  0  0  0
   35.9780   29.7800   40.7570 C   0  0  0  0  0  0  0  0  0  0  0  0
   34.8150   29.0200   40.7270 F   0  0  0  0  0  0  0  0  0  0  0  0
   35.6170   30.9660   41.3460 F   0  0  0  0  0  0  0  0  0  0  0  0
   36.9090   29.0600   41.4590 F   0  0  0  0  0  0  0  0  0  0  0  0
  1  2  1  0  0  0  0
  2  3  2  0  0  0  0
  2  9  1  0  0  0  0
  3 19  1  0  0  0  0
  4  3  1  0  0  0  0
  5  4  2  0  0  0  0
  6  5  1  0  0  0  0
  6  1  2  0  0  0  0
  7  1  1  0  0  0  0
  8  5  1  0  0  0  0
  9 10  1  0  0  0  0
 10 11  1  0  0  0  0
 12 10  1  0  0  0  0
 12 13  1  0  0  0  0
 14 15  1  0  0  0  0
 14 12  1  0  0  0  0
 15 16  1  0  0  0  0
 17 15  1  0  0  0  0
 17  9  1  0  0  0  0
 18 17  1  0  0  0  0
 19 21  1  0  0  0  0
 19 22  1  0  0  0  0
 20 19  1  0  0  0  0
M  END
>  <minimizedAffinity>
-4.31632376

$$$$

 OpenBabel03252501183D

 22 23  0  0  0  0  0  0  0  0999 V2000
   36.9420   30.2610   41.3110 C   0  0  0  0  0  0  0  0  0  0  0  0
   38.2910   30.2020   41.7730 C   0  0  0  0  0  0  0  0  0  0  0  0
   39.0870   31.2820   41.3680 C   0  0  0  0  0  0  0  0  0  0  0  0
   38.5470   32.2720   40.5960 N   0  0  0  0  0  0  0  0  0  0  0  0
   37.2580   32.2630   40.1960 C   0  0  0  0  0  0  0  0  0  0  0  0
   36.4590   31.2490   40.5580 N   0  0  0  0  0  0  0  0  0  0  0  0
   36.2060   29.5050   41.5420 H   0  0  0  0  0  0  0  0  0  0  0  0
   37.0930   33.1530   39.6030 H   0  0  0  0  0  0  0  0  0  0  0  0
   38.7160   29.0650   42.6080 C   0  0  0  0  0  3  0  0  0  0  0  0
   37.6850   28.8630   43.6780 C   0  0  0  0  0  3  0  0  0  0  0  0
   38.1270   28.9270   44.7170 H   0  0  0  0  0  0  0  0  0  0  0  0
   36.9410   27.5790   43.6330 C   0  0  0  0  0  3  0  0  0  0  0  0
   37.4030   26.8230   44.3330 H   0  0  0  0  0  0  0  0  0  0  0  0
   36.8590   27.0370   42.3430 O   0  0  0  0  0  0  0  0  0  0  0  0
   38.1660   26.6630   42.0370 C   0  0  0  0  0  3  0  0  0  0  0  0
   38.5610   26.1490   42.9510 H   0  0  0  0  0  0  0  0  0  0  0  0
   38.9490   27.8900   41.7120 C   0  0  0  0  0  3  0  0  0  0  0  0
   38.8030   28.0920   40.6300 H   0  0  0  0  0  0  0  0  0  0  0  0
   40.4730   31.2450   41.8360 C   0  0  0  0  0  0  0  0  0  0  0  0
   41.1300   32.4040   41.4400 F   0  0  0  0  0  0  0  0  0  0  0  0
   41.1020   30.2280   41.1620 F   0  0  0  0  0  0  0  0  0  0  0  0
   40.5770   31.1700   43.1990 F   0  0  0  0  0  0  0  0  0  0  0  0
  1  7  1  0  0  0  0
  1  2  1  0  0  0  0
  2  9  1  0  0  0  0
  3  2  2  0  0  0  0
  3 19  1  0  0  0  0
  4  3  1  0  0  0  0
  5  6  1  0  0  0  0
  5  4  2  0  0  0  0
  6  1  2  0  0  0  0
  8  5  1  0  0  0  0
  9 10  1  0  0  0  0
 10 11  1  0  0  0  0
 12 10  1  0  0  0  0
 12 13  1  0  0  0  0
 14 12  1  0  0  0  0
 15 14  1  0  0  0  0
 15 16  1  0  0  0  0
 17 15  1  0  0  0  0
 17  9  1  0  0  0  0
 18 17  1  0  0  0  0
 19 22  1  0  0  0  0
 20 19  1  0  0  0  0
 21 19  1  0  0  0  0
M  END
>  <minimizedAffinity>
-4.30053234

$$$$

 OpenBabel03252501183D

 22 23  0  0  0  0  0  0  0  0999 V2000
   39.4620   26.9390   41.1230 C   0  0  0  0  0  0  0  0  0  0  0  0
   38.1950   26.3020   41.2720 C   0  0  0  0  0  0  0  0  0  0  0  0
   38.1660   24.9660   40.8490 C   0  0  0  0  0  0  0  0  0  0  0  0
   39.2990   24.3890   40.3460 N   0  0  0  0  0  0  0  0  0  0  0  0
   40.4680   25.0540   40.2340 C   0  0  0  0  0  0  0  0  0  0  0  0
   40.5420   26.3340   40.6260 N   0  0  0  0  0  0  0  0  0  0  0  0
   39.6440   27.9640   41.4060 H   0  0  0  0  0  0  0  0  0  0  0  0
   41.1940   24.3720   39.8110 H   0  0  0  0  0  0  0  0  0  0  0  0
   37.0700   27.0630   41.8420 C   0  0  0  0  0  3  0  0  0  0  0  0
   37.3960   27.3740   43.2720 C   0  0  0  0  0  3  0  0  0  0  0  0
   36.6150   26.9760   43.9860 H   0  0  0  0  0  0  0  0  0  0  0  0
   37.5560   28.8110   43.6080 C   0  0  0  0  0  3  0  0  0  0  0  0
   36.5980   29.2340   44.0320 H   0  0  0  0  0  0  0  0  0  0  0  0
   37.9690   29.5870   42.5150 O   0  0  0  0  0  0  0  0  0  0  0  0
   36.8790   29.5790   41.6480 C   0  0  0  0  0  3  0  0  0  0  0  0
   35.9760   29.7560   42.2870 H   0  0  0  0  0  0  0  0  0  0  0  0
   36.8210   28.2520   40.9680 C   0  0  0  0  0  3  0  0  0  0  0  0
   37.4740   28.3170   40.0720 H   0  0  0  0  0  0  0  0  0  0  0  0
   36.8770   24.2910   40.9990 C   0  0  0  0  0  0  0  0  0  0  0  0
   37.0120   22.9470   40.6720 F   0  0  0  0  0  0  0  0  0  0  0  0
   36.0340   24.8080   40.0460 F   0  0  0  0  0  0  0  0  0  0  0  0
   36.3880   24.3460   42.2770 F   0  0  0  0  0  0  0  0  0  0  0  0
  1  2  1  0  0  0  0
  1  7  1  0  0  0  0
  2  9  1  0  0  0  0
  3 19  1  0  0  0  0
  3  2  2  0  0  0  0
  4  3  1  0  0  0  0
  5  4  2  0  0  0  0
  5  6  1  0  0  0  0
  6  1  2  0  0  0  0
  8  5  1  0  0  0  0
  9 10  1  0  0  0  0
 10 12  1  0  0  0  0
 10 11  1  0  0  0  0
 12 13  1  0  0  0  0
 14 12  1  0  0  0  0
 15 16  1  0  0  0  0
 15 14  1  0  0  0  0
 17 15  1  0  0  0  0
 17  9  1  0  0  0  0
 18 17  1  0  0  0  0
 19 22  1  0  0  0  0
 20 19  1  0  0  0  0
 21 19  1  0  0  0  0
M  END
>  <minimizedAffinity>
-4.29227829

$$$$

 OpenBabel03252501183D

 22 23  0  0  0  0  0  0  0  0999 V2000
   38.3680   28.1350   39.7500 C   0  0  0  0  0  0  0  0  0  0  0  0
   37.8580   29.2510   40.4790 C   0  0  0  0  0  0  0  0  0  0  0  0
   37.6220   30.3910   39.6980 C   0  0  0  0  0  0  0  0  0  0  0  0
   37.8820   30.3610   38.3570 N   0  0  0  0  0  0  0  0  0  0  0  0
   38.3640   29.2660   37.7320 C   0  0  0  0  0  0  0  0  0  0  0  0
   38.6070   28.1530   38.4390 N   0  0  0  0  0  0  0  0  0  0  0  0
   38.5970   27.1860   40.2090 H   0  0  0  0  0  0  0  0  0  0  0  0
   38.4780   29.5110   36.6840 H   0  0  0  0  0  0  0  0  0  0  0  0
   37.6240   29.1170   41.9270 C   0  0  0  0  0  3  0  0  0  0  0  0
   36.5550   28.0860   42.1320 C   0  0  0  0  0  3  0  0  0  0  0  0
   35.6700   28.4930   42.7040 H   0  0  0  0  0  0  0  0  0  0  0  0
   36.9680   26.8520   42.8480 C   0  0  0  0  0  3  0  0  0  0  0  0
   36.7130   26.9220   43.9460 H   0  0  0  0  0  0  0  0  0  0  0  0
   38.3310   26.5610   42.7000 O   0  0  0  0  0  0  0  0  0  0  0  0
   38.9830   27.5740   43.4000 C   0  0  0  0  0  3  0  0  0  0  0  0
   38.4280   27.6860   44.3670 H   0  0  0  0  0  0  0  0  0  0  0  0
   38.9340   28.8230   42.5870 C   0  0  0  0  0  3  0  0  0  0  0  0
   39.8070   28.7990   41.9000 H   0  0  0  0  0  0  0  0  0  0  0  0
   37.0930   31.5450   40.4250 C   0  0  0  0  0  0  0  0  0  0  0  0
   36.7410   32.5430   39.5240 F   0  0  0  0  0  0  0  0  0  0  0  0
   38.1270   32.0730   41.1580 F   0  0  0  0  0  0  0  0  0  0  0  0
   35.9720   31.2520   41.1560 F   0  0  0  0  0  0  0  0  0  0  0  0
  1  7  1  0  0  0  0
  1  2  1  0  0  0  0
  2  9  1  0  0  0  0
  3 19  1  0  0  0  0
  3  2  2  0  0  0  0
  4  3  1  0  0  0  0
  5  4  2  0  0  0  0
  5  6  1  0  0  0  0
  6  1  2  0  0  0  0
  8  5  1  0  0  0  0
  9 10  1  0  0  0  0
  9 17  1  0  0  0  0
 10 11  1  0  0  0  0
 10 12  1  0  0  0  0
 12 13  1  0  0  0  0
 14 12  1  0  0  0  0
 14 15  1  0  0  0  0
 15 16  1  0  0  0  0
 17 15  1  0  0  0  0
 18 17  1  0  0  0  0
 19 22  1  0  0  0  0
 19 21  1  0  0  0  0
 20 19  1  0  0  0  0
M  END
>  <minimizedAffinity>
-4.26617765

$$$$

 OpenBabel03252501183D

 22 23  0  0  0  0  0  0  0  0999 V2000
   39.3210   29.1440   42.3260 C   0  0  0  0  0  0  0  0  0  0  0  0
   38.1360   29.5610   41.6480 C   0  0  0  0  0  0  0  0  0  0  0  0
   38.1490   30.8990   41.2320 C   0  0  0  0  0  0  0  0  0  0  0  0
   39.2420   31.6790   41.4900 N   0  0  0  0  0  0  0  0  0  0  0  0
   40.3320   31.2170   42.1370 C   0  0  0  0  0  0  0  0  0  0  0  0
   40.3640   29.9430   42.5540 N   0  0  0  0  0  0  0  0  0  0  0  0
   39.4630   28.1440   42.7040 H   0  0  0  0  0  0  0  0  0  0  0  0
   41.0410   32.0310   42.2070 H   0  0  0  0  0  0  0  0  0  0  0  0
   37.0470   28.5910   41.4420 C   0  0  0  0  0  3  0  0  0  0  0  0
   37.4200   27.7110   40.2870 C   0  0  0  0  0  3  0  0  0  0  0  0
   36.6490   27.7390   39.4600 H   0  0  0  0  0  0  0  0  0  0  0  0
   37.6250   26.2740   40.6000 C   0  0  0  0  0  3  0  0  0  0  0  0
   36.6900   25.6790   40.3840 H   0  0  0  0  0  0  0  0  0  0  0  0
   38.0270   26.0530   41.9250 O   0  0  0  0  0  0  0  0  0  0  0  0
   36.9130   26.3940   42.6900 C   0  0  0  0  0  3  0  0  0  0  0  0
   36.0330   25.9290   42.1750 H   0  0  0  0  0  0  0  0  0  0  0  0
   36.8040   27.8800   42.7370 C   0  0  0  0  0  3  0  0  0  0  0  0
   37.4330   28.2270   43.5840 H   0  0  0  0  0  0  0  0  0  0  0  0
   36.9460   31.3460   40.5300 C   0  0  0  0  0  0  0  0  0  0  0  0
   37.0130   32.7170   40.3150 F   0  0  0  0  0  0  0  0  0  0  0  0
   35.8870   31.1680   41.3840 F   0  0  0  0  0  0  0  0  0  0  0  0
   36.7910   30.7550   39.3040 F   0  0  0  0  0  0  0  0  0  0  0  0
  1  6  1  0  0  0  0
  1  7  1  0  0  0  0
  2  1  2  0  0  0  0
  3  4  2  0  0  0  0
  3  2  1  0  0  0  0
  4  5  1  0  0  0  0
  5  8  1  0  0  0  0
  5  6  2  0  0  0  0
  9  2  1  0  0  0  0
  9 17  1  0  0  0  0
 10 12  1  0  0  0  0
 10  9  1  0  0  0  0
 11 10  1  0  0  0  0
 12 14  1  0  0  0  0
 13 12  1  0  0  0  0
 14 15  1  0  0  0  0
 15 17  1  0  0  0  0
 16 15  1  0  0  0  0
 17 18  1  0  0  0  0
 19  3  1  0  0  0  0
 19 21  1  0  0  0  0
 20 19  1  0  0  0  0
 22 19  1  0  0  0  0
M  END
>  <minimizedAffinity>
-4.25312233

$$$$

 OpenBabel03252501183D

 22 23  0  0  0  0  0  0  0  0999 V2000
   39.6150   26.9980   40.4870 C   0  0  0  0  0  0  0  0  0  0  0  0
   38.6050   27.3880   41.4160 C   0  0  0  0  0  0  0  0  0  0  0  0
   38.0840   28.6710   41.1970 C   0  0  0  0  0  0  0  0  0  0  0  0
   38.5540   29.4270   40.1600 N   0  0  0  0  0  0  0  0  0  0  0  0
   39.5140   28.9910   39.3170 C   0  0  0  0  0  0  0  0  0  0  0  0
   40.0420   27.7710   39.4880 N   0  0  0  0  0  0  0  0  0  0  0  0
   40.1090   26.0390   40.5210 H   0  0  0  0  0  0  0  0  0  0  0  0
   39.6970   29.7770   38.5960 H   0  0  0  0  0  0  0  0  0  0  0  0
   38.2020   26.4490   42.4770 C   0  0  0  0  0  3  0  0  0  0  0  0
   37.3150   25.4070   41.8640 C   0  0  0  0  0  3  0  0  0  0  0  0
   36.3020   25.3590   42.3630 H   0  0  0  0  0  0  0  0  0  0  0  0
   37.8380   24.0170   41.8740 C   0  0  0  0  0  3  0  0  0  0  0  0
   37.4280   23.4410   42.7550 H   0  0  0  0  0  0  0  0  0  0  0  0
   39.2390   23.9580   41.8850 O   0  0  0  0  0  0  0  0  0  0  0  0
   39.6000   24.4470   43.1380 C   0  0  0  0  0  3  0  0  0  0  0  0
   38.9080   23.9580   43.8710 H   0  0  0  0  0  0  0  0  0  0  0  0
   39.4420   25.9300   43.1350 C   0  0  0  0  0  3  0  0  0  0  0  0
   40.3900   26.3580   42.7460 H   0  0  0  0  0  0  0  0  0  0  0  0
   37.0420   29.0890   42.1350 C   0  0  0  0  0  0  0  0  0  0  0  0
   36.6480   30.3900   41.8460 F   0  0  0  0  0  0  0  0  0  0  0  0
   37.6180   29.1570   43.3790 F   0  0  0  0  0  0  0  0  0  0  0  0
   35.9190   28.3070   42.0730 F   0  0  0  0  0  0  0  0  0  0  0  0
  1  7  1  0  0  0  0
  1  2  1  0  0  0  0
  2  9  1  0  0  0  0
  3  2  2  0  0  0  0
  3 19  1  0  0  0  0
  4  3  1  0  0  0  0
  5  6  1  0  0  0  0
  5  4  2  0  0  0  0
  6  1  2  0  0  0  0
  8  5  1  0  0  0  0
  9 17  1  0  0  0  0
 10 12  1  0  0  0  0
 10 11  1  0  0  0  0
 10  9  1  0  0  0  0
 12 14  1  0  0  0  0
 12 13  1  0  0  0  0
 14 15  1  0  0  0  0
 15 16  1  0  0  0  0
 17 15  1  0  0  0  0
 18 17  1  0  0  0  0
 19 21  1  0  0  0  0
 20 19  1  0  0  0  0
 22 19  1  0  0  0  0
M  END
>  <minimizedAffinity>
-4.24919176

$$$$

 OpenBabel03252501183D

 22 23  0  0  0  0  0  0  0  0999 V2000
   37.2640   27.7840   40.1780 C   0  0  0  0  0  0  0  0  0  0  0  0
   37.3360   26.6140   40.9930 C   0  0  0  0  0  0  0  0  0  0  0  0
   36.9510   25.4330   40.3440 C   0  0  0  0  0  0  0  0  0  0  0  0
   36.5510   25.4770   39.0370 N   0  0  0  0  0  0  0  0  0  0  0  0
   36.5080   26.6230   38.3260 C   0  0  0  0  0  0  0  0  0  0  0  0
   36.8670   27.7770   38.9060 N   0  0  0  0  0  0  0  0  0  0  0  0
   37.5300   28.7670   40.5330 H   0  0  0  0  0  0  0  0  0  0  0  0
   36.1600   26.3770   37.3310 H   0  0  0  0  0  0  0  0  0  0  0  0
   37.7980   26.7360   42.3860 C   0  0  0  0  0  3  0  0  0  0  0  0
   39.2700   27.0210   42.3650 C   0  0  0  0  0  3  0  0  0  0  0  0
   39.8650   26.2510   42.9400 H   0  0  0  0  0  0  0  0  0  0  0  0
   39.6870   28.3400   42.9050 C   0  0  0  0  0  3  0  0  0  0  0  0
   40.0100   28.2490   43.9830 H   0  0  0  0  0  0  0  0  0  0  0  0
   38.6900   29.3190   42.7940 O   0  0  0  0  0  0  0  0  0  0  0  0
   37.6960   28.9080   43.6800 C   0  0  0  0  0  3  0  0  0  0  0  0
   38.2280   28.6030   44.6180 H   0  0  0  0  0  0  0  0  0  0  0  0
   36.9560   27.7670   43.0690 C   0  0  0  0  0  3  0  0  0  0  0  0
   36.1500   28.2020   42.4400 H   0  0  0  0  0  0  0  0  0  0  0  0
   37.0230   24.2210   41.1590 C   0  0  0  0  0  0  0  0  0  0  0  0
   36.4670   23.1550   40.4620 F   0  0  0  0  0  0  0  0  0  0  0  0
   36.2010   24.4090   42.2420 F   0  0  0  0  0  0  0  0  0  0  0  0
   38.3070   23.8650   41.4780 F   0  0  0  0  0  0  0  0  0  0  0  0
  1  7  1  0  0  0  0
  1  2  1  0  0  0  0
  2  9  1  0  0  0  0
  3  2  2  0  0  0  0
  3 19  1  0  0  0  0
  4  3  1  0  0  0  0
  5  6  1  0  0  0  0
  5  4  2  0  0  0  0
  6  1  2  0  0  0  0
  8  5  1  0  0  0  0
  9 17  1  0  0  0  0
 10  9  1  0  0  0  0
 10 12  1  0  0  0  0
 10 11  1  0  0  0  0
 12 13  1  0  0  0  0
 14 12  1  0  0  0  0
 14 15  1  0  0  0  0
 15 16  1  0  0  0  0
 17 15  1  0  0  0  0
 18 17  1  0  0  0  0
 19 22  1  0  0  0  0
 19 21  1  0  0  0  0
 20 19  1  0  0  0  0
M  END
>  <minimizedAffinity>
-4.22589254

$$$$

 OpenBabel03252501183D

 22 23  0  0  0  0  0  0  0  0999 V2000
   37.7150   28.5150   39.3780 C   0  0  0  0  0  0  0  0  0  0  0  0
   37.4390   28.4080   40.7740 C   0  0  0  0  0  0  0  0  0  0  0  0
   37.2630   27.0940   41.2290 C   0  0  0  0  0  0  0  0  0  0  0  0
   37.3630   26.0520   40.3490 N   0  0  0  0  0  0  0  0  0  0  0  0
   37.6280   26.2280   39.0380 C   0  0  0  0  0  0  0  0  0  0  0  0
   37.8030   27.4670   38.5580 N   0  0  0  0  0  0  0  0  0  0  0  0
   37.8780   29.4580   38.8800 H   0  0  0  0  0  0  0  0  0  0  0  0
   37.6520   25.2500   38.5750 H   0  0  0  0  0  0  0  0  0  0  0  0
   37.3730   29.6330   41.5900 C   0  0  0  0  0  3  0  0  0  0  0  0
   38.7760   30.0910   41.8550 C   0  0  0  0  0  3  0  0  0  0  0  0
   38.9990   30.1700   42.9600 H   0  0  0  0  0  0  0  0  0  0  0  0
   39.1550   31.4030   41.2710 C   0  0  0  0  0  3  0  0  0  0  0  0
   39.0440   32.2280   42.0340 H   0  0  0  0  0  0  0  0  0  0  0  0
   38.4210   31.7250   40.1200 O   0  0  0  0  0  0  0  0  0  0  0  0
   37.1240   31.9400   40.5810 C   0  0  0  0  0  3  0  0  0  0  0  0
   37.2260   32.5690   41.5030 H   0  0  0  0  0  0  0  0  0  0  0  0
   36.4990   30.6190   40.8800 C   0  0  0  0  0  3  0  0  0  0  0  0
   36.0520   30.2490   39.9330 H   0  0  0  0  0  0  0  0  0  0  0  0
   36.9850   26.9610   42.6590 C   0  0  0  0  0  0  0  0  0  0  0  0
   36.5970   25.6570   42.9400 F   0  0  0  0  0  0  0  0  0  0  0  0
   35.8800   27.7300   42.9310 F   0  0  0  0  0  0  0  0  0  0  0  0
   38.0730   27.2340   43.4450 F   0  0  0  0  0  0  0  0  0  0  0  0
  1  2  1  0  0  0  0
  2  3  2  0  0  0  0
  2  9  1  0  0  0  0
  3 19  1  0  0  0  0
  4  3  1  0  0  0  0
  5  4  2  0  0  0  0
  6  5  1  0  0  0  0
  6  1  2  0  0  0  0
  7  1  1  0  0  0  0
  8  5  1  0  0  0  0
  9 10  1  0  0  0  0
 10 11  1  0  0  0  0
 12 10  1  0  0  0  0
 12 13  1  0  0  0  0
 14 15  1  0  0  0  0
 14 12  1  0  0  0  0
 15 17  1  0  0  0  0
 15 16  1  0  0  0  0
 17  9  1  0  0  0  0
 18 17  1  0  0  0  0
 19 21  1  0  0  0  0
 19 20  1  0  0  0  0
 19 22  1  0  0  0  0
M  END
>  <minimizedAffinity>
-4.191576

$$$$
