
 OpenBabel03252507203D

 45 48  0  0  1  0  0  0  0  0999 V2000
   46.6740   30.3700   44.9330 C   0  0  0  0  0  0  0  0  0  0  0  0
   47.7940   29.7590   45.0660 O   0  0  0  0  0  0  0  0  0  0  0  0
   45.9820   30.4130   43.6860 N   0  0  0  0  0  0  0  0  0  0  0  0
   44.5550   30.2040   43.4000 C   0  0  0  0  0  0  0  0  0  0  0  0
   44.0210   31.3860   42.5960 C   0  0  0  0  0  0  0  0  0  0  0  0
   44.7060   31.4030   41.2400 C   0  0  0  0  0  0  0  0  0  0  0  0
   45.8980   30.5210   41.2700 C   0  0  0  0  0  0  0  0  0  0  0  0
   46.7440   30.6890   42.5070 C   0  0  1  0  0  0  0  0  0  0  0  0
   44.0600   30.3360   44.4060 H   0  0  0  0  0  0  0  0  0  0  0  0
   44.3410   29.2330   42.9720 H   0  0  0  0  0  0  0  0  0  0  0  0
   44.2900   32.2910   43.1900 H   0  0  0  0  0  0  0  0  0  0  0  0
   42.9280   31.2520   42.5380 H   0  0  0  0  0  0  0  0  0  0  0  0
   44.8240   32.4040   40.8380 H   0  0  0  0  0  0  0  0  0  0  0  0
   43.9520   30.9050   40.5610 H   0  0  0  0  0  0  0  0  0  0  0  0
   46.5210   30.5340   40.3790 H   0  0  0  0  0  0  0  0  0  0  0  0
   45.5120   29.4600   41.3350 H   0  0  0  0  0  0  0  0  0  0  0  0
   47.4940   29.8690   42.4410 H   0  0  0  0  0  0  0  0  0  0  0  0
   47.5170   31.9690   42.4890 C   0  0  0  0  0  3  0  0  0  0  0  0
   48.3760   32.2250   41.2870 C   0  0  0  0  0  3  0  0  0  0  0  0
   47.7190   32.0220   40.3980 H   0  0  0  0  0  0  0  0  0  0  0  0
   48.6750   33.7250   41.1480 C   0  0  0  0  0  3  0  0  0  0  0  0
   47.8360   34.2380   40.6800 H   0  0  0  0  0  0  0  0  0  0  0  0
   48.9300   34.2170   42.4100 O   0  0  0  0  0  0  0  0  0  0  0  0
   47.7770   34.2900   43.1860 C   0  0  0  0  0  3  0  0  0  0  0  0
   48.0920   34.0170   44.2290 H   0  0  0  0  0  0  0  0  0  0  0  0
   46.7530   33.2110   42.7870 C   0  0  0  0  0  3  0  0  0  0  0  0
   46.2190   33.6420   41.9180 H   0  0  0  0  0  0  0  0  0  0  0  0
   46.2240   32.4170   46.1660 C   0  0  0  0  0  0  0  0  0  0  0  0
   46.1030   31.0280   46.0730 C   0  0  0  0  0  0  0  0  0  0  0  0
   45.4550   30.3350   47.0680 C   0  0  0  0  0  0  0  0  0  0  0  0
   44.9530   31.0250   48.1070 N   0  0  0  0  0  0  0  0  0  0  0  0
   45.0650   32.3770   48.2080 C   0  0  0  0  0  0  0  0  0  0  0  0
   45.6960   33.0410   47.2370 N   0  0  0  0  0  0  0  0  0  0  0  0
   46.7100   33.0490   45.4390 H   0  0  0  0  0  0  0  0  0  0  0  0
   44.6460   32.9180   49.0690 H   0  0  0  0  0  0  0  0  0  0  0  0
   45.3360   28.8960   46.9580 C   0  0  0  0  0  0  0  0  0  0  0  0
   44.2290   28.3370   46.3680 C   0  0  0  0  0  0  0  0  0  0  0  0
   44.1410   26.9660   46.2730 C   0  0  0  0  0  0  0  0  0  0  0  0
   45.1190   26.1100   46.7440 C   0  0  0  0  0  0  0  0  0  0  0  0
   46.2050   26.7300   47.3260 C   0  0  0  0  0  0  0  0  0  0  0  0
   46.2750   28.0580   47.4100 N   0  0  0  0  0  0  0  0  0  0  0  0
   43.4030   28.8620   45.9650 H   0  0  0  0  0  0  0  0  0  0  0  0
   43.2770   26.4710   45.8100 H   0  0  0  0  0  0  0  0  0  0  0  0
   45.0750   25.0320   46.6820 H   0  0  0  0  0  0  0  0  0  0  0  0
   47.0350   26.1390   47.7320 H   0  0  0  0  0  0  0  0  0  0  0  0
  1  2  2  0  0  0  0
  1 29  1  0  0  0  0
  3  1  1  0  0  0  0
  4  3  1  0  0  0  0
  4  9  1  0  0  0  0
  5 11  1  0  0  0  0
  5  4  1  0  0  0  0
  6  7  1  0  0  0  0
  6  5  1  0  0  0  0
  7 16  1  0  0  0  0
  7  8  1  0  0  0  0
  8 17  1  6  0  0  0
  8  3  1  0  0  0  0
 10  4  1  0  0  0  0
 12  5  1  0  0  0  0
 13  6  1  0  0  0  0
 14  6  1  0  0  0  0
 15  7  1  0  0  0  0
 18  8  1  0  0  0  0
 18 26  1  0  0  0  0
 19 18  1  0  0  0  0
 20 19  1  0  0  0  0
 21 19  1  0  0  0  0
 21 23  1  0  0  0  0
 22 21  1  0  0  0  0
 23 24  1  0  0  0  0
 24 25  1  0  0  0  0
 26 24  1  0  0  0  0
 27 26  1  0  0  0  0
 28 33  1  0  0  0  0
 29 28  2  0  0  0  0
 29 30  1  0  0  0  0
 30 31  2  0  0  0  0
 31 32  1  0  0  0  0
 32 35  1  0  0  0  0
 33 32  2  0  0  0  0
 34 28  1  0  0  0  0
 36 30  1  0  0  0  0
 36 41  1  0  0  0  0
 37 36  2  0  0  0  0
 38 37  1  0  0  0  0
 38 39  2  0  0  0  0
 39 40  1  0  0  0  0
 40 41  2  0  0  0  0
 40 45  1  0  0  0  0
 42 37  1  0  0  0  0
 43 38  1  0  0  0  0
 44 39  1  0  0  0  0
M  END
>  <minimizedAffinity>
-4.30404568

>  <minimizedRMSD>
4.2306962

$$$$
