
 OpenBabel03242523423D

 25 26  0  0  1  0  0  0  0  0999 V2000
   47.2010   35.0710   41.8410 C   0  0  1  0  0  0  0  0  0  0  0  0
   47.0580   36.0940   41.3670 H   0  0  0  0  0  0  0  0  0  0  0  0
   46.9690   34.0610   40.7870 C   0  0  0  0  0  3  0  0  0  0  0  0
   47.8480   34.1900   39.5560 C   0  0  0  0  0  3  0  0  0  0  0  0
   47.4670   34.9410   38.8680 H   0  0  0  0  0  0  0  0  0  0  0  0
   47.6980   32.8340   38.8610 C   0  0  0  0  0  3  0  0  0  0  0  0
   47.9890   32.0740   39.6080 H   0  0  0  0  0  0  0  0  0  0  0  0
   46.4270   32.7270   38.3980 O   0  0  0  0  0  0  0  0  0  0  0  0
   45.4020   32.7940   39.3070 C   0  0  0  0  0  3  0  0  0  0  0  0
   44.4650   32.9820   38.7420 H   0  0  0  0  0  0  0  0  0  0  0  0
   45.5550   33.8520   40.3550 C   0  0  0  0  0  3  0  0  0  0  0  0
   45.1470   34.7930   39.9680 H   0  0  0  0  0  0  0  0  0  0  0  0
   45.4300   36.0430   43.2350 C   0  0  0  0  0  0  0  0  0  0  0  0
   46.3600   35.0210   43.0320 C   0  0  0  0  0  0  0  0  0  0  0  0
   46.4550   34.0090   43.9900 C   0  0  0  0  0  0  0  0  0  0  0  0
   45.6330   34.0740   45.0690 N   0  0  0  0  0  0  0  0  0  0  0  0
   44.7390   35.0790   45.2380 C   0  0  0  0  0  0  0  0  0  0  0  0
   44.6280   36.0770   44.3200 N   0  0  0  0  0  0  0  0  0  0  0  0
   45.3270   36.8460   42.5150 H   0  0  0  0  0  0  0  0  0  0  0  0
   47.1510   33.2080   43.8910 H   0  0  0  0  0  0  0  0  0  0  0  0
   44.1080   35.0640   46.1360 H   0  0  0  0  0  0  0  0  0  0  0  0
   48.6470   35.0410   42.2890 C   0  0  0  0  0  0  0  0  0  0  0  0
   48.8820   34.0660   42.7430 H   0  0  0  0  0  0  0  0  0  0  0  0
   49.2760   35.2690   41.4020 H   0  0  0  0  0  0  0  0  0  0  0  0
   48.7810   35.8280   43.0670 H   0  0  0  0  0  0  0  0  0  0  0  0
  1  2  1  6  0  0  0
  1 22  1  0  0  0  0
  1 14  1  0  0  0  0
  3  1  1  0  0  0  0
  4  3  1  0  0  0  0
  5  4  1  0  0  0  0
  6  4  1  0  0  0  0
  6  7  1  0  0  0  0
  8  6  1  0  0  0  0
  8  9  1  0  0  0  0
  9 11  1  0  0  0  0
 10  9  1  0  0  0  0
 11  3  1  0  0  0  0
 12 11  1  0  0  0  0
 13 18  1  0  0  0  0
 14 13  2  0  0  0  0
 14 15  1  0  0  0  0
 15 16  2  0  0  0  0
 16 17  1  0  0  0  0
 17 21  1  0  0  0  0
 18 17  2  0  0  0  0
 19 13  1  0  0  0  0
 20 15  1  0  0  0  0
 22 23  1  0  0  0  0
 22 25  1  0  0  0  0
 24 22  1  0  0  0  0
M  END
>  <minimizedAffinity>
-4.3160491

>  <minimizedRMSD>
1.35039806

$$$$
