
 OpenBabel03252503013D

 31 32  0  0  0  0  0  0  0  0999 V2000
   36.7970   31.2190   40.5280 S   0  0  0  0  0  0  0  0  0  0  0  0
   37.3840   32.8510   40.5620 N   0  0  0  0  0  0  0  0  0  0  0  0
   36.8330   33.3990   41.2560 H   0  0  0  0  0  0  0  0  0  0  0  0
   38.7800   32.9000   41.0250 C   0  0  0  0  0  0  0  0  0  0  0  0
   39.1970   31.8520   41.0040 H   0  0  0  0  0  0  0  0  0  0  0  0
   38.8470   33.2050   42.0890 H   0  0  0  0  0  0  0  0  0  0  0  0
   39.6860   33.9450   39.9010 S   0  0  0  0  0  0  0  0  0  0  0  0
   40.3420   31.5900   38.6140 C   0  0  0  0  0  0  0  0  0  0  0  0
   40.6190   32.9390   38.7260 C   0  0  0  0  0  0  0  0  0  0  0  0
   41.6040   33.5370   37.9470 C   0  0  0  0  0  0  0  0  0  0  0  0
   42.2830   32.7280   37.0710 N   0  0  0  0  0  0  0  0  0  0  0  0
   41.9710   31.4250   37.0060 C   0  0  0  0  0  0  0  0  0  0  0  0
   41.0440   30.8300   37.7300 N   0  0  0  0  0  0  0  0  0  0  0  0
   39.5710   31.1600   39.2340 H   0  0  0  0  0  0  0  0  0  0  0  0
   41.8260   34.6100   38.0340 H   0  0  0  0  0  0  0  0  0  0  0  0
   42.5930   30.9150   36.2670 H   0  0  0  0  0  0  0  0  0  0  0  0
   35.5370   31.0790   41.3110 O   0  0  0  0  0  0  0  0  0  0  0  0
   35.3060   30.2470   41.7860 H   0  0  0  0  0  0  0  0  0  0  0  0
   36.5400   30.9070   39.0710 O   0  0  0  0  0  0  0  0  0  0  0  0
   35.6670   30.5280   38.7680 H   0  0  0  0  0  0  0  0  0  0  0  0
   38.0040   30.1780   41.0260 O   0  0  0  0  0  0  0  0  0  0  0  0
   37.6350   29.3730   42.0960 C   0  0  0  0  0  3  0  0  0  0  0  0
   38.8170   29.3520   43.0490 C   0  0  0  0  0  3  0  0  0  0  0  0
   38.4990   29.1490   44.0970 H   0  0  0  0  0  0  0  0  0  0  0  0
   39.6210   28.1210   42.6210 C   0  0  0  0  0  3  0  0  0  0  0  0
   40.6650   28.1470   42.9600 H   0  0  0  0  0  0  0  0  0  0  0  0
   38.9530   27.0220   43.1360 O   0  0  0  0  0  0  0  0  0  0  0  0
   37.6830   26.9070   42.6350 C   0  0  0  0  0  3  0  0  0  0  0  0
   36.9890   26.8280   43.5200 H   0  0  0  0  0  0  0  0  0  0  0  0
   37.2760   27.9740   41.6610 C   0  0  0  0  0  3  0  0  0  0  0  0
   36.1550   27.9370   41.5810 H   0  0  0  0  0  0  0  0  0  0  0  0
  1  2  1  0  0  0  0
  1 21  1  0  0  0  0
  1 17  1  0  0  0  0
  2  4  1  0  0  0  0
  2  3  1  0  0  0  0
  4  6  1  0  0  0  0
  5  4  1  0  0  0  0
  7  4  1  0  0  0  0
  8  9  1  0  0  0  0
  8 14  1  0  0  0  0
  9  7  1  0  0  0  0
 10 15  1  0  0  0  0
 10  9  2  0  0  0  0
 11 10  1  0  0  0  0
 12 11  2  0  0  0  0
 12 13  1  0  0  0  0
 13  8  2  0  0  0  0
 16 12  1  0  0  0  0
 17 18  1  0  0  0  0
 19  1  1  0  0  0  0
 20 19  1  0  0  0  0
 21 22  1  0  0  0  0
 22 23  1  0  0  0  0
 23 24  1  0  0  0  0
 25 26  1  0  0  0  0
 25 23  1  0  0  0  0
 25 27  1  0  0  0  0
 28 27  1  0  0  0  0
 28 29  1  0  0  0  0
 30 22  1  0  0  0  0
 30 28  1  0  0  0  0
 31 30  1  0  0  0  0
M  END
>  <minimizedAffinity>
-5.04441643

$$$$

 OpenBabel03252503013D

 31 32  0  0  0  0  0  0  0  0999 V2000
   36.7130   31.1320   40.5960 S   0  0  0  0  0  0  0  0  0  0  0  0
   37.9540   30.0830   41.2000 N   0  0  0  0  0  0  0  0  0  0  0  0
   38.8040   30.6460   41.4170 H   0  0  0  0  0  0  0  0  0  0  0  0
   37.5480   29.4590   42.4690 C   0  0  0  0  0  0  0  0  0  0  0  0
   36.7660   30.1150   42.9510 H   0  0  0  0  0  0  0  0  0  0  0  0
   38.3820   29.4380   43.1990 H   0  0  0  0  0  0  0  0  0  0  0  0
   36.8590   27.8600   42.0900 S   0  0  0  0  0  0  0  0  0  0  0  0
   39.1140   26.8550   43.3310 C   0  0  0  0  0  0  0  0  0  0  0  0
   38.0300   26.5560   42.5270 C   0  0  0  0  0  0  0  0  0  0  0  0
   37.8250   25.2660   42.0500 C   0  0  0  0  0  0  0  0  0  0  0  0
   38.7430   24.3130   42.4120 N   0  0  0  0  0  0  0  0  0  0  0  0
   39.7770   24.6620   43.1940 C   0  0  0  0  0  0  0  0  0  0  0  0
   39.9980   25.8740   43.6620 N   0  0  0  0  0  0  0  0  0  0  0  0
   39.2410   27.8670   43.6840 H   0  0  0  0  0  0  0  0  0  0  0  0
   36.9640   25.0250   41.4110 H   0  0  0  0  0  0  0  0  0  0  0  0
   40.4170   23.8010   43.3950 H   0  0  0  0  0  0  0  0  0  0  0  0
   35.4780   31.0450   41.4240 O   0  0  0  0  0  0  0  0  0  0  0  0
   34.5790   31.1680   41.0380 H   0  0  0  0  0  0  0  0  0  0  0  0
   37.2890   32.5290   40.6670 O   0  0  0  0  0  0  0  0  0  0  0  0
   36.7870   33.2750   41.1030 H   0  0  0  0  0  0  0  0  0  0  0  0
   36.4490   30.8150   38.9780 O   0  0  0  0  0  0  0  0  0  0  0  0
   36.3720   29.4600   38.6840 C   0  0  0  0  0  3  0  0  0  0  0  0
   37.0760   29.2650   37.3530 C   0  0  0  0  0  3  0  0  0  0  0  0
   37.4760   28.2310   37.2440 H   0  0  0  0  0  0  0  0  0  0  0  0
   35.9530   29.3790   36.3170 C   0  0  0  0  0  3  0  0  0  0  0  0
   36.3190   29.6090   35.3070 H   0  0  0  0  0  0  0  0  0  0  0  0
   35.2770   28.1710   36.3420 O   0  0  0  0  0  0  0  0  0  0  0  0
   34.7130   27.9190   37.5660 C   0  0  0  0  0  3  0  0  0  0  0  0
   35.0660   26.8950   37.8830 H   0  0  0  0  0  0  0  0  0  0  0  0
   34.9470   28.9720   38.6110 C   0  0  0  0  0  3  0  0  0  0  0  0
   34.7120   28.5040   39.6070 H   0  0  0  0  0  0  0  0  0  0  0  0
  1 19  1  0  0  0  0
  1  2  1  0  0  0  0
  1 17  1  0  0  0  0
  2  3  1  0  0  0  0
  2  4  1  0  0  0  0
  4  5  1  0  0  0  0
  4  6  1  0  0  0  0
  7  4  1  0  0  0  0
  7  9  1  0  0  0  0
  8 13  1  0  0  0  0
  8 14  1  0  0  0  0
  9  8  2  0  0  0  0
 10 11  2  0  0  0  0
 10  9  1  0  0  0  0
 11 12  1  0  0  0  0
 12 16  1  0  0  0  0
 12 13  2  0  0  0  0
 15 10  1  0  0  0  0
 18 17  1  0  0  0  0
 19 20  1  0  0  0  0
 21  1  1  0  0  0  0
 22 21  1  0  0  0  0
 23 22  1  0  0  0  0
 24 23  1  0  0  0  0
 25 27  1  0  0  0  0
 25 23  1  0  0  0  0
 26 25  1  0  0  0  0
 27 28  1  0  0  0  0
 28 29  1  0  0  0  0
 28 30  1  0  0  0  0
 30 22  1  0  0  0  0
 30 31  1  0  0  0  0
M  END
>  <minimizedAffinity>
-4.83784485

$$$$

 OpenBabel03252503013D

 31 32  0  0  0  0  0  0  0  0999 V2000
   36.5190   29.8750   41.2600 S   0  0  0  0  0  0  0  0  0  0  0  0
   36.9160   29.3770   42.8730 N   0  0  0  0  0  0  0  0  0  0  0  0
   36.5240   28.4260   43.0440 H   0  0  0  0  0  0  0  0  0  0  0  0
   38.3720   29.2510   43.0430 C   0  0  0  0  0  0  0  0  0  0  0  0
   38.6800   29.8780   43.9290 H   0  0  0  0  0  0  0  0  0  0  0  0
   38.9220   29.6910   42.1870 H   0  0  0  0  0  0  0  0  0  0  0  0
   38.7350   27.5340   43.3490 S   0  0  0  0  0  0  0  0  0  0  0  0
   37.2330   25.5280   42.1880 C   0  0  0  0  0  0  0  0  0  0  0  0
   38.1710   26.5190   41.9670 C   0  0  0  0  0  0  0  0  0  0  0  0
   38.6860   26.7480   40.6960 C   0  0  0  0  0  0  0  0  0  0  0  0
   38.2230   25.9500   39.6810 N   0  0  0  0  0  0  0  0  0  0  0  0
   37.3130   25.0030   39.9550 C   0  0  0  0  0  0  0  0  0  0  0  0
   36.8060   24.7610   41.1480 N   0  0  0  0  0  0  0  0  0  0  0  0
   36.8540   25.3780   43.1870 H   0  0  0  0  0  0  0  0  0  0  0  0
   39.4310   27.5360   40.5170 H   0  0  0  0  0  0  0  0  0  0  0  0
   37.0430   24.4520   39.0510 H   0  0  0  0  0  0  0  0  0  0  0  0
   35.7960   28.8010   40.5220 O   0  0  0  0  0  0  0  0  0  0  0  0
   35.8860   28.6830   39.5480 H   0  0  0  0  0  0  0  0  0  0  0  0
   35.6290   31.0880   41.4140 O   0  0  0  0  0  0  0  0  0  0  0  0
   34.7510   31.1500   40.9410 H   0  0  0  0  0  0  0  0  0  0  0  0
   37.8980   30.4000   40.4790 O   0  0  0  0  0  0  0  0  0  0  0  0
   37.9280   31.7730   40.2710 C   0  0  0  0  0  3  0  0  0  0  0  0
   38.1840   31.9810   38.7890 C   0  0  0  0  0  3  0  0  0  0  0  0
   37.7840   32.9570   38.4320 H   0  0  0  0  0  0  0  0  0  0  0  0
   39.7080   32.1040   38.6870 C   0  0  0  0  0  3  0  0  0  0  0  0
   40.0900   31.9110   37.6760 H   0  0  0  0  0  0  0  0  0  0  0  0
   40.0230   33.3860   39.1060 O   0  0  0  0  0  0  0  0  0  0  0  0
   39.6560   33.6090   40.4080 C   0  0  0  0  0  3  0  0  0  0  0  0
   39.0290   34.5470   40.4130 H   0  0  0  0  0  0  0  0  0  0  0  0
   38.9920   32.4530   41.0970 C   0  0  0  0  0  3  0  0  0  0  0  0
   38.4800   32.8640   42.0100 H   0  0  0  0  0  0  0  0  0  0  0  0
  1 19  1  0  0  0  0
  1  2  1  0  0  0  0
  2  4  1  0  0  0  0
  2  3  1  0  0  0  0
  4  7  1  0  0  0  0
  4  5  1  0  0  0  0
  6  4  1  0  0  0  0
  8 14  1  0  0  0  0
  9  8  1  0  0  0  0
  9  7  1  0  0  0  0
 10  9  2  0  0  0  0
 11 12  2  0  0  0  0
 11 10  1  0  0  0  0
 12 13  1  0  0  0  0
 13  8  2  0  0  0  0
 15 10  1  0  0  0  0
 16 12  1  0  0  0  0
 17  1  1  0  0  0  0
 18 17  1  0  0  0  0
 20 19  1  0  0  0  0
 21  1  1  0  0  0  0
 22 21  1  0  0  0  0
 22 30  1  0  0  0  0
 23 22  1  0  0  0  0
 24 23  1  0  0  0  0
 25 23  1  0  0  0  0
 25 27  1  0  0  0  0
 26 25  1  0  0  0  0
 27 28  1  0  0  0  0
 28 29  1  0  0  0  0
 28 30  1  0  0  0  0
 30 31  1  0  0  0  0
M  END
>  <minimizedAffinity>
-4.76599741

$$$$

 OpenBabel03252503013D

 31 32  0  0  0  0  0  0  0  0999 V2000
   37.5850   29.3220   42.3960 S   0  0  0  0  0  0  0  0  0  0  0  0
   36.4700   30.2810   41.4790 N   0  0  0  0  0  0  0  0  0  0  0  0
   36.9400   31.1630   41.1820 H   0  0  0  0  0  0  0  0  0  0  0  0
   36.0780   29.5950   40.2380 C   0  0  0  0  0  0  0  0  0  0  0  0
   34.9550   29.4950   40.2280 H   0  0  0  0  0  0  0  0  0  0  0  0
   36.4500   28.5500   40.2150 H   0  0  0  0  0  0  0  0  0  0  0  0
   36.6190   30.5990   38.8690 S   0  0  0  0  0  0  0  0  0  0  0  0
   39.1760   31.4350   39.4970 C   0  0  0  0  0  0  0  0  0  0  0  0
   37.8460   31.8030   39.4230 C   0  0  0  0  0  0  0  0  0  0  0  0
   37.4370   33.0870   39.7660 C   0  0  0  0  0  0  0  0  0  0  0  0
   38.4080   33.9620   40.1790 N   0  0  0  0  0  0  0  0  0  0  0  0
   39.6840   33.5480   40.2330 C   0  0  0  0  0  0  0  0  0  0  0  0
   40.1030   32.3400   39.9140 N   0  0  0  0  0  0  0  0  0  0  0  0
   39.4580   30.4300   39.2220 H   0  0  0  0  0  0  0  0  0  0  0  0
   36.3790   33.3820   39.7070 H   0  0  0  0  0  0  0  0  0  0  0  0
   40.3370   34.3530   40.5780 H   0  0  0  0  0  0  0  0  0  0  0  0
   38.8320   30.0790   42.6990 O   0  0  0  0  0  0  0  0  0  0  0  0
   39.7080   29.6350   42.7790 H   0  0  0  0  0  0  0  0  0  0  0  0
   36.8650   28.9730   43.6800 O   0  0  0  0  0  0  0  0  0  0  0  0
   37.2890   29.1280   44.5710 H   0  0  0  0  0  0  0  0  0  0  0  0
   37.8640   27.8770   41.6070 O   0  0  0  0  0  0  0  0  0  0  0  0
   37.7100   26.7620   42.4200 C   0  0  0  0  0  3  0  0  0  0  0  0
   39.0760   26.4700   43.0170 C   0  0  0  0  0  3  0  0  0  0  0  0
   38.9960   25.9330   43.9900 H   0  0  0  0  0  0  0  0  0  0  0  0
   39.7010   25.4640   42.0460 C   0  0  0  0  0  3  0  0  0  0  0  0
   40.7940   25.4090   42.1250 H   0  0  0  0  0  0  0  0  0  0  0  0
   39.1150   24.2400   42.3260 O   0  0  0  0  0  0  0  0  0  0  0  0
   37.7600   24.2560   42.1210 C   0  0  0  0  0  3  0  0  0  0  0  0
   37.2830   23.8780   43.0710 H   0  0  0  0  0  0  0  0  0  0  0  0
   37.1940   25.5670   41.6590 C   0  0  0  0  0  3  0  0  0  0  0  0
   36.0840   25.5250   41.8330 H   0  0  0  0  0  0  0  0  0  0  0  0
  1 17  1  0  0  0  0
  1 19  1  0  0  0  0
  2  1  1  0  0  0  0
  3  2  1  0  0  0  0
  4  2  1  0  0  0  0
  5  4  1  0  0  0  0
  6  4  1  0  0  0  0
  7  9  1  0  0  0  0
  7  4  1  0  0  0  0
  8 13  1  0  0  0  0
  9  8  2  0  0  0  0
  9 10  1  0  0  0  0
 10 11  2  0  0  0  0
 11 12  1  0  0  0  0
 12 16  1  0  0  0  0
 13 12  2  0  0  0  0
 14  8  1  0  0  0  0
 15 10  1  0  0  0  0
 17 18  1  0  0  0  0
 19 20  1  0  0  0  0
 21  1  1  0  0  0  0
 21 22  1  0  0  0  0
 22 23  1  0  0  0  0
 23 24  1  0  0  0  0
 25 26  1  0  0  0  0
 25 27  1  0  0  0  0
 25 23  1  0  0  0  0
 28 27  1  0  0  0  0
 28 29  1  0  0  0  0
 30 31  1  0  0  0  0
 30 28  1  0  0  0  0
 30 22  1  0  0  0  0
M  END
>  <minimizedAffinity>
-4.7196517

$$$$

 OpenBabel03252503013D

 31 32  0  0  0  0  0  0  0  0999 V2000
   37.1030   29.3440   42.0550 S   0  0  0  0  0  0  0  0  0  0  0  0
   38.3760   30.4090   41.5510 N   0  0  0  0  0  0  0  0  0  0  0  0
   39.1750   29.8430   41.1930 H   0  0  0  0  0  0  0  0  0  0  0  0
   37.9440   31.2550   40.4280 C   0  0  0  0  0  0  0  0  0  0  0  0
   36.8220   31.3620   40.4760 H   0  0  0  0  0  0  0  0  0  0  0  0
   38.1340   30.7650   39.4510 H   0  0  0  0  0  0  0  0  0  0  0  0
   38.7220   32.8460   40.6170 S   0  0  0  0  0  0  0  0  0  0  0  0
   40.0130   32.2630   38.2450 C   0  0  0  0  0  0  0  0  0  0  0  0
   40.0120   33.0640   39.3710 C   0  0  0  0  0  0  0  0  0  0  0  0
   40.9870   34.0370   39.5610 C   0  0  0  0  0  0  0  0  0  0  0  0
   41.9420   34.1610   38.5850 N   0  0  0  0  0  0  0  0  0  0  0  0
   41.8940   33.3550   37.5130 C   0  0  0  0  0  0  0  0  0  0  0  0
   40.9830   32.4250   37.3050 N   0  0  0  0  0  0  0  0  0  0  0  0
   39.2400   31.5190   38.1300 H   0  0  0  0  0  0  0  0  0  0  0  0
   40.9880   34.6750   40.4560 H   0  0  0  0  0  0  0  0  0  0  0  0
   42.7160   33.5730   36.8280 H   0  0  0  0  0  0  0  0  0  0  0  0
   36.9980   29.2870   43.5400 O   0  0  0  0  0  0  0  0  0  0  0  0
   36.7050   28.4740   44.0130 H   0  0  0  0  0  0  0  0  0  0  0  0
   35.8330   29.9170   41.4660 O   0  0  0  0  0  0  0  0  0  0  0  0
   35.0260   30.0780   42.0320 H   0  0  0  0  0  0  0  0  0  0  0  0
   37.3130   27.8450   41.3490 O   0  0  0  0  0  0  0  0  0  0  0  0
   37.5310   26.8260   42.2670 C   0  0  0  0  0  3  0  0  0  0  0  0
   39.0340   26.7290   42.4570 C   0  0  0  0  0  3  0  0  0  0  0  0
   39.2990   26.3070   43.4530 H   0  0  0  0  0  0  0  0  0  0  0  0
   39.4720   25.6730   41.4370 C   0  0  0  0  0  3  0  0  0  0  0  0
   40.5410   25.7240   41.1940 H   0  0  0  0  0  0  0  0  0  0  0  0
   39.1410   24.4440   41.9850 O   0  0  0  0  0  0  0  0  0  0  0  0
   37.7920   24.3160   42.1900 C   0  0  0  0  0  3  0  0  0  0  0  0
   37.6530   24.0140   43.2680 H   0  0  0  0  0  0  0  0  0  0  0  0
   36.9650   25.5080   41.8020 C   0  0  0  0  0  3  0  0  0  0  0  0
   35.9640   25.3900   42.3000 H   0  0  0  0  0  0  0  0  0  0  0  0
  1 17  1  0  0  0  0
  2  1  1  0  0  0  0
  3  2  1  0  0  0  0
  4  5  1  0  0  0  0
  4  7  1  0  0  0  0
  4  2  1  0  0  0  0
  6  4  1  0  0  0  0
  8  9  1  0  0  0  0
  9 10  2  0  0  0  0
  9  7  1  0  0  0  0
 10 15  1  0  0  0  0
 11 10  1  0  0  0  0
 12 11  2  0  0  0  0
 13 12  1  0  0  0  0
 13  8  2  0  0  0  0
 14  8  1  0  0  0  0
 16 12  1  0  0  0  0
 17 18  1  0  0  0  0
 19 20  1  0  0  0  0
 19  1  1  0  0  0  0
 21  1  1  0  0  0  0
 21 22  1  0  0  0  0
 22 23  1  0  0  0  0
 23 24  1  0  0  0  0
 25 27  1  0  0  0  0
 25 23  1  0  0  0  0
 26 25  1  0  0  0  0
 27 28  1  0  0  0  0
 28 29  1  0  0  0  0
 30 28  1  0  0  0  0
 30 22  1  0  0  0  0
 30 31  1  0  0  0  0
M  END
>  <minimizedAffinity>
-4.67117929

$$$$

 OpenBabel03252503013D

 31 32  0  0  0  0  0  0  0  0999 V2000
   38.5050   32.8380   40.2930 S   0  0  0  0  0  0  0  0  0  0  0  0
   39.2920   33.2960   38.8170 N   0  0  0  0  0  0  0  0  0  0  0  0
   39.6360   34.2760   38.9010 H   0  0  0  0  0  0  0  0  0  0  0  0
   40.4830   32.4680   38.5750 C   0  0  0  0  0  0  0  0  0  0  0  0
   40.2140   31.6700   37.8240 H   0  0  0  0  0  0  0  0  0  0  0  0
   40.7810   31.9050   39.4830 H   0  0  0  0  0  0  0  0  0  0  0  0
   41.7550   33.5280   37.9160 S   0  0  0  0  0  0  0  0  0  0  0  0
   44.3600   33.9700   38.7250 C   0  0  0  0  0  0  0  0  0  0  0  0
   43.0560   33.7810   39.1430 C   0  0  0  0  0  0  0  0  0  0  0  0
   42.7290   33.7830   40.4950 C   0  0  0  0  0  0  0  0  0  0  0  0
   43.7550   33.9800   41.3850 N   0  0  0  0  0  0  0  0  0  0  0  0
   45.0010   34.1570   40.9200 C   0  0  0  0  0  0  0  0  0  0  0  0
   45.3420   34.1600   39.6470 N   0  0  0  0  0  0  0  0  0  0  0  0
   44.5770   33.9620   37.6680 H   0  0  0  0  0  0  0  0  0  0  0  0
   41.6930   33.6340   40.8300 H   0  0  0  0  0  0  0  0  0  0  0  0
   45.7040   34.3010   41.7440 H   0  0  0  0  0  0  0  0  0  0  0  0
   39.2480   33.3400   41.4830 O   0  0  0  0  0  0  0  0  0  0  0  0
   39.2600   32.8500   42.3370 H   0  0  0  0  0  0  0  0  0  0  0  0
   37.1310   33.4680   40.2360 O   0  0  0  0  0  0  0  0  0  0  0  0
   36.7800   34.0170   40.9930 H   0  0  0  0  0  0  0  0  0  0  0  0
   38.2640   31.1860   40.3120 O   0  0  0  0  0  0  0  0  0  0  0  0
   37.0950   30.8040   40.9560 C   0  0  0  0  0  3  0  0  0  0  0  0
   37.5010   29.8300   42.0480 C   0  0  0  0  0  3  0  0  0  0  0  0
   36.7680   29.8190   42.8860 H   0  0  0  0  0  0  0  0  0  0  0  0
   37.3840   28.4540   41.3850 C   0  0  0  0  0  3  0  0  0  0  0  0
   37.9600   27.6760   41.9020 H   0  0  0  0  0  0  0  0  0  0  0  0
   36.0330   28.1480   41.3630 O   0  0  0  0  0  0  0  0  0  0  0  0
   35.3110   29.0480   40.6240 C   0  0  0  0  0  3  0  0  0  0  0  0
   34.4720   29.4120   41.2850 H   0  0  0  0  0  0  0  0  0  0  0  0
   36.1060   30.1650   40.0130 C   0  0  0  0  0  3  0  0  0  0  0  0
   35.3740   30.9670   39.7180 H   0  0  0  0  0  0  0  0  0  0  0  0
  1 21  1  0  0  0  0
  1 17  1  0  0  0  0
  2  3  1  0  0  0  0
  2  1  1  0  0  0  0
  4  2  1  0  0  0  0
  4  6  1  0  0  0  0
  5  4  1  0  0  0  0
  7  4  1  0  0  0  0
  7  9  1  0  0  0  0
  8  9  2  0  0  0  0
  8 13  1  0  0  0  0
  9 10  1  0  0  0  0
 10 15  1  0  0  0  0
 10 11  2  0  0  0  0
 12 11  1  0  0  0  0
 12 16  1  0  0  0  0
 13 12  2  0  0  0  0
 14  8  1  0  0  0  0
 17 18  1  0  0  0  0
 19  1  1  0  0  0  0
 19 20  1  0  0  0  0
 21 22  1  0  0  0  0
 22 23  1  0  0  0  0
 23 24  1  0  0  0  0
 25 26  1  0  0  0  0
 25 23  1  0  0  0  0
 27 25  1  0  0  0  0
 28 29  1  0  0  0  0
 28 27  1  0  0  0  0
 30 28  1  0  0  0  0
 30 22  1  0  0  0  0
 31 30  1  0  0  0  0
M  END
>  <minimizedAffinity>
-4.58628654

$$$$

 OpenBabel03252503013D

 31 32  0  0  0  0  0  0  0  0999 V2000
   36.7420   31.0860   40.6080 S   0  0  0  0  0  0  0  0  0  0  0  0
   37.3610   32.7060   40.5980 N   0  0  0  0  0  0  0  0  0  0  0  0
   38.0680   32.8070   41.3570 H   0  0  0  0  0  0  0  0  0  0  0  0
   38.0730   32.9920   39.3430 C   0  0  0  0  0  0  0  0  0  0  0  0
   37.5640   33.8630   38.8380 H   0  0  0  0  0  0  0  0  0  0  0  0
   37.9760   32.1570   38.6190 H   0  0  0  0  0  0  0  0  0  0  0  0
   39.7530   33.4160   39.7570 S   0  0  0  0  0  0  0  0  0  0  0  0
   41.0240   31.7290   41.5370 C   0  0  0  0  0  0  0  0  0  0  0  0
   40.6780   31.9340   40.2150 C   0  0  0  0  0  0  0  0  0  0  0  0
   41.0290   31.0170   39.2310 C   0  0  0  0  0  0  0  0  0  0  0  0
   41.7300   29.9080   39.6320 N   0  0  0  0  0  0  0  0  0  0  0  0
   42.0390   29.7620   40.9300 C   0  0  0  0  0  0  0  0  0  0  0  0
   41.7210   30.6130   41.8850 N   0  0  0  0  0  0  0  0  0  0  0  0
   40.7350   32.4620   42.2740 H   0  0  0  0  0  0  0  0  0  0  0  0
   40.7540   31.1770   38.1780 H   0  0  0  0  0  0  0  0  0  0  0  0
   42.5950   28.8360   41.0930 H   0  0  0  0  0  0  0  0  0  0  0  0
   35.4660   30.9970   41.3720 O   0  0  0  0  0  0  0  0  0  0  0  0
   35.2100   30.1870   41.8700 H   0  0  0  0  0  0  0  0  0  0  0  0
   36.5040   30.7310   39.1570 O   0  0  0  0  0  0  0  0  0  0  0  0
   35.6290   30.3590   38.8510 H   0  0  0  0  0  0  0  0  0  0  0  0
   37.9190   30.0390   41.1610 O   0  0  0  0  0  0  0  0  0  0  0  0
   37.4910   29.2270   42.2030 C   0  0  0  0  0  3  0  0  0  0  0  0
   38.6770   29.0640   43.1390 C   0  0  0  0  0  3  0  0  0  0  0  0
   38.3540   28.8470   44.1830 H   0  0  0  0  0  0  0  0  0  0  0  0
   39.3650   27.7860   42.6510 C   0  0  0  0  0  3  0  0  0  0  0  0
   40.4110   27.7070   42.9770 H   0  0  0  0  0  0  0  0  0  0  0  0
   38.6090   26.7290   43.1320 O   0  0  0  0  0  0  0  0  0  0  0  0
   37.3280   26.7460   42.6440 C   0  0  0  0  0  3  0  0  0  0  0  0
   36.6390   26.6920   43.5360 H   0  0  0  0  0  0  0  0  0  0  0  0
   37.0060   27.8830   41.7190 C   0  0  0  0  0  3  0  0  0  0  0  0
   35.8850   27.9470   41.6540 H   0  0  0  0  0  0  0  0  0  0  0  0
  1 21  1  0  0  0  0
  1 17  1  0  0  0  0
  2  1  1  0  0  0  0
  2  3  1  0  0  0  0
  4  7  1  0  0  0  0
  4  2  1  0  0  0  0
  5  4  1  0  0  0  0
  6  4  1  0  0  0  0
  7  9  1  0  0  0  0
  8 13  1  0  0  0  0
  8 14  1  0  0  0  0
  9  8  2  0  0  0  0
 10 11  2  0  0  0  0
 10  9  1  0  0  0  0
 11 12  1  0  0  0  0
 12 16  1  0  0  0  0
 12 13  2  0  0  0  0
 15 10  1  0  0  0  0
 17 18  1  0  0  0  0
 19  1  1  0  0  0  0
 20 19  1  0  0  0  0
 21 22  1  0  0  0  0
 22 23  1  0  0  0  0
 23 24  1  0  0  0  0
 25 26  1  0  0  0  0
 25 27  1  0  0  0  0
 25 23  1  0  0  0  0
 28 27  1  0  0  0  0
 28 29  1  0  0  0  0
 30 22  1  0  0  0  0
 30 28  1  0  0  0  0
 31 30  1  0  0  0  0
M  END
>  <minimizedAffinity>
-4.49773407

$$$$

 OpenBabel03252503013D

 31 32  0  0  0  0  0  0  0  0999 V2000
   36.3840   29.9740   41.3280 S   0  0  0  0  0  0  0  0  0  0  0  0
   37.0270   29.5840   42.8910 N   0  0  0  0  0  0  0  0  0  0  0  0
   36.4300   28.8550   43.3350 H   0  0  0  0  0  0  0  0  0  0  0  0
   38.3690   28.9920   42.7770 C   0  0  0  0  0  0  0  0  0  0  0  0
   38.9680   29.2960   43.6830 H   0  0  0  0  0  0  0  0  0  0  0  0
   38.9300   29.4150   41.9190 H   0  0  0  0  0  0  0  0  0  0  0  0
   38.1790   27.2210   42.7300 S   0  0  0  0  0  0  0  0  0  0  0  0
   40.6060   26.3050   43.6790 C   0  0  0  0  0  0  0  0  0  0  0  0
   39.7910   26.4220   42.5690 C   0  0  0  0  0  0  0  0  0  0  0  0
   40.1900   25.9340   41.3300 C   0  0  0  0  0  0  0  0  0  0  0  0
   41.4220   25.3360   41.2630 N   0  0  0  0  0  0  0  0  0  0  0  0
   42.1720   25.2510   42.3730 C   0  0  0  0  0  0  0  0  0  0  0  0
   41.8210   25.7040   43.5610 N   0  0  0  0  0  0  0  0  0  0  0  0
   40.2640   26.6960   44.6250 H   0  0  0  0  0  0  0  0  0  0  0  0
   39.5420   26.0250   40.4470 H   0  0  0  0  0  0  0  0  0  0  0  0
   43.1200   24.7520   42.1630 H   0  0  0  0  0  0  0  0  0  0  0  0
   35.3150   29.0160   40.9270 O   0  0  0  0  0  0  0  0  0  0  0  0
   35.1580   28.7720   39.9850 H   0  0  0  0  0  0  0  0  0  0  0  0
   35.8100   31.3680   41.4590 O   0  0  0  0  0  0  0  0  0  0  0  0
   34.8790   31.5740   41.1630 H   0  0  0  0  0  0  0  0  0  0  0  0
   37.6280   30.0800   40.2200 O   0  0  0  0  0  0  0  0  0  0  0  0
   37.9200   31.3830   39.8370 C   0  0  0  0  0  3  0  0  0  0  0  0
   37.7210   31.4460   38.3330 C   0  0  0  0  0  3  0  0  0  0  0  0
   37.4750   32.4780   37.9910 H   0  0  0  0  0  0  0  0  0  0  0  0
   39.1100   31.1480   37.7600 C   0  0  0  0  0  3  0  0  0  0  0  0
   39.0830   30.8140   36.7150 H   0  0  0  0  0  0  0  0  0  0  0  0
   39.8450   32.3150   37.8950 O   0  0  0  0  0  0  0  0  0  0  0  0
   39.9880   32.6870   39.2060 C   0  0  0  0  0  3  0  0  0  0  0  0
   39.6430   33.7590   39.2800 H   0  0  0  0  0  0  0  0  0  0  0  0
   39.3250   31.7850   40.2080 C   0  0  0  0  0  3  0  0  0  0  0  0
   39.2550   32.3600   41.1720 H   0  0  0  0  0  0  0  0  0  0  0  0
  1 19  1  0  0  0  0
  1  2  1  0  0  0  0
  2  3  1  0  0  0  0
  4  2  1  0  0  0  0
  4  5  1  0  0  0  0
  6  4  1  0  0  0  0
  7  4  1  0  0  0  0
  8 14  1  0  0  0  0
  9  7  1  0  0  0  0
  9  8  2  0  0  0  0
 10  9  1  0  0  0  0
 11 10  2  0  0  0  0
 11 12  1  0  0  0  0
 12 13  2  0  0  0  0
 13  8  1  0  0  0  0
 15 10  1  0  0  0  0
 16 12  1  0  0  0  0
 17  1  1  0  0  0  0
 18 17  1  0  0  0  0
 20 19  1  0  0  0  0
 21  1  1  0  0  0  0
 22 30  1  0  0  0  0
 22 21  1  0  0  0  0
 23 22  1  0  0  0  0
 24 23  1  0  0  0  0
 25 27  1  0  0  0  0
 25 23  1  0  0  0  0
 26 25  1  0  0  0  0
 27 28  1  0  0  0  0
 28 29  1  0  0  0  0
 28 30  1  0  0  0  0
 30 31  1  0  0  0  0
M  END
>  <minimizedAffinity>
-4.40212011

$$$$

 OpenBabel03252503013D

 31 32  0  0  0  0  0  0  0  0999 V2000
   37.5650   31.2460   40.7310 S   0  0  0  0  0  0  0  0  0  0  0  0
   36.8750   30.4370   42.1010 N   0  0  0  0  0  0  0  0  0  0  0  0
   35.8480   30.6140   42.1220 H   0  0  0  0  0  0  0  0  0  0  0  0
   37.0310   28.9790   41.9870 C   0  0  0  0  0  0  0  0  0  0  0  0
   37.5400   28.7530   41.0060 H   0  0  0  0  0  0  0  0  0  0  0  0
   36.0490   28.4680   41.9150 H   0  0  0  0  0  0  0  0  0  0  0  0
   38.0460   28.4350   43.3460 S   0  0  0  0  0  0  0  0  0  0  0  0
   37.8410   25.8960   42.2770 C   0  0  0  0  0  0  0  0  0  0  0  0
   38.5930   26.7350   43.0780 C   0  0  0  0  0  0  0  0  0  0  0  0
   39.7660   26.2920   43.6800 C   0  0  0  0  0  0  0  0  0  0  0  0
   40.1360   24.9920   43.4430 N   0  0  0  0  0  0  0  0  0  0  0  0
   39.3660   24.2240   42.6580 C   0  0  0  0  0  0  0  0  0  0  0  0
   38.2510   24.6140   42.0740 N   0  0  0  0  0  0  0  0  0  0  0  0
   36.9370   26.2740   41.8260 H   0  0  0  0  0  0  0  0  0  0  0  0
   40.3660   26.9570   44.3160 H   0  0  0  0  0  0  0  0  0  0  0  0
   39.7890   23.2210   42.5640 H   0  0  0  0  0  0  0  0  0  0  0  0
   37.7270   30.3180   39.5770 O   0  0  0  0  0  0  0  0  0  0  0  0
   38.4600   30.4150   38.9260 H   0  0  0  0  0  0  0  0  0  0  0  0
   36.5940   32.3510   40.3760 O   0  0  0  0  0  0  0  0  0  0  0  0
   36.2590   32.4660   39.4420 H   0  0  0  0  0  0  0  0  0  0  0  0
   38.9870   31.9970   41.1800 O   0  0  0  0  0  0  0  0  0  0  0  0
   39.8100   32.3130   40.1070 C   0  0  0  0  0  3  0  0  0  0  0  0
   41.1180   31.5750   40.3340 C   0  0  0  0  0  3  0  0  0  0  0  0
   41.6510   31.3740   39.3770 H   0  0  0  0  0  0  0  0  0  0  0  0
   41.9920   32.5870   41.0820 C   0  0  0  0  0  3  0  0  0  0  0  0
   42.8250   32.1200   41.6240 H   0  0  0  0  0  0  0  0  0  0  0  0
   42.4520   33.4820   40.1300 O   0  0  0  0  0  0  0  0  0  0  0  0
   41.4280   34.1600   39.5210 C   0  0  0  0  0  3  0  0  0  0  0  0
   41.5680   34.0300   38.4090 H   0  0  0  0  0  0  0  0  0  0  0  0
   40.0480   33.7970   39.9870 C   0  0  0  0  0  3  0  0  0  0  0  0
   39.3280   34.1800   39.2120 H   0  0  0  0  0  0  0  0  0  0  0  0
  1 21  1  0  0  0  0
  1  2  1  0  0  0  0
  2  3  1  0  0  0  0
  4  2  1  0  0  0  0
  4  7  1  0  0  0  0
  5  4  1  0  0  0  0
  6  4  1  0  0  0  0
  8  9  1  0  0  0  0
  9  7  1  0  0  0  0
  9 10  2  0  0  0  0
 10 15  1  0  0  0  0
 11 10  1  0  0  0  0
 12 11  2  0  0  0  0
 13  8  2  0  0  0  0
 13 12  1  0  0  0  0
 14  8  1  0  0  0  0
 16 12  1  0  0  0  0
 17  1  1  0  0  0  0
 18 17  1  0  0  0  0
 19  1  1  0  0  0  0
 20 19  1  0  0  0  0
 22 23  1  0  0  0  0
 22 21  1  0  0  0  0
 23 25  1  0  0  0  0
 24 23  1  0  0  0  0
 25 26  1  0  0  0  0
 27 25  1  0  0  0  0
 28 30  1  0  0  0  0
 28 27  1  0  0  0  0
 29 28  1  0  0  0  0
 30 22  1  0  0  0  0
 31 30  1  0  0  0  0
M  END
>  <minimizedAffinity>
-4.36862707

$$$$
