
     RDKit          3D

 31 33  0  0  0  0  0  0  0  0999 V2000
   44.5893   35.9056   44.3197 C   0  0  0  0  0  0  0  0  0  0  0  0
   45.3312   35.9029   43.1289 C   0  0  0  0  0  0  0  0  0  0  0  0
   46.2967   34.9172   43.0185 C   0  0  0  0  0  0  0  0  0  0  0  0
   46.4633   34.0224   44.0583 N   0  0  0  0  0  0  0  0  0  0  0  0
   45.7344   34.0563   45.1791 C   0  0  0  0  0  0  0  0  0  0  0  0
   44.7992   35.0135   45.2853 N   0  0  0  0  0  0  0  0  0  0  0  0
   47.0819   34.8050   41.7352 C   0  0  0  0  0  0  0  0  0  0  0  0
   48.4624   35.4634   41.8870 C   0  0  0  0  0  0  0  0  0  0  0  0
   48.2386   33.9276   41.7459 C   0  0  0  0  0  0  0  0  0  0  0  0
   43.8181   36.5829   44.5735 H   0  0  0  0  0  0  0  0  0  0  0  0
   45.9870   33.2912   45.8891 H   0  0  0  0  0  0  0  0  0  0  0  0
   46.6384   35.3073   40.8279 H   0  0  0  0  0  0  0  0  0  0  0  0
   48.9837   35.8823   41.0283 H   0  0  0  0  0  0  0  0  0  0  0  0
   48.8303   35.7438   42.8720 H   0  0  0  0  0  0  0  0  0  0  0  0
   48.5307   33.4643   40.7803 H   0  0  0  0  0  0  0  0  0  0  0  0
   48.4296   33.3027   42.6252 H   0  0  0  0  0  0  0  0  0  0  0  0
   45.0205   36.9340   42.0939 C   0  0  2  0  0  0  0  0  0  0  0  0
   45.0828   38.3169   42.6495 C   0  0  2  0  0  0  0  0  0  0  0  0
   45.9594   38.8785   42.2046 H   0  0  0  0  0  0  0  0  0  0  0  0
   43.8768   39.1625   42.5023 C   0  0  1  0  0  0  0  0  0  0  0  0
   43.1991   39.1551   43.3796 H   0  0  0  0  0  0  0  0  0  0  0  0
   43.0673   38.8273   41.4193 O   0  0  0  0  0  0  0  0  0  0  0  0
   42.6054   37.5293   41.7284 C   0  0  2  0  0  0  0  0  0  0  0  0
   41.7340   37.2616   41.1302 H   0  0  0  0  0  0  0  0  0  0  0  0
   43.7239   36.6077   41.3775 C   0  0  1  0  0  0  0  0  0  0  0  0
   43.8590   36.6811   40.2733 H   0  0  0  0  0  0  0  0  0  0  0  0
   45.7983   36.8340   41.3101 H   0  0  0  0  0  0  0  0  0  0  0  0
   45.3450   38.3220   43.7503 H   0  0  0  0  0  0  0  0  0  0  0  0
   44.1778   40.2157   42.3367 H   0  0  0  0  0  0  0  0  0  0  0  0
   42.4277   37.4913   42.8210 H   0  0  0  0  0  0  0  0  0  0  0  0
   43.3922   35.5693   41.5540 H   0  0  0  0  0  0  0  0  0  0  0  0
  1  6  2  0
  2  1  1  0
  3  2  2  0
  3  4  1  0
  4  5  2  0
  5  6  1  0
  7  8  1  0
  7  9  1  0
  7  3  1  0
  8  9  1  0
  1 10  1  0
  5 11  1  0
  7 12  1  0
  8 13  1  0
  8 14  1  0
  9 15  1  0
  9 16  1  0
 17 18  1  0
 18 19  1  6
 18 20  1  0
 20 21  1  1
 20 22  1  0
 22 23  1  0
 23 24  1  6
 23 25  1  0
 25 26  1  6
 25 17  1  0
 17 27  1  6
 18 28  1  0
 20 29  1  0
 23 30  1  0
 25 31  1  0
  2 17  1  0
M  ISO  8  10  14  11  14  12  13  13  13  14  13  15  13  16  13  19  15
M  ISO  3  21  15  24  15  26  15
M  END
>  <DihAtoms>  (1) 
0,1,16,17

>  <DihDeg>  (1) 
99.4811391609508

$$$$
