
 OpenBabel03252501303D

 39 41  0  0  0  0  0  0  0  0999 V2000
   36.9970   30.3310   41.1950 C   0  0  0  0  0  0  0  0  0  0  0  0
   38.1610   30.0070   41.8390 C   0  0  0  0  0  0  0  0  0  0  0  0
   38.4400   28.7670   42.3250 C   0  0  0  0  0  0  0  0  0  0  0  0
   37.5140   27.7940   42.1660 C   0  0  0  0  0  0  0  0  0  0  0  0
   36.3110   28.0910   41.5110 C   0  0  0  0  0  0  0  0  0  0  0  0
   36.0620   29.3550   41.0310 C   0  0  0  0  0  0  0  0  0  0  0  0
   38.8670   30.8490   41.9310 H   0  0  0  0  0  0  0  0  0  0  0  0
   39.3890   28.6370   42.8110 H   0  0  0  0  0  0  0  0  0  0  0  0
   35.6860   27.1860   41.4730 H   0  0  0  0  0  0  0  0  0  0  0  0
   37.8410   26.4220   42.7160 C   0  0  0  0  0  3  0  0  0  0  0  0
   39.3330   26.2810   42.7690 C   0  0  0  0  0  3  0  0  0  0  0  0
   39.7440   26.9590   43.5210 H   0  0  0  0  0  0  0  0  0  0  0  0
   39.6090   24.8170   43.0930 C   0  0  0  0  0  3  0  0  0  0  0  0
   40.6610   24.6660   43.3870 H   0  0  0  0  0  0  0  0  0  0  0  0
   39.2130   24.0710   42.0080 O   0  0  0  0  0  0  0  0  0  0  0  0
   37.8270   24.0290   41.9700 C   0  0  0  0  0  3  0  0  0  0  0  0
   37.4320   23.4980   42.8680 H   0  0  0  0  0  0  0  0  0  0  0  0
   37.2050   25.3900   41.8130 C   0  0  0  0  0  3  0  0  0  0  0  0
   37.3020   25.7440   40.7730 H   0  0  0  0  0  0  0  0  0  0  0  0
   34.7570   28.9100   39.0400 C   0  0  0  0  0  0  0  0  0  0  0  0
   35.5760   28.6160   38.0950 O   0  0  0  0  0  0  0  0  0  0  0  0
   34.7670   29.2840   40.4230 N   0  0  0  0  0  0  0  0  0  0  0  0
   33.8810   28.7800   38.4050 H   0  0  0  0  0  0  0  0  0  0  0  0
   33.8230   29.4490   40.7810 H   0  0  0  0  0  0  0  0  0  0  0  0
   36.5650   31.6230   40.6420 C   0  0  0  0  0  0  0  0  0  0  0  0
   36.8890   32.4730   41.3110 H   0  0  0  0  0  0  0  0  0  0  0  0
   35.4620   31.6580   40.6680 H   0  0  0  0  0  0  0  0  0  0  0  0
   37.1280   31.8550   39.2650 C   0  0  0  0  0  0  0  0  0  0  0  0
   36.3770   32.4360   38.6880 H   0  0  0  0  0  0  0  0  0  0  0  0
   37.3050   30.8870   38.7530 H   0  0  0  0  0  0  0  0  0  0  0  0
   40.5740   33.0390   38.8880 C   0  0  0  0  0  0  0  0  0  0  0  0
   40.6000   34.2020   39.6840 C   0  0  0  0  0  0  0  0  0  0  0  0
   39.3990   34.5350   40.3300 C   0  0  0  0  0  0  0  0  0  0  0  0
   38.3120   33.7620   40.1690 N   0  0  0  0  0  0  0  0  0  0  0  0
   38.3610   32.6600   39.3900 C   0  0  0  0  0  0  0  0  0  0  0  0
   39.4490   32.2950   38.7600 N   0  0  0  0  0  0  0  0  0  0  0  0
   41.4680   32.7390   38.3710 H   0  0  0  0  0  0  0  0  0  0  0  0
   41.5350   34.7420   39.7370 H   0  0  0  0  0  0  0  0  0  0  0  0
   39.4260   35.4240   40.9360 H   0  0  0  0  0  0  0  0  0  0  0  0
  1  2  1  0  0  0  0
  2  7  1  0  0  0  0
  2  3  2  0  0  0  0
  3  8  1  0  0  0  0
  4  3  1  0  0  0  0
  4 10  1  0  0  0  0
  5  4  2  0  0  0  0
  6  1  2  0  0  0  0
  6  5  1  0  0  0  0
  9  5  1  0  0  0  0
 10 11  1  0  0  0  0
 11 13  1  0  0  0  0
 11 12  1  0  0  0  0
 13 14  1  0  0  0  0
 15 13  1  0  0  0  0
 16 15  1  0  0  0  0
 16 17  1  0  0  0  0
 18 16  1  0  0  0  0
 18 10  1  0  0  0  0
 19 18  1  0  0  0  0
 20 22  1  0  0  0  0
 21 20  2  0  0  0  0
 22 24  1  0  0  0  0
 22  6  1  0  0  0  0
 23 20  1  0  0  0  0
 25 27  1  0  0  0  0
 25  1  1  0  0  0  0
 25 26  1  0  0  0  0
 28 35  1  0  0  0  0
 28 25  1  0  0  0  0
 29 28  1  0  0  0  0
 30 28  1  0  0  0  0
 31 32  1  0  0  0  0
 32 38  1  0  0  0  0
 32 33  2  0  0  0  0
 33 39  1  0  0  0  0
 34 33  1  0  0  0  0
 35 34  2  0  0  0  0
 36 31  2  0  0  0  0
 36 35  1  0  0  0  0
 37 31  1  0  0  0  0
M  END
>  <minimizedAffinity>
-5.95524359

$$$$

 OpenBabel03252501303D

 39 41  0  0  0  0  0  0  0  0999 V2000
   35.7540   28.2560   39.5450 C   0  0  0  0  0  0  0  0  0  0  0  0
   36.2570   26.9840   39.4580 C   0  0  0  0  0  0  0  0  0  0  0  0
   36.9640   26.3780   40.4490 C   0  0  0  0  0  0  0  0  0  0  0  0
   37.1880   27.0680   41.5900 C   0  0  0  0  0  0  0  0  0  0  0  0
   36.6880   28.3710   41.7140 C   0  0  0  0  0  0  0  0  0  0  0  0
   35.9750   28.9540   40.6930 C   0  0  0  0  0  0  0  0  0  0  0  0
   36.0350   26.4850   38.5000 H   0  0  0  0  0  0  0  0  0  0  0  0
   37.3050   25.3760   40.2610 H   0  0  0  0  0  0  0  0  0  0  0  0
   36.9620   28.7730   42.7010 H   0  0  0  0  0  0  0  0  0  0  0  0
   37.9790   26.3780   42.6810 C   0  0  0  0  0  3  0  0  0  0  0  0
   39.2130   27.1870   42.9500 C   0  0  0  0  0  3  0  0  0  0  0  0
   38.9400   28.1430   43.4030 H   0  0  0  0  0  0  0  0  0  0  0  0
   40.0850   26.3370   43.8670 C   0  0  0  0  0  3  0  0  0  0  0  0
   40.8980   26.9360   44.3110 H   0  0  0  0  0  0  0  0  0  0  0  0
   40.5150   25.2510   43.1410 O   0  0  0  0  0  0  0  0  0  0  0  0
   39.4550   24.3730   42.9720 C   0  0  0  0  0  3  0  0  0  0  0  0
   39.1250   23.9710   43.9590 H   0  0  0  0  0  0  0  0  0  0  0  0
   38.3080   24.9800   42.2100 C   0  0  0  0  0  3  0  0  0  0  0  0
   38.5410   25.0310   41.1330 H   0  0  0  0  0  0  0  0  0  0  0  0
   36.5750   31.2920   40.9000 C   0  0  0  0  0  0  0  0  0  0  0  0
   37.7270   31.4480   40.3530 O   0  0  0  0  0  0  0  0  0  0  0  0
   35.6200   30.2580   41.1700 N   0  0  0  0  0  0  0  0  0  0  0  0
   36.4850   32.3460   41.1570 H   0  0  0  0  0  0  0  0  0  0  0  0
   34.8050   30.6120   41.6770 H   0  0  0  0  0  0  0  0  0  0  0  0
   34.9960   29.0290   38.5530 C   0  0  0  0  0  0  0  0  0  0  0  0
   35.6680   29.7600   38.0150 H   0  0  0  0  0  0  0  0  0  0  0  0
   34.2720   29.6660   39.0910 H   0  0  0  0  0  0  0  0  0  0  0  0
   34.3450   28.1370   37.5300 C   0  0  0  0  0  0  0  0  0  0  0  0
   33.8820   27.2850   38.0720 H   0  0  0  0  0  0  0  0  0  0  0  0
   35.1040   27.7440   36.8220 H   0  0  0  0  0  0  0  0  0  0  0  0
   31.2780   30.0330   36.8820 C   0  0  0  0  0  0  0  0  0  0  0  0
   31.3550   30.3000   35.5000 C   0  0  0  0  0  0  0  0  0  0  0  0
   32.4890   29.8040   34.8360 C   0  0  0  0  0  0  0  0  0  0  0  0
   33.4220   29.1210   35.5200 N   0  0  0  0  0  0  0  0  0  0  0  0
   33.2810   28.9020   36.8460 C   0  0  0  0  0  0  0  0  0  0  0  0
   32.2480   29.3380   37.5220 N   0  0  0  0  0  0  0  0  0  0  0  0
   30.4290   30.3900   37.4370 H   0  0  0  0  0  0  0  0  0  0  0  0
   30.5410   30.8600   35.0590 H   0  0  0  0  0  0  0  0  0  0  0  0
   32.5420   30.0120   33.7820 H   0  0  0  0  0  0  0  0  0  0  0  0
  1  6  1  0  0  0  0
  2  1  2  0  0  0  0
  2  3  1  0  0  0  0
  3  4  2  0  0  0  0
  4  5  1  0  0  0  0
  4 10  1  0  0  0  0
  5  9  1  0  0  0  0
  6 22  1  0  0  0  0
  6  5  2  0  0  0  0
  7  2  1  0  0  0  0
  8  3  1  0  0  0  0
 10 11  1  0  0  0  0
 11 12  1  0  0  0  0
 11 13  1  0  0  0  0
 13 14  1  0  0  0  0
 15 13  1  0  0  0  0
 16 15  1  0  0  0  0
 16 17  1  0  0  0  0
 18 10  1  0  0  0  0
 18 16  1  0  0  0  0
 19 18  1  0  0  0  0
 20 23  1  0  0  0  0
 20 22  1  0  0  0  0
 21 20  2  0  0  0  0
 22 24  1  0  0  0  0
 25 27  1  0  0  0  0
 25  1  1  0  0  0  0
 26 25  1  0  0  0  0
 28 29  1  0  0  0  0
 28 25  1  0  0  0  0
 30 28  1  0  0  0  0
 31 37  1  0  0  0  0
 31 36  1  0  0  0  0
 32 31  2  0  0  0  0
 33 32  1  0  0  0  0
 33 34  2  0  0  0  0
 34 35  1  0  0  0  0
 35 36  2  0  0  0  0
 35 28  1  0  0  0  0
 38 32  1  0  0  0  0
 39 33  1  0  0  0  0
M  END
>  <minimizedAffinity>
-5.75916195

$$$$

 OpenBabel03252501303D

 39 41  0  0  0  0  0  0  0  0999 V2000
   37.9880   29.6530   42.4450 C   0  0  0  0  0  0  0  0  0  0  0  0
   39.2770   30.1140   42.4120 C   0  0  0  0  0  0  0  0  0  0  0  0
   39.7270   31.0470   41.5310 C   0  0  0  0  0  0  0  0  0  0  0  0
   38.8530   31.5530   40.6320 C   0  0  0  0  0  0  0  0  0  0  0  0
   37.5260   31.1050   40.6380 C   0  0  0  0  0  0  0  0  0  0  0  0
   37.1040   30.1600   41.5430 C   0  0  0  0  0  0  0  0  0  0  0  0
   39.9310   29.6570   43.1740 H   0  0  0  0  0  0  0  0  0  0  0  0
   40.7620   31.3280   41.6060 H   0  0  0  0  0  0  0  0  0  0  0  0
   36.9640   31.6220   39.8450 H   0  0  0  0  0  0  0  0  0  0  0  0
   39.3730   32.5890   39.6580 C   0  0  0  0  0  3  0  0  0  0  0  0
   40.3540   31.9210   38.7420 C   0  0  0  0  0  3  0  0  0  0  0  0
   39.8360   31.2070   38.0980 H   0  0  0  0  0  0  0  0  0  0  0  0
   41.0240   33.0390   37.9500 C   0  0  0  0  0  3  0  0  0  0  0  0
   41.5830   32.6370   37.0880 H   0  0  0  0  0  0  0  0  0  0  0  0
   41.7880   33.7690   38.8290 O   0  0  0  0  0  0  0  0  0  0  0  0
   40.9510   34.5360   39.6260 C   0  0  0  0  0  3  0  0  0  0  0  0
   40.4020   35.2820   39.0040 H   0  0  0  0  0  0  0  0  0  0  0  0
   40.0090   33.7050   40.4540 C   0  0  0  0  0  3  0  0  0  0  0  0
   40.5390   33.2530   41.3090 H   0  0  0  0  0  0  0  0  0  0  0  0
   35.4150   28.8940   40.3540 C   0  0  0  0  0  0  0  0  0  0  0  0
   36.0190   28.0130   39.6420 O   0  0  0  0  0  0  0  0  0  0  0  0
   35.7120   29.9600   41.2650 N   0  0  0  0  0  0  0  0  0  0  0  0
   34.4270   28.5680   40.0320 H   0  0  0  0  0  0  0  0  0  0  0  0
   34.8650   30.4320   41.5920 H   0  0  0  0  0  0  0  0  0  0  0  0
   37.3800   28.6440   43.3240 C   0  0  0  0  0  0  0  0  0  0  0  0
   36.5480   28.0980   42.7910 H   0  0  0  0  0  0  0  0  0  0  0  0
   36.8760   29.1690   44.1550 H   0  0  0  0  0  0  0  0  0  0  0  0
   38.3910   27.6340   43.7960 C   0  0  0  0  0  0  0  0  0  0  0  0
   38.1640   27.4000   44.8580 H   0  0  0  0  0  0  0  0  0  0  0  0
   39.4160   28.0540   43.7310 H   0  0  0  0  0  0  0  0  0  0  0  0
   36.9680   25.0060   41.6780 C   0  0  0  0  0  0  0  0  0  0  0  0
   38.0360   24.0980   41.5360 C   0  0  0  0  0  0  0  0  0  0  0  0
   39.2300   24.4400   42.1910 C   0  0  0  0  0  0  0  0  0  0  0  0
   39.3040   25.5790   42.9000 N   0  0  0  0  0  0  0  0  0  0  0  0
   38.2370   26.4030   42.9930 C   0  0  0  0  0  0  0  0  0  0  0  0
   37.0960   26.1400   42.4060 N   0  0  0  0  0  0  0  0  0  0  0  0
   36.0300   24.7890   41.1960 H   0  0  0  0  0  0  0  0  0  0  0  0
   37.8570   23.2130   40.9390 H   0  0  0  0  0  0  0  0  0  0  0  0
   40.0420   23.7430   42.0780 H   0  0  0  0  0  0  0  0  0  0  0  0
  1 25  1  0  0  0  0
  2  1  1  0  0  0  0
  2  7  1  0  0  0  0
  3  8  1  0  0  0  0
  3  2  2  0  0  0  0
  4  5  2  0  0  0  0
  4  3  1  0  0  0  0
  5  6  1  0  0  0  0
  6  1  2  0  0  0  0
  9  5  1  0  0  0  0
 10 18  1  0  0  0  0
 10  4  1  0  0  0  0
 11 10  1  0  0  0  0
 12 11  1  0  0  0  0
 13 11  1  0  0  0  0
 13 15  1  0  0  0  0
 14 13  1  0  0  0  0
 15 16  1  0  0  0  0
 16 18  1  0  0  0  0
 17 16  1  0  0  0  0
 18 19  1  0  0  0  0
 20 22  1  0  0  0  0
 21 20  2  0  0  0  0
 22  6  1  0  0  0  0
 22 24  1  0  0  0  0
 23 20  1  0  0  0  0
 25 28  1  0  0  0  0
 25 27  1  0  0  0  0
 26 25  1  0  0  0  0
 28 29  1  0  0  0  0
 30 28  1  0  0  0  0
 31 36  1  0  0  0  0
 32 31  2  0  0  0  0
 32 33  1  0  0  0  0
 33 34  2  0  0  0  0
 34 35  1  0  0  0  0
 35 28  1  0  0  0  0
 36 35  2  0  0  0  0
 37 31  1  0  0  0  0
 38 32  1  0  0  0  0
 39 33  1  0  0  0  0
M  END
>  <minimizedAffinity>
-5.69086742

$$$$

 OpenBabel03252501303D

 39 41  0  0  0  0  0  0  0  0999 V2000
   36.2000   28.6020   40.5270 C   0  0  0  0  0  0  0  0  0  0  0  0
   36.1570   27.7960   39.4210 C   0  0  0  0  0  0  0  0  0  0  0  0
   36.4900   26.4770   39.4290 C   0  0  0  0  0  0  0  0  0  0  0  0
   36.8900   25.9250   40.5970 C   0  0  0  0  0  0  0  0  0  0  0  0
   36.9450   26.7210   41.7500 C   0  0  0  0  0  0  0  0  0  0  0  0
   36.6000   28.0510   41.7060 C   0  0  0  0  0  0  0  0  0  0  0  0
   35.8230   28.3150   38.5070 H   0  0  0  0  0  0  0  0  0  0  0  0
   36.4150   25.9500   38.4960 H   0  0  0  0  0  0  0  0  0  0  0  0
   37.2870   26.1080   42.5980 H   0  0  0  0  0  0  0  0  0  0  0  0
   37.2590   24.4570   40.5860 C   0  0  0  0  0  3  0  0  0  0  0  0
   38.5500   24.3030   39.8410 C   0  0  0  0  0  3  0  0  0  0  0  0
   39.3640   24.7640   40.4060 H   0  0  0  0  0  0  0  0  0  0  0  0
   38.7520   22.8040   39.6470 C   0  0  0  0  0  3  0  0  0  0  0  0
   39.7830   22.5790   39.3240 H   0  0  0  0  0  0  0  0  0  0  0  0
   37.7790   22.3630   38.7810 O   0  0  0  0  0  0  0  0  0  0  0  0
   36.5620   22.3360   39.4460 C   0  0  0  0  0  3  0  0  0  0  0  0
   36.5920   21.5930   40.2780 H   0  0  0  0  0  0  0  0  0  0  0  0
   36.1310   23.6940   39.9320 C   0  0  0  0  0  3  0  0  0  0  0  0
   35.7500   24.3020   39.0940 H   0  0  0  0  0  0  0  0  0  0  0  0
   38.0880   28.9560   43.3890 C   0  0  0  0  0  0  0  0  0  0  0  0
   39.2600   29.0360   42.8700 O   0  0  0  0  0  0  0  0  0  0  0  0
   36.7630   28.5320   43.0460 N   0  0  0  0  0  0  0  0  0  0  0  0
   38.4140   29.3700   44.3420 H   0  0  0  0  0  0  0  0  0  0  0  0
   36.1130   28.6380   43.8280 H   0  0  0  0  0  0  0  0  0  0  0  0
   35.8870   30.0320   40.6520 C   0  0  0  0  0  0  0  0  0  0  0  0
   36.3600   30.4670   41.5810 H   0  0  0  0  0  0  0  0  0  0  0  0
   34.8010   30.1340   40.8230 H   0  0  0  0  0  0  0  0  0  0  0  0
   36.3700   30.8150   39.4590 C   0  0  0  0  0  0  0  0  0  0  0  0
   35.4890   31.3170   39.0070 H   0  0  0  0  0  0  0  0  0  0  0  0
   36.8210   30.1340   38.7080 H   0  0  0  0  0  0  0  0  0  0  0  0
   39.1560   32.4780   41.1590 C   0  0  0  0  0  0  0  0  0  0  0  0
   39.0260   33.8190   40.7470 C   0  0  0  0  0  0  0  0  0  0  0  0
   37.9580   34.0980   39.8780 C   0  0  0  0  0  0  0  0  0  0  0  0
   37.1340   33.1110   39.4880 N   0  0  0  0  0  0  0  0  0  0  0  0
   37.3200   31.8460   39.9260 C   0  0  0  0  0  0  0  0  0  0  0  0
   38.2960   31.5210   40.7360 N   0  0  0  0  0  0  0  0  0  0  0  0
   39.9580   32.2110   41.8260 H   0  0  0  0  0  0  0  0  0  0  0  0
   39.7510   34.5260   41.1280 H   0  0  0  0  0  0  0  0  0  0  0  0
   37.8650   35.1240   39.5670 H   0  0  0  0  0  0  0  0  0  0  0  0
  1 25  1  0  0  0  0
  1  6  1  0  0  0  0
  2  3  1  0  0  0  0
  2  1  2  0  0  0  0
  3  4  2  0  0  0  0
  4  5  1  0  0  0  0
  5  9  1  0  0  0  0
  6  5  2  0  0  0  0
  6 22  1  0  0  0  0
  7  2  1  0  0  0  0
  8  3  1  0  0  0  0
 10  4  1  0  0  0  0
 11 12  1  0  0  0  0
 11 10  1  0  0  0  0
 13 11  1  0  0  0  0
 14 13  1  0  0  0  0
 15 16  1  0  0  0  0
 15 13  1  0  0  0  0
 16 18  1  0  0  0  0
 16 17  1  0  0  0  0
 18 10  1  0  0  0  0
 19 18  1  0  0  0  0
 20 23  1  0  0  0  0
 21 20  2  0  0  0  0
 22 20  1  0  0  0  0
 22 24  1  0  0  0  0
 25 27  1  0  0  0  0
 25 26  1  0  0  0  0
 28 35  1  0  0  0  0
 28 25  1  0  0  0  0
 29 28  1  0  0  0  0
 30 28  1  0  0  0  0
 31 37  1  0  0  0  0
 32 38  1  0  0  0  0
 32 31  1  0  0  0  0
 33 32  2  0  0  0  0
 34 33  1  0  0  0  0
 34 35  2  0  0  0  0
 35 36  1  0  0  0  0
 36 31  2  0  0  0  0
 39 33  1  0  0  0  0
M  END
>  <minimizedAffinity>
-5.57133675

$$$$

 OpenBabel03252501303D

 39 41  0  0  0  0  0  0  0  0999 V2000
   35.6940   27.9720   39.4580 C   0  0  0  0  0  0  0  0  0  0  0  0
   36.2560   26.7230   39.4280 C   0  0  0  0  0  0  0  0  0  0  0  0
   36.9990   26.2000   40.4400 C   0  0  0  0  0  0  0  0  0  0  0  0
   37.1980   26.9550   41.5440 C   0  0  0  0  0  0  0  0  0  0  0  0
   36.6360   28.2380   41.6100 C   0  0  0  0  0  0  0  0  0  0  0  0
   35.8900   28.7350   40.5680 C   0  0  0  0  0  0  0  0  0  0  0  0
   36.0510   26.1670   38.4970 H   0  0  0  0  0  0  0  0  0  0  0  0
   37.3860   25.2080   40.2980 H   0  0  0  0  0  0  0  0  0  0  0  0
   36.8990   28.7000   42.5730 H   0  0  0  0  0  0  0  0  0  0  0  0
   38.0290   26.3570   42.6590 C   0  0  0  0  0  3  0  0  0  0  0  0
   39.1950   27.2640   42.9140 C   0  0  0  0  0  3  0  0  0  0  0  0
   38.8460   28.2090   43.3380 H   0  0  0  0  0  0  0  0  0  0  0  0
   40.1210   26.5090   43.8610 C   0  0  0  0  0  3  0  0  0  0  0  0
   40.8820   27.1800   44.2940 H   0  0  0  0  0  0  0  0  0  0  0  0
   40.6390   25.4390   43.1690 O   0  0  0  0  0  0  0  0  0  0  0  0
   39.6490   24.4790   43.0180 C   0  0  0  0  0  3  0  0  0  0  0  0
   39.3420   24.0800   44.0130 H   0  0  0  0  0  0  0  0  0  0  0  0
   38.4670   24.9760   42.2300 C   0  0  0  0  0  3  0  0  0  0  0  0
   38.7060   25.0140   41.1540 H   0  0  0  0  0  0  0  0  0  0  0  0
   36.4670   31.0700   40.8570 C   0  0  0  0  0  0  0  0  0  0  0  0
   37.6880   31.2170   40.4860 O   0  0  0  0  0  0  0  0  0  0  0  0
   35.4760   30.0420   40.9850 N   0  0  0  0  0  0  0  0  0  0  0  0
   36.3470   32.1250   41.0960 H   0  0  0  0  0  0  0  0  0  0  0  0
   34.5980   30.4030   41.3640 H   0  0  0  0  0  0  0  0  0  0  0  0
   34.8930   28.6590   38.4360 C   0  0  0  0  0  0  0  0  0  0  0  0
   35.4370   29.5660   38.0430 H   0  0  0  0  0  0  0  0  0  0  0  0
   33.9910   29.0690   38.9230 H   0  0  0  0  0  0  0  0  0  0  0  0
   34.5720   27.7530   37.2770 C   0  0  0  0  0  0  0  0  0  0  0  0
   33.4700   27.7550   37.1420 H   0  0  0  0  0  0  0  0  0  0  0  0
   34.9070   26.7180   37.4930 H   0  0  0  0  0  0  0  0  0  0  0  0
   36.4630   29.9120   35.0000 C   0  0  0  0  0  0  0  0  0  0  0  0
   36.3250   29.2620   33.7570 C   0  0  0  0  0  0  0  0  0  0  0  0
   35.5690   28.0790   33.7580 C   0  0  0  0  0  0  0  0  0  0  0  0
   35.0280   27.6290   34.9030 N   0  0  0  0  0  0  0  0  0  0  0  0
   35.2020   28.3060   36.0590 C   0  0  0  0  0  0  0  0  0  0  0  0
   35.8960   29.4140   36.1240 N   0  0  0  0  0  0  0  0  0  0  0  0
   37.0320   30.8230   35.0530 H   0  0  0  0  0  0  0  0  0  0  0  0
   36.8060   29.7210   32.9040 H   0  0  0  0  0  0  0  0  0  0  0  0
   35.4680   27.5870   32.8070 H   0  0  0  0  0  0  0  0  0  0  0  0
  1  6  1  0  0  0  0
  2  1  2  0  0  0  0
  2  3  1  0  0  0  0
  3  4  2  0  0  0  0
  4  5  1  0  0  0  0
  4 10  1  0  0  0  0
  5  9  1  0  0  0  0
  6 22  1  0  0  0  0
  6  5  2  0  0  0  0
  7  2  1  0  0  0  0
  8  3  1  0  0  0  0
 10 11  1  0  0  0  0
 11 12  1  0  0  0  0
 11 13  1  0  0  0  0
 13 14  1  0  0  0  0
 15 13  1  0  0  0  0
 16 15  1  0  0  0  0
 16 17  1  0  0  0  0
 18 10  1  0  0  0  0
 18 16  1  0  0  0  0
 19 18  1  0  0  0  0
 20 22  1  0  0  0  0
 20 23  1  0  0  0  0
 21 20  2  0  0  0  0
 22 24  1  0  0  0  0
 25 27  1  0  0  0  0
 25  1  1  0  0  0  0
 26 25  1  0  0  0  0
 28 30  1  0  0  0  0
 28 25  1  0  0  0  0
 29 28  1  0  0  0  0
 31 37  1  0  0  0  0
 31 36  1  0  0  0  0
 32 33  1  0  0  0  0
 32 31  2  0  0  0  0
 33 34  2  0  0  0  0
 34 35  1  0  0  0  0
 35 36  2  0  0  0  0
 35 28  1  0  0  0  0
 38 32  1  0  0  0  0
 39 33  1  0  0  0  0
M  END
>  <minimizedAffinity>
-5.50526905

$$$$

 OpenBabel03252501303D

 39 41  0  0  0  0  0  0  0  0999 V2000
   37.0860   30.3110   41.1200 C   0  0  0  0  0  0  0  0  0  0  0  0
   36.2500   29.2380   40.9570 C   0  0  0  0  0  0  0  0  0  0  0  0
   36.4960   28.0000   41.4650 C   0  0  0  0  0  0  0  0  0  0  0  0
   37.6320   27.8130   42.1740 C   0  0  0  0  0  0  0  0  0  0  0  0
   38.5100   28.8890   42.3620 C   0  0  0  0  0  0  0  0  0  0  0  0
   38.2300   30.1280   41.8350 C   0  0  0  0  0  0  0  0  0  0  0  0
   35.3460   29.4660   40.3690 H   0  0  0  0  0  0  0  0  0  0  0  0
   35.7630   27.2390   41.2690 H   0  0  0  0  0  0  0  0  0  0  0  0
   39.3720   28.5550   42.9580 H   0  0  0  0  0  0  0  0  0  0  0  0
   37.8890   26.4280   42.7290 C   0  0  0  0  0  3  0  0  0  0  0  0
   39.3720   26.2130   42.7880 C   0  0  0  0  0  3  0  0  0  0  0  0
   39.8140   26.8730   43.5380 H   0  0  0  0  0  0  0  0  0  0  0  0
   39.5740   24.7390   43.1170 C   0  0  0  0  0  3  0  0  0  0  0  0
   40.6170   24.5370   43.4160 H   0  0  0  0  0  0  0  0  0  0  0  0
   39.1450   24.0090   42.0340 O   0  0  0  0  0  0  0  0  0  0  0  0
   37.7590   24.0360   41.9920 C   0  0  0  0  0  3  0  0  0  0  0  0
   37.3350   23.5280   42.8910 H   0  0  0  0  0  0  0  0  0  0  0  0
   37.2060   25.4260   41.8280 C   0  0  0  0  0  3  0  0  0  0  0  0
   37.3230   25.7700   40.7870 H   0  0  0  0  0  0  0  0  0  0  0  0
   40.5420   30.7720   41.5040 C   0  0  0  0  0  0  0  0  0  0  0  0
   41.0210   30.0360   40.5660 O   0  0  0  0  0  0  0  0  0  0  0  0
   39.3230   30.9670   42.2320 N   0  0  0  0  0  0  0  0  0  0  0  0
   41.4740   31.3190   41.6360 H   0  0  0  0  0  0  0  0  0  0  0  0
   39.4140   31.6940   42.9440 H   0  0  0  0  0  0  0  0  0  0  0  0
   36.9510   31.6840   40.6150 C   0  0  0  0  0  0  0  0  0  0  0  0
   37.6640   32.3790   41.1470 H   0  0  0  0  0  0  0  0  0  0  0  0
   35.9490   32.0560   40.8900 H   0  0  0  0  0  0  0  0  0  0  0  0
   37.2210   31.7620   39.1360 C   0  0  0  0  0  0  0  0  0  0  0  0
   36.4800   32.4620   38.6950 H   0  0  0  0  0  0  0  0  0  0  0  0
   37.0970   30.7640   38.6680 H   0  0  0  0  0  0  0  0  0  0  0  0
   40.5950   32.3350   37.8280 C   0  0  0  0  0  0  0  0  0  0  0  0
   41.0740   33.3870   38.6340 C   0  0  0  0  0  0  0  0  0  0  0  0
   40.1920   33.8660   39.6160 C   0  0  0  0  0  0  0  0  0  0  0  0
   38.9700   33.3220   39.7420 N   0  0  0  0  0  0  0  0  0  0  0  0
   38.5770   32.3140   38.9330 C   0  0  0  0  0  0  0  0  0  0  0  0
   39.3530   31.8230   37.9990 N   0  0  0  0  0  0  0  0  0  0  0  0
   41.2320   31.9310   37.0610 H   0  0  0  0  0  0  0  0  0  0  0  0
   42.0770   33.7410   38.4380 H   0  0  0  0  0  0  0  0  0  0  0  0
   40.5640   34.6690   40.2270 H   0  0  0  0  0  0  0  0  0  0  0  0
  1  6  1  0  0  0  0
  2  1  2  0  0  0  0
  2  3  1  0  0  0  0
  3  4  2  0  0  0  0
  4  5  1  0  0  0  0
  4 10  1  0  0  0  0
  5  9  1  0  0  0  0
  6 22  1  0  0  0  0
  6  5  2  0  0  0  0
  7  2  1  0  0  0  0
  8  3  1  0  0  0  0
 10 11  1  0  0  0  0
 11 13  1  0  0  0  0
 11 12  1  0  0  0  0
 13 14  1  0  0  0  0
 15 13  1  0  0  0  0
 16 15  1  0  0  0  0
 16 17  1  0  0  0  0
 18 16  1  0  0  0  0
 18 10  1  0  0  0  0
 19 18  1  0  0  0  0
 20 23  1  0  0  0  0
 20 22  1  0  0  0  0
 21 20  2  0  0  0  0
 22 24  1  0  0  0  0
 25 27  1  0  0  0  0
 25  1  1  0  0  0  0
 25 26  1  0  0  0  0
 28 25  1  0  0  0  0
 29 28  1  0  0  0  0
 30 28  1  0  0  0  0
 31 36  2  0  0  0  0
 31 32  1  0  0  0  0
 32 33  2  0  0  0  0
 33 34  1  0  0  0  0
 33 39  1  0  0  0  0
 35 28  1  0  0  0  0
 35 34  2  0  0  0  0
 36 35  1  0  0  0  0
 37 31  1  0  0  0  0
 38 32  1  0  0  0  0
M  END
>  <minimizedAffinity>
-5.46838856

$$$$

 OpenBabel03252501303D

 39 41  0  0  0  0  0  0  0  0999 V2000
   37.2040   28.0600   42.0240 C   0  0  0  0  0  0  0  0  0  0  0  0
   37.3100   26.9620   42.8370 C   0  0  0  0  0  0  0  0  0  0  0  0
   37.1560   25.6810   42.4070 C   0  0  0  0  0  0  0  0  0  0  0  0
   36.8790   25.4730   41.1000 C   0  0  0  0  0  0  0  0  0  0  0  0
   36.7640   26.5730   40.2390 C   0  0  0  0  0  0  0  0  0  0  0  0
   36.9280   27.8550   40.7070 C   0  0  0  0  0  0  0  0  0  0  0  0
   37.5370   27.2090   43.8880 H   0  0  0  0  0  0  0  0  0  0  0  0
   37.2640   24.9040   43.1420 H   0  0  0  0  0  0  0  0  0  0  0  0
   36.5400   26.2170   39.2230 H   0  0  0  0  0  0  0  0  0  0  0  0
   36.7080   24.0410   40.6410 C   0  0  0  0  0  3  0  0  0  0  0  0
   38.0100   23.3250   40.8430 C   0  0  0  0  0  3  0  0  0  0  0  0
   38.2170   23.2240   41.9110 H   0  0  0  0  0  0  0  0  0  0  0  0
   37.8630   21.9750   40.1500 C   0  0  0  0  0  3  0  0  0  0  0  0
   38.6720   21.2850   40.4450 H   0  0  0  0  0  0  0  0  0  0  0  0
   37.7860   22.2090   38.7970 O   0  0  0  0  0  0  0  0  0  0  0  0
   36.5400   22.7430   38.5030 C   0  0  0  0  0  3  0  0  0  0  0  0
   35.7380   22.0020   38.7320 H   0  0  0  0  0  0  0  0  0  0  0  0
   36.2910   24.0600   39.1890 C   0  0  0  0  0  3  0  0  0  0  0  0
   36.8450   24.8700   38.6860 H   0  0  0  0  0  0  0  0  0  0  0  0
   35.4260   29.2020   39.3650 C   0  0  0  0  0  0  0  0  0  0  0  0
   34.2570   29.1220   39.8920 O   0  0  0  0  0  0  0  0  0  0  0  0
   36.7550   28.7040   39.5650 N   0  0  0  0  0  0  0  0  0  0  0  0
   35.0930   29.8730   38.5750 H   0  0  0  0  0  0  0  0  0  0  0  0
   37.4000   29.0360   38.8450 H   0  0  0  0  0  0  0  0  0  0  0  0
   37.3290   29.4840   42.3600 C   0  0  0  0  0  0  0  0  0  0  0  0
   36.9840   29.6790   43.4170 H   0  0  0  0  0  0  0  0  0  0  0  0
   36.6200   30.0510   41.7310 H   0  0  0  0  0  0  0  0  0  0  0  0
   38.7480   29.9670   42.2230 C   0  0  0  0  0  0  0  0  0  0  0  0
   39.3190   29.1860   41.6770 H   0  0  0  0  0  0  0  0  0  0  0  0
   39.2040   30.1120   43.2240 H   0  0  0  0  0  0  0  0  0  0  0  0
   39.8200   33.0700   40.5990 C   0  0  0  0  0  0  0  0  0  0  0  0
   38.6580   33.4940   39.9230 C   0  0  0  0  0  0  0  0  0  0  0  0
   37.5290   32.6710   40.0590 C   0  0  0  0  0  0  0  0  0  0  0  0
   37.5990   31.5520   40.8000 N   0  0  0  0  0  0  0  0  0  0  0  0
   38.7490   31.2080   41.4210 C   0  0  0  0  0  0  0  0  0  0  0  0
   39.8360   31.9330   41.3330 N   0  0  0  0  0  0  0  0  0  0  0  0
   40.7130   33.6660   40.5270 H   0  0  0  0  0  0  0  0  0  0  0  0
   38.7240   34.4140   39.3580 H   0  0  0  0  0  0  0  0  0  0  0  0
   36.6460   33.0000   39.5410 H   0  0  0  0  0  0  0  0  0  0  0  0
  1 25  1  0  0  0  0
  1  2  1  0  0  0  0
  2  7  1  0  0  0  0
  3  2  2  0  0  0  0
  3  8  1  0  0  0  0
  4  3  1  0  0  0  0
  5  6  1  0  0  0  0
  5  4  2  0  0  0  0
  6  1  2  0  0  0  0
  9  5  1  0  0  0  0
 10 11  1  0  0  0  0
 10  4  1  0  0  0  0
 11 12  1  0  0  0  0
 13 14  1  0  0  0  0
 13 11  1  0  0  0  0
 15 13  1  0  0  0  0
 16 17  1  0  0  0  0
 16 15  1  0  0  0  0
 16 18  1  0  0  0  0
 18 10  1  0  0  0  0
 19 18  1  0  0  0  0
 20 22  1  0  0  0  0
 20 21  2  0  0  0  0
 22  6  1  0  0  0  0
 23 20  1  0  0  0  0
 24 22  1  0  0  0  0
 25 26  1  0  0  0  0
 27 25  1  0  0  0  0
 28 25  1  0  0  0  0
 28 30  1  0  0  0  0
 29 28  1  0  0  0  0
 31 36  1  0  0  0  0
 32 33  1  0  0  0  0
 32 31  2  0  0  0  0
 33 34  2  0  0  0  0
 34 35  1  0  0  0  0
 35 28  1  0  0  0  0
 36 35  2  0  0  0  0
 37 31  1  0  0  0  0
 38 32  1  0  0  0  0
 39 33  1  0  0  0  0
M  END
>  <minimizedAffinity>
-5.35990858

$$$$

 OpenBabel03252501303D

 39 41  0  0  0  0  0  0  0  0999 V2000
   39.8640   27.6710   43.3030 C   0  0  0  0  0  0  0  0  0  0  0  0
   41.0140   28.3010   42.9080 C   0  0  0  0  0  0  0  0  0  0  0  0
   41.0630   29.5910   42.4770 C   0  0  0  0  0  0  0  0  0  0  0  0
   39.9090   30.2950   42.4330 C   0  0  0  0  0  0  0  0  0  0  0  0
   38.7140   29.6820   42.8310 C   0  0  0  0  0  0  0  0  0  0  0  0
   38.7010   28.3770   43.2630 C   0  0  0  0  0  0  0  0  0  0  0  0
   41.9130   27.6650   42.9700 H   0  0  0  0  0  0  0  0  0  0  0  0
   42.0270   29.9740   42.1940 H   0  0  0  0  0  0  0  0  0  0  0  0
   37.8870   30.4000   42.7320 H   0  0  0  0  0  0  0  0  0  0  0  0
   39.9830   31.7280   41.9490 C   0  0  0  0  0  3  0  0  0  0  0  0
   38.8210   31.9750   41.0350 C   0  0  0  0  0  3  0  0  0  0  0  0
   37.8890   31.9480   41.6030 H   0  0  0  0  0  0  0  0  0  0  0  0
   39.0710   33.3340   40.3900 C   0  0  0  0  0  3  0  0  0  0  0  0
   38.1630   33.7090   39.8880 H   0  0  0  0  0  0  0  0  0  0  0  0
   40.1610   33.2060   39.5620 O   0  0  0  0  0  0  0  0  0  0  0  0
   41.3080   33.1180   40.3380 C   0  0  0  0  0  3  0  0  0  0  0  0
   41.4640   34.0650   40.9070 H   0  0  0  0  0  0  0  0  0  0  0  0
   41.3080   31.9190   41.2480 C   0  0  0  0  0  3  0  0  0  0  0  0
   41.5270   31.0000   40.6790 H   0  0  0  0  0  0  0  0  0  0  0  0
   36.4820   27.8020   42.4780 C   0  0  0  0  0  0  0  0  0  0  0  0
   36.5320   27.7170   41.1970 O   0  0  0  0  0  0  0  0  0  0  0  0
   37.3340   28.0970   43.5920 N   0  0  0  0  0  0  0  0  0  0  0  0
   35.4250   27.5440   42.5160 H   0  0  0  0  0  0  0  0  0  0  0  0
   36.8280   28.0630   44.4800 H   0  0  0  0  0  0  0  0  0  0  0  0
   39.6700   26.2910   43.7680 C   0  0  0  0  0  0  0  0  0  0  0  0
   38.5820   26.0940   43.9980 H   0  0  0  0  0  0  0  0  0  0  0  0
   40.1810   26.1790   44.7410 H   0  0  0  0  0  0  0  0  0  0  0  0
   40.1320   25.2870   42.7450 C   0  0  0  0  0  0  0  0  0  0  0  0
   40.4270   24.3640   43.2880 H   0  0  0  0  0  0  0  0  0  0  0  0
   41.0110   25.6770   42.1920 H   0  0  0  0  0  0  0  0  0  0  0  0
   36.8670   24.1800   41.5070 C   0  0  0  0  0  0  0  0  0  0  0  0
   36.9580   24.4100   40.1190 C   0  0  0  0  0  0  0  0  0  0  0  0
   38.1700   24.9510   39.6600 C   0  0  0  0  0  0  0  0  0  0  0  0
   39.1580   25.2190   40.5310 N   0  0  0  0  0  0  0  0  0  0  0  0
   38.9990   24.9720   41.8490 C   0  0  0  0  0  0  0  0  0  0  0  0
   37.8940   24.4690   42.3400 N   0  0  0  0  0  0  0  0  0  0  0  0
   35.9590   23.7660   41.9100 H   0  0  0  0  0  0  0  0  0  0  0  0
   36.0960   24.1530   39.5190 H   0  0  0  0  0  0  0  0  0  0  0  0
   38.2330   25.1240   38.6000 H   0  0  0  0  0  0  0  0  0  0  0  0
  1 25  1  0  0  0  0
  2  7  1  0  0  0  0
  2  1  2  0  0  0  0
  3  2  1  0  0  0  0
  4  3  2  0  0  0  0
  4  5  1  0  0  0  0
  5  6  2  0  0  0  0
  6  1  1  0  0  0  0
  6 22  1  0  0  0  0
  8  3  1  0  0  0  0
  9  5  1  0  0  0  0
 10  4  1  0  0  0  0
 11 12  1  0  0  0  0
 11 10  1  0  0  0  0
 13 11  1  0  0  0  0
 14 13  1  0  0  0  0
 15 16  1  0  0  0  0
 15 13  1  0  0  0  0
 16 17  1  0  0  0  0
 16 18  1  0  0  0  0
 18 10  1  0  0  0  0
 19 18  1  0  0  0  0
 20 23  1  0  0  0  0
 20 22  1  0  0  0  0
 21 20  2  0  0  0  0
 22 24  1  0  0  0  0
 25 26  1  0  0  0  0
 25 27  1  0  0  0  0
 28 29  1  0  0  0  0
 28 25  1  0  0  0  0
 30 28  1  0  0  0  0
 31 37  1  0  0  0  0
 31 36  1  0  0  0  0
 32 31  2  0  0  0  0
 33 32  1  0  0  0  0
 33 34  2  0  0  0  0
 34 35  1  0  0  0  0
 35 36  2  0  0  0  0
 35 28  1  0  0  0  0
 38 32  1  0  0  0  0
 39 33  1  0  0  0  0
M  END
>  <minimizedAffinity>
-5.26159525

$$$$

 OpenBabel03252501303D

 39 41  0  0  0  0  0  0  0  0999 V2000
   38.4640   28.2470   42.5050 C   0  0  0  0  0  0  0  0  0  0  0  0
   39.3710   27.2210   42.5500 C   0  0  0  0  0  0  0  0  0  0  0  0
   39.0790   25.9360   42.2130 C   0  0  0  0  0  0  0  0  0  0  0  0
   37.8200   25.6490   41.8110 C   0  0  0  0  0  0  0  0  0  0  0  0
   36.8670   26.6750   41.7520 C   0  0  0  0  0  0  0  0  0  0  0  0
   37.1960   27.9640   42.0980 C   0  0  0  0  0  0  0  0  0  0  0  0
   40.3740   27.5290   42.8870 H   0  0  0  0  0  0  0  0  0  0  0  0
   39.8760   25.2190   42.2900 H   0  0  0  0  0  0  0  0  0  0  0  0
   35.9090   26.2610   41.4050 H   0  0  0  0  0  0  0  0  0  0  0  0
   37.5140   24.2130   41.4430 C   0  0  0  0  0  3  0  0  0  0  0  0
   38.7410   23.6150   40.8240 C   0  0  0  0  0  3  0  0  0  0  0  0
   39.5290   23.5210   41.5750 H   0  0  0  0  0  0  0  0  0  0  0  0
   38.3150   22.2660   40.2550 C   0  0  0  0  0  3  0  0  0  0  0  0
   39.1920   21.6490   39.9940 H   0  0  0  0  0  0  0  0  0  0  0  0
   37.4620   22.5090   39.2050 O   0  0  0  0  0  0  0  0  0  0  0  0
   36.2400   22.9320   39.7060 C   0  0  0  0  0  3  0  0  0  0  0  0
   35.7650   22.1180   40.3040 H   0  0  0  0  0  0  0  0  0  0  0  0
   36.3400   24.2110   40.4910 C   0  0  0  0  0  3  0  0  0  0  0  0
   36.4510   25.0750   39.8140 H   0  0  0  0  0  0  0  0  0  0  0  0
   35.6980   29.0680   40.5480 C   0  0  0  0  0  0  0  0  0  0  0  0
   36.1830   28.9230   39.3670 O   0  0  0  0  0  0  0  0  0  0  0  0
   35.9990   28.7280   41.9070 N   0  0  0  0  0  0  0  0  0  0  0  0
   34.8300   29.6210   40.1910 H   0  0  0  0  0  0  0  0  0  0  0  0
   35.2970   29.0900   42.5570 H   0  0  0  0  0  0  0  0  0  0  0  0
   38.6410   29.6630   42.8550 C   0  0  0  0  0  0  0  0  0  0  0  0
   38.9510   29.7740   43.9350 H   0  0  0  0  0  0  0  0  0  0  0  0
   37.6560   30.1580   42.7990 H   0  0  0  0  0  0  0  0  0  0  0  0
   39.6800   30.3260   41.9890 C   0  0  0  0  0  0  0  0  0  0  0  0
   40.3820   29.5380   41.6430 H   0  0  0  0  0  0  0  0  0  0  0  0
   40.2450   31.0800   42.5740 H   0  0  0  0  0  0  0  0  0  0  0  0
   38.7530   31.1230   38.5360 C   0  0  0  0  0  0  0  0  0  0  0  0
   37.7140   32.0620   38.6940 C   0  0  0  0  0  0  0  0  0  0  0  0
   37.3690   32.3860   40.0160 C   0  0  0  0  0  0  0  0  0  0  0  0
   38.0180   31.8080   41.0400 N   0  0  0  0  0  0  0  0  0  0  0  0
   39.0060   30.9150   40.8130 C   0  0  0  0  0  0  0  0  0  0  0  0
   39.3750   30.5710   39.6040 N   0  0  0  0  0  0  0  0  0  0  0  0
   39.0570   30.8410   37.5430 H   0  0  0  0  0  0  0  0  0  0  0  0
   37.2670   32.4600   37.7930 H   0  0  0  0  0  0  0  0  0  0  0  0
   36.5750   33.1030   40.1290 H   0  0  0  0  0  0  0  0  0  0  0  0
  1  2  1  0  0  0  0
  1 25  1  0  0  0  0
  2  7  1  0  0  0  0
  3  8  1  0  0  0  0
  3  2  2  0  0  0  0
  4  3  1  0  0  0  0
  5  4  2  0  0  0  0
  5  6  1  0  0  0  0
  6  1  2  0  0  0  0
  9  5  1  0  0  0  0
 10  4  1  0  0  0  0
 11 10  1  0  0  0  0
 11 12  1  0  0  0  0
 13 11  1  0  0  0  0
 14 13  1  0  0  0  0
 15 16  1  0  0  0  0
 15 13  1  0  0  0  0
 16 17  1  0  0  0  0
 16 18  1  0  0  0  0
 18 10  1  0  0  0  0
 19 18  1  0  0  0  0
 20 22  1  0  0  0  0
 21 20  2  0  0  0  0
 22  6  1  0  0  0  0
 22 24  1  0  0  0  0
 23 20  1  0  0  0  0
 25 26  1  0  0  0  0
 27 25  1  0  0  0  0
 28 30  1  0  0  0  0
 28 25  1  0  0  0  0
 29 28  1  0  0  0  0
 31 32  2  0  0  0  0
 31 36  1  0  0  0  0
 32 33  1  0  0  0  0
 33 39  1  0  0  0  0
 33 34  2  0  0  0  0
 35 34  1  0  0  0  0
 35 28  1  0  0  0  0
 36 35  2  0  0  0  0
 37 31  1  0  0  0  0
 38 32  1  0  0  0  0
M  END
>  <minimizedAffinity>
-5.24271059

$$$$
