
 OpenBabel03252509063D

 49 51  0  0  1  0  0  0  0  0999 V2000
   37.9000   26.9630   42.7430 N   0  0  0  0  0  0  0  0  0  0  0  0
   39.0790   26.6320   43.4440 C   0  0  0  0  0  0  0  0  0  0  0  0
   40.2770   27.5100   43.1390 C   0  0  0  0  0  0  0  0  0  0  0  0
   39.9250   28.9390   42.8310 C   0  0  0  0  0  0  0  0  0  0  0  0
   38.4450   29.2020   42.9930 C   0  0  0  0  0  0  0  0  0  0  0  0
   37.7790   28.1410   42.0330 C   0  0  2  0  0  0  0  0  0  0  0  0
   39.4360   25.5990   43.3570 H   0  0  0  0  0  0  0  0  0  0  0  0
   38.8680   26.7750   44.5390 H   0  0  0  0  0  0  0  0  0  0  0  0
   40.8570   27.0290   42.3280 H   0  0  0  0  0  0  0  0  0  0  0  0
   40.9370   27.5240   44.0360 H   0  0  0  0  0  0  0  0  0  0  0  0
   40.4780   29.6620   43.4770 H   0  0  0  0  0  0  0  0  0  0  0  0
   40.1890   29.1930   41.7960 H   0  0  0  0  0  0  0  0  0  0  0  0
   38.2120   30.1840   42.5700 H   0  0  0  0  0  0  0  0  0  0  0  0
   38.0750   29.0380   44.0240 H   0  0  0  0  0  0  0  0  0  0  0  0
   38.3570   28.2530   41.0940 H   0  0  0  0  0  0  0  0  0  0  0  0
   37.1410   25.8230   42.3040 C   0  0  0  0  0  0  0  0  0  0  0  0
   36.6620   26.0790   41.3350 H   0  0  0  0  0  0  0  0  0  0  0  0
   36.3830   25.6180   43.0800 H   0  0  0  0  0  0  0  0  0  0  0  0
   38.0530   24.6740   42.0980 C   0  0  0  0  0  0  0  0  0  0  0  0
   39.0960   24.9460   41.8570 H   0  0  0  0  0  0  0  0  0  0  0  0
   38.1300   24.0440   43.0260 H   0  0  0  0  0  0  0  0  0  0  0  0
   35.7290   23.1880   39.5490 C   0  0  0  0  0  0  0  0  0  0  0  0
   36.2730   24.0360   40.5310 C   0  0  0  0  0  0  0  0  0  0  0  0
   37.5010   23.7640   41.0650 C   0  0  0  0  0  0  0  0  0  0  0  0
   38.1400   22.6800   40.6180 N   0  0  0  0  0  0  0  0  0  0  0  0
   37.6410   21.8630   39.6860 C   0  0  0  0  0  0  0  0  0  0  0  0
   36.4360   22.0990   39.1380 N   0  0  0  0  0  0  0  0  0  0  0  0
   34.7470   23.3960   39.1150 H   0  0  0  0  0  0  0  0  0  0  0  0
   35.6760   24.8950   40.8310 H   0  0  0  0  0  0  0  0  0  0  0  0
   38.2950   21.0220   39.4340 H   0  0  0  0  0  0  0  0  0  0  0  0
   36.4780   28.5880   41.9710 O   0  0  0  0  0  0  0  0  0  0  0  0
   37.5190   29.9970   39.9820 O   0  0  0  0  0  0  0  0  0  0  0  0
   36.2090   29.6480   40.6840 P   0  0  2  0  0  0  0  0  0  0  0  0
   35.6480   31.0940   41.3820 O   0  0  0  0  0  0  0  0  0  0  0  0
   34.8300   31.4350   40.9510 H   0  0  0  0  0  0  0  0  0  0  0  0
   35.0420   29.0800   39.6300 O   0  0  0  0  0  0  0  0  0  0  0  0
   35.4530   29.3940   38.3330 C   0  0  0  0  0  0  0  0  0  0  0  0
   34.9250   30.3380   38.0390 H   0  0  0  0  0  0  0  0  0  0  0  0
   36.5360   29.5090   38.2570 H   0  0  0  0  0  0  0  0  0  0  0  0
   34.9260   28.2850   37.4460 C   0  0  0  0  0  3  0  0  0  0  0  0
   33.4290   28.3520   37.2470 C   0  0  0  0  0  3  0  0  0  0  0  0
   32.9210   28.0970   38.1990 H   0  0  0  0  0  0  0  0  0  0  0  0
   33.1040   27.2210   36.2690 C   0  0  0  0  0  3  0  0  0  0  0  0
   32.0160   27.1480   36.0720 H   0  0  0  0  0  0  0  0  0  0  0  0
   33.4960   26.0160   36.8070 O   0  0  0  0  0  0  0  0  0  0  0  0
   34.8470   25.8900   37.0420 C   0  0  0  0  0  3  0  0  0  0  0  0
   35.0070   24.8850   37.4730 H   0  0  0  0  0  0  0  0  0  0  0  0
   35.3060   26.9490   38.0370 C   0  0  0  0  0  3  0  0  0  0  0  0
   34.7370   26.8240   38.9760 H   0  0  0  0  0  0  0  0  0  0  0  0
  1  2  1  0  0  0  0
  2  8  1  0  0  0  0
  3  2  1  0  0  0  0
  3 10  1  0  0  0  0
  4  5  1  0  0  0  0
  4  3  1  0  0  0  0
  4 11  1  0  0  0  0
  5 14  1  0  0  0  0
  6 15  1  6  0  0  0
  6  1  1  0  0  0  0
  6  5  1  0  0  0  0
  7  2  1  0  0  0  0
  9  3  1  0  0  0  0
 12  4  1  0  0  0  0
 13  5  1  0  0  0  0
 16  1  1  0  0  0  0
 16 18  1  0  0  0  0
 17 16  1  0  0  0  0
 19 16  1  0  0  0  0
 19 21  1  0  0  0  0
 20 19  1  0  0  0  0
 22 23  1  0  0  0  0
 23 29  1  0  0  0  0
 23 24  2  0  0  0  0
 24 19  1  0  0  0  0
 25 24  1  0  0  0  0
 26 25  2  0  0  0  0
 27 22  2  0  0  0  0
 27 26  1  0  0  0  0
 28 22  1  0  0  0  0
 30 26  1  0  0  0  0
 31  6  1  0  0  0  0
 33 32  2  6  0  0  0
 33 34  1  0  0  0  0
 33 31  1  0  0  0  0
 35 34  1  0  0  0  0
 36 33  1  0  0  0  0
 37 36  1  0  0  0  0
 38 37  1  0  0  0  0
 39 37  1  0  0  0  0
 40 48  1  0  0  0  0
 40 37  1  0  0  0  0
 41 40  1  0  0  0  0
 41 42  1  0  0  0  0
 43 45  1  0  0  0  0
 43 41  1  0  0  0  0
 44 43  1  0  0  0  0
 45 46  1  0  0  0  0
 46 47  1  0  0  0  0
 46 48  1  0  0  0  0
 48 49  1  0  0  0  0
M  END
>  <minimizedAffinity>
-5.31526947

$$$$

 OpenBabel03252509063D

 49 51  0  0  1  0  0  0  0  0999 V2000
   39.0870   31.2200   38.9340 N   0  0  0  0  0  0  0  0  0  0  0  0
   39.8560   32.3920   38.7770 C   0  0  0  0  0  0  0  0  0  0  0  0
   39.4570   33.5470   39.6740 C   0  0  0  0  0  0  0  0  0  0  0  0
   38.9380   33.1260   41.0210 C   0  0  0  0  0  0  0  0  0  0  0  0
   39.0250   31.6290   41.2140 C   0  0  0  0  0  0  0  0  0  0  0  0
   38.2130   31.0560   39.9900 C   0  0  2  0  0  0  0  0  0  0  0  0
   39.9270   32.8100   37.7660 H   0  0  0  0  0  0  0  0  0  0  0  0
   40.9140   32.1380   39.0620 H   0  0  0  0  0  0  0  0  0  0  0  0
   38.7380   34.1800   39.1190 H   0  0  0  0  0  0  0  0  0  0  0  0
   40.3590   34.1770   39.8550 H   0  0  0  0  0  0  0  0  0  0  0  0
   39.4860   33.6160   41.8610 H   0  0  0  0  0  0  0  0  0  0  0  0
   37.8840   33.4080   41.1410 H   0  0  0  0  0  0  0  0  0  0  0  0
   38.4600   31.3550   42.1110 H   0  0  0  0  0  0  0  0  0  0  0  0
   40.0600   31.2360   41.1760 H   0  0  0  0  0  0  0  0  0  0  0  0
   37.2810   31.6560   40.0020 H   0  0  0  0  0  0  0  0  0  0  0  0
   38.7990   30.5410   37.7000 C   0  0  0  0  0  0  0  0  0  0  0  0
   38.6610   29.4600   37.9230 H   0  0  0  0  0  0  0  0  0  0  0  0
   39.6630   30.7000   37.0300 H   0  0  0  0  0  0  0  0  0  0  0  0
   37.5420   31.0740   37.1250 C   0  0  0  0  0  0  0  0  0  0  0  0
   37.0520   31.8590   37.7280 H   0  0  0  0  0  0  0  0  0  0  0  0
   37.7240   31.5570   36.1260 H   0  0  0  0  0  0  0  0  0  0  0  0
   35.7920   28.2580   35.3630 C   0  0  0  0  0  0  0  0  0  0  0  0
   36.6760   29.3130   35.6500 C   0  0  0  0  0  0  0  0  0  0  0  0
   36.5980   29.9660   36.8460 C   0  0  0  0  0  0  0  0  0  0  0  0
   35.6600   29.5600   37.7080 N   0  0  0  0  0  0  0  0  0  0  0  0
   34.8110   28.5600   37.4560 C   0  0  0  0  0  0  0  0  0  0  0  0
   34.8600   27.8950   36.2880 N   0  0  0  0  0  0  0  0  0  0  0  0
   35.8450   27.7280   34.4070 H   0  0  0  0  0  0  0  0  0  0  0  0
   37.4050   29.5710   34.8830 H   0  0  0  0  0  0  0  0  0  0  0  0
   34.1080   28.3570   38.2690 H   0  0  0  0  0  0  0  0  0  0  0  0
   38.0550   29.7340   40.3430 O   0  0  0  0  0  0  0  0  0  0  0  0
   35.8580   28.3710   40.9250 O   0  0  0  0  0  0  0  0  0  0  0  0
   36.7750   29.4890   41.4170 P   0  0  2  0  0  0  0  0  0  0  0  0
   35.8480   30.9140   41.3680 O   0  0  0  0  0  0  0  0  0  0  0  0
   35.6440   31.2690   42.2660 H   0  0  0  0  0  0  0  0  0  0  0  0
   37.3010   29.2510   42.9860 O   0  0  0  0  0  0  0  0  0  0  0  0
   37.0200   27.9270   43.3310 C   0  0  0  0  0  0  0  0  0  0  0  0
   36.5080   27.9480   44.3280 H   0  0  0  0  0  0  0  0  0  0  0  0
   36.4040   27.4250   42.5830 H   0  0  0  0  0  0  0  0  0  0  0  0
   38.3620   27.2500   43.5240 C   0  0  0  0  0  3  0  0  0  0  0  0
   39.5290   28.1570   43.2060 C   0  0  0  0  0  3  0  0  0  0  0  0
   39.5600   28.3440   42.1130 H   0  0  0  0  0  0  0  0  0  0  0  0
   40.7760   27.3370   43.5380 C   0  0  0  0  0  3  0  0  0  0  0  0
   41.7070   27.8930   43.3100 H   0  0  0  0  0  0  0  0  0  0  0  0
   40.7950   26.1910   42.7770 O   0  0  0  0  0  0  0  0  0  0  0  0
   39.7460   25.3260   42.9920 C   0  0  0  0  0  3  0  0  0  0  0  0
   39.8920   24.4650   42.3140 H   0  0  0  0  0  0  0  0  0  0  0  0
   38.4250   26.0110   42.6640 C   0  0  0  0  0  3  0  0  0  0  0  0
   38.4470   26.3370   41.6080 H   0  0  0  0  0  0  0  0  0  0  0  0
  1  6  1  0  0  0  0
  2  1  1  0  0  0  0
  2  8  1  0  0  0  0
  2  3  1  0  0  0  0
  3 10  1  0  0  0  0
  3  4  1  0  0  0  0
  4 12  1  0  0  0  0
  4  5  1  0  0  0  0
  4 11  1  0  0  0  0
  5 13  1  0  0  0  0
  6 15  1  6  0  0  0
  6 31  1  0  0  0  0
  6  5  1  0  0  0  0
  7  2  1  0  0  0  0
  9  3  1  0  0  0  0
 14  5  1  0  0  0  0
 16 17  1  0  0  0  0
 16  1  1  0  0  0  0
 18 16  1  0  0  0  0
 19 16  1  0  0  0  0
 19 20  1  0  0  0  0
 21 19  1  0  0  0  0
 22 23  2  0  0  0  0
 22 27  1  0  0  0  0
 23 24  1  0  0  0  0
 24 19  1  0  0  0  0
 24 25  2  0  0  0  0
 26 25  1  0  0  0  0
 26 30  1  0  0  0  0
 27 26  2  0  0  0  0
 28 22  1  0  0  0  0
 29 23  1  0  0  0  0
 31 33  1  0  0  0  0
 33 32  2  6  0  0  0
 33 36  1  0  0  0  0
 34 33  1  0  0  0  0
 34 35  1  0  0  0  0
 36 37  1  0  0  0  0
 37 40  1  0  0  0  0
 37 38  1  0  0  0  0
 39 37  1  0  0  0  0
 41 40  1  0  0  0  0
 41 43  1  0  0  0  0
 42 41  1  0  0  0  0
 44 43  1  0  0  0  0
 45 46  1  0  0  0  0
 45 43  1  0  0  0  0
 47 46  1  0  0  0  0
 48 46  1  0  0  0  0
 48 40  1  0  0  0  0
 49 48  1  0  0  0  0
M  END
>  <minimizedAffinity>
-5.29379654

$$$$

 OpenBabel03252509063D

 49 51  0  0  1  0  0  0  0  0999 V2000
   37.1350   26.5220   41.7200 N   0  0  0  0  0  0  0  0  0  0  0  0
   37.2520   25.1460   42.0130 C   0  0  0  0  0  0  0  0  0  0  0  0
   36.5770   24.2190   41.0220 C   0  0  0  0  0  0  0  0  0  0  0  0
   36.5910   24.7220   39.6050 C   0  0  0  0  0  0  0  0  0  0  0  0
   37.3730   26.0090   39.4720 C   0  0  0  0  0  0  0  0  0  0  0  0
   36.6660   26.9720   40.5020 C   0  0  2  0  0  0  0  0  0  0  0  0
   36.9180   24.8180   43.0040 H   0  0  0  0  0  0  0  0  0  0  0  0
   38.3460   24.8890   41.9740 H   0  0  0  0  0  0  0  0  0  0  0  0
   35.5540   24.0100   41.3890 H   0  0  0  0  0  0  0  0  0  0  0  0
   37.1200   23.2460   41.0280 H   0  0  0  0  0  0  0  0  0  0  0  0
   37.0260   23.9780   38.8940 H   0  0  0  0  0  0  0  0  0  0  0  0
   35.5730   24.9220   39.2490 H   0  0  0  0  0  0  0  0  0  0  0  0
   37.1890   26.4340   38.4810 H   0  0  0  0  0  0  0  0  0  0  0  0
   38.4420   25.9100   39.7470 H   0  0  0  0  0  0  0  0  0  0  0  0
   35.5890   26.8420   40.2710 H   0  0  0  0  0  0  0  0  0  0  0  0
   36.9300   27.3500   42.8780 C   0  0  0  0  0  0  0  0  0  0  0  0
   36.1380   26.8810   43.5020 H   0  0  0  0  0  0  0  0  0  0  0  0
   36.6120   28.3440   42.5160 H   0  0  0  0  0  0  0  0  0  0  0  0
   38.1820   27.4170   43.6650 C   0  0  0  0  0  0  0  0  0  0  0  0
   38.0400   27.5420   44.7540 H   0  0  0  0  0  0  0  0  0  0  0  0
   38.7780   26.4700   43.5640 H   0  0  0  0  0  0  0  0  0  0  0  0
   41.2240   29.1770   42.3410 C   0  0  0  0  0  0  0  0  0  0  0  0
   40.3670   28.1840   42.8500 C   0  0  0  0  0  0  0  0  0  0  0  0
   39.0650   28.4820   43.1300 C   0  0  0  0  0  0  0  0  0  0  0  0
   38.6570   29.7340   42.9020 N   0  0  0  0  0  0  0  0  0  0  0  0
   39.4530   30.6920   42.4190 C   0  0  0  0  0  0  0  0  0  0  0  0
   40.7420   30.4340   42.1310 N   0  0  0  0  0  0  0  0  0  0  0  0
   42.2690   28.9500   42.1130 H   0  0  0  0  0  0  0  0  0  0  0  0
   40.7930   27.1940   43.0020 H   0  0  0  0  0  0  0  0  0  0  0  0
   38.9600   31.6590   42.2920 H   0  0  0  0  0  0  0  0  0  0  0  0
   37.1900   28.1980   40.1560 O   0  0  0  0  0  0  0  0  0  0  0  0
   34.6700   29.0070   40.3050 O   0  0  0  0  0  0  0  0  0  0  0  0
   36.0130   29.2910   39.6350 P   0  0  2  0  0  0  0  0  0  0  0  0
   35.7890   28.9790   37.9790 O   0  0  0  0  0  0  0  0  0  0  0  0
   35.8250   29.7960   37.4270 H   0  0  0  0  0  0  0  0  0  0  0  0
   36.5020   30.8800   39.8150 O   0  0  0  0  0  0  0  0  0  0  0  0
   36.9320   31.3360   38.5670 C   0  0  0  0  0  0  0  0  0  0  0  0
   37.4120   30.4670   38.0460 H   0  0  0  0  0  0  0  0  0  0  0  0
   36.1150   31.7480   37.9720 H   0  0  0  0  0  0  0  0  0  0  0  0
   38.0170   32.3560   38.8430 C   0  0  0  0  0  3  0  0  0  0  0  0
   39.3960   31.7410   38.9180 C   0  0  0  0  0  3  0  0  0  0  0  0
   39.4720   31.1230   39.8360 H   0  0  0  0  0  0  0  0  0  0  0  0
   40.3510   32.9210   39.1140 C   0  0  0  0  0  3  0  0  0  0  0  0
   41.4020   32.5860   39.2190 H   0  0  0  0  0  0  0  0  0  0  0  0
   40.0250   33.5940   40.2690 O   0  0  0  0  0  0  0  0  0  0  0  0
   38.7700   34.1600   40.2860 C   0  0  0  0  0  3  0  0  0  0  0  0
   38.6520   34.6550   41.2670 H   0  0  0  0  0  0  0  0  0  0  0  0
   37.7070   33.0800   40.1310 C   0  0  0  0  0  3  0  0  0  0  0  0
   37.8140   32.3540   40.9580 H   0  0  0  0  0  0  0  0  0  0  0  0
  1  2  1  0  0  0  0
  1 16  1  0  0  0  0
  2  7  1  0  0  0  0
  3 10  1  0  0  0  0
  3  9  1  0  0  0  0
  3  2  1  0  0  0  0
  4  3  1  0  0  0  0
  5  4  1  0  0  0  0
  5 14  1  0  0  0  0
  5  6  1  0  0  0  0
  6 15  1  6  0  0  0
  6  1  1  0  0  0  0
  8  2  1  0  0  0  0
 11  4  1  0  0  0  0
 12  4  1  0  0  0  0
 13  5  1  0  0  0  0
 16 17  1  0  0  0  0
 16 19  1  0  0  0  0
 18 16  1  0  0  0  0
 19 20  1  0  0  0  0
 21 19  1  0  0  0  0
 22 23  1  0  0  0  0
 23 29  1  0  0  0  0
 23 24  2  0  0  0  0
 24 19  1  0  0  0  0
 25 24  1  0  0  0  0
 26 25  2  0  0  0  0
 27 22  2  0  0  0  0
 27 26  1  0  0  0  0
 28 22  1  0  0  0  0
 30 26  1  0  0  0  0
 31  6  1  0  0  0  0
 33 36  1  0  0  0  0
 33 31  1  0  0  0  0
 33 32  2  1  0  0  0
 34 33  1  0  0  0  0
 35 34  1  0  0  0  0
 37 40  1  0  0  0  0
 37 36  1  0  0  0  0
 38 37  1  0  0  0  0
 39 37  1  0  0  0  0
 40 41  1  0  0  0  0
 40 48  1  0  0  0  0
 41 43  1  0  0  0  0
 41 42  1  0  0  0  0
 43 44  1  0  0  0  0
 43 45  1  0  0  0  0
 45 46  1  0  0  0  0
 46 47  1  0  0  0  0
 48 46  1  0  0  0  0
 48 49  1  0  0  0  0
M  END
>  <minimizedAffinity>
-5.23777676

$$$$

 OpenBabel03252509063D

 49 51  0  0  1  0  0  0  0  0999 V2000
   40.4870   29.4330   42.3990 N   0  0  0  0  0  0  0  0  0  0  0  0
   41.4930   28.6050   42.9410 C   0  0  0  0  0  0  0  0  0  0  0  0
   42.9110   29.1040   42.7440 C   0  0  0  0  0  0  0  0  0  0  0  0
   43.0400   30.6020   42.7540 C   0  0  0  0  0  0  0  0  0  0  0  0
   41.7230   31.2780   43.0610 C   0  0  0  0  0  0  0  0  0  0  0  0
   40.7550   30.7110   41.9520 C   0  0  2  0  0  0  0  0  0  0  0  0
   41.4980   27.5560   42.6230 H   0  0  0  0  0  0  0  0  0  0  0  0
   41.3340   28.5710   44.0530 H   0  0  0  0  0  0  0  0  0  0  0  0
   43.3090   28.6480   41.8160 H   0  0  0  0  0  0  0  0  0  0  0  0
   43.5360   28.7170   43.5800 H   0  0  0  0  0  0  0  0  0  0  0  0
   43.7940   30.9580   43.4960 H   0  0  0  0  0  0  0  0  0  0  0  0
   43.3760   30.9730   41.7780 H   0  0  0  0  0  0  0  0  0  0  0  0
   41.8210   32.3490   42.8630 H   0  0  0  0  0  0  0  0  0  0  0  0
   41.3160   31.0230   44.0600 H   0  0  0  0  0  0  0  0  0  0  0  0
   41.3420   30.8320   41.0190 H   0  0  0  0  0  0  0  0  0  0  0  0
   39.4030   28.7120   41.7890 C   0  0  0  0  0  0  0  0  0  0  0  0
   39.8350   27.9030   41.1610 H   0  0  0  0  0  0  0  0  0  0  0  0
   38.8370   29.4330   41.1720 H   0  0  0  0  0  0  0  0  0  0  0  0
   38.5610   28.0990   42.8430 C   0  0  0  0  0  0  0  0  0  0  0  0
   38.9310   28.2440   43.8740 H   0  0  0  0  0  0  0  0  0  0  0  0
   37.5280   28.5420   42.8480 H   0  0  0  0  0  0  0  0  0  0  0  0
   36.8670   24.8250   42.1310 C   0  0  0  0  0  0  0  0  0  0  0  0
   37.0860   26.1880   42.4000 C   0  0  0  0  0  0  0  0  0  0  0  0
   38.3580   26.6580   42.5610 C   0  0  0  0  0  0  0  0  0  0  0  0
   39.3570   25.7780   42.4510 N   0  0  0  0  0  0  0  0  0  0  0  0
   39.1710   24.4800   42.1950 C   0  0  0  0  0  0  0  0  0  0  0  0
   37.9330   23.9820   42.0310 N   0  0  0  0  0  0  0  0  0  0  0  0
   35.8520   24.4370   42.0010 H   0  0  0  0  0  0  0  0  0  0  0  0
   36.2070   26.8260   42.4710 H   0  0  0  0  0  0  0  0  0  0  0  0
   40.0970   23.9010   42.1370 H   0  0  0  0  0  0  0  0  0  0  0  0
   39.6670   31.5480   42.0660 O   0  0  0  0  0  0  0  0  0  0  0  0
   40.9340   33.1440   40.3710 O   0  0  0  0  0  0  0  0  0  0  0  0
   39.5520   32.6510   40.7920 P   0  0  2  0  0  0  0  0  0  0  0  0
   38.7390   34.0060   41.4220 O   0  0  0  0  0  0  0  0  0  0  0  0
   37.9900   34.3020   40.8530 H   0  0  0  0  0  0  0  0  0  0  0  0
   38.6630   32.0470   39.5110 O   0  0  0  0  0  0  0  0  0  0  0  0
   37.3190   32.3430   39.7500 C   0  0  0  0  0  0  0  0  0  0  0  0
   37.2390   32.6750   40.8180 H   0  0  0  0  0  0  0  0  0  0  0  0
   36.9350   33.1060   39.0710 H   0  0  0  0  0  0  0  0  0  0  0  0
   36.5720   31.0310   39.6270 C   0  0  0  0  0  3  0  0  0  0  0  0
   36.2150   30.4290   40.9660 C   0  0  0  0  0  3  0  0  0  0  0  0
   37.1400   30.0800   41.4690 H   0  0  0  0  0  0  0  0  0  0  0  0
   35.4030   29.1740   40.6390 C   0  0  0  0  0  3  0  0  0  0  0  0
   35.1110   28.6220   41.5540 H   0  0  0  0  0  0  0  0  0  0  0  0
   36.1630   28.3160   39.8770 O   0  0  0  0  0  0  0  0  0  0  0  0
   36.5500   28.8060   38.6500 C   0  0  0  0  0  3  0  0  0  0  0  0
   37.1500   28.0170   38.1620 H   0  0  0  0  0  0  0  0  0  0  0  0
   37.4040   30.0550   38.8310 C   0  0  0  0  0  3  0  0  0  0  0  0
   38.2890   29.7950   39.4390 H   0  0  0  0  0  0  0  0  0  0  0  0
  1  2  1  0  0  0  0
  2  8  1  0  0  0  0
  3  4  1  0  0  0  0
  3  2  1  0  0  0  0
  3 10  1  0  0  0  0
  4  5  1  0  0  0  0
  4 11  1  0  0  0  0
  5 14  1  0  0  0  0
  6 15  1  6  0  0  0
  6 31  1  0  0  0  0
  6  1  1  0  0  0  0
  6  5  1  0  0  0  0
  7  2  1  0  0  0  0
  9  3  1  0  0  0  0
 12  4  1  0  0  0  0
 13  5  1  0  0  0  0
 16  1  1  0  0  0  0
 16 19  1  0  0  0  0
 17 16  1  0  0  0  0
 18 16  1  0  0  0  0
 19 21  1  0  0  0  0
 19 20  1  0  0  0  0
 22 23  1  0  0  0  0
 23 29  1  0  0  0  0
 23 24  2  0  0  0  0
 24 19  1  0  0  0  0
 25 24  1  0  0  0  0
 26 25  2  0  0  0  0
 27 22  2  0  0  0  0
 27 26  1  0  0  0  0
 28 22  1  0  0  0  0
 30 26  1  0  0  0  0
 33 32  2  6  0  0  0
 33 34  1  0  0  0  0
 33 31  1  0  0  0  0
 35 34  1  0  0  0  0
 36 37  1  0  0  0  0
 36 33  1  0  0  0  0
 37 38  1  0  0  0  0
 39 37  1  0  0  0  0
 40 37  1  0  0  0  0
 40 41  1  0  0  0  0
 41 42  1  0  0  0  0
 43 41  1  0  0  0  0
 43 44  1  0  0  0  0
 45 43  1  0  0  0  0
 46 48  1  0  0  0  0
 46 45  1  0  0  0  0
 47 46  1  0  0  0  0
 48 49  1  0  0  0  0
 48 40  1  0  0  0  0
M  END
>  <minimizedAffinity>
-5.1979804

$$$$

 OpenBabel03252509063D

 49 51  0  0  1  0  0  0  0  0999 V2000
   37.7580   27.4710   42.7020 N   0  0  0  0  0  0  0  0  0  0  0  0
   38.9570   27.3090   43.4280 C   0  0  0  0  0  0  0  0  0  0  0  0
   40.1210   28.1510   42.9430 C   0  0  0  0  0  0  0  0  0  0  0  0
   39.7180   29.4880   42.3850 C   0  0  0  0  0  0  0  0  0  0  0  0
   38.2330   29.7320   42.5260 C   0  0  0  0  0  0  0  0  0  0  0  0
   37.5880   28.4940   41.7920 C   0  0  2  0  0  0  0  0  0  0  0  0
   39.3460   26.2880   43.5240 H   0  0  0  0  0  0  0  0  0  0  0  0
   38.7570   27.6440   44.4820 H   0  0  0  0  0  0  0  0  0  0  0  0
   40.7040   27.5460   42.2220 H   0  0  0  0  0  0  0  0  0  0  0  0
   40.7930   28.3480   43.8080 H   0  0  0  0  0  0  0  0  0  0  0  0
   40.2570   30.3330   42.8760 H   0  0  0  0  0  0  0  0  0  0  0  0
   39.9580   29.5550   41.3160 H   0  0  0  0  0  0  0  0  0  0  0  0
   37.9620   30.6130   41.9360 H   0  0  0  0  0  0  0  0  0  0  0  0
   37.8840   29.7500   43.5780 H   0  0  0  0  0  0  0  0  0  0  0  0
   38.1480   28.4490   40.8350 H   0  0  0  0  0  0  0  0  0  0  0  0
   37.0300   26.2480   42.4960 C   0  0  0  0  0  0  0  0  0  0  0  0
   36.0360   26.5050   42.0700 H   0  0  0  0  0  0  0  0  0  0  0  0
   36.9250   25.7600   43.4810 H   0  0  0  0  0  0  0  0  0  0  0  0
   37.7590   25.3970   41.5270 C   0  0  0  0  0  0  0  0  0  0  0  0
   38.6710   25.8540   41.1020 H   0  0  0  0  0  0  0  0  0  0  0  0
   38.1170   24.4470   42.0090 H   0  0  0  0  0  0  0  0  0  0  0  0
   35.3440   23.3100   39.5500 C   0  0  0  0  0  0  0  0  0  0  0  0
   36.2160   23.7500   40.5620 C   0  0  0  0  0  0  0  0  0  0  0  0
   36.8460   24.9560   40.4460 C   0  0  0  0  0  0  0  0  0  0  0  0
   36.5960   25.6780   39.3500 N   0  0  0  0  0  0  0  0  0  0  0  0
   35.7710   25.2790   38.3770 C   0  0  0  0  0  0  0  0  0  0  0  0
   35.1340   24.0970   38.4580 N   0  0  0  0  0  0  0  0  0  0  0  0
   34.8350   22.3450   39.6320 H   0  0  0  0  0  0  0  0  0  0  0  0
   36.3550   23.0910   41.4170 H   0  0  0  0  0  0  0  0  0  0  0  0
   35.6800   25.9900   37.5510 H   0  0  0  0  0  0  0  0  0  0  0  0
   36.2720   28.8830   41.6750 O   0  0  0  0  0  0  0  0  0  0  0  0
   34.4340   29.1380   39.7830 O   0  0  0  0  0  0  0  0  0  0  0  0
   35.8880   29.4470   40.1300 P   0  0  2  0  0  0  0  0  0  0  0  0
   36.8340   28.5330   39.0530 O   0  0  0  0  0  0  0  0  0  0  0  0
   37.3190   29.0920   38.4000 H   0  0  0  0  0  0  0  0  0  0  0  0
   36.2700   31.0630   39.9330 O   0  0  0  0  0  0  0  0  0  0  0  0
   36.9780   31.1890   38.7360 C   0  0  0  0  0  0  0  0  0  0  0  0
   37.5100   30.2170   38.5630 H   0  0  0  0  0  0  0  0  0  0  0  0
   36.3280   31.4360   37.8940 H   0  0  0  0  0  0  0  0  0  0  0  0
   38.0330   32.2480   38.9810 C   0  0  0  0  0  3  0  0  0  0  0  0
   39.4190   31.6680   39.1480 C   0  0  0  0  0  3  0  0  0  0  0  0
   39.4720   31.1150   40.1080 H   0  0  0  0  0  0  0  0  0  0  0  0
   40.3440   32.8780   39.2970 C   0  0  0  0  0  3  0  0  0  0  0  0
   41.3970   32.5730   39.4620 H   0  0  0  0  0  0  0  0  0  0  0  0
   39.9630   33.6210   40.3910 O   0  0  0  0  0  0  0  0  0  0  0  0
   38.6990   34.1600   40.3230 C   0  0  0  0  0  3  0  0  0  0  0  0
   38.5350   34.7180   41.2630 H   0  0  0  0  0  0  0  0  0  0  0  0
   37.6620   33.0510   40.2040 C   0  0  0  0  0  3  0  0  0  0  0  0
   37.7510   32.3850   41.0820 H   0  0  0  0  0  0  0  0  0  0  0  0
  1  2  1  0  0  0  0
  2  7  1  0  0  0  0
  2  8  1  0  0  0  0
  3  2  1  0  0  0  0
  3 10  1  0  0  0  0
  4  5  1  0  0  0  0
  4 11  1  0  0  0  0
  4  3  1  0  0  0  0
  5 14  1  0  0  0  0
  6 15  1  6  0  0  0
  6  5  1  0  0  0  0
  6  1  1  0  0  0  0
  9  3  1  0  0  0  0
 12  4  1  0  0  0  0
 13  5  1  0  0  0  0
 16  1  1  0  0  0  0
 16 18  1  0  0  0  0
 17 16  1  0  0  0  0
 19 21  1  0  0  0  0
 19 16  1  0  0  0  0
 20 19  1  0  0  0  0
 22 28  1  0  0  0  0
 22 23  1  0  0  0  0
 23 29  1  0  0  0  0
 24 23  2  0  0  0  0
 24 19  1  0  0  0  0
 25 24  1  0  0  0  0
 26 27  1  0  0  0  0
 26 25  2  0  0  0  0
 27 22  2  0  0  0  0
 30 26  1  0  0  0  0
 31  6  1  0  0  0  0
 33 32  2  6  0  0  0
 33 31  1  0  0  0  0
 34 33  1  0  0  0  0
 35 34  1  0  0  0  0
 36 33  1  0  0  0  0
 37 40  1  0  0  0  0
 37 36  1  0  0  0  0
 38 37  1  0  0  0  0
 39 37  1  0  0  0  0
 40 41  1  0  0  0  0
 40 48  1  0  0  0  0
 41 43  1  0  0  0  0
 41 42  1  0  0  0  0
 43 44  1  0  0  0  0
 43 45  1  0  0  0  0
 46 45  1  0  0  0  0
 46 47  1  0  0  0  0
 48 46  1  0  0  0  0
 48 49  1  0  0  0  0
M  END
>  <minimizedAffinity>
-5.15219402

$$$$

 OpenBabel03252509063D

 49 51  0  0  1  0  0  0  0  0999 V2000
   38.2920   28.7240   37.9510 N   0  0  0  0  0  0  0  0  0  0  0  0
   38.7440   28.2130   36.7150 C   0  0  0  0  0  0  0  0  0  0  0  0
   37.6600   27.6480   35.8180 C   0  0  0  0  0  0  0  0  0  0  0  0
   36.3380   28.3530   35.9370 C   0  0  0  0  0  0  0  0  0  0  0  0
   36.4160   29.5440   36.8640 C   0  0  0  0  0  0  0  0  0  0  0  0
   36.9510   28.9230   38.2120 C   0  0  2  0  0  0  0  0  0  0  0  0
   39.5310   27.4510   36.7500 H   0  0  0  0  0  0  0  0  0  0  0  0
   39.1940   29.0710   36.1450 H   0  0  0  0  0  0  0  0  0  0  0  0
   37.5830   26.5620   36.0160 H   0  0  0  0  0  0  0  0  0  0  0  0
   37.9920   27.7550   34.7600 H   0  0  0  0  0  0  0  0  0  0  0  0
   35.9540   28.7070   34.9500 H   0  0  0  0  0  0  0  0  0  0  0  0
   35.5690   27.6800   36.3370 H   0  0  0  0  0  0  0  0  0  0  0  0
   35.4020   29.8980   37.0730 H   0  0  0  0  0  0  0  0  0  0  0  0
   37.1230   30.3270   36.5230 H   0  0  0  0  0  0  0  0  0  0  0  0
   36.3030   28.0340   38.3540 H   0  0  0  0  0  0  0  0  0  0  0  0
   39.1660   28.4370   39.0560 C   0  0  0  0  0  0  0  0  0  0  0  0
   39.5010   27.3810   38.9670 H   0  0  0  0  0  0  0  0  0  0  0  0
   38.5830   28.5910   39.9820 H   0  0  0  0  0  0  0  0  0  0  0  0
   40.3510   29.3220   38.9910 C   0  0  0  0  0  0  0  0  0  0  0  0
   41.2670   28.9060   39.4480 H   0  0  0  0  0  0  0  0  0  0  0  0
   40.6390   29.5390   37.9260 H   0  0  0  0  0  0  0  0  0  0  0  0
   39.8860   33.0320   39.3430 C   0  0  0  0  0  0  0  0  0  0  0  0
   40.1830   31.7650   38.8090 C   0  0  0  0  0  0  0  0  0  0  0  0
   40.0330   30.6460   39.5770 C   0  0  0  0  0  0  0  0  0  0  0  0
   39.6010   30.8140   40.8310 N   0  0  0  0  0  0  0  0  0  0  0  0
   39.3130   32.0080   41.3570 C   0  0  0  0  0  0  0  0  0  0  0  0
   39.4490   33.1310   40.6290 N   0  0  0  0  0  0  0  0  0  0  0  0
   40.0030   33.9350   38.7360 H   0  0  0  0  0  0  0  0  0  0  0  0
   40.5290   31.7310   37.7770 H   0  0  0  0  0  0  0  0  0  0  0  0
   38.9720   31.9660   42.3950 H   0  0  0  0  0  0  0  0  0  0  0  0
   36.7340   29.9470   39.1070 O   0  0  0  0  0  0  0  0  0  0  0  0
   34.2620   29.3070   39.8170 O   0  0  0  0  0  0  0  0  0  0  0  0
   35.6770   29.5190   40.3520 P   0  0  2  0  0  0  0  0  0  0  0  0
   35.5960   30.8720   41.3790 O   0  0  0  0  0  0  0  0  0  0  0  0
   35.7310   30.6410   42.3280 H   0  0  0  0  0  0  0  0  0  0  0  0
   36.2360   28.2150   41.2360 O   0  0  0  0  0  0  0  0  0  0  0  0
   37.0410   28.7110   42.2640 C   0  0  0  0  0  0  0  0  0  0  0  0
   37.7800   29.4120   41.7940 H   0  0  0  0  0  0  0  0  0  0  0  0
   36.4610   29.2140   43.0390 H   0  0  0  0  0  0  0  0  0  0  0  0
   37.8170   27.5260   42.8000 C   0  0  0  0  0  3  0  0  0  0  0  0
   39.2690   27.8470   43.0700 C   0  0  0  0  0  3  0  0  0  0  0  0
   39.7950   28.0040   42.1060 H   0  0  0  0  0  0  0  0  0  0  0  0
   39.8550   26.5720   43.6780 C   0  0  0  0  0  3  0  0  0  0  0  0
   40.9380   26.6770   43.8890 H   0  0  0  0  0  0  0  0  0  0  0  0
   39.7170   25.5290   42.7910 O   0  0  0  0  0  0  0  0  0  0  0  0
   38.4190   25.1950   42.4750 C   0  0  0  0  0  3  0  0  0  0  0  0
   38.4680   24.3550   41.7580 H   0  0  0  0  0  0  0  0  0  0  0  0
   37.7180   26.3800   41.8230 C   0  0  0  0  0  3  0  0  0  0  0  0
   38.2750   26.6660   40.9130 H   0  0  0  0  0  0  0  0  0  0  0  0
  1  6  1  0  0  0  0
  1 16  1  0  0  0  0
  2  7  1  0  0  0  0
  2  1  1  0  0  0  0
  3  4  1  0  0  0  0
  3  9  1  0  0  0  0
  3  2  1  0  0  0  0
  4 12  1  0  0  0  0
  4  5  1  0  0  0  0
  5 13  1  0  0  0  0
  5  6  1  0  0  0  0
  6 15  1  1  0  0  0
  6 31  1  0  0  0  0
  8  2  1  0  0  0  0
 10  3  1  0  0  0  0
 11  4  1  0  0  0  0
 14  5  1  0  0  0  0
 16 18  1  0  0  0  0
 17 16  1  0  0  0  0
 19 16  1  0  0  0  0
 19 20  1  0  0  0  0
 19 24  1  0  0  0  0
 21 19  1  0  0  0  0
 22 27  1  0  0  0  0
 23 22  2  0  0  0  0
 23 24  1  0  0  0  0
 24 25  2  0  0  0  0
 25 26  1  0  0  0  0
 26 30  1  0  0  0  0
 27 26  2  0  0  0  0
 28 22  1  0  0  0  0
 29 23  1  0  0  0  0
 31 33  1  0  0  0  0
 33 32  2  6  0  0  0
 33 36  1  0  0  0  0
 33 34  1  0  0  0  0
 34 35  1  0  0  0  0
 36 37  1  0  0  0  0
 37 40  1  0  0  0  0
 37 39  1  0  0  0  0
 38 37  1  0  0  0  0
 40 41  1  0  0  0  0
 41 43  1  0  0  0  0
 42 41  1  0  0  0  0
 43 44  1  0  0  0  0
 45 43  1  0  0  0  0
 46 45  1  0  0  0  0
 47 46  1  0  0  0  0
 48 46  1  0  0  0  0
 48 40  1  0  0  0  0
 49 48  1  0  0  0  0
M  END
>  <minimizedAffinity>
-5.12489605

$$$$

 OpenBabel03252509063D

 49 51  0  0  1  0  0  0  0  0999 V2000
   39.8870   32.9820   40.1080 N   0  0  0  0  0  0  0  0  0  0  0  0
   40.5380   34.1090   39.5610 C   0  0  0  0  0  0  0  0  0  0  0  0
   42.0360   34.1610   39.7930 C   0  0  0  0  0  0  0  0  0  0  0  0
   42.6980   32.8120   39.8230 C   0  0  0  0  0  0  0  0  0  0  0  0
   41.7230   31.6990   39.5130 C   0  0  0  0  0  0  0  0  0  0  0  0
   40.5890   31.8970   40.5920 C   0  0  2  0  0  0  0  0  0  0  0  0
   40.1560   35.0940   39.8520 H   0  0  0  0  0  0  0  0  0  0  0  0
   40.4050   34.0620   38.4460 H   0  0  0  0  0  0  0  0  0  0  0  0
   42.2190   34.7470   40.7150 H   0  0  0  0  0  0  0  0  0  0  0  0
   42.4980   34.7330   38.9570 H   0  0  0  0  0  0  0  0  0  0  0  0
   43.5470   32.7390   39.1030 H   0  0  0  0  0  0  0  0  0  0  0  0
   43.1220   32.6050   40.8140 H   0  0  0  0  0  0  0  0  0  0  0  0
   42.1970   30.7400   39.7410 H   0  0  0  0  0  0  0  0  0  0  0  0
   41.2750   31.7700   38.5020 H   0  0  0  0  0  0  0  0  0  0  0  0
   41.1580   32.0140   41.5370 H   0  0  0  0  0  0  0  0  0  0  0  0
   38.6020   33.2730   40.6830 C   0  0  0  0  0  0  0  0  0  0  0  0
   38.6300   34.3070   41.0900 H   0  0  0  0  0  0  0  0  0  0  0  0
   38.4290   32.5350   41.4860 H   0  0  0  0  0  0  0  0  0  0  0  0
   37.5630   33.2040   39.6290 C   0  0  0  0  0  0  0  0  0  0  0  0
   36.7820   33.9820   39.6950 H   0  0  0  0  0  0  0  0  0  0  0  0
   38.0100   33.3370   38.6070 H   0  0  0  0  0  0  0  0  0  0  0  0
   36.3740   29.8650   38.3870 C   0  0  0  0  0  0  0  0  0  0  0  0
   36.9480   31.1480   38.4350 C   0  0  0  0  0  0  0  0  0  0  0  0
   36.9500   31.8540   39.6050 C   0  0  0  0  0  0  0  0  0  0  0  0
   36.3930   31.2760   40.6730 N   0  0  0  0  0  0  0  0  0  0  0  0
   35.8430   30.0580   40.6490 C   0  0  0  0  0  0  0  0  0  0  0  0
   35.8230   29.3350   39.5150 N   0  0  0  0  0  0  0  0  0  0  0  0
   36.3650   29.2920   37.4560 H   0  0  0  0  0  0  0  0  0  0  0  0
   37.3770   31.5340   37.5130 H   0  0  0  0  0  0  0  0  0  0  0  0
   35.4330   29.7360   41.6100 H   0  0  0  0  0  0  0  0  0  0  0  0
   39.8810   30.7210   40.4840 O   0  0  0  0  0  0  0  0  0  0  0  0
   39.6090   30.8040   43.1190 O   0  0  0  0  0  0  0  0  0  0  0  0
   39.8110   29.8600   41.9350 P   0  0  2  0  0  0  0  0  0  0  0  0
   41.3510   29.1690   42.1410 O   0  0  0  0  0  0  0  0  0  0  0  0
   41.3130   28.2060   42.3520 H   0  0  0  0  0  0  0  0  0  0  0  0
   38.6790   28.6310   41.8880 O   0  0  0  0  0  0  0  0  0  0  0  0
   38.4360   28.2260   43.2020 C   0  0  0  0  0  0  0  0  0  0  0  0
   39.3180   28.5480   43.8140 H   0  0  0  0  0  0  0  0  0  0  0  0
   37.5080   28.6430   43.5990 H   0  0  0  0  0  0  0  0  0  0  0  0
   38.4270   26.7120   43.1800 C   0  0  0  0  0  3  0  0  0  0  0  0
   39.8150   26.1160   43.1310 C   0  0  0  0  0  3  0  0  0  0  0  0
   40.2670   26.3220   42.1400 H   0  0  0  0  0  0  0  0  0  0  0  0
   39.6050   24.6020   43.2020 C   0  0  0  0  0  3  0  0  0  0  0  0
   40.5630   24.0500   43.1390 H   0  0  0  0  0  0  0  0  0  0  0  0
   38.8320   24.1910   42.1400 O   0  0  0  0  0  0  0  0  0  0  0  0
   37.5590   24.7150   42.1030 C   0  0  0  0  0  3  0  0  0  0  0  0
   37.0670   24.3020   41.2030 H   0  0  0  0  0  0  0  0  0  0  0  0
   37.6200   26.2330   41.9980 C   0  0  0  0  0  3  0  0  0  0  0  0
   38.1760   26.5040   41.0810 H   0  0  0  0  0  0  0  0  0  0  0  0
  1  6  1  0  0  0  0
  1 16  1  0  0  0  0
  2  3  1  0  0  0  0
  2  7  1  0  0  0  0
  2  1  1  0  0  0  0
  3  4  1  0  0  0  0
  3  9  1  0  0  0  0
  4 12  1  0  0  0  0
  5 13  1  0  0  0  0
  5  4  1  0  0  0  0
  5  6  1  0  0  0  0
  6 15  1  1  0  0  0
  8  2  1  0  0  0  0
 10  3  1  0  0  0  0
 11  4  1  0  0  0  0
 14  5  1  0  0  0  0
 16 17  1  0  0  0  0
 16 18  1  0  0  0  0
 19 20  1  0  0  0  0
 19 16  1  0  0  0  0
 21 19  1  0  0  0  0
 22 23  2  0  0  0  0
 22 27  1  0  0  0  0
 23 24  1  0  0  0  0
 24 19  1  0  0  0  0
 24 25  2  0  0  0  0
 26 25  1  0  0  0  0
 26 30  1  0  0  0  0
 27 26  2  0  0  0  0
 28 22  1  0  0  0  0
 29 23  1  0  0  0  0
 31  6  1  0  0  0  0
 31 33  1  0  0  0  0
 33 34  1  0  0  0  0
 33 32  2  1  0  0  0
 34 35  1  0  0  0  0
 36 33  1  0  0  0  0
 36 37  1  0  0  0  0
 37 39  1  0  0  0  0
 37 38  1  0  0  0  0
 40 37  1  0  0  0  0
 41 40  1  0  0  0  0
 41 43  1  0  0  0  0
 42 41  1  0  0  0  0
 44 43  1  0  0  0  0
 45 43  1  0  0  0  0
 46 45  1  0  0  0  0
 47 46  1  0  0  0  0
 48 46  1  0  0  0  0
 48 40  1  0  0  0  0
 49 48  1  0  0  0  0
M  END
>  <minimizedAffinity>
-5.11643982

$$$$

 OpenBabel03252509063D

 49 51  0  0  1  0  0  0  0  0999 V2000
   38.4210   28.5860   38.0990 N   0  0  0  0  0  0  0  0  0  0  0  0
   38.7670   28.2300   36.7780 C   0  0  0  0  0  0  0  0  0  0  0  0
   37.6120   28.2070   35.7960 C   0  0  0  0  0  0  0  0  0  0  0  0
   36.5490   29.2320   36.0770 C   0  0  0  0  0  0  0  0  0  0  0  0
   36.9240   30.1300   37.2340 C   0  0  0  0  0  0  0  0  0  0  0  0
   37.1850   29.1150   38.4130 C   0  0  2  0  0  0  0  0  0  0  0  0
   39.2940   27.2790   36.6420 H   0  0  0  0  0  0  0  0  0  0  0  0
   39.4760   29.0140   36.3960 H   0  0  0  0  0  0  0  0  0  0  0  0
   37.2120   27.1760   35.7610 H   0  0  0  0  0  0  0  0  0  0  0  0
   38.0140   28.4250   34.7800 H   0  0  0  0  0  0  0  0  0  0  0  0
   36.3360   29.8780   35.1920 H   0  0  0  0  0  0  0  0  0  0  0  0
   35.5980   28.7490   36.3360 H   0  0  0  0  0  0  0  0  0  0  0  0
   36.0480   30.7170   37.5250 H   0  0  0  0  0  0  0  0  0  0  0  0
   37.8450   30.7210   37.0570 H   0  0  0  0  0  0  0  0  0  0  0  0
   36.2990   28.4480   38.3730 H   0  0  0  0  0  0  0  0  0  0  0  0
   39.1160   27.8330   39.1080 C   0  0  0  0  0  0  0  0  0  0  0  0
   38.4840   27.8160   40.0230 H   0  0  0  0  0  0  0  0  0  0  0  0
   40.0740   28.3480   39.2970 H   0  0  0  0  0  0  0  0  0  0  0  0
   39.3130   26.4430   38.6380 C   0  0  0  0  0  0  0  0  0  0  0  0
   38.9960   26.2560   37.5960 H   0  0  0  0  0  0  0  0  0  0  0  0
   40.4000   26.1560   38.6590 H   0  0  0  0  0  0  0  0  0  0  0  0
   36.6440   24.6780   40.6030 C   0  0  0  0  0  0  0  0  0  0  0  0
   37.2970   25.5690   39.7320 C   0  0  0  0  0  0  0  0  0  0  0  0
   38.6490   25.4920   39.5620 C   0  0  0  0  0  0  0  0  0  0  0  0
   39.3030   24.5510   40.2490 N   0  0  0  0  0  0  0  0  0  0  0  0
   38.7020   23.6950   41.0810 C   0  0  0  0  0  0  0  0  0  0  0  0
   37.3720   23.7410   41.2730 N   0  0  0  0  0  0  0  0  0  0  0  0
   35.5610   24.7310   40.7470 H   0  0  0  0  0  0  0  0  0  0  0  0
   36.6770   26.3020   39.2180 H   0  0  0  0  0  0  0  0  0  0  0  0
   39.3850   22.9890   41.5620 H   0  0  0  0  0  0  0  0  0  0  0  0
   37.2320   29.9510   39.5070 O   0  0  0  0  0  0  0  0  0  0  0  0
   34.8430   28.9460   40.0650 O   0  0  0  0  0  0  0  0  0  0  0  0
   36.1000   29.5450   40.6930 P   0  0  2  0  0  0  0  0  0  0  0  0
   35.6190   31.0150   41.3990 O   0  0  0  0  0  0  0  0  0  0  0  0
   35.6540   30.9950   42.3850 H   0  0  0  0  0  0  0  0  0  0  0  0
   36.7540   28.5720   41.8850 O   0  0  0  0  0  0  0  0  0  0  0  0
   37.5260   29.3830   42.7190 C   0  0  0  0  0  0  0  0  0  0  0  0
   37.9480   30.2040   42.0830 H   0  0  0  0  0  0  0  0  0  0  0  0
   36.9490   29.7880   43.5530 H   0  0  0  0  0  0  0  0  0  0  0  0
   38.6860   28.5260   43.1820 C   0  0  0  0  0  3  0  0  0  0  0  0
   39.9810   28.8600   42.4780 C   0  0  0  0  0  3  0  0  0  0  0  0
   39.9150   28.5410   41.4180 H   0  0  0  0  0  0  0  0  0  0  0  0
   41.0350   27.9640   43.1310 C   0  0  0  0  0  3  0  0  0  0  0  0
   42.0330   28.0970   42.6680 H   0  0  0  0  0  0  0  0  0  0  0  0
   40.6880   26.6430   42.9670 O   0  0  0  0  0  0  0  0  0  0  0  0
   39.5020   26.2690   43.5600 C   0  0  0  0  0  3  0  0  0  0  0  0
   39.3560   25.1960   43.3400 H   0  0  0  0  0  0  0  0  0  0  0  0
   38.3480   27.0700   42.9720 C   0  0  0  0  0  3  0  0  0  0  0  0
   38.3080   26.8890   41.8820 H   0  0  0  0  0  0  0  0  0  0  0  0
  1  6  1  0  0  0  0
  1 16  1  0  0  0  0
  2  1  1  0  0  0  0
  3  4  1  0  0  0  0
  3  2  1  0  0  0  0
  4 12  1  0  0  0  0
  4  5  1  0  0  0  0
  5 13  1  0  0  0  0
  5  6  1  0  0  0  0
  6 15  1  1  0  0  0
  6 31  1  0  0  0  0
  7  2  1  0  0  0  0
  8  2  1  0  0  0  0
  9  3  1  0  0  0  0
 10  3  1  0  0  0  0
 11  4  1  0  0  0  0
 14  5  1  0  0  0  0
 16 18  1  0  0  0  0
 16 17  1  0  0  0  0
 19 21  1  0  0  0  0
 19 16  1  0  0  0  0
 19 24  1  0  0  0  0
 20 19  1  0  0  0  0
 22 28  1  0  0  0  0
 22 27  1  0  0  0  0
 23 22  2  0  0  0  0
 24 23  1  0  0  0  0
 24 25  2  0  0  0  0
 25 26  1  0  0  0  0
 26 27  2  0  0  0  0
 26 30  1  0  0  0  0
 29 23  1  0  0  0  0
 31 33  1  0  0  0  0
 33 32  2  6  0  0  0
 33 34  1  0  0  0  0
 33 36  1  0  0  0  0
 34 35  1  0  0  0  0
 36 37  1  0  0  0  0
 37 40  1  0  0  0  0
 37 39  1  0  0  0  0
 38 37  1  0  0  0  0
 41 43  1  0  0  0  0
 41 40  1  0  0  0  0
 42 41  1  0  0  0  0
 44 43  1  0  0  0  0
 45 43  1  0  0  0  0
 45 46  1  0  0  0  0
 47 46  1  0  0  0  0
 48 40  1  0  0  0  0
 48 46  1  0  0  0  0
 49 48  1  0  0  0  0
M  END
>  <minimizedAffinity>
-5.08952379

$$$$

 OpenBabel03252509063D

 49 51  0  0  1  0  0  0  0  0999 V2000
   36.0440   29.4920   38.6360 N   0  0  0  0  0  0  0  0  0  0  0  0
   34.9430   28.7880   38.1030 C   0  0  0  0  0  0  0  0  0  0  0  0
   34.6440   29.0730   36.6440 C   0  0  0  0  0  0  0  0  0  0  0  0
   35.8640   29.3630   35.8140 C   0  0  0  0  0  0  0  0  0  0  0  0
   37.1380   29.2070   36.6130 C   0  0  0  0  0  0  0  0  0  0  0  0
   36.9260   30.1850   37.8320 C   0  0  2  0  0  0  0  0  0  0  0  0
   33.9860   28.8880   38.6290 H   0  0  0  0  0  0  0  0  0  0  0  0
   35.1910   27.6930   38.1550 H   0  0  0  0  0  0  0  0  0  0  0  0
   33.8950   29.8870   36.6000 H   0  0  0  0  0  0  0  0  0  0  0  0
   34.1580   28.1720   36.2050 H   0  0  0  0  0  0  0  0  0  0  0  0
   35.9350   28.7030   34.9170 H   0  0  0  0  0  0  0  0  0  0  0  0
   35.8430   30.3920   35.4340 H   0  0  0  0  0  0  0  0  0  0  0  0
   37.9710   29.6170   36.0340 H   0  0  0  0  0  0  0  0  0  0  0  0
   37.2970   28.1800   36.9980 H   0  0  0  0  0  0  0  0  0  0  0  0
   36.5770   31.1200   37.3480 H   0  0  0  0  0  0  0  0  0  0  0  0
   35.8450   29.9520   39.9840 C   0  0  0  0  0  0  0  0  0  0  0  0
   34.9830   30.6530   39.9870 H   0  0  0  0  0  0  0  0  0  0  0  0
   36.7740   30.4630   40.2950 H   0  0  0  0  0  0  0  0  0  0  0  0
   35.5260   28.7980   40.8570 C   0  0  0  0  0  0  0  0  0  0  0  0
   34.5930   28.9020   41.4400 H   0  0  0  0  0  0  0  0  0  0  0  0
   35.3810   27.8600   40.2550 H   0  0  0  0  0  0  0  0  0  0  0  0
   38.0320   26.9010   42.9110 C   0  0  0  0  0  0  0  0  0  0  0  0
   36.9510   27.2050   42.0640 C   0  0  0  0  0  0  0  0  0  0  0  0
   36.6690   28.5050   41.7530 C   0  0  0  0  0  0  0  0  0  0  0  0
   37.4540   29.4480   42.2840 N   0  0  0  0  0  0  0  0  0  0  0  0
   38.4850   29.1800   43.0910 C   0  0  0  0  0  0  0  0  0  0  0  0
   38.7910   27.9120   43.4170 N   0  0  0  0  0  0  0  0  0  0  0  0
   38.2660   25.8630   43.1670 H   0  0  0  0  0  0  0  0  0  0  0  0
   36.3710   26.3670   41.6810 H   0  0  0  0  0  0  0  0  0  0  0  0
   39.0220   30.0680   43.4360 H   0  0  0  0  0  0  0  0  0  0  0  0
   38.1910   30.2500   38.3720 O   0  0  0  0  0  0  0  0  0  0  0  0
   37.8420   32.8180   38.9250 O   0  0  0  0  0  0  0  0  0  0  0  0
   38.8360   31.8110   38.3500 P   0  0  2  0  0  0  0  0  0  0  0  0
   39.0210   32.2150   36.7090 O   0  0  0  0  0  0  0  0  0  0  0  0
   39.9170   32.5710   36.5010 H   0  0  0  0  0  0  0  0  0  0  0  0
   40.3340   31.8870   39.0880 O   0  0  0  0  0  0  0  0  0  0  0  0
   40.2200   31.2900   40.3450 C   0  0  0  0  0  0  0  0  0  0  0  0
   39.4280   31.8520   40.9060 H   0  0  0  0  0  0  0  0  0  0  0  0
   39.9760   30.2280   40.2790 H   0  0  0  0  0  0  0  0  0  0  0  0
   41.5380   31.5370   41.0490 C   0  0  0  0  0  3  0  0  0  0  0  0
   41.4790   31.2360   42.5290 C   0  0  0  0  0  3  0  0  0  0  0  0
   40.8450   31.9950   43.0320 H   0  0  0  0  0  0  0  0  0  0  0  0
   42.9040   31.4590   43.0410 C   0  0  0  0  0  3  0  0  0  0  0  0
   42.9780   31.3000   44.1350 H   0  0  0  0  0  0  0  0  0  0  0  0
   43.2860   32.7580   42.7950 O   0  0  0  0  0  0  0  0  0  0  0  0
   43.3370   33.1140   41.4660 C   0  0  0  0  0  3  0  0  0  0  0  0
   43.6510   34.1740   41.4280 H   0  0  0  0  0  0  0  0  0  0  0  0
   41.9600   32.9690   40.8320 C   0  0  0  0  0  3  0  0  0  0  0  0
   41.2480   33.6150   41.3780 H   0  0  0  0  0  0  0  0  0  0  0  0
  1 16  1  0  0  0  0
  2  8  1  0  0  0  0
  2  7  1  0  0  0  0
  2  1  1  0  0  0  0
  3  2  1  0  0  0  0
  4  5  1  0  0  0  0
  4  3  1  0  0  0  0
  5 14  1  0  0  0  0
  5  6  1  0  0  0  0
  6 15  1  6  0  0  0
  6 31  1  0  0  0  0
  6  1  1  0  0  0  0
  9  3  1  0  0  0  0
 10  3  1  0  0  0  0
 11  4  1  0  0  0  0
 12  4  1  0  0  0  0
 13  5  1  0  0  0  0
 16 17  1  0  0  0  0
 16 18  1  0  0  0  0
 16 19  1  0  0  0  0
 19 20  1  0  0  0  0
 19 24  1  0  0  0  0
 21 19  1  0  0  0  0
 22 28  1  0  0  0  0
 22 27  1  0  0  0  0
 23 22  2  0  0  0  0
 24 23  1  0  0  0  0
 24 25  2  0  0  0  0
 25 26  1  0  0  0  0
 26 27  2  0  0  0  0
 26 30  1  0  0  0  0
 29 23  1  0  0  0  0
 33 31  1  0  0  0  0
 33 32  2  1  0  0  0
 33 36  1  0  0  0  0
 34 33  1  0  0  0  0
 35 34  1  0  0  0  0
 36 37  1  0  0  0  0
 37 38  1  0  0  0  0
 37 40  1  0  0  0  0
 39 37  1  0  0  0  0
 40 41  1  0  0  0  0
 41 42  1  0  0  0  0
 41 43  1  0  0  0  0
 43 44  1  0  0  0  0
 45 43  1  0  0  0  0
 46 45  1  0  0  0  0
 47 46  1  0  0  0  0
 48 40  1  0  0  0  0
 48 49  1  0  0  0  0
 48 46  1  0  0  0  0
M  END
>  <minimizedAffinity>
-5.07902908

$$$$
