
 OpenBabel03252508103D

 48 51  0  0  0  0  0  0  0  0999 V2000
   45.1590   35.5950   43.1580 C   0  0  0  0  0  0  0  0  0  0  0  0
   45.5240   34.2680   43.2260 C   0  0  0  0  0  0  0  0  0  0  0  0
   45.4430   33.5700   44.3970 C   0  0  0  0  0  0  0  0  0  0  0  0
   44.9710   34.2810   45.4960 N   0  0  0  0  0  0  0  0  0  0  0  0
   44.6200   35.5530   45.4370 C   0  0  0  0  0  0  0  0  0  0  0  0
   44.7200   36.2040   44.2540 N   0  0  0  0  0  0  0  0  0  0  0  0
   45.2080   36.1900   42.2480 H   0  0  0  0  0  0  0  0  0  0  0  0
   44.2570   36.0530   46.3430 H   0  0  0  0  0  0  0  0  0  0  0  0
   45.7760   32.2260   44.6450 C   0  0  0  0  0  0  0  0  0  0  0  0
   45.4250   31.1830   43.7660 C   0  0  0  0  0  0  0  0  0  0  0  0
   45.6850   29.8590   44.0030 C   0  0  0  0  0  0  0  0  0  0  0  0
   46.3320   29.4910   45.1690 C   0  0  0  0  0  0  0  0  0  0  0  0
   46.6990   30.5370   46.0750 C   0  0  0  0  0  0  0  0  0  0  0  0
   47.3340   30.1820   47.2280 C   0  0  0  0  0  0  0  0  0  0  0  0
   47.7120   31.1450   48.1360 C   0  0  0  0  0  0  0  0  0  0  0  0
   47.4370   32.4970   47.8640 C   0  0  0  0  0  0  0  0  0  0  0  0
   46.7770   32.8000   46.6530 C   0  0  0  0  0  0  0  0  0  0  0  0
   46.4130   31.8280   45.7790 C   0  0  0  0  0  0  0  0  0  0  0  0
   44.9180   31.4500   42.8500 H   0  0  0  0  0  0  0  0  0  0  0  0
   45.3770   29.1310   43.2680 H   0  0  0  0  0  0  0  0  0  0  0  0
   46.5400   28.4660   45.3670 H   0  0  0  0  0  0  0  0  0  0  0  0
   47.5320   29.1210   47.4050 H   0  0  0  0  0  0  0  0  0  0  0  0
   48.2040   30.7750   49.0120 H   0  0  0  0  0  0  0  0  0  0  0  0
   47.7770   33.1480   48.6350 H   0  0  0  0  0  0  0  0  0  0  0  0
   46.6940   33.8680   46.6410 H   0  0  0  0  0  0  0  0  0  0  0  0
   45.9650   33.6840   42.0710 O   0  0  0  0  0  0  0  0  0  0  0  0
   48.1510   32.3920   41.4160 O   0  0  0  0  0  0  0  0  0  0  0  0
   47.5270   33.7530   41.4760 P   0  0  1  0  0  0  0  0  0  0  0  0
   47.5910   34.3980   39.9190 O   0  0  0  0  0  0  0  0  0  0  0  0
   47.2470   33.3400   39.0600 C   0  0  0  0  0  0  0  0  0  0  0  0
   46.3510   32.7980   39.3580 H   0  0  0  0  0  0  0  0  0  0  0  0
   48.0920   32.6030   39.1810 H   0  0  0  0  0  0  0  0  0  0  0  0
   47.2780   33.7650   37.6230 C   0  0  0  0  0  3  0  0  0  0  0  0
   46.7050   32.7300   36.6900 C   0  0  0  0  0  3  0  0  0  0  0  0
   46.6840   33.2150   35.6700 H   0  0  0  0  0  0  0  0  0  0  0  0
   47.5960   31.5360   36.5450 C   0  0  0  0  0  3  0  0  0  0  0  0
   46.9750   30.6450   36.8550 H   0  0  0  0  0  0  0  0  0  0  0  0
   48.6970   31.5160   37.3660 O   0  0  0  0  0  0  0  0  0  0  0  0
   49.4530   32.6510   37.4090 C   0  0  0  0  0  3  0  0  0  0  0  0
   50.3400   32.6150   36.7130 H   0  0  0  0  0  0  0  0  0  0  0  0
   48.7300   33.9400   37.2290 C   0  0  0  0  0  3  0  0  0  0  0  0
   48.8170   34.3400   36.1800 H   0  0  0  0  0  0  0  0  0  0  0  0
   48.4410   34.7290   42.5100 O   0  0  0  0  0  0  0  0  0  0  0  0
   49.6470   35.3400   42.2440 C   0  0  0  0  0  0  0  0  0  0  0  0
   49.3810   36.3890   41.6730 O   0  0  0  0  0  0  0  0  0  0  0  0
   50.7420   34.5550   42.7170 N   0  0  0  0  0  0  0  0  0  0  0  0
   51.0310   34.3720   43.7280 H   0  0  0  0  0  0  0  0  0  0  0  0
   51.5720   33.9620   42.4860 H   0  0  0  0  0  0  0  0  0  0  0  0
  1  2  2  0  0  0  0
  1  6  1  0  0  0  0
  2  3  1  0  0  0  0
  3  9  1  0  0  0  0
  3  4  2  0  0  0  0
  5  4  1  0  0  0  0
  5  8  1  0  0  0  0
  6  5  2  0  0  0  0
  7  1  1  0  0  0  0
  9 18  1  0  0  0  0
 10 11  1  0  0  0  0
 10  9  2  0  0  0  0
 11 12  2  0  0  0  0
 12 21  1  0  0  0  0
 12 13  1  0  0  0  0
 13 14  1  0  0  0  0
 14 22  1  0  0  0  0
 14 15  2  0  0  0  0
 15 23  1  0  0  0  0
 16 15  1  0  0  0  0
 16 24  1  0  0  0  0
 17 16  2  0  0  0  0
 18 13  2  0  0  0  0
 18 17  1  0  0  0  0
 19 10  1  0  0  0  0
 20 11  1  0  0  0  0
 25 17  1  0  0  0  0
 26  2  1  0  0  0  0
 28 27  2  6  0  0  0
 28 26  1  0  0  0  0
 28 43  1  0  0  0  0
 29 28  1  0  0  0  0
 30 32  1  0  0  0  0
 30 31  1  0  0  0  0
 30 29  1  0  0  0  0
 33 30  1  0  0  0  0
 34 33  1  0  0  0  0
 35 34  1  0  0  0  0
 36 34  1  0  0  0  0
 36 37  1  0  0  0  0
 36 38  1  0  0  0  0
 38 39  1  0  0  0  0
 40 39  1  0  0  0  0
 41 39  1  0  0  0  0
 41 33  1  0  0  0  0
 42 41  1  0  0  0  0
 44 43  1  0  0  0  0
 44 46  1  0  0  0  0
 45 44  2  0  0  0  0
 46 47  1  0  0  0  0
 48 46  1  0  0  0  0
M  END
>  <minimizedAffinity>
-6.25656986

>  <minimizedRMSD>
1.16402304

$$$$
