
 OpenBabel03242519183D

 43 46  0  0  1  0  0  0  0  0999 V2000
   37.0140   29.4430   41.8830 C   0  0  0  0  0  0  0  0  0  0  0  0
   35.9260   28.7460   41.4060 C   0  0  0  0  0  0  0  0  0  0  0  0
   35.2830   29.0700   40.2050 C   0  0  0  0  0  0  0  0  0  0  0  0
   35.8080   30.1260   39.5340 N   0  0  0  0  0  0  0  0  0  0  0  0
   36.8680   30.8000   40.0030 C   0  0  0  0  0  0  0  0  0  0  0  0
   37.4580   30.4610   41.1570 N   0  0  0  0  0  0  0  0  0  0  0  0
   35.5690   27.9160   42.0030 H   0  0  0  0  0  0  0  0  0  0  0  0
   34.4410   28.5160   39.8570 H   0  0  0  0  0  0  0  0  0  0  0  0
   37.4640   31.9510   39.2480 C   0  0  2  0  0  0  0  0  0  0  0  0
   38.1330   31.6760   37.9380 C   0  0  0  0  0  0  0  0  0  0  0  0
   38.9460   32.0120   39.1900 C   0  0  1  0  0  0  0  0  0  0  0  0
   36.8830   32.8820   39.3640 H   0  0  0  0  0  0  0  0  0  0  0  0
   38.0660   32.4010   37.1180 H   0  0  0  0  0  0  0  0  0  0  0  0
   38.1500   30.6040   37.5980 H   0  0  0  0  0  0  0  0  0  0  0  0
   39.4850   31.1290   39.6190 H   0  0  0  0  0  0  0  0  0  0  0  0
   39.7290   33.2540   39.1500 C   0  0  0  0  0  3  0  0  0  0  0  0
   39.1380   34.2600   40.1210 C   0  0  0  0  0  3  0  0  0  0  0  0
   38.6130   33.7820   40.9730 H   0  0  0  0  0  0  0  0  0  0  0  0
   40.2750   35.1810   40.5950 C   0  0  0  0  0  3  0  0  0  0  0  0
   39.8730   36.0440   41.1320 H   0  0  0  0  0  0  0  0  0  0  0  0
   41.0440   35.4730   39.4840 O   0  0  0  0  0  0  0  0  0  0  0  0
   41.9360   34.4070   39.2930 C   0  0  0  0  0  3  0  0  0  0  0  0
   42.7190   34.5110   40.0720 H   0  0  0  0  0  0  0  0  0  0  0  0
   41.2080   33.0760   39.3770 C   0  0  0  0  0  3  0  0  0  0  0  0
   41.5990   32.4300   38.5700 H   0  0  0  0  0  0  0  0  0  0  0  0
   37.6730   29.0880   43.1210 C   0  0  0  0  0  0  0  0  0  0  0  0
   38.7550   29.2090   43.0540 H   0  0  0  0  0  0  0  0  0  0  0  0
   37.3280   29.8030   43.9140 H   0  0  0  0  0  0  0  0  0  0  0  0
   37.3320   27.7130   43.5340 C   0  0  0  0  0  0  0  0  0  0  0  0
   37.0420   27.6630   44.6090 H   0  0  0  0  0  0  0  0  0  0  0  0
   36.4630   27.2910   42.9820 H   0  0  0  0  0  0  0  0  0  0  0  0
   36.6300   25.2090   42.1080 Cl  0  0  0  0  0  0  0  0  0  0  0  0
   38.2370   25.5380   42.6800 C   0  0  0  0  0  0  0  0  0  0  0  0
   38.4410   26.7270   43.3270 C   0  0  0  0  0  0  0  0  0  0  0  0
   39.7190   26.9970   43.7900 C   0  0  0  0  0  0  0  0  0  0  0  0
   40.7460   26.0990   43.6050 C   0  0  0  0  0  0  0  0  0  0  0  0
   40.5180   24.8880   42.9410 C   0  0  0  0  0  0  0  0  0  0  0  0
   39.2470   24.6300   42.4850 C   0  0  0  0  0  0  0  0  0  0  0  0
   39.9590   27.9110   44.3080 H   0  0  0  0  0  0  0  0  0  0  0  0
   41.7530   26.3170   43.9720 H   0  0  0  0  0  0  0  0  0  0  0  0
   41.2990   24.1730   42.7820 H   0  0  0  0  0  0  0  0  0  0  0  0
   38.9050   23.4450   41.8050 O   0  0  0  0  0  0  0  0  0  0  0  0
   39.3870   22.5860   42.0250 H   0  0  0  0  0  0  0  0  0  0  0  0
  1 26  1  0  0  0  0
  2  1  1  0  0  0  0
  2  7  1  0  0  0  0
  3  2  2  0  0  0  0
  4  5  2  0  0  0  0
  4  3  1  0  0  0  0
  5  6  1  0  0  0  0
  6  1  2  0  0  0  0
  8  3  1  0  0  0  0
  9 12  1  1  0  0  0
  9  5  1  0  0  0  0
 10 11  1  0  0  0  0
 10  9  1  0  0  0  0
 11  9  1  0  0  0  0
 11 15  1  1  0  0  0
 13 10  1  0  0  0  0
 14 10  1  0  0  0  0
 16 11  1  0  0  0  0
 16 24  1  0  0  0  0
 16 17  1  0  0  0  0
 17 19  1  0  0  0  0
 17 18  1  0  0  0  0
 19 20  1  0  0  0  0
 21 19  1  0  0  0  0
 22 24  1  0  0  0  0
 22 21  1  0  0  0  0
 22 23  1  0  0  0  0
 25 24  1  0  0  0  0
 26 29  1  0  0  0  0
 26 28  1  0  0  0  0
 27 26  1  0  0  0  0
 29 30  1  0  0  0  0
 31 29  1  0  0  0  0
 32 33  1  0  0  0  0
 33 34  1  0  0  0  0
 34 29  1  0  0  0  0
 34 35  2  0  0  0  0
 35 39  1  0  0  0  0
 36 35  1  0  0  0  0
 36 40  1  0  0  0  0
 37 36  2  0  0  0  0
 38 33  2  0  0  0  0
 38 37  1  0  0  0  0
 41 37  1  0  0  0  0
 42 43  1  0  0  0  0
 42 38  1  0  0  0  0
M  END
>  <minimizedAffinity>
-6.47080183

$$$$

 OpenBabel03242519183D

 43 46  0  0  1  0  0  0  0  0999 V2000
   37.7640   31.7880   40.1300 C   0  0  0  0  0  0  0  0  0  0  0  0
   36.9640   31.5030   39.0460 C   0  0  0  0  0  0  0  0  0  0  0  0
   36.2820   30.2890   38.9020 C   0  0  0  0  0  0  0  0  0  0  0  0
   36.4610   29.4020   39.9130 N   0  0  0  0  0  0  0  0  0  0  0  0
   37.2420   29.6840   40.9660 C   0  0  0  0  0  0  0  0  0  0  0  0
   37.8810   30.8570   41.0690 N   0  0  0  0  0  0  0  0  0  0  0  0
   36.8740   32.2670   38.2830 H   0  0  0  0  0  0  0  0  0  0  0  0
   35.6680   30.0920   38.0530 H   0  0  0  0  0  0  0  0  0  0  0  0
   37.4200   28.7130   42.0950 C   0  0  2  0  0  0  0  0  0  0  0  0
   38.1710   29.1590   43.3100 C   0  0  0  0  0  0  0  0  0  0  0  0
   38.7900   28.1830   42.3080 C   0  0  1  0  0  0  0  0  0  0  0  0
   36.5500   28.0460   42.2220 H   0  0  0  0  0  0  0  0  0  0  0  0
   37.8740   28.8070   44.3060 H   0  0  0  0  0  0  0  0  0  0  0  0
   38.5640   30.2120   43.2990 H   0  0  0  0  0  0  0  0  0  0  0  0
   39.5910   28.6450   41.6760 H   0  0  0  0  0  0  0  0  0  0  0  0
   39.0950   26.8360   42.8060 C   0  0  0  0  0  3  0  0  0  0  0  0
   38.1020   25.8430   42.2310 C   0  0  0  0  0  3  0  0  0  0  0  0
   37.6940   26.1580   41.2490 H   0  0  0  0  0  0  0  0  0  0  0  0
   38.7990   24.4740   42.1480 C   0  0  0  0  0  3  0  0  0  0  0  0
   38.0740   23.6850   41.9340 H   0  0  0  0  0  0  0  0  0  0  0  0
   39.5240   24.3220   43.3150 O   0  0  0  0  0  0  0  0  0  0  0  0
   40.7430   24.9950   43.1480 C   0  0  0  0  0  3  0  0  0  0  0  0
   41.3620   24.3610   42.4820 H   0  0  0  0  0  0  0  0  0  0  0  0
   40.5150   26.3860   42.5800 C   0  0  0  0  0  3  0  0  0  0  0  0
   41.1820   27.0820   43.1210 H   0  0  0  0  0  0  0  0  0  0  0  0
   38.4540   33.0520   40.2660 C   0  0  0  0  0  0  0  0  0  0  0  0
   38.2870   33.7000   39.4050 H   0  0  0  0  0  0  0  0  0  0  0  0
   38.0190   33.5910   41.1500 H   0  0  0  0  0  0  0  0  0  0  0  0
   39.8990   32.8520   40.4910 C   0  0  0  0  0  0  0  0  0  0  0  0
   40.3640   33.7270   41.0010 H   0  0  0  0  0  0  0  0  0  0  0  0
   40.1260   31.9840   41.1480 H   0  0  0  0  0  0  0  0  0  0  0  0
   41.1680   35.2190   39.2310 Cl  0  0  0  0  0  0  0  0  0  0  0  0
   41.3080   33.6200   38.5660 C   0  0  0  0  0  0  0  0  0  0  0  0
   40.6770   32.6050   39.2340 C   0  0  0  0  0  0  0  0  0  0  0  0
   40.7810   31.3260   38.7100 C   0  0  0  0  0  0  0  0  0  0  0  0
   41.4940   31.0870   37.5570 C   0  0  0  0  0  0  0  0  0  0  0  0
   42.1330   32.1380   36.8880 C   0  0  0  0  0  0  0  0  0  0  0  0
   42.0240   33.4020   37.4160 C   0  0  0  0  0  0  0  0  0  0  0  0
   40.3130   30.4760   39.1780 H   0  0  0  0  0  0  0  0  0  0  0  0
   41.5740   30.0760   37.1470 H   0  0  0  0  0  0  0  0  0  0  0  0
   42.6950   31.9790   35.9900 H   0  0  0  0  0  0  0  0  0  0  0  0
   42.6250   34.5310   36.8270 O   0  0  0  0  0  0  0  0  0  0  0  0
   42.7370   34.5720   35.8240 H   0  0  0  0  0  0  0  0  0  0  0  0
  1 26  1  0  0  0  0
  1  6  1  0  0  0  0
  2  1  2  0  0  0  0
  3  2  1  0  0  0  0
  3  4  2  0  0  0  0
  4  5  1  0  0  0  0
  5  6  2  0  0  0  0
  5  9  1  0  0  0  0
  7  2  1  0  0  0  0
  8  3  1  0  0  0  0
  9 12  1  1  0  0  0
  9 11  1  0  0  0  0
  9 10  1  0  0  0  0
 10 13  1  0  0  0  0
 11 15  1  6  0  0  0
 11 16  1  0  0  0  0
 11 10  1  0  0  0  0
 14 10  1  0  0  0  0
 17 16  1  0  0  0  0
 18 17  1  0  0  0  0
 19 17  1  0  0  0  0
 19 21  1  0  0  0  0
 20 19  1  0  0  0  0
 22 21  1  0  0  0  0
 23 22  1  0  0  0  0
 24 16  1  0  0  0  0
 24 25  1  0  0  0  0
 24 22  1  0  0  0  0
 26 29  1  0  0  0  0
 26 28  1  0  0  0  0
 27 26  1  0  0  0  0
 29 30  1  0  0  0  0
 29 31  1  0  0  0  0
 33 32  1  0  0  0  0
 33 34  1  0  0  0  0
 34 29  1  0  0  0  0
 35 39  1  0  0  0  0
 35 34  2  0  0  0  0
 36 35  1  0  0  0  0
 37 38  1  0  0  0  0
 37 36  2  0  0  0  0
 38 33  2  0  0  0  0
 40 36  1  0  0  0  0
 41 37  1  0  0  0  0
 42 38  1  0  0  0  0
 43 42  1  0  0  0  0
M  END
>  <minimizedAffinity>
-6.29250383

$$$$

 OpenBabel03242519183D

 43 46  0  0  1  0  0  0  0  0999 V2000
   36.6970   28.3810   39.7150 C   0  0  0  0  0  0  0  0  0  0  0  0
   36.1360   28.4690   38.4600 C   0  0  0  0  0  0  0  0  0  0  0  0
   36.0730   29.6670   37.7380 C   0  0  0  0  0  0  0  0  0  0  0  0
   36.6080   30.7470   38.3620 N   0  0  0  0  0  0  0  0  0  0  0  0
   37.1520   30.6560   39.5840 C   0  0  0  0  0  0  0  0  0  0  0  0
   37.1940   29.4910   40.2450 N   0  0  0  0  0  0  0  0  0  0  0  0
   35.7320   27.5600   38.0340 H   0  0  0  0  0  0  0  0  0  0  0  0
   35.6330   29.7100   36.7670 H   0  0  0  0  0  0  0  0  0  0  0  0
   37.7660   31.8440   40.2620 C   0  0  2  0  0  0  0  0  0  0  0  0
   37.4560   33.2090   39.7310 C   0  0  0  0  0  0  0  0  0  0  0  0
   38.8260   32.5640   39.5120 C   0  0  1  0  0  0  0  0  0  0  0  0
   37.8650   31.7080   41.3520 H   0  0  0  0  0  0  0  0  0  0  0  0
   37.3540   34.0600   40.4150 H   0  0  0  0  0  0  0  0  0  0  0  0
   36.7720   33.2570   38.8400 H   0  0  0  0  0  0  0  0  0  0  0  0
   38.9910   32.2220   38.4580 H   0  0  0  0  0  0  0  0  0  0  0  0
   39.9740   33.2380   40.1310 C   0  0  0  0  0  3  0  0  0  0  0  0
   40.7130   32.2630   41.0310 C   0  0  0  0  0  3  0  0  0  0  0  0
   40.6010   31.2070   40.7090 H   0  0  0  0  0  0  0  0  0  0  0  0
   42.1890   32.6920   41.0790 C   0  0  0  0  0  3  0  0  0  0  0  0
   42.7210   32.1530   41.8660 H   0  0  0  0  0  0  0  0  0  0  0  0
   42.2030   34.0710   41.1820 O   0  0  0  0  0  0  0  0  0  0  0  0
   42.0530   34.5950   39.8900 C   0  0  0  0  0  3  0  0  0  0  0  0
   43.0280   34.4550   39.3810 H   0  0  0  0  0  0  0  0  0  0  0  0
   40.9130   33.9060   39.1590 C   0  0  0  0  0  3  0  0  0  0  0  0
   40.3430   34.6840   38.6190 H   0  0  0  0  0  0  0  0  0  0  0  0
   36.7620   27.1330   40.4430 C   0  0  0  0  0  0  0  0  0  0  0  0
   35.9130   26.4860   40.2160 H   0  0  0  0  0  0  0  0  0  0  0  0
   37.6750   26.5780   40.1000 H   0  0  0  0  0  0  0  0  0  0  0  0
   36.8610   27.3650   41.8970 C   0  0  0  0  0  0  0  0  0  0  0  0
   36.7670   28.4460   42.1510 H   0  0  0  0  0  0  0  0  0  0  0  0
   36.0560   26.8630   42.4780 H   0  0  0  0  0  0  0  0  0  0  0  0
   37.1850   24.4250   42.1140 Cl  0  0  0  0  0  0  0  0  0  0  0  0
   38.4040   25.5400   42.6510 C   0  0  0  0  0  0  0  0  0  0  0  0
   38.1410   26.8760   42.5010 C   0  0  0  0  0  0  0  0  0  0  0  0
   39.1070   27.7740   42.9280 C   0  0  0  0  0  0  0  0  0  0  0  0
   40.2880   27.3350   43.4840 C   0  0  0  0  0  0  0  0  0  0  0  0
   40.5380   25.9650   43.6290 C   0  0  0  0  0  0  0  0  0  0  0  0
   39.5740   25.0830   43.2010 C   0  0  0  0  0  0  0  0  0  0  0  0
   38.9750   28.8390   42.8440 H   0  0  0  0  0  0  0  0  0  0  0  0
   41.0470   28.0480   43.8200 H   0  0  0  0  0  0  0  0  0  0  0  0
   41.4490   25.5980   44.0560 H   0  0  0  0  0  0  0  0  0  0  0  0
   39.7200   23.6860   43.2980 O   0  0  0  0  0  0  0  0  0  0  0  0
   40.2540   23.2910   44.0590 H   0  0  0  0  0  0  0  0  0  0  0  0
  1  6  1  0  0  0  0
  1 26  1  0  0  0  0
  2  1  2  0  0  0  0
  3  4  2  0  0  0  0
  3  2  1  0  0  0  0
  4  5  1  0  0  0  0
  5  6  2  0  0  0  0
  5  9  1  0  0  0  0
  7  2  1  0  0  0  0
  8  3  1  0  0  0  0
  9 12  1  1  0  0  0
 10  9  1  0  0  0  0
 10 13  1  0  0  0  0
 11 15  1  6  0  0  0
 11 10  1  0  0  0  0
 11 16  1  0  0  0  0
 11  9  1  0  0  0  0
 14 10  1  0  0  0  0
 16 17  1  0  0  0  0
 17 19  1  0  0  0  0
 18 17  1  0  0  0  0
 19 21  1  0  0  0  0
 19 20  1  0  0  0  0
 22 21  1  0  0  0  0
 23 22  1  0  0  0  0
 24 22  1  0  0  0  0
 24 16  1  0  0  0  0
 25 24  1  0  0  0  0
 26 29  1  0  0  0  0
 27 26  1  0  0  0  0
 28 26  1  0  0  0  0
 29 30  1  0  0  0  0
 29 31  1  0  0  0  0
 29 34  1  0  0  0  0
 32 33  1  0  0  0  0
 33 38  1  0  0  0  0
 34 33  2  0  0  0  0
 34 35  1  0  0  0  0
 35 36  2  0  0  0  0
 36 37  1  0  0  0  0
 36 40  1  0  0  0  0
 37 41  1  0  0  0  0
 38 42  1  0  0  0  0
 38 37  2  0  0  0  0
 39 35  1  0  0  0  0
 42 43  1  0  0  0  0
M  END
>  <minimizedAffinity>
-6.2475152

$$$$

 OpenBabel03242519183D

 43 46  0  0  1  0  0  0  0  0999 V2000
   36.4950   26.0070   38.8910 C   0  0  0  0  0  0  0  0  0  0  0  0
   35.9200   24.7640   38.7470 C   0  0  0  0  0  0  0  0  0  0  0  0
   35.8660   23.8270   39.7870 C   0  0  0  0  0  0  0  0  0  0  0  0
   36.4210   24.2290   40.9570 N   0  0  0  0  0  0  0  0  0  0  0  0
   36.9800   25.4410   41.0910 C   0  0  0  0  0  0  0  0  0  0  0  0
   37.0140   26.3110   40.0730 N   0  0  0  0  0  0  0  0  0  0  0  0
   35.4990   24.5220   37.7800 H   0  0  0  0  0  0  0  0  0  0  0  0
   35.4150   22.8690   39.6510 H   0  0  0  0  0  0  0  0  0  0  0  0
   37.5710   25.8940   42.3930 C   0  0  2  0  0  0  0  0  0  0  0  0
   37.1380   27.2120   42.9550 C   0  0  0  0  0  0  0  0  0  0  0  0
   38.5230   27.0310   42.3310 C   0  0  1  0  0  0  0  0  0  0  0  0
   37.7630   25.0580   43.0860 H   0  0  0  0  0  0  0  0  0  0  0  0
   37.0370   27.3470   44.0380 H   0  0  0  0  0  0  0  0  0  0  0  0
   36.3840   27.7910   42.3530 H   0  0  0  0  0  0  0  0  0  0  0  0
   38.6260   27.5230   41.3300 H   0  0  0  0  0  0  0  0  0  0  0  0
   39.6730   27.2060   43.2270 C   0  0  0  0  0  3  0  0  0  0  0  0
   40.1930   25.8470   43.6600 C   0  0  0  0  0  3  0  0  0  0  0  0
   39.9910   25.0490   42.9160 H   0  0  0  0  0  0  0  0  0  0  0  0
   41.6960   25.9880   43.9510 C   0  0  0  0  0  3  0  0  0  0  0  0
   42.0760   25.0970   44.4570 H   0  0  0  0  0  0  0  0  0  0  0  0
   41.8630   27.1810   44.6300 O   0  0  0  0  0  0  0  0  0  0  0  0
   41.9120   28.2090   43.6770 C   0  0  0  0  0  3  0  0  0  0  0  0
   42.9110   28.1460   43.2000 H   0  0  0  0  0  0  0  0  0  0  0  0
   40.7800   28.0660   42.6740 C   0  0  0  0  0  3  0  0  0  0  0  0
   40.3660   29.0740   42.4910 H   0  0  0  0  0  0  0  0  0  0  0  0
   36.5330   26.9660   37.8090 C   0  0  0  0  0  0  0  0  0  0  0  0
   37.5360   27.3670   37.6570 H   0  0  0  0  0  0  0  0  0  0  0  0
   36.2660   26.4300   36.8600 H   0  0  0  0  0  0  0  0  0  0  0  0
   35.5670   28.0600   38.0280 C   0  0  0  0  0  0  0  0  0  0  0  0
   34.8370   28.1430   37.1900 H   0  0  0  0  0  0  0  0  0  0  0  0
   34.9440   27.9200   38.9380 H   0  0  0  0  0  0  0  0  0  0  0  0
   35.2540   29.3530   40.6790 Cl  0  0  0  0  0  0  0  0  0  0  0  0
   36.1300   30.0960   39.3760 C   0  0  0  0  0  0  0  0  0  0  0  0
   36.2060   29.4050   38.1970 C   0  0  0  0  0  0  0  0  0  0  0  0
   36.8990   29.9910   37.1500 C   0  0  0  0  0  0  0  0  0  0  0  0
   37.4910   31.2270   37.2930 C   0  0  0  0  0  0  0  0  0  0  0  0
   37.4020   31.9180   38.5070 C   0  0  0  0  0  0  0  0  0  0  0  0
   36.7130   31.3270   39.5390 C   0  0  0  0  0  0  0  0  0  0  0  0
   37.0030   29.5110   36.1920 H   0  0  0  0  0  0  0  0  0  0  0  0
   38.0370   31.6850   36.4650 H   0  0  0  0  0  0  0  0  0  0  0  0
   37.8540   32.8790   38.6460 H   0  0  0  0  0  0  0  0  0  0  0  0
   36.5610   31.9330   40.8020 O   0  0  0  0  0  0  0  0  0  0  0  0
   36.5160   32.9390   40.8720 H   0  0  0  0  0  0  0  0  0  0  0  0
  1  6  1  0  0  0  0
  2  1  2  0  0  0  0
  2  3  1  0  0  0  0
  3  4  2  0  0  0  0
  4  5  1  0  0  0  0
  5  9  1  0  0  0  0
  6  5  2  0  0  0  0
  7  2  1  0  0  0  0
  8  3  1  0  0  0  0
  9 10  1  0  0  0  0
  9 12  1  1  0  0  0
 10 13  1  0  0  0  0
 11 15  1  6  0  0  0
 11  9  1  0  0  0  0
 11 10  1  0  0  0  0
 11 16  1  0  0  0  0
 14 10  1  0  0  0  0
 16 17  1  0  0  0  0
 17 19  1  0  0  0  0
 18 17  1  0  0  0  0
 19 20  1  0  0  0  0
 19 21  1  0  0  0  0
 22 21  1  0  0  0  0
 23 22  1  0  0  0  0
 24 16  1  0  0  0  0
 24 22  1  0  0  0  0
 25 24  1  0  0  0  0
 26 29  1  0  0  0  0
 26  1  1  0  0  0  0
 27 26  1  0  0  0  0
 28 26  1  0  0  0  0
 29 34  1  0  0  0  0
 29 31  1  0  0  0  0
 30 29  1  0  0  0  0
 33 38  1  0  0  0  0
 33 32  1  0  0  0  0
 34 33  2  0  0  0  0
 35 36  2  0  0  0  0
 35 34  1  0  0  0  0
 36 37  1  0  0  0  0
 37 41  1  0  0  0  0
 37 38  2  0  0  0  0
 38 42  1  0  0  0  0
 39 35  1  0  0  0  0
 40 36  1  0  0  0  0
 42 43  1  0  0  0  0
M  END
>  <minimizedAffinity>
-6.16387081

$$$$

 OpenBabel03242519183D

 43 46  0  0  1  0  0  0  0  0999 V2000
   40.3760   32.2010   38.6350 C   0  0  0  0  0  0  0  0  0  0  0  0
   41.1380   33.3470   38.5760 C   0  0  0  0  0  0  0  0  0  0  0  0
   41.8190   33.8640   39.6840 C   0  0  0  0  0  0  0  0  0  0  0  0
   41.6800   33.1550   40.8320 N   0  0  0  0  0  0  0  0  0  0  0  0
   40.9360   32.0400   40.8830 C   0  0  0  0  0  0  0  0  0  0  0  0
   40.2970   31.5750   39.8020 N   0  0  0  0  0  0  0  0  0  0  0  0
   41.1970   33.8530   37.6200 H   0  0  0  0  0  0  0  0  0  0  0  0
   42.4040   34.7540   39.6130 H   0  0  0  0  0  0  0  0  0  0  0  0
   40.8020   31.2420   42.1460 C   0  0  2  0  0  0  0  0  0  0  0  0
   41.9230   30.3310   42.5380 C   0  0  0  0  0  0  0  0  0  0  0  0
   40.6040   29.7800   41.9920 C   0  0  1  0  0  0  0  0  0  0  0  0
   40.2580   31.7870   42.9370 H   0  0  0  0  0  0  0  0  0  0  0  0
   42.1800   30.1900   43.5950 H   0  0  0  0  0  0  0  0  0  0  0  0
   42.8090   30.2990   41.8470 H   0  0  0  0  0  0  0  0  0  0  0  0
   40.6880   29.3870   40.9460 H   0  0  0  0  0  0  0  0  0  0  0  0
   39.8150   28.9430   42.9050 C   0  0  0  0  0  3  0  0  0  0  0  0
   38.3730   29.4200   42.9140 C   0  0  0  0  0  3  0  0  0  0  0  0
   38.0730   29.9090   41.9640 H   0  0  0  0  0  0  0  0  0  0  0  0
   37.4800   28.2120   43.2410 C   0  0  0  0  0  3  0  0  0  0  0  0
   36.4590   28.5350   43.4590 H   0  0  0  0  0  0  0  0  0  0  0  0
   38.1130   27.5050   44.2460 O   0  0  0  0  0  0  0  0  0  0  0  0
   39.0740   26.6800   43.6450 C   0  0  0  0  0  3  0  0  0  0  0  0
   38.5180   25.8420   43.1760 H   0  0  0  0  0  0  0  0  0  0  0  0
   39.9020   27.4630   42.6390 C   0  0  0  0  0  3  0  0  0  0  0  0
   40.9560   27.1570   42.7640 H   0  0  0  0  0  0  0  0  0  0  0  0
   39.6860   31.6760   37.4770 C   0  0  0  0  0  0  0  0  0  0  0  0
   40.1620   31.9850   36.5460 H   0  0  0  0  0  0  0  0  0  0  0  0
   39.7620   30.5560   37.5070 H   0  0  0  0  0  0  0  0  0  0  0  0
   38.2620   32.0600   37.4820 C   0  0  0  0  0  0  0  0  0  0  0  0
   38.1060   33.0710   37.9230 H   0  0  0  0  0  0  0  0  0  0  0  0
   37.8200   32.1210   36.4630 H   0  0  0  0  0  0  0  0  0  0  0  0
   37.2610   32.9800   40.1170 Cl  0  0  0  0  0  0  0  0  0  0  0  0
   36.8580   31.4240   39.4580 C   0  0  0  0  0  0  0  0  0  0  0  0
   37.3810   31.1080   38.2330 C   0  0  0  0  0  0  0  0  0  0  0  0
   37.0690   29.8680   37.6990 C   0  0  0  0  0  0  0  0  0  0  0  0
   36.2600   28.9860   38.3800 C   0  0  0  0  0  0  0  0  0  0  0  0
   35.7340   29.3270   39.6320 C   0  0  0  0  0  0  0  0  0  0  0  0
   36.0500   30.5600   40.1520 C   0  0  0  0  0  0  0  0  0  0  0  0
   37.4410   29.5460   36.7410 H   0  0  0  0  0  0  0  0  0  0  0  0
   36.0160   28.0080   37.9560 H   0  0  0  0  0  0  0  0  0  0  0  0
   35.1020   28.6600   40.1820 H   0  0  0  0  0  0  0  0  0  0  0  0
   35.5770   31.0070   41.4010 O   0  0  0  0  0  0  0  0  0  0  0  0
   35.4120   30.3390   42.1410 H   0  0  0  0  0  0  0  0  0  0  0  0
  1  6  1  0  0  0  0
  2  1  2  0  0  0  0
  2  3  1  0  0  0  0
  3  4  2  0  0  0  0
  4  5  1  0  0  0  0
  5  9  1  0  0  0  0
  6  5  2  0  0  0  0
  7  2  1  0  0  0  0
  8  3  1  0  0  0  0
  9 10  1  0  0  0  0
  9 12  1  1  0  0  0
 10 13  1  0  0  0  0
 11 15  1  6  0  0  0
 11  9  1  0  0  0  0
 11 10  1  0  0  0  0
 11 16  1  0  0  0  0
 14 10  1  0  0  0  0
 16 17  1  0  0  0  0
 17 19  1  0  0  0  0
 18 17  1  0  0  0  0
 19 20  1  0  0  0  0
 19 21  1  0  0  0  0
 22 21  1  0  0  0  0
 23 22  1  0  0  0  0
 24 25  1  0  0  0  0
 24 16  1  0  0  0  0
 24 22  1  0  0  0  0
 26 29  1  0  0  0  0
 26 28  1  0  0  0  0
 26  1  1  0  0  0  0
 27 26  1  0  0  0  0
 29 30  1  0  0  0  0
 29 34  1  0  0  0  0
 31 29  1  0  0  0  0
 33 32  1  0  0  0  0
 33 38  1  0  0  0  0
 34 33  2  0  0  0  0
 35 34  1  0  0  0  0
 35 36  2  0  0  0  0
 36 37  1  0  0  0  0
 37 38  2  0  0  0  0
 37 41  1  0  0  0  0
 38 42  1  0  0  0  0
 39 35  1  0  0  0  0
 40 36  1  0  0  0  0
 42 43  1  0  0  0  0
M  END
>  <minimizedAffinity>
-6.02877235

$$$$

 OpenBabel03242519183D

 43 46  0  0  1  0  0  0  0  0999 V2000
   37.3760   29.4600   39.0090 C   0  0  0  0  0  0  0  0  0  0  0  0
   36.0680   29.8930   38.9970 C   0  0  0  0  0  0  0  0  0  0  0  0
   35.1290   29.5010   39.9590 C   0  0  0  0  0  0  0  0  0  0  0  0
   35.5970   28.6590   40.9140 N   0  0  0  0  0  0  0  0  0  0  0  0
   36.8710   28.2400   40.9200 C   0  0  0  0  0  0  0  0  0  0  0  0
   37.7410   28.6360   39.9820 N   0  0  0  0  0  0  0  0  0  0  0  0
   35.7770   30.5640   38.2000 H   0  0  0  0  0  0  0  0  0  0  0  0
   34.1210   29.8500   39.9280 H   0  0  0  0  0  0  0  0  0  0  0  0
   37.3930   27.3290   41.9910 C   0  0  2  0  0  0  0  0  0  0  0  0
   37.1950   27.7200   43.4220 C   0  0  0  0  0  0  0  0  0  0  0  0
   38.5700   27.8100   42.7580 C   0  0  1  0  0  0  0  0  0  0  0  0
   37.3190   26.2630   41.7160 H   0  0  0  0  0  0  0  0  0  0  0  0
   37.0030   26.9560   44.1840 H   0  0  0  0  0  0  0  0  0  0  0  0
   36.6590   28.6910   43.6070 H   0  0  0  0  0  0  0  0  0  0  0  0
   38.8910   28.8620   42.5430 H   0  0  0  0  0  0  0  0  0  0  0  0
   39.6210   26.9420   43.3050 C   0  0  0  0  0  3  0  0  0  0  0  0
   39.8700   25.7840   42.3560 C   0  0  0  0  0  3  0  0  0  0  0  0
   39.6360   26.0310   41.3000 H   0  0  0  0  0  0  0  0  0  0  0  0
   41.3330   25.3410   42.5270 C   0  0  0  0  0  3  0  0  0  0  0  0
   41.5090   24.3890   42.0220 H   0  0  0  0  0  0  0  0  0  0  0  0
   41.6010   25.3590   43.8830 O   0  0  0  0  0  0  0  0  0  0  0  0
   41.9190   26.6780   44.2370 C   0  0  0  0  0  3  0  0  0  0  0  0
   42.9460   26.8640   43.8600 H   0  0  0  0  0  0  0  0  0  0  0  0
   40.9040   27.6490   43.6570 C   0  0  0  0  0  3  0  0  0  0  0  0
   40.6750   28.3980   44.4370 H   0  0  0  0  0  0  0  0  0  0  0  0
   38.3350   29.8830   38.0130 C   0  0  0  0  0  0  0  0  0  0  0  0
   39.3410   29.5280   38.2410 H   0  0  0  0  0  0  0  0  0  0  0  0
   38.0530   29.4080   37.0350 H   0  0  0  0  0  0  0  0  0  0  0  0
   38.3290   31.3500   37.8520 C   0  0  0  0  0  0  0  0  0  0  0  0
   38.6640   31.6570   36.8340 H   0  0  0  0  0  0  0  0  0  0  0  0
   37.3190   31.8010   37.9690 H   0  0  0  0  0  0  0  0  0  0  0  0
   36.9850   33.3490   39.5820 Cl  0  0  0  0  0  0  0  0  0  0  0  0
   38.6860   33.0120   39.6930 C   0  0  0  0  0  0  0  0  0  0  0  0
   39.1950   32.0690   38.8400 C   0  0  0  0  0  0  0  0  0  0  0  0
   40.5510   31.7950   38.9190 C   0  0  0  0  0  0  0  0  0  0  0  0
   41.3570   32.4500   39.8240 C   0  0  0  0  0  0  0  0  0  0  0  0
   40.8170   33.4110   40.6880 C   0  0  0  0  0  0  0  0  0  0  0  0
   39.4710   33.6740   40.6020 C   0  0  0  0  0  0  0  0  0  0  0  0
   41.0260   31.0670   38.2830 H   0  0  0  0  0  0  0  0  0  0  0  0
   42.4270   32.2300   39.8830 H   0  0  0  0  0  0  0  0  0  0  0  0
   41.4210   33.9330   41.4020 H   0  0  0  0  0  0  0  0  0  0  0  0
   38.8240   34.6200   41.4210 O   0  0  0  0  0  0  0  0  0  0  0  0
   39.3280   35.4360   41.7370 H   0  0  0  0  0  0  0  0  0  0  0  0
  1  6  1  0  0  0  0
  2  1  2  0  0  0  0
  2  3  1  0  0  0  0
  3  4  2  0  0  0  0
  4  5  1  0  0  0  0
  5  9  1  0  0  0  0
  6  5  2  0  0  0  0
  7  2  1  0  0  0  0
  8  3  1  0  0  0  0
  9 12  1  6  0  0  0
  9 11  1  0  0  0  0
  9 10  1  0  0  0  0
 10 14  1  0  0  0  0
 10 13  1  0  0  0  0
 11 15  1  6  0  0  0
 11 16  1  0  0  0  0
 11 10  1  0  0  0  0
 16 24  1  0  0  0  0
 17 19  1  0  0  0  0
 17 16  1  0  0  0  0
 18 17  1  0  0  0  0
 19 21  1  0  0  0  0
 20 19  1  0  0  0  0
 21 22  1  0  0  0  0
 23 22  1  0  0  0  0
 24 22  1  0  0  0  0
 24 25  1  0  0  0  0
 26 27  1  0  0  0  0
 26  1  1  0  0  0  0
 28 26  1  0  0  0  0
 29 31  1  0  0  0  0
 29 26  1  0  0  0  0
 29 34  1  0  0  0  0
 30 29  1  0  0  0  0
 32 33  1  0  0  0  0
 33 38  1  0  0  0  0
 34 35  1  0  0  0  0
 34 33  2  0  0  0  0
 35 36  2  0  0  0  0
 36 40  1  0  0  0  0
 36 37  1  0  0  0  0
 37 41  1  0  0  0  0
 38 37  2  0  0  0  0
 38 42  1  0  0  0  0
 39 35  1  0  0  0  0
 42 43  1  0  0  0  0
M  END
>  <minimizedAffinity>
-6.00747967

$$$$

 OpenBabel03242519183D

 43 46  0  0  1  0  0  0  0  0999 V2000
   37.5340   27.1570   36.7230 C   0  0  0  0  0  0  0  0  0  0  0  0
   37.4540   26.1540   35.7820 C   0  0  0  0  0  0  0  0  0  0  0  0
   37.4760   24.7950   36.1170 C   0  0  0  0  0  0  0  0  0  0  0  0
   37.5830   24.5270   37.4430 N   0  0  0  0  0  0  0  0  0  0  0  0
   37.6610   25.5080   38.3540 C   0  0  0  0  0  0  0  0  0  0  0  0
   37.6370   26.7980   37.9960 N   0  0  0  0  0  0  0  0  0  0  0  0
   37.3710   26.4540   34.7460 H   0  0  0  0  0  0  0  0  0  0  0  0
   37.4130   24.0360   35.3700 H   0  0  0  0  0  0  0  0  0  0  0  0
   37.7530   25.2110   39.8220 C   0  0  2  0  0  0  0  0  0  0  0  0
   36.5590   24.6260   40.5090 C   0  0  0  0  0  0  0  0  0  0  0  0
   36.9660   26.0840   40.7270 C   0  0  1  0  0  0  0  0  0  0  0  0
   38.7590   24.8750   40.1250 H   0  0  0  0  0  0  0  0  0  0  0  0
   36.6870   23.8940   41.3150 H   0  0  0  0  0  0  0  0  0  0  0  0
   35.6520   24.4440   39.8700 H   0  0  0  0  0  0  0  0  0  0  0  0
   36.2830   26.8150   40.2230 H   0  0  0  0  0  0  0  0  0  0  0  0
   37.3710   26.4550   42.0890 C   0  0  0  0  0  3  0  0  0  0  0  0
   38.8790   26.6180   42.1450 C   0  0  0  0  0  3  0  0  0  0  0  0
   39.3190   26.9160   41.1710 H   0  0  0  0  0  0  0  0  0  0  0  0
   39.2020   27.6370   43.2510 C   0  0  0  0  0  3  0  0  0  0  0  0
   40.2720   27.6410   43.4710 H   0  0  0  0  0  0  0  0  0  0  0  0
   38.3710   27.3480   44.3180 O   0  0  0  0  0  0  0  0  0  0  0  0
   37.1320   27.9540   44.0680 C   0  0  0  0  0  3  0  0  0  0  0  0
   37.2710   29.0390   44.2530 H   0  0  0  0  0  0  0  0  0  0  0  0
   36.6670   27.6630   42.6510 C   0  0  0  0  0  3  0  0  0  0  0  0
   35.5860   27.4360   42.6940 H   0  0  0  0  0  0  0  0  0  0  0  0
   37.4990   28.5570   36.3600 C   0  0  0  0  0  0  0  0  0  0  0  0
   38.4090   29.0770   36.6630 H   0  0  0  0  0  0  0  0  0  0  0  0
   37.4620   28.6240   35.2400 H   0  0  0  0  0  0  0  0  0  0  0  0
   36.3100   29.2260   36.9200 C   0  0  0  0  0  0  0  0  0  0  0  0
   35.7210   29.7520   36.1340 H   0  0  0  0  0  0  0  0  0  0  0  0
   35.5910   28.5210   37.3930 H   0  0  0  0  0  0  0  0  0  0  0  0
   34.9560   28.8610   39.5340 Cl  0  0  0  0  0  0  0  0  0  0  0  0
   36.0640   30.1640   39.2310 C   0  0  0  0  0  0  0  0  0  0  0  0
   36.6270   30.2320   37.9850 C   0  0  0  0  0  0  0  0  0  0  0  0
   37.5100   31.2690   37.7320 C   0  0  0  0  0  0  0  0  0  0  0  0
   37.8100   32.1990   38.7030 C   0  0  0  0  0  0  0  0  0  0  0  0
   37.2240   32.1130   39.9720 C   0  0  0  0  0  0  0  0  0  0  0  0
   36.3500   31.0790   40.2120 C   0  0  0  0  0  0  0  0  0  0  0  0
   37.9940   31.3900   36.7770 H   0  0  0  0  0  0  0  0  0  0  0  0
   38.5080   33.0160   38.4990 H   0  0  0  0  0  0  0  0  0  0  0  0
   37.4410   32.8210   40.7450 H   0  0  0  0  0  0  0  0  0  0  0  0
   35.7040   30.8970   41.4500 O   0  0  0  0  0  0  0  0  0  0  0  0
   35.4720   31.7000   42.0160 H   0  0  0  0  0  0  0  0  0  0  0  0
  1  6  1  0  0  0  0
  2  3  1  0  0  0  0
  2  1  2  0  0  0  0
  3  4  2  0  0  0  0
  4  5  1  0  0  0  0
  5  9  1  0  0  0  0
  6  5  2  0  0  0  0
  7  2  1  0  0  0  0
  8  3  1  0  0  0  0
  9 12  1  1  0  0  0
  9 10  1  0  0  0  0
  9 11  1  0  0  0  0
 10 11  1  0  0  0  0
 10 13  1  0  0  0  0
 11 15  1  6  0  0  0
 11 16  1  0  0  0  0
 14 10  1  0  0  0  0
 16 17  1  0  0  0  0
 16 24  1  0  0  0  0
 17 19  1  0  0  0  0
 18 17  1  0  0  0  0
 19 20  1  0  0  0  0
 19 21  1  0  0  0  0
 22 23  1  0  0  0  0
 22 21  1  0  0  0  0
 24 25  1  0  0  0  0
 24 22  1  0  0  0  0
 26 27  1  0  0  0  0
 26  1  1  0  0  0  0
 26 29  1  0  0  0  0
 28 26  1  0  0  0  0
 29 31  1  0  0  0  0
 29 34  1  0  0  0  0
 30 29  1  0  0  0  0
 33 32  1  0  0  0  0
 33 38  1  0  0  0  0
 34 33  2  0  0  0  0
 35 34  1  0  0  0  0
 35 36  2  0  0  0  0
 36 37  1  0  0  0  0
 37 38  2  0  0  0  0
 37 41  1  0  0  0  0
 38 42  1  0  0  0  0
 39 35  1  0  0  0  0
 40 36  1  0  0  0  0
 42 43  1  0  0  0  0
M  END
>  <minimizedAffinity>
-5.99607563

$$$$

 OpenBabel03242519183D

 43 46  0  0  1  0  0  0  0  0999 V2000
   36.8000   29.6720   40.9160 C   0  0  0  0  0  0  0  0  0  0  0  0
   36.2550   29.6180   39.6520 C   0  0  0  0  0  0  0  0  0  0  0  0
   36.5590   30.5500   38.6520 C   0  0  0  0  0  0  0  0  0  0  0  0
   37.4380   31.5190   39.0130 N   0  0  0  0  0  0  0  0  0  0  0  0
   37.9660   31.5670   40.2450 C   0  0  0  0  0  0  0  0  0  0  0  0
   37.6500   30.6570   41.1760 N   0  0  0  0  0  0  0  0  0  0  0  0
   35.5620   28.8120   39.4460 H   0  0  0  0  0  0  0  0  0  0  0  0
   36.1230   30.4870   37.6810 H   0  0  0  0  0  0  0  0  0  0  0  0
   38.9560   32.6230   40.6350 C   0  0  2  0  0  0  0  0  0  0  0  0
   38.6460   34.0500   40.3050 C   0  0  0  0  0  0  0  0  0  0  0  0
   39.7100   33.2680   39.5310 C   0  0  1  0  0  0  0  0  0  0  0  0
   39.4670   32.3960   41.5860 H   0  0  0  0  0  0  0  0  0  0  0  0
   38.9460   34.8540   40.9870 H   0  0  0  0  0  0  0  0  0  0  0  0
   37.6740   34.2420   39.7730 H   0  0  0  0  0  0  0  0  0  0  0  0
   39.3880   32.9870   38.4950 H   0  0  0  0  0  0  0  0  0  0  0  0
   41.0900   33.7570   39.6380 C   0  0  0  0  0  3  0  0  0  0  0  0
   41.8420   32.9380   40.6720 C   0  0  0  0  0  3  0  0  0  0  0  0
   41.4470   31.9070   40.7780 H   0  0  0  0  0  0  0  0  0  0  0  0
   43.3310   32.9410   40.2840 C   0  0  0  0  0  3  0  0  0  0  0  0
   43.9410   32.5420   41.0970 H   0  0  0  0  0  0  0  0  0  0  0  0
   43.6370   34.2280   39.8800 O   0  0  0  0  0  0  0  0  0  0  0  0
   43.2470   34.3560   38.5380 C   0  0  0  0  0  3  0  0  0  0  0  0
   44.0030   33.8080   37.9400 H   0  0  0  0  0  0  0  0  0  0  0  0
   41.8420   33.8170   38.3330 C   0  0  0  0  0  3  0  0  0  0  0  0
   41.3080   34.5200   37.6670 H   0  0  0  0  0  0  0  0  0  0  0  0
   36.4820   28.6950   41.9340 C   0  0  0  0  0  0  0  0  0  0  0  0
   35.8650   29.1210   42.7260 H   0  0  0  0  0  0  0  0  0  0  0  0
   35.8640   27.8870   41.4580 H   0  0  0  0  0  0  0  0  0  0  0  0
   37.7050   28.0920   42.4980 C   0  0  0  0  0  0  0  0  0  0  0  0
   38.6270   28.5730   42.0990 H   0  0  0  0  0  0  0  0  0  0  0  0
   37.7790   28.2020   43.6020 H   0  0  0  0  0  0  0  0  0  0  0  0
   39.8880   26.6770   43.9220 Cl  0  0  0  0  0  0  0  0  0  0  0  0
   38.7940   25.8620   42.8470 C   0  0  0  0  0  0  0  0  0  0  0  0
   37.8260   26.6200   42.2440 C   0  0  0  0  0  0  0  0  0  0  0  0
   36.9490   25.9800   41.3830 C   0  0  0  0  0  0  0  0  0  0  0  0
   37.0510   24.6280   41.1420 C   0  0  0  0  0  0  0  0  0  0  0  0
   38.0470   23.8690   41.7680 C   0  0  0  0  0  0  0  0  0  0  0  0
   38.9110   24.5140   42.6210 C   0  0  0  0  0  0  0  0  0  0  0  0
   36.1620   26.5070   40.8710 H   0  0  0  0  0  0  0  0  0  0  0  0
   36.3570   24.1270   40.4610 H   0  0  0  0  0  0  0  0  0  0  0  0
   38.1470   22.8160   41.6000 H   0  0  0  0  0  0  0  0  0  0  0  0
   39.9490   23.8500   43.3040 O   0  0  0  0  0  0  0  0  0  0  0  0
   40.3980   23.0530   42.8770 H   0  0  0  0  0  0  0  0  0  0  0  0
  1  6  1  0  0  0  0
  1 26  1  0  0  0  0
  2  1  2  0  0  0  0
  3  4  2  0  0  0  0
  3  2  1  0  0  0  0
  4  5  1  0  0  0  0
  5  9  1  0  0  0  0
  5  6  2  0  0  0  0
  7  2  1  0  0  0  0
  8  3  1  0  0  0  0
  9 12  1  1  0  0  0
 10  9  1  0  0  0  0
 10 13  1  0  0  0  0
 11 15  1  6  0  0  0
 11 16  1  0  0  0  0
 11 10  1  0  0  0  0
 11  9  1  0  0  0  0
 14 10  1  0  0  0  0
 16 17  1  0  0  0  0
 17 18  1  0  0  0  0
 19 17  1  0  0  0  0
 19 20  1  0  0  0  0
 21 19  1  0  0  0  0
 22 21  1  0  0  0  0
 23 22  1  0  0  0  0
 24 22  1  0  0  0  0
 24 16  1  0  0  0  0
 25 24  1  0  0  0  0
 26 29  1  0  0  0  0
 26 27  1  0  0  0  0
 28 26  1  0  0  0  0
 29 31  1  0  0  0  0
 30 29  1  0  0  0  0
 33 32  1  0  0  0  0
 34 29  1  0  0  0  0
 34 33  2  0  0  0  0
 35 34  1  0  0  0  0
 36 35  2  0  0  0  0
 36 37  1  0  0  0  0
 37 38  2  0  0  0  0
 38 33  1  0  0  0  0
 38 42  1  0  0  0  0
 39 35  1  0  0  0  0
 40 36  1  0  0  0  0
 41 37  1  0  0  0  0
 43 42  1  0  0  0  0
M  END
>  <minimizedAffinity>
-5.97297144

$$$$

 OpenBabel03242519183D

 43 46  0  0  1  0  0  0  0  0999 V2000
   38.2100   29.8450   41.8140 C   0  0  0  0  0  0  0  0  0  0  0  0
   39.3270   30.4770   42.3130 C   0  0  0  0  0  0  0  0  0  0  0  0
   40.2360   31.1680   41.5020 C   0  0  0  0  0  0  0  0  0  0  0  0
   39.9400   31.1750   40.1770 N   0  0  0  0  0  0  0  0  0  0  0  0
   38.8500   30.5570   39.6970 C   0  0  0  0  0  0  0  0  0  0  0  0
   38.0040   29.9050   40.5040 N   0  0  0  0  0  0  0  0  0  0  0  0
   39.4900   30.4240   43.3820 H   0  0  0  0  0  0  0  0  0  0  0  0
   41.0950   31.6490   41.9120 H   0  0  0  0  0  0  0  0  0  0  0  0
   38.5100   30.5870   38.2370 C   0  0  2  0  0  0  0  0  0  0  0  0
   37.7050   31.7350   37.7140 C   0  0  0  0  0  0  0  0  0  0  0  0
   37.0910   30.3440   37.8790 C   0  0  1  0  0  0  0  0  0  0  0  0
   39.3120   30.1690   37.6050 H   0  0  0  0  0  0  0  0  0  0  0  0
   37.8950   32.1340   36.7100 H   0  0  0  0  0  0  0  0  0  0  0  0
   37.3980   32.5150   38.4630 H   0  0  0  0  0  0  0  0  0  0  0  0
   36.3790   30.2730   38.7410 H   0  0  0  0  0  0  0  0  0  0  0  0
   36.6430   29.6740   36.6510 C   0  0  0  0  0  3  0  0  0  0  0  0
   37.5880   28.5340   36.3190 C   0  0  0  0  0  3  0  0  0  0  0  0
   38.0850   28.1090   37.2150 H   0  0  0  0  0  0  0  0  0  0  0  0
   36.7880   27.4680   35.5510 C   0  0  0  0  0  3  0  0  0  0  0  0
   37.4590   26.7240   35.1130 H   0  0  0  0  0  0  0  0  0  0  0  0
   35.9760   28.1420   34.6580 O   0  0  0  0  0  0  0  0  0  0  0  0
   34.8300   28.5540   35.3550 C   0  0  0  0  0  3  0  0  0  0  0  0
   34.2070   27.6470   35.4970 H   0  0  0  0  0  0  0  0  0  0  0  0
   35.2090   29.2110   36.6720 C   0  0  0  0  0  3  0  0  0  0  0  0
   34.5670   30.1010   36.7980 H   0  0  0  0  0  0  0  0  0  0  0  0
   37.2760   29.1450   42.6680 C   0  0  0  0  0  0  0  0  0  0  0  0
   36.6280   29.8340   43.2110 H   0  0  0  0  0  0  0  0  0  0  0  0
   36.5990   28.5330   42.0140 H   0  0  0  0  0  0  0  0  0  0  0  0
   37.9770   28.2460   43.6040 C   0  0  0  0  0  0  0  0  0  0  0  0
   38.9830   28.6380   43.8810 H   0  0  0  0  0  0  0  0  0  0  0  0
   37.4440   28.1170   44.5720 H   0  0  0  0  0  0  0  0  0  0  0  0
   40.6360   27.0150   44.0660 Cl  0  0  0  0  0  0  0  0  0  0  0  0
   39.3560   26.1870   43.2330 C   0  0  0  0  0  0  0  0  0  0  0  0
   38.1720   26.8570   43.0780 C   0  0  0  0  0  0  0  0  0  0  0  0
   37.1450   26.2060   42.4130 C   0  0  0  0  0  0  0  0  0  0  0  0
   37.3130   24.9290   41.9250 C   0  0  0  0  0  0  0  0  0  0  0  0
   38.5310   24.2590   42.0940 C   0  0  0  0  0  0  0  0  0  0  0  0
   39.5420   24.9140   42.7560 C   0  0  0  0  0  0  0  0  0  0  0  0
   36.1850   26.6660   42.2510 H   0  0  0  0  0  0  0  0  0  0  0  0
   36.5000   24.4180   41.4010 H   0  0  0  0  0  0  0  0  0  0  0  0
   38.6870   23.2660   41.7260 H   0  0  0  0  0  0  0  0  0  0  0  0
   40.8070   24.3370   42.9820 O   0  0  0  0  0  0  0  0  0  0  0  0
   41.1840   23.6810   42.3120 H   0  0  0  0  0  0  0  0  0  0  0  0
  1  2  1  0  0  0  0
  1 26  1  0  0  0  0
  2  7  1  0  0  0  0
  3  8  1  0  0  0  0
  3  2  2  0  0  0  0
  4  3  1  0  0  0  0
  5  4  2  0  0  0  0
  5  6  1  0  0  0  0
  6  1  2  0  0  0  0
  9 12  1  6  0  0  0
  9  5  1  0  0  0  0
 10 11  1  0  0  0  0
 10  9  1  0  0  0  0
 10 14  1  0  0  0  0
 11  9  1  0  0  0  0
 11 15  1  1  0  0  0
 13 10  1  0  0  0  0
 16 24  1  0  0  0  0
 16 11  1  0  0  0  0
 17 16  1  0  0  0  0
 17 18  1  0  0  0  0
 19 17  1  0  0  0  0
 20 19  1  0  0  0  0
 21 22  1  0  0  0  0
 21 19  1  0  0  0  0
 22 23  1  0  0  0  0
 22 24  1  0  0  0  0
 24 25  1  0  0  0  0
 26 27  1  0  0  0  0
 26 29  1  0  0  0  0
 28 26  1  0  0  0  0
 29 30  1  0  0  0  0
 29 31  1  0  0  0  0
 33 32  1  0  0  0  0
 34 33  1  0  0  0  0
 34 29  1  0  0  0  0
 35 34  2  0  0  0  0
 36 37  2  0  0  0  0
 36 35  1  0  0  0  0
 37 38  1  0  0  0  0
 38 42  1  0  0  0  0
 38 33  2  0  0  0  0
 39 35  1  0  0  0  0
 40 36  1  0  0  0  0
 41 37  1  0  0  0  0
 43 42  1  0  0  0  0
M  END
>  <minimizedAffinity>
-5.9660511

$$$$
