
 OpenBabel03252500113D

 32 34  0  0  0  0  0  0  0  0999 V2000
   40.4230   29.8710   39.5670 Cl  0  0  0  0  0  0  0  0  0  0  0  0
   39.2670   31.1620   39.6960 C   0  0  0  0  0  0  0  0  0  0  0  0
   37.9440   30.8970   39.9280 C   0  0  0  0  0  0  0  0  0  0  0  0
   36.9800   31.9090   40.0390 C   0  0  0  0  0  0  0  0  0  0  0  0
   37.4580   33.2080   39.8970 C   0  0  0  0  0  0  0  0  0  0  0  0
   38.7840   33.4760   39.6650 C   0  0  0  0  0  0  0  0  0  0  0  0
   39.6980   32.4700   39.5620 C   0  0  0  0  0  0  0  0  0  0  0  0
   35.9460   31.6620   40.2220 H   0  0  0  0  0  0  0  0  0  0  0  0
   36.6990   33.9730   39.9860 H   0  0  0  0  0  0  0  0  0  0  0  0
   39.0080   34.5270   39.5770 H   0  0  0  0  0  0  0  0  0  0  0  0
   41.1150   32.7880   39.3110 C   0  0  0  0  0  3  0  0  0  0  0  0
   41.3810   33.1210   37.8580 C   0  0  0  0  0  3  0  0  0  0  0  0
   41.7770   32.2030   37.3330 H   0  0  0  0  0  0  0  0  0  0  0  0
   42.4720   34.1610   37.7070 C   0  0  0  0  0  3  0  0  0  0  0  0
   42.9040   34.0460   36.6800 H   0  0  0  0  0  0  0  0  0  0  0  0
   43.4660   33.8010   38.6170 O   0  0  0  0  0  0  0  0  0  0  0  0
   43.0790   34.1160   39.9130 C   0  0  0  0  0  3  0  0  0  0  0  0
   43.4080   35.1420   40.2190 H   0  0  0  0  0  0  0  0  0  0  0  0
   41.5690   34.0020   40.1050 C   0  0  0  0  0  3  0  0  0  0  0  0
   41.0780   34.9160   39.7020 H   0  0  0  0  0  0  0  0  0  0  0  0
   36.7130   27.5200   39.1220 C   0  0  0  0  0  0  0  0  0  0  0  0
   36.7030   26.8850   40.3910 C   0  0  0  0  0  0  0  0  0  0  0  0
   37.1150   27.6290   41.4790 C   0  0  0  0  0  0  0  0  0  0  0  0
   37.5080   28.9150   41.2990 N   0  0  0  0  0  0  0  0  0  0  0  0
   37.5100   29.5050   40.0670 C   0  0  0  0  0  0  0  0  0  0  0  0
   37.1130   28.7990   39.0020 N   0  0  0  0  0  0  0  0  0  0  0  0
   36.3930   26.9530   38.2600 H   0  0  0  0  0  0  0  0  0  0  0  0
   36.3880   25.8610   40.5290 H   0  0  0  0  0  0  0  0  0  0  0  0
   37.1470   27.0690   42.8740 C   0  0  0  0  0  0  0  0  0  0  0  0
   38.1930   27.6060   43.5930 F   0  0  0  0  0  0  0  0  0  0  0  0
   35.9580   27.4040   43.5240 F   0  0  0  0  0  0  0  0  0  0  0  0
   37.2590   25.7100   42.7560 F   0  0  0  0  0  0  0  0  0  0  0  0
  1  2  1  0  0  0  0
  2  3  1  0  0  0  0
  3  4  2  0  0  0  0
  3 25  1  0  0  0  0
  4  8  1  0  0  0  0
  5  9  1  0  0  0  0
  5  4  1  0  0  0  0
  6  5  2  0  0  0  0
  7  6  1  0  0  0  0
  7  2  2  0  0  0  0
 10  6  1  0  0  0  0
 11  7  1  0  0  0  0
 11 19  1  0  0  0  0
 12 11  1  0  0  0  0
 13 12  1  0  0  0  0
 14 12  1  0  0  0  0
 14 16  1  0  0  0  0
 15 14  1  0  0  0  0
 16 17  1  0  0  0  0
 17 19  1  0  0  0  0
 17 18  1  0  0  0  0
 20 19  1  0  0  0  0
 21 22  1  0  0  0  0
 22 28  1  0  0  0  0
 22 23  2  0  0  0  0
 23 29  1  0  0  0  0
 24 23  1  0  0  0  0
 25 24  2  0  0  0  0
 26 21  2  0  0  0  0
 26 25  1  0  0  0  0
 27 21  1  0  0  0  0
 29 31  1  0  0  0  0
 29 30  1  0  0  0  0
 32 29  1  0  0  0  0
M  END
>  <minimizedAffinity>
-5.82200384

$$$$

 OpenBabel03252500113D

 32 34  0  0  0  0  0  0  0  0999 V2000
   37.1480   26.7990   40.0120 Cl  0  0  0  0  0  0  0  0  0  0  0  0
   38.1410   26.8830   41.4350 C   0  0  0  0  0  0  0  0  0  0  0  0
   38.4690   28.0910   41.9910 C   0  0  0  0  0  0  0  0  0  0  0  0
   39.2660   28.2010   43.1390 C   0  0  0  0  0  0  0  0  0  0  0  0
   39.7070   26.9980   43.6790 C   0  0  0  0  0  0  0  0  0  0  0  0
   39.3790   25.7850   43.1240 C   0  0  0  0  0  0  0  0  0  0  0  0
   38.6020   25.7100   42.0080 C   0  0  0  0  0  0  0  0  0  0  0  0
   39.5040   29.1710   43.5490 H   0  0  0  0  0  0  0  0  0  0  0  0
   40.3200   27.1060   44.5630 H   0  0  0  0  0  0  0  0  0  0  0  0
   39.7910   24.9400   43.6500 H   0  0  0  0  0  0  0  0  0  0  0  0
   38.2670   24.3950   41.4320 C   0  0  0  0  0  3  0  0  0  0  0  0
   36.7720   24.1790   41.3220 C   0  0  0  0  0  3  0  0  0  0  0  0
   36.4170   23.5770   42.2090 H   0  0  0  0  0  0  0  0  0  0  0  0
   36.4100   23.3460   40.1100 C   0  0  0  0  0  3  0  0  0  0  0  0
   35.4130   22.8770   40.3130 H   0  0  0  0  0  0  0  0  0  0  0  0
   37.3500   22.3160   40.0650 O   0  0  0  0  0  0  0  0  0  0  0  0
   38.5730   22.7910   39.6110 C   0  0  0  0  0  3  0  0  0  0  0  0
   38.6780   22.7060   38.5000 H   0  0  0  0  0  0  0  0  0  0  0  0
   38.8140   24.2420   40.0230 C   0  0  0  0  0  3  0  0  0  0  0  0
   38.2590   24.9150   39.3320 H   0  0  0  0  0  0  0  0  0  0  0  0
   36.2760   30.9010   41.0640 C   0  0  0  0  0  0  0  0  0  0  0  0
   37.0870   31.6420   40.1670 C   0  0  0  0  0  0  0  0  0  0  0  0
   38.3540   31.1600   39.9080 C   0  0  0  0  0  0  0  0  0  0  0  0
   38.7700   30.0160   40.5090 N   0  0  0  0  0  0  0  0  0  0  0  0
   37.9700   29.3200   41.3690 C   0  0  0  0  0  0  0  0  0  0  0  0
   36.7390   29.7730   41.6320 N   0  0  0  0  0  0  0  0  0  0  0  0
   35.2800   31.2650   41.2790 H   0  0  0  0  0  0  0  0  0  0  0  0
   36.7510   32.5520   39.6910 H   0  0  0  0  0  0  0  0  0  0  0  0
   39.3070   31.8540   38.9750 C   0  0  0  0  0  0  0  0  0  0  0  0
   38.9660   31.6200   37.6610 F   0  0  0  0  0  0  0  0  0  0  0  0
   39.2410   33.2300   39.2010 F   0  0  0  0  0  0  0  0  0  0  0  0
   40.5600   31.3840   39.2640 F   0  0  0  0  0  0  0  0  0  0  0  0
  1  2  1  0  0  0  0
  2  3  2  0  0  0  0
  2  7  1  0  0  0  0
  3  4  1  0  0  0  0
  4  8  1  0  0  0  0
  4  5  2  0  0  0  0
  5  9  1  0  0  0  0
  6 10  1  0  0  0  0
  6  5  1  0  0  0  0
  7  6  2  0  0  0  0
 11  7  1  0  0  0  0
 12 11  1  0  0  0  0
 12 13  1  0  0  0  0
 14 15  1  0  0  0  0
 14 12  1  0  0  0  0
 16 14  1  0  0  0  0
 17 19  1  0  0  0  0
 17 16  1  0  0  0  0
 18 17  1  0  0  0  0
 19 11  1  0  0  0  0
 20 19  1  0  0  0  0
 21 27  1  0  0  0  0
 21 26  1  0  0  0  0
 22 21  2  0  0  0  0
 23 22  1  0  0  0  0
 23 24  2  0  0  0  0
 24 25  1  0  0  0  0
 25 26  2  0  0  0  0
 25  3  1  0  0  0  0
 28 22  1  0  0  0  0
 29 31  1  0  0  0  0
 29 32  1  0  0  0  0
 29 23  1  0  0  0  0
 30 29  1  0  0  0  0
M  END
>  <minimizedAffinity>
-5.626719

$$$$

 OpenBabel03252500113D

 32 34  0  0  0  0  0  0  0  0999 V2000
   40.4550   29.9700   41.2030 Cl  0  0  0  0  0  0  0  0  0  0  0  0
   39.1120   30.8930   40.5990 C   0  0  0  0  0  0  0  0  0  0  0  0
   37.8240   30.4990   40.8420 C   0  0  0  0  0  0  0  0  0  0  0  0
   36.7140   31.2150   40.3730 C   0  0  0  0  0  0  0  0  0  0  0  0
   37.0080   32.3600   39.6400 C   0  0  0  0  0  0  0  0  0  0  0  0
   38.2990   32.7580   39.3950 C   0  0  0  0  0  0  0  0  0  0  0  0
   39.3570   32.0400   39.8640 C   0  0  0  0  0  0  0  0  0  0  0  0
   35.7130   30.8730   40.5850 H   0  0  0  0  0  0  0  0  0  0  0  0
   36.1380   32.8980   39.2880 H   0  0  0  0  0  0  0  0  0  0  0  0
   38.3730   33.6630   38.8140 H   0  0  0  0  0  0  0  0  0  0  0  0
   40.7330   32.4910   39.5850 C   0  0  0  0  0  3  0  0  0  0  0  0
   41.0000   32.6340   38.1000 C   0  0  0  0  0  3  0  0  0  0  0  0
   41.5200   31.7040   37.7260 H   0  0  0  0  0  0  0  0  0  0  0  0
   41.9610   33.7680   37.8070 C   0  0  0  0  0  3  0  0  0  0  0  0
   42.4340   33.5550   36.8140 H   0  0  0  0  0  0  0  0  0  0  0  0
   42.9640   33.6740   38.7730 O   0  0  0  0  0  0  0  0  0  0  0  0
   42.5020   34.1280   40.0010 C   0  0  0  0  0  3  0  0  0  0  0  0
   42.6950   35.2200   40.1510 H   0  0  0  0  0  0  0  0  0  0  0  0
   41.0110   33.8570   40.1900 C   0  0  0  0  0  3  0  0  0  0  0  0
   40.4260   34.6320   39.6470 H   0  0  0  0  0  0  0  0  0  0  0  0
   37.2940   28.2100   43.6800 C   0  0  0  0  0  0  0  0  0  0  0  0
   37.1390   26.9550   43.0380 C   0  0  0  0  0  0  0  0  0  0  0  0
   37.2190   26.9290   41.6600 C   0  0  0  0  0  0  0  0  0  0  0  0
   37.4400   28.0840   40.9820 N   0  0  0  0  0  0  0  0  0  0  0  0
   37.5870   29.2810   41.6230 C   0  0  0  0  0  0  0  0  0  0  0  0
   37.5120   29.3240   42.9580 N   0  0  0  0  0  0  0  0  0  0  0  0
   37.2340   28.2480   44.7580 H   0  0  0  0  0  0  0  0  0  0  0  0
   36.9630   26.0380   43.5830 H   0  0  0  0  0  0  0  0  0  0  0  0
   37.0720   25.6610   40.8660 C   0  0  0  0  0  0  0  0  0  0  0  0
   36.5130   24.6630   41.6330 F   0  0  0  0  0  0  0  0  0  0  0  0
   36.2240   25.9010   39.7830 F   0  0  0  0  0  0  0  0  0  0  0  0
   38.3220   25.3200   40.4250 F   0  0  0  0  0  0  0  0  0  0  0  0
  2  3  1  0  0  0  0
  2  1  1  0  0  0  0
  3 25  1  0  0  0  0
  4  8  1  0  0  0  0
  4  3  2  0  0  0  0
  5  4  1  0  0  0  0
  6  5  2  0  0  0  0
  6  7  1  0  0  0  0
  7  2  2  0  0  0  0
  9  5  1  0  0  0  0
 10  6  1  0  0  0  0
 11  7  1  0  0  0  0
 11 19  1  0  0  0  0
 12 11  1  0  0  0  0
 13 12  1  0  0  0  0
 14 12  1  0  0  0  0
 14 16  1  0  0  0  0
 15 14  1  0  0  0  0
 16 17  1  0  0  0  0
 17 18  1  0  0  0  0
 17 19  1  0  0  0  0
 20 19  1  0  0  0  0
 21 27  1  0  0  0  0
 22 28  1  0  0  0  0
 22 21  1  0  0  0  0
 23 22  2  0  0  0  0
 24 25  2  0  0  0  0
 24 23  1  0  0  0  0
 25 26  1  0  0  0  0
 26 21  2  0  0  0  0
 29 30  1  0  0  0  0
 29 23  1  0  0  0  0
 31 29  1  0  0  0  0
 32 29  1  0  0  0  0
M  END
>  <minimizedAffinity>
-5.61917639

$$$$

 OpenBabel03252500113D

 32 34  0  0  0  0  0  0  0  0999 V2000
   39.1280   27.6770   39.9700 Cl  0  0  0  0  0  0  0  0  0  0  0  0
   38.1660   27.5500   41.4120 C   0  0  0  0  0  0  0  0  0  0  0  0
   38.0980   28.5880   42.3030 C   0  0  0  0  0  0  0  0  0  0  0  0
   37.3350   28.5260   43.4770 C   0  0  0  0  0  0  0  0  0  0  0  0
   36.6460   27.3350   43.6800 C   0  0  0  0  0  0  0  0  0  0  0  0
   36.7110   26.2930   42.7880 C   0  0  0  0  0  0  0  0  0  0  0  0
   37.4630   26.3830   41.6550 C   0  0  0  0  0  0  0  0  0  0  0  0
   37.3050   29.3640   44.1550 H   0  0  0  0  0  0  0  0  0  0  0  0
   36.0630   27.3080   44.5900 H   0  0  0  0  0  0  0  0  0  0  0  0
   36.1270   25.4340   43.0760 H   0  0  0  0  0  0  0  0  0  0  0  0
   37.5160   25.2480   40.7160 C   0  0  0  0  0  3  0  0  0  0  0  0
   38.7030   24.3420   40.9750 C   0  0  0  0  0  3  0  0  0  0  0  0
   39.5390   24.6150   40.2670 H   0  0  0  0  0  0  0  0  0  0  0  0
   38.3840   22.8930   40.6700 C   0  0  0  0  0  3  0  0  0  0  0  0
   39.3550   22.3740   40.4650 H   0  0  0  0  0  0  0  0  0  0  0  0
   37.6630   22.9080   39.4760 O   0  0  0  0  0  0  0  0  0  0  0  0
   36.3640   23.3470   39.6950 C   0  0  0  0  0  3  0  0  0  0  0  0
   35.6600   22.5040   39.9130 H   0  0  0  0  0  0  0  0  0  0  0  0
   36.2860   24.3630   40.8320 C   0  0  0  0  0  3  0  0  0  0  0  0
   36.3040   23.8260   41.8060 H   0  0  0  0  0  0  0  0  0  0  0  0
   40.7730   31.1210   42.2790 C   0  0  0  0  0  0  0  0  0  0  0  0
   40.2190   32.1460   41.4700 C   0  0  0  0  0  0  0  0  0  0  0  0
   38.9530   31.9410   40.9600 C   0  0  0  0  0  0  0  0  0  0  0  0
   38.2960   30.7870   41.2440 N   0  0  0  0  0  0  0  0  0  0  0  0
   38.8510   29.8150   42.0260 C   0  0  0  0  0  0  0  0  0  0  0  0
   40.0770   29.9970   42.5300 N   0  0  0  0  0  0  0  0  0  0  0  0
   41.7630   31.2650   42.6870 H   0  0  0  0  0  0  0  0  0  0  0  0
   40.7450   33.0630   41.2470 H   0  0  0  0  0  0  0  0  0  0  0  0
   38.2580   32.9520   40.0910 C   0  0  0  0  0  0  0  0  0  0  0  0
   38.8600   33.0320   38.8540 F   0  0  0  0  0  0  0  0  0  0  0  0
   36.9340   32.5540   39.9020 F   0  0  0  0  0  0  0  0  0  0  0  0
   38.3060   34.1480   40.7550 F   0  0  0  0  0  0  0  0  0  0  0  0
  1  2  1  0  0  0  0
  2  7  2  0  0  0  0
  2  3  1  0  0  0  0
  3  4  2  0  0  0  0
  4  5  1  0  0  0  0
  4  8  1  0  0  0  0
  5  9  1  0  0  0  0
  6 10  1  0  0  0  0
  6  5  2  0  0  0  0
  7  6  1  0  0  0  0
 11 19  1  0  0  0  0
 11 12  1  0  0  0  0
 11  7  1  0  0  0  0
 13 12  1  0  0  0  0
 14 12  1  0  0  0  0
 15 14  1  0  0  0  0
 16 17  1  0  0  0  0
 16 14  1  0  0  0  0
 17 18  1  0  0  0  0
 17 19  1  0  0  0  0
 19 20  1  0  0  0  0
 21 26  1  0  0  0  0
 21 27  1  0  0  0  0
 22 21  2  0  0  0  0
 23 24  2  0  0  0  0
 23 22  1  0  0  0  0
 24 25  1  0  0  0  0
 25  3  1  0  0  0  0
 25 26  2  0  0  0  0
 28 22  1  0  0  0  0
 29 32  1  0  0  0  0
 29 23  1  0  0  0  0
 30 29  1  0  0  0  0
 31 29  1  0  0  0  0
M  END
>  <minimizedAffinity>
-5.57643366

$$$$

 OpenBabel03252500113D

 32 34  0  0  0  0  0  0  0  0999 V2000
   37.9310   28.1630   39.2680 Cl  0  0  0  0  0  0  0  0  0  0  0  0
   37.6620   27.9590   40.9720 C   0  0  0  0  0  0  0  0  0  0  0  0
   37.6660   29.0370   41.8160 C   0  0  0  0  0  0  0  0  0  0  0  0
   37.4530   28.9150   43.1960 C   0  0  0  0  0  0  0  0  0  0  0  0
   37.2350   27.6210   43.6560 C   0  0  0  0  0  0  0  0  0  0  0  0
   37.2290   26.5380   42.8120 C   0  0  0  0  0  0  0  0  0  0  0  0
   37.4400   26.6880   41.4740 C   0  0  0  0  0  0  0  0  0  0  0  0
   37.4630   29.7880   43.8310 H   0  0  0  0  0  0  0  0  0  0  0  0
   37.0730   27.5490   44.7230 H   0  0  0  0  0  0  0  0  0  0  0  0
   37.0480   25.5990   43.3080 H   0  0  0  0  0  0  0  0  0  0  0  0
   37.4300   25.5080   40.5910 C   0  0  0  0  0  3  0  0  0  0  0  0
   38.8070   24.8950   40.4350 C   0  0  0  0  0  3  0  0  0  0  0  0
   39.2720   25.2690   39.4760 H   0  0  0  0  0  0  0  0  0  0  0  0
   38.7400   23.3900   40.2800 C   0  0  0  0  0  3  0  0  0  0  0  0
   39.6770   23.0670   39.7580 H   0  0  0  0  0  0  0  0  0  0  0  0
   37.6770   23.1450   39.4110 O   0  0  0  0  0  0  0  0  0  0  0  0
   36.4630   23.3240   40.0620 C   0  0  0  0  0  3  0  0  0  0  0  0
   36.0830   22.3770   40.5230 H   0  0  0  0  0  0  0  0  0  0  0  0
   36.5440   24.4020   41.1410 C   0  0  0  0  0  3  0  0  0  0  0  0
   37.0090   23.9710   42.0550 H   0  0  0  0  0  0  0  0  0  0  0  0
   37.1060   32.3250   40.2530 C   0  0  0  0  0  0  0  0  0  0  0  0
   38.4090   32.8850   40.2380 C   0  0  0  0  0  0  0  0  0  0  0  0
   39.4350   32.1240   40.7600 C   0  0  0  0  0  0  0  0  0  0  0  0
   39.1660   30.8910   41.2610 N   0  0  0  0  0  0  0  0  0  0  0  0
   37.9020   30.3740   41.2640 C   0  0  0  0  0  0  0  0  0  0  0  0
   36.8950   31.0970   40.7610 N   0  0  0  0  0  0  0  0  0  0  0  0
   36.2900   32.9070   39.8480 H   0  0  0  0  0  0  0  0  0  0  0  0
   38.6180   33.8670   39.8380 H   0  0  0  0  0  0  0  0  0  0  0  0
   40.8590   32.6060   40.8000 C   0  0  0  0  0  0  0  0  0  0  0  0
   41.5250   32.0780   41.8840 F   0  0  0  0  0  0  0  0  0  0  0  0
   41.5130   32.1820   39.6420 F   0  0  0  0  0  0  0  0  0  0  0  0
   40.8160   33.9730   40.8500 F   0  0  0  0  0  0  0  0  0  0  0  0
  1  2  1  0  0  0  0
  2  7  2  0  0  0  0
  2  3  1  0  0  0  0
  3  4  2  0  0  0  0
  4  5  1  0  0  0  0
  4  8  1  0  0  0  0
  5  9  1  0  0  0  0
  6 10  1  0  0  0  0
  6  5  2  0  0  0  0
  7  6  1  0  0  0  0
 11 19  1  0  0  0  0
 11  7  1  0  0  0  0
 12 11  1  0  0  0  0
 13 12  1  0  0  0  0
 14 12  1  0  0  0  0
 15 14  1  0  0  0  0
 16 17  1  0  0  0  0
 16 14  1  0  0  0  0
 17 18  1  0  0  0  0
 17 19  1  0  0  0  0
 19 20  1  0  0  0  0
 21 26  1  0  0  0  0
 22 21  2  0  0  0  0
 22 23  1  0  0  0  0
 23 29  1  0  0  0  0
 23 24  2  0  0  0  0
 24 25  1  0  0  0  0
 25  3  1  0  0  0  0
 26 25  2  0  0  0  0
 27 21  1  0  0  0  0
 28 22  1  0  0  0  0
 29 32  1  0  0  0  0
 29 30  1  0  0  0  0
 31 29  1  0  0  0  0
M  END
>  <minimizedAffinity>
-5.56990194

$$$$

 OpenBabel03252500113D

 32 34  0  0  0  0  0  0  0  0999 V2000
   39.9070   29.3360   41.0700 Cl  0  0  0  0  0  0  0  0  0  0  0  0
   38.2090   29.4690   40.7290 C   0  0  0  0  0  0  0  0  0  0  0  0
   37.6730   30.6480   40.2840 C   0  0  0  0  0  0  0  0  0  0  0  0
   36.3080   30.7960   39.9980 C   0  0  0  0  0  0  0  0  0  0  0  0
   35.5290   29.6620   40.1960 C   0  0  0  0  0  0  0  0  0  0  0  0
   36.0640   28.4780   40.6400 C   0  0  0  0  0  0  0  0  0  0  0  0
   37.3950   28.3650   40.9110 C   0  0  0  0  0  0  0  0  0  0  0  0
   35.9220   31.7420   39.6490 H   0  0  0  0  0  0  0  0  0  0  0  0
   34.4810   29.7970   39.9690 H   0  0  0  0  0  0  0  0  0  0  0  0
   35.3410   27.6850   40.7470 H   0  0  0  0  0  0  0  0  0  0  0  0
   37.9410   27.0810   41.3890 C   0  0  0  0  0  3  0  0  0  0  0  0
   36.9980   26.3740   42.3390 C   0  0  0  0  0  3  0  0  0  0  0  0
   37.3110   26.5910   43.4020 H   0  0  0  0  0  0  0  0  0  0  0  0
   37.0840   24.8670   42.2030 C   0  0  0  0  0  3  0  0  0  0  0  0
   36.7250   24.4240   43.1660 H   0  0  0  0  0  0  0  0  0  0  0  0
   38.4440   24.5750   42.0940 O   0  0  0  0  0  0  0  0  0  0  0  0
   38.9160   24.9080   40.8320 C   0  0  0  0  0  3  0  0  0  0  0  0
   38.8480   24.0540   40.1120 H   0  0  0  0  0  0  0  0  0  0  0  0
   38.1820   26.1110   40.2440 C   0  0  0  0  0  3  0  0  0  0  0  0
   37.2060   25.7770   39.8260 H   0  0  0  0  0  0  0  0  0  0  0  0
   39.2630   33.9410   40.7300 C   0  0  0  0  0  0  0  0  0  0  0  0
   40.2370   33.9550   39.6990 C   0  0  0  0  0  0  0  0  0  0  0  0
   40.3190   32.8420   38.8860 C   0  0  0  0  0  0  0  0  0  0  0  0
   39.4820   31.7950   39.0980 N   0  0  0  0  0  0  0  0  0  0  0  0
   38.5520   31.8050   40.0980 C   0  0  0  0  0  0  0  0  0  0  0  0
   38.4580   32.8750   40.8960 N   0  0  0  0  0  0  0  0  0  0  0  0
   39.1840   34.8040   41.3770 H   0  0  0  0  0  0  0  0  0  0  0  0
   40.9010   34.7910   39.5340 H   0  0  0  0  0  0  0  0  0  0  0  0
   41.3090   32.7370   37.7590 C   0  0  0  0  0  0  0  0  0  0  0  0
   41.7620   33.9840   37.3860 F   0  0  0  0  0  0  0  0  0  0  0  0
   42.4060   31.9890   38.1870 F   0  0  0  0  0  0  0  0  0  0  0  0
   40.6720   32.1020   36.7270 F   0  0  0  0  0  0  0  0  0  0  0  0
  2  7  1  0  0  0  0
  2  1  1  0  0  0  0
  3  2  2  0  0  0  0
  4  5  2  0  0  0  0
  4  3  1  0  0  0  0
  5  6  1  0  0  0  0
  6 10  1  0  0  0  0
  6  7  2  0  0  0  0
  7 11  1  0  0  0  0
  8  4  1  0  0  0  0
  9  5  1  0  0  0  0
 11 12  1  0  0  0  0
 12 13  1  0  0  0  0
 14 12  1  0  0  0  0
 14 15  1  0  0  0  0
 16 14  1  0  0  0  0
 17 16  1  0  0  0  0
 18 17  1  0  0  0  0
 19 17  1  0  0  0  0
 19 11  1  0  0  0  0
 20 19  1  0  0  0  0
 21 26  1  0  0  0  0
 21 27  1  0  0  0  0
 22 21  2  0  0  0  0
 23 24  2  0  0  0  0
 23 22  1  0  0  0  0
 24 25  1  0  0  0  0
 25  3  1  0  0  0  0
 25 26  2  0  0  0  0
 28 22  1  0  0  0  0
 29 31  1  0  0  0  0
 29 23  1  0  0  0  0
 30 29  1  0  0  0  0
 32 29  1  0  0  0  0
M  END
>  <minimizedAffinity>
-5.48435879

$$$$

 OpenBabel03252500113D

 32 34  0  0  0  0  0  0  0  0999 V2000
   38.4210   27.5690   39.3850 Cl  0  0  0  0  0  0  0  0  0  0  0  0
   37.9670   27.8200   41.0440 C   0  0  0  0  0  0  0  0  0  0  0  0
   37.6100   26.7650   41.8400 C   0  0  0  0  0  0  0  0  0  0  0  0
   37.2380   26.9250   43.1820 C   0  0  0  0  0  0  0  0  0  0  0  0
   37.2550   28.2320   43.6560 C   0  0  0  0  0  0  0  0  0  0  0  0
   37.6140   29.2920   42.8600 C   0  0  0  0  0  0  0  0  0  0  0  0
   37.9710   29.1050   41.5580 C   0  0  0  0  0  0  0  0  0  0  0  0
   36.9620   26.0700   43.7800 H   0  0  0  0  0  0  0  0  0  0  0  0
   36.9650   28.3340   44.6930 H   0  0  0  0  0  0  0  0  0  0  0  0
   37.5810   30.2460   43.3610 H   0  0  0  0  0  0  0  0  0  0  0  0
   38.3500   30.2610   40.7260 C   0  0  0  0  0  3  0  0  0  0  0  0
   37.1450   31.0310   40.2280 C   0  0  0  0  0  3  0  0  0  0  0  0
   36.9020   30.7000   39.1760 H   0  0  0  0  0  0  0  0  0  0  0  0
   37.4290   32.5150   40.1190 C   0  0  0  0  0  3  0  0  0  0  0  0
   36.7040   32.9400   39.3770 H   0  0  0  0  0  0  0  0  0  0  0  0
   38.7020   32.6160   39.5590 O   0  0  0  0  0  0  0  0  0  0  0  0
   39.6760   32.3050   40.4990 C   0  0  0  0  0  3  0  0  0  0  0  0
   40.0340   33.2070   41.0570 H   0  0  0  0  0  0  0  0  0  0  0  0
   39.1900   31.2620   41.5030 C   0  0  0  0  0  3  0  0  0  0  0  0
   38.5590   31.7600   42.2730 H   0  0  0  0  0  0  0  0  0  0  0  0
   38.6880   23.3730   40.8920 C   0  0  0  0  0  0  0  0  0  0  0  0
   37.5600   22.8760   40.1910 C   0  0  0  0  0  0  0  0  0  0  0  0
   36.4690   23.7120   40.0640 C   0  0  0  0  0  0  0  0  0  0  0  0
   36.5140   24.9570   40.6050 N   0  0  0  0  0  0  0  0  0  0  0  0
   37.6130   25.4130   41.2760 C   0  0  0  0  0  0  0  0  0  0  0  0
   38.6790   24.6150   41.4080 N   0  0  0  0  0  0  0  0  0  0  0  0
   39.5510   22.7310   41.0000 H   0  0  0  0  0  0  0  0  0  0  0  0
   37.5290   21.8840   39.7620 H   0  0  0  0  0  0  0  0  0  0  0  0
   35.2150   23.3020   39.3430 C   0  0  0  0  0  0  0  0  0  0  0  0
   34.1860   23.0840   40.2340 F   0  0  0  0  0  0  0  0  0  0  0  0
   34.8310   24.3300   38.4810 F   0  0  0  0  0  0  0  0  0  0  0  0
   35.5160   22.1720   38.6320 F   0  0  0  0  0  0  0  0  0  0  0  0
  1  2  1  0  0  0  0
  2  7  2  0  0  0  0
  2  3  1  0  0  0  0
  3  4  2  0  0  0  0
  4  5  1  0  0  0  0
  4  8  1  0  0  0  0
  5  9  1  0  0  0  0
  6 10  1  0  0  0  0
  6  5  2  0  0  0  0
  7  6  1  0  0  0  0
 11 19  1  0  0  0  0
 11  7  1  0  0  0  0
 12 11  1  0  0  0  0
 13 12  1  0  0  0  0
 14 12  1  0  0  0  0
 15 14  1  0  0  0  0
 16 14  1  0  0  0  0
 16 17  1  0  0  0  0
 17 18  1  0  0  0  0
 17 19  1  0  0  0  0
 19 20  1  0  0  0  0
 21 27  1  0  0  0  0
 21 26  1  0  0  0  0
 22 21  2  0  0  0  0
 23 22  1  0  0  0  0
 23 24  2  0  0  0  0
 24 25  1  0  0  0  0
 25 26  2  0  0  0  0
 25  3  1  0  0  0  0
 28 22  1  0  0  0  0
 29 23  1  0  0  0  0
 29 30  1  0  0  0  0
 31 29  1  0  0  0  0
 32 29  1  0  0  0  0
M  END
>  <minimizedAffinity>
-5.3835988

$$$$

 OpenBabel03252500113D

 32 34  0  0  0  0  0  0  0  0999 V2000
   40.0330   28.0310   39.9180 Cl  0  0  0  0  0  0  0  0  0  0  0  0
   39.0520   27.9090   41.3470 C   0  0  0  0  0  0  0  0  0  0  0  0
   37.7380   28.2930   41.3300 C   0  0  0  0  0  0  0  0  0  0  0  0
   36.9130   28.2100   42.4600 C   0  0  0  0  0  0  0  0  0  0  0  0
   37.5190   27.7100   43.6070 C   0  0  0  0  0  0  0  0  0  0  0  0
   38.8360   27.3220   43.6280 C   0  0  0  0  0  0  0  0  0  0  0  0
   39.6130   27.4150   42.5120 C   0  0  0  0  0  0  0  0  0  0  0  0
   35.8810   28.5230   42.4090 H   0  0  0  0  0  0  0  0  0  0  0  0
   36.8650   27.6540   44.4670 H   0  0  0  0  0  0  0  0  0  0  0  0
   39.1680   26.9550   44.5850 H   0  0  0  0  0  0  0  0  0  0  0  0
   41.0250   26.9940   42.5630 C   0  0  0  0  0  3  0  0  0  0  0  0
   41.9590   28.1490   42.8590 C   0  0  0  0  0  3  0  0  0  0  0  0
   42.3930   28.5330   41.8900 H   0  0  0  0  0  0  0  0  0  0  0  0
   43.1550   27.7110   43.6790 C   0  0  0  0  0  3  0  0  0  0  0  0
   43.9740   28.4540   43.4990 H   0  0  0  0  0  0  0  0  0  0  0  0
   43.5680   26.4970   43.1280 O   0  0  0  0  0  0  0  0  0  0  0  0
   42.7020   25.4750   43.4930 C   0  0  0  0  0  3  0  0  0  0  0  0
   43.0210   24.9620   44.4360 H   0  0  0  0  0  0  0  0  0  0  0  0
   41.2670   25.9710   43.6610 C   0  0  0  0  0  3  0  0  0  0  0  0
   41.1620   26.4590   44.6550 H   0  0  0  0  0  0  0  0  0  0  0  0
   35.7050   28.5910   38.2720 C   0  0  0  0  0  0  0  0  0  0  0  0
   36.1190   29.8420   37.7480 C   0  0  0  0  0  0  0  0  0  0  0  0
   37.0760   30.5430   38.4540 C   0  0  0  0  0  0  0  0  0  0  0  0
   37.5780   30.0200   39.6020 N   0  0  0  0  0  0  0  0  0  0  0  0
   37.1640   28.8120   40.0860 C   0  0  0  0  0  0  0  0  0  0  0  0
   36.2370   28.1190   39.4150 N   0  0  0  0  0  0  0  0  0  0  0  0
   34.9570   28.0280   37.7320 H   0  0  0  0  0  0  0  0  0  0  0  0
   35.7160   30.2540   36.8340 H   0  0  0  0  0  0  0  0  0  0  0  0
   37.5960   31.8790   38.0010 C   0  0  0  0  0  0  0  0  0  0  0  0
   38.9560   31.9700   38.2020 F   0  0  0  0  0  0  0  0  0  0  0  0
   37.3500   32.0220   36.6350 F   0  0  0  0  0  0  0  0  0  0  0  0
   36.9160   32.8330   38.7100 F   0  0  0  0  0  0  0  0  0  0  0  0
  1  2  1  0  0  0  0
  2  7  1  0  0  0  0
  3  2  2  0  0  0  0
  3  4  1  0  0  0  0
  4  5  2  0  0  0  0
  5  6  1  0  0  0  0
  5  9  1  0  0  0  0
  6 10  1  0  0  0  0
  7 11  1  0  0  0  0
  7  6  2  0  0  0  0
  8  4  1  0  0  0  0
 11 12  1  0  0  0  0
 11 19  1  0  0  0  0
 12 14  1  0  0  0  0
 13 12  1  0  0  0  0
 15 14  1  0  0  0  0
 16 17  1  0  0  0  0
 16 14  1  0  0  0  0
 17 19  1  0  0  0  0
 17 18  1  0  0  0  0
 19 20  1  0  0  0  0
 21 26  1  0  0  0  0
 22 21  2  0  0  0  0
 22 23  1  0  0  0  0
 23 24  2  0  0  0  0
 24 25  1  0  0  0  0
 25  3  1  0  0  0  0
 26 25  2  0  0  0  0
 27 21  1  0  0  0  0
 28 22  1  0  0  0  0
 29 30  1  0  0  0  0
 29 23  1  0  0  0  0
 29 32  1  0  0  0  0
 31 29  1  0  0  0  0
M  END
>  <minimizedAffinity>
-5.3651228

$$$$

 OpenBabel03252500113D

 32 34  0  0  0  0  0  0  0  0999 V2000
   38.1240   26.4440   39.6400 Cl  0  0  0  0  0  0  0  0  0  0  0  0
   38.8680   26.3520   41.2070 C   0  0  0  0  0  0  0  0  0  0  0  0
   39.4030   27.4670   41.7950 C   0  0  0  0  0  0  0  0  0  0  0  0
   40.0120   27.4360   43.0570 C   0  0  0  0  0  0  0  0  0  0  0  0
   40.0380   26.1920   43.6780 C   0  0  0  0  0  0  0  0  0  0  0  0
   39.5020   25.0720   43.0910 C   0  0  0  0  0  0  0  0  0  0  0  0
   38.9160   25.1340   41.8620 C   0  0  0  0  0  0  0  0  0  0  0  0
   40.4230   28.3360   43.4900 H   0  0  0  0  0  0  0  0  0  0  0  0
   40.5110   26.1890   44.6500 H   0  0  0  0  0  0  0  0  0  0  0  0
   39.5950   24.1790   43.6880 H   0  0  0  0  0  0  0  0  0  0  0  0
   38.3500   23.9160   41.2550 C   0  0  0  0  0  3  0  0  0  0  0  0
   36.8550   24.0240   41.0380 C   0  0  0  0  0  3  0  0  0  0  0  0
   36.3180   23.5180   41.8940 H   0  0  0  0  0  0  0  0  0  0  0  0
   36.4100   23.2760   39.7980 C   0  0  0  0  0  3  0  0  0  0  0  0
   35.3240   23.0330   39.9260 H   0  0  0  0  0  0  0  0  0  0  0  0
   37.1090   22.0690   39.8120 O   0  0  0  0  0  0  0  0  0  0  0  0
   38.4340   22.2690   39.4490 C   0  0  0  0  0  3  0  0  0  0  0  0
   38.5970   22.1550   38.3470 H   0  0  0  0  0  0  0  0  0  0  0  0
   38.9500   23.6380   39.8870 C   0  0  0  0  0  3  0  0  0  0  0  0
   38.6020   24.4090   39.1640 H   0  0  0  0  0  0  0  0  0  0  0  0
   40.3890   30.4590   39.8860 C   0  0  0  0  0  0  0  0  0  0  0  0
   39.1630   31.1600   39.7570 C   0  0  0  0  0  0  0  0  0  0  0  0
   38.0410   30.5910   40.3240 C   0  0  0  0  0  0  0  0  0  0  0  0
   38.1490   29.4030   40.9730 N   0  0  0  0  0  0  0  0  0  0  0  0
   39.3410   28.7470   41.0840 C   0  0  0  0  0  0  0  0  0  0  0  0
   40.4390   29.2850   40.5400 N   0  0  0  0  0  0  0  0  0  0  0  0
   41.2780   30.8910   39.4480 H   0  0  0  0  0  0  0  0  0  0  0  0
   39.0820   32.1050   39.2390 H   0  0  0  0  0  0  0  0  0  0  0  0
   36.6850   31.2360   40.2550 C   0  0  0  0  0  0  0  0  0  0  0  0
   35.9010   30.6300   39.2970 F   0  0  0  0  0  0  0  0  0  0  0  0
   36.0500   31.0880   41.4900 F   0  0  0  0  0  0  0  0  0  0  0  0
   36.8870   32.5610   39.9800 F   0  0  0  0  0  0  0  0  0  0  0  0
  1  2  1  0  0  0  0
  2  3  2  0  0  0  0
  2  7  1  0  0  0  0
  3  4  1  0  0  0  0
  4  8  1  0  0  0  0
  4  5  2  0  0  0  0
  5  9  1  0  0  0  0
  6  5  1  0  0  0  0
  6 10  1  0  0  0  0
  7  6  2  0  0  0  0
 11  7  1  0  0  0  0
 12 11  1  0  0  0  0
 12 13  1  0  0  0  0
 14 16  1  0  0  0  0
 14 15  1  0  0  0  0
 14 12  1  0  0  0  0
 17 16  1  0  0  0  0
 17 19  1  0  0  0  0
 18 17  1  0  0  0  0
 19 11  1  0  0  0  0
 20 19  1  0  0  0  0
 21 26  1  0  0  0  0
 22 21  2  0  0  0  0
 22 23  1  0  0  0  0
 23 24  2  0  0  0  0
 24 25  1  0  0  0  0
 25  3  1  0  0  0  0
 26 25  2  0  0  0  0
 27 21  1  0  0  0  0
 28 22  1  0  0  0  0
 29 23  1  0  0  0  0
 29 31  1  0  0  0  0
 30 29  1  0  0  0  0
 32 29  1  0  0  0  0
M  END
>  <minimizedAffinity>
-5.32120991

$$$$
