
 OpenBabel03242523213D

 38 41  0  0  0  0  0  0  0  0999 V2000
   36.2130   30.1200   41.2370 Cl  0  0  0  0  0  0  0  0  0  0  0  0
   36.4360   28.4790   40.6440 C   0  0  0  0  0  0  0  0  0  0  0  0
   37.0420   27.5880   41.5510 C   0  0  0  0  0  0  0  0  0  0  0  0
   37.1540   26.3280   40.9840 C   0  0  0  0  0  0  0  0  0  0  0  0
   36.7810   25.8920   39.7740 C   0  0  0  0  0  0  0  0  0  0  0  0
   36.2070   26.8150   38.9680 C   0  0  0  0  0  0  0  0  0  0  0  0
   36.0180   28.1150   39.3650 C   0  0  0  0  0  0  0  0  0  0  0  0
   37.6450   25.5120   41.5570 H   0  0  0  0  0  0  0  0  0  0  0  0
   36.8910   24.8950   39.3840 H   0  0  0  0  0  0  0  0  0  0  0  0
   35.8520   26.6040   37.9520 H   0  0  0  0  0  0  0  0  0  0  0  0
   35.3950   29.1770   38.5240 C   0  0  0  0  0  3  0  0  0  0  0  0
   36.0800   29.4130   37.2230 C   0  0  0  0  0  3  0  0  0  0  0  0
   36.9340   28.7210   37.0290 H   0  0  0  0  0  0  0  0  0  0  0  0
   35.1640   29.1580   36.0210 C   0  0  0  0  0  3  0  0  0  0  0  0
   34.4010   29.9570   35.9280 H   0  0  0  0  0  0  0  0  0  0  0  0
   34.5380   27.9510   36.2880 O   0  0  0  0  0  0  0  0  0  0  0  0
   33.4630   28.2980   37.1150 C   0  0  0  0  0  3  0  0  0  0  0  0
   32.8960   29.0690   36.5180 H   0  0  0  0  0  0  0  0  0  0  0  0
   33.9200   28.8380   38.4040 C   0  0  0  0  0  3  0  0  0  0  0  0
   33.6360   28.1200   39.2130 H   0  0  0  0  0  0  0  0  0  0  0  0
   37.4980   27.9010   42.9240 C   0  0  0  0  0  0  0  0  0  0  0  0
   36.4410   27.7560   43.4940 O   0  0  0  0  0  0  0  0  0  0  0  0
   38.9350   28.2120   42.8950 C   0  0  0  0  0  0  0  0  0  0  0  0
   39.9250   27.4120   43.3150 C   0  0  0  0  0  0  0  0  0  0  0  0
   41.1780   27.9870   43.2730 C   0  0  0  0  0  0  0  0  0  0  0  0
   41.3030   29.3080   42.8050 N   0  0  0  0  0  0  0  0  0  0  0  0
   40.2810   30.0230   42.4080 C   0  0  0  0  0  0  0  0  0  0  0  0
   39.0130   29.4840   42.4380 N   0  0  0  0  0  0  0  0  0  0  0  0
   42.1040   27.5120   43.5710 H   0  0  0  0  0  0  0  0  0  0  0  0
   40.5310   31.0260   42.0710 H   0  0  0  0  0  0  0  0  0  0  0  0
   39.8190   26.0410   43.6760 C   0  0  0  0  0  0  0  0  0  0  0  0
   39.5580   24.9680   42.8790 C   0  0  0  0  0  0  0  0  0  0  0  0
   41.0150   25.0930   43.2340 C   0  0  0  0  0  0  0  0  0  0  0  0
   39.4630   25.8830   44.7120 H   0  0  0  0  0  0  0  0  0  0  0  0
   39.3960   25.1010   41.7650 H   0  0  0  0  0  0  0  0  0  0  0  0
   39.1480   23.9710   43.1550 H   0  0  0  0  0  0  0  0  0  0  0  0
   41.4240   24.5360   44.0880 H   0  0  0  0  0  0  0  0  0  0  0  0
   41.7090   25.5880   42.5350 H   0  0  0  0  0  0  0  0  0  0  0  0
  2  1  1  0  0  0  0
  2  3  1  0  0  0  0
  3 21  1  0  0  0  0
  4  3  2  0  0  0  0
  4  8  1  0  0  0  0
  5  4  1  0  0  0  0
  6  7  1  0  0  0  0
  6  5  2  0  0  0  0
  7  2  2  0  0  0  0
  9  5  1  0  0  0  0
 10  6  1  0  0  0  0
 11  7  1  0  0  0  0
 12 11  1  0  0  0  0
 13 12  1  0  0  0  0
 14 16  1  0  0  0  0
 14 12  1  0  0  0  0
 15 14  1  0  0  0  0
 16 17  1  0  0  0  0
 17 19  1  0  0  0  0
 18 17  1  0  0  0  0
 19 11  1  0  0  0  0
 19 20  1  0  0  0  0
 21 22  2  0  0  0  0
 23 21  1  0  0  0  0
 23 24  1  0  0  0  0
 24 31  1  0  0  0  0
 25 24  2  0  0  0  0
 25 29  1  0  0  0  0
 26 25  1  0  0  0  0
 27 28  1  0  0  0  0
 27 26  2  0  0  0  0
 28 23  2  0  0  0  0
 30 27  1  0  0  0  0
 31 34  1  0  0  0  0
 32 36  1  0  0  0  0
 32 33  1  0  0  0  0
 32 31  1  0  0  0  0
 33 31  1  0  0  0  0
 33 37  1  0  0  0  0
 35 32  1  0  0  0  0
 38 33  1  0  0  0  0
M  END
>  <minimizedAffinity>
-5.77169514

$$$$

 OpenBabel03242523213D

 38 41  0  0  0  0  0  0  0  0999 V2000
   35.8440   28.2560   39.5400 Cl  0  0  0  0  0  0  0  0  0  0  0  0
   36.6190   29.6680   38.8350 C   0  0  0  0  0  0  0  0  0  0  0  0
   37.1300   30.6000   39.7610 C   0  0  0  0  0  0  0  0  0  0  0  0
   37.7270   31.6590   39.0950 C   0  0  0  0  0  0  0  0  0  0  0  0
   37.8670   31.8830   37.7820 C   0  0  0  0  0  0  0  0  0  0  0  0
   37.3470   30.9380   36.9660 C   0  0  0  0  0  0  0  0  0  0  0  0
   36.7170   29.8190   37.4520 C   0  0  0  0  0  0  0  0  0  0  0  0
   38.1510   32.5030   39.6810 H   0  0  0  0  0  0  0  0  0  0  0  0
   38.3450   32.7280   37.3170 H   0  0  0  0  0  0  0  0  0  0  0  0
   37.3860   30.9840   35.8710 H   0  0  0  0  0  0  0  0  0  0  0  0
   36.1230   28.7450   36.6070 C   0  0  0  0  0  3  0  0  0  0  0  0
   34.6680   28.9100   36.3340 C   0  0  0  0  0  3  0  0  0  0  0  0
   34.2320   29.8490   36.7520 H   0  0  0  0  0  0  0  0  0  0  0  0
   34.3610   29.0370   34.8370 C   0  0  0  0  0  3  0  0  0  0  0  0
   34.4940   28.0640   34.3220 H   0  0  0  0  0  0  0  0  0  0  0  0
   35.2860   29.9470   34.3510 O   0  0  0  0  0  0  0  0  0  0  0  0
   36.4330   29.1790   34.1160 C   0  0  0  0  0  3  0  0  0  0  0  0
   36.0770   28.3620   33.4240 H   0  0  0  0  0  0  0  0  0  0  0  0
   36.9860   28.6310   35.3640 C   0  0  0  0  0  3  0  0  0  0  0  0
   37.9780   29.1100   35.5540 H   0  0  0  0  0  0  0  0  0  0  0  0
   37.0740   30.5000   41.2360 C   0  0  0  0  0  0  0  0  0  0  0  0
   35.9670   30.9610   41.3970 O   0  0  0  0  0  0  0  0  0  0  0  0
   38.3320   29.9180   41.7280 C   0  0  0  0  0  0  0  0  0  0  0  0
   38.5030   28.6620   42.1620 C   0  0  0  0  0  0  0  0  0  0  0  0
   39.7610   28.4000   42.6670 C   0  0  0  0  0  0  0  0  0  0  0  0
   40.7150   29.4330   42.6760 N   0  0  0  0  0  0  0  0  0  0  0  0
   40.4670   30.6390   42.2270 C   0  0  0  0  0  0  0  0  0  0  0  0
   39.2220   30.9370   41.7190 N   0  0  0  0  0  0  0  0  0  0  0  0
   40.0990   27.4540   43.0680 H   0  0  0  0  0  0  0  0  0  0  0  0
   41.3020   31.3300   42.2970 H   0  0  0  0  0  0  0  0  0  0  0  0
   37.5820   27.5850   42.0460 C   0  0  0  0  0  0  0  0  0  0  0  0
   37.5710   26.3970   42.7110 C   0  0  0  0  0  0  0  0  0  0  0  0
   36.5690   27.3800   43.2510 C   0  0  0  0  0  0  0  0  0  0  0  0
   37.1270   27.4990   41.0400 H   0  0  0  0  0  0  0  0  0  0  0  0
   38.3680   26.1580   43.4820 H   0  0  0  0  0  0  0  0  0  0  0  0
   37.0950   25.4340   42.4220 H   0  0  0  0  0  0  0  0  0  0  0  0
   35.5280   27.3530   42.9030 H   0  0  0  0  0  0  0  0  0  0  0  0
   36.8250   27.9980   44.1280 H   0  0  0  0  0  0  0  0  0  0  0  0
  2  1  1  0  0  0  0
  2  3  1  0  0  0  0
  3 21  1  0  0  0  0
  4  8  1  0  0  0  0
  4  3  2  0  0  0  0
  5  4  1  0  0  0  0
  6  7  1  0  0  0  0
  6  5  2  0  0  0  0
  7  2  2  0  0  0  0
  9  5  1  0  0  0  0
 10  6  1  0  0  0  0
 11  7  1  0  0  0  0
 12 11  1  0  0  0  0
 12 13  1  0  0  0  0
 14 12  1  0  0  0  0
 15 14  1  0  0  0  0
 16 14  1  0  0  0  0
 17 16  1  0  0  0  0
 17 19  1  0  0  0  0
 18 17  1  0  0  0  0
 19 20  1  0  0  0  0
 19 11  1  0  0  0  0
 21 22  2  0  0  0  0
 21 23  1  0  0  0  0
 23 24  1  0  0  0  0
 24 25  2  0  0  0  0
 25 26  1  0  0  0  0
 25 29  1  0  0  0  0
 27 30  1  0  0  0  0
 27 26  2  0  0  0  0
 28 23  2  0  0  0  0
 28 27  1  0  0  0  0
 31 24  1  0  0  0  0
 31 32  1  0  0  0  0
 31 33  1  0  0  0  0
 32 33  1  0  0  0  0
 32 35  1  0  0  0  0
 33 38  1  0  0  0  0
 34 31  1  0  0  0  0
 36 32  1  0  0  0  0
 37 33  1  0  0  0  0
M  END
>  <minimizedAffinity>
-5.76031542

$$$$

 OpenBabel03242523213D

 38 41  0  0  0  0  0  0  0  0999 V2000
   38.3940   29.4840   43.2520 Cl  0  0  0  0  0  0  0  0  0  0  0  0
   37.5390   29.0930   41.7650 C   0  0  0  0  0  0  0  0  0  0  0  0
   36.9100   27.8320   41.7450 C   0  0  0  0  0  0  0  0  0  0  0  0
   36.2600   27.6390   40.5370 C   0  0  0  0  0  0  0  0  0  0  0  0
   36.1630   28.4460   39.4710 C   0  0  0  0  0  0  0  0  0  0  0  0
   36.7970   29.6370   39.5780 C   0  0  0  0  0  0  0  0  0  0  0  0
   37.4930   29.9970   40.7040 C   0  0  0  0  0  0  0  0  0  0  0  0
   35.7410   26.6750   40.3420 H   0  0  0  0  0  0  0  0  0  0  0  0
   35.6400   28.2450   38.5530 H   0  0  0  0  0  0  0  0  0  0  0  0
   36.8040   30.3980   38.7890 H   0  0  0  0  0  0  0  0  0  0  0  0
   38.2120   31.2900   40.8810 C   0  0  0  0  0  3  0  0  0  0  0  0
   39.5980   31.3040   40.3350 C   0  0  0  0  0  3  0  0  0  0  0  0
   39.8900   30.3600   39.8160 H   0  0  0  0  0  0  0  0  0  0  0  0
   39.7890   32.3600   39.2410 C   0  0  0  0  0  3  0  0  0  0  0  0
   39.7950   33.3810   39.6730 H   0  0  0  0  0  0  0  0  0  0  0  0
   38.6950   32.2200   38.4030 O   0  0  0  0  0  0  0  0  0  0  0  0
   37.6850   32.9600   39.0300 C   0  0  0  0  0  3  0  0  0  0  0  0
   38.1340   33.9880   39.1490 H   0  0  0  0  0  0  0  0  0  0  0  0
   37.3090   32.3780   40.3260 C   0  0  0  0  0  3  0  0  0  0  0  0
   36.2620   31.9920   40.2550 H   0  0  0  0  0  0  0  0  0  0  0  0
   36.9070   26.8310   42.8350 C   0  0  0  0  0  0  0  0  0  0  0  0
   36.2030   27.4290   43.6160 O   0  0  0  0  0  0  0  0  0  0  0  0
   37.7210   25.6750   42.4300 C   0  0  0  0  0  0  0  0  0  0  0  0
   39.0410   25.5350   42.6190 C   0  0  0  0  0  0  0  0  0  0  0  0
   39.5800   24.3990   42.0520 C   0  0  0  0  0  0  0  0  0  0  0  0
   38.7290   23.5190   41.3570 N   0  0  0  0  0  0  0  0  0  0  0  0
   37.4440   23.7290   41.2210 C   0  0  0  0  0  0  0  0  0  0  0  0
   36.8710   24.8540   41.7710 N   0  0  0  0  0  0  0  0  0  0  0  0
   40.6210   24.1050   42.0870 H   0  0  0  0  0  0  0  0  0  0  0  0
   36.9150   22.9620   40.6610 H   0  0  0  0  0  0  0  0  0  0  0  0
   39.8810   26.3570   43.4180 C   0  0  0  0  0  0  0  0  0  0  0  0
   41.2130   26.2270   43.6680 C   0  0  0  0  0  0  0  0  0  0  0  0
   40.9100   27.2900   42.6470 C   0  0  0  0  0  0  0  0  0  0  0  0
   39.3500   26.8490   44.2560 H   0  0  0  0  0  0  0  0  0  0  0  0
   41.8070   25.3770   43.2100 H   0  0  0  0  0  0  0  0  0  0  0  0
   41.8110   26.6260   44.5170 H   0  0  0  0  0  0  0  0  0  0  0  0
   40.8120   28.3390   42.9570 H   0  0  0  0  0  0  0  0  0  0  0  0
   40.9720   27.0510   41.5730 H   0  0  0  0  0  0  0  0  0  0  0  0
  2  1  1  0  0  0  0
  3  2  1  0  0  0  0
  3 21  1  0  0  0  0
  4  3  2  0  0  0  0
  5  6  2  0  0  0  0
  5  4  1  0  0  0  0
  6  7  1  0  0  0  0
  7 11  1  0  0  0  0
  7  2  2  0  0  0  0
  8  4  1  0  0  0  0
  9  5  1  0  0  0  0
 10  6  1  0  0  0  0
 12 11  1  0  0  0  0
 13 12  1  0  0  0  0
 14 15  1  0  0  0  0
 14 12  1  0  0  0  0
 16 17  1  0  0  0  0
 16 14  1  0  0  0  0
 17 18  1  0  0  0  0
 17 19  1  0  0  0  0
 19 11  1  0  0  0  0
 20 19  1  0  0  0  0
 21 22  2  0  0  0  0
 23 24  1  0  0  0  0
 23 21  1  0  0  0  0
 24 31  1  0  0  0  0
 25 29  1  0  0  0  0
 25 24  2  0  0  0  0
 26 25  1  0  0  0  0
 27 26  2  0  0  0  0
 27 28  1  0  0  0  0
 28 23  2  0  0  0  0
 30 27  1  0  0  0  0
 31 32  1  0  0  0  0
 31 34  1  0  0  0  0
 32 36  1  0  0  0  0
 33 37  1  0  0  0  0
 33 31  1  0  0  0  0
 33 32  1  0  0  0  0
 35 32  1  0  0  0  0
 38 33  1  0  0  0  0
M  END
>  <minimizedAffinity>
-5.72043037

$$$$

 OpenBabel03242523213D

 38 41  0  0  0  0  0  0  0  0999 V2000
   36.1900   29.8410   41.4480 Cl  0  0  0  0  0  0  0  0  0  0  0  0
   36.4670   28.2480   40.7550 C   0  0  0  0  0  0  0  0  0  0  0  0
   37.0160   27.2950   41.6360 C   0  0  0  0  0  0  0  0  0  0  0  0
   37.1780   26.0800   40.9890 C   0  0  0  0  0  0  0  0  0  0  0  0
   36.8940   25.7310   39.7270 C   0  0  0  0  0  0  0  0  0  0  0  0
   36.3710   26.7080   38.9520 C   0  0  0  0  0  0  0  0  0  0  0  0
   36.1430   27.9760   39.4270 C   0  0  0  0  0  0  0  0  0  0  0  0
   37.6340   25.2260   41.5350 H   0  0  0  0  0  0  0  0  0  0  0  0
   37.0390   24.7660   39.2750 H   0  0  0  0  0  0  0  0  0  0  0  0
   36.0890   26.5710   37.9010 H   0  0  0  0  0  0  0  0  0  0  0  0
   35.5720   29.0940   38.6240 C   0  0  0  0  0  3  0  0  0  0  0  0
   36.2670   29.3390   37.3290 C   0  0  0  0  0  3  0  0  0  0  0  0
   37.0850   28.6140   37.1090 H   0  0  0  0  0  0  0  0  0  0  0  0
   35.3380   29.1690   36.1210 C   0  0  0  0  0  3  0  0  0  0  0  0
   34.6150   30.0070   36.0570 H   0  0  0  0  0  0  0  0  0  0  0  0
   34.6540   27.9860   36.3510 O   0  0  0  0  0  0  0  0  0  0  0  0
   33.5980   28.3570   37.1920 C   0  0  0  0  0  3  0  0  0  0  0  0
   33.0690   29.1740   36.6210 H   0  0  0  0  0  0  0  0  0  0  0  0
   34.0820   28.8320   38.4960 C   0  0  0  0  0  3  0  0  0  0  0  0
   33.7640   28.1030   39.2820 H   0  0  0  0  0  0  0  0  0  0  0  0
   37.3720   27.5080   43.0570 C   0  0  0  0  0  0  0  0  0  0  0  0
   36.2510   27.5800   43.5060 O   0  0  0  0  0  0  0  0  0  0  0  0
   38.8370   27.5240   43.1890 C   0  0  0  0  0  0  0  0  0  0  0  0
   39.6440   28.5560   42.9060 C   0  0  0  0  0  0  0  0  0  0  0  0
   40.9900   28.2740   43.0190 C   0  0  0  0  0  0  0  0  0  0  0  0
   41.3800   26.9810   43.4120 N   0  0  0  0  0  0  0  0  0  0  0  0
   40.5240   26.0260   43.6750 C   0  0  0  0  0  0  0  0  0  0  0  0
   39.1720   26.2690   43.5700 N   0  0  0  0  0  0  0  0  0  0  0  0
   41.8010   28.9660   42.8320 H   0  0  0  0  0  0  0  0  0  0  0  0
   40.9730   25.0810   43.9680 H   0  0  0  0  0  0  0  0  0  0  0  0
   39.2530   29.8930   42.6250 C   0  0  0  0  0  0  0  0  0  0  0  0
   40.0350   30.9990   42.4820 C   0  0  0  0  0  0  0  0  0  0  0  0
   39.5680   30.4380   41.1670 C   0  0  0  0  0  0  0  0  0  0  0  0
   38.2440   30.1480   43.0050 H   0  0  0  0  0  0  0  0  0  0  0  0
   41.1620   30.9260   42.5810 H   0  0  0  0  0  0  0  0  0  0  0  0
   39.7640   32.0720   42.5960 H   0  0  0  0  0  0  0  0  0  0  0  0
   38.6680   30.8420   40.6840 H   0  0  0  0  0  0  0  0  0  0  0  0
   40.2240   29.7600   40.5960 H   0  0  0  0  0  0  0  0  0  0  0  0
  2  1  1  0  0  0  0
  2  3  1  0  0  0  0
  3 21  1  0  0  0  0
  4  8  1  0  0  0  0
  4  3  2  0  0  0  0
  5  4  1  0  0  0  0
  6  7  1  0  0  0  0
  6  5  2  0  0  0  0
  7  2  2  0  0  0  0
  9  5  1  0  0  0  0
 10  6  1  0  0  0  0
 11  7  1  0  0  0  0
 12 11  1  0  0  0  0
 13 12  1  0  0  0  0
 14 16  1  0  0  0  0
 14 12  1  0  0  0  0
 15 14  1  0  0  0  0
 16 17  1  0  0  0  0
 17 19  1  0  0  0  0
 18 17  1  0  0  0  0
 19 11  1  0  0  0  0
 19 20  1  0  0  0  0
 21 23  1  0  0  0  0
 21 22  2  0  0  0  0
 23 28  1  0  0  0  0
 24 25  1  0  0  0  0
 24 23  2  0  0  0  0
 25 26  2  0  0  0  0
 26 27  1  0  0  0  0
 27 30  1  0  0  0  0
 28 27  2  0  0  0  0
 29 25  1  0  0  0  0
 31 24  1  0  0  0  0
 31 34  1  0  0  0  0
 32 35  1  0  0  0  0
 32 36  1  0  0  0  0
 32 31  1  0  0  0  0
 33 32  1  0  0  0  0
 33 31  1  0  0  0  0
 37 33  1  0  0  0  0
 38 33  1  0  0  0  0
M  END
>  <minimizedAffinity>
-5.7055378

$$$$

 OpenBabel03242523213D

 38 41  0  0  0  0  0  0  0  0999 V2000
   38.8100   29.6780   43.0650 Cl  0  0  0  0  0  0  0  0  0  0  0  0
   37.6660   29.3070   41.7810 C   0  0  0  0  0  0  0  0  0  0  0  0
   36.9880   28.0800   41.9140 C   0  0  0  0  0  0  0  0  0  0  0  0
   36.1080   27.9010   40.8580 C   0  0  0  0  0  0  0  0  0  0  0  0
   35.8450   28.6940   39.8110 C   0  0  0  0  0  0  0  0  0  0  0  0
   36.5420   29.8530   39.7640 C   0  0  0  0  0  0  0  0  0  0  0  0
   37.4590   30.1950   40.7260 C   0  0  0  0  0  0  0  0  0  0  0  0
   35.5170   26.9620   40.7920 H   0  0  0  0  0  0  0  0  0  0  0  0
   35.1450   28.5050   39.0160 H   0  0  0  0  0  0  0  0  0  0  0  0
   36.4330   30.6010   38.9690 H   0  0  0  0  0  0  0  0  0  0  0  0
   38.2580   31.4530   40.7290 C   0  0  0  0  0  3  0  0  0  0  0  0
   39.5270   31.3780   39.9510 C   0  0  0  0  0  3  0  0  0  0  0  0
   39.6780   30.4070   39.4240 H   0  0  0  0  0  0  0  0  0  0  0  0
   39.5740   32.3920   38.8020 C   0  0  0  0  0  3  0  0  0  0  0  0
   39.7040   33.4230   39.1890 H   0  0  0  0  0  0  0  0  0  0  0  0
   38.3440   32.2870   38.1720 O   0  0  0  0  0  0  0  0  0  0  0  0
   37.4960   33.0960   38.9380 C   0  0  0  0  0  3  0  0  0  0  0  0
   38.0070   34.1020   38.9400 H   0  0  0  0  0  0  0  0  0  0  0  0
   37.3260   32.5710   40.3000 C   0  0  0  0  0  3  0  0  0  0  0  0
   36.2650   32.2390   40.4240 H   0  0  0  0  0  0  0  0  0  0  0  0
   37.1480   27.0970   43.0090 C   0  0  0  0  0  0  0  0  0  0  0  0
   36.1980   27.4310   43.6800 O   0  0  0  0  0  0  0  0  0  0  0  0
   38.3230   26.2570   42.7350 C   0  0  0  0  0  0  0  0  0  0  0  0
   38.4130   25.3080   41.7930 C   0  0  0  0  0  0  0  0  0  0  0  0
   39.5940   24.5950   41.8140 C   0  0  0  0  0  0  0  0  0  0  0  0
   40.5630   24.9180   42.7800 N   0  0  0  0  0  0  0  0  0  0  0  0
   40.3980   25.8670   43.6680 C   0  0  0  0  0  0  0  0  0  0  0  0
   39.2310   26.5980   43.6800 N   0  0  0  0  0  0  0  0  0  0  0  0
   39.8600   23.7890   41.1430 H   0  0  0  0  0  0  0  0  0  0  0  0
   41.2340   26.0020   44.3490 H   0  0  0  0  0  0  0  0  0  0  0  0
   37.4880   25.0590   40.7430 C   0  0  0  0  0  0  0  0  0  0  0  0
   37.5280   24.0930   39.7830 C   0  0  0  0  0  0  0  0  0  0  0  0
   36.5650   23.7750   40.8940 C   0  0  0  0  0  0  0  0  0  0  0  0
   36.9620   25.9670   40.3920 H   0  0  0  0  0  0  0  0  0  0  0  0
   38.3790   23.3440   39.7520 H   0  0  0  0  0  0  0  0  0  0  0  0
   37.0340   24.0720   38.7860 H   0  0  0  0  0  0  0  0  0  0  0  0
   35.5020   24.0300   40.7910 H   0  0  0  0  0  0  0  0  0  0  0  0
   36.8830   23.1240   41.7250 H   0  0  0  0  0  0  0  0  0  0  0  0
  2  3  1  0  0  0  0
  2  1  1  0  0  0  0
  3 21  1  0  0  0  0
  4  3  2  0  0  0  0
  5  4  1  0  0  0  0
  6  5  2  0  0  0  0
  6  7  1  0  0  0  0
  7 11  1  0  0  0  0
  7  2  2  0  0  0  0
  8  4  1  0  0  0  0
  9  5  1  0  0  0  0
 10  6  1  0  0  0  0
 12 11  1  0  0  0  0
 13 12  1  0  0  0  0
 14 15  1  0  0  0  0
 14 12  1  0  0  0  0
 16 14  1  0  0  0  0
 16 17  1  0  0  0  0
 17 18  1  0  0  0  0
 17 19  1  0  0  0  0
 19 20  1  0  0  0  0
 19 11  1  0  0  0  0
 21 22  2  0  0  0  0
 23 21  1  0  0  0  0
 23 28  1  0  0  0  0
 24 25  1  0  0  0  0
 24 23  2  0  0  0  0
 25 26  2  0  0  0  0
 26 27  1  0  0  0  0
 27 28  2  0  0  0  0
 27 30  1  0  0  0  0
 29 25  1  0  0  0  0
 31 33  1  0  0  0  0
 31 24  1  0  0  0  0
 32 31  1  0  0  0  0
 32 33  1  0  0  0  0
 33 38  1  0  0  0  0
 34 31  1  0  0  0  0
 35 32  1  0  0  0  0
 36 32  1  0  0  0  0
 37 33  1  0  0  0  0
M  END
>  <minimizedAffinity>
-5.69212723

$$$$

 OpenBabel03242523213D

 38 41  0  0  0  0  0  0  0  0999 V2000
   37.0930   26.1110   40.5980 Cl  0  0  0  0  0  0  0  0  0  0  0  0
   36.6530   27.8140   40.6150 C   0  0  0  0  0  0  0  0  0  0  0  0
   36.9500   28.5020   41.8090 C   0  0  0  0  0  0  0  0  0  0  0  0
   36.5740   29.8310   41.7030 C   0  0  0  0  0  0  0  0  0  0  0  0
   36.0080   30.4880   40.6810 C   0  0  0  0  0  0  0  0  0  0  0  0
   35.7580   29.7510   39.5750 C   0  0  0  0  0  0  0  0  0  0  0  0
   36.0640   28.4140   39.5030 C   0  0  0  0  0  0  0  0  0  0  0  0
   36.7070   30.5080   42.5740 H   0  0  0  0  0  0  0  0  0  0  0  0
   35.7380   31.5300   40.6530 H   0  0  0  0  0  0  0  0  0  0  0  0
   35.3010   30.1510   38.6620 H   0  0  0  0  0  0  0  0  0  0  0  0
   35.8120   27.5490   38.3160 C   0  0  0  0  0  3  0  0  0  0  0  0
   34.4920   27.7710   37.6620 C   0  0  0  0  0  3  0  0  0  0  0  0
   33.8950   28.5960   38.1150 H   0  0  0  0  0  0  0  0  0  0  0  0
   34.6270   28.2190   36.2020 C   0  0  0  0  0  3  0  0  0  0  0  0
   34.9660   27.3800   35.5600 H   0  0  0  0  0  0  0  0  0  0  0  0
   35.5930   29.2120   36.2130 O   0  0  0  0  0  0  0  0  0  0  0  0
   36.8050   28.5120   36.1770 C   0  0  0  0  0  3  0  0  0  0  0  0
   36.7200   27.8650   35.2570 H   0  0  0  0  0  0  0  0  0  0  0  0
   37.0050   27.7070   37.3910 C   0  0  0  0  0  3  0  0  0  0  0  0
   37.8660   28.1320   37.9630 H   0  0  0  0  0  0  0  0  0  0  0  0
   37.5820   27.9340   43.0200 C   0  0  0  0  0  0  0  0  0  0  0  0
   36.5830   27.5070   43.5510 O   0  0  0  0  0  0  0  0  0  0  0  0
   39.0330   28.1670   42.9600 C   0  0  0  0  0  0  0  0  0  0  0  0
   39.9870   27.3040   43.3360 C   0  0  0  0  0  0  0  0  0  0  0  0
   41.2690   27.8090   43.2740 C   0  0  0  0  0  0  0  0  0  0  0  0
   41.4550   29.1330   42.8340 N   0  0  0  0  0  0  0  0  0  0  0  0
   40.4650   29.9130   42.4800 C   0  0  0  0  0  0  0  0  0  0  0  0
   39.1700   29.4430   42.5320 N   0  0  0  0  0  0  0  0  0  0  0  0
   42.1750   27.2780   43.5370 H   0  0  0  0  0  0  0  0  0  0  0  0
   40.7620   30.9080   42.1610 H   0  0  0  0  0  0  0  0  0  0  0  0
   39.8150   25.9320   43.6670 C   0  0  0  0  0  0  0  0  0  0  0  0
   39.2710   24.9350   42.9160 C   0  0  0  0  0  0  0  0  0  0  0  0
   40.7750   24.8960   42.9410 C   0  0  0  0  0  0  0  0  0  0  0  0
   39.6780   25.7530   44.7520 H   0  0  0  0  0  0  0  0  0  0  0  0
   38.8850   25.1440   41.8710 H   0  0  0  0  0  0  0  0  0  0  0  0
   38.8260   23.9700   43.2440 H   0  0  0  0  0  0  0  0  0  0  0  0
   41.2980   24.2560   43.6640 H   0  0  0  0  0  0  0  0  0  0  0  0
   41.3490   25.3580   42.1210 H   0  0  0  0  0  0  0  0  0  0  0  0
  1  2  1  0  0  0  0
  2  3  1  0  0  0  0
  3 21  1  0  0  0  0
  4  3  2  0  0  0  0
  4  8  1  0  0  0  0
  5  4  1  0  0  0  0
  6  5  2  0  0  0  0
  7  6  1  0  0  0  0
  7  2  2  0  0  0  0
  9  5  1  0  0  0  0
 10  6  1  0  0  0  0
 11  7  1  0  0  0  0
 12 13  1  0  0  0  0
 12 11  1  0  0  0  0
 14 16  1  0  0  0  0
 14 12  1  0  0  0  0
 15 14  1  0  0  0  0
 17 16  1  0  0  0  0
 17 19  1  0  0  0  0
 18 17  1  0  0  0  0
 19 20  1  0  0  0  0
 19 11  1  0  0  0  0
 21 22  2  0  0  0  0
 23 21  1  0  0  0  0
 23 24  1  0  0  0  0
 24 31  1  0  0  0  0
 25 24  2  0  0  0  0
 25 29  1  0  0  0  0
 26 25  1  0  0  0  0
 27 28  1  0  0  0  0
 27 26  2  0  0  0  0
 28 23  2  0  0  0  0
 30 27  1  0  0  0  0
 31 34  1  0  0  0  0
 32 33  1  0  0  0  0
 32 36  1  0  0  0  0
 32 31  1  0  0  0  0
 33 37  1  0  0  0  0
 33 31  1  0  0  0  0
 35 32  1  0  0  0  0
 38 33  1  0  0  0  0
M  END
>  <minimizedAffinity>
-5.55631447

$$$$

 OpenBabel03242523213D

 38 41  0  0  0  0  0  0  0  0999 V2000
   35.7040   28.3840   39.8540 Cl  0  0  0  0  0  0  0  0  0  0  0  0
   37.0260   28.4020   41.0150 C   0  0  0  0  0  0  0  0  0  0  0  0
   37.4740   29.6820   41.3980 C   0  0  0  0  0  0  0  0  0  0  0  0
   38.5030   29.5740   42.3210 C   0  0  0  0  0  0  0  0  0  0  0  0
   39.0740   28.4840   42.8500 C   0  0  0  0  0  0  0  0  0  0  0  0
   38.5820   27.2980   42.4260 C   0  0  0  0  0  0  0  0  0  0  0  0
   37.5620   27.2150   41.5120 C   0  0  0  0  0  0  0  0  0  0  0  0
   38.9960   30.4950   42.7010 H   0  0  0  0  0  0  0  0  0  0  0  0
   39.8750   28.4590   43.5700 H   0  0  0  0  0  0  0  0  0  0  0  0
   38.9490   26.3240   42.7720 H   0  0  0  0  0  0  0  0  0  0  0  0
   36.9780   25.9410   41.0040 C   0  0  0  0  0  3  0  0  0  0  0  0
   37.5730   25.4580   39.7260 C   0  0  0  0  0  3  0  0  0  0  0  0
   38.4150   26.0870   39.3520 H   0  0  0  0  0  0  0  0  0  0  0  0
   38.2230   24.0770   39.8640 C   0  0  0  0  0  3  0  0  0  0  0  0
   37.4530   23.2860   39.9720 H   0  0  0  0  0  0  0  0  0  0  0  0
   38.9810   24.1440   41.0220 O   0  0  0  0  0  0  0  0  0  0  0  0
   38.0640   23.8860   42.0480 C   0  0  0  0  0  3  0  0  0  0  0  0
   37.6120   22.8920   41.7670 H   0  0  0  0  0  0  0  0  0  0  0  0
   37.0430   24.9390   42.1430 C   0  0  0  0  0  3  0  0  0  0  0  0
   37.1800   25.4840   43.1100 H   0  0  0  0  0  0  0  0  0  0  0  0
   36.9460   30.9810   40.9230 C   0  0  0  0  0  0  0  0  0  0  0  0
   35.8800   30.9520   41.4940 O   0  0  0  0  0  0  0  0  0  0  0  0
   37.9400   31.6110   40.0420 C   0  0  0  0  0  0  0  0  0  0  0  0
   38.1020   31.3690   38.7340 C   0  0  0  0  0  0  0  0  0  0  0  0
   39.1760   32.0190   38.1620 C   0  0  0  0  0  0  0  0  0  0  0  0
   39.9730   32.8510   38.9710 N   0  0  0  0  0  0  0  0  0  0  0  0
   39.7440   33.0380   40.2470 C   0  0  0  0  0  0  0  0  0  0  0  0
   38.6820   32.4020   40.8520 N   0  0  0  0  0  0  0  0  0  0  0  0
   39.4790   31.9540   37.1250 H   0  0  0  0  0  0  0  0  0  0  0  0
   40.4420   33.7080   40.7400 H   0  0  0  0  0  0  0  0  0  0  0  0
   37.2330   30.6260   37.8900 C   0  0  0  0  0  0  0  0  0  0  0  0
   37.2710   30.4890   36.5350 C   0  0  0  0  0  0  0  0  0  0  0  0
   37.8170   29.2900   37.2610 C   0  0  0  0  0  0  0  0  0  0  0  0
   36.2020   30.5380   38.2840 H   0  0  0  0  0  0  0  0  0  0  0  0
   38.0780   31.0000   35.9250 H   0  0  0  0  0  0  0  0  0  0  0  0
   36.4530   30.2120   35.8330 H   0  0  0  0  0  0  0  0  0  0  0  0
   37.1680   28.4280   37.4700 H   0  0  0  0  0  0  0  0  0  0  0  0
   38.9050   29.1920   37.4170 H   0  0  0  0  0  0  0  0  0  0  0  0
  1  2  1  0  0  0  0
  2  3  2  0  0  0  0
  2  7  1  0  0  0  0
  3  4  1  0  0  0  0
  4  8  1  0  0  0  0
  4  5  2  0  0  0  0
  5  9  1  0  0  0  0
  6 10  1  0  0  0  0
  6  5  1  0  0  0  0
  7  6  2  0  0  0  0
 11  7  1  0  0  0  0
 11 19  1  0  0  0  0
 12 14  1  0  0  0  0
 12 11  1  0  0  0  0
 13 12  1  0  0  0  0
 14 15  1  0  0  0  0
 14 16  1  0  0  0  0
 16 17  1  0  0  0  0
 17 19  1  0  0  0  0
 18 17  1  0  0  0  0
 19 20  1  0  0  0  0
 21  3  1  0  0  0  0
 21 22  2  0  0  0  0
 23 28  1  0  0  0  0
 23 21  1  0  0  0  0
 24 23  2  0  0  0  0
 25 24  1  0  0  0  0
 25 26  2  0  0  0  0
 26 27  1  0  0  0  0
 27 30  1  0  0  0  0
 27 28  2  0  0  0  0
 29 25  1  0  0  0  0
 31 34  1  0  0  0  0
 31 24  1  0  0  0  0
 32 33  1  0  0  0  0
 32 31  1  0  0  0  0
 33 38  1  0  0  0  0
 33 37  1  0  0  0  0
 33 31  1  0  0  0  0
 35 32  1  0  0  0  0
 36 32  1  0  0  0  0
M  END
>  <minimizedAffinity>
-5.5245533

$$$$

 OpenBabel03242523213D

 38 41  0  0  0  0  0  0  0  0999 V2000
   37.0560   27.5930   38.6580 Cl  0  0  0  0  0  0  0  0  0  0  0  0
   37.0210   26.9490   40.2940 C   0  0  0  0  0  0  0  0  0  0  0  0
   36.6060   27.8560   41.2900 C   0  0  0  0  0  0  0  0  0  0  0  0
   36.6040   27.2380   42.5310 C   0  0  0  0  0  0  0  0  0  0  0  0
   36.9220   25.9810   42.8690 C   0  0  0  0  0  0  0  0  0  0  0  0
   37.3090   25.1800   41.8500 C   0  0  0  0  0  0  0  0  0  0  0  0
   37.3720   25.6250   40.5530 C   0  0  0  0  0  0  0  0  0  0  0  0
   36.3350   27.8270   43.4340 H   0  0  0  0  0  0  0  0  0  0  0  0
   36.9000   25.5510   43.8550 H   0  0  0  0  0  0  0  0  0  0  0  0
   37.5970   24.1290   41.9730 H   0  0  0  0  0  0  0  0  0  0  0  0
   37.7920   24.7930   39.3890 C   0  0  0  0  0  3  0  0  0  0  0  0
   38.9980   23.9540   39.6360 C   0  0  0  0  0  3  0  0  0  0  0  0
   39.3890   24.0180   40.6790 H   0  0  0  0  0  0  0  0  0  0  0  0
   38.7140   22.4550   39.4780 C   0  0  0  0  0  3  0  0  0  0  0  0
   38.5710   22.1900   38.4110 H   0  0  0  0  0  0  0  0  0  0  0  0
   37.5360   22.2320   40.1720 O   0  0  0  0  0  0  0  0  0  0  0  0
   36.5300   22.5830   39.2640 C   0  0  0  0  0  3  0  0  0  0  0  0
   36.7440   21.9430   38.3600 H   0  0  0  0  0  0  0  0  0  0  0  0
   36.5690   24.0160   38.9360 C   0  0  0  0  0  3  0  0  0  0  0  0
   35.6480   24.5000   39.3440 H   0  0  0  0  0  0  0  0  0  0  0  0
   36.2090   29.2670   41.0880 C   0  0  0  0  0  0  0  0  0  0  0  0
   35.0380   29.0830   40.8480 O   0  0  0  0  0  0  0  0  0  0  0  0
   37.3850   30.1300   41.2740 C   0  0  0  0  0  0  0  0  0  0  0  0
   37.7660   31.1290   40.4650 C   0  0  0  0  0  0  0  0  0  0  0  0
   38.9660   31.7160   40.8120 C   0  0  0  0  0  0  0  0  0  0  0  0
   39.6530   31.2360   41.9420 N   0  0  0  0  0  0  0  0  0  0  0  0
   39.2080   30.2530   42.6840 C   0  0  0  0  0  0  0  0  0  0  0  0
   38.0150   29.6410   42.3670 N   0  0  0  0  0  0  0  0  0  0  0  0
   39.4470   32.5320   40.2890 H   0  0  0  0  0  0  0  0  0  0  0  0
   39.8460   29.9940   43.5250 H   0  0  0  0  0  0  0  0  0  0  0  0
   37.0200   31.6930   39.3950 C   0  0  0  0  0  0  0  0  0  0  0  0
   37.4380   32.5480   38.4210 C   0  0  0  0  0  0  0  0  0  0  0  0
   37.3160   31.1270   37.9410 C   0  0  0  0  0  0  0  0  0  0  0  0
   35.9460   31.8280   39.6290 H   0  0  0  0  0  0  0  0  0  0  0  0
   38.5150   32.9010   38.3850 H   0  0  0  0  0  0  0  0  0  0  0  0
   36.8410   33.2500   37.7980 H   0  0  0  0  0  0  0  0  0  0  0  0
   36.3960   30.7910   37.4450 H   0  0  0  0  0  0  0  0  0  0  0  0
   38.2070   30.4790   37.9150 H   0  0  0  0  0  0  0  0  0  0  0  0
  1  2  1  0  0  0  0
  2  7  2  0  0  0  0
  2  3  1  0  0  0  0
  3  4  2  0  0  0  0
  4  5  1  0  0  0  0
  4  8  1  0  0  0  0
  5  9  1  0  0  0  0
  6 10  1  0  0  0  0
  6  5  2  0  0  0  0
  7  6  1  0  0  0  0
 11 12  1  0  0  0  0
 11  7  1  0  0  0  0
 12 13  1  0  0  0  0
 14 12  1  0  0  0  0
 14 16  1  0  0  0  0
 15 14  1  0  0  0  0
 17 16  1  0  0  0  0
 18 17  1  0  0  0  0
 19 17  1  0  0  0  0
 19 20  1  0  0  0  0
 19 11  1  0  0  0  0
 21 23  1  0  0  0  0
 21  3  1  0  0  0  0
 22 21  2  0  0  0  0
 23 28  1  0  0  0  0
 24 25  1  0  0  0  0
 24 23  2  0  0  0  0
 25 26  2  0  0  0  0
 26 27  1  0  0  0  0
 27 30  1  0  0  0  0
 28 27  2  0  0  0  0
 29 25  1  0  0  0  0
 31 34  1  0  0  0  0
 31 24  1  0  0  0  0
 32 31  1  0  0  0  0
 33 32  1  0  0  0  0
 33 31  1  0  0  0  0
 35 32  1  0  0  0  0
 36 32  1  0  0  0  0
 37 33  1  0  0  0  0
 38 33  1  0  0  0  0
M  END
>  <minimizedAffinity>
-5.51562405

$$$$

 OpenBabel03242523213D

 38 41  0  0  0  0  0  0  0  0999 V2000
   37.7600   28.5210   38.9600 Cl  0  0  0  0  0  0  0  0  0  0  0  0
   37.6750   28.2350   40.6930 C   0  0  0  0  0  0  0  0  0  0  0  0
   37.4800   29.3840   41.4850 C   0  0  0  0  0  0  0  0  0  0  0  0
   37.4150   29.0380   42.8250 C   0  0  0  0  0  0  0  0  0  0  0  0
   37.5070   27.8370   43.4100 C   0  0  0  0  0  0  0  0  0  0  0  0
   37.6930   26.7890   42.5750 C   0  0  0  0  0  0  0  0  0  0  0  0
   37.7830   26.9460   41.2140 C   0  0  0  0  0  0  0  0  0  0  0  0
   37.2990   29.8350   43.5910 H   0  0  0  0  0  0  0  0  0  0  0  0
   37.4470   27.6240   44.4640 H   0  0  0  0  0  0  0  0  0  0  0  0
   37.7850   25.7490   42.9090 H   0  0  0  0  0  0  0  0  0  0  0  0
   37.9900   25.8350   40.2430 C   0  0  0  0  0  3  0  0  0  0  0  0
   39.0640   24.8760   40.6250 C   0  0  0  0  0  3  0  0  0  0  0  0
   39.5290   25.0880   41.6170 H   0  0  0  0  0  0  0  0  0  0  0  0
   38.5400   23.4460   40.8010 C   0  0  0  0  0  3  0  0  0  0  0  0
   38.2870   22.9940   39.8200 H   0  0  0  0  0  0  0  0  0  0  0  0
   37.3900   23.5690   41.5630 O   0  0  0  0  0  0  0  0  0  0  0  0
   36.3940   23.8880   40.6330 C   0  0  0  0  0  3  0  0  0  0  0  0
   36.4440   23.0490   39.8810 H   0  0  0  0  0  0  0  0  0  0  0  0
   36.6340   25.1950   40.0060 C   0  0  0  0  0  3  0  0  0  0  0  0
   35.8280   25.9000   40.3300 H   0  0  0  0  0  0  0  0  0  0  0  0
   37.3450   30.7760   41.0010 C   0  0  0  0  0  0  0  0  0  0  0  0
   36.1950   30.9610   41.3280 O   0  0  0  0  0  0  0  0  0  0  0  0
   38.6170   31.2030   40.3990 C   0  0  0  0  0  0  0  0  0  0  0  0
   39.8040   31.2590   41.0190 C   0  0  0  0  0  0  0  0  0  0  0  0
   40.8210   31.7920   40.2550 C   0  0  0  0  0  0  0  0  0  0  0  0
   40.5350   32.2090   38.9430 N   0  0  0  0  0  0  0  0  0  0  0  0
   39.3440   32.1160   38.4080 C   0  0  0  0  0  0  0  0  0  0  0  0
   38.3020   31.5910   39.1420 N   0  0  0  0  0  0  0  0  0  0  0  0
   41.8480   31.9270   40.5710 H   0  0  0  0  0  0  0  0  0  0  0  0
   39.2750   32.4770   37.3850 H   0  0  0  0  0  0  0  0  0  0  0  0
   40.1230   30.7310   42.3000 C   0  0  0  0  0  0  0  0  0  0  0  0
   41.0190   29.7560   42.6220 C   0  0  0  0  0  0  0  0  0  0  0  0
   41.5300   31.1420   42.9110 C   0  0  0  0  0  0  0  0  0  0  0  0
   39.2800   30.7690   43.0170 H   0  0  0  0  0  0  0  0  0  0  0  0
   41.6380   29.2510   41.8170 H   0  0  0  0  0  0  0  0  0  0  0  0
   41.0550   29.1040   43.5220 H   0  0  0  0  0  0  0  0  0  0  0  0
   41.4240   31.5700   43.9170 H   0  0  0  0  0  0  0  0  0  0  0  0
   42.1760   31.6520   42.1770 H   0  0  0  0  0  0  0  0  0  0  0  0
  1  2  1  0  0  0  0
  2  7  2  0  0  0  0
  2  3  1  0  0  0  0
  3  4  2  0  0  0  0
  4  5  1  0  0  0  0
  4  8  1  0  0  0  0
  5  9  1  0  0  0  0
  6 10  1  0  0  0  0
  6  5  2  0  0  0  0
  7  6  1  0  0  0  0
 11 12  1  0  0  0  0
 11  7  1  0  0  0  0
 12 14  1  0  0  0  0
 12 13  1  0  0  0  0
 14 16  1  0  0  0  0
 15 14  1  0  0  0  0
 17 16  1  0  0  0  0
 18 17  1  0  0  0  0
 19 11  1  0  0  0  0
 19 20  1  0  0  0  0
 19 17  1  0  0  0  0
 21 22  2  0  0  0  0
 21  3  1  0  0  0  0
 23 21  1  0  0  0  0
 23 24  1  0  0  0  0
 24 31  1  0  0  0  0
 25 29  1  0  0  0  0
 25 24  2  0  0  0  0
 26 25  1  0  0  0  0
 27 26  2  0  0  0  0
 27 28  1  0  0  0  0
 28 23  2  0  0  0  0
 30 27  1  0  0  0  0
 31 32  1  0  0  0  0
 31 33  1  0  0  0  0
 31 34  1  0  0  0  0
 32 33  1  0  0  0  0
 32 36  1  0  0  0  0
 33 37  1  0  0  0  0
 35 32  1  0  0  0  0
 38 33  1  0  0  0  0
M  END
>  <minimizedAffinity>
-5.48529577

$$$$
