REMARK  Name = 
REMARK  3 active torsions:
REMARK  status: ('A' for Active; 'I' for Inactive)
REMARK    1  A    between atoms: C_1  and  C_8
REMARK    2  A    between atoms: C_4  and  C_12
REMARK    3  A    between atoms: C_14  and  C_30
REMARK                            x       y       z     vdW  Elec       q    Type
REMARK                         _______ _______ _______ _____ _____    ______ ____
ROOT
ATOM      1  C   UNL     1      46.883  34.913  42.155  0.00  0.00    +0.000 C 
ATOM      2  C   UNL     1      46.375  33.905  41.161  0.00  0.00    +0.000 C 
ATOM      3  C   UNL     1      47.584  33.886  40.218  0.00  0.00    +0.000 C 
ATOM      4  C   UNL     1      48.787  34.107  41.105  0.00  0.00    +0.000 C 
ATOM      5  C   UNL     1      48.252  34.311  42.471  0.00  0.00    +0.000 C 
ATOM      6  H   UNL     1      46.921  35.871  41.644  0.00  0.00    +0.000 HD
ATOM      7  H   UNL     1      45.520  34.350  40.600  0.00  0.00    +0.000 HD
ATOM      8  H   UNL     1      46.159  32.926  41.600  0.00  0.00    +0.000 HD
ATOM      9  H   UNL     1      47.486  34.590  39.389  0.00  0.00    +0.000 HD
ATOM     10  H   UNL     1      47.623  32.827  39.850  0.00  0.00    +0.000 HD
ATOM     11  H   UNL     1      49.287  35.023  40.777  0.00  0.00    +0.000 HD
ATOM     12  H   UNL     1      47.916  33.442  43.038  0.00  0.00    +0.000 HD
ATOM     13  H   UNL     1      48.740  35.095  43.079  0.00  0.00    +0.000 HD
ENDROOT
BRANCH   1  16
ATOM     14  C   UNL     1      44.438  36.081  44.776  0.00  0.00    +0.000 A 
ATOM     15  C   UNL     1      45.162  36.094  43.557  0.00  0.00    +0.000 A 
ATOM     16  C   UNL     1      46.054  35.003  43.391  0.00  0.00    +0.000 A 
ATOM     17  N   UNL     1      46.193  34.012  44.358  0.00  0.00    +0.000 NA
ATOM     18  C   UNL     1      45.448  34.102  45.486  0.00  0.00    +0.000 A 
ATOM     19  N   UNL     1      44.587  35.121  45.687  0.00  0.00    +0.000 NA
ATOM     20  H   UNL     1      43.753  36.905  44.920  0.00  0.00    +0.000 HD
ATOM     21  H   UNL     1      45.096  36.821  42.788  0.00  0.00    +0.000 HD
ATOM     22  H   UNL     1      45.662  33.269  46.137  0.00  0.00    +0.000 HD
ENDBRANCH   1  16
BRANCH   4  23
ATOM     23  C   UNL     1      49.696  32.915  41.163  0.00  0.00    +0.000 C 
ATOM     24  C   UNL     1      49.595  32.014  42.288  0.00  0.00    +0.000 C 
ATOM     25  C   UNL     1      50.867  32.794  41.982  0.00  0.00    +0.000 C 
ATOM     26  H   UNL     1      49.700  32.464  40.147  0.00  0.00    +0.000 HD
ATOM     27  H   UNL     1      49.369  32.088  43.330  0.00  0.00    +0.000 HD
ATOM     28  H   UNL     1      49.692  30.904  42.048  0.00  0.00    +0.000 HD
ATOM     29  H   UNL     1      51.730  32.219  41.521  0.00  0.00    +0.000 HD
BRANCH  25  30
ATOM     30  C   UNL     1      51.387  33.788  42.968  0.00  0.00    +0.000 C 
ATOM     31  C   UNL     1      50.364  34.399  43.875  0.00  0.00    +0.000 C 
ATOM     32  H   UNL     1      50.519  33.994  44.897  0.00  0.00    +0.000 HD
ATOM     33  C   UNL     1      50.690  35.892  44.010  0.00  0.00    +0.000 C 
ATOM     34  H   UNL     1      51.699  36.015  44.453  0.00  0.00    +0.000 HD
ATOM     35  O   UNL     1      50.572  36.584  42.831  0.00  0.00    +0.000 OA
ATOM     36  C   UNL     1      50.994  35.855  41.731  0.00  0.00    +0.000 C 
ATOM     37  H   UNL     1      50.120  35.288  41.381  0.00  0.00    +0.000 HD
ATOM     38  C   UNL     1      52.083  34.920  42.234  0.00  0.00    +0.000 C 
ATOM     39  H   UNL     1      52.819  35.433  42.850  0.00  0.00    +0.000 HD
ENDBRANCH  25  30
ENDBRANCH   4  23
TORSDOF 3
