
 OpenBabel03252508563D

 25 26  0  0  0  0  0  0  0  0999 V2000
   47.8000   35.3260   41.9040 C   0  0  0  0  0  0  0  0  0  0  0  0
   47.8320   36.3990   41.6200 H   0  0  0  0  0  0  0  0  0  0  0  0
   48.1850   35.2280   42.9330 H   0  0  0  0  0  0  0  0  0  0  0  0
   48.7060   34.5540   40.9850 C   0  0  0  0  0  3  0  0  0  0  0  0
   48.2060   34.4760   39.5860 C   0  0  0  0  0  3  0  0  0  0  0  0
   48.7600   35.1410   38.8790 H   0  0  0  0  0  0  0  0  0  0  0  0
   48.0990   33.0980   39.0310 C   0  0  0  0  0  3  0  0  0  0  0  0
   48.2330   33.1710   37.9140 H   0  0  0  0  0  0  0  0  0  0  0  0
   48.9740   32.1620   39.4620 O   0  0  0  0  0  0  0  0  0  0  0  0
   49.6620   32.3790   40.6150 C   0  0  0  0  0  3  0  0  0  0  0  0
   49.8450   31.3860   41.1200 H   0  0  0  0  0  0  0  0  0  0  0  0
   48.8170   33.1550   41.5910 C   0  0  0  0  0  3  0  0  0  0  0  0
   49.2280   33.2210   42.6050 H   0  0  0  0  0  0  0  0  0  0  0  0
   46.3590   34.8310   41.8350 C   0  0  0  0  0  0  0  0  0  0  0  0
   45.7520   35.4850   41.2030 H   0  0  0  0  0  0  0  0  0  0  0  0
   46.3420   33.8190   41.3880 H   0  0  0  0  0  0  0  0  0  0  0  0
   44.4620   35.9760   44.8970 C   0  0  0  0  0  0  0  0  0  0  0  0
   44.9870   35.9420   43.5940 C   0  0  0  0  0  0  0  0  0  0  0  0
   45.8010   34.8740   43.2080 C   0  0  0  0  0  0  0  0  0  0  0  0
   46.0420   33.9030   44.1510 N   0  0  0  0  0  0  0  0  0  0  0  0
   45.5240   33.9760   45.3780 C   0  0  0  0  0  0  0  0  0  0  0  0
   44.7420   34.9870   45.7680 N   0  0  0  0  0  0  0  0  0  0  0  0
   43.8470   36.8400   45.0970 H   0  0  0  0  0  0  0  0  0  0  0  0
   44.7790   36.7160   42.8810 H   0  0  0  0  0  0  0  0  0  0  0  0
   45.7940   33.1410   46.0270 H   0  0  0  0  0  0  0  0  0  0  0  0
  1  3  1  0  0  0  0
  2  1  1  0  0  0  0
  4 12  1  0  0  0  0
  4  1  1  0  0  0  0
  5  4  1  0  0  0  0
  6  5  1  0  0  0  0
  7  9  1  0  0  0  0
  7  5  1  0  0  0  0
  8  7  1  0  0  0  0
  9 10  1  0  0  0  0
 10 11  1  0  0  0  0
 10 12  1  0  0  0  0
 12 13  1  0  0  0  0
 14  1  1  0  0  0  0
 14 19  1  0  0  0  0
 15 14  1  0  0  0  0
 16 14  1  0  0  0  0
 17 23  1  0  0  0  0
 17 22  1  0  0  0  0
 18 17  2  0  0  0  0
 19 18  1  0  0  0  0
 19 20  2  0  0  0  0
 20 21  1  0  0  0  0
 21 22  2  0  0  0  0
 21 25  1  0  0  0  0
 24 18  1  0  0  0  0
M  END
>  <minimizedAffinity>
-4.37428904

>  <minimizedRMSD>
1.46191549

$$$$
