
 OpenBabel03252505593D

 37 39  0  0  0  0  0  0  0  0999 V2000
   39.1660   31.7580   41.1910 C   0  0  0  0  0  0  0  0  0  0  0  0
   38.2050   31.5740   40.1740 C   0  0  0  0  0  0  0  0  0  0  0  0
   37.3620   30.4580   40.2780 C   0  0  0  0  0  0  0  0  0  0  0  0
   37.5240   29.6450   41.3330 N   0  0  0  0  0  0  0  0  0  0  0  0
   38.4470   29.8490   42.2800 C   0  0  0  0  0  0  0  0  0  0  0  0
   39.2670   30.8970   42.2160 N   0  0  0  0  0  0  0  0  0  0  0  0
   39.8340   32.6200   41.1310 H   0  0  0  0  0  0  0  0  0  0  0  0
   36.3520   30.1840   39.2820 C   0  0  0  0  0  3  0  0  0  0  0  0
   35.2010   29.4340   39.9020 C   0  0  0  0  0  3  0  0  0  0  0  0
   34.6430   30.0060   40.6580 H   0  0  0  0  0  0  0  0  0  0  0  0
   34.2750   28.8300   38.8670 C   0  0  0  0  0  3  0  0  0  0  0  0
   34.4580   27.7300   38.7480 H   0  0  0  0  0  0  0  0  0  0  0  0
   34.6190   29.3840   37.6310 O   0  0  0  0  0  0  0  0  0  0  0  0
   35.8720   28.8420   37.2620 C   0  0  0  0  0  3  0  0  0  0  0  0
   36.1590   29.4340   36.3450 H   0  0  0  0  0  0  0  0  0  0  0  0
   36.9090   29.0700   38.3420 C   0  0  0  0  0  3  0  0  0  0  0  0
   37.8280   29.4150   37.8620 H   0  0  0  0  0  0  0  0  0  0  0  0
   38.1150   32.5590   39.0790 C   0  0  0  0  0  0  0  0  0  0  0  0
   39.0450   33.5190   39.3830 F   0  0  0  0  0  0  0  0  0  0  0  0
   36.8500   33.1660   39.1910 F   0  0  0  0  0  0  0  0  0  0  0  0
   38.3030   32.0200   37.8950 F   0  0  0  0  0  0  0  0  0  0  0  0
   38.6060   28.9970   43.3650 O   0  0  0  0  0  0  0  0  0  0  0  0
   37.7270   27.9410   43.6060 C   0  0  0  0  0  0  0  0  0  0  0  0
   37.4560   27.8770   44.6800 H   0  0  0  0  0  0  0  0  0  0  0  0
   36.7790   28.0650   43.0280 H   0  0  0  0  0  0  0  0  0  0  0  0
   38.4090   26.6890   43.2480 C   0  0  0  0  0  0  0  0  0  0  0  0
   39.6290   26.2170   43.6770 C   0  0  0  0  0  0  0  0  0  0  0  0
   40.0360   25.0080   43.1850 C   0  0  0  0  0  0  0  0  0  0  0  0
   39.3090   24.3020   42.3310 N   0  0  0  0  0  0  0  0  0  0  0  0
   38.1300   24.7750   41.9260 C   0  0  0  0  0  0  0  0  0  0  0  0
   37.6580   25.9720   42.3730 N   0  0  0  0  0  0  0  0  0  0  0  0
   40.1290   26.8550   44.3560 H   0  0  0  0  0  0  0  0  0  0  0  0
   41.0080   24.6480   43.5360 H   0  0  0  0  0  0  0  0  0  0  0  0
   37.3780   23.9110   40.9640 C   0  0  0  0  0  0  0  0  0  0  0  0
   36.0320   23.9440   41.2080 F   0  0  0  0  0  0  0  0  0  0  0  0
   37.8500   22.5920   41.0580 F   0  0  0  0  0  0  0  0  0  0  0  0
   37.5680   24.3140   39.6580 F   0  0  0  0  0  0  0  0  0  0  0  0
  1  6  1  0  0  0  0
  2  3  1  0  0  0  0
  2  1  2  0  0  0  0
  3  4  2  0  0  0  0
  4  5  1  0  0  0  0
  5 22  1  0  0  0  0
  6  5  2  0  0  0  0
  7  1  1  0  0  0  0
  8  9  1  0  0  0  0
  8  3  1  0  0  0  0
  9 10  1  0  0  0  0
 11  9  1  0  0  0  0
 12 11  1  0  0  0  0
 13 11  1  0  0  0  0
 14 13  1  0  0  0  0
 14 16  1  0  0  0  0
 15 14  1  0  0  0  0
 16  8  1  0  0  0  0
 17 16  1  0  0  0  0
 18 20  1  0  0  0  0
 18 19  1  0  0  0  0
 18  2  1  0  0  0  0
 21 18  1  0  0  0  0
 22 23  1  0  0  0  0
 23 24  1  0  0  0  0
 25 23  1  0  0  0  0
 26 23  1  0  0  0  0
 26 27  1  0  0  0  0
 27 32  1  0  0  0  0
 28 33  1  0  0  0  0
 28 27  2  0  0  0  0
 29 28  1  0  0  0  0
 30 29  2  0  0  0  0
 30 31  1  0  0  0  0
 31 26  2  0  0  0  0
 34 36  1  0  0  0  0
 34 35  1  0  0  0  0
 34 30  1  0  0  0  0
 37 34  1  0  0  0  0
M  END
>  <minimizedAffinity>
-6.05375719

$$$$

 OpenBabel03252505593D

 37 39  0  0  0  0  0  0  0  0999 V2000
   36.4240   29.9700   40.2130 C   0  0  0  0  0  0  0  0  0  0  0  0
   37.4470   30.7940   39.6990 C   0  0  0  0  0  0  0  0  0  0  0  0
   38.5660   31.0170   40.5130 C   0  0  0  0  0  0  0  0  0  0  0  0
   38.5900   30.4340   41.7210 N   0  0  0  0  0  0  0  0  0  0  0  0
   37.6000   29.6580   42.1790 C   0  0  0  0  0  0  0  0  0  0  0  0
   36.5210   29.4230   41.4360 N   0  0  0  0  0  0  0  0  0  0  0  0
   35.5420   29.7830   39.5960 H   0  0  0  0  0  0  0  0  0  0  0  0
   39.6610   31.8510   40.0740 C   0  0  0  0  0  3  0  0  0  0  0  0
   40.9210   31.4870   40.8170 C   0  0  0  0  0  3  0  0  0  0  0  0
   41.2930   30.4740   40.6080 H   0  0  0  0  0  0  0  0  0  0  0  0
   42.0120   32.5250   40.6550 C   0  0  0  0  0  3  0  0  0  0  0  0
   42.0950   33.1780   41.5630 H   0  0  0  0  0  0  0  0  0  0  0  0
   41.6130   33.3880   39.6310 O   0  0  0  0  0  0  0  0  0  0  0  0
   40.5390   34.1610   40.1280 C   0  0  0  0  0  3  0  0  0  0  0  0
   40.1700   34.7210   39.2200 H   0  0  0  0  0  0  0  0  0  0  0  0
   39.4240   33.2800   40.6520 C   0  0  0  0  0  3  0  0  0  0  0  0
   38.4760   33.6780   40.2830 H   0  0  0  0  0  0  0  0  0  0  0  0
   37.3080   31.3550   38.3400 C   0  0  0  0  0  0  0  0  0  0  0  0
   36.9480   32.6650   38.5300 F   0  0  0  0  0  0  0  0  0  0  0  0
   36.2040   30.7100   37.7520 F   0  0  0  0  0  0  0  0  0  0  0  0
   38.4010   31.2230   37.6230 F   0  0  0  0  0  0  0  0  0  0  0  0
   37.6360   29.0620   43.4340 O   0  0  0  0  0  0  0  0  0  0  0  0
   37.0340   27.8290   43.6800 C   0  0  0  0  0  0  0  0  0  0  0  0
   36.8290   27.6870   44.7600 H   0  0  0  0  0  0  0  0  0  0  0  0
   36.0590   27.7420   43.1390 H   0  0  0  0  0  0  0  0  0  0  0  0
   37.9680   26.7740   43.2650 C   0  0  0  0  0  0  0  0  0  0  0  0
   39.2640   26.5560   43.6780 C   0  0  0  0  0  0  0  0  0  0  0  0
   39.9200   25.4900   43.1300 C   0  0  0  0  0  0  0  0  0  0  0  0
   39.3600   24.6860   42.2380 N   0  0  0  0  0  0  0  0  0  0  0  0
   38.1050   24.9110   41.8500 C   0  0  0  0  0  0  0  0  0  0  0  0
   37.3860   25.9540   42.3520 N   0  0  0  0  0  0  0  0  0  0  0  0
   39.6170   27.2530   44.3910 H   0  0  0  0  0  0  0  0  0  0  0  0
   40.9490   25.3320   43.4690 H   0  0  0  0  0  0  0  0  0  0  0  0
   37.5540   23.9530   40.8420 C   0  0  0  0  0  0  0  0  0  0  0  0
   36.1870   23.9060   40.8920 F   0  0  0  0  0  0  0  0  0  0  0  0
   38.0870   22.6760   41.0760 F   0  0  0  0  0  0  0  0  0  0  0  0
   37.9050   24.3060   39.5550 F   0  0  0  0  0  0  0  0  0  0  0  0
  1  6  1  0  0  0  0
  2  1  2  0  0  0  0
  2  3  1  0  0  0  0
  3  4  2  0  0  0  0
  4  5  1  0  0  0  0
  5 22  1  0  0  0  0
  6  5  2  0  0  0  0
  7  1  1  0  0  0  0
  8  3  1  0  0  0  0
  8 16  1  0  0  0  0
  8  9  1  0  0  0  0
 10  9  1  0  0  0  0
 11  9  1  0  0  0  0
 11 12  1  0  0  0  0
 13 14  1  0  0  0  0
 13 11  1  0  0  0  0
 14 16  1  0  0  0  0
 15 14  1  0  0  0  0
 17 16  1  0  0  0  0
 18 19  1  0  0  0  0
 18  2  1  0  0  0  0
 20 18  1  0  0  0  0
 21 18  1  0  0  0  0
 22 23  1  0  0  0  0
 23 24  1  0  0  0  0
 25 23  1  0  0  0  0
 26 27  1  0  0  0  0
 26 23  1  0  0  0  0
 27 32  1  0  0  0  0
 28 33  1  0  0  0  0
 28 27  2  0  0  0  0
 29 28  1  0  0  0  0
 30 29  2  0  0  0  0
 30 31  1  0  0  0  0
 31 26  2  0  0  0  0
 34 35  1  0  0  0  0
 34 36  1  0  0  0  0
 34 30  1  0  0  0  0
 37 34  1  0  0  0  0
M  END
>  <minimizedAffinity>
-5.8650856

$$$$

 OpenBabel03252505593D

 37 39  0  0  0  0  0  0  0  0999 V2000
   38.7340   27.6520   43.0750 C   0  0  0  0  0  0  0  0  0  0  0  0
   38.9810   26.4500   42.3780 C   0  0  0  0  0  0  0  0  0  0  0  0
   38.1280   26.1370   41.3100 C   0  0  0  0  0  0  0  0  0  0  0  0
   37.1400   26.9980   41.0230 N   0  0  0  0  0  0  0  0  0  0  0  0
   36.9330   28.1300   41.7050 C   0  0  0  0  0  0  0  0  0  0  0  0
   37.7210   28.4620   42.7260 N   0  0  0  0  0  0  0  0  0  0  0  0
   39.3860   27.9170   43.9110 H   0  0  0  0  0  0  0  0  0  0  0  0
   38.2980   24.9250   40.5430 C   0  0  0  0  0  3  0  0  0  0  0  0
   37.7200   25.0990   39.1620 C   0  0  0  0  0  3  0  0  0  0  0  0
   38.2380   25.8480   38.5450 H   0  0  0  0  0  0  0  0  0  0  0  0
   37.5640   23.7840   38.4260 C   0  0  0  0  0  3  0  0  0  0  0  0
   36.4990   23.4330   38.4370 H   0  0  0  0  0  0  0  0  0  0  0  0
   38.2650   22.8190   39.1530 O   0  0  0  0  0  0  0  0  0  0  0  0
   37.5400   22.5810   40.3440 C   0  0  0  0  0  3  0  0  0  0  0  0
   38.2250   21.9150   40.9450 H   0  0  0  0  0  0  0  0  0  0  0  0
   37.3020   23.8660   41.1080 C   0  0  0  0  0  3  0  0  0  0  0  0
   37.5190   23.6780   42.1630 H   0  0  0  0  0  0  0  0  0  0  0  0
   40.1200   25.6020   42.7810 C   0  0  0  0  0  0  0  0  0  0  0  0
   39.5650   24.5780   43.5060 F   0  0  0  0  0  0  0  0  0  0  0  0
   40.8890   26.3660   43.6790 F   0  0  0  0  0  0  0  0  0  0  0  0
   40.8260   25.1800   41.7570 F   0  0  0  0  0  0  0  0  0  0  0  0
   35.9040   29.0110   41.3990 O   0  0  0  0  0  0  0  0  0  0  0  0
   35.2500   28.9780   40.1680 C   0  0  0  0  0  0  0  0  0  0  0  0
   35.1940   27.9460   39.7660 H   0  0  0  0  0  0  0  0  0  0  0  0
   34.2030   29.3600   40.2580 H   0  0  0  0  0  0  0  0  0  0  0  0
   36.0280   29.7810   39.2150 C   0  0  0  0  0  0  0  0  0  0  0  0
   36.3310   29.5060   37.9000 C   0  0  0  0  0  0  0  0  0  0  0  0
   37.0800   30.4320   37.2280 C   0  0  0  0  0  0  0  0  0  0  0  0
   37.5090   31.5510   37.7920 N   0  0  0  0  0  0  0  0  0  0  0  0
   37.2060   31.8010   39.0670 C   0  0  0  0  0  0  0  0  0  0  0  0
   36.4640   30.9260   39.8010 N   0  0  0  0  0  0  0  0  0  0  0  0
   35.9420   28.5890   37.5450 H   0  0  0  0  0  0  0  0  0  0  0  0
   37.3120   30.1980   36.1840 H   0  0  0  0  0  0  0  0  0  0  0  0
   37.7310   33.0880   39.6200 C   0  0  0  0  0  0  0  0  0  0  0  0
   37.8560   33.0320   40.9820 F   0  0  0  0  0  0  0  0  0  0  0  0
   36.8680   34.1350   39.2590 F   0  0  0  0  0  0  0  0  0  0  0  0
   38.9740   33.3960   39.1060 F   0  0  0  0  0  0  0  0  0  0  0  0
  1  7  1  0  0  0  0
  2 18  1  0  0  0  0
  2  1  2  0  0  0  0
  3  2  1  0  0  0  0
  4  3  2  0  0  0  0
  4  5  1  0  0  0  0
  5  6  2  0  0  0  0
  6  1  1  0  0  0  0
  8 16  1  0  0  0  0
  8  3  1  0  0  0  0
  9  8  1  0  0  0  0
 10  9  1  0  0  0  0
 11 12  1  0  0  0  0
 11 13  1  0  0  0  0
 11  9  1  0  0  0  0
 13 14  1  0  0  0  0
 14 15  1  0  0  0  0
 14 16  1  0  0  0  0
 16 17  1  0  0  0  0
 18 19  1  0  0  0  0
 18 20  1  0  0  0  0
 21 18  1  0  0  0  0
 22  5  1  0  0  0  0
 23 25  1  0  0  0  0
 23 22  1  0  0  0  0
 24 23  1  0  0  0  0
 26 31  1  0  0  0  0
 26 23  1  0  0  0  0
 27 26  2  0  0  0  0
 28 29  2  0  0  0  0
 28 27  1  0  0  0  0
 29 30  1  0  0  0  0
 30 34  1  0  0  0  0
 30 31  2  0  0  0  0
 32 27  1  0  0  0  0
 33 28  1  0  0  0  0
 34 35  1  0  0  0  0
 36 34  1  0  0  0  0
 37 34  1  0  0  0  0
M  END
>  <minimizedAffinity>
-5.73386002

$$$$

 OpenBabel03252505593D

 37 39  0  0  0  0  0  0  0  0999 V2000
   36.3140   31.2300   40.4200 C   0  0  0  0  0  0  0  0  0  0  0  0
   37.6480   31.6730   40.5340 C   0  0  0  0  0  0  0  0  0  0  0  0
   38.5490   30.8380   41.2100 C   0  0  0  0  0  0  0  0  0  0  0  0
   38.0840   29.6790   41.7000 N   0  0  0  0  0  0  0  0  0  0  0  0
   36.8100   29.2890   41.5740 C   0  0  0  0  0  0  0  0  0  0  0  0
   35.9240   30.0550   40.9390 N   0  0  0  0  0  0  0  0  0  0  0  0
   35.5940   31.8650   39.8970 H   0  0  0  0  0  0  0  0  0  0  0  0
   39.9350   31.2100   41.3830 C   0  0  0  0  0  3  0  0  0  0  0  0
   40.8150   30.3470   40.5160 C   0  0  0  0  0  3  0  0  0  0  0  0
   40.6620   30.4860   39.4350 H   0  0  0  0  0  0  0  0  0  0  0  0
   42.2800   30.4520   40.8880 C   0  0  0  0  0  3  0  0  0  0  0  0
   42.6140   29.5650   41.4870 H   0  0  0  0  0  0  0  0  0  0  0  0
   42.4090   31.5370   41.7580 O   0  0  0  0  0  0  0  0  0  0  0  0
   41.8150   31.1640   42.9860 C   0  0  0  0  0  3  0  0  0  0  0  0
   41.8170   32.1210   43.5850 H   0  0  0  0  0  0  0  0  0  0  0  0
   40.3850   30.7070   42.7890 C   0  0  0  0  0  3  0  0  0  0  0  0
   39.7710   31.1730   43.5640 H   0  0  0  0  0  0  0  0  0  0  0  0
   38.0370   32.9610   39.9270 C   0  0  0  0  0  0  0  0  0  0  0  0
   38.4730   33.7330   40.9740 F   0  0  0  0  0  0  0  0  0  0  0  0
   36.8520   33.5520   39.4510 F   0  0  0  0  0  0  0  0  0  0  0  0
   38.9390   32.8250   38.9810 F   0  0  0  0  0  0  0  0  0  0  0  0
   36.3410   28.0870   42.0880 O   0  0  0  0  0  0  0  0  0  0  0  0
   37.0020   27.4200   43.1190 C   0  0  0  0  0  0  0  0  0  0  0  0
   37.8210   28.0380   43.5420 H   0  0  0  0  0  0  0  0  0  0  0  0
   36.3020   27.1750   43.9550 H   0  0  0  0  0  0  0  0  0  0  0  0
   37.6100   26.2040   42.5600 C   0  0  0  0  0  0  0  0  0  0  0  0
   37.0010   25.0260   42.1920 C   0  0  0  0  0  0  0  0  0  0  0  0
   37.8060   24.0400   41.6930 C   0  0  0  0  0  0  0  0  0  0  0  0
   39.1160   24.1840   41.5600 N   0  0  0  0  0  0  0  0  0  0  0  0
   39.6890   25.3330   41.9220 C   0  0  0  0  0  0  0  0  0  0  0  0
   38.9520   26.3610   42.4270 N   0  0  0  0  0  0  0  0  0  0  0  0
   35.9540   25.0120   42.3370 H   0  0  0  0  0  0  0  0  0  0  0  0
   37.3060   23.1100   41.4050 H   0  0  0  0  0  0  0  0  0  0  0  0
   41.1710   25.4080   41.7350 C   0  0  0  0  0  0  0  0  0  0  0  0
   41.5480   24.9020   40.5210 F   0  0  0  0  0  0  0  0  0  0  0  0
   41.8060   24.6980   42.7680 F   0  0  0  0  0  0  0  0  0  0  0  0
   41.6310   26.7070   41.7990 F   0  0  0  0  0  0  0  0  0  0  0  0
  1  2  2  0  0  0  0
  1  6  1  0  0  0  0
  2  3  1  0  0  0  0
  3  8  1  0  0  0  0
  3  4  2  0  0  0  0
  5  4  1  0  0  0  0
  5 22  1  0  0  0  0
  6  5  2  0  0  0  0
  7  1  1  0  0  0  0
  8 16  1  0  0  0  0
  9 11  1  0  0  0  0
  9  8  1  0  0  0  0
 10  9  1  0  0  0  0
 11 12  1  0  0  0  0
 11 13  1  0  0  0  0
 13 14  1  0  0  0  0
 14 15  1  0  0  0  0
 16 14  1  0  0  0  0
 16 17  1  0  0  0  0
 18  2  1  0  0  0  0
 18 19  1  0  0  0  0
 20 18  1  0  0  0  0
 21 18  1  0  0  0  0
 22 23  1  0  0  0  0
 23 24  1  0  0  0  0
 23 25  1  0  0  0  0
 26 23  1  0  0  0  0
 27 32  1  0  0  0  0
 27 26  2  0  0  0  0
 28 27  1  0  0  0  0
 29 28  2  0  0  0  0
 29 30  1  0  0  0  0
 30 31  2  0  0  0  0
 31 26  1  0  0  0  0
 33 28  1  0  0  0  0
 34 37  1  0  0  0  0
 34 30  1  0  0  0  0
 34 36  1  0  0  0  0
 35 34  1  0  0  0  0
M  END
>  <minimizedAffinity>
-5.6840539

$$$$

 OpenBabel03252505593D

 37 39  0  0  0  0  0  0  0  0999 V2000
   35.7850   29.2350   40.6290 C   0  0  0  0  0  0  0  0  0  0  0  0
   36.4630   28.0990   41.1200 C   0  0  0  0  0  0  0  0  0  0  0  0
   36.6280   27.0170   40.2430 C   0  0  0  0  0  0  0  0  0  0  0  0
   36.1340   27.1340   39.0020 N   0  0  0  0  0  0  0  0  0  0  0  0
   35.4950   28.2270   38.5680 C   0  0  0  0  0  0  0  0  0  0  0  0
   35.3180   29.2750   39.3700 N   0  0  0  0  0  0  0  0  0  0  0  0
   35.6440   30.0890   41.2940 H   0  0  0  0  0  0  0  0  0  0  0  0
   37.3030   25.8090   40.6590 C   0  0  0  0  0  3  0  0  0  0  0  0
   38.5790   25.6320   39.8770 C   0  0  0  0  0  3  0  0  0  0  0  0
   39.3370   26.4070   40.0650 H   0  0  0  0  0  0  0  0  0  0  0  0
   39.1600   24.2400   40.0180 C   0  0  0  0  0  3  0  0  0  0  0  0
   38.9430   23.6130   39.1150 H   0  0  0  0  0  0  0  0  0  0  0  0
   38.4770   23.6120   41.0620 O   0  0  0  0  0  0  0  0  0  0  0  0
   37.1660   23.3420   40.6030 C   0  0  0  0  0  3  0  0  0  0  0  0
   36.6300   22.9770   41.5270 H   0  0  0  0  0  0  0  0  0  0  0  0
   36.4900   24.6000   40.1020 C   0  0  0  0  0  3  0  0  0  0  0  0
   35.4730   24.6200   40.5030 H   0  0  0  0  0  0  0  0  0  0  0  0
   36.9800   28.1080   42.5030 C   0  0  0  0  0  0  0  0  0  0  0  0
   36.9480   29.4230   42.8880 F   0  0  0  0  0  0  0  0  0  0  0  0
   38.3360   27.7390   42.4240 F   0  0  0  0  0  0  0  0  0  0  0  0
   36.2980   27.3220   43.3050 F   0  0  0  0  0  0  0  0  0  0  0  0
   34.9860   28.3340   37.2800 O   0  0  0  0  0  0  0  0  0  0  0  0
   33.7760   27.7450   36.9160 C   0  0  0  0  0  0  0  0  0  0  0  0
   33.9190   26.9800   36.1270 H   0  0  0  0  0  0  0  0  0  0  0  0
   33.2950   27.2400   37.7900 H   0  0  0  0  0  0  0  0  0  0  0  0
   32.9060   28.7930   36.3630 C   0  0  0  0  0  0  0  0  0  0  0  0
   32.9130   29.3440   35.1010 C   0  0  0  0  0  0  0  0  0  0  0  0
   31.9860   30.3140   34.8410 C   0  0  0  0  0  0  0  0  0  0  0  0
   31.1080   30.7250   35.7440 N   0  0  0  0  0  0  0  0  0  0  0  0
   31.1160   30.1810   36.9610 C   0  0  0  0  0  0  0  0  0  0  0  0
   32.0100   29.2080   37.2940 N   0  0  0  0  0  0  0  0  0  0  0  0
   33.6510   28.9470   34.4570 H   0  0  0  0  0  0  0  0  0  0  0  0
   32.0060   30.7410   33.8330 H   0  0  0  0  0  0  0  0  0  0  0  0
   30.0900   30.7050   37.9150 C   0  0  0  0  0  0  0  0  0  0  0  0
   28.8220   30.3830   37.5120 F   0  0  0  0  0  0  0  0  0  0  0  0
   30.2210   32.0990   38.0180 F   0  0  0  0  0  0  0  0  0  0  0  0
   30.2600   30.1910   39.1840 F   0  0  0  0  0  0  0  0  0  0  0  0
  1  2  1  0  0  0  0
  1  7  1  0  0  0  0
  2 18  1  0  0  0  0
  3  8  1  0  0  0  0
  3  2  2  0  0  0  0
  4  3  1  0  0  0  0
  5  4  2  0  0  0  0
  5  6  1  0  0  0  0
  6  1  2  0  0  0  0
  9 11  1  0  0  0  0
  9 10  1  0  0  0  0
  9  8  1  0  0  0  0
 11 13  1  0  0  0  0
 12 11  1  0  0  0  0
 14 13  1  0  0  0  0
 14 15  1  0  0  0  0
 16 17  1  0  0  0  0
 16 14  1  0  0  0  0
 16  8  1  0  0  0  0
 18 19  1  0  0  0  0
 18 21  1  0  0  0  0
 20 18  1  0  0  0  0
 22  5  1  0  0  0  0
 23 22  1  0  0  0  0
 23 25  1  0  0  0  0
 24 23  1  0  0  0  0
 26 23  1  0  0  0  0
 26 31  1  0  0  0  0
 27 26  2  0  0  0  0
 28 27  1  0  0  0  0
 28 29  2  0  0  0  0
 29 30  1  0  0  0  0
 30 31  2  0  0  0  0
 30 34  1  0  0  0  0
 32 27  1  0  0  0  0
 33 28  1  0  0  0  0
 34 36  1  0  0  0  0
 34 37  1  0  0  0  0
 35 34  1  0  0  0  0
M  END
>  <minimizedAffinity>
-5.59343433

$$$$

 OpenBabel03252505593D

 37 39  0  0  0  0  0  0  0  0999 V2000
   39.6240   26.2510   42.3670 C   0  0  0  0  0  0  0  0  0  0  0  0
   38.3950   26.3190   41.6780 C   0  0  0  0  0  0  0  0  0  0  0  0
   38.0680   27.5340   41.0600 C   0  0  0  0  0  0  0  0  0  0  0  0
   38.9420   28.5460   41.1640 N   0  0  0  0  0  0  0  0  0  0  0  0
   40.1000   28.4490   41.8270 C   0  0  0  0  0  0  0  0  0  0  0  0
   40.4460   27.3110   42.4270 N   0  0  0  0  0  0  0  0  0  0  0  0
   39.9000   25.3140   42.8560 H   0  0  0  0  0  0  0  0  0  0  0  0
   36.8280   27.7000   40.3380 C   0  0  0  0  0  3  0  0  0  0  0  0
   37.1080   28.1120   38.9150 C   0  0  0  0  0  3  0  0  0  0  0  0
   37.6330   27.3520   38.3180 H   0  0  0  0  0  0  0  0  0  0  0  0
   35.8710   28.6210   38.2030 C   0  0  0  0  0  3  0  0  0  0  0  0
   35.8640   29.7410   38.1450 H   0  0  0  0  0  0  0  0  0  0  0  0
   34.7720   28.2980   39.0020 O   0  0  0  0  0  0  0  0  0  0  0  0
   34.8230   29.1320   40.1430 C   0  0  0  0  0  3  0  0  0  0  0  0
   34.0070   28.7240   40.8080 H   0  0  0  0  0  0  0  0  0  0  0  0
   36.1520   29.0070   40.8560 C   0  0  0  0  0  3  0  0  0  0  0  0
   35.9550   28.9230   41.9280 H   0  0  0  0  0  0  0  0  0  0  0  0
   37.5330   25.1220   41.6180 C   0  0  0  0  0  0  0  0  0  0  0  0
   36.5790   25.3190   42.5830 F   0  0  0  0  0  0  0  0  0  0  0  0
   38.3250   24.0380   42.0440 F   0  0  0  0  0  0  0  0  0  0  0  0
   37.0220   24.9240   40.4240 F   0  0  0  0  0  0  0  0  0  0  0  0
   40.9960   29.5060   41.9290 O   0  0  0  0  0  0  0  0  0  0  0  0
   40.6350   30.7210   42.5110 C   0  0  0  0  0  0  0  0  0  0  0  0
   39.6660   30.6430   43.0450 H   0  0  0  0  0  0  0  0  0  0  0  0
   41.4010   31.0550   43.2530 H   0  0  0  0  0  0  0  0  0  0  0  0
   40.4690   31.7100   41.4370 C   0  0  0  0  0  0  0  0  0  0  0  0
   41.4250   32.4900   40.8260 C   0  0  0  0  0  0  0  0  0  0  0  0
   40.9990   33.3390   39.8430 C   0  0  0  0  0  0  0  0  0  0  0  0
   39.7300   33.4270   39.4740 N   0  0  0  0  0  0  0  0  0  0  0  0
   38.8170   32.6640   40.0760 C   0  0  0  0  0  0  0  0  0  0  0  0
   39.1660   31.7940   41.0650 N   0  0  0  0  0  0  0  0  0  0  0  0
   42.4060   32.3440   41.1930 H   0  0  0  0  0  0  0  0  0  0  0  0
   41.7720   33.9520   39.3680 H   0  0  0  0  0  0  0  0  0  0  0  0
   37.4110   32.8290   39.5950 C   0  0  0  0  0  0  0  0  0  0  0  0
   36.5230   32.1880   40.4160 F   0  0  0  0  0  0  0  0  0  0  0  0
   37.3050   32.3260   38.2880 F   0  0  0  0  0  0  0  0  0  0  0  0
   37.0390   34.1570   39.5450 F   0  0  0  0  0  0  0  0  0  0  0  0
  1  6  1  0  0  0  0
  1  7  1  0  0  0  0
  2  1  2  0  0  0  0
  3  4  2  0  0  0  0
  3  2  1  0  0  0  0
  4  5  1  0  0  0  0
  5 22  1  0  0  0  0
  5  6  2  0  0  0  0
  8 16  1  0  0  0  0
  8  3  1  0  0  0  0
  9  8  1  0  0  0  0
 10  9  1  0  0  0  0
 11  9  1  0  0  0  0
 11 13  1  0  0  0  0
 12 11  1  0  0  0  0
 13 14  1  0  0  0  0
 14 15  1  0  0  0  0
 14 16  1  0  0  0  0
 16 17  1  0  0  0  0
 18  2  1  0  0  0  0
 18 20  1  0  0  0  0
 18 19  1  0  0  0  0
 21 18  1  0  0  0  0
 22 23  1  0  0  0  0
 23 24  1  0  0  0  0
 23 25  1  0  0  0  0
 26 23  1  0  0  0  0
 27 32  1  0  0  0  0
 27 26  2  0  0  0  0
 28 27  1  0  0  0  0
 29 28  2  0  0  0  0
 29 30  1  0  0  0  0
 30 31  2  0  0  0  0
 31 26  1  0  0  0  0
 33 28  1  0  0  0  0
 34 30  1  0  0  0  0
 34 35  1  0  0  0  0
 36 34  1  0  0  0  0
 37 34  1  0  0  0  0
M  END
>  <minimizedAffinity>
-5.56956387

$$$$

 OpenBabel03252505593D

 37 39  0  0  0  0  0  0  0  0999 V2000
   37.2600   26.5360   42.6420 C   0  0  0  0  0  0  0  0  0  0  0  0
   37.1070   25.8660   41.4100 C   0  0  0  0  0  0  0  0  0  0  0  0
   36.8140   26.6480   40.2830 C   0  0  0  0  0  0  0  0  0  0  0  0
   36.7020   27.9740   40.4510 N   0  0  0  0  0  0  0  0  0  0  0  0
   36.8540   28.5770   41.6360 C   0  0  0  0  0  0  0  0  0  0  0  0
   37.1310   27.8690   42.7290 N   0  0  0  0  0  0  0  0  0  0  0  0
   37.4880   25.9470   43.5340 H   0  0  0  0  0  0  0  0  0  0  0  0
   36.6330   26.0500   38.9800 C   0  0  0  0  0  3  0  0  0  0  0  0
   37.8470   26.2990   38.1220 C   0  0  0  0  0  3  0  0  0  0  0  0
   38.7640   25.8130   38.4830 H   0  0  0  0  0  0  0  0  0  0  0  0
   37.5960   25.9970   36.6590 C   0  0  0  0  0  3  0  0  0  0  0  0
   37.4320   26.9370   36.0690 H   0  0  0  0  0  0  0  0  0  0  0  0
   36.3820   25.3110   36.5810 O   0  0  0  0  0  0  0  0  0  0  0  0
   35.3550   26.2380   36.8730 C   0  0  0  0  0  3  0  0  0  0  0  0
   34.4280   25.5980   36.9410 H   0  0  0  0  0  0  0  0  0  0  0  0
   35.5890   26.9140   38.2080 C   0  0  0  0  0  3  0  0  0  0  0  0
   34.6410   26.9250   38.7520 H   0  0  0  0  0  0  0  0  0  0  0  0
   37.2800   24.4010   41.3570 C   0  0  0  0  0  0  0  0  0  0  0  0
   36.0360   23.9030   41.0660 F   0  0  0  0  0  0  0  0  0  0  0  0
   37.5890   23.9880   42.6670 F   0  0  0  0  0  0  0  0  0  0  0  0
   38.1960   24.0290   40.4910 F   0  0  0  0  0  0  0  0  0  0  0  0
   36.7320   29.9520   41.7960 O   0  0  0  0  0  0  0  0  0  0  0  0
   36.4010   30.7900   40.7330 C   0  0  0  0  0  0  0  0  0  0  0  0
   36.3190   30.2250   39.7820 H   0  0  0  0  0  0  0  0  0  0  0  0
   35.4190   31.2940   40.9080 H   0  0  0  0  0  0  0  0  0  0  0  0
   37.4810   31.7720   40.5710 C   0  0  0  0  0  0  0  0  0  0  0  0
   37.4460   33.0010   39.9510 C   0  0  0  0  0  0  0  0  0  0  0  0
   38.6050   33.7260   39.9410 C   0  0  0  0  0  0  0  0  0  0  0  0
   39.7260   33.2910   40.4950 N   0  0  0  0  0  0  0  0  0  0  0  0
   39.7430   32.0980   41.0920 C   0  0  0  0  0  0  0  0  0  0  0  0
   38.6270   31.3180   41.1420 N   0  0  0  0  0  0  0  0  0  0  0  0
   36.5050   33.2550   39.5410 H   0  0  0  0  0  0  0  0  0  0  0  0
   38.5580   34.7000   39.4430 H   0  0  0  0  0  0  0  0  0  0  0  0
   41.0510   31.6890   41.6910 C   0  0  0  0  0  0  0  0  0  0  0  0
   40.8970   31.2610   42.9820 F   0  0  0  0  0  0  0  0  0  0  0  0
   41.9410   32.7730   41.6480 F   0  0  0  0  0  0  0  0  0  0  0  0
   41.6370   30.6590   40.9840 F   0  0  0  0  0  0  0  0  0  0  0  0
  1  6  1  0  0  0  0
  1  7  1  0  0  0  0
  2  1  2  0  0  0  0
  3  4  2  0  0  0  0
  3  2  1  0  0  0  0
  4  5  1  0  0  0  0
  5 22  1  0  0  0  0
  5  6  2  0  0  0  0
  8  3  1  0  0  0  0
  9 10  1  0  0  0  0
  9  8  1  0  0  0  0
 11  9  1  0  0  0  0
 12 11  1  0  0  0  0
 13 11  1  0  0  0  0
 13 14  1  0  0  0  0
 14 15  1  0  0  0  0
 14 16  1  0  0  0  0
 16 17  1  0  0  0  0
 16  8  1  0  0  0  0
 18  2  1  0  0  0  0
 18 20  1  0  0  0  0
 19 18  1  0  0  0  0
 21 18  1  0  0  0  0
 23 25  1  0  0  0  0
 23 22  1  0  0  0  0
 24 23  1  0  0  0  0
 26 23  1  0  0  0  0
 26 31  1  0  0  0  0
 27 26  2  0  0  0  0
 28 27  1  0  0  0  0
 28 29  2  0  0  0  0
 29 30  1  0  0  0  0
 30 31  2  0  0  0  0
 30 34  1  0  0  0  0
 32 27  1  0  0  0  0
 33 28  1  0  0  0  0
 34 35  1  0  0  0  0
 36 34  1  0  0  0  0
 37 34  1  0  0  0  0
M  END
>  <minimizedAffinity>
-5.54817581

$$$$

 OpenBabel03252505593D

 37 39  0  0  0  0  0  0  0  0999 V2000
   37.8440   30.8940   41.0080 C   0  0  0  0  0  0  0  0  0  0  0  0
   37.5340   30.9420   39.6320 C   0  0  0  0  0  0  0  0  0  0  0  0
   36.7180   29.9230   39.1190 C   0  0  0  0  0  0  0  0  0  0  0  0
   36.2870   28.9770   39.9670 N   0  0  0  0  0  0  0  0  0  0  0  0
   36.6000   28.9620   41.2680 C   0  0  0  0  0  0  0  0  0  0  0  0
   37.3740   29.9110   41.7920 N   0  0  0  0  0  0  0  0  0  0  0  0
   38.4780   31.6770   41.4290 H   0  0  0  0  0  0  0  0  0  0  0  0
   36.3530   29.8850   37.7220 C   0  0  0  0  0  3  0  0  0  0  0  0
   35.0120   29.2160   37.5540 C   0  0  0  0  0  3  0  0  0  0  0  0
   34.1730   29.7640   38.0060 H   0  0  0  0  0  0  0  0  0  0  0  0
   34.7240   28.8460   36.1140 C   0  0  0  0  0  3  0  0  0  0  0  0
   34.8890   27.7520   35.9320 H   0  0  0  0  0  0  0  0  0  0  0  0
   35.6790   29.4870   35.3220 O   0  0  0  0  0  0  0  0  0  0  0  0
   36.9170   28.8420   35.5530 C   0  0  0  0  0  3  0  0  0  0  0  0
   37.6620   29.4930   35.0090 H   0  0  0  0  0  0  0  0  0  0  0  0
   37.2600   28.8230   37.0280 C   0  0  0  0  0  3  0  0  0  0  0  0
   38.3100   29.1050   37.1340 H   0  0  0  0  0  0  0  0  0  0  0  0
   38.0530   32.0540   38.8120 C   0  0  0  0  0  0  0  0  0  0  0  0
   38.9900   31.4840   37.9880 F   0  0  0  0  0  0  0  0  0  0  0  0
   38.7480   32.9070   39.6900 F   0  0  0  0  0  0  0  0  0  0  0  0
   37.1070   32.6840   38.1530 F   0  0  0  0  0  0  0  0  0  0  0  0
   36.1500   27.9740   42.1340 O   0  0  0  0  0  0  0  0  0  0  0  0
   36.9770   27.4180   43.1090 C   0  0  0  0  0  0  0  0  0  0  0  0
   37.7930   28.1130   43.3930 H   0  0  0  0  0  0  0  0  0  0  0  0
   36.4020   27.1800   44.0380 H   0  0  0  0  0  0  0  0  0  0  0  0
   37.6010   26.2120   42.5460 C   0  0  0  0  0  0  0  0  0  0  0  0
   37.0000   25.0510   42.1140 C   0  0  0  0  0  0  0  0  0  0  0  0
   37.8190   24.0720   41.6270 C   0  0  0  0  0  0  0  0  0  0  0  0
   39.1360   24.2060   41.5620 N   0  0  0  0  0  0  0  0  0  0  0  0
   39.7010   25.3380   41.9840 C   0  0  0  0  0  0  0  0  0  0  0  0
   38.9490   26.3590   42.4830 N   0  0  0  0  0  0  0  0  0  0  0  0
   35.9470   25.0440   42.2080 H   0  0  0  0  0  0  0  0  0  0  0  0
   37.3250   23.1550   41.2880 H   0  0  0  0  0  0  0  0  0  0  0  0
   41.1910   25.4020   41.8720 C   0  0  0  0  0  0  0  0  0  0  0  0
   41.7980   24.7000   42.8770 F   0  0  0  0  0  0  0  0  0  0  0  0
   41.6020   26.7440   41.9090 F   0  0  0  0  0  0  0  0  0  0  0  0
   41.6370   24.8780   40.6770 F   0  0  0  0  0  0  0  0  0  0  0  0
  1  7  1  0  0  0  0
  1  6  1  0  0  0  0
  2  1  2  0  0  0  0
  3  2  1  0  0  0  0
  3  4  2  0  0  0  0
  4  5  1  0  0  0  0
  5  6  2  0  0  0  0
  5 22  1  0  0  0  0
  8  3  1  0  0  0  0
  9  8  1  0  0  0  0
  9 10  1  0  0  0  0
 11  9  1  0  0  0  0
 12 11  1  0  0  0  0
 13 14  1  0  0  0  0
 13 11  1  0  0  0  0
 14 16  1  0  0  0  0
 15 14  1  0  0  0  0
 16 17  1  0  0  0  0
 16  8  1  0  0  0  0
 18  2  1  0  0  0  0
 18 20  1  0  0  0  0
 19 18  1  0  0  0  0
 21 18  1  0  0  0  0
 22 23  1  0  0  0  0
 23 24  1  0  0  0  0
 23 25  1  0  0  0  0
 26 23  1  0  0  0  0
 27 32  1  0  0  0  0
 27 26  2  0  0  0  0
 28 27  1  0  0  0  0
 29 28  2  0  0  0  0
 29 30  1  0  0  0  0
 30 31  2  0  0  0  0
 31 26  1  0  0  0  0
 33 28  1  0  0  0  0
 34 36  1  0  0  0  0
 34 30  1  0  0  0  0
 34 35  1  0  0  0  0
 37 34  1  0  0  0  0
M  END
>  <minimizedAffinity>
-5.53538895

$$$$

 OpenBabel03252505593D

 37 39  0  0  0  0  0  0  0  0999 V2000
   36.3300   24.4620   39.2170 C   0  0  0  0  0  0  0  0  0  0  0  0
   36.9290   25.0360   40.3580 C   0  0  0  0  0  0  0  0  0  0  0  0
   36.9330   26.4360   40.4490 C   0  0  0  0  0  0  0  0  0  0  0  0
   36.3680   27.1310   39.4500 N   0  0  0  0  0  0  0  0  0  0  0  0
   35.8080   26.5530   38.3810 C   0  0  0  0  0  0  0  0  0  0  0  0
   35.7860   25.2270   38.2580 N   0  0  0  0  0  0  0  0  0  0  0  0
   36.3150   23.3740   39.1250 H   0  0  0  0  0  0  0  0  0  0  0  0
   37.5290   27.1140   41.5760 C   0  0  0  0  0  3  0  0  0  0  0  0
   36.7770   28.3870   41.8730 C   0  0  0  0  0  3  0  0  0  0  0  0
   35.7410   28.2340   42.2060 H   0  0  0  0  0  0  0  0  0  0  0  0
   37.5340   29.3040   42.8120 C   0  0  0  0  0  3  0  0  0  0  0  0
   38.0220   30.1460   42.2560 H   0  0  0  0  0  0  0  0  0  0  0  0
   38.5940   28.5660   43.3450 O   0  0  0  0  0  0  0  0  0  0  0  0
   39.5310   28.3670   42.3050 C   0  0  0  0  0  3  0  0  0  0  0  0
   40.2780   27.6480   42.7520 H   0  0  0  0  0  0  0  0  0  0  0  0
   38.8840   27.7200   41.0980 C   0  0  0  0  0  3  0  0  0  0  0  0
   39.5440   26.9230   40.7470 H   0  0  0  0  0  0  0  0  0  0  0  0
   37.4940   24.1560   41.3990 C   0  0  0  0  0  0  0  0  0  0  0  0
   37.2550   22.8800   40.9560 F   0  0  0  0  0  0  0  0  0  0  0  0
   36.7060   24.3420   42.5500 F   0  0  0  0  0  0  0  0  0  0  0  0
   38.7670   24.3890   41.6260 F   0  0  0  0  0  0  0  0  0  0  0  0
   35.2300   27.2860   37.3520 O   0  0  0  0  0  0  0  0  0  0  0  0
   34.9900   28.6540   37.4680 C   0  0  0  0  0  0  0  0  0  0  0  0
   34.8900   28.9590   38.5290 H   0  0  0  0  0  0  0  0  0  0  0  0
   35.8260   29.2490   37.0250 H   0  0  0  0  0  0  0  0  0  0  0  0
   33.7140   28.9520   36.8010 C   0  0  0  0  0  0  0  0  0  0  0  0
   33.4010   28.8730   35.4620 C   0  0  0  0  0  0  0  0  0  0  0  0
   32.1260   29.2100   35.1020 C   0  0  0  0  0  0  0  0  0  0  0  0
   31.2130   29.5990   35.9790 N   0  0  0  0  0  0  0  0  0  0  0  0
   31.5340   29.6700   37.2720 C   0  0  0  0  0  0  0  0  0  0  0  0
   32.7850   29.3500   37.7070 N   0  0  0  0  0  0  0  0  0  0  0  0
   34.1980   28.5520   34.8460 H   0  0  0  0  0  0  0  0  0  0  0  0
   31.8940   29.1410   34.0340 H   0  0  0  0  0  0  0  0  0  0  0  0
   30.4420   30.1180   38.1900 C   0  0  0  0  0  0  0  0  0  0  0  0
   30.7120   29.7830   39.4890 F   0  0  0  0  0  0  0  0  0  0  0  0
   29.2290   29.5360   37.7870 F   0  0  0  0  0  0  0  0  0  0  0  0
   30.2650   31.4850   38.1470 F   0  0  0  0  0  0  0  0  0  0  0  0
  1  2  1  0  0  0  0
  2  3  2  0  0  0  0
  2 18  1  0  0  0  0
  3  8  1  0  0  0  0
  4  3  1  0  0  0  0
  5  4  2  0  0  0  0
  6  5  1  0  0  0  0
  6  1  2  0  0  0  0
  7  1  1  0  0  0  0
  8  9  1  0  0  0  0
  9 10  1  0  0  0  0
  9 11  1  0  0  0  0
 11 13  1  0  0  0  0
 12 11  1  0  0  0  0
 14 15  1  0  0  0  0
 14 13  1  0  0  0  0
 16  8  1  0  0  0  0
 16 14  1  0  0  0  0
 17 16  1  0  0  0  0
 18 21  1  0  0  0  0
 18 20  1  0  0  0  0
 19 18  1  0  0  0  0
 22 23  1  0  0  0  0
 22  5  1  0  0  0  0
 23 24  1  0  0  0  0
 25 23  1  0  0  0  0
 26 23  1  0  0  0  0
 26 31  1  0  0  0  0
 27 26  2  0  0  0  0
 28 27  1  0  0  0  0
 28 29  2  0  0  0  0
 29 30  1  0  0  0  0
 30 31  2  0  0  0  0
 30 34  1  0  0  0  0
 32 27  1  0  0  0  0
 33 28  1  0  0  0  0
 34 35  1  0  0  0  0
 36 34  1  0  0  0  0
 37 34  1  0  0  0  0
M  END
>  <minimizedAffinity>
-5.4655242

$$$$
