
     RDKit          3D

 53 56  0  0  0  0  0  0  0  0999 V2000
   45.1236   35.5482   43.2474 C   0  0  0  0  0  0  0  0  0  0  0  0
   45.5125   34.2269   43.3115 C   0  0  0  0  0  0  0  0  0  0  0  0
   45.4606   33.5307   44.4856 C   0  0  0  0  0  0  0  0  0  0  0  0
   44.9931   34.2364   45.5905 N   0  0  0  0  0  0  0  0  0  0  0  0
   44.6194   35.5020   45.5328 C   0  0  0  0  0  0  0  0  0  0  0  0
   44.6899   36.1519   44.3484 N   0  0  0  0  0  0  0  0  0  0  0  0
   45.8207   32.1929   44.7320 C   0  0  0  0  0  0  0  0  0  0  0  0
   45.4861   31.1437   43.8543 C   0  0  0  0  0  0  0  0  0  0  0  0
   45.7732   29.8254   44.0894 C   0  0  0  0  0  0  0  0  0  0  0  0
   46.4312   29.4690   45.2518 C   0  0  0  0  0  0  0  0  0  0  0  0
   46.7815   30.5218   46.1575 C   0  0  0  0  0  0  0  0  0  0  0  0
   47.4282   30.1793   47.3076 C   0  0  0  0  0  0  0  0  0  0  0  0
   47.7907   31.1480   48.2147 C   0  0  0  0  0  0  0  0  0  0  0  0
   47.4894   32.4951   47.9436 C   0  0  0  0  0  0  0  0  0  0  0  0
   46.8177   32.7865   46.7357 C   0  0  0  0  0  0  0  0  0  0  0  0
   46.4696   31.8069   45.8628 C   0  0  0  0  0  0  0  0  0  0  0  0
   45.9465   33.6482   42.1524 O   0  0  0  0  0  0  0  0  0  0  0  0
   48.1569   32.3733   41.5451 O   0  0  0  0  0  0  0  0  0  0  0  0
   47.5047   33.7226   41.5472 P   0  0  1  0  0  0  0  0  0  0  0  0
   47.5492   34.2973   39.9625 O   0  0  0  0  0  0  0  0  0  0  0  0
   46.8030   33.3753   39.2070 C   0  0  0  0  0  0  0  0  0  0  0  0
   48.4019   34.7625   42.5310 O   0  0  0  0  0  0  0  0  0  0  0  0
   49.6096   35.3606   42.2435 C   0  0  0  0  0  0  0  0  0  0  0  0
   49.3474   36.3888   41.6329 O   0  0  0  0  0  0  0  0  0  0  0  0
   50.7033   34.5917   42.7459 N   0  0  0  0  0  0  0  0  0  0  0  0
   45.1494   36.1407   42.3350 H   0  0  0  0  0  0  0  0  0  0  0  0
   44.2611   35.9980   46.4430 H   0  0  0  0  0  0  0  0  0  0  0  0
   44.9705   31.4018   42.9397 H   0  0  0  0  0  0  0  0  0  0  0  0
   45.4759   29.0917   43.3547 H   0  0  0  0  0  0  0  0  0  0  0  0
   46.6596   28.4493   45.4489 H   0  0  0  0  0  0  0  0  0  0  0  0
   47.6468   29.1215   47.4832 H   0  0  0  0  0  0  0  0  0  0  0  0
   48.2926   30.7878   49.0891 H   0  0  0  0  0  0  0  0  0  0  0  0
   47.8190   33.1521   48.7144 H   0  0  0  0  0  0  0  0  0  0  0  0
   46.7153   33.8520   46.7253 H   0  0  0  0  0  0  0  0  0  0  0  0
   45.8412   33.1164   39.6448 H   0  0  0  0  0  0  0  0  0  0  0  0
   47.4134   32.4271   39.2517 H   0  0  0  0  0  0  0  0  0  0  0  0
   50.9907   34.4463   43.7633 H   0  0  0  0  0  0  0  0  0  0  0  0
   51.5317   33.9894   42.5382 H   0  0  0  0  0  0  0  0  0  0  0  0
   46.7537   33.7596   37.7592 C   0  0  2  0  0  0  0  0  0  0  0  0
   45.4898   33.3110   37.0732 C   0  0  2  0  0  0  0  0  0  0  0  0
   45.5286   33.7578   36.0365 H   0  0  0  0  0  0  0  0  0  0  0  0
   45.4470   31.8301   36.8684 C   0  0  1  0  0  0  0  0  0  0  0  0
   44.5103   31.4699   37.3869 H   0  0  0  0  0  0  0  0  0  0  0  0
   46.4755   31.1226   37.4413 O   0  0  0  0  0  0  0  0  0  0  0  0
   47.7400   31.5815   37.2131 C   0  0  2  0  0  0  0  0  0  0  0  0
   48.2513   31.0563   36.3570 H   0  0  0  0  0  0  0  0  0  0  0  0
   47.8960   33.0544   37.0587 C   0  0  1  0  0  0  0  0  0  0  0  0
   47.9625   33.3701   35.9798 H   0  0  0  0  0  0  0  0  0  0  0  0
   46.8862   34.8512   37.6607 H   0  0  0  0  0  0  0  0  0  0  0  0
   44.6005   33.7403   37.5733 H   0  0  0  0  0  0  0  0  0  0  0  0
   45.2883   31.5245   35.7988 H   0  0  0  0  0  0  0  0  0  0  0  0
   48.3542   31.2680   38.1028 H   0  0  0  0  0  0  0  0  0  0  0  0
   48.8382   33.4394   37.5183 H   0  0  0  0  0  0  0  0  0  0  0  0
  1  2  2  0
  1  6  1  0
  2  3  1  0
  3  7  1  0
  3  4  2  0
  5  4  1  0
  6  5  2  0
  7 16  2  0
  8  9  2  0
  8  7  1  0
  9 10  1  0
 10 11  2  0
 11 12  1  0
 12 13  2  0
 14 13  1  0
 15 14  2  0
 16 11  1  0
 16 15  1  0
 17  2  1  0
 19 18  2  0
 19 17  1  1
 19 22  1  0
 20 19  1  0
 21 20  1  0
 23 22  1  0
 23 25  1  0
 24 23  2  0
  1 26  1  0
  5 27  1  0
  8 28  1  0
  9 29  1  0
 10 30  1  0
 12 31  1  0
 13 32  1  0
 14 33  1  0
 15 34  1  0
 21 35  1  0
 21 36  1  0
 25 37  1  0
 25 38  1  0
 39 40  1  0
 40 41  1  6
 40 42  1  0
 42 43  1  1
 42 44  1  0
 44 45  1  0
 45 46  1  6
 45 47  1  0
 47 48  1  6
 47 39  1  0
 39 49  1  1
 40 50  1  0
 42 51  1  0
 45 52  1  0
 47 53  1  0
 21 39  1  0
M  ISO  8  26  14  27  14  28  14  29  14  30  14  31  14  32  14  33  14
M  ISO  7  34  14  35   8  36   8  41  15  43  15  46  15  48  15
M  END
>  <DihAtoms>  (1) 
19,20,38,39

>  <DihDeg>  (1) 
-59.999819254122876

$$$$
