
     RDKit          3D

 27 28  0  0  0  0  0  0  0  0999 V2000
   47.6763   34.9543   42.3534 C   0  0  0  0  0  0  0  0  0  0  0  0
   47.9267   33.9052   43.2457 C   0  0  0  0  0  0  0  0  0  0  0  0
   46.8946   33.5279   44.1265 C   0  0  0  0  0  0  0  0  0  0  0  0
   45.7296   34.2030   44.0532 N   0  0  0  0  0  0  0  0  0  0  0  0
   45.5057   35.2138   43.1848 C   0  0  0  0  0  0  0  0  0  0  0  0
   46.4846   35.5816   42.3397 N   0  0  0  0  0  0  0  0  0  0  0  0
   48.7957   35.3382   41.4226 C   0  0  0  0  0  0  0  0  0  0  0  0
   48.4182   35.2415   40.1112 F   0  0  0  0  0  0  0  0  0  0  0  0
   49.2082   36.6136   41.7477 F   0  0  0  0  0  0  0  0  0  0  0  0
   49.8925   34.5059   41.6732 F   0  0  0  0  0  0  0  0  0  0  0  0
   48.8817   33.3816   43.2769 H   0  0  0  0  0  0  0  0  0  0  0  0
   44.5454   35.7173   43.1757 H   0  0  0  0  0  0  0  0  0  0  0  0
   47.1355   32.4220   45.0786 C   0  0  2  0  0  0  0  0  0  0  0  0
   48.6248   32.2527   45.2572 C   0  0  2  0  0  0  0  0  0  0  0  0
   49.0370   32.9354   46.0126 H   0  0  0  0  0  0  0  0  0  0  0  0
   48.8555   30.7989   45.5997 C   0  0  1  0  0  0  0  0  0  0  0  0
   49.9589   30.7033   45.7883 H   0  0  0  0  0  0  0  0  0  0  0  0
   48.5962   30.0450   44.4771 O   0  0  0  0  0  0  0  0  0  0  0  0
   47.3272   30.1793   43.9623 C   0  0  2  0  0  0  0  0  0  0  0  0
   46.8344   29.1874   44.0040 H   0  0  0  0  0  0  0  0  0  0  0  0
   46.4430   31.1604   44.6782 C   0  0  1  0  0  0  0  0  0  0  0  0
   45.9158   30.6738   45.5424 H   0  0  0  0  0  0  0  0  0  0  0  0
   46.7449   32.7523   46.0653 H   0  0  0  0  0  0  0  0  0  0  0  0
   49.1000   32.4520   44.2773 H   0  0  0  0  0  0  0  0  0  0  0  0
   48.2760   30.4962   46.4846 H   0  0  0  0  0  0  0  0  0  0  0  0
   47.4325   30.4509   42.8848 H   0  0  0  0  0  0  0  0  0  0  0  0
   45.6353   31.4478   43.9668 H   0  0  0  0  0  0  0  0  0  0  0  0
  1  2  2  0
  2  3  1  0
  4  3  2  0
  5  4  1  0
  6  1  1  0
  6  5  2  0
  7 10  1  0
  7  9  1  0
  7  1  1  0
  8  7  1  0
  2 11  1  0
  5 12  1  0
 13 14  1  0
 14 15  1  1
 14 16  1  0
 16 17  1  1
 16 18  1  0
 18 19  1  0
 19 20  1  6
 19 21  1  0
 21 22  1  1
 21 13  1  0
 13 23  1  1
 14 24  1  0
 16 25  1  0
 19 26  1  0
 21 27  1  0
  3 13  1  0
M  ISO  6  11  14  12  14  15  15  17  15  20  15  22  15
M  END
>  <DihAtoms>  (1) 
1,2,12,13

>  <DihDeg>  (1) 
-114.01727268541798

$$$$
