
 OpenBabel03252508153D

 38 41  0  0  1  0  0  0  0  0999 V2000
   45.7980   32.7300   45.8050 C   0  0  0  0  0  3  0  0  0  0  0  0
   45.9090   31.4730   45.6270 C   0  0  0  0  0  3  0  0  0  0  0  0
   45.3510   35.5700   43.5010 C   0  0  0  0  0  0  0  0  0  0  0  0
   46.0690   35.1900   42.3760 C   0  0  0  0  0  0  0  0  0  0  0  0
   46.7030   33.9610   42.4320 C   0  0  0  0  0  0  0  0  0  0  0  0
   46.5750   33.2420   43.5530 N   0  0  0  0  0  0  0  0  0  0  0  0
   45.8890   33.6020   44.6340 C   0  0  0  0  0  0  0  0  0  0  0  0
   45.2830   34.7860   44.5700 N   0  0  0  0  0  0  0  0  0  0  0  0
   44.8480   36.5250   43.4790 H   0  0  0  0  0  0  0  0  0  0  0  0
   46.1630   35.7730   41.4840 H   0  0  0  0  0  0  0  0  0  0  0  0
   47.5040   33.3990   41.3410 C   0  0  0  0  0  3  0  0  0  0  0  0
   48.9860   33.2930   41.7210 C   0  0  0  0  0  3  0  0  0  0  0  0
   49.4600   34.2780   41.7240 H   0  0  0  0  0  0  0  0  0  0  0  0
   49.6030   32.4350   40.6320 C   0  0  0  0  0  3  0  0  0  0  0  0
   50.6740   32.6680   40.5470 H   0  0  0  0  0  0  0  0  0  0  0  0
   48.8890   32.4730   39.4600 O   0  0  0  0  0  0  0  0  0  0  0  0
   48.3880   33.7180   39.1130 C   0  0  0  0  0  3  0  0  0  0  0  0
   47.7500   33.5350   38.2040 H   0  0  0  0  0  0  0  0  0  0  0  0
   47.4880   34.3320   40.1440 C   0  0  0  0  0  3  0  0  0  0  0  0
   47.9740   35.2880   40.4810 H   0  0  0  0  0  0  0  0  0  0  0  0
   45.8010   30.6270   46.8900 C   0  0  0  0  0  0  0  0  0  0  0  0
   46.6240   29.9040   46.9400 H   0  0  0  0  0  0  0  0  0  0  0  0
   44.8490   30.0730   46.7880 H   0  0  0  0  0  0  0  0  0  0  0  0
   45.6920   31.5280   48.0990 C   0  0  1  0  0  0  0  0  0  0  0  0
   45.5690   30.8460   49.4160 C   0  0  0  0  0  0  0  0  0  0  0  0
   46.7960   31.5470   49.0870 C   0  0  1  0  0  0  0  0  0  0  0  0
   45.1430   32.4740   47.9460 H   0  0  0  0  0  0  0  0  0  0  0  0
   45.5700   29.7340   49.4440 H   0  0  0  0  0  0  0  0  0  0  0  0
   44.8800   31.2660   50.1910 H   0  0  0  0  0  0  0  0  0  0  0  0
   46.9540   32.5350   49.6180 H   0  0  0  0  0  0  0  0  0  0  0  0
   48.0750   30.8960   48.7200 C   0  0  0  0  0  0  0  0  0  0  0  0
   48.9770   30.5170   49.9310 C   0  0  0  0  0  0  0  0  0  0  0  0
   49.3590   31.6780   49.1100 C   0  0  0  0  0  0  0  0  0  0  0  0
   48.1560   30.2510   47.8260 H   0  0  0  0  0  0  0  0  0  0  0  0
   48.5770   30.7320   50.9420 H   0  0  0  0  0  0  0  0  0  0  0  0
   49.5660   29.5850   49.7820 H   0  0  0  0  0  0  0  0  0  0  0  0
   49.1930   32.7010   49.4960 H   0  0  0  0  0  0  0  0  0  0  0  0
   50.1870   31.6280   48.3590 H   0  0  0  0  0  0  0  0  0  0  0  0
  2  1  2  0  0  0  0
  2 21  1  0  0  0  0
  3  8  1  0  0  0  0
  4  5  1  0  0  0  0
  4  3  2  0  0  0  0
  5  6  2  0  0  0  0
  6  7  1  0  0  0  0
  7  1  1  0  0  0  0
  8  7  2  0  0  0  0
  9  3  1  0  0  0  0
 10  4  1  0  0  0  0
 11 12  1  0  0  0  0
 11  5  1  0  0  0  0
 12 13  1  0  0  0  0
 14 12  1  0  0  0  0
 15 14  1  0  0  0  0
 16 14  1  0  0  0  0
 17 16  1  0  0  0  0
 17 19  1  0  0  0  0
 18 17  1  0  0  0  0
 19 20  1  0  0  0  0
 19 11  1  0  0  0  0
 21 22  1  0  0  0  0
 21 24  1  0  0  0  0
 23 21  1  0  0  0  0
 24 27  1  6  0  0  0
 24 26  1  0  0  0  0
 24 25  1  0  0  0  0
 25 28  1  0  0  0  0
 25 29  1  0  0  0  0
 26 25  1  0  0  0  0
 26 30  1  1  0  0  0
 31 26  1  0  0  0  0
 31 33  1  0  0  0  0
 31 32  1  0  0  0  0
 32 35  1  0  0  0  0
 33 37  1  0  0  0  0
 33 32  1  0  0  0  0
 34 31  1  0  0  0  0
 36 32  1  0  0  0  0
 38 33  1  0  0  0  0
M  END
>  <minimizedAffinity>
-4.97997808

>  <minimizedRMSD>
1.53290117

$$$$
