REMARK  Name = 
REMARK  3 active torsions:
REMARK  status: ('A' for Active; 'I' for Inactive)
REMARK    1  A    between atoms: C_2  and  C_13
REMARK    2  A    between atoms: C_3  and  C_7
REMARK    3  A    between atoms: C_20  and  C_36
REMARK                            x       y       z     vdW  Elec       q    Type
REMARK                         _______ _______ _______ _____ _____    ______ ____
ROOT
ATOM      1  C   UNL     1      47.398  33.724  42.725  0.00  0.00    +0.000 C 
ATOM      2  O   UNL     1      48.511  33.517  43.328  0.00  0.00    +0.000 OA
ATOM      3  N   UNL     1      47.142  33.213  41.418  0.00  0.00    +0.000 N 
ATOM      4  C   UNL     1      45.945  32.539  40.895  0.00  0.00    +0.000 C 
ATOM      5  C   UNL     1      45.483  33.242  39.622  0.00  0.00    +0.000 C 
ATOM      6  C   UNL     1      46.546  33.063  38.552  0.00  0.00    +0.000 C 
ATOM      7  C   UNL     1      47.810  32.600  39.175  0.00  0.00    +0.000 C 
ATOM      8  C   UNL     1      48.173  33.344  40.435  0.00  0.00    +0.000 C 
ATOM      9  H   UNL     1      45.141  32.807  41.641  0.00  0.00    +0.000 HD
ATOM     10  H   UNL     1      46.063  31.467  40.801  0.00  0.00    +0.000 HD
ATOM     11  H   UNL     1      45.375  34.316  39.902  0.00  0.00    +0.000 HD
ATOM     12  H   UNL     1      44.510  32.795  39.358  0.00  0.00    +0.000 HD
ATOM     13  H   UNL     1      46.597  33.899  37.862  0.00  0.00    +0.000 HD
ATOM     14  H   UNL     1      46.154  32.202  37.935  0.00  0.00    +0.000 HD
ATOM     15  H   UNL     1      48.669  32.532  38.512  0.00  0.00    +0.000 HD
ATOM     16  H   UNL     1      47.628  31.537  39.518  0.00  0.00    +0.000 HD
ATOM     17  H   UNL     1      49.044  32.785  40.844  0.00  0.00    +0.000 HD
ENDROOT
BRANCH   8  18
ATOM     18  C   UNL     1      48.658  34.729  40.148  0.00  0.00    +0.000 C 
ATOM     19  C   UNL     1      48.372  35.278  38.782  0.00  0.00    +0.000 C 
ATOM     20  H   UNL     1      47.281  35.080  38.600  0.00  0.00    +0.000 HD
ATOM     21  C   UNL     1      48.438  36.812  38.794  0.00  0.00    +0.000 C 
ATOM     22  H   UNL     1      47.508  37.230  39.176  0.00  0.00    +0.000 HD
ATOM     23  O   UNL     1      49.515  37.177  39.572  0.00  0.00    +0.000 OA
ATOM     24  C   UNL     1      49.281  36.953  40.926  0.00  0.00    +0.000 C 
ATOM     25  H   UNL     1      50.261  36.608  41.353  0.00  0.00    +0.000 HD
ATOM     26  C   UNL     1      48.315  35.775  41.150  0.00  0.00    +0.000 C 
ATOM     27  H   UNL     1      47.307  36.215  41.029  0.00  0.00    +0.000 HD
ENDBRANCH   8  18
BRANCH   1  29
ATOM     28  C   UNL     1      46.011  35.719  42.833  0.00  0.00    +0.000 A 
ATOM     29  C   UNL     1      46.383  34.491  43.388  0.00  0.00    +0.000 A 
ATOM     30  C   UNL     1      45.778  34.059  44.545  0.00  0.00    +0.000 A 
ATOM     31  N   UNL     1      44.840  34.840  45.108  0.00  0.00    +0.000 NA
ATOM     32  C   UNL     1      44.471  36.037  44.576  0.00  0.00    +0.000 A 
ATOM     33  N   UNL     1      45.063  36.448  43.453  0.00  0.00    +0.000 NA
ATOM     34  H   UNL     1      46.423  36.143  41.930  0.00  0.00    +0.000 HD
ATOM     35  H   UNL     1      43.701  36.657  45.057  0.00  0.00    +0.000 HD
BRANCH  30  36
ATOM     36  C   UNL     1      46.172  32.784  45.108  0.00  0.00    +0.000 A 
ATOM     37  C   UNL     1      45.793  31.613  44.500  0.00  0.00    +0.000 A 
ATOM     38  C   UNL     1      46.182  30.414  45.054  0.00  0.00    +0.000 A 
ATOM     39  C   UNL     1      46.944  30.323  46.203  0.00  0.00    +0.000 A 
ATOM     40  C   UNL     1      47.293  31.532  46.768  0.00  0.00    +0.000 A 
ATOM     41  N   UNL     1      46.909  32.684  46.220  0.00  0.00    +0.000 NA
ATOM     42  H   UNL     1      45.210  31.526  43.621  0.00  0.00    +0.000 HD
ATOM     43  H   UNL     1      45.905  29.451  44.605  0.00  0.00    +0.000 HD
ATOM     44  H   UNL     1      47.263  29.396  46.658  0.00  0.00    +0.000 HD
ATOM     45  H   UNL     1      47.897  31.568  47.683  0.00  0.00    +0.000 HD
ENDBRANCH  30  36
ENDBRANCH   1  29
TORSDOF 3
