
 OpenBabel03252509053D

 49 51  0  0  1  0  0  0  0  0999 V2000
   47.1590   34.1730   43.0890 N   0  0  0  0  0  0  0  0  0  0  0  0
   46.6560   35.3150   42.4300 C   0  0  0  0  0  0  0  0  0  0  0  0
   45.1640   35.5400   42.5840 C   0  0  0  0  0  0  0  0  0  0  0  0
   44.6100   35.0920   43.9080 C   0  0  0  0  0  0  0  0  0  0  0  0
   45.6980   34.6030   44.8360 C   0  0  0  0  0  0  0  0  0  0  0  0
   46.4050   33.4650   44.0030 C   0  0  2  0  0  0  0  0  0  0  0  0
   46.8620   35.4010   41.3570 H   0  0  0  0  0  0  0  0  0  0  0  0
   47.1480   36.2120   42.8950 H   0  0  0  0  0  0  0  0  0  0  0  0
   44.6550   35.0600   41.7250 H   0  0  0  0  0  0  0  0  0  0  0  0
   44.9660   36.6330   42.5000 H   0  0  0  0  0  0  0  0  0  0  0  0
   44.0490   35.9030   44.4300 H   0  0  0  0  0  0  0  0  0  0  0  0
   43.9000   34.2660   43.7770 H   0  0  0  0  0  0  0  0  0  0  0  0
   45.2350   34.1090   45.6960 H   0  0  0  0  0  0  0  0  0  0  0  0
   46.4470   35.3800   45.0920 H   0  0  0  0  0  0  0  0  0  0  0  0
   45.5530   32.8610   43.6290 H   0  0  0  0  0  0  0  0  0  0  0  0
   48.1670   33.4670   42.3460 C   0  0  0  0  0  0  0  0  0  0  0  0
   48.7710   32.8700   43.0630 H   0  0  0  0  0  0  0  0  0  0  0  0
   48.7900   34.2250   41.8380 H   0  0  0  0  0  0  0  0  0  0  0  0
   47.5180   32.5450   41.3850 C   0  0  0  0  0  0  0  0  0  0  0  0
   47.5530   31.4790   41.6690 H   0  0  0  0  0  0  0  0  0  0  0  0
   46.4230   32.7750   41.2780 H   0  0  0  0  0  0  0  0  0  0  0  0
   49.4520   31.9460   38.2230 C   0  0  0  0  0  0  0  0  0  0  0  0
   48.9050   31.7830   39.5080 C   0  0  0  0  0  0  0  0  0  0  0  0
   48.0830   32.7410   40.0280 C   0  0  0  0  0  0  0  0  0  0  0  0
   47.8330   33.8140   39.2720 N   0  0  0  0  0  0  0  0  0  0  0  0
   48.3420   33.9880   38.0490 C   0  0  0  0  0  0  0  0  0  0  0  0
   49.1550   33.0650   37.5050 N   0  0  0  0  0  0  0  0  0  0  0  0
   50.1120   31.1850   37.7970 H   0  0  0  0  0  0  0  0  0  0  0  0
   49.1670   30.8750   40.0470 H   0  0  0  0  0  0  0  0  0  0  0  0
   48.0360   34.9210   37.5670 H   0  0  0  0  0  0  0  0  0  0  0  0
   47.1790   32.8470   44.9590 O   0  0  0  0  0  0  0  0  0  0  0  0
   46.0580   30.5960   44.1230 O   0  0  0  0  0  0  0  0  0  0  0  0
   46.6260   31.3000   45.3530 P   0  0  2  0  0  0  0  0  0  0  0  0
   45.3160   31.5300   46.4120 O   0  0  0  0  0  0  0  0  0  0  0  0
   45.3810   30.9780   47.2270 H   0  0  0  0  0  0  0  0  0  0  0  0
   47.7910   30.3930   46.1380 O   0  0  0  0  0  0  0  0  0  0  0  0
   47.6800   29.0760   45.6840 C   0  0  0  0  0  0  0  0  0  0  0  0
   46.6800   28.6960   46.0190 H   0  0  0  0  0  0  0  0  0  0  0  0
   47.7880   29.0000   44.6010 H   0  0  0  0  0  0  0  0  0  0  0  0
   48.7380   28.2870   46.4270 C   0  0  0  0  0  3  0  0  0  0  0  0
   48.2210   26.9730   46.9650 C   0  0  0  0  0  3  0  0  0  0  0  0
   47.5110   27.1710   47.7930 H   0  0  0  0  0  0  0  0  0  0  0  0
   49.4380   26.2930   47.5970 C   0  0  0  0  0  3  0  0  0  0  0  0
   49.1710   25.3230   48.0630 H   0  0  0  0  0  0  0  0  0  0  0  0
   49.9500   27.0900   48.5950 O   0  0  0  0  0  0  0  0  0  0  0  0
   50.4170   28.3180   48.1830 C   0  0  0  0  0  3  0  0  0  0  0  0
   50.7870   28.8410   49.0840 H   0  0  0  0  0  0  0  0  0  0  0  0
   49.2860   29.1250   47.5550 C   0  0  0  0  0  3  0  0  0  0  0  0
   48.4810   29.2490   48.3030 H   0  0  0  0  0  0  0  0  0  0  0  0
  1  6  1  0  0  0  0
  2  3  1  0  0  0  0
  2  8  1  0  0  0  0
  2  1  1  0  0  0  0
  3  4  1  0  0  0  0
  4 11  1  0  0  0  0
  4  5  1  0  0  0  0
  5 14  1  0  0  0  0
  5 13  1  0  0  0  0
  6 15  1  6  0  0  0
  6  5  1  0  0  0  0
  6 31  1  0  0  0  0
  7  2  1  0  0  0  0
  9  3  1  0  0  0  0
 10  3  1  0  0  0  0
 12  4  1  0  0  0  0
 16 17  1  0  0  0  0
 16  1  1  0  0  0  0
 18 16  1  0  0  0  0
 19 20  1  0  0  0  0
 19 16  1  0  0  0  0
 21 19  1  0  0  0  0
 22 23  1  0  0  0  0
 23 24  2  0  0  0  0
 23 29  1  0  0  0  0
 24 19  1  0  0  0  0
 25 24  1  0  0  0  0
 26 25  2  0  0  0  0
 27 26  1  0  0  0  0
 27 22  2  0  0  0  0
 28 22  1  0  0  0  0
 30 26  1  0  0  0  0
 31 33  1  0  0  0  0
 33 32  2  6  0  0  0
 33 36  1  0  0  0  0
 33 34  1  0  0  0  0
 34 35  1  0  0  0  0
 37 38  1  0  0  0  0
 37 36  1  0  0  0  0
 37 40  1  0  0  0  0
 39 37  1  0  0  0  0
 40 41  1  0  0  0  0
 40 48  1  0  0  0  0
 41 43  1  0  0  0  0
 41 42  1  0  0  0  0
 43 44  1  0  0  0  0
 43 45  1  0  0  0  0
 46 45  1  0  0  0  0
 46 47  1  0  0  0  0
 48 46  1  0  0  0  0
 48 49  1  0  0  0  0
M  END
>  <minimizedAffinity>
-3.77892613

>  <minimizedRMSD>
0.457619131

$$$$
