
 OpenBabel03252508223D

 35 37  0  0  0  0  0  0  0  0999 V2000
   36.0960   30.0960   38.9370 C   0  0  0  0  0  0  0  0  0  0  0  0
   35.4870   29.2630   38.0050 C   0  0  0  0  0  0  0  0  0  0  0  0
   35.8190   29.2190   36.6750 C   0  0  0  0  0  0  0  0  0  0  0  0
   36.8340   30.0750   36.2650 C   0  0  0  0  0  0  0  0  0  0  0  0
   37.4480   30.9080   37.1710 C   0  0  0  0  0  0  0  0  0  0  0  0
   37.1230   30.9600   38.5060 C   0  0  0  0  0  0  0  0  0  0  0  0
   34.6930   28.6060   38.3790 H   0  0  0  0  0  0  0  0  0  0  0  0
   35.3150   28.5570   36.0110 H   0  0  0  0  0  0  0  0  0  0  0  0
   37.0770   30.0200   35.2060 H   0  0  0  0  0  0  0  0  0  0  0  0
   38.2020   31.5080   36.7130 H   0  0  0  0  0  0  0  0  0  0  0  0
   37.8180   31.8860   39.4320 C   0  0  0  0  0  3  0  0  0  0  0  0
   37.3820   33.3230   39.3020 C   0  0  0  0  0  3  0  0  0  0  0  0
   37.6270   33.7590   38.3060 H   0  0  0  0  0  0  0  0  0  0  0  0
   38.2740   34.1010   40.2810 C   0  0  0  0  0  3  0  0  0  0  0  0
   37.9460   35.1430   40.3900 H   0  0  0  0  0  0  0  0  0  0  0  0
   39.5700   34.0330   39.7740 O   0  0  0  0  0  0  0  0  0  0  0  0
   40.0750   32.7640   40.0430 C   0  0  0  0  0  3  0  0  0  0  0  0
   41.1130   32.7300   39.6460 H   0  0  0  0  0  0  0  0  0  0  0  0
   39.2900   31.6880   39.3180 C   0  0  0  0  0  3  0  0  0  0  0  0
   39.6490   31.6220   38.2820 H   0  0  0  0  0  0  0  0  0  0  0  0
   35.7300   30.1290   40.3620 C   0  0  0  0  0  0  0  0  0  0  0  0
   34.7390   30.6180   40.4530 H   0  0  0  0  0  0  0  0  0  0  0  0
   36.4290   30.7310   40.9750 H   0  0  0  0  0  0  0  0  0  0  0  0
   35.5600   28.7400   40.9300 C   0  0  0  0  0  0  0  0  0  0  0  0
   34.6270   28.6910   41.4970 H   0  0  0  0  0  0  0  0  0  0  0  0
   35.5160   27.9590   40.1500 H   0  0  0  0  0  0  0  0  0  0  0  0
   38.1690   26.9390   42.9980 C   0  0  0  0  0  0  0  0  0  0  0  0
   37.0260   27.1350   42.1790 C   0  0  0  0  0  0  0  0  0  0  0  0
   36.7440   28.4550   41.7910 C   0  0  0  0  0  0  0  0  0  0  0  0
   37.5890   29.4520   42.2280 N   0  0  0  0  0  0  0  0  0  0  0  0
   38.6520   29.2090   42.9990 C   0  0  0  0  0  0  0  0  0  0  0  0
   38.9410   27.9480   43.3850 N   0  0  0  0  0  0  0  0  0  0  0  0
   38.4080   25.9330   43.3120 H   0  0  0  0  0  0  0  0  0  0  0  0
   36.3950   26.3350   41.8590 H   0  0  0  0  0  0  0  0  0  0  0  0
   39.1780   30.1150   43.2300 H   0  0  0  0  0  0  0  0  0  0  0  0
  1 21  1  0  0  0  0
  2  7  1  0  0  0  0
  2  1  2  0  0  0  0
  3  2  1  0  0  0  0
  4  3  2  0  0  0  0
  4  5  1  0  0  0  0
  5  6  2  0  0  0  0
  6  1  1  0  0  0  0
  6 11  1  0  0  0  0
  8  3  1  0  0  0  0
  9  4  1  0  0  0  0
 10  5  1  0  0  0  0
 12 11  1  0  0  0  0
 12 14  1  0  0  0  0
 13 12  1  0  0  0  0
 14 15  1  0  0  0  0
 16 17  1  0  0  0  0
 16 14  1  0  0  0  0
 18 17  1  0  0  0  0
 19 11  1  0  0  0  0
 19 17  1  0  0  0  0
 20 19  1  0  0  0  0
 21 22  1  0  0  0  0
 21 24  1  0  0  0  0
 21 23  1  0  0  0  0
 24 25  1  0  0  0  0
 24 29  1  0  0  0  0
 26 24  1  0  0  0  0
 27 33  1  0  0  0  0
 27 32  1  0  0  0  0
 28 27  2  0  0  0  0
 29 28  1  0  0  0  0
 29 30  2  0  0  0  0
 30 31  1  0  0  0  0
 31 35  1  0  0  0  0
 31 32  2  0  0  0  0
 34 28  1  0  0  0  0
M  END
>  <minimizedAffinity>
-5.59622765

$$$$

 OpenBabel03252508223D

 35 37  0  0  0  0  0  0  0  0999 V2000
   38.9640   31.6140   40.4670 C   0  0  0  0  0  0  0  0  0  0  0  0
   39.5800   32.8310   40.7320 C   0  0  0  0  0  0  0  0  0  0  0  0
   39.0350   34.0540   40.4330 C   0  0  0  0  0  0  0  0  0  0  0  0
   37.7850   34.0390   39.8270 C   0  0  0  0  0  0  0  0  0  0  0  0
   37.1580   32.8450   39.5560 C   0  0  0  0  0  0  0  0  0  0  0  0
   37.6960   31.6150   39.8520 C   0  0  0  0  0  0  0  0  0  0  0  0
   40.5650   32.7880   41.2120 H   0  0  0  0  0  0  0  0  0  0  0  0
   39.5590   34.9520   40.6620 H   0  0  0  0  0  0  0  0  0  0  0  0
   37.3770   35.0220   39.6000 H   0  0  0  0  0  0  0  0  0  0  0  0
   36.2110   32.9910   39.0880 H   0  0  0  0  0  0  0  0  0  0  0  0
   36.9730   30.3620   39.5270 C   0  0  0  0  0  3  0  0  0  0  0  0
   36.5680   30.2450   38.0790 C   0  0  0  0  0  3  0  0  0  0  0  0
   35.8350   31.0260   37.7740 H   0  0  0  0  0  0  0  0  0  0  0  0
   35.7780   28.9320   37.9890 C   0  0  0  0  0  3  0  0  0  0  0  0
   35.5590   28.6580   36.9490 H   0  0  0  0  0  0  0  0  0  0  0  0
   34.6040   29.1280   38.7140 O   0  0  0  0  0  0  0  0  0  0  0  0
   34.9130   29.0570   40.0700 C   0  0  0  0  0  3  0  0  0  0  0  0
   33.9660   29.2000   40.6340 H   0  0  0  0  0  0  0  0  0  0  0  0
   35.8480   30.1760   40.4860 C   0  0  0  0  0  3  0  0  0  0  0  0
   35.2580   31.0870   40.6580 H   0  0  0  0  0  0  0  0  0  0  0  0
   39.5600   30.3090   40.7980 C   0  0  0  0  0  0  0  0  0  0  0  0
   40.6420   30.3540   40.5590 H   0  0  0  0  0  0  0  0  0  0  0  0
   39.1450   29.4780   40.1960 H   0  0  0  0  0  0  0  0  0  0  0  0
   39.4740   30.0110   42.2760 C   0  0  0  0  0  0  0  0  0  0  0  0
   40.4750   29.8080   42.6650 H   0  0  0  0  0  0  0  0  0  0  0  0
   39.0560   30.8500   42.8600 H   0  0  0  0  0  0  0  0  0  0  0  0
   36.8370   27.6590   43.6330 C   0  0  0  0  0  0  0  0  0  0  0  0
   37.6710   28.8040   43.5310 C   0  0  0  0  0  0  0  0  0  0  0  0
   38.5660   28.8410   42.4500 C   0  0  0  0  0  0  0  0  0  0  0  0
   38.5690   27.7750   41.5760 N   0  0  0  0  0  0  0  0  0  0  0  0
   37.7610   26.7230   41.7210 C   0  0  0  0  0  0  0  0  0  0  0  0
   36.8930   26.6660   42.7540 N   0  0  0  0  0  0  0  0  0  0  0  0
   36.1390   27.6050   44.4570 H   0  0  0  0  0  0  0  0  0  0  0  0
   37.6390   29.6110   44.2290 H   0  0  0  0  0  0  0  0  0  0  0  0
   37.9180   26.0030   40.9410 H   0  0  0  0  0  0  0  0  0  0  0  0
  1  2  1  0  0  0  0
  1 21  1  0  0  0  0
  2  7  1  0  0  0  0
  3  8  1  0  0  0  0
  3  2  2  0  0  0  0
  4  3  1  0  0  0  0
  5  4  2  0  0  0  0
  5  6  1  0  0  0  0
  6  1  2  0  0  0  0
  9  4  1  0  0  0  0
 10  5  1  0  0  0  0
 11  6  1  0  0  0  0
 11 19  1  0  0  0  0
 12 11  1  0  0  0  0
 13 12  1  0  0  0  0
 14 12  1  0  0  0  0
 14 16  1  0  0  0  0
 15 14  1  0  0  0  0
 16 17  1  0  0  0  0
 17 19  1  0  0  0  0
 17 18  1  0  0  0  0
 19 20  1  0  0  0  0
 21 24  1  0  0  0  0
 22 21  1  0  0  0  0
 23 21  1  0  0  0  0
 24 29  1  0  0  0  0
 24 25  1  0  0  0  0
 24 26  1  0  0  0  0
 27 33  1  0  0  0  0
 28 27  1  0  0  0  0
 28 34  1  0  0  0  0
 29 28  2  0  0  0  0
 30 31  2  0  0  0  0
 30 29  1  0  0  0  0
 31 32  1  0  0  0  0
 32 27  2  0  0  0  0
 35 31  1  0  0  0  0
M  END
>  <minimizedAffinity>
-5.31809092

$$$$

 OpenBabel03252508223D

 35 37  0  0  0  0  0  0  0  0999 V2000
   36.9130   27.7550   41.3260 C   0  0  0  0  0  0  0  0  0  0  0  0
   37.0050   28.7840   42.2560 C   0  0  0  0  0  0  0  0  0  0  0  0
   37.7060   28.7010   43.4330 C   0  0  0  0  0  0  0  0  0  0  0  0
   38.3540   27.4970   43.6790 C   0  0  0  0  0  0  0  0  0  0  0  0
   38.2750   26.4660   42.7720 C   0  0  0  0  0  0  0  0  0  0  0  0
   37.5750   26.5390   41.5910 C   0  0  0  0  0  0  0  0  0  0  0  0
   36.4760   29.7130   42.0140 H   0  0  0  0  0  0  0  0  0  0  0  0
   37.7380   29.5270   44.1040 H   0  0  0  0  0  0  0  0  0  0  0  0
   38.9020   27.4590   44.6190 H   0  0  0  0  0  0  0  0  0  0  0  0
   38.8170   25.6080   43.0970 H   0  0  0  0  0  0  0  0  0  0  0  0
   37.5210   25.3900   40.6570 C   0  0  0  0  0  3  0  0  0  0  0  0
   36.6840   24.2370   41.1510 C   0  0  0  0  0  3  0  0  0  0  0  0
   37.0980   23.7710   42.0750 H   0  0  0  0  0  0  0  0  0  0  0  0
   36.8340   23.1460   40.0810 C   0  0  0  0  0  3  0  0  0  0  0  0
   36.1440   22.3090   40.2530 H   0  0  0  0  0  0  0  0  0  0  0  0
   38.1600   22.7220   40.1320 O   0  0  0  0  0  0  0  0  0  0  0  0
   38.9490   23.6880   39.5130 C   0  0  0  0  0  3  0  0  0  0  0  0
   40.0000   23.3300   39.5480 H   0  0  0  0  0  0  0  0  0  0  0  0
   38.9060   25.0050   40.2630 C   0  0  0  0  0  3  0  0  0  0  0  0
   39.6090   24.9580   41.1060 H   0  0  0  0  0  0  0  0  0  0  0  0
   36.1590   27.8610   40.0660 C   0  0  0  0  0  0  0  0  0  0  0  0
   35.3510   27.1020   40.0830 H   0  0  0  0  0  0  0  0  0  0  0  0
   36.7750   27.6370   39.1730 H   0  0  0  0  0  0  0  0  0  0  0  0
   35.4700   29.1980   39.9350 C   0  0  0  0  0  0  0  0  0  0  0  0
   34.4370   29.0440   39.6100 H   0  0  0  0  0  0  0  0  0  0  0  0
   35.4370   29.7590   40.8860 H   0  0  0  0  0  0  0  0  0  0  0  0
   37.5240   31.9590   38.3600 C   0  0  0  0  0  0  0  0  0  0  0  0
   36.8010   31.2390   39.3470 C   0  0  0  0  0  0  0  0  0  0  0  0
   36.2430   30.0120   38.9530 C   0  0  0  0  0  0  0  0  0  0  0  0
   36.4350   29.6020   37.6520 N   0  0  0  0  0  0  0  0  0  0  0  0
   37.1250   30.3220   36.7640 C   0  0  0  0  0  0  0  0  0  0  0  0
   37.6700   31.5040   37.1210 N   0  0  0  0  0  0  0  0  0  0  0  0
   37.9640   32.9070   38.6360 H   0  0  0  0  0  0  0  0  0  0  0  0
   36.6740   31.5900   40.3470 H   0  0  0  0  0  0  0  0  0  0  0  0
   37.1590   29.8310   35.8110 H   0  0  0  0  0  0  0  0  0  0  0  0
  1  6  2  0  0  0  0
  1  2  1  0  0  0  0
  2  3  2  0  0  0  0
  3  4  1  0  0  0  0
  3  8  1  0  0  0  0
  4  9  1  0  0  0  0
  5 10  1  0  0  0  0
  5  4  2  0  0  0  0
  6  5  1  0  0  0  0
  7  2  1  0  0  0  0
 11 12  1  0  0  0  0
 11  6  1  0  0  0  0
 12 13  1  0  0  0  0
 14 16  1  0  0  0  0
 14 15  1  0  0  0  0
 14 12  1  0  0  0  0
 17 18  1  0  0  0  0
 17 16  1  0  0  0  0
 17 19  1  0  0  0  0
 19 11  1  0  0  0  0
 19 20  1  0  0  0  0
 21 22  1  0  0  0  0
 21  1  1  0  0  0  0
 23 21  1  0  0  0  0
 24 21  1  0  0  0  0
 24 26  1  0  0  0  0
 25 24  1  0  0  0  0
 27 33  1  0  0  0  0
 27 28  1  0  0  0  0
 28 34  1  0  0  0  0
 29 28  2  0  0  0  0
 29 24  1  0  0  0  0
 30 29  1  0  0  0  0
 31 32  1  0  0  0  0
 31 30  2  0  0  0  0
 32 27  2  0  0  0  0
 35 31  1  0  0  0  0
M  END
>  <minimizedAffinity>
-5.21351719

$$$$

 OpenBabel03252508223D

 35 37  0  0  0  0  0  0  0  0999 V2000
   36.6210   29.3080   40.4930 C   0  0  0  0  0  0  0  0  0  0  0  0
   35.7180   28.4330   39.9000 C   0  0  0  0  0  0  0  0  0  0  0  0
   35.2960   28.5240   38.5980 C   0  0  0  0  0  0  0  0  0  0  0  0
   35.8240   29.5710   37.8520 C   0  0  0  0  0  0  0  0  0  0  0  0
   36.7190   30.4480   38.4200 C   0  0  0  0  0  0  0  0  0  0  0  0
   37.1480   30.3640   39.7240 C   0  0  0  0  0  0  0  0  0  0  0  0
   35.3310   27.6240   40.5310 H   0  0  0  0  0  0  0  0  0  0  0  0
   34.6010   27.8210   38.2020 H   0  0  0  0  0  0  0  0  0  0  0  0
   35.4720   29.6200   36.8230 H   0  0  0  0  0  0  0  0  0  0  0  0
   37.0340   31.1970   37.7300 H   0  0  0  0  0  0  0  0  0  0  0  0
   38.1090   31.3460   40.2810 C   0  0  0  0  0  3  0  0  0  0  0  0
   37.6830   32.7830   40.1160 C   0  0  0  0  0  3  0  0  0  0  0  0
   37.6220   33.0930   39.0480 H   0  0  0  0  0  0  0  0  0  0  0  0
   38.8440   33.6120   40.6820 C   0  0  0  0  0  3  0  0  0  0  0  0
   38.5850   34.6760   40.7590 H   0  0  0  0  0  0  0  0  0  0  0  0
   39.9230   33.4190   39.8220 O   0  0  0  0  0  0  0  0  0  0  0  0
   40.4620   32.1610   40.0770 C   0  0  0  0  0  3  0  0  0  0  0  0
   41.3290   32.0270   39.3950 H   0  0  0  0  0  0  0  0  0  0  0  0
   39.4740   31.0570   39.7550 C   0  0  0  0  0  3  0  0  0  0  0  0
   39.4990   30.8590   38.6750 H   0  0  0  0  0  0  0  0  0  0  0  0
   37.0680   29.1940   41.8910 C   0  0  0  0  0  0  0  0  0  0  0  0
   36.6110   30.0230   42.4680 H   0  0  0  0  0  0  0  0  0  0  0  0
   38.1640   29.3030   42.0070 H   0  0  0  0  0  0  0  0  0  0  0  0
   36.5740   27.9200   42.5360 C   0  0  0  0  0  0  0  0  0  0  0  0
   36.0560   28.1620   43.4680 H   0  0  0  0  0  0  0  0  0  0  0  0
   35.8650   27.3630   41.8980 H   0  0  0  0  0  0  0  0  0  0  0  0
   39.9480   26.6450   43.6800 C   0  0  0  0  0  0  0  0  0  0  0  0
   38.8580   27.5350   43.4930 C   0  0  0  0  0  0  0  0  0  0  0  0
   37.7570   27.0440   42.7730 C   0  0  0  0  0  0  0  0  0  0  0  0
   37.8140   25.7490   42.3070 N   0  0  0  0  0  0  0  0  0  0  0  0
   38.8680   24.9550   42.5130 C   0  0  0  0  0  0  0  0  0  0  0  0
   39.9380   25.4060   43.2010 N   0  0  0  0  0  0  0  0  0  0  0  0
   40.8100   26.9970   44.2300 H   0  0  0  0  0  0  0  0  0  0  0  0
   38.8510   28.5340   43.8710 H   0  0  0  0  0  0  0  0  0  0  0  0
   38.7170   23.9890   42.0710 H   0  0  0  0  0  0  0  0  0  0  0  0
  1 21  1  0  0  0  0
  2  1  1  0  0  0  0
  2  7  1  0  0  0  0
  3  2  2  0  0  0  0
  4  5  2  0  0  0  0
  4  3  1  0  0  0  0
  5  6  1  0  0  0  0
  6 11  1  0  0  0  0
  6  1  2  0  0  0  0
  8  3  1  0  0  0  0
  9  4  1  0  0  0  0
 10  5  1  0  0  0  0
 12 11  1  0  0  0  0
 12 14  1  0  0  0  0
 13 12  1  0  0  0  0
 14 15  1  0  0  0  0
 16 17  1  0  0  0  0
 16 14  1  0  0  0  0
 18 17  1  0  0  0  0
 19 17  1  0  0  0  0
 19 11  1  0  0  0  0
 20 19  1  0  0  0  0
 21 23  1  0  0  0  0
 21 22  1  0  0  0  0
 21 24  1  0  0  0  0
 24 29  1  0  0  0  0
 24 25  1  0  0  0  0
 26 24  1  0  0  0  0
 27 33  1  0  0  0  0
 28 27  1  0  0  0  0
 28 34  1  0  0  0  0
 29 28  2  0  0  0  0
 30 31  2  0  0  0  0
 30 29  1  0  0  0  0
 31 32  1  0  0  0  0
 32 27  2  0  0  0  0
 35 31  1  0  0  0  0
M  END
>  <minimizedAffinity>
-5.21218634

$$$$

 OpenBabel03252508223D

 35 37  0  0  0  0  0  0  0  0999 V2000
   37.0630   26.3100   42.0840 C   0  0  0  0  0  0  0  0  0  0  0  0
   36.9830   24.9260   42.1860 C   0  0  0  0  0  0  0  0  0  0  0  0
   36.7240   24.0880   41.1300 C   0  0  0  0  0  0  0  0  0  0  0  0
   36.5340   24.6950   39.8950 C   0  0  0  0  0  0  0  0  0  0  0  0
   36.6080   26.0630   39.7740 C   0  0  0  0  0  0  0  0  0  0  0  0
   36.8670   26.9110   40.8250 C   0  0  0  0  0  0  0  0  0  0  0  0
   37.1420   24.4970   43.1820 H   0  0  0  0  0  0  0  0  0  0  0  0
   36.6760   23.0340   41.2740 H   0  0  0  0  0  0  0  0  0  0  0  0
   36.3290   24.0070   39.0770 H   0  0  0  0  0  0  0  0  0  0  0  0
   36.4370   26.3830   38.7710 H   0  0  0  0  0  0  0  0  0  0  0  0
   36.9270   28.3790   40.6310 C   0  0  0  0  0  3  0  0  0  0  0  0
   35.5790   29.0280   40.4430 C   0  0  0  0  0  3  0  0  0  0  0  0
   35.0640   28.6890   39.5150 H   0  0  0  0  0  0  0  0  0  0  0  0
   35.8800   30.5110   40.1840 C   0  0  0  0  0  3  0  0  0  0  0  0
   34.9660   31.1190   40.1840 H   0  0  0  0  0  0  0  0  0  0  0  0
   36.5250   30.5730   38.9500 O   0  0  0  0  0  0  0  0  0  0  0  0
   37.8400   30.1510   39.1260 C   0  0  0  0  0  3  0  0  0  0  0  0
   38.3450   30.2200   38.1370 H   0  0  0  0  0  0  0  0  0  0  0  0
   37.9060   28.6980   39.5540 C   0  0  0  0  0  3  0  0  0  0  0  0
   37.8090   28.0600   38.6650 H   0  0  0  0  0  0  0  0  0  0  0  0
   37.3460   27.1960   43.2260 C   0  0  0  0  0  0  0  0  0  0  0  0
   36.7890   26.8130   44.1050 H   0  0  0  0  0  0  0  0  0  0  0  0
   36.9960   28.2340   43.0660 H   0  0  0  0  0  0  0  0  0  0  0  0
   38.8050   27.1620   43.6140 C   0  0  0  0  0  0  0  0  0  0  0  0
   38.8930   27.2090   44.7020 H   0  0  0  0  0  0  0  0  0  0  0  0
   39.3180   26.2430   43.2790 H   0  0  0  0  0  0  0  0  0  0  0  0
   41.2100   29.2640   41.5830 C   0  0  0  0  0  0  0  0  0  0  0  0
   40.6270   28.1150   42.1790 C   0  0  0  0  0  0  0  0  0  0  0  0
   39.4750   28.3210   42.9560 C   0  0  0  0  0  0  0  0  0  0  0  0
   39.0010   29.6090   43.0810 N   0  0  0  0  0  0  0  0  0  0  0  0
   39.5910   30.6540   42.4960 C   0  0  0  0  0  0  0  0  0  0  0  0
   40.7000   30.4790   41.7460 N   0  0  0  0  0  0  0  0  0  0  0  0
   42.0990   29.1340   40.9810 H   0  0  0  0  0  0  0  0  0  0  0  0
   41.0240   27.1310   42.0590 H   0  0  0  0  0  0  0  0  0  0  0  0
   39.0710   31.5660   42.7150 H   0  0  0  0  0  0  0  0  0  0  0  0
  1  2  1  0  0  0  0
  1 21  1  0  0  0  0
  2  7  1  0  0  0  0
  3  8  1  0  0  0  0
  3  2  2  0  0  0  0
  4  3  1  0  0  0  0
  5  4  2  0  0  0  0
  5  6  1  0  0  0  0
  6  1  2  0  0  0  0
  9  4  1  0  0  0  0
 10  5  1  0  0  0  0
 11  6  1  0  0  0  0
 12 11  1  0  0  0  0
 13 12  1  0  0  0  0
 14 15  1  0  0  0  0
 14 12  1  0  0  0  0
 16 17  1  0  0  0  0
 16 14  1  0  0  0  0
 17 19  1  0  0  0  0
 18 17  1  0  0  0  0
 19 11  1  0  0  0  0
 20 19  1  0  0  0  0
 21 24  1  0  0  0  0
 21 22  1  0  0  0  0
 23 21  1  0  0  0  0
 24 25  1  0  0  0  0
 26 24  1  0  0  0  0
 27 32  2  0  0  0  0
 27 28  1  0  0  0  0
 28 29  2  0  0  0  0
 29 30  1  0  0  0  0
 29 24  1  0  0  0  0
 31 35  1  0  0  0  0
 31 30  2  0  0  0  0
 32 31  1  0  0  0  0
 33 27  1  0  0  0  0
 34 28  1  0  0  0  0
M  END
>  <minimizedAffinity>
-5.15535593

$$$$

 OpenBabel03252508223D

 35 37  0  0  0  0  0  0  0  0999 V2000
   36.7640   28.4480   41.0310 C   0  0  0  0  0  0  0  0  0  0  0  0
   36.5570   27.5620   42.0820 C   0  0  0  0  0  0  0  0  0  0  0  0
   37.0860   27.7170   43.3390 C   0  0  0  0  0  0  0  0  0  0  0  0
   37.8740   28.8430   43.5400 C   0  0  0  0  0  0  0  0  0  0  0  0
   38.0920   29.7320   42.5130 C   0  0  0  0  0  0  0  0  0  0  0  0
   37.5670   29.5860   41.2510 C   0  0  0  0  0  0  0  0  0  0  0  0
   35.9270   26.6900   41.8720 H   0  0  0  0  0  0  0  0  0  0  0  0
   36.8890   27.0010   44.1020 H   0  0  0  0  0  0  0  0  0  0  0  0
   38.2810   28.9400   44.5450 H   0  0  0  0  0  0  0  0  0  0  0  0
   38.7170   30.5420   42.8140 H   0  0  0  0  0  0  0  0  0  0  0  0
   37.8440   30.5760   40.1830 C   0  0  0  0  0  3  0  0  0  0  0  0
   39.3120   30.8400   39.9590 C   0  0  0  0  0  3  0  0  0  0  0  0
   39.8050   31.3040   40.8450 H   0  0  0  0  0  0  0  0  0  0  0  0
   39.3620   31.9360   38.8860 C   0  0  0  0  0  3  0  0  0  0  0  0
   40.3850   32.1070   38.5250 H   0  0  0  0  0  0  0  0  0  0  0  0
   38.8370   33.0870   39.4710 O   0  0  0  0  0  0  0  0  0  0  0  0
   37.4520   32.9540   39.5260 C   0  0  0  0  0  3  0  0  0  0  0  0
   37.0480   33.8840   39.9810 H   0  0  0  0  0  0  0  0  0  0  0  0
   37.0390   31.8060   40.4260 C   0  0  0  0  0  3  0  0  0  0  0  0
   37.0570   32.1480   41.4700 H   0  0  0  0  0  0  0  0  0  0  0  0
   36.1860   28.2700   39.6890 C   0  0  0  0  0  0  0  0  0  0  0  0
   36.0280   27.1850   39.5230 H   0  0  0  0  0  0  0  0  0  0  0  0
   36.8600   28.6110   38.8790 H   0  0  0  0  0  0  0  0  0  0  0  0
   34.8240   28.9110   39.5750 C   0  0  0  0  0  0  0  0  0  0  0  0
   34.0940   28.3150   40.1300 H   0  0  0  0  0  0  0  0  0  0  0  0
   34.7960   29.9360   39.9850 H   0  0  0  0  0  0  0  0  0  0  0  0
   35.1060   29.1420   35.8080 C   0  0  0  0  0  0  0  0  0  0  0  0
   35.5060   29.0670   37.1680 C   0  0  0  0  0  0  0  0  0  0  0  0
   34.4820   28.9930   38.1260 C   0  0  0  0  0  0  0  0  0  0  0  0
   33.1780   28.9970   37.6800 N   0  0  0  0  0  0  0  0  0  0  0  0
   32.8590   29.0700   36.3860 C   0  0  0  0  0  0  0  0  0  0  0  0
   33.8280   29.1430   35.4470 N   0  0  0  0  0  0  0  0  0  0  0  0
   35.8740   29.2020   35.0490 H   0  0  0  0  0  0  0  0  0  0  0  0
   36.5290   29.0660   37.4750 H   0  0  0  0  0  0  0  0  0  0  0  0
   31.7960   29.0600   36.2470 H   0  0  0  0  0  0  0  0  0  0  0  0
  1  6  2  0  0  0  0
  1  2  1  0  0  0  0
  2  3  2  0  0  0  0
  3  4  1  0  0  0  0
  3  8  1  0  0  0  0
  4  9  1  0  0  0  0
  5 10  1  0  0  0  0
  5  4  2  0  0  0  0
  6  5  1  0  0  0  0
  7  2  1  0  0  0  0
 11 19  1  0  0  0  0
 11  6  1  0  0  0  0
 12 11  1  0  0  0  0
 12 13  1  0  0  0  0
 14 16  1  0  0  0  0
 14 12  1  0  0  0  0
 15 14  1  0  0  0  0
 16 17  1  0  0  0  0
 17 18  1  0  0  0  0
 17 19  1  0  0  0  0
 19 20  1  0  0  0  0
 21  1  1  0  0  0  0
 22 21  1  0  0  0  0
 23 21  1  0  0  0  0
 24 21  1  0  0  0  0
 24 26  1  0  0  0  0
 24 25  1  0  0  0  0
 27 28  1  0  0  0  0
 28 34  1  0  0  0  0
 28 29  2  0  0  0  0
 29 24  1  0  0  0  0
 30 29  1  0  0  0  0
 31 30  2  0  0  0  0
 32 27  2  0  0  0  0
 32 31  1  0  0  0  0
 33 27  1  0  0  0  0
 35 31  1  0  0  0  0
M  END
>  <minimizedAffinity>
-5.05852699

$$$$

 OpenBabel03252508223D

 35 37  0  0  0  0  0  0  0  0999 V2000
   36.2080   27.9940   41.1600 C   0  0  0  0  0  0  0  0  0  0  0  0
   35.5090   29.0950   40.6810 C   0  0  0  0  0  0  0  0  0  0  0  0
   35.1630   29.2790   39.3660 C   0  0  0  0  0  0  0  0  0  0  0  0
   35.5520   28.2800   38.4820 C   0  0  0  0  0  0  0  0  0  0  0  0
   36.2460   27.1820   38.9360 C   0  0  0  0  0  0  0  0  0  0  0  0
   36.5970   26.9890   40.2510 C   0  0  0  0  0  0  0  0  0  0  0  0
   35.2250   29.8550   41.4180 H   0  0  0  0  0  0  0  0  0  0  0  0
   34.6260   30.1470   39.0620 H   0  0  0  0  0  0  0  0  0  0  0  0
   35.2660   28.4510   37.4460 H   0  0  0  0  0  0  0  0  0  0  0  0
   36.4790   26.5040   38.1460 H   0  0  0  0  0  0  0  0  0  0  0  0
   37.3510   25.7860   40.6770 C   0  0  0  0  0  3  0  0  0  0  0  0
   38.7830   25.7620   40.2040 C   0  0  0  0  0  3  0  0  0  0  0  0
   38.8690   25.7130   39.0940 H   0  0  0  0  0  0  0  0  0  0  0  0
   39.3400   24.4140   40.6830 C   0  0  0  0  0  3  0  0  0  0  0  0
   40.4250   24.3440   40.5320 H   0  0  0  0  0  0  0  0  0  0  0  0
   38.6680   23.4300   39.9610 O   0  0  0  0  0  0  0  0  0  0  0  0
   37.3890   23.2950   40.4960 C   0  0  0  0  0  3  0  0  0  0  0  0
   36.8710   22.4980   39.9190 H   0  0  0  0  0  0  0  0  0  0  0  0
   36.5770   24.5630   40.3220 C   0  0  0  0  0  3  0  0  0  0  0  0
   36.1610   24.5830   39.3060 H   0  0  0  0  0  0  0  0  0  0  0  0
   36.5690   27.8100   42.5750 C   0  0  0  0  0  0  0  0  0  0  0  0
   37.1230   26.8540   42.6680 H   0  0  0  0  0  0  0  0  0  0  0  0
   35.6860   27.7210   43.2390 H   0  0  0  0  0  0  0  0  0  0  0  0
   37.5120   28.8850   43.0580 C   0  0  0  0  0  0  0  0  0  0  0  0
   37.4620   29.7430   42.3820 H   0  0  0  0  0  0  0  0  0  0  0  0
   37.2670   29.2480   44.0730 H   0  0  0  0  0  0  0  0  0  0  0  0
   40.4110   26.5330   43.6800 C   0  0  0  0  0  0  0  0  0  0  0  0
   39.0800   27.0280   43.6700 C   0  0  0  0  0  0  0  0  0  0  0  0
   38.8820   28.2980   43.1050 C   0  0  0  0  0  0  0  0  0  0  0  0
   39.9820   28.9640   42.6080 N   0  0  0  0  0  0  0  0  0  0  0  0
   41.2130   28.4490   42.6450 C   0  0  0  0  0  0  0  0  0  0  0  0
   41.4260   27.2290   43.1830 N   0  0  0  0  0  0  0  0  0  0  0  0
   40.5920   25.5570   44.1090 H   0  0  0  0  0  0  0  0  0  0  0  0
   38.2530   26.4810   44.0650 H   0  0  0  0  0  0  0  0  0  0  0  0
   41.9270   29.1210   42.2100 H   0  0  0  0  0  0  0  0  0  0  0  0
  1 21  1  0  0  0  0
  2  1  1  0  0  0  0
  2  7  1  0  0  0  0
  3  2  2  0  0  0  0
  4  5  2  0  0  0  0
  4  3  1  0  0  0  0
  5  6  1  0  0  0  0
  6 11  1  0  0  0  0
  6  1  2  0  0  0  0
  8  3  1  0  0  0  0
  9  4  1  0  0  0  0
 10  5  1  0  0  0  0
 12 11  1  0  0  0  0
 12 14  1  0  0  0  0
 13 12  1  0  0  0  0
 15 14  1  0  0  0  0
 16 17  1  0  0  0  0
 16 14  1  0  0  0  0
 18 17  1  0  0  0  0
 19 17  1  0  0  0  0
 19 11  1  0  0  0  0
 20 19  1  0  0  0  0
 21 22  1  0  0  0  0
 21 24  1  0  0  0  0
 21 23  1  0  0  0  0
 24 29  1  0  0  0  0
 24 26  1  0  0  0  0
 25 24  1  0  0  0  0
 27 33  1  0  0  0  0
 28 27  1  0  0  0  0
 28 34  1  0  0  0  0
 29 28  2  0  0  0  0
 30 31  2  0  0  0  0
 30 29  1  0  0  0  0
 31 32  1  0  0  0  0
 32 27  2  0  0  0  0
 35 31  1  0  0  0  0
M  END
>  <minimizedAffinity>
-5.05713844

$$$$

 OpenBabel03252508223D

 35 37  0  0  0  0  0  0  0  0999 V2000
   38.4900   26.4580   42.9370 C   0  0  0  0  0  0  0  0  0  0  0  0
   39.6500   26.6640   43.6740 C   0  0  0  0  0  0  0  0  0  0  0  0
   40.8340   26.0090   43.4490 C   0  0  0  0  0  0  0  0  0  0  0  0
   40.8390   25.0860   42.4100 C   0  0  0  0  0  0  0  0  0  0  0  0
   39.7010   24.8670   41.6690 C   0  0  0  0  0  0  0  0  0  0  0  0
   38.5100   25.5190   41.8860 C   0  0  0  0  0  0  0  0  0  0  0  0
   39.5940   27.4020   44.4820 H   0  0  0  0  0  0  0  0  0  0  0  0
   41.6900   26.2120   44.0500 H   0  0  0  0  0  0  0  0  0  0  0  0
   41.7900   24.5800   42.2540 H   0  0  0  0  0  0  0  0  0  0  0  0
   39.8550   24.1320   40.9120 H   0  0  0  0  0  0  0  0  0  0  0  0
   37.3150   25.2340   41.0570 C   0  0  0  0  0  3  0  0  0  0  0  0
   36.9700   23.7690   40.9630 C   0  0  0  0  0  3  0  0  0  0  0  0
   37.7600   23.1730   40.4510 H   0  0  0  0  0  0  0  0  0  0  0  0
   35.7700   23.7010   40.0080 C   0  0  0  0  0  3  0  0  0  0  0  0
   35.3280   22.6960   39.9790 H   0  0  0  0  0  0  0  0  0  0  0  0
   36.2430   24.0770   38.7520 O   0  0  0  0  0  0  0  0  0  0  0  0
   36.3990   25.4610   38.7440 C   0  0  0  0  0  3  0  0  0  0  0  0
   36.7630   25.7470   37.7330 H   0  0  0  0  0  0  0  0  0  0  0  0
   37.4560   25.9070   39.7350 C   0  0  0  0  0  3  0  0  0  0  0  0
   38.4480   25.7820   39.2790 H   0  0  0  0  0  0  0  0  0  0  0  0
   37.2270   27.1730   43.1880 C   0  0  0  0  0  0  0  0  0  0  0  0
   36.8160   26.8160   44.1540 H   0  0  0  0  0  0  0  0  0  0  0  0
   36.4520   26.9640   42.4260 H   0  0  0  0  0  0  0  0  0  0  0  0
   37.4470   28.6580   43.3540 C   0  0  0  0  0  0  0  0  0  0  0  0
   36.7870   29.0370   44.1390 H   0  0  0  0  0  0  0  0  0  0  0  0
   38.4830   28.9100   43.6430 H   0  0  0  0  0  0  0  0  0  0  0  0
   35.8710   29.5540   40.0320 C   0  0  0  0  0  0  0  0  0  0  0  0
   36.0710   28.8920   41.2720 C   0  0  0  0  0  0  0  0  0  0  0  0
   37.1710   29.3070   42.0400 C   0  0  0  0  0  0  0  0  0  0  0  0
   37.9670   30.3140   41.5400 N   0  0  0  0  0  0  0  0  0  0  0  0
   37.7300   30.9020   40.3650 C   0  0  0  0  0  0  0  0  0  0  0  0
   36.6780   30.5190   39.6090 N   0  0  0  0  0  0  0  0  0  0  0  0
   35.0310   29.2540   39.4200 H   0  0  0  0  0  0  0  0  0  0  0  0
   35.4310   28.1140   41.6270 H   0  0  0  0  0  0  0  0  0  0  0  0
   38.4610   31.6590   40.1560 H   0  0  0  0  0  0  0  0  0  0  0  0
  1 21  1  0  0  0  0
  1  2  1  0  0  0  0
  2  7  1  0  0  0  0
  3  2  2  0  0  0  0
  3  8  1  0  0  0  0
  4  3  1  0  0  0  0
  5  6  1  0  0  0  0
  5  4  2  0  0  0  0
  6  1  2  0  0  0  0
  9  4  1  0  0  0  0
 10  5  1  0  0  0  0
 11  6  1  0  0  0  0
 12 11  1  0  0  0  0
 13 12  1  0  0  0  0
 14 12  1  0  0  0  0
 15 14  1  0  0  0  0
 16 14  1  0  0  0  0
 17 16  1  0  0  0  0
 17 19  1  0  0  0  0
 18 17  1  0  0  0  0
 19 11  1  0  0  0  0
 20 19  1  0  0  0  0
 21 24  1  0  0  0  0
 21 22  1  0  0  0  0
 23 21  1  0  0  0  0
 24 26  1  0  0  0  0
 24 25  1  0  0  0  0
 27 28  1  0  0  0  0
 28 34  1  0  0  0  0
 28 29  2  0  0  0  0
 29 24  1  0  0  0  0
 30 29  1  0  0  0  0
 31 30  2  0  0  0  0
 32 27  2  0  0  0  0
 32 31  1  0  0  0  0
 33 27  1  0  0  0  0
 35 31  1  0  0  0  0
M  END
>  <minimizedAffinity>
-5.02700281

$$$$

 OpenBabel03252508223D

 35 37  0  0  0  0  0  0  0  0999 V2000
   35.9750   27.2450   38.3610 C   0  0  0  0  0  0  0  0  0  0  0  0
   35.1260   26.3390   37.7370 C   0  0  0  0  0  0  0  0  0  0  0  0
   33.9650   26.6860   37.0910 C   0  0  0  0  0  0  0  0  0  0  0  0
   33.6490   28.0390   37.0800 C   0  0  0  0  0  0  0  0  0  0  0  0
   34.4760   28.9520   37.6930 C   0  0  0  0  0  0  0  0  0  0  0  0
   35.6400   28.6140   38.3420 C   0  0  0  0  0  0  0  0  0  0  0  0
   35.4200   25.2840   37.7730 H   0  0  0  0  0  0  0  0  0  0  0  0
   33.3570   25.9430   36.6310 H   0  0  0  0  0  0  0  0  0  0  0  0
   32.7240   28.2870   36.5620 H   0  0  0  0  0  0  0  0  0  0  0  0
   34.1040   29.9470   37.6060 H   0  0  0  0  0  0  0  0  0  0  0  0
   36.4860   29.6440   38.9900 C   0  0  0  0  0  3  0  0  0  0  0  0
   35.8810   30.2380   40.2360 C   0  0  0  0  0  3  0  0  0  0  0  0
   34.9410   30.8010   40.0320 H   0  0  0  0  0  0  0  0  0  0  0  0
   36.8730   31.3200   40.6870 C   0  0  0  0  0  3  0  0  0  0  0  0
   36.6170   31.7220   41.6760 H   0  0  0  0  0  0  0  0  0  0  0  0
   36.8380   32.3170   39.7150 O   0  0  0  0  0  0  0  0  0  0  0  0
   37.5530   31.8700   38.6070 C   0  0  0  0  0  3  0  0  0  0  0  0
   37.5290   32.6810   37.8480 H   0  0  0  0  0  0  0  0  0  0  0  0
   36.8990   30.6560   37.9770 C   0  0  0  0  0  3  0  0  0  0  0  0
   36.0800   30.9900   37.3260 H   0  0  0  0  0  0  0  0  0  0  0  0
   37.2190   26.8560   39.0470 C   0  0  0  0  0  0  0  0  0  0  0  0
   37.8100   27.7750   39.2350 H   0  0  0  0  0  0  0  0  0  0  0  0
   37.8620   26.1950   38.4350 H   0  0  0  0  0  0  0  0  0  0  0  0
   36.9460   26.2520   40.4040 C   0  0  0  0  0  0  0  0  0  0  0  0
   35.8710   26.0860   40.5190 H   0  0  0  0  0  0  0  0  0  0  0  0
   37.4490   25.2800   40.5500 H   0  0  0  0  0  0  0  0  0  0  0  0
   37.3010   28.3400   43.5410 C   0  0  0  0  0  0  0  0  0  0  0  0
   36.7380   27.4310   42.6070 C   0  0  0  0  0  0  0  0  0  0  0  0
   37.4720   27.1950   41.4330 C   0  0  0  0  0  0  0  0  0  0  0  0
   38.6710   27.8560   41.2760 N   0  0  0  0  0  0  0  0  0  0  0  0
   39.1520   28.7010   42.1900 C   0  0  0  0  0  0  0  0  0  0  0  0
   38.4630   28.9440   43.3260 N   0  0  0  0  0  0  0  0  0  0  0  0
   36.7560   28.5400   44.4530 H   0  0  0  0  0  0  0  0  0  0  0  0
   35.8050   26.9370   42.7640 H   0  0  0  0  0  0  0  0  0  0  0  0
   40.0950   29.1100   41.8810 H   0  0  0  0  0  0  0  0  0  0  0  0
  1 21  1  0  0  0  0
  2  7  1  0  0  0  0
  2  1  2  0  0  0  0
  3  2  1  0  0  0  0
  4  3  2  0  0  0  0
  4  5  1  0  0  0  0
  5  6  2  0  0  0  0
  6  1  1  0  0  0  0
  6 11  1  0  0  0  0
  8  3  1  0  0  0  0
  9  4  1  0  0  0  0
 10  5  1  0  0  0  0
 11 12  1  0  0  0  0
 12 14  1  0  0  0  0
 13 12  1  0  0  0  0
 14 15  1  0  0  0  0
 16 14  1  0  0  0  0
 17 16  1  0  0  0  0
 18 17  1  0  0  0  0
 19 17  1  0  0  0  0
 19 11  1  0  0  0  0
 20 19  1  0  0  0  0
 21 22  1  0  0  0  0
 21 24  1  0  0  0  0
 23 21  1  0  0  0  0
 24 25  1  0  0  0  0
 24 26  1  0  0  0  0
 24 29  1  0  0  0  0
 27 33  1  0  0  0  0
 28 34  1  0  0  0  0
 28 27  2  0  0  0  0
 29 28  1  0  0  0  0
 30 29  2  0  0  0  0
 30 31  1  0  0  0  0
 31 32  2  0  0  0  0
 32 27  1  0  0  0  0
 35 31  1  0  0  0  0
M  END
>  <minimizedAffinity>
-5.00827122

$$$$
