
 OpenBabel03252509163D

 26 28  0  0  0  0  0  0  0  0999 V2000
   45.8880   33.1180   46.4500 C   0  0  0  0  0  0  0  0  0  0  0  0
   45.3030   32.9510   47.7320 C   0  0  0  0  0  0  0  0  0  0  0  0
   45.9280   32.1370   48.6180 C   0  0  0  0  0  0  0  0  0  0  0  0
   47.1300   31.4880   48.2410 C   0  0  0  0  0  0  0  0  0  0  0  0
   47.3770   32.0700   46.5350 S   0  0  0  0  0  0  0  0  0  0  0  0
   44.3850   33.4600   47.9890 H   0  0  0  0  0  0  0  0  0  0  0  0
   45.6090   31.9190   49.6030 H   0  0  0  0  0  0  0  0  0  0  0  0
   48.0180   30.6040   48.8790 C   0  0  0  0  0  3  0  0  0  0  0  0
   49.1810   31.3650   49.4860 C   0  0  0  0  0  3  0  0  0  0  0  0
   48.7910   32.0350   50.2930 H   0  0  0  0  0  0  0  0  0  0  0  0
   50.2150   30.3790   49.9900 C   0  0  0  0  0  3  0  0  0  0  0  0
   50.3810   30.5690   51.0890 H   0  0  0  0  0  0  0  0  0  0  0  0
   49.7160   29.1030   49.9030 O   0  0  0  0  0  0  0  0  0  0  0  0
   49.4870   28.6670   48.6180 C   0  0  0  0  0  3  0  0  0  0  0  0
   50.4170   28.3820   48.0730 H   0  0  0  0  0  0  0  0  0  0  0  0
   48.6570   29.6700   47.8530 C   0  0  0  0  0  3  0  0  0  0  0  0
   47.9130   29.1970   47.1850 H   0  0  0  0  0  0  0  0  0  0  0  0
   44.3180   35.8330   44.4770 C   0  0  0  0  0  0  0  0  0  0  0  0
   44.3680   35.2440   43.1880 C   0  0  0  0  0  0  0  0  0  0  0  0
   44.9300   33.9600   43.0500 C   0  0  0  0  0  0  0  0  0  0  0  0
   45.3960   33.3590   44.1830 N   0  0  0  0  0  0  0  0  0  0  0  0
   45.3260   33.9620   45.3950 C   0  0  0  0  0  0  0  0  0  0  0  0
   44.7880   35.1990   45.5440 N   0  0  0  0  0  0  0  0  0  0  0  0
   43.8860   36.8200   44.5810 H   0  0  0  0  0  0  0  0  0  0  0  0
   43.9940   35.7400   42.3110 H   0  0  0  0  0  0  0  0  0  0  0  0
   45.0020   33.4520   42.1060 H   0  0  0  0  0  0  0  0  0  0  0  0
  1  5  1  0  0  0  0
  1  2  2  0  0  0  0
  2  6  1  0  0  0  0
  2  3  1  0  0  0  0
  3  7  1  0  0  0  0
  4  3  2  0  0  0  0
  4  8  1  0  0  0  0
  5  4  1  0  0  0  0
  8  9  1  0  0  0  0
  9 11  1  0  0  0  0
  9 10  1  0  0  0  0
 11 12  1  0  0  0  0
 13 11  1  0  0  0  0
 14 13  1  0  0  0  0
 15 14  1  0  0  0  0
 16 14  1  0  0  0  0
 16  8  1  0  0  0  0
 17 16  1  0  0  0  0
 18 24  1  0  0  0  0
 18 23  1  0  0  0  0
 19 18  2  0  0  0  0
 20 19  1  0  0  0  0
 20 21  2  0  0  0  0
 21 22  1  0  0  0  0
 22 23  2  0  0  0  0
 22  1  1  0  0  0  0
 25 19  1  0  0  0  0
 26 20  1  0  0  0  0
M  END
>  <minimizedAffinity>
-4.74215841

>  <minimizedRMSD>
0.968784451

$$$$
