
 OpenBabel03242520173D

 26 28  0  0  0  0  0  0  0  0999 V2000
   37.7740   31.0540   40.8450 C   0  0  0  0  0  0  0  0  0  0  0  0
   37.3960   29.8800   41.5600 C   0  0  0  0  0  0  0  0  0  0  0  0
   38.2070   29.4240   42.6050 C   0  0  0  0  0  0  0  0  0  0  0  0
   39.3260   30.1520   42.8680 N   0  0  0  0  0  0  0  0  0  0  0  0
   39.6640   31.2660   42.1700 C   0  0  0  0  0  0  0  0  0  0  0  0
   38.8910   31.7000   41.1780 N   0  0  0  0  0  0  0  0  0  0  0  0
   36.4980   29.3290   41.3200 H   0  0  0  0  0  0  0  0  0  0  0  0
   40.5840   31.8020   42.4420 H   0  0  0  0  0  0  0  0  0  0  0  0
   37.8870   28.2120   43.4000 C   0  0  0  0  0  3  0  0  0  0  0  0
   39.1050   27.2970   43.5340 C   0  0  0  0  0  3  0  0  0  0  0  0
   39.1150   26.7860   44.5190 H   0  0  0  0  0  0  0  0  0  0  0  0
   39.2910   26.3760   42.3770 C   0  0  0  0  0  3  0  0  0  0  0  0
   39.5870   25.3750   42.8010 H   0  0  0  0  0  0  0  0  0  0  0  0
   38.1520   26.1530   41.6150 O   0  0  0  0  0  0  0  0  0  0  0  0
   37.0830   26.0520   42.5080 C   0  0  0  0  0  3  0  0  0  0  0  0
   36.2520   25.5030   42.0540 H   0  0  0  0  0  0  0  0  0  0  0  0
   36.6880   27.4720   42.8640 C   0  0  0  0  0  3  0  0  0  0  0  0
   35.8550   27.3750   43.5960 H   0  0  0  0  0  0  0  0  0  0  0  0
   36.9050   31.5080   39.7390 C   0  0  0  0  0  0  0  0  0  0  0  0
   37.6530   31.5380   38.3790 C   0  0  0  0  0  0  0  0  0  0  0  0
   36.4920   30.6400   38.6610 C   0  0  0  0  0  0  0  0  0  0  0  0
   36.3040   32.4270   39.9560 H   0  0  0  0  0  0  0  0  0  0  0  0
   38.6720   31.1540   38.3380 H   0  0  0  0  0  0  0  0  0  0  0  0
   37.4300   32.4340   37.7650 H   0  0  0  0  0  0  0  0  0  0  0  0
   35.5480   30.7590   38.1240 H   0  0  0  0  0  0  0  0  0  0  0  0
   36.7980   29.5570   38.7130 H   0  0  0  0  0  0  0  0  0  0  0  0
  1  6  2  0  0  0  0
  1  2  1  0  0  0  0
  2  3  2  0  0  0  0
  3  4  1  0  0  0  0
  3  9  1  0  0  0  0
  5  8  1  0  0  0  0
  5  4  2  0  0  0  0
  6  5  1  0  0  0  0
  7  2  1  0  0  0  0
  9 10  1  0  0  0  0
 10 11  1  0  0  0  0
 12 13  1  0  0  0  0
 12 10  1  0  0  0  0
 14 12  1  0  0  0  0
 14 15  1  0  0  0  0
 15 17  1  0  0  0  0
 16 15  1  0  0  0  0
 17  9  1  0  0  0  0
 17 18  1  0  0  0  0
 19 22  1  0  0  0  0
 19  1  1  0  0  0  0
 20 21  1  0  0  0  0
 20 19  1  0  0  0  0
 21 26  1  0  0  0  0
 21 19  1  0  0  0  0
 23 20  1  0  0  0  0
 24 20  1  0  0  0  0
 25 21  1  0  0  0  0
M  END
>  <minimizedAffinity>
-4.68269396

$$$$

 OpenBabel03242520173D

 26 28  0  0  0  0  0  0  0  0999 V2000
   37.3430   26.9180   42.3530 C   0  0  0  0  0  0  0  0  0  0  0  0
   36.5420   27.8960   41.6930 C   0  0  0  0  0  0  0  0  0  0  0  0
   36.9550   29.2320   41.6930 C   0  0  0  0  0  0  0  0  0  0  0  0
   38.1190   29.5090   42.3400 N   0  0  0  0  0  0  0  0  0  0  0  0
   38.8630   28.5580   42.9630 C   0  0  0  0  0  0  0  0  0  0  0  0
   38.4690   27.2870   42.9600 N   0  0  0  0  0  0  0  0  0  0  0  0
   35.6220   27.6350   41.1890 H   0  0  0  0  0  0  0  0  0  0  0  0
   39.7930   28.8590   43.4640 H   0  0  0  0  0  0  0  0  0  0  0  0
   36.1810   30.3120   41.0300 C   0  0  0  0  0  3  0  0  0  0  0  0
   35.4240   29.7850   39.8100 C   0  0  0  0  0  3  0  0  0  0  0  0
   34.4520   30.3080   39.6850 H   0  0  0  0  0  0  0  0  0  0  0  0
   36.2470   29.7400   38.5690 C   0  0  0  0  0  3  0  0  0  0  0  0
   35.5900   30.1010   37.7280 H   0  0  0  0  0  0  0  0  0  0  0  0
   37.3610   30.5690   38.5740 O   0  0  0  0  0  0  0  0  0  0  0  0
   36.9750   31.7600   39.1920 C   0  0  0  0  0  3  0  0  0  0  0  0
   37.6370   32.5800   38.8950 H   0  0  0  0  0  0  0  0  0  0  0  0
   37.0360   31.5040   40.6860 C   0  0  0  0  0  3  0  0  0  0  0  0
   36.6990   32.4520   41.1640 H   0  0  0  0  0  0  0  0  0  0  0  0
   36.8780   25.5150   42.3460 C   0  0  0  0  0  0  0  0  0  0  0  0
   37.1110   24.8260   40.9750 C   0  0  0  0  0  0  0  0  0  0  0  0
   37.7800   24.3920   42.2390 C   0  0  0  0  0  0  0  0  0  0  0  0
   35.8580   25.3520   42.7780 H   0  0  0  0  0  0  0  0  0  0  0  0
   37.6530   25.3740   40.2030 H   0  0  0  0  0  0  0  0  0  0  0  0
   36.2630   24.1970   40.6390 H   0  0  0  0  0  0  0  0  0  0  0  0
   37.5720   23.4120   42.6750 H   0  0  0  0  0  0  0  0  0  0  0  0
   38.8860   24.6070   42.2270 H   0  0  0  0  0  0  0  0  0  0  0  0
  1  6  1  0  0  0  0
  2  3  1  0  0  0  0
  2  1  2  0  0  0  0
  3  4  2  0  0  0  0
  4  5  1  0  0  0  0
  5  8  1  0  0  0  0
  6  5  2  0  0  0  0
  7  2  1  0  0  0  0
  9  3  1  0  0  0  0
 10  9  1  0  0  0  0
 11 10  1  0  0  0  0
 12 14  1  0  0  0  0
 12 10  1  0  0  0  0
 13 12  1  0  0  0  0
 14 15  1  0  0  0  0
 15 17  1  0  0  0  0
 16 15  1  0  0  0  0
 17  9  1  0  0  0  0
 17 18  1  0  0  0  0
 19  1  1  0  0  0  0
 19 22  1  0  0  0  0
 20 21  1  0  0  0  0
 20 19  1  0  0  0  0
 21 19  1  0  0  0  0
 21 25  1  0  0  0  0
 23 20  1  0  0  0  0
 24 20  1  0  0  0  0
 26 21  1  0  0  0  0
M  END
>  <minimizedAffinity>
-4.64958048

$$$$

 OpenBabel03242520173D

 26 28  0  0  0  0  0  0  0  0999 V2000
   37.1800   28.8560   42.1840 C   0  0  0  0  0  0  0  0  0  0  0  0
   37.6300   30.1480   41.7790 C   0  0  0  0  0  0  0  0  0  0  0  0
   36.9150   30.8450   40.7990 C   0  0  0  0  0  0  0  0  0  0  0  0
   35.8160   30.2240   40.2910 N   0  0  0  0  0  0  0  0  0  0  0  0
   35.4100   28.9930   40.6940 C   0  0  0  0  0  0  0  0  0  0  0  0
   36.0900   28.3310   41.6270 N   0  0  0  0  0  0  0  0  0  0  0  0
   38.5090   30.6060   42.2070 H   0  0  0  0  0  0  0  0  0  0  0  0
   34.5110   28.5570   40.2370 H   0  0  0  0  0  0  0  0  0  0  0  0
   37.3140   32.1920   40.3200 C   0  0  0  0  0  3  0  0  0  0  0  0
   37.2180   32.2920   38.7970 C   0  0  0  0  0  3  0  0  0  0  0  0
   36.9080   33.3110   38.4810 H   0  0  0  0  0  0  0  0  0  0  0  0
   38.4260   31.7840   38.0880 C   0  0  0  0  0  3  0  0  0  0  0  0
   38.6360   32.5030   37.2460 H   0  0  0  0  0  0  0  0  0  0  0  0
   39.5810   31.7360   38.8550 O   0  0  0  0  0  0  0  0  0  0  0  0
   39.5880   32.8870   39.6460 C   0  0  0  0  0  3  0  0  0  0  0  0
   40.6050   33.1250   39.9720 H   0  0  0  0  0  0  0  0  0  0  0  0
   38.6750   32.6020   40.8230 C   0  0  0  0  0  3  0  0  0  0  0  0
   38.6680   33.5370   41.4280 H   0  0  0  0  0  0  0  0  0  0  0  0
   37.9590   28.1380   43.2140 C   0  0  0  0  0  0  0  0  0  0  0  0
   38.6510   26.8690   42.6470 C   0  0  0  0  0  0  0  0  0  0  0  0
   39.4010   28.0450   43.1830 C   0  0  0  0  0  0  0  0  0  0  0  0
   37.4270   27.9780   44.1850 H   0  0  0  0  0  0  0  0  0  0  0  0
   38.5860   26.6760   41.5750 H   0  0  0  0  0  0  0  0  0  0  0  0
   38.5940   25.9890   43.3180 H   0  0  0  0  0  0  0  0  0  0  0  0
   40.0150   27.9560   44.0810 H   0  0  0  0  0  0  0  0  0  0  0  0
   39.9440   28.6060   42.3700 H   0  0  0  0  0  0  0  0  0  0  0  0
  1 19  1  0  0  0  0
  2  1  1  0  0  0  0
  2  7  1  0  0  0  0
  3  2  2  0  0  0  0
  4  5  2  0  0  0  0
  4  3  1  0  0  0  0
  5  6  1  0  0  0  0
  6  1  2  0  0  0  0
  8  5  1  0  0  0  0
  9  3  1  0  0  0  0
  9 17  1  0  0  0  0
 10  9  1  0  0  0  0
 11 10  1  0  0  0  0
 12 10  1  0  0  0  0
 12 14  1  0  0  0  0
 13 12  1  0  0  0  0
 14 15  1  0  0  0  0
 15 16  1  0  0  0  0
 15 17  1  0  0  0  0
 17 18  1  0  0  0  0
 19 22  1  0  0  0  0
 20 21  1  0  0  0  0
 20 19  1  0  0  0  0
 20 24  1  0  0  0  0
 21 19  1  0  0  0  0
 21 25  1  0  0  0  0
 23 20  1  0  0  0  0
 26 21  1  0  0  0  0
M  END
>  <minimizedAffinity>
-4.645082

$$$$

 OpenBabel03242520173D

 26 28  0  0  0  0  0  0  0  0999 V2000
   36.9540   30.9550   40.7040 C   0  0  0  0  0  0  0  0  0  0  0  0
   37.5500   30.1020   41.6800 C   0  0  0  0  0  0  0  0  0  0  0  0
   36.9790   28.8510   41.9360 C   0  0  0  0  0  0  0  0  0  0  0  0
   35.8670   28.5320   41.2180 N   0  0  0  0  0  0  0  0  0  0  0  0
   35.3190   29.3640   40.2960 C   0  0  0  0  0  0  0  0  0  0  0  0
   35.8650   30.5530   40.0520 N   0  0  0  0  0  0  0  0  0  0  0  0
   38.4340   30.3930   42.2290 H   0  0  0  0  0  0  0  0  0  0  0  0
   34.4210   29.0350   39.7560 H   0  0  0  0  0  0  0  0  0  0  0  0
   37.5350   27.9040   42.9340 C   0  0  0  0  0  3  0  0  0  0  0  0
   39.0500   28.0650   43.0700 C   0  0  0  0  0  3  0  0  0  0  0  0
   39.3800   27.8810   44.1140 H   0  0  0  0  0  0  0  0  0  0  0  0
   39.8250   27.3030   42.0510 C   0  0  0  0  0  3  0  0  0  0  0  0
   40.7060   26.8470   42.5860 H   0  0  0  0  0  0  0  0  0  0  0  0
   39.1430   26.2490   41.4610 O   0  0  0  0  0  0  0  0  0  0  0  0
   38.3970   25.6350   42.4700 C   0  0  0  0  0  3  0  0  0  0  0  0
   38.1550   24.6030   42.1970 H   0  0  0  0  0  0  0  0  0  0  0  0
   37.1480   26.4750   42.6490 C   0  0  0  0  0  3  0  0  0  0  0  0
   36.5780   25.9900   43.4740 H   0  0  0  0  0  0  0  0  0  0  0  0
   37.5720   32.2750   40.4600 C   0  0  0  0  0  0  0  0  0  0  0  0
   38.4620   32.2810   39.1880 C   0  0  0  0  0  0  0  0  0  0  0  0
   37.2240   33.1070   39.3310 C   0  0  0  0  0  0  0  0  0  0  0  0
   38.0460   32.7490   41.3570 H   0  0  0  0  0  0  0  0  0  0  0  0
   38.4800   31.3870   38.5630 H   0  0  0  0  0  0  0  0  0  0  0  0
   39.4200   32.8250   39.3130 H   0  0  0  0  0  0  0  0  0  0  0  0
   37.2770   34.1970   39.3510 H   0  0  0  0  0  0  0  0  0  0  0  0
   36.3980   32.7510   38.6540 H   0  0  0  0  0  0  0  0  0  0  0  0
  1  2  1  0  0  0  0
  2  3  2  0  0  0  0
  2  7  1  0  0  0  0
  3  9  1  0  0  0  0
  4  3  1  0  0  0  0
  5  4  2  0  0  0  0
  6  5  1  0  0  0  0
  6  1  2  0  0  0  0
  8  5  1  0  0  0  0
  9 10  1  0  0  0  0
 10 11  1  0  0  0  0
 12 13  1  0  0  0  0
 12 10  1  0  0  0  0
 14 12  1  0  0  0  0
 14 15  1  0  0  0  0
 15 17  1  0  0  0  0
 16 15  1  0  0  0  0
 17  9  1  0  0  0  0
 17 18  1  0  0  0  0
 19  1  1  0  0  0  0
 19 22  1  0  0  0  0
 20 24  1  0  0  0  0
 20 21  1  0  0  0  0
 20 19  1  0  0  0  0
 21 25  1  0  0  0  0
 21 19  1  0  0  0  0
 23 20  1  0  0  0  0
 26 21  1  0  0  0  0
M  END
>  <minimizedAffinity>
-4.57044649

$$$$

 OpenBabel03242520173D

 26 28  0  0  0  0  0  0  0  0999 V2000
   38.5920   31.6820   41.0510 C   0  0  0  0  0  0  0  0  0  0  0  0
   38.8160   30.5570   41.8990 C   0  0  0  0  0  0  0  0  0  0  0  0
   37.7560   29.6870   42.1760 C   0  0  0  0  0  0  0  0  0  0  0  0
   36.5580   29.9850   41.6020 N   0  0  0  0  0  0  0  0  0  0  0  0
   36.3720   31.0640   40.7980 C   0  0  0  0  0  0  0  0  0  0  0  0
   37.3810   31.8890   40.5350 N   0  0  0  0  0  0  0  0  0  0  0  0
   39.7830   30.3560   42.3360 H   0  0  0  0  0  0  0  0  0  0  0  0
   35.3750   31.2380   40.3710 H   0  0  0  0  0  0  0  0  0  0  0  0
   37.9030   28.4950   43.0480 C   0  0  0  0  0  3  0  0  0  0  0  0
   39.2240   27.7710   42.7820 C   0  0  0  0  0  3  0  0  0  0  0  0
   39.6340   27.3300   43.7150 H   0  0  0  0  0  0  0  0  0  0  0  0
   39.1610   26.8140   41.6410 C   0  0  0  0  0  3  0  0  0  0  0  0
   39.7300   25.8930   41.9560 H   0  0  0  0  0  0  0  0  0  0  0  0
   37.8850   26.3850   41.3040 O   0  0  0  0  0  0  0  0  0  0  0  0
   37.1950   26.1910   42.5020 C   0  0  0  0  0  3  0  0  0  0  0  0
   36.3560   25.5030   42.3570 H   0  0  0  0  0  0  0  0  0  0  0  0
   36.7240   27.5620   42.9500 C   0  0  0  0  0  3  0  0  0  0  0  0
   36.2010   27.3950   43.9190 H   0  0  0  0  0  0  0  0  0  0  0  0
   39.7250   32.5910   40.7830 C   0  0  0  0  0  0  0  0  0  0  0  0
   40.2020   32.5160   39.3070 C   0  0  0  0  0  0  0  0  0  0  0  0
   39.6170   33.7460   39.9220 C   0  0  0  0  0  0  0  0  0  0  0  0
   40.5520   32.5520   41.5370 H   0  0  0  0  0  0  0  0  0  0  0  0
   39.6320   31.9030   38.6070 H   0  0  0  0  0  0  0  0  0  0  0  0
   41.3040   32.5140   39.1910 H   0  0  0  0  0  0  0  0  0  0  0  0
   40.2180   34.6480   40.0510 H   0  0  0  0  0  0  0  0  0  0  0  0
   38.6020   33.9890   39.4970 H   0  0  0  0  0  0  0  0  0  0  0  0
  1  2  1  0  0  0  0
  2  3  2  0  0  0  0
  2  7  1  0  0  0  0
  3  9  1  0  0  0  0
  4  3  1  0  0  0  0
  5  4  2  0  0  0  0
  6  5  1  0  0  0  0
  6  1  2  0  0  0  0
  8  5  1  0  0  0  0
 10  9  1  0  0  0  0
 10 11  1  0  0  0  0
 12 13  1  0  0  0  0
 12 10  1  0  0  0  0
 14 12  1  0  0  0  0
 14 15  1  0  0  0  0
 15 17  1  0  0  0  0
 16 15  1  0  0  0  0
 17  9  1  0  0  0  0
 17 18  1  0  0  0  0
 19  1  1  0  0  0  0
 19 22  1  0  0  0  0
 20 21  1  0  0  0  0
 20 19  1  0  0  0  0
 21 25  1  0  0  0  0
 21 19  1  0  0  0  0
 23 20  1  0  0  0  0
 24 20  1  0  0  0  0
 26 21  1  0  0  0  0
M  END
>  <minimizedAffinity>
-4.46875954

$$$$

 OpenBabel03242520173D

 26 28  0  0  0  0  0  0  0  0999 V2000
   35.8010   28.9370   39.4510 C   0  0  0  0  0  0  0  0  0  0  0  0
   36.1630   28.0150   40.4770 C   0  0  0  0  0  0  0  0  0  0  0  0
   36.6400   28.5020   41.6980 C   0  0  0  0  0  0  0  0  0  0  0  0
   36.7270   29.8540   41.8220 N   0  0  0  0  0  0  0  0  0  0  0  0
   36.3760   30.7110   40.8280 C   0  0  0  0  0  0  0  0  0  0  0  0
   35.9210   30.2460   39.6670 N   0  0  0  0  0  0  0  0  0  0  0  0
   36.0790   26.9470   40.3390 H   0  0  0  0  0  0  0  0  0  0  0  0
   36.4740   31.7910   41.0030 H   0  0  0  0  0  0  0  0  0  0  0  0
   37.0380   27.6110   42.8170 C   0  0  0  0  0  3  0  0  0  0  0  0
   38.2770   28.1440   43.5380 C   0  0  0  0  0  3  0  0  0  0  0  0
   38.2360   27.9190   44.6250 H   0  0  0  0  0  0  0  0  0  0  0  0
   39.5600   27.7510   42.8910 C   0  0  0  0  0  3  0  0  0  0  0  0
   40.2730   27.4760   43.7200 H   0  0  0  0  0  0  0  0  0  0  0  0
   39.4830   26.6410   42.0620 O   0  0  0  0  0  0  0  0  0  0  0  0
   38.6320   25.7270   42.6870 C   0  0  0  0  0  3  0  0  0  0  0  0
   38.8200   24.7120   42.3230 H   0  0  0  0  0  0  0  0  0  0  0  0
   37.2180   26.1810   42.3780 C   0  0  0  0  0  3  0  0  0  0  0  0
   36.5520   25.4610   42.9060 H   0  0  0  0  0  0  0  0  0  0  0  0
   35.3100   28.3960   38.1670 C   0  0  0  0  0  0  0  0  0  0  0  0
   33.7990   28.6780   37.9500 C   0  0  0  0  0  0  0  0  0  0  0  0
   34.8750   29.2390   37.0770 C   0  0  0  0  0  0  0  0  0  0  0  0
   35.6190   27.3430   37.9480 H   0  0  0  0  0  0  0  0  0  0  0  0
   33.2760   29.2990   38.6790 H   0  0  0  0  0  0  0  0  0  0  0  0
   33.2380   27.8190   37.5310 H   0  0  0  0  0  0  0  0  0  0  0  0
   34.9520   28.9480   36.0270 H   0  0  0  0  0  0  0  0  0  0  0  0
   34.9820   30.3530   37.2010 H   0  0  0  0  0  0  0  0  0  0  0  0
  1  6  2  0  0  0  0
  1  2  1  0  0  0  0
  2  3  2  0  0  0  0
  3  4  1  0  0  0  0
  3  9  1  0  0  0  0
  5  8  1  0  0  0  0
  5  4  2  0  0  0  0
  6  5  1  0  0  0  0
  7  2  1  0  0  0  0
  9 10  1  0  0  0  0
 10 11  1  0  0  0  0
 12 10  1  0  0  0  0
 12 13  1  0  0  0  0
 14 15  1  0  0  0  0
 14 12  1  0  0  0  0
 16 15  1  0  0  0  0
 17 15  1  0  0  0  0
 17  9  1  0  0  0  0
 17 18  1  0  0  0  0
 19  1  1  0  0  0  0
 20 19  1  0  0  0  0
 20 23  1  0  0  0  0
 21 26  1  0  0  0  0
 21 20  1  0  0  0  0
 21 19  1  0  0  0  0
 22 19  1  0  0  0  0
 24 20  1  0  0  0  0
 25 21  1  0  0  0  0
M  END
>  <minimizedAffinity>
-4.43794107

$$$$

 OpenBabel03242520173D

 26 28  0  0  0  0  0  0  0  0999 V2000
   36.5490   28.6460   41.5830 C   0  0  0  0  0  0  0  0  0  0  0  0
   36.6510   27.2250   41.5350 C   0  0  0  0  0  0  0  0  0  0  0  0
   37.5730   26.5760   42.3640 C   0  0  0  0  0  0  0  0  0  0  0  0
   38.3240   27.3690   43.1750 N   0  0  0  0  0  0  0  0  0  0  0  0
   38.2080   28.7220   43.2000 C   0  0  0  0  0  0  0  0  0  0  0  0
   37.3300   29.3370   42.4130 N   0  0  0  0  0  0  0  0  0  0  0  0
   36.0350   26.6310   40.8760 H   0  0  0  0  0  0  0  0  0  0  0  0
   38.8500   29.2950   43.8840 H   0  0  0  0  0  0  0  0  0  0  0  0
   37.7430   25.1020   42.3760 C   0  0  0  0  0  3  0  0  0  0  0  0
   39.1890   24.7060   42.0730 C   0  0  0  0  0  3  0  0  0  0  0  0
   39.4810   23.7950   42.6370 H   0  0  0  0  0  0  0  0  0  0  0  0
   39.4960   24.6370   40.6160 C   0  0  0  0  0  3  0  0  0  0  0  0
   40.1360   23.7220   40.4610 H   0  0  0  0  0  0  0  0  0  0  0  0
   38.3920   24.4820   39.7900 O   0  0  0  0  0  0  0  0  0  0  0  0
   37.5280   23.5910   40.4320 C   0  0  0  0  0  3  0  0  0  0  0  0
   36.8530   23.1210   39.7100 H   0  0  0  0  0  0  0  0  0  0  0  0
   36.7680   24.4030   41.4630 C   0  0  0  0  0  3  0  0  0  0  0  0
   36.1060   23.6750   41.9850 H   0  0  0  0  0  0  0  0  0  0  0  0
   35.5740   29.3070   40.6900 C   0  0  0  0  0  0  0  0  0  0  0  0
   36.2400   29.8570   39.4000 C   0  0  0  0  0  0  0  0  0  0  0  0
   35.2100   28.7740   39.3970 C   0  0  0  0  0  0  0  0  0  0  0  0
   34.8810   30.0260   41.1950 H   0  0  0  0  0  0  0  0  0  0  0  0
   37.2940   29.6400   39.2260 H   0  0  0  0  0  0  0  0  0  0  0  0
   35.8800   30.8630   39.1040 H   0  0  0  0  0  0  0  0  0  0  0  0
   34.2320   28.9320   38.9390 H   0  0  0  0  0  0  0  0  0  0  0  0
   35.6450   27.7780   39.1000 H   0  0  0  0  0  0  0  0  0  0  0  0
  1  6  1  0  0  0  0
  2  1  2  0  0  0  0
  2  3  1  0  0  0  0
  3  9  1  0  0  0  0
  3  4  2  0  0  0  0
  4  5  1  0  0  0  0
  5  8  1  0  0  0  0
  6  5  2  0  0  0  0
  7  2  1  0  0  0  0
 10  9  1  0  0  0  0
 10 11  1  0  0  0  0
 12 10  1  0  0  0  0
 13 12  1  0  0  0  0
 14 15  1  0  0  0  0
 14 12  1  0  0  0  0
 15 17  1  0  0  0  0
 16 15  1  0  0  0  0
 17 18  1  0  0  0  0
 17  9  1  0  0  0  0
 19 22  1  0  0  0  0
 19  1  1  0  0  0  0
 20 19  1  0  0  0  0
 21 20  1  0  0  0  0
 21 19  1  0  0  0  0
 23 20  1  0  0  0  0
 24 20  1  0  0  0  0
 25 21  1  0  0  0  0
 26 21  1  0  0  0  0
M  END
>  <minimizedAffinity>
-4.37281752

$$$$

 OpenBabel03242520173D

 26 28  0  0  0  0  0  0  0  0999 V2000
   36.8580   30.6960   40.1890 C   0  0  0  0  0  0  0  0  0  0  0  0
   36.8820   29.8630   41.3470 C   0  0  0  0  0  0  0  0  0  0  0  0
   36.8260   28.4740   41.1920 C   0  0  0  0  0  0  0  0  0  0  0  0
   36.7500   28.0070   39.9160 N   0  0  0  0  0  0  0  0  0  0  0  0
   36.7280   28.8230   38.8310 C   0  0  0  0  0  0  0  0  0  0  0  0
   36.7830   30.1430   38.9790 N   0  0  0  0  0  0  0  0  0  0  0  0
   36.9430   30.2740   42.3440 H   0  0  0  0  0  0  0  0  0  0  0  0
   36.6650   28.3700   37.8310 H   0  0  0  0  0  0  0  0  0  0  0  0
   36.8450   27.5360   42.3430 C   0  0  0  0  0  3  0  0  0  0  0  0
   37.7570   28.0460   43.4600 C   0  0  0  0  0  3  0  0  0  0  0  0
   37.3580   27.7710   44.4590 H   0  0  0  0  0  0  0  0  0  0  0  0
   39.1920   27.6920   43.2670 C   0  0  0  0  0  3  0  0  0  0  0  0
   39.5900   27.3850   44.2750 H   0  0  0  0  0  0  0  0  0  0  0  0
   39.4230   26.6200   42.4160 O   0  0  0  0  0  0  0  0  0  0  0  0
   38.4320   25.6730   42.6810 C   0  0  0  0  0  3  0  0  0  0  0  0
   38.7540   24.6770   42.3600 H   0  0  0  0  0  0  0  0  0  0  0  0
   37.1940   26.1290   41.9330 C   0  0  0  0  0  3  0  0  0  0  0  0
   36.4060   25.3810   42.1760 H   0  0  0  0  0  0  0  0  0  0  0  0
   36.9090   32.1600   40.3820 C   0  0  0  0  0  0  0  0  0  0  0  0
   38.3490   32.7220   40.2360 C   0  0  0  0  0  0  0  0  0  0  0  0
   37.2280   33.0800   39.3140 C   0  0  0  0  0  0  0  0  0  0  0  0
   36.3530   32.5400   41.2760 H   0  0  0  0  0  0  0  0  0  0  0  0
   39.1440   32.0420   39.9290 H   0  0  0  0  0  0  0  0  0  0  0  0
   38.6100   33.4870   40.9950 H   0  0  0  0  0  0  0  0  0  0  0  0
   36.8450   34.1010   39.2680 H   0  0  0  0  0  0  0  0  0  0  0  0
   37.3780   32.6530   38.2820 H   0  0  0  0  0  0  0  0  0  0  0  0
  1 19  1  0  0  0  0
  1  2  1  0  0  0  0
  2  7  1  0  0  0  0
  3  2  2  0  0  0  0
  3  9  1  0  0  0  0
  4  3  1  0  0  0  0
  5  6  1  0  0  0  0
  5  4  2  0  0  0  0
  6  1  2  0  0  0  0
  8  5  1  0  0  0  0
  9 10  1  0  0  0  0
 10 11  1  0  0  0  0
 12 10  1  0  0  0  0
 12 13  1  0  0  0  0
 14 15  1  0  0  0  0
 14 12  1  0  0  0  0
 16 15  1  0  0  0  0
 17 18  1  0  0  0  0
 17  9  1  0  0  0  0
 17 15  1  0  0  0  0
 19 22  1  0  0  0  0
 20 19  1  0  0  0  0
 20 24  1  0  0  0  0
 21 20  1  0  0  0  0
 21 19  1  0  0  0  0
 23 20  1  0  0  0  0
 25 21  1  0  0  0  0
 26 21  1  0  0  0  0
M  END
>  <minimizedAffinity>
-4.32011747

$$$$

 OpenBabel03242520173D

 26 28  0  0  0  0  0  0  0  0999 V2000
   37.6290   29.1380   42.1320 C   0  0  0  0  0  0  0  0  0  0  0  0
   37.3490   30.2560   41.2910 C   0  0  0  0  0  0  0  0  0  0  0  0
   38.2890   31.2880   41.1910 C   0  0  0  0  0  0  0  0  0  0  0  0
   39.4280   31.1470   41.9210 N   0  0  0  0  0  0  0  0  0  0  0  0
   39.6680   30.0720   42.7150 C   0  0  0  0  0  0  0  0  0  0  0  0
   38.7750   29.0910   42.8080 N   0  0  0  0  0  0  0  0  0  0  0  0
   36.4320   30.3310   40.7270 H   0  0  0  0  0  0  0  0  0  0  0  0
   40.6130   30.0290   43.2740 H   0  0  0  0  0  0  0  0  0  0  0  0
   38.0770   32.4860   40.3400 C   0  0  0  0  0  3  0  0  0  0  0  0
   38.3580   32.1800   38.8680 C   0  0  0  0  0  3  0  0  0  0  0  0
   37.6820   32.7560   38.2020 H   0  0  0  0  0  0  0  0  0  0  0  0
   39.7990   32.2880   38.5010 C   0  0  0  0  0  3  0  0  0  0  0  0
   39.8420   32.7980   37.4960 H   0  0  0  0  0  0  0  0  0  0  0  0
   40.5680   33.0590   39.3600 O   0  0  0  0  0  0  0  0  0  0  0  0
   39.7880   34.1590   39.7230 C   0  0  0  0  0  3  0  0  0  0  0  0
   40.4200   34.9870   40.0600 H   0  0  0  0  0  0  0  0  0  0  0  0
   38.8590   33.6800   40.8220 C   0  0  0  0  0  3  0  0  0  0  0  0
   38.2260   34.5590   41.0810 H   0  0  0  0  0  0  0  0  0  0  0  0
   36.6160   28.0670   42.2280 C   0  0  0  0  0  0  0  0  0  0  0  0
   37.0200   26.8030   41.4220 C   0  0  0  0  0  0  0  0  0  0  0  0
   36.8600   26.8160   42.9090 C   0  0  0  0  0  0  0  0  0  0  0  0
   35.5590   28.3990   42.0660 H   0  0  0  0  0  0  0  0  0  0  0  0
   38.0050   26.7770   40.9560 H   0  0  0  0  0  0  0  0  0  0  0  0
   36.1840   26.3480   40.8530 H   0  0  0  0  0  0  0  0  0  0  0  0
   36.0730   26.2340   43.3930 H   0  0  0  0  0  0  0  0  0  0  0  0
   37.8450   26.6930   43.4400 H   0  0  0  0  0  0  0  0  0  0  0  0
  1 19  1  0  0  0  0
  1  6  1  0  0  0  0
  2  1  2  0  0  0  0
  3  2  1  0  0  0  0
  3  4  2  0  0  0  0
  4  5  1  0  0  0  0
  5  6  2  0  0  0  0
  5  8  1  0  0  0  0
  7  2  1  0  0  0  0
  9 17  1  0  0  0  0
  9  3  1  0  0  0  0
 10  9  1  0  0  0  0
 11 10  1  0  0  0  0
 12 10  1  0  0  0  0
 12 14  1  0  0  0  0
 13 12  1  0  0  0  0
 14 15  1  0  0  0  0
 15 16  1  0  0  0  0
 15 17  1  0  0  0  0
 17 18  1  0  0  0  0
 19 21  1  0  0  0  0
 20 19  1  0  0  0  0
 20 21  1  0  0  0  0
 21 25  1  0  0  0  0
 21 26  1  0  0  0  0
 22 19  1  0  0  0  0
 23 20  1  0  0  0  0
 24 20  1  0  0  0  0
M  END
>  <minimizedAffinity>
-4.29005623

$$$$
