
 OpenBabel03252509053D

 49 51  0  0  1  0  0  0  0  0999 V2000
   46.5960   34.3610   43.7560 N   0  0  0  0  0  0  0  0  0  0  0  0
   46.2420   35.0680   42.5870 C   0  0  0  0  0  0  0  0  0  0  0  0
   44.7520   35.2270   42.3570 C   0  0  0  0  0  0  0  0  0  0  0  0
   43.9480   35.3530   43.6220 C   0  0  0  0  0  0  0  0  0  0  0  0
   44.8310   35.3920   44.8480 C   0  0  0  0  0  0  0  0  0  0  0  0
   45.6710   34.0620   44.7360 C   0  0  2  0  0  0  0  0  0  0  0  0
   46.6520   34.7000   41.6390 H   0  0  0  0  0  0  0  0  0  0  0  0
   46.6460   36.1120   42.6930 H   0  0  0  0  0  0  0  0  0  0  0  0
   44.4120   34.3890   41.7180 H   0  0  0  0  0  0  0  0  0  0  0  0
   44.5860   36.1600   41.7720 H   0  0  0  0  0  0  0  0  0  0  0  0
   43.3060   36.2660   43.6280 H   0  0  0  0  0  0  0  0  0  0  0  0
   43.2660   34.5010   43.7390 H   0  0  0  0  0  0  0  0  0  0  0  0
   44.2040   35.2830   45.7390 H   0  0  0  0  0  0  0  0  0  0  0  0
   45.5250   36.2560   44.8690 H   0  0  0  0  0  0  0  0  0  0  0  0
   44.9000   33.2950   44.5170 H   0  0  0  0  0  0  0  0  0  0  0  0
   47.7200   33.4800   43.5880 C   0  0  0  0  0  0  0  0  0  0  0  0
   47.8460   32.8980   44.5260 H   0  0  0  0  0  0  0  0  0  0  0  0
   48.6040   34.1130   43.3920 H   0  0  0  0  0  0  0  0  0  0  0  0
   47.4490   32.5410   42.4750 C   0  0  0  0  0  0  0  0  0  0  0  0
   46.9500   31.6010   42.7730 H   0  0  0  0  0  0  0  0  0  0  0  0
   46.7600   32.9990   41.7140 H   0  0  0  0  0  0  0  0  0  0  0  0
   51.0980   32.3310   41.6140 C   0  0  0  0  0  0  0  0  0  0  0  0
   49.8970   32.5940   42.2970 C   0  0  0  0  0  0  0  0  0  0  0  0
   48.7000   32.2540   41.7340 C   0  0  0  0  0  0  0  0  0  0  0  0
   48.7300   31.6740   40.5300 N   0  0  0  0  0  0  0  0  0  0  0  0
   49.8590   31.4150   39.8650 C   0  0  0  0  0  0  0  0  0  0  0  0
   51.0550   31.7360   40.3890 N   0  0  0  0  0  0  0  0  0  0  0  0
   52.0620   32.5990   42.0560 H   0  0  0  0  0  0  0  0  0  0  0  0
   49.9760   33.0700   43.2730 H   0  0  0  0  0  0  0  0  0  0  0  0
   49.7040   30.9370   38.8930 H   0  0  0  0  0  0  0  0  0  0  0  0
   46.2380   33.9740   45.9870 O   0  0  0  0  0  0  0  0  0  0  0  0
   45.6350   31.4150   45.6520 O   0  0  0  0  0  0  0  0  0  0  0  0
   46.0310   32.4560   46.6970 P   0  0  2  0  0  0  0  0  0  0  0  0
   44.6950   32.6080   47.7390 O   0  0  0  0  0  0  0  0  0  0  0  0
   44.8740   32.2570   48.6440 H   0  0  0  0  0  0  0  0  0  0  0  0
   47.3590   31.9920   47.6010 O   0  0  0  0  0  0  0  0  0  0  0  0
   47.6960   30.6910   47.2230 C   0  0  0  0  0  0  0  0  0  0  0  0
   46.8180   30.0380   47.4690 H   0  0  0  0  0  0  0  0  0  0  0  0
   47.9550   30.6200   46.1650 H   0  0  0  0  0  0  0  0  0  0  0  0
   48.8380   30.2740   48.1270 C   0  0  0  0  0  3  0  0  0  0  0  0
   49.0230   28.7760   48.1890 C   0  0  0  0  0  3  0  0  0  0  0  0
   48.1690   28.3240   48.7350 H   0  0  0  0  0  0  0  0  0  0  0  0
   50.2570   28.5610   49.0680 C   0  0  0  0  0  3  0  0  0  0  0  0
   50.4730   27.4840   49.2170 H   0  0  0  0  0  0  0  0  0  0  0  0
   50.0400   29.1040   50.3140 O   0  0  0  0  0  0  0  0  0  0  0  0
   49.8360   30.4640   50.3340 C   0  0  0  0  0  3  0  0  0  0  0  0
   49.6720   30.7510   51.3900 H   0  0  0  0  0  0  0  0  0  0  0  0
   48.6020   30.8210   49.5140 C   0  0  0  0  0  3  0  0  0  0  0  0
   47.7290   30.2940   49.9380 H   0  0  0  0  0  0  0  0  0  0  0  0
  1  6  1  0  0  0  0
  2  8  1  0  0  0  0
  2  1  1  0  0  0  0
  3  2  1  0  0  0  0
  3  4  1  0  0  0  0
  4 11  1  0  0  0  0
  4 12  1  0  0  0  0
  4  5  1  0  0  0  0
  5 14  1  0  0  0  0
  5 13  1  0  0  0  0
  6 15  1  6  0  0  0
  6  5  1  0  0  0  0
  6 31  1  0  0  0  0
  7  2  1  0  0  0  0
  9  3  1  0  0  0  0
 10  3  1  0  0  0  0
 16  1  1  0  0  0  0
 16 17  1  0  0  0  0
 18 16  1  0  0  0  0
 19 20  1  0  0  0  0
 19 16  1  0  0  0  0
 21 19  1  0  0  0  0
 22 28  1  0  0  0  0
 22 23  1  0  0  0  0
 23 29  1  0  0  0  0
 24 23  2  0  0  0  0
 24 19  1  0  0  0  0
 25 24  1  0  0  0  0
 26 27  1  0  0  0  0
 26 25  2  0  0  0  0
 27 22  2  0  0  0  0
 30 26  1  0  0  0  0
 31 33  1  0  0  0  0
 33 32  2  6  0  0  0
 33 36  1  0  0  0  0
 33 34  1  0  0  0  0
 34 35  1  0  0  0  0
 37 38  1  0  0  0  0
 37 36  1  0  0  0  0
 37 40  1  0  0  0  0
 39 37  1  0  0  0  0
 40 41  1  0  0  0  0
 40 48  1  0  0  0  0
 41 42  1  0  0  0  0
 41 43  1  0  0  0  0
 43 44  1  0  0  0  0
 43 45  1  0  0  0  0
 45 46  1  0  0  0  0
 46 47  1  0  0  0  0
 48 49  1  0  0  0  0
 48 46  1  0  0  0  0
M  END
>  <minimizedAffinity>
-5.0238862

>  <minimizedRMSD>
2.70189476

$$$$
