
 OpenBabel03242523423D

 25 26  0  0  1  0  0  0  0  0999 V2000
   47.2010   35.0700   41.8410 C   0  0  1  0  0  0  0  0  0  0  0  0
   47.0590   36.0940   41.3680 H   0  0  0  0  0  0  0  0  0  0  0  0
   46.9690   34.0600   40.7870 C   0  0  0  0  0  3  0  0  0  0  0  0
   47.8480   34.1890   39.5570 C   0  0  0  0  0  3  0  0  0  0  0  0
   47.4670   34.9410   38.8700 H   0  0  0  0  0  0  0  0  0  0  0  0
   47.6960   32.8340   38.8610 C   0  0  0  0  0  3  0  0  0  0  0  0
   47.9880   32.0740   39.6070 H   0  0  0  0  0  0  0  0  0  0  0  0
   46.4270   32.7270   38.3980 O   0  0  0  0  0  0  0  0  0  0  0  0
   45.4010   32.7940   39.3060 C   0  0  0  0  0  3  0  0  0  0  0  0
   44.4640   32.9840   38.7410 H   0  0  0  0  0  0  0  0  0  0  0  0
   45.5550   33.8520   40.3540 C   0  0  0  0  0  3  0  0  0  0  0  0
   45.1480   34.7950   39.9680 H   0  0  0  0  0  0  0  0  0  0  0  0
   45.4300   36.0420   43.2340 C   0  0  0  0  0  0  0  0  0  0  0  0
   46.3600   35.0210   43.0330 C   0  0  0  0  0  0  0  0  0  0  0  0
   46.4550   34.0090   43.9910 C   0  0  0  0  0  0  0  0  0  0  0  0
   45.6330   34.0740   45.0690 N   0  0  0  0  0  0  0  0  0  0  0  0
   44.7390   35.0790   45.2380 C   0  0  0  0  0  0  0  0  0  0  0  0
   44.6270   36.0760   44.3200 N   0  0  0  0  0  0  0  0  0  0  0  0
   45.3270   36.8450   42.5140 H   0  0  0  0  0  0  0  0  0  0  0  0
   47.1520   33.2080   43.8920 H   0  0  0  0  0  0  0  0  0  0  0  0
   44.1080   35.0640   46.1360 H   0  0  0  0  0  0  0  0  0  0  0  0
   48.6480   35.0400   42.2900 C   0  0  0  0  0  0  0  0  0  0  0  0
   48.8820   34.0640   42.7440 H   0  0  0  0  0  0  0  0  0  0  0  0
   49.2770   35.2670   41.4020 H   0  0  0  0  0  0  0  0  0  0  0  0
   48.7810   35.8260   43.0680 H   0  0  0  0  0  0  0  0  0  0  0  0
  1  2  1  6  0  0  0
  1 22  1  0  0  0  0
  1 14  1  0  0  0  0
  3  1  1  0  0  0  0
  4  3  1  0  0  0  0
  5  4  1  0  0  0  0
  6  4  1  0  0  0  0
  6  7  1  0  0  0  0
  8  6  1  0  0  0  0
  8  9  1  0  0  0  0
  9 11  1  0  0  0  0
 10  9  1  0  0  0  0
 11  3  1  0  0  0  0
 12 11  1  0  0  0  0
 13 18  1  0  0  0  0
 14 13  2  0  0  0  0
 14 15  1  0  0  0  0
 15 16  2  0  0  0  0
 16 17  1  0  0  0  0
 17 21  1  0  0  0  0
 18 17  2  0  0  0  0
 19 13  1  0  0  0  0
 20 15  1  0  0  0  0
 22 23  1  0  0  0  0
 22 25  1  0  0  0  0
 24 22  1  0  0  0  0
M  END
>  <minimizedAffinity>
-4.31621933

>  <minimizedRMSD>
1.43609631

$$$$
