
 OpenBabel03242518183D

 24 25  0  0  0  0  0  0  0  0999 V2000
   46.9360   32.7890   46.4810 C   0  0  0  0  0  0  0  0  0  0  0  0
   47.6230   32.0590   45.9790 H   0  0  0  0  0  0  0  0  0  0  0  0
   47.4590   33.3510   47.2710 H   0  0  0  0  0  0  0  0  0  0  0  0
   45.8610   31.9700   47.1240 C   0  0  0  0  0  3  0  0  0  0  0  0
   45.9180   32.1140   48.6220 C   0  0  0  0  0  3  0  0  0  0  0  0
   46.9640   32.0350   48.9340 H   0  0  0  0  0  0  0  0  0  0  0  0
   45.0030   31.1460   49.3250 C   0  0  0  0  0  3  0  0  0  0  0  0
   45.3570   31.0710   50.3800 H   0  0  0  0  0  0  0  0  0  0  0  0
   45.0490   29.8710   48.7910 O   0  0  0  0  0  0  0  0  0  0  0  0
   44.7720   29.8340   47.4380 C   0  0  0  0  0  3  0  0  0  0  0  0
   43.8910   30.4370   47.1320 H   0  0  0  0  0  0  0  0  0  0  0  0
   45.9580   30.5040   46.7320 C   0  0  0  0  0  3  0  0  0  0  0  0
   46.9280   30.1390   47.1430 H   0  0  0  0  0  0  0  0  0  0  0  0
   44.5840   35.2420   45.1360 C   0  0  0  0  0  0  0  0  0  0  0  0
   44.9540   35.3670   43.7910 C   0  0  0  0  0  0  0  0  0  0  0  0
   46.0120   34.6050   43.3480 C   0  0  0  0  0  0  0  0  0  0  0  0
   46.6480   33.7770   44.2140 N   0  0  0  0  0  0  0  0  0  0  0  0
   46.2710   33.6800   45.4970 C   0  0  0  0  0  0  0  0  0  0  0  0
   45.2400   34.4110   45.9620 N   0  0  0  0  0  0  0  0  0  0  0  0
   43.7650   35.8100   45.5450 H   0  0  0  0  0  0  0  0  0  0  0  0
   46.2700   34.7200   42.3190 H   0  0  0  0  0  0  0  0  0  0  0  0
   44.1880   36.2720   43.0250 N   0  0  0  0  0  0  0  0  0  0  0  0
   43.5470   35.8370   42.3040 H   0  0  0  0  0  0  0  0  0  0  0  0
   44.3350   37.2860   43.2550 H   0  0  0  0  0  0  0  0  0  0  0  0
  1  4  1  0  0  0  0
  1  3  1  0  0  0  0
  2  1  1  0  0  0  0
  4  5  1  0  0  0  0
  5  6  1  0  0  0  0
  5  7  1  0  0  0  0
  7  8  1  0  0  0  0
  9  7  1  0  0  0  0
 10  9  1  0  0  0  0
 11 10  1  0  0  0  0
 12  4  1  0  0  0  0
 12 13  1  0  0  0  0
 12 10  1  0  0  0  0
 14 20  1  0  0  0  0
 14 19  1  0  0  0  0
 15 14  2  0  0  0  0
 16 15  1  0  0  0  0
 16 17  2  0  0  0  0
 17 18  1  0  0  0  0
 18 19  2  0  0  0  0
 18  1  1  0  0  0  0
 21 16  1  0  0  0  0
 22 24  1  0  0  0  0
 22 15  1  0  0  0  0
 23 22  1  0  0  0  0
M  END
>  <minimizedAffinity>
-4.5914402

>  <minimizedRMSD>
1.54696977

$$$$
