
 OpenBabel03252502443D

 32 34  0  0  1  0  0  0  0  0999 V2000
   48.9150   34.7090   41.5480 C   0  0  1  0  0  0  0  0  0  0  0  0
   49.9740   34.9810   42.5590 C   0  0  0  0  0  0  0  0  0  0  0  0
   49.4110   33.6080   42.3930 C   0  0  2  0  0  0  0  0  0  0  0  0
   49.1380   34.7670   40.4480 H   0  0  0  0  0  0  0  0  0  0  0  0
   50.9300   35.2670   42.0770 H   0  0  0  0  0  0  0  0  0  0  0  0
   49.8260   35.6050   43.4510 H   0  0  0  0  0  0  0  0  0  0  0  0
   48.8800   33.0090   43.1080 H   0  0  0  0  0  0  0  0  0  0  0  0
   50.3220   32.6750   41.6230 C   0  0  0  0  0  3  0  0  0  0  0  0
   50.8590   31.5650   42.4780 C   0  0  0  0  0  3  0  0  0  0  0  0
   50.0790   30.8620   42.8530 H   0  0  0  0  0  0  0  0  0  0  0  0
   51.7300   30.6610   41.6020 C   0  0  0  0  0  3  0  0  0  0  0  0
   52.0290   29.8240   42.2690 H   0  0  0  0  0  0  0  0  0  0  0  0
   50.9470   30.0850   40.6090 O   0  0  0  0  0  0  0  0  0  0  0  0
   50.4280   31.0160   39.7510 C   0  0  0  0  0  3  0  0  0  0  0  0
   49.6940   30.4660   39.0900 H   0  0  0  0  0  0  0  0  0  0  0  0
   49.7110   32.1600   40.3360 C   0  0  0  0  0  3  0  0  0  0  0  0
   48.6550   31.8570   40.5800 H   0  0  0  0  0  0  0  0  0  0  0  0
   47.5380   35.2190   41.8370 C   0  0  0  0  0  0  0  0  0  0  0  0
   47.6820   35.9220   42.7170 H   0  0  0  0  0  0  0  0  0  0  0  0
   47.0880   35.7950   41.0360 H   0  0  0  0  0  0  0  0  0  0  0  0
   46.7380   34.0180   42.3010 C   0  0  0  0  0  0  0  0  0  0  0  0
   47.4750   33.3810   42.8880 H   0  0  0  0  0  0  0  0  0  0  0  0
   46.1910   33.4920   41.5370 H   0  0  0  0  0  0  0  0  0  0  0  0
   44.5220   35.9230   44.6530 C   0  0  0  0  0  0  0  0  0  0  0  0
   45.1970   35.5520   43.4720 C   0  0  0  0  0  0  0  0  0  0  0  0
   45.9560   34.4130   43.5060 C   0  0  0  0  0  0  0  0  0  0  0  0
   46.0250   33.6900   44.6600 N   0  0  0  0  0  0  0  0  0  0  0  0
   45.3830   34.0520   45.7590 C   0  0  0  0  0  0  0  0  0  0  0  0
   44.6350   35.1590   45.7660 N   0  0  0  0  0  0  0  0  0  0  0  0
   43.8990   36.7920   44.7540 H   0  0  0  0  0  0  0  0  0  0  0  0
   44.9890   36.2540   42.6850 H   0  0  0  0  0  0  0  0  0  0  0  0
   45.4890   33.4240   46.6340 H   0  0  0  0  0  0  0  0  0  0  0  0
  1  4  1  6  0  0  0
  1 18  1  0  0  0  0
  1  3  1  0  0  0  0
  1  2  1  0  0  0  0
  2  6  1  0  0  0  0
  3  2  1  0  0  0  0
  3  7  1  1  0  0  0
  5  2  1  0  0  0  0
  8  3  1  0  0  0  0
  8  9  1  0  0  0  0
  9 10  1  0  0  0  0
 11 12  1  0  0  0  0
 11  9  1  0  0  0  0
 13 11  1  0  0  0  0
 14 16  1  0  0  0  0
 14 13  1  0  0  0  0
 15 14  1  0  0  0  0
 16 17  1  0  0  0  0
 16  8  1  0  0  0  0
 18 21  1  0  0  0  0
 18 19  1  0  0  0  0
 20 18  1  0  0  0  0
 21 22  1  0  0  0  0
 21 26  1  0  0  0  0
 23 21  1  0  0  0  0
 24 30  1  0  0  0  0
 24 29  1  0  0  0  0
 25 26  1  0  0  0  0
 25 24  2  0  0  0  0
 26 27  2  0  0  0  0
 27 28  1  0  0  0  0
 28 29  2  0  0  0  0
 28 32  1  0  0  0  0
 31 25  1  0  0  0  0
M  END
>  <minimizedAffinity>
-4.749125

>  <minimizedRMSD>
1.18402052

$$$$
