
 OpenBabel03252508103D

 48 51  0  0  0  0  0  0  0  0999 V2000
   45.1610   35.6000   43.1490 C   0  0  0  0  0  0  0  0  0  0  0  0
   45.5240   34.2710   43.2180 C   0  0  0  0  0  0  0  0  0  0  0  0
   45.4410   33.5740   44.3890 C   0  0  0  0  0  0  0  0  0  0  0  0
   44.9680   34.2860   45.4870 N   0  0  0  0  0  0  0  0  0  0  0  0
   44.6180   35.5590   45.4270 C   0  0  0  0  0  0  0  0  0  0  0  0
   44.7200   36.2090   44.2450 N   0  0  0  0  0  0  0  0  0  0  0  0
   45.2110   36.1940   42.2390 H   0  0  0  0  0  0  0  0  0  0  0  0
   44.2550   36.0590   46.3320 H   0  0  0  0  0  0  0  0  0  0  0  0
   45.7720   32.2300   44.6380 C   0  0  0  0  0  0  0  0  0  0  0  0
   45.4190   31.1870   43.7600 C   0  0  0  0  0  0  0  0  0  0  0  0
   45.6780   29.8620   43.9980 C   0  0  0  0  0  0  0  0  0  0  0  0
   46.3240   29.4940   45.1640 C   0  0  0  0  0  0  0  0  0  0  0  0
   46.6920   30.5410   46.0690 C   0  0  0  0  0  0  0  0  0  0  0  0
   47.3270   30.1860   47.2230 C   0  0  0  0  0  0  0  0  0  0  0  0
   47.7060   31.1480   48.1310 C   0  0  0  0  0  0  0  0  0  0  0  0
   47.4330   32.5010   47.8570 C   0  0  0  0  0  0  0  0  0  0  0  0
   46.7730   32.8040   46.6460 C   0  0  0  0  0  0  0  0  0  0  0  0
   46.4080   31.8320   45.7720 C   0  0  0  0  0  0  0  0  0  0  0  0
   44.9130   31.4540   42.8440 H   0  0  0  0  0  0  0  0  0  0  0  0
   45.3690   29.1350   43.2630 H   0  0  0  0  0  0  0  0  0  0  0  0
   46.5310   28.4700   45.3630 H   0  0  0  0  0  0  0  0  0  0  0  0
   47.5230   29.1250   47.4000 H   0  0  0  0  0  0  0  0  0  0  0  0
   48.1970   30.7790   49.0070 H   0  0  0  0  0  0  0  0  0  0  0  0
   47.7730   33.1520   48.6280 H   0  0  0  0  0  0  0  0  0  0  0  0
   46.6920   33.8720   46.6330 H   0  0  0  0  0  0  0  0  0  0  0  0
   45.9660   33.6870   42.0640 O   0  0  0  0  0  0  0  0  0  0  0  0
   48.1500   32.3890   41.4130 O   0  0  0  0  0  0  0  0  0  0  0  0
   47.5300   33.7520   41.4730 P   0  0  1  0  0  0  0  0  0  0  0  0
   47.5990   34.3970   39.9160 O   0  0  0  0  0  0  0  0  0  0  0  0
   47.2460   33.3420   39.0560 C   0  0  0  0  0  0  0  0  0  0  0  0
   46.3460   32.8070   39.3540 H   0  0  0  0  0  0  0  0  0  0  0  0
   48.0850   32.5980   39.1760 H   0  0  0  0  0  0  0  0  0  0  0  0
   47.2800   33.7670   37.6190 C   0  0  0  0  0  3  0  0  0  0  0  0
   46.7060   32.7330   36.6860 C   0  0  0  0  0  3  0  0  0  0  0  0
   46.6870   33.2190   35.6660 H   0  0  0  0  0  0  0  0  0  0  0  0
   47.5950   31.5380   36.5420 C   0  0  0  0  0  3  0  0  0  0  0  0
   46.9730   30.6470   36.8500 H   0  0  0  0  0  0  0  0  0  0  0  0
   48.6950   31.5160   37.3640 O   0  0  0  0  0  0  0  0  0  0  0  0
   49.4530   32.6500   37.4070 C   0  0  0  0  0  3  0  0  0  0  0  0
   50.3410   32.6140   36.7130 H   0  0  0  0  0  0  0  0  0  0  0  0
   48.7330   33.9410   37.2270 C   0  0  0  0  0  3  0  0  0  0  0  0
   48.8210   34.3410   36.1780 H   0  0  0  0  0  0  0  0  0  0  0  0
   48.4430   34.7250   42.5090 O   0  0  0  0  0  0  0  0  0  0  0  0
   49.6490   35.3380   42.2430 C   0  0  0  0  0  0  0  0  0  0  0  0
   49.3820   36.3880   41.6730 O   0  0  0  0  0  0  0  0  0  0  0  0
   50.7450   34.5540   42.7160 N   0  0  0  0  0  0  0  0  0  0  0  0
   51.0340   34.3710   43.7260 H   0  0  0  0  0  0  0  0  0  0  0  0
   51.5760   33.9620   42.4850 H   0  0  0  0  0  0  0  0  0  0  0  0
  1  2  2  0  0  0  0
  1  6  1  0  0  0  0
  2  3  1  0  0  0  0
  3  9  1  0  0  0  0
  3  4  2  0  0  0  0
  5  4  1  0  0  0  0
  5  8  1  0  0  0  0
  6  5  2  0  0  0  0
  7  1  1  0  0  0  0
  9 18  1  0  0  0  0
 10 11  1  0  0  0  0
 10  9  2  0  0  0  0
 11 12  2  0  0  0  0
 12 21  1  0  0  0  0
 12 13  1  0  0  0  0
 13 14  1  0  0  0  0
 14 22  1  0  0  0  0
 14 15  2  0  0  0  0
 15 23  1  0  0  0  0
 16 15  1  0  0  0  0
 16 24  1  0  0  0  0
 17 16  2  0  0  0  0
 18 13  2  0  0  0  0
 18 17  1  0  0  0  0
 19 10  1  0  0  0  0
 20 11  1  0  0  0  0
 25 17  1  0  0  0  0
 26  2  1  0  0  0  0
 28 27  2  6  0  0  0
 28 26  1  0  0  0  0
 28 43  1  0  0  0  0
 29 28  1  0  0  0  0
 30 32  1  0  0  0  0
 30 31  1  0  0  0  0
 30 29  1  0  0  0  0
 33 30  1  0  0  0  0
 34 33  1  0  0  0  0
 35 34  1  0  0  0  0
 36 34  1  0  0  0  0
 36 37  1  0  0  0  0
 36 38  1  0  0  0  0
 38 39  1  0  0  0  0
 40 39  1  0  0  0  0
 41 39  1  0  0  0  0
 41 33  1  0  0  0  0
 42 41  1  0  0  0  0
 44 43  1  0  0  0  0
 44 46  1  0  0  0  0
 45 44  2  0  0  0  0
 46 47  1  0  0  0  0
 48 46  1  0  0  0  0
M  END
>  <minimizedAffinity>
-6.25222826

>  <minimizedRMSD>
0.246054575

$$$$
