
 OpenBabel03252508293D

 40 43  0  0  1  0  0  0  0  0999 V2000
   40.8610   32.1440   40.3720 N   0  0  0  0  0  0  0  0  0  0  0  0
   40.8500   33.1480   41.4410 C   0  0  2  0  0  0  0  0  0  0  0  0
   39.7180   34.1020   41.3180 C   0  0  0  0  0  0  0  0  0  0  0  0
   38.7350   33.6850   40.3330 N   0  0  0  0  0  0  0  0  0  0  0  0
   39.2740   33.3200   39.0650 C   0  0  0  0  0  0  0  0  0  0  0  0
   40.7240   32.9380   39.1360 C   0  0  2  0  0  0  0  0  0  0  0  0
   41.7630   31.6610   40.4400 H   0  0  0  0  0  0  0  0  0  0  0  0
   40.8190   32.6530   42.4440 H   0  0  0  0  0  0  0  0  0  0  0  0
   39.1370   34.2150   42.2710 H   0  0  0  0  0  0  0  0  0  0  0  0
   39.9520   35.1140   40.9470 H   0  0  0  0  0  0  0  0  0  0  0  0
   38.0070   33.0760   40.7230 H   0  0  0  0  0  0  0  0  0  0  0  0
   39.1200   34.1310   38.2960 H   0  0  0  0  0  0  0  0  0  0  0  0
   38.7060   32.4550   38.6620 H   0  0  0  0  0  0  0  0  0  0  0  0
   41.3530   33.8190   39.2250 H   0  0  0  0  0  0  0  0  0  0  0  0
   41.1510   32.1490   37.9330 C   0  0  0  0  0  0  0  0  0  0  0  0
   40.2830   30.9900   37.5950 C   0  0  0  0  0  0  0  0  0  0  0  0
   39.8420   31.0880   36.5620 H   0  0  0  0  0  0  0  0  0  0  0  0
   41.1500   29.7280   37.5070 C   0  0  0  0  0  0  0  0  0  0  0  0
   40.4570   28.9290   37.1090 H   0  0  0  0  0  0  0  0  0  0  0  0
   42.1520   29.8640   36.5730 O   0  0  0  0  0  0  0  0  0  0  0  0
   42.8990   31.0210   36.7080 C   0  0  0  0  0  0  0  0  0  0  0  0
   42.4960   31.7220   35.9200 H   0  0  0  0  0  0  0  0  0  0  0  0
   42.5710   31.7060   38.0410 C   0  0  0  0  0  0  0  0  0  0  0  0
   43.2010   32.6300   38.0710 H   0  0  0  0  0  0  0  0  0  0  0  0
   44.2180   34.4280   41.2260 C   0  0  0  0  0  0  0  0  0  0  0  0
   43.4210   35.5760   41.3080 C   0  0  0  0  0  0  0  0  0  0  0  0
   42.0880   35.2180   41.4040 C   0  0  0  0  0  0  0  0  0  0  0  0
   42.1000   33.8870   41.3770 N   0  0  0  0  0  0  0  0  0  0  0  0
   43.3410   33.4260   41.2740 N   0  0  0  0  0  0  0  0  0  0  0  0
   43.9300   36.5590   41.2870 H   0  0  0  0  0  0  0  0  0  0  0  0
   41.4730   36.1070   41.4750 H   0  0  0  0  0  0  0  0  0  0  0  0
   47.7700   33.8920   40.1070 C   0  0  0  0  0  0  0  0  0  0  0  0
   46.3460   33.8150   40.0850 C   0  0  0  0  0  0  0  0  0  0  0  0
   45.6770   34.4200   41.1270 C   0  0  0  0  0  0  0  0  0  0  0  0
   46.3750   35.0440   42.1030 N   0  0  0  0  0  0  0  0  0  0  0  0
   47.7280   35.1010   42.1000 C   0  0  0  0  0  0  0  0  0  0  0  0
   48.3930   34.5240   41.1030 N   0  0  0  0  0  0  0  0  0  0  0  0
   48.3140   33.4160   39.2870 H   0  0  0  0  0  0  0  0  0  0  0  0
   45.7960   33.3200   39.3110 H   0  0  0  0  0  0  0  0  0  0  0  0
   48.1780   35.6300   42.9370 H   0  0  0  0  0  0  0  0  0  0  0  0
  1  7  1  0  0  0  0
  1  2  1  0  0  0  0
  2  8  1  1  0  0  0
  3  2  1  0  0  0  0
  3  9  1  0  0  0  0
  4 11  1  0  0  0  0
  4  3  1  0  0  0  0
  5  6  1  0  0  0  0
  5  4  1  0  0  0  0
  6 14  1  1  0  0  0
  6  1  1  0  0  0  0
 10  3  1  0  0  0  0
 12  5  1  0  0  0  0
 13  5  1  0  0  0  0
 15 23  1  0  0  0  0
 15  6  1  0  0  0  0
 16 15  1  0  0  0  0
 17 16  1  0  0  0  0
 18 16  1  0  0  0  0
 19 18  1  0  0  0  0
 20 21  1  0  0  0  0
 20 18  1  0  0  0  0
 21 23  1  0  0  0  0
 22 21  1  0  0  0  0
 23 24  1  0  0  0  0
 25 29  2  0  0  0  0
 25 26  1  0  0  0  0
 26 27  2  0  0  0  0
 27 31  1  0  0  0  0
 28 27  1  0  0  0  0
 28  2  1  0  0  0  0
 29 28  1  0  0  0  0
 30 26  1  0  0  0  0
 32 37  1  0  0  0  0
 33 32  2  0  0  0  0
 33 34  1  0  0  0  0
 34 25  1  0  0  0  0
 34 35  2  0  0  0  0
 36 35  1  0  0  0  0
 36 40  1  0  0  0  0
 37 36  2  0  0  0  0
 38 32  1  0  0  0  0
 39 33  1  0  0  0  0
M  END
>  <minimizedAffinity>
-5.04953003

>  <minimizedRMSD>
2.79252386

$$$$
