
 OpenBabel03242519163D

 43 46  0  0  1  0  0  0  0  0999 V2000
   48.2270   33.9800   40.9270 C   0  0  0  0  0  0  0  0  0  0  0  0
   47.3740   34.0460   39.8470 C   0  0  0  0  0  0  0  0  0  0  0  0
   47.5030   33.2180   38.7250 C   0  0  0  0  0  0  0  0  0  0  0  0
   48.5340   32.3370   38.7710 N   0  0  0  0  0  0  0  0  0  0  0  0
   49.3610   32.2780   39.8250 C   0  0  0  0  0  0  0  0  0  0  0  0
   49.2070   33.0860   40.8810 N   0  0  0  0  0  0  0  0  0  0  0  0
   46.5770   34.7770   39.8900 H   0  0  0  0  0  0  0  0  0  0  0  0
   46.8300   33.2890   37.9000 H   0  0  0  0  0  0  0  0  0  0  0  0
   50.4850   31.2860   39.8860 C   0  0  2  0  0  0  0  0  0  0  0  0
   51.6340   31.5640   40.8030 C   0  0  0  0  0  0  0  0  0  0  0  0
   51.7760   31.7050   39.2860 C   0  0  1  0  0  0  0  0  0  0  0  0
   50.1390   30.2450   39.7660 H   0  0  0  0  0  0  0  0  0  0  0  0
   52.1380   30.7420   41.3260 H   0  0  0  0  0  0  0  0  0  0  0  0
   51.5840   32.5170   41.3970 H   0  0  0  0  0  0  0  0  0  0  0  0
   51.8270   32.7710   38.9430 H   0  0  0  0  0  0  0  0  0  0  0  0
   52.7240   30.7970   38.6280 C   0  0  0  0  0  0  0  0  0  0  0  0
   52.0140   30.0290   37.5280 C   0  0  0  0  0  0  0  0  0  0  0  0
   51.1520   30.5810   37.1020 H   0  0  0  0  0  0  0  0  0  0  0  0
   53.0550   29.6770   36.4520 C   0  0  0  0  0  0  0  0  0  0  0  0
   52.6460   28.9540   35.7420 H   0  0  0  0  0  0  0  0  0  0  0  0
   54.2010   29.2810   37.1170 O   0  0  0  0  0  0  0  0  0  0  0  0
   54.9060   30.4390   37.4750 C   0  0  0  0  0  0  0  0  0  0  0  0
   55.3750   30.8200   36.5440 H   0  0  0  0  0  0  0  0  0  0  0  0
   53.9780   31.4570   38.1150 C   0  0  0  0  0  0  0  0  0  0  0  0
   54.5080   31.8960   38.9800 H   0  0  0  0  0  0  0  0  0  0  0  0
   48.0730   34.8350   42.0820 C   0  0  0  0  0  0  0  0  0  0  0  0
   48.6850   34.4990   42.9200 H   0  0  0  0  0  0  0  0  0  0  0  0
   48.4520   35.8570   41.8110 H   0  0  0  0  0  0  0  0  0  0  0  0
   46.6580   34.9410   42.4860 C   0  0  0  0  0  0  0  0  0  0  0  0
   46.3140   36.0010   42.5210 H   0  0  0  0  0  0  0  0  0  0  0  0
   45.9610   34.4380   41.7800 H   0  0  0  0  0  0  0  0  0  0  0  0
   44.6830   36.3640   44.1800 Cl  0  0  0  0  0  0  0  0  0  0  0  0
   45.4680   34.9010   44.6910 C   0  0  0  0  0  0  0  0  0  0  0  0
   46.3630   34.3340   43.8240 C   0  0  0  0  0  0  0  0  0  0  0  0
   46.9970   33.1680   44.2230 C   0  0  0  0  0  0  0  0  0  0  0  0
   46.7340   32.6010   45.4500 C   0  0  0  0  0  0  0  0  0  0  0  0
   45.8140   33.1950   46.3230 C   0  0  0  0  0  0  0  0  0  0  0  0
   45.1910   34.3510   45.9170 C   0  0  0  0  0  0  0  0  0  0  0  0
   47.7140   32.6630   43.5970 H   0  0  0  0  0  0  0  0  0  0  0  0
   47.2360   31.6810   45.7610 H   0  0  0  0  0  0  0  0  0  0  0  0
   45.5900   32.7750   47.2820 H   0  0  0  0  0  0  0  0  0  0  0  0
   44.2500   35.0330   46.7140 O   0  0  0  0  0  0  0  0  0  0  0  0
   44.3350   35.0070   47.7190 H   0  0  0  0  0  0  0  0  0  0  0  0
  1 26  1  0  0  0  0
  2  7  1  0  0  0  0
  2  1  2  0  0  0  0
  3  4  2  0  0  0  0
  3  2  1  0  0  0  0
  4  5  1  0  0  0  0
  5  9  1  0  0  0  0
  5  6  2  0  0  0  0
  6  1  1  0  0  0  0
  8  3  1  0  0  0  0
  9 12  1  6  0  0  0
  9 10  1  0  0  0  0
 10 13  1  0  0  0  0
 10 14  1  0  0  0  0
 11 15  1  6  0  0  0
 11  9  1  0  0  0  0
 11 10  1  0  0  0  0
 16 11  1  0  0  0  0
 17 16  1  0  0  0  0
 18 17  1  0  0  0  0
 19 21  1  0  0  0  0
 19 17  1  0  0  0  0
 20 19  1  0  0  0  0
 21 22  1  0  0  0  0
 22 24  1  0  0  0  0
 23 22  1  0  0  0  0
 24 16  1  0  0  0  0
 24 25  1  0  0  0  0
 26 29  1  0  0  0  0
 26 27  1  0  0  0  0
 28 26  1  0  0  0  0
 29 30  1  0  0  0  0
 29 34  1  0  0  0  0
 31 29  1  0  0  0  0
 32 33  1  0  0  0  0
 33 38  1  0  0  0  0
 34 35  1  0  0  0  0
 34 33  2  0  0  0  0
 35 36  2  0  0  0  0
 36 40  1  0  0  0  0
 36 37  1  0  0  0  0
 37 41  1  0  0  0  0
 38 37  2  0  0  0  0
 38 42  1  0  0  0  0
 39 35  1  0  0  0  0
 42 43  1  0  0  0  0
M  END
>  <minimizedAffinity>
-5.79692316

>  <minimizedRMSD>
1.51407099

$$$$
