
 OpenBabel03252507203D

 45 48  0  0  1  0  0  0  0  0999 V2000
   46.7550   32.5060   43.8240 C   0  0  0  0  0  0  0  0  0  0  0  0
   48.0210   32.5180   44.0350 O   0  0  0  0  0  0  0  0  0  0  0  0
   46.1220   31.4540   43.0990 N   0  0  0  0  0  0  0  0  0  0  0  0
   44.8850   30.7200   43.4050 C   0  0  0  0  0  0  0  0  0  0  0  0
   43.9590   30.7600   42.1930 C   0  0  0  0  0  0  0  0  0  0  0  0
   44.6110   29.9950   41.0540 C   0  0  0  0  0  0  0  0  0  0  0  0
   46.0470   29.7800   41.3540 C   0  0  0  0  0  0  0  0  0  0  0  0
   46.7440   31.0040   41.8920 C   0  0  1  0  0  0  0  0  0  0  0  0
   44.3590   31.3840   44.1510 H   0  0  0  0  0  0  0  0  0  0  0  0
   45.0620   29.7290   43.8050 H   0  0  0  0  0  0  0  0  0  0  0  0
   43.8540   31.8410   41.9400 H   0  0  0  0  0  0  0  0  0  0  0  0
   42.9990   30.3290   42.5240 H   0  0  0  0  0  0  0  0  0  0  0  0
   44.3490   30.3870   40.0770 H   0  0  0  0  0  0  0  0  0  0  0  0
   44.1140   28.9820   41.1020 H   0  0  0  0  0  0  0  0  0  0  0  0
   46.6350   29.3260   40.5600 H   0  0  0  0  0  0  0  0  0  0  0  0
   46.0900   29.0350   42.2040 H   0  0  0  0  0  0  0  0  0  0  0  0
   47.7490   30.6370   42.1980 H   0  0  0  0  0  0  0  0  0  0  0  0
   46.9750   32.0300   40.8300 C   0  0  0  0  0  3  0  0  0  0  0  0
   48.3910   32.4800   40.6200 C   0  0  0  0  0  3  0  0  0  0  0  0
   49.0010   31.5400   40.5510 H   0  0  0  0  0  0  0  0  0  0  0  0
   48.5590   33.0950   39.2220 C   0  0  0  0  0  3  0  0  0  0  0  0
   48.6800   32.3120   38.4750 H   0  0  0  0  0  0  0  0  0  0  0  0
   47.4480   33.8690   38.9710 O   0  0  0  0  0  0  0  0  0  0  0  0
   46.3130   33.0950   38.7400 C   0  0  0  0  0  3  0  0  0  0  0  0
   45.4590   33.6540   39.2120 H   0  0  0  0  0  0  0  0  0  0  0  0
   46.3750   31.7550   39.4960 C   0  0  0  0  0  3  0  0  0  0  0  0
   46.9790   31.0960   38.8460 H   0  0  0  0  0  0  0  0  0  0  0  0
   45.5140   34.5620   43.4400 C   0  0  0  0  0  0  0  0  0  0  0  0
   45.9580   33.5840   44.3340 C   0  0  0  0  0  0  0  0  0  0  0  0
   45.6270   33.6830   45.6660 C   0  0  0  0  0  0  0  0  0  0  0  0
   44.8810   34.7270   46.0650 N   0  0  0  0  0  0  0  0  0  0  0  0
   44.4450   35.6850   45.2020 C   0  0  0  0  0  0  0  0  0  0  0  0
   44.7690   35.5810   43.9120 N   0  0  0  0  0  0  0  0  0  0  0  0
   45.7170   34.5730   42.3800 H   0  0  0  0  0  0  0  0  0  0  0  0
   43.8360   36.5300   45.5550 H   0  0  0  0  0  0  0  0  0  0  0  0
   46.0930   32.6610   46.5810 C   0  0  0  0  0  0  0  0  0  0  0  0
   45.3690   31.5080   46.7560 C   0  0  0  0  0  0  0  0  0  0  0  0
   45.8330   30.5520   47.6310 C   0  0  0  0  0  0  0  0  0  0  0  0
   47.0040   30.6900   48.3510 C   0  0  0  0  0  0  0  0  0  0  0  0
   47.6870   31.8680   48.1330 C   0  0  0  0  0  0  0  0  0  0  0  0
   47.2240   32.7850   47.2840 N   0  0  0  0  0  0  0  0  0  0  0  0
   44.4570   31.2650   46.2780 H   0  0  0  0  0  0  0  0  0  0  0  0
   45.2910   29.6130   47.8040 H   0  0  0  0  0  0  0  0  0  0  0  0
   47.3920   29.9550   49.0420 H   0  0  0  0  0  0  0  0  0  0  0  0
   48.6280   32.0750   48.6580 H   0  0  0  0  0  0  0  0  0  0  0  0
  1  2  2  0  0  0  0
  1 29  1  0  0  0  0
  3  4  1  0  0  0  0
  3  1  1  0  0  0  0
  4 10  1  0  0  0  0
  4  9  1  0  0  0  0
  5 12  1  0  0  0  0
  5  4  1  0  0  0  0
  6 14  1  0  0  0  0
  6  7  1  0  0  0  0
  6  5  1  0  0  0  0
  7  8  1  0  0  0  0
  7 16  1  0  0  0  0
  8 17  1  1  0  0  0
  8  3  1  0  0  0  0
 11  5  1  0  0  0  0
 13  6  1  0  0  0  0
 15  7  1  0  0  0  0
 18  8  1  0  0  0  0
 19 18  1  0  0  0  0
 20 19  1  0  0  0  0
 21 19  1  0  0  0  0
 22 21  1  0  0  0  0
 23 21  1  0  0  0  0
 24 23  1  0  0  0  0
 24 25  1  0  0  0  0
 24 26  1  0  0  0  0
 26 18  1  0  0  0  0
 27 26  1  0  0  0  0
 28 33  2  0  0  0  0
 28 29  1  0  0  0  0
 29 30  2  0  0  0  0
 30 31  1  0  0  0  0
 30 36  1  0  0  0  0
 32 35  1  0  0  0  0
 32 31  2  0  0  0  0
 33 32  1  0  0  0  0
 34 28  1  0  0  0  0
 36 37  2  0  0  0  0
 36 41  1  0  0  0  0
 37 38  1  0  0  0  0
 38 43  1  0  0  0  0
 38 39  2  0  0  0  0
 39 44  1  0  0  0  0
 40 39  1  0  0  0  0
 40 45  1  0  0  0  0
 41 40  2  0  0  0  0
 42 37  1  0  0  0  0
M  END
>  <minimizedAffinity>
-4.8007617

>  <minimizedRMSD>
2.82006764

$$$$
