
 OpenBabel03252503513D

 22 23  0  0  0  0  0  0  0  0999 V2000
   47.7630   34.9530   42.3540 C   0  0  0  0  0  0  0  0  0  0  0  0
   48.0340   33.8090   43.1150 C   0  0  0  0  0  0  0  0  0  0  0  0
   47.0170   33.3230   43.9590 C   0  0  0  0  0  0  0  0  0  0  0  0
   45.8460   33.9910   43.9790 N   0  0  0  0  0  0  0  0  0  0  0  0
   45.6030   35.0940   43.2380 C   0  0  0  0  0  0  0  0  0  0  0  0
   46.5670   35.5670   42.4290 N   0  0  0  0  0  0  0  0  0  0  0  0
   48.9940   33.2950   43.0730 H   0  0  0  0  0  0  0  0  0  0  0  0
   44.6380   35.5860   43.3000 H   0  0  0  0  0  0  0  0  0  0  0  0
   47.2800   32.1160   44.7730 C   0  0  0  0  0  3  0  0  0  0  0  0
   48.0560   31.1280   43.9360 C   0  0  0  0  0  3  0  0  0  0  0  0
   49.1370   31.3220   43.9540 H   0  0  0  0  0  0  0  0  0  0  0  0
   47.7040   29.7530   44.4560 C   0  0  0  0  0  3  0  0  0  0  0  0
   48.3340   29.0350   43.8640 H   0  0  0  0  0  0  0  0  0  0  0  0
   46.3980   29.4830   44.1110 O   0  0  0  0  0  0  0  0  0  0  0  0
   45.4700   30.3820   44.5830 C   0  0  0  0  0  3  0  0  0  0  0  0
   44.7730   29.8360   45.2490 H   0  0  0  0  0  0  0  0  0  0  0  0
   46.0330   31.5390   45.3600 C   0  0  0  0  0  3  0  0  0  0  0  0
   46.1590   31.2750   46.4440 H   0  0  0  0  0  0  0  0  0  0  0  0
   48.8670   35.4530   41.4600 C   0  0  0  0  0  0  0  0  0  0  0  0
   48.5230   35.3710   40.1380 F   0  0  0  0  0  0  0  0  0  0  0  0
   49.1720   36.7450   41.8340 F   0  0  0  0  0  0  0  0  0  0  0  0
   50.0200   34.7000   41.7080 F   0  0  0  0  0  0  0  0  0  0  0  0
  1  6  2  0  0  0  0
  1  2  1  0  0  0  0
  2  3  2  0  0  0  0
  3  4  1  0  0  0  0
  3  9  1  0  0  0  0
  5  8  1  0  0  0  0
  5  4  2  0  0  0  0
  6  5  1  0  0  0  0
  7  2  1  0  0  0  0
  9 17  1  0  0  0  0
 10 11  1  0  0  0  0
 10 12  1  0  0  0  0
 10  9  1  0  0  0  0
 13 12  1  0  0  0  0
 14 12  1  0  0  0  0
 14 15  1  0  0  0  0
 15 16  1  0  0  0  0
 15 17  1  0  0  0  0
 17 18  1  0  0  0  0
 19 22  1  0  0  0  0
 19 21  1  0  0  0  0
 19  1  1  0  0  0  0
 20 19  1  0  0  0  0
M  END
>  <minimizedAffinity>
-4.36672831

>  <minimizedRMSD>
1.04776335

$$$$
