
 OpenBabel03252506563D

 39 43  0  0  0  0  0  0  0  0999 V2000
   47.3320   31.3420   45.2010 C   0  0  0  0  0  0  0  0  0  0  0  0
   46.9150   32.6560   45.1070 C   0  0  0  0  0  0  0  0  0  0  0  0
   46.2540   33.3180   46.1360 C   0  0  0  0  0  0  0  0  0  0  0  0
   45.9860   32.6570   47.3250 C   0  0  0  0  0  0  0  0  0  0  0  0
   45.3860   32.9660   48.5010 N   0  0  0  0  0  0  0  0  0  0  0  0
   45.4290   31.8730   49.3060 C   0  0  0  0  0  0  0  0  0  0  0  0
   46.0590   30.8910   48.6170 N   0  0  0  0  0  0  0  0  0  0  0  0
   46.4130   31.3410   47.3960 C   0  0  0  0  0  0  0  0  0  0  0  0
   47.0670   30.6650   46.3950 C   0  0  0  0  0  0  0  0  0  0  0  0
   47.8440   30.8420   44.3920 H   0  0  0  0  0  0  0  0  0  0  0  0
   45.9250   34.3450   46.0660 H   0  0  0  0  0  0  0  0  0  0  0  0
   44.9670   33.9090   48.7180 H   0  0  0  0  0  0  0  0  0  0  0  0
   45.0340   31.7940   50.3150 H   0  0  0  0  0  0  0  0  0  0  0  0
   46.6170   35.1070   42.3740 C   0  0  0  0  0  0  0  0  0  0  0  0
   47.6900   34.7760   41.5530 C   0  0  0  0  0  0  0  0  0  0  0  0
   48.5190   33.7060   41.9400 C   0  0  0  0  0  0  0  0  0  0  0  0
   48.2300   33.0470   43.1010 N   0  0  0  0  0  0  0  0  0  0  0  0
   47.1700   33.4020   43.8770 C   0  0  0  0  0  0  0  0  0  0  0  0
   46.3750   34.4180   43.5200 N   0  0  0  0  0  0  0  0  0  0  0  0
   45.9970   35.9310   42.0570 H   0  0  0  0  0  0  0  0  0  0  0  0
   47.8590   35.3430   40.6480 H   0  0  0  0  0  0  0  0  0  0  0  0
   49.3520   33.4290   41.3270 H   0  0  0  0  0  0  0  0  0  0  0  0
   47.4740   29.2680   46.5840 C   0  0  0  0  0  0  0  0  0  0  0  0
   48.7800   28.8140   46.3980 C   0  0  0  0  0  0  0  0  0  0  0  0
   48.6800   27.4450   46.6880 C   0  0  0  0  0  0  0  0  0  0  0  0
   47.3580   27.1610   47.0220 C   0  0  0  0  0  0  0  0  0  0  0  0
   46.6840   28.3010   46.9400 O   0  0  0  0  0  0  0  0  0  0  0  0
   49.6790   29.3260   46.1080 H   0  0  0  0  0  0  0  0  0  0  0  0
   49.4670   26.6910   46.6700 H   0  0  0  0  0  0  0  0  0  0  0  0
   46.7380   25.8820   47.4040 C   0  0  0  0  0  3  0  0  0  0  0  0
   45.3550   26.0550   47.9400 C   0  0  0  0  0  3  0  0  0  0  0  0
   44.8110   26.9100   47.4900 H   0  0  0  0  0  0  0  0  0  0  0  0
   44.6120   24.7420   47.6710 C   0  0  0  0  0  3  0  0  0  0  0  0
   44.3630   24.6360   46.5930 H   0  0  0  0  0  0  0  0  0  0  0  0
   45.5370   23.7330   47.9540 O   0  0  0  0  0  0  0  0  0  0  0  0
   46.3760   23.5590   46.8340 C   0  0  0  0  0  3  0  0  0  0  0  0
   47.3110   23.0490   47.1530 H   0  0  0  0  0  0  0  0  0  0  0  0
   46.6550   24.9170   46.2280 C   0  0  0  0  0  3  0  0  0  0  0  0
   47.6940   24.8630   45.8020 H   0  0  0  0  0  0  0  0  0  0  0  0
  1  9  1  0  0  0  0
  2  1  2  0  0  0  0
  2  3  1  0  0  0  0
  3  4  2  0  0  0  0
  4  8  1  0  0  0  0
  4  5  1  0  0  0  0
  5 12  1  0  0  0  0
  5  6  1  0  0  0  0
  6 13  1  0  0  0  0
  7  6  2  0  0  0  0
  8  7  1  0  0  0  0
  9 23  1  0  0  0  0
  9  8  2  0  0  0  0
 10  1  1  0  0  0  0
 11  3  1  0  0  0  0
 14 19  1  0  0  0  0
 15 16  1  0  0  0  0
 15 14  2  0  0  0  0
 16 17  2  0  0  0  0
 17 18  1  0  0  0  0
 18  2  1  0  0  0  0
 19 18  2  0  0  0  0
 20 14  1  0  0  0  0
 21 15  1  0  0  0  0
 22 16  1  0  0  0  0
 23 27  1  0  0  0  0
 24 23  2  0  0  0  0
 24 25  1  0  0  0  0
 25 26  2  0  0  0  0
 26 30  1  0  0  0  0
 27 26  1  0  0  0  0
 28 24  1  0  0  0  0
 29 25  1  0  0  0  0
 30 31  1  0  0  0  0
 32 31  1  0  0  0  0
 33 31  1  0  0  0  0
 33 35  1  0  0  0  0
 34 33  1  0  0  0  0
 36 37  1  0  0  0  0
 36 35  1  0  0  0  0
 38 36  1  0  0  0  0
 38 30  1  0  0  0  0
 39 38  1  0  0  0  0
M  END
>  <minimizedAffinity>
-5.62728977

>  <minimizedRMSD>
0.733910561

$$$$
