
 OpenBabel03242510473D

 22 23  0  0  0  0  0  0  0  0999 V2000
   36.8790   28.6060   41.9820 C   0  0  0  0  0  0  0  0  0  0  0  0
   35.7590   28.6670   41.1180 C   0  0  0  0  0  0  0  0  0  0  0  0
   35.6590   29.7940   40.2760 C   0  0  0  0  0  0  0  0  0  0  0  0
   36.6230   30.7390   40.3400 N   0  0  0  0  0  0  0  0  0  0  0  0
   37.6780   30.6390   41.1820 C   0  0  0  0  0  0  0  0  0  0  0  0
   37.8010   29.5860   41.9900 N   0  0  0  0  0  0  0  0  0  0  0  0
   35.0040   27.8840   41.0980 H   0  0  0  0  0  0  0  0  0  0  0  0
   34.8200   29.8610   39.6140 H   0  0  0  0  0  0  0  0  0  0  0  0
   38.6440   31.7610   41.1260 C   0  0  0  0  0  3  0  0  0  0  0  0
   39.9250   31.2500   40.5220 C   0  0  0  0  0  3  0  0  0  0  0  0
   39.7290   30.4310   39.8030 H   0  0  0  0  0  0  0  0  0  0  0  0
   40.7630   32.3540   39.9230 C   0  0  0  0  0  3  0  0  0  0  0  0
   41.3970   32.8620   40.6800 H   0  0  0  0  0  0  0  0  0  0  0  0
   39.9930   33.2760   39.2190 O   0  0  0  0  0  0  0  0  0  0  0  0
   39.0400   33.8980   40.0030 C   0  0  0  0  0  3  0  0  0  0  0  0
   38.5430   34.6520   39.3570 H   0  0  0  0  0  0  0  0  0  0  0  0
   38.0070   32.8870   40.3880 C   0  0  0  0  0  3  0  0  0  0  0  0
   37.4130   32.5470   39.4980 H   0  0  0  0  0  0  0  0  0  0  0  0
   36.9650   27.4030   42.8660 C   0  0  0  0  0  0  0  0  0  0  0  0
   38.1410   27.3960   43.5930 F   0  0  0  0  0  0  0  0  0  0  0  0
   35.8530   27.3840   43.6790 F   0  0  0  0  0  0  0  0  0  0  0  0
   36.8930   26.2460   42.0810 F   0  0  0  0  0  0  0  0  0  0  0  0
  1  6  1  0  0  0  0
  1 19  1  0  0  0  0
  2  1  2  0  0  0  0
  3  4  2  0  0  0  0
  3  2  1  0  0  0  0
  4  5  1  0  0  0  0
  5  6  2  0  0  0  0
  7  2  1  0  0  0  0
  8  3  1  0  0  0  0
  9  5  1  0  0  0  0
 10  9  1  0  0  0  0
 11 10  1  0  0  0  0
 12 10  1  0  0  0  0
 12 13  1  0  0  0  0
 14 12  1  0  0  0  0
 14 15  1  0  0  0  0
 15 17  1  0  0  0  0
 16 15  1  0  0  0  0
 17  9  1  0  0  0  0
 18 17  1  0  0  0  0
 19 20  1  0  0  0  0
 19 21  1  0  0  0  0
 22 19  1  0  0  0  0
M  END
>  <minimizedAffinity>
-4.8605361

$$$$

 OpenBabel03242510473D

 22 23  0  0  0  0  0  0  0  0999 V2000
   37.9020   31.9050   40.6800 C   0  0  0  0  0  0  0  0  0  0  0  0
   36.5990   31.4500   40.3620 C   0  0  0  0  0  0  0  0  0  0  0  0
   36.1880   30.2290   40.9370 C   0  0  0  0  0  0  0  0  0  0  0  0
   37.0480   29.5720   41.7470 N   0  0  0  0  0  0  0  0  0  0  0  0
   38.2850   30.0460   42.0230 C   0  0  0  0  0  0  0  0  0  0  0  0
   38.7030   31.1960   41.4960 N   0  0  0  0  0  0  0  0  0  0  0  0
   35.9380   32.0100   39.7040 H   0  0  0  0  0  0  0  0  0  0  0  0
   35.2070   29.8660   40.7100 H   0  0  0  0  0  0  0  0  0  0  0  0
   39.1000   29.2030   42.9300 C   0  0  0  0  0  3  0  0  0  0  0  0
   38.3200   27.9530   43.2390 C   0  0  0  0  0  3  0  0  0  0  0  0
   37.6600   27.6740   42.3960 H   0  0  0  0  0  0  0  0  0  0  0  0
   39.2060   26.8120   43.6800 C   0  0  0  0  0  3  0  0  0  0  0  0
   39.4440   26.8560   44.7640 H   0  0  0  0  0  0  0  0  0  0  0  0
   40.3670   26.7240   42.9180 O   0  0  0  0  0  0  0  0  0  0  0  0
   41.1460   27.8630   42.9810 C   0  0  0  0  0  3  0  0  0  0  0  0
   42.0670   27.6500   42.3990 H   0  0  0  0  0  0  0  0  0  0  0  0
   40.4240   28.9740   42.2870 C   0  0  0  0  0  3  0  0  0  0  0  0
   40.3480   28.7870   41.1830 H   0  0  0  0  0  0  0  0  0  0  0  0
   38.3170   33.2010   40.0590 C   0  0  0  0  0  0  0  0  0  0  0  0
   39.2840   33.0080   39.0900 F   0  0  0  0  0  0  0  0  0  0  0  0
   37.1930   33.8180   39.5550 F   0  0  0  0  0  0  0  0  0  0  0  0
   38.8140   34.0520   41.0540 F   0  0  0  0  0  0  0  0  0  0  0  0
  1  6  1  0  0  0  0
  2  1  2  0  0  0  0
  2  3  1  0  0  0  0
  3  4  2  0  0  0  0
  4  5  1  0  0  0  0
  5  9  1  0  0  0  0
  6  5  2  0  0  0  0
  7  2  1  0  0  0  0
  8  3  1  0  0  0  0
  9 10  1  0  0  0  0
 10 12  1  0  0  0  0
 11 10  1  0  0  0  0
 12 13  1  0  0  0  0
 14 15  1  0  0  0  0
 14 12  1  0  0  0  0
 16 15  1  0  0  0  0
 17  9  1  0  0  0  0
 17 15  1  0  0  0  0
 18 17  1  0  0  0  0
 19  1  1  0  0  0  0
 19 22  1  0  0  0  0
 20 19  1  0  0  0  0
 21 19  1  0  0  0  0
M  END
>  <minimizedAffinity>
-4.720222

$$$$

 OpenBabel03242510473D

 22 23  0  0  0  0  0  0  0  0999 V2000
   37.1550   26.8890   41.8550 C   0  0  0  0  0  0  0  0  0  0  0  0
   37.5450   27.3570   43.1340 C   0  0  0  0  0  0  0  0  0  0  0  0
   37.5680   28.7550   43.3260 C   0  0  0  0  0  0  0  0  0  0  0  0
   37.2230   29.5560   42.2950 N   0  0  0  0  0  0  0  0  0  0  0  0
   36.8560   29.0650   41.0880 C   0  0  0  0  0  0  0  0  0  0  0  0
   36.8240   27.7500   40.8750 N   0  0  0  0  0  0  0  0  0  0  0  0
   37.8160   26.6770   43.9380 H   0  0  0  0  0  0  0  0  0  0  0  0
   37.8590   29.1300   44.2850 H   0  0  0  0  0  0  0  0  0  0  0  0
   36.5080   30.0810   40.0680 C   0  0  0  0  0  3  0  0  0  0  0  0
   36.9160   31.4330   40.5890 C   0  0  0  0  0  3  0  0  0  0  0  0
   37.7960   31.3550   41.2570 H   0  0  0  0  0  0  0  0  0  0  0  0
   37.1200   32.4420   39.4850 C   0  0  0  0  0  3  0  0  0  0  0  0
   36.1680   32.9210   39.1700 H   0  0  0  0  0  0  0  0  0  0  0  0
   37.7890   31.8980   38.3930 O   0  0  0  0  0  0  0  0  0  0  0  0
   37.1200   30.8320   37.8220 C   0  0  0  0  0  3  0  0  0  0  0  0
   37.7070   30.5320   36.9280 H   0  0  0  0  0  0  0  0  0  0  0  0
   37.1460   29.6850   38.7800 C   0  0  0  0  0  3  0  0  0  0  0  0
   38.1850   29.2840   38.9130 H   0  0  0  0  0  0  0  0  0  0  0  0
   37.1370   25.4050   41.6730 C   0  0  0  0  0  0  0  0  0  0  0  0
   38.4190   24.8920   41.6040 F   0  0  0  0  0  0  0  0  0  0  0  0
   36.4130   24.8520   42.7070 F   0  0  0  0  0  0  0  0  0  0  0  0
   36.4430   25.0910   40.4990 F   0  0  0  0  0  0  0  0  0  0  0  0
  1  2  1  0  0  0  0
  2  3  2  0  0  0  0
  2  7  1  0  0  0  0
  3  8  1  0  0  0  0
  4  3  1  0  0  0  0
  5  4  2  0  0  0  0
  6  5  1  0  0  0  0
  6  1  2  0  0  0  0
  9 10  1  0  0  0  0
  9  5  1  0  0  0  0
 10 11  1  0  0  0  0
 12 10  1  0  0  0  0
 13 12  1  0  0  0  0
 14 12  1  0  0  0  0
 15 14  1  0  0  0  0
 15 17  1  0  0  0  0
 16 15  1  0  0  0  0
 17 18  1  0  0  0  0
 17  9  1  0  0  0  0
 19  1  1  0  0  0  0
 19 21  1  0  0  0  0
 20 19  1  0  0  0  0
 22 19  1  0  0  0  0
M  END
>  <minimizedAffinity>
-4.71800995

$$$$

 OpenBabel03242510473D

 22 23  0  0  0  0  0  0  0  0999 V2000
   35.6680   29.0090   40.1740 C   0  0  0  0  0  0  0  0  0  0  0  0
   36.0790   30.3120   40.5480 C   0  0  0  0  0  0  0  0  0  0  0  0
   36.9600   30.4170   41.6450 C   0  0  0  0  0  0  0  0  0  0  0  0
   37.3550   29.2850   42.2690 N   0  0  0  0  0  0  0  0  0  0  0  0
   36.9370   28.0590   41.8770 C   0  0  0  0  0  0  0  0  0  0  0  0
   36.1050   27.9280   40.8440 N   0  0  0  0  0  0  0  0  0  0  0  0
   35.7360   31.1990   40.0190 H   0  0  0  0  0  0  0  0  0  0  0  0
   37.2840   31.3920   41.9450 H   0  0  0  0  0  0  0  0  0  0  0  0
   37.4660   26.9240   42.6680 C   0  0  0  0  0  3  0  0  0  0  0  0
   37.2220   25.6560   41.8940 C   0  0  0  0  0  3  0  0  0  0  0  0
   37.2370   25.8430   40.8040 H   0  0  0  0  0  0  0  0  0  0  0  0
   38.1550   24.5410   42.3010 C   0  0  0  0  0  3  0  0  0  0  0  0
   37.7920   23.9900   43.1950 H   0  0  0  0  0  0  0  0  0  0  0  0
   39.4590   24.9880   42.4880 O   0  0  0  0  0  0  0  0  0  0  0  0
   39.5660   25.9570   43.4680 C   0  0  0  0  0  3  0  0  0  0  0  0
   40.6480   26.1810   43.5750 H   0  0  0  0  0  0  0  0  0  0  0  0
   38.8960   27.2020   42.9820 C   0  0  0  0  0  3  0  0  0  0  0  0
   39.4510   27.6590   42.1210 H   0  0  0  0  0  0  0  0  0  0  0  0
   34.7350   28.9220   39.0090 C   0  0  0  0  0  0  0  0  0  0  0  0
   33.4300   29.1780   39.3900 F   0  0  0  0  0  0  0  0  0  0  0  0
   35.1720   29.7960   38.0380 F   0  0  0  0  0  0  0  0  0  0  0  0
   34.8160   27.6430   38.4460 F   0  0  0  0  0  0  0  0  0  0  0  0
  1  2  2  0  0  0  0
  1  6  1  0  0  0  0
  2  3  1  0  0  0  0
  3  8  1  0  0  0  0
  3  4  2  0  0  0  0
  5  4  1  0  0  0  0
  5  9  1  0  0  0  0
  6  5  2  0  0  0  0
  7  2  1  0  0  0  0
  9 17  1  0  0  0  0
 10 12  1  0  0  0  0
 10  9  1  0  0  0  0
 11 10  1  0  0  0  0
 12 14  1  0  0  0  0
 12 13  1  0  0  0  0
 14 15  1  0  0  0  0
 15 16  1  0  0  0  0
 17 15  1  0  0  0  0
 18 17  1  0  0  0  0
 19 20  1  0  0  0  0
 19  1  1  0  0  0  0
 21 19  1  0  0  0  0
 22 19  1  0  0  0  0
M  END
>  <minimizedAffinity>
-4.71232367

$$$$

 OpenBabel03242510473D

 22 23  0  0  0  0  0  0  0  0999 V2000
   38.4510   31.6660   40.9920 C   0  0  0  0  0  0  0  0  0  0  0  0
   37.2290   31.9100   40.3180 C   0  0  0  0  0  0  0  0  0  0  0  0
   36.1900   30.9760   40.5160 C   0  0  0  0  0  0  0  0  0  0  0  0
   36.4160   29.9180   41.3250 N   0  0  0  0  0  0  0  0  0  0  0  0
   37.6010   29.7250   41.9490 C   0  0  0  0  0  0  0  0  0  0  0  0
   38.6020   30.5890   41.7830 N   0  0  0  0  0  0  0  0  0  0  0  0
   37.0890   32.7750   39.6740 H   0  0  0  0  0  0  0  0  0  0  0  0
   35.2580   31.1410   40.0160 H   0  0  0  0  0  0  0  0  0  0  0  0
   37.6810   28.5150   42.8010 C   0  0  0  0  0  3  0  0  0  0  0  0
   36.9240   27.4070   42.1190 C   0  0  0  0  0  3  0  0  0  0  0  0
   36.9610   27.5170   41.0180 H   0  0  0  0  0  0  0  0  0  0  0  0
   37.3650   26.0370   42.5760 C   0  0  0  0  0  3  0  0  0  0  0  0
   36.8580   25.7210   43.5120 H   0  0  0  0  0  0  0  0  0  0  0  0
   38.7480   25.9450   42.7030 O   0  0  0  0  0  0  0  0  0  0  0  0
   39.2700   26.8430   43.6140 C   0  0  0  0  0  3  0  0  0  0  0  0
   40.3580   26.6290   43.6810 H   0  0  0  0  0  0  0  0  0  0  0  0
   39.1190   28.2250   43.0630 C   0  0  0  0  0  3  0  0  0  0  0  0
   39.7670   28.3810   42.1610 H   0  0  0  0  0  0  0  0  0  0  0  0
   39.5380   32.6690   40.7670 C   0  0  0  0  0  0  0  0  0  0  0  0
   40.6690   32.3560   41.4980 F   0  0  0  0  0  0  0  0  0  0  0  0
   39.7960   32.7320   39.4150 F   0  0  0  0  0  0  0  0  0  0  0  0
   39.0790   33.9390   41.1350 F   0  0  0  0  0  0  0  0  0  0  0  0
  1  6  1  0  0  0  0
  2  3  1  0  0  0  0
  2  1  2  0  0  0  0
  3  4  2  0  0  0  0
  4  5  1  0  0  0  0
  5  9  1  0  0  0  0
  6  5  2  0  0  0  0
  7  2  1  0  0  0  0
  8  3  1  0  0  0  0
  9 17  1  0  0  0  0
 10 12  1  0  0  0  0
 10  9  1  0  0  0  0
 11 10  1  0  0  0  0
 12 14  1  0  0  0  0
 12 13  1  0  0  0  0
 14 15  1  0  0  0  0
 15 16  1  0  0  0  0
 17 15  1  0  0  0  0
 18 17  1  0  0  0  0
 19  1  1  0  0  0  0
 19 22  1  0  0  0  0
 19 20  1  0  0  0  0
 21 19  1  0  0  0  0
M  END
>  <minimizedAffinity>
-4.67110634

$$$$

 OpenBabel03242510473D

 22 23  0  0  0  0  0  0  0  0999 V2000
   36.8310   27.2370   41.3490 C   0  0  0  0  0  0  0  0  0  0  0  0
   36.8380   26.2600   40.3230 C   0  0  0  0  0  0  0  0  0  0  0  0
   36.7340   26.7240   38.9950 C   0  0  0  0  0  0  0  0  0  0  0  0
   36.6330   28.0550   38.7800 N   0  0  0  0  0  0  0  0  0  0  0  0
   36.6310   28.9530   39.7920 C   0  0  0  0  0  0  0  0  0  0  0  0
   36.7290   28.5450   41.0570 N   0  0  0  0  0  0  0  0  0  0  0  0
   36.9210   25.1970   40.5400 H   0  0  0  0  0  0  0  0  0  0  0  0
   36.7370   26.0040   38.2030 H   0  0  0  0  0  0  0  0  0  0  0  0
   36.5150   30.3720   39.3820 C   0  0  0  0  0  3  0  0  0  0  0  0
   36.9240   31.2340   40.5460 C   0  0  0  0  0  3  0  0  0  0  0  0
   37.6810   30.7250   41.1740 H   0  0  0  0  0  0  0  0  0  0  0  0
   37.3640   32.6140   40.1180 C   0  0  0  0  0  3  0  0  0  0  0  0
   36.5080   33.3090   39.9870 H   0  0  0  0  0  0  0  0  0  0  0  0
   38.1590   32.5810   38.9770 O   0  0  0  0  0  0  0  0  0  0  0  0
   37.5200   32.0250   37.8850 C   0  0  0  0  0  3  0  0  0  0  0  0
   38.2190   32.1180   37.0280 H   0  0  0  0  0  0  0  0  0  0  0  0
   37.3190   30.5660   38.1430 C   0  0  0  0  0  3  0  0  0  0  0  0
   38.2960   30.0140   38.1660 H   0  0  0  0  0  0  0  0  0  0  0  0
   36.9430   26.7220   42.7490 C   0  0  0  0  0  0  0  0  0  0  0  0
   38.2270   26.8740   43.2390 F   0  0  0  0  0  0  0  0  0  0  0  0
   36.0110   27.3750   43.5250 F   0  0  0  0  0  0  0  0  0  0  0  0
   36.5900   25.3680   42.7730 F   0  0  0  0  0  0  0  0  0  0  0  0
  1 19  1  0  0  0  0
  2  7  1  0  0  0  0
  2  1  2  0  0  0  0
  3  2  1  0  0  0  0
  4  3  2  0  0  0  0
  4  5  1  0  0  0  0
  5  6  2  0  0  0  0
  6  1  1  0  0  0  0
  8  3  1  0  0  0  0
  9  5  1  0  0  0  0
  9 10  1  0  0  0  0
 10 11  1  0  0  0  0
 12 10  1  0  0  0  0
 13 12  1  0  0  0  0
 14 12  1  0  0  0  0
 15 17  1  0  0  0  0
 15 14  1  0  0  0  0
 16 15  1  0  0  0  0
 17 18  1  0  0  0  0
 17  9  1  0  0  0  0
 19 22  1  0  0  0  0
 19 20  1  0  0  0  0
 19 21  1  0  0  0  0
M  END
>  <minimizedAffinity>
-4.62375259

$$$$

 OpenBabel03242510473D

 22 23  0  0  0  0  0  0  0  0999 V2000
   38.2160   31.6320   40.1710 C   0  0  0  0  0  0  0  0  0  0  0  0
   39.4480   32.3070   40.3560 C   0  0  0  0  0  0  0  0  0  0  0  0
   40.2610   31.8750   41.4250 C   0  0  0  0  0  0  0  0  0  0  0  0
   39.8260   30.8590   42.2010 N   0  0  0  0  0  0  0  0  0  0  0  0
   38.6400   30.2420   41.9870 C   0  0  0  0  0  0  0  0  0  0  0  0
   37.8500   30.6260   40.9850 N   0  0  0  0  0  0  0  0  0  0  0  0
   39.7610   33.1220   39.7080 H   0  0  0  0  0  0  0  0  0  0  0  0
   41.1960   32.3710   41.5840 H   0  0  0  0  0  0  0  0  0  0  0  0
   38.3150   29.1460   42.9290 C   0  0  0  0  0  3  0  0  0  0  0  0
   37.0380   28.4930   42.4710 C   0  0  0  0  0  3  0  0  0  0  0  0
   36.9310   28.5530   41.3700 H   0  0  0  0  0  0  0  0  0  0  0  0
   36.8910   27.0820   42.9880 C   0  0  0  0  0  3  0  0  0  0  0  0
   36.4650   27.0500   44.0130 H   0  0  0  0  0  0  0  0  0  0  0  0
   38.0860   26.3710   42.9230 O   0  0  0  0  0  0  0  0  0  0  0  0
   39.1020   26.9480   43.6610 C   0  0  0  0  0  3  0  0  0  0  0  0
   39.9730   26.2630   43.5910 H   0  0  0  0  0  0  0  0  0  0  0  0
   39.4920   28.2360   43.0090 C   0  0  0  0  0  3  0  0  0  0  0  0
   39.9780   28.0610   42.0130 H   0  0  0  0  0  0  0  0  0  0  0  0
   37.3700   32.1050   39.0320 C   0  0  0  0  0  0  0  0  0  0  0  0
   36.8270   33.3490   39.2930 F   0  0  0  0  0  0  0  0  0  0  0  0
   38.1430   32.1060   37.8910 F   0  0  0  0  0  0  0  0  0  0  0  0
   36.3430   31.1820   38.8050 F   0  0  0  0  0  0  0  0  0  0  0  0
  1  2  2  0  0  0  0
  1  6  1  0  0  0  0
  2  3  1  0  0  0  0
  3  8  1  0  0  0  0
  3  4  2  0  0  0  0
  5  4  1  0  0  0  0
  5  9  1  0  0  0  0
  6  5  2  0  0  0  0
  7  2  1  0  0  0  0
  9 17  1  0  0  0  0
 10  9  1  0  0  0  0
 10 12  1  0  0  0  0
 11 10  1  0  0  0  0
 12 13  1  0  0  0  0
 14 12  1  0  0  0  0
 14 15  1  0  0  0  0
 16 15  1  0  0  0  0
 17 15  1  0  0  0  0
 18 17  1  0  0  0  0
 19 20  1  0  0  0  0
 19  1  1  0  0  0  0
 21 19  1  0  0  0  0
 22 19  1  0  0  0  0
M  END
>  <minimizedAffinity>
-4.61490536

$$$$

 OpenBabel03242510473D

 22 23  0  0  0  0  0  0  0  0999 V2000
   38.0780   25.8930   42.2710 C   0  0  0  0  0  0  0  0  0  0  0  0
   39.2330   25.6980   43.0670 C   0  0  0  0  0  0  0  0  0  0  0  0
   39.8530   26.8530   43.5900 C   0  0  0  0  0  0  0  0  0  0  0  0
   39.3190   28.0610   43.3050 N   0  0  0  0  0  0  0  0  0  0  0  0
   38.2130   28.1990   42.5390 C   0  0  0  0  0  0  0  0  0  0  0  0
   37.6040   27.1280   42.0310 N   0  0  0  0  0  0  0  0  0  0  0  0
   39.6310   24.7070   43.2730 H   0  0  0  0  0  0  0  0  0  0  0  0
   40.7280   26.7290   44.1950 H   0  0  0  0  0  0  0  0  0  0  0  0
   37.7580   29.5930   42.3250 C   0  0  0  0  0  3  0  0  0  0  0  0
   38.9220   30.3940   41.8040 C   0  0  0  0  0  3  0  0  0  0  0  0
   39.6090   29.7610   41.2100 H   0  0  0  0  0  0  0  0  0  0  0  0
   38.4850   31.6300   41.0550 C   0  0  0  0  0  3  0  0  0  0  0  0
   38.2820   32.4860   41.7340 H   0  0  0  0  0  0  0  0  0  0  0  0
   37.3970   31.3840   40.2240 O   0  0  0  0  0  0  0  0  0  0  0  0
   36.2830   30.9340   40.9070 C   0  0  0  0  0  3  0  0  0  0  0  0
   35.4680   30.8420   40.1580 H   0  0  0  0  0  0  0  0  0  0  0  0
   36.5670   29.5620   41.4300 C   0  0  0  0  0  3  0  0  0  0  0  0
   36.6650   28.8170   40.5970 H   0  0  0  0  0  0  0  0  0  0  0  0
   37.4370   24.6560   41.7280 C   0  0  0  0  0  0  0  0  0  0  0  0
   38.3020   23.5790   41.7740 F   0  0  0  0  0  0  0  0  0  0  0  0
   36.2790   24.4210   42.4370 F   0  0  0  0  0  0  0  0  0  0  0  0
   37.0420   24.8830   40.4040 F   0  0  0  0  0  0  0  0  0  0  0  0
  1  2  1  0  0  0  0
  2  7  1  0  0  0  0
  2  3  2  0  0  0  0
  3  8  1  0  0  0  0
  4  3  1  0  0  0  0
  5  4  2  0  0  0  0
  6  1  2  0  0  0  0
  6  5  1  0  0  0  0
  9  5  1  0  0  0  0
 10  9  1  0  0  0  0
 11 10  1  0  0  0  0
 12 13  1  0  0  0  0
 12 10  1  0  0  0  0
 14 15  1  0  0  0  0
 14 12  1  0  0  0  0
 15 17  1  0  0  0  0
 16 15  1  0  0  0  0
 17  9  1  0  0  0  0
 18 17  1  0  0  0  0
 19 20  1  0  0  0  0
 19  1  1  0  0  0  0
 19 21  1  0  0  0  0
 22 19  1  0  0  0  0
M  END
>  <minimizedAffinity>
-4.58621311

$$$$

 OpenBabel03242510473D

 22 23  0  0  0  0  0  0  0  0999 V2000
   37.4140   26.6780   42.1560 C   0  0  0  0  0  0  0  0  0  0  0  0
   37.8720   27.3260   43.3290 C   0  0  0  0  0  0  0  0  0  0  0  0
   37.7300   28.7290   43.3840 C   0  0  0  0  0  0  0  0  0  0  0  0
   37.1730   29.3650   42.3300 N   0  0  0  0  0  0  0  0  0  0  0  0
   36.7480   28.7040   41.2280 C   0  0  0  0  0  0  0  0  0  0  0  0
   36.8680   27.3790   41.1470 N   0  0  0  0  0  0  0  0  0  0  0  0
   38.3160   26.7760   44.1560 H   0  0  0  0  0  0  0  0  0  0  0  0
   38.0700   29.2400   44.2610 H   0  0  0  0  0  0  0  0  0  0  0  0
   36.1600   29.5530   40.1650 C   0  0  0  0  0  3  0  0  0  0  0  0
   37.1740   30.5960   39.7810 C   0  0  0  0  0  3  0  0  0  0  0  0
   38.2070   30.2190   39.9130 H   0  0  0  0  0  0  0  0  0  0  0  0
   36.9370   31.1520   38.3970 C   0  0  0  0  0  3  0  0  0  0  0  0
   36.1860   31.9710   38.3930 H   0  0  0  0  0  0  0  0  0  0  0  0
   36.5950   30.1590   37.4830 O   0  0  0  0  0  0  0  0  0  0  0  0
   35.4440   29.4770   37.8280 C   0  0  0  0  0  3  0  0  0  0  0  0
   35.2360   28.7690   36.9980 H   0  0  0  0  0  0  0  0  0  0  0  0
   35.7190   28.6650   39.0520 C   0  0  0  0  0  3  0  0  0  0  0  0
   36.4450   27.8360   38.8410 H   0  0  0  0  0  0  0  0  0  0  0  0
   37.5750   25.1920   42.1200 C   0  0  0  0  0  0  0  0  0  0  0  0
   36.4400   24.5510   42.5820 F   0  0  0  0  0  0  0  0  0  0  0  0
   37.8890   24.8220   40.8300 F   0  0  0  0  0  0  0  0  0  0  0  0
   38.6730   24.8260   42.9070 F   0  0  0  0  0  0  0  0  0  0  0  0
  1  2  1  0  0  0  0
  2  3  2  0  0  0  0
  2  7  1  0  0  0  0
  3  8  1  0  0  0  0
  4  3  1  0  0  0  0
  5  4  2  0  0  0  0
  6  5  1  0  0  0  0
  6  1  2  0  0  0  0
  9  5  1  0  0  0  0
 10 11  1  0  0  0  0
 10  9  1  0  0  0  0
 12 10  1  0  0  0  0
 13 12  1  0  0  0  0
 14 15  1  0  0  0  0
 14 12  1  0  0  0  0
 15 17  1  0  0  0  0
 16 15  1  0  0  0  0
 17  9  1  0  0  0  0
 18 17  1  0  0  0  0
 19  1  1  0  0  0  0
 19 20  1  0  0  0  0
 19 22  1  0  0  0  0
 21 19  1  0  0  0  0
M  END
>  <minimizedAffinity>
-4.58227205

$$$$
