
 OpenBabel03252502393D

 47 50  0  0  1  0  0  0  0  0999 V2000
   42.9920   33.8710   40.5060 C   0  0  1  0  0  0  0  0  0  0  0  0
   42.7590   33.2430   41.4170 H   0  0  0  0  0  0  0  0  0  0  0  0
   41.7240   34.3810   40.0580 N   0  0  0  0  0  0  0  0  0  0  0  0
   40.7240   33.3840   39.9690 C   0  0  0  0  0  0  0  0  0  0  0  0
   39.6080   34.0110   39.1110 C   0  0  0  0  0  0  0  0  0  0  0  0
   39.0170   34.9770   40.0010 N   0  0  0  0  0  0  0  0  0  0  0  0
   39.9180   35.9770   40.4150 C   0  0  0  0  0  0  0  0  0  0  0  0
   41.3090   35.4970   40.7990 C   0  0  0  0  0  0  0  0  0  0  0  0
   41.1030   32.4500   39.5090 H   0  0  0  0  0  0  0  0  0  0  0  0
   40.2820   33.1870   40.9700 H   0  0  0  0  0  0  0  0  0  0  0  0
   40.0590   34.4860   38.2220 H   0  0  0  0  0  0  0  0  0  0  0  0
   38.8740   33.2330   38.8770 H   0  0  0  0  0  0  0  0  0  0  0  0
   38.5840   34.4710   40.7960 H   0  0  0  0  0  0  0  0  0  0  0  0
   40.0140   36.7210   39.5790 H   0  0  0  0  0  0  0  0  0  0  0  0
   39.4480   36.5620   41.2350 H   0  0  0  0  0  0  0  0  0  0  0  0
   41.0380   35.0660   41.8160 H   0  0  0  0  0  0  0  0  0  0  0  0
   41.8690   36.4010   40.8570 H   0  0  0  0  0  0  0  0  0  0  0  0
   44.2430   31.8210   39.8440 C   0  0  0  0  0  0  0  0  0  0  0  0
   43.7290   33.0720   39.5780 C   0  0  0  0  0  0  0  0  0  0  0  0
   43.9670   33.5640   38.2790 C   0  0  0  0  0  0  0  0  0  0  0  0
   44.6690   32.8040   37.3830 N   0  0  0  0  0  0  0  0  0  0  0  0
   45.1450   31.5780   37.7240 C   0  0  0  0  0  0  0  0  0  0  0  0
   44.9290   31.0890   38.9590 N   0  0  0  0  0  0  0  0  0  0  0  0
   44.0990   31.3810   40.8160 H   0  0  0  0  0  0  0  0  0  0  0  0
   43.6190   34.5270   37.9390 H   0  0  0  0  0  0  0  0  0  0  0  0
   45.6820   31.0640   36.9530 H   0  0  0  0  0  0  0  0  0  0  0  0
   43.8780   35.0490   40.9320 C   0  0  0  0  0  0  0  0  0  0  0  0
   44.3190   35.6280   40.1280 H   0  0  0  0  0  0  0  0  0  0  0  0
   43.0400   35.7540   41.2390 H   0  0  0  0  0  0  0  0  0  0  0  0
   44.8050   34.7960   41.9860 C   0  0  0  0  0  0  0  0  0  0  0  0
   44.7980   34.7220   43.3380 C   0  0  0  0  0  0  0  0  0  0  0  0
   45.8530   34.4630   44.1920 C   0  0  0  0  0  0  0  0  0  0  0  0
   47.0280   34.2640   43.5900 N   0  0  0  0  0  0  0  0  0  0  0  0
   47.1280   34.3170   42.2820 C   0  0  0  0  0  0  0  0  0  0  0  0
   46.0610   34.5710   41.5390 N   0  0  0  0  0  0  0  0  0  0  0  0
   43.7830   34.9090   43.7410 H   0  0  0  0  0  0  0  0  0  0  0  0
   45.6010   34.4550   45.2450 H   0  0  0  0  0  0  0  0  0  0  0  0
   48.4930   34.0780   41.6860 C   0  0  0  0  0  0  0  0  0  0  0  0
   48.3070   33.7520   40.2440 C   0  0  0  0  0  0  0  0  0  0  0  0
   47.2210   33.6800   39.9630 H   0  0  0  0  0  0  0  0  0  0  0  0
   49.0990   32.6050   39.7220 C   0  0  0  0  0  0  0  0  0  0  0  0
   50.0220   32.9290   39.1920 H   0  0  0  0  0  0  0  0  0  0  0  0
   49.3870   31.6030   40.6100 O   0  0  0  0  0  0  0  0  0  0  0  0
   48.6260   31.6550   41.7640 C   0  0  0  0  0  0  0  0  0  0  0  0
   48.8600   30.7900   42.4040 H   0  0  0  0  0  0  0  0  0  0  0  0
   49.0600   32.9070   42.4970 C   0  0  0  0  0  0  0  0  0  0  0  0
   48.6260   32.8710   43.5080 H   0  0  0  0  0  0  0  0  0  0  0  0
  1 27  1  0  0  0  0
  1  2  1  1  0  0  0
  3  1  1  0  0  0  0
  3  8  1  0  0  0  0
  4  3  1  0  0  0  0
  4 10  1  0  0  0  0
  5  4  1  0  0  0  0
  5  6  1  0  0  0  0
  6  7  1  0  0  0  0
  6 13  1  0  0  0  0
  7  8  1  0  0  0  0
  7 15  1  0  0  0  0
  8 17  1  0  0  0  0
  8 16  1  0  0  0  0
  9  4  1  0  0  0  0
 11  5  1  0  0  0  0
 12  5  1  0  0  0  0
 14  7  1  0  0  0  0
 18 24  1  0  0  0  0
 19 18  1  0  0  0  0
 19  1  1  0  0  0  0
 20 19  2  0  0  0  0
 21 22  2  0  0  0  0
 21 20  1  0  0  0  0
 22 23  1  0  0  0  0
 23 18  2  0  0  0  0
 25 20  1  0  0  0  0
 26 22  1  0  0  0  0
 27 29  1  0  0  0  0
 27 30  1  0  0  0  0
 28 27  1  0  0  0  0
 30 31  1  0  0  0  0
 31 36  1  0  0  0  0
 31 32  2  0  0  0  0
 32 37  1  0  0  0  0
 33 32  1  0  0  0  0
 34 33  2  0  0  0  0
 35 30  2  0  0  0  0
 35 34  1  0  0  0  0
 38 34  1  0  0  0  0
 38 46  1  0  0  0  0
 39 38  1  0  0  0  0
 40 39  1  0  0  0  0
 41 39  1  0  0  0  0
 41 43  1  0  0  0  0
 42 41  1  0  0  0  0
 43 44  1  0  0  0  0
 44 45  1  0  0  0  0
 44 46  1  0  0  0  0
 46 47  1  0  0  0  0
M  END
>  <minimizedAffinity>
-4.92284727

>  <minimizedRMSD>
3.60084939

$$$$
