
     RDKit          3D

 30 31  0  0  0  0  0  0  0  0999 V2000
   44.5545   36.0437   44.4866 C   0  0  0  0  0  0  0  0  0  0  0  0
   45.2109   35.9430   43.2488 C   0  0  0  0  0  0  0  0  0  0  0  0
   46.0810   34.8749   43.0166 C   0  0  0  0  0  0  0  0  0  0  0  0
   46.2419   33.9704   44.0388 N   0  0  0  0  0  0  0  0  0  0  0  0
   45.5986   34.1040   45.1995 C   0  0  0  0  0  0  0  0  0  0  0  0
   44.7624   35.1169   45.4433 N   0  0  0  0  0  0  0  0  0  0  0  0
   46.7778   34.7634   41.7130 C   0  0  0  0  0  0  0  0  0  0  0  0
   48.1908   35.3087   41.8944 C   0  0  0  0  0  0  0  0  0  0  0  0
   43.9046   36.9022   44.5689 H   0  0  0  0  0  0  0  0  0  0  0  0
   45.0630   36.6668   42.4712 H   0  0  0  0  0  0  0  0  0  0  0  0
   45.8158   33.3179   45.9241 H   0  0  0  0  0  0  0  0  0  0  0  0
   46.2223   35.3543   40.9800 H   0  0  0  0  0  0  0  0  0  0  0  0
   46.8335   33.7242   41.3349 H   0  0  0  0  0  0  0  0  0  0  0  0
   48.1343   36.3665   42.2237 H   0  0  0  0  0  0  0  0  0  0  0  0
   48.7233   34.7324   42.6680 H   0  0  0  0  0  0  0  0  0  0  0  0
   48.9891   35.2412   40.6212 C   0  0  2  0  0  0  0  0  0  0  0  0
   49.7520   36.4855   40.3312 C   0  0  2  0  0  0  0  0  0  0  0  0
   50.8490   36.3880   40.5218 H   0  0  0  0  0  0  0  0  0  0  0  0
   49.5070   37.0753   38.9859 C   0  0  2  0  0  0  0  0  0  0  0  0
   50.4399   37.6300   38.6831 H   0  0  0  0  0  0  0  0  0  0  0  0
   49.2066   36.2426   37.9630 O   0  0  0  0  0  0  0  0  0  0  0  0
   48.7824   34.9812   38.2395 C   0  0  1  0  0  0  0  0  0  0  0  0
   48.0583   34.6586   37.4352 H   0  0  0  0  0  0  0  0  0  0  0  0
   47.9744   34.9659   39.5104 C   0  0  1  0  0  0  0  0  0  0  0  0
   47.4510   34.0247   39.7118 H   0  0  0  0  0  0  0  0  0  0  0  0
   49.6963   34.3917   40.6276 H   0  0  0  0  0  0  0  0  0  0  0  0
   49.4094   37.2490   41.0880 H   0  0  0  0  0  0  0  0  0  0  0  0
   48.7197   37.8786   39.0365 H   0  0  0  0  0  0  0  0  0  0  0  0
   49.5916   34.2208   38.2517 H   0  0  0  0  0  0  0  0  0  0  0  0
   47.3173   35.8681   39.5056 H   0  0  0  0  0  0  0  0  0  0  0  0
  1  6  2  0
  2  1  1  0
  3  2  2  0
  3  4  1  0
  4  5  2  0
  5  6  1  0
  7  8  1  0
  7  3  1  0
  1  9  1  0
  2 10  1  0
  5 11  1  0
  7 12  1  0
  7 13  1  0
  8 14  1  0
  8 15  1  0
 16 17  1  0
 17 18  1  1
 17 19  1  0
 19 20  1  6
 19 21  1  0
 21 22  1  0
 22 23  1  6
 22 24  1  0
 24 25  1  1
 24 16  1  0
 16 26  1  1
 17 27  1  0
 19 28  1  0
 22 29  1  0
 24 30  1  0
  8 16  1  0
M  ISO  8   9  14  10  14  11  14  12   8  13   8  14   8  15   8  18  15
M  ISO  3  20  15  23  15  25  15
M  END
>  <DihAtoms>  (1) 
6,7,15,16

>  <DihDeg>  (1) 
-60.00695494927667

$$$$
