
     RDKit          3D

 29 30  0  0  0  0  0  0  0  0999 V2000
   44.4194   35.8069   44.6988 C   0  0  0  0  0  0  0  0  0  0  0  0
   44.6715   35.4886   43.3580 C   0  0  0  0  0  0  0  0  0  0  0  0
   45.3649   34.3277   43.0994 C   0  0  0  0  0  0  0  0  0  0  0  0
   45.7719   33.5480   44.1315 N   0  0  0  0  0  0  0  0  0  0  0  0
   45.5149   33.8803   45.4050 C   0  0  0  0  0  0  0  0  0  0  0  0
   44.8392   35.0085   45.6928 N   0  0  0  0  0  0  0  0  0  0  0  0
   44.1790   36.4075   42.4064 N   0  0  0  0  0  0  0  0  0  0  0  0
   45.9402   33.0586   46.5672 C   0  0  0  0  0  0  0  0  0  0  0  0
   43.8816   36.7014   44.9685 H   0  0  0  0  0  0  0  0  0  0  0  0
   45.5423   34.1109   42.0691 H   0  0  0  0  0  0  0  0  0  0  0  0
   43.3609   36.0716   41.8235 H   0  0  0  0  0  0  0  0  0  0  0  0
   44.6779   37.3299   42.3774 H   0  0  0  0  0  0  0  0  0  0  0  0
   46.8397   32.4348   46.3259 H   0  0  0  0  0  0  0  0  0  0  0  0
   46.1060   33.6647   47.4724 H   0  0  0  0  0  0  0  0  0  0  0  0
   44.8311   32.0937   46.8480 C   0  0  2  0  0  0  0  0  0  0  0  0
   43.5599   32.8349   47.1692 C   0  0  1  0  0  0  0  0  0  0  0  0
   43.8030   33.6475   47.8606 H   0  0  0  0  0  0  0  0  0  0  0  0
   42.4754   31.9192   47.6713 C   0  0  1  0  0  0  0  0  0  0  0  0
   41.7300   32.5566   48.2031 H   0  0  0  0  0  0  0  0  0  0  0  0
   42.9322   30.9853   48.5818 O   0  0  0  0  0  0  0  0  0  0  0  0
   43.9710   30.2124   48.0996 C   0  0  2  0  0  0  0  0  0  0  0  0
   43.8169   29.8241   47.0705 H   0  0  0  0  0  0  0  0  0  0  0  0
   45.1860   31.1415   47.9795 C   0  0  2  0  0  0  0  0  0  0  0  0
   45.2982   31.7736   48.8908 H   0  0  0  0  0  0  0  0  0  0  0  0
   44.5902   31.4390   45.9779 H   0  0  0  0  0  0  0  0  0  0  0  0
   43.2055   33.2967   46.2158 H   0  0  0  0  0  0  0  0  0  0  0  0
   41.9413   31.4532   46.7996 H   0  0  0  0  0  0  0  0  0  0  0  0
   44.1848   29.3959   48.7880 H   0  0  0  0  0  0  0  0  0  0  0  0
   46.0842   30.5695   47.7345 H   0  0  0  0  0  0  0  0  0  0  0  0
  1  6  2  0
  2  1  1  0
  3  2  2  0
  3  4  1  0
  4  5  2  0
  5  6  1  0
  5  8  1  0
  7  2  1  0
  1  9  1  0
  3 10  1  0
  7 11  1  0
  7 12  1  0
  8 13  1  0
  8 14  1  0
 15 16  1  0
 16 17  1  1
 16 18  1  0
 18 19  1  1
 18 20  1  0
 20 21  1  0
 21 22  1  6
 21 23  1  0
 23 24  1  1
 23 15  1  0
 15 25  1  6
 16 26  1  0
 18 27  1  0
 21 28  1  0
 23 29  1  0
  8 15  1  0
M  ISO  8   9  14  10  14  13   8  14   8  17  15  19  15  22  15  24  15
M  END
>  <DihAtoms>  (1) 
4,7,14,15

>  <DihDeg>  (1) 
-179.99908784815403

$$$$
