
     RDKit          3D

 27 28  0  0  0  0  0  0  0  0999 V2000
   47.6763   34.9543   42.3534 C   0  0  0  0  0  0  0  0  0  0  0  0
   47.9267   33.9052   43.2457 C   0  0  0  0  0  0  0  0  0  0  0  0
   46.8946   33.5279   44.1265 C   0  0  0  0  0  0  0  0  0  0  0  0
   45.7296   34.2030   44.0532 N   0  0  0  0  0  0  0  0  0  0  0  0
   45.5057   35.2138   43.1848 C   0  0  0  0  0  0  0  0  0  0  0  0
   46.4846   35.5816   42.3397 N   0  0  0  0  0  0  0  0  0  0  0  0
   48.7957   35.3382   41.4226 C   0  0  0  0  0  0  0  0  0  0  0  0
   48.4182   35.2415   40.1112 F   0  0  0  0  0  0  0  0  0  0  0  0
   49.2082   36.6136   41.7477 F   0  0  0  0  0  0  0  0  0  0  0  0
   49.8925   34.5059   41.6732 F   0  0  0  0  0  0  0  0  0  0  0  0
   48.8817   33.3816   43.2769 H   0  0  0  0  0  0  0  0  0  0  0  0
   44.5454   35.7173   43.1757 H   0  0  0  0  0  0  0  0  0  0  0  0
   47.1355   32.4220   45.0786 C   0  0  2  0  0  0  0  0  0  0  0  0
   47.8983   32.9614   46.2642 C   0  0  2  0  0  0  0  0  0  0  0  0
   47.2382   33.4100   47.0190 H   0  0  0  0  0  0  0  0  0  0  0  0
   48.7119   31.8119   46.8127 C   0  0  1  0  0  0  0  0  0  0  0  0
   49.2251   32.2134   47.7280 H   0  0  0  0  0  0  0  0  0  0  0  0
   49.7131   31.5240   45.9124 O   0  0  0  0  0  0  0  0  0  0  0  0
   49.2851   31.1950   44.6467 C   0  0  2  0  0  0  0  0  0  0  0  0
   49.6207   30.1612   44.4301 H   0  0  0  0  0  0  0  0  0  0  0  0
   47.7985   31.2475   44.4363 C   0  0  1  0  0  0  0  0  0  0  0  0
   47.3145   30.2765   44.7270 H   0  0  0  0  0  0  0  0  0  0  0  0
   46.1436   32.1088   45.4701 H   0  0  0  0  0  0  0  0  0  0  0  0
   48.6022   33.7268   45.8840 H   0  0  0  0  0  0  0  0  0  0  0  0
   48.0750   30.9505   47.0631 H   0  0  0  0  0  0  0  0  0  0  0  0
   49.8124   31.8703   43.9314 H   0  0  0  0  0  0  0  0  0  0  0  0
   47.6295   31.3420   43.3393 H   0  0  0  0  0  0  0  0  0  0  0  0
  1  2  2  0
  2  3  1  0
  4  3  2  0
  5  4  1  0
  6  1  1  0
  6  5  2  0
  7 10  1  0
  7  9  1  0
  7  1  1  0
  8  7  1  0
  2 11  1  0
  5 12  1  0
 13 14  1  0
 14 15  1  1
 14 16  1  0
 16 17  1  1
 16 18  1  0
 18 19  1  0
 19 20  1  6
 19 21  1  0
 21 22  1  1
 21 13  1  0
 13 23  1  1
 14 24  1  0
 16 25  1  0
 19 26  1  0
 21 27  1  0
  3 13  1  0
M  ISO  6  11  14  12  14  15  15  17  15  20  15  22  15
M  END
>  <DihAtoms>  (1) 
1,2,12,13

>  <DihDeg>  (1) 
-114.01727268541798

$$$$
