
 OpenBabel03252509163D

 26 28  0  0  0  0  0  0  0  0999 V2000
   47.2690   33.0500   44.0410 C   0  0  0  0  0  0  0  0  0  0  0  0
   46.4520   33.5570   45.0840 C   0  0  0  0  0  0  0  0  0  0  0  0
   45.9750   32.6830   46.0050 C   0  0  0  0  0  0  0  0  0  0  0  0
   46.3040   31.3090   45.8970 C   0  0  0  0  0  0  0  0  0  0  0  0
   47.3460   31.2660   44.4060 S   0  0  0  0  0  0  0  0  0  0  0  0
   46.2190   34.6110   45.1390 H   0  0  0  0  0  0  0  0  0  0  0  0
   45.3580   32.9170   46.8320 H   0  0  0  0  0  0  0  0  0  0  0  0
   46.0000   30.1570   46.6440 C   0  0  0  0  0  3  0  0  0  0  0  0
   47.2090   29.2460   46.7340 C   0  0  0  0  0  3  0  0  0  0  0  0
   48.0130   29.7700   47.3060 H   0  0  0  0  0  0  0  0  0  0  0  0
   46.7980   27.9340   47.3710 C   0  0  0  0  0  3  0  0  0  0  0  0
   47.4350   27.7670   48.2870 H   0  0  0  0  0  0  0  0  0  0  0  0
   45.5070   28.0250   47.8280 O   0  0  0  0  0  0  0  0  0  0  0  0
   44.5630   28.1890   46.8400 C   0  0  0  0  0  3  0  0  0  0  0  0
   44.3390   27.2500   46.2800 H   0  0  0  0  0  0  0  0  0  0  0  0
   44.9390   29.3280   45.9240 C   0  0  0  0  0  3  0  0  0  0  0  0
   44.0700   29.9320   45.6030 H   0  0  0  0  0  0  0  0  0  0  0  0
   49.3900   35.2880   41.9870 C   0  0  0  0  0  0  0  0  0  0  0  0
   48.6270   35.3020   40.7930 C   0  0  0  0  0  0  0  0  0  0  0  0
   47.4340   34.5550   40.7410 C   0  0  0  0  0  0  0  0  0  0  0  0
   47.0870   33.8560   41.8610 N   0  0  0  0  0  0  0  0  0  0  0  0
   47.8500   33.8730   42.9810 C   0  0  0  0  0  0  0  0  0  0  0  0
   49.0030   34.5880   43.0460 N   0  0  0  0  0  0  0  0  0  0  0  0
   50.3080   35.8620   42.0250 H   0  0  0  0  0  0  0  0  0  0  0  0
   48.9230   35.8610   39.9240 H   0  0  0  0  0  0  0  0  0  0  0  0
   46.8050   34.5180   39.8700 H   0  0  0  0  0  0  0  0  0  0  0  0
  1  5  1  0  0  0  0
  1  2  2  0  0  0  0
  2  6  1  0  0  0  0
  2  3  1  0  0  0  0
  3  7  1  0  0  0  0
  4  3  2  0  0  0  0
  4  8  1  0  0  0  0
  5  4  1  0  0  0  0
  8  9  1  0  0  0  0
  9 10  1  0  0  0  0
  9 11  1  0  0  0  0
 11 13  1  0  0  0  0
 11 12  1  0  0  0  0
 14 13  1  0  0  0  0
 15 14  1  0  0  0  0
 16  8  1  0  0  0  0
 16 14  1  0  0  0  0
 17 16  1  0  0  0  0
 18 24  1  0  0  0  0
 18 23  1  0  0  0  0
 19 18  2  0  0  0  0
 20 19  1  0  0  0  0
 20 21  2  0  0  0  0
 21 22  1  0  0  0  0
 22 23  2  0  0  0  0
 22  1  1  0  0  0  0
 25 19  1  0  0  0  0
 26 20  1  0  0  0  0
M  END
>  <minimizedAffinity>
-4.16646576

>  <minimizedRMSD>
3.84028149

$$$$
