
     RDKit          3D

 44 46  0  0  0  0  0  0  0  0999 V2000
   46.5204   34.3697   43.0034 C   0  0  0  0  0  0  0  0  0  0  0  0
   45.2822   34.7424   43.4679 C   0  0  0  0  0  0  0  0  0  0  0  0
   44.9473   34.4111   44.8050 C   0  0  0  0  0  0  0  0  0  0  0  0
   45.8739   33.7510   45.5260 N   0  0  0  0  0  0  0  0  0  0  0  0
   47.0710   33.4021   45.0450 C   0  0  0  0  0  0  0  0  0  0  0  0
   47.3947   33.7144   43.7748 N   0  0  0  0  0  0  0  0  0  0  0  0
   46.9296   34.6813   41.6310 C   0  0  0  0  0  0  0  0  0  0  0  0
   48.2853   35.3291   41.6487 C   0  0  0  0  0  0  0  0  0  0  0  0
   44.4596   35.4163   42.5813 O   0  0  0  0  0  0  0  0  0  0  0  0
   43.6940   34.8642   40.1317 O   0  0  0  0  0  0  0  0  0  0  0  0
   43.2701   34.7409   41.5897 P   0  0  1  0  0  0  0  0  0  0  0  0
   43.1529   33.0813   41.9737 O   0  0  0  0  0  0  0  0  0  0  0  0
   41.7317   35.4089   41.8290 O   0  0  0  0  0  0  0  0  0  0  0  0
   40.6329   34.7577   41.3046 C   0  0  0  0  0  0  0  0  0  0  0  0
   39.9865   35.3419   40.2127 C   0  0  0  0  0  0  0  0  0  0  0  0
   38.8752   34.7559   39.6235 C   0  0  0  0  0  0  0  0  0  0  0  0
   38.4235   33.5747   40.1476 N   0  0  0  0  0  0  0  0  0  0  0  0
   39.0452   33.0230   41.1895 C   0  0  0  0  0  0  0  0  0  0  0  0
   40.1052   33.6072   41.7311 N   0  0  0  0  0  0  0  0  0  0  0  0
   43.9768   34.7258   45.1059 H   0  0  0  0  0  0  0  0  0  0  0  0
   47.7408   32.8804   45.6910 H   0  0  0  0  0  0  0  0  0  0  0  0
   46.8802   33.8090   40.9503 H   0  0  0  0  0  0  0  0  0  0  0  0
   46.2274   35.4508   41.2073 H   0  0  0  0  0  0  0  0  0  0  0  0
   48.3113   36.0899   42.4317 H   0  0  0  0  0  0  0  0  0  0  0  0
   48.4648   35.8533   40.6773 H   0  0  0  0  0  0  0  0  0  0  0  0
   49.1091   34.5835   41.7477 H   0  0  0  0  0  0  0  0  0  0  0  0
   43.9446   32.5912   41.6082 H   0  0  0  0  0  0  0  0  0  0  0  0
   40.3412   36.2657   39.8042 H   0  0  0  0  0  0  0  0  0  0  0  0
   38.3928   35.2326   38.7758 H   0  0  0  0  0  0  0  0  0  0  0  0
   38.4859   31.7407   41.6918 C   0  0  1  0  0  0  0  0  0  0  0  0
   36.9936   31.6139   41.4317 C   0  0  1  0  0  0  0  0  0  0  0  0
   36.5886   30.9657   42.2415 H   0  0  0  0  0  0  0  0  0  0  0  0
   36.7318   30.8757   40.1230 C   0  0  2  0  0  0  0  0  0  0  0  0
   35.7948   31.3009   39.7078 H   0  0  0  0  0  0  0  0  0  0  0  0
   37.7405   31.1276   39.1967 O   0  0  0  0  0  0  0  0  0  0  0  0
   38.9602   30.6216   39.5730 C   0  0  2  0  0  0  0  0  0  0  0  0
   39.7604   31.2896   39.1505 H   0  0  0  0  0  0  0  0  0  0  0  0
   39.1475   30.5287   41.0710 C   0  0  1  0  0  0  0  0  0  0  0  0
   40.2536   30.5427   41.2364 H   0  0  0  0  0  0  0  0  0  0  0  0
   38.6856   31.6795   42.8020 H   0  0  0  0  0  0  0  0  0  0  0  0
   36.4672   32.5694   41.4730 H   0  0  0  0  0  0  0  0  0  0  0  0
   36.5702   29.8003   40.2710 H   0  0  0  0  0  0  0  0  0  0  0  0
   39.1744   29.6207   39.1438 H   0  0  0  0  0  0  0  0  0  0  0  0
   38.6661   29.6425   41.4881 H   0  0  0  0  0  0  0  0  0  0  0  0
  1  2  2  0
  1  6  1  0
  2  3  1  0
  3  4  2  0
  5  4  1  0
  6  5  2  0
  7  8  1  0
  7  1  1  0
  9  2  1  0
 11 10  2  0
 11 13  1  6
 11 12  1  0
 11  9  1  0
 14 19  1  0
 14 13  1  0
 15 14  2  0
 16 17  2  0
 16 15  1  0
 17 18  1  0
 18 19  2  0
  3 20  1  0
  5 21  1  0
  7 22  1  0
  7 23  1  0
  8 24  1  0
  8 25  1  0
  8 26  1  0
 12 27  1  0
 15 28  1  0
 16 29  1  0
 30 31  1  0
 31 32  1  1
 31 33  1  0
 33 34  1  6
 33 35  1  0
 35 36  1  0
 36 37  1  6
 36 38  1  0
 38 39  1  6
 38 30  1  0
 30 40  1  1
 31 41  1  0
 33 42  1  0
 36 43  1  0
 38 44  1  0
 18 30  1  0
M  ISO  8  20  14  21  14  22   8  23   8  24   8  25   8  26   8  27   3
M  ISO  6  28  14  29  14  32  15  34  15  37  15  39  15
M  END
>  <DihAtoms>  (1) 
16,17,29,30

>  <DihDeg>  (1) 
121.73224961563994

$$$$
