
 OpenBabel03252508263D

 42 46  0  0  1  0  0  0  0  0999 V2000
   46.4150   32.4800   46.0900 C   0  0  1  0  0  0  0  0  0  0  0  0
   46.8730   32.6920   47.4710 C   0  0  0  0  0  0  0  0  0  0  0  0
   45.4880   32.0290   47.1080 C   0  0  2  0  0  0  0  0  0  0  0  0
   47.2350   31.8430   45.6000 H   0  0  0  0  0  0  0  0  0  0  0  0
   47.5160   31.9860   48.0310 H   0  0  0  0  0  0  0  0  0  0  0  0
   46.7850   33.6610   47.9800 H   0  0  0  0  0  0  0  0  0  0  0  0
   44.7260   32.7050   47.6170 H   0  0  0  0  0  0  0  0  0  0  0  0
   45.2360   30.6320   47.4760 C   0  0  0  0  0  0  0  0  0  0  0  0
   45.1050   30.1040   48.7190 C   0  0  0  0  0  0  0  0  0  0  0  0
   44.9920   28.7630   49.0270 C   0  0  0  0  0  0  0  0  0  0  0  0
   45.0180   27.8710   47.9470 C   0  0  0  0  0  0  0  0  0  0  0  0
   45.1480   28.3760   46.6530 C   0  0  0  0  0  0  0  0  0  0  0  0
   45.1010   27.4620   45.6160 C   0  0  0  0  0  0  0  0  0  0  0  0
   45.1500   27.9290   44.3090 C   0  0  0  0  0  0  0  0  0  0  0  0
   45.2410   29.2810   44.0450 C   0  0  0  0  0  0  0  0  0  0  0  0
   45.2870   30.1430   45.1160 C   0  0  0  0  0  0  0  0  0  0  0  0
   45.2510   29.7320   46.4410 C   0  0  0  0  0  0  0  0  0  0  0  0
   45.0890   30.8350   49.5310 H   0  0  0  0  0  0  0  0  0  0  0  0
   44.8910   28.4140   50.0350 H   0  0  0  0  0  0  0  0  0  0  0  0
   44.9360   26.8200   48.1690 H   0  0  0  0  0  0  0  0  0  0  0  0
   45.0260   26.4020   45.8580 H   0  0  0  0  0  0  0  0  0  0  0  0
   45.1090   27.1190   43.5750 H   0  0  0  0  0  0  0  0  0  0  0  0
   45.2630   29.4390   42.9950 H   0  0  0  0  0  0  0  0  0  0  0  0
   45.2680   31.0970   44.6710 H   0  0  0  0  0  0  0  0  0  0  0  0
   44.7130   35.5090   44.8410 C   0  0  0  0  0  0  0  0  0  0  0  0
   45.3260   35.6880   43.5500 C   0  0  0  0  0  0  0  0  0  0  0  0
   46.3310   34.7470   43.1560 C   0  0  0  0  0  0  0  0  0  0  0  0
   46.6560   33.7560   43.9890 N   0  0  0  0  0  0  0  0  0  0  0  0
   46.0370   33.6290   45.2140 C   0  0  0  0  0  0  0  0  0  0  0  0
   45.0990   34.4770   45.6250 N   0  0  0  0  0  0  0  0  0  0  0  0
   43.9750   36.2470   45.0620 H   0  0  0  0  0  0  0  0  0  0  0  0
   45.0820   36.4670   42.8750 H   0  0  0  0  0  0  0  0  0  0  0  0
   47.0090   34.8490   41.8620 C   0  0  0  0  0  0  0  0  0  0  0  0
   46.9250   33.5670   41.0450 C   0  0  0  0  0  0  0  0  0  0  0  0
   47.0520   32.6600   41.6510 H   0  0  0  0  0  0  0  0  0  0  0  0
   48.0160   33.7070   39.9780 C   0  0  0  0  0  0  0  0  0  0  0  0
   47.6630   33.2630   39.0250 H   0  0  0  0  0  0  0  0  0  0  0  0
   48.2700   35.0520   39.6900 O   0  0  0  0  0  0  0  0  0  0  0  0
   48.9790   35.6930   40.6990 C   0  0  0  0  0  0  0  0  0  0  0  0
   50.0630   35.6930   40.5630 H   0  0  0  0  0  0  0  0  0  0  0  0
   48.5030   35.1350   42.0170 C   0  0  0  0  0  0  0  0  0  0  0  0
   48.6490   35.8180   42.8580 H   0  0  0  0  0  0  0  0  0  0  0  0
  1  4  1  6  0  0  0
  1  3  1  0  0  0  0
  1  2  1  0  0  0  0
  2  6  1  0  0  0  0
  2  5  1  0  0  0  0
  3  2  1  0  0  0  0
  3  8  1  0  0  0  0
  3  7  1  1  0  0  0
  8  9  1  0  0  0  0
  9 10  2  0  0  0  0
  9 18  1  0  0  0  0
 10 19  1  0  0  0  0
 11 20  1  0  0  0  0
 11 10  1  0  0  0  0
 12 11  2  0  0  0  0
 13 21  1  0  0  0  0
 13 12  1  0  0  0  0
 14 13  2  0  0  0  0
 15 14  1  0  0  0  0
 15 16  2  0  0  0  0
 16 17  1  0  0  0  0
 17 12  1  0  0  0  0
 17  8  2  0  0  0  0
 22 14  1  0  0  0  0
 23 15  1  0  0  0  0
 24 16  1  0  0  0  0
 25 31  1  0  0  0  0
 25 30  1  0  0  0  0
 26 25  2  0  0  0  0
 27 26  1  0  0  0  0
 27 28  2  0  0  0  0
 28 29  1  0  0  0  0
 29 30  2  0  0  0  0
 29  1  1  0  0  0  0
 32 26  1  0  0  0  0
 33 41  1  0  0  0  0
 33 27  1  0  0  0  0
 34 35  1  0  0  0  0
 34 33  1  0  0  0  0
 36 34  1  0  0  0  0
 37 36  1  0  0  0  0
 38 36  1  0  0  0  0
 38 39  1  0  0  0  0
 39 41  1  0  0  0  0
 40 39  1  0  0  0  0
 41 42  1  0  0  0  0
M  END
>  <minimizedAffinity>
-5.91056919

>  <minimizedRMSD>
0.394263268

$$$$
