REMARK  Name = 
REMARK  8 active torsions:
REMARK  status: ('A' for Active; 'I' for Inactive)
REMARK    1  A    between atoms: C_1  and  C_7
REMARK    2  A    between atoms: C_2  and  O_9
REMARK    3  A    between atoms: C_7  and  C_8
REMARK    4  A    between atoms: O_9  and  P_11
REMARK    5  A    between atoms: P_11  and  O_12
REMARK    6  A    between atoms: P_11  and  O_13
REMARK    7  A    between atoms: O_13  and  C_14
REMARK    8  A    between atoms: C_18  and  C_30
REMARK                            x       y       z     vdW  Elec       q    Type
REMARK                         _______ _______ _______ _____ _____    ______ ____
ROOT
ATOM      1  O   UNL     1      43.694  34.864  40.132  0.00  0.00    +0.000 OA
ATOM      2  P   UNL     1      43.270  34.741  41.590  0.00  0.00    +0.000 P 
ENDROOT
BRANCH   2   3
ATOM      3  O   UNL     1      43.153  33.081  41.974  0.00  0.00    +0.000 OA
ATOM      4  H   UNL     1      43.945  32.591  41.608  0.00  0.00    +0.000 HD
ENDBRANCH   2   3
BRANCH   2   5
ATOM      5  O   UNL     1      44.460  35.416  42.581  0.00  0.00    +0.000 OA
BRANCH   5   7
ATOM      6  C   UNL     1      46.520  34.370  43.003  0.00  0.00    +0.000 A 
ATOM      7  C   UNL     1      45.282  34.742  43.468  0.00  0.00    +0.000 A 
ATOM      8  C   UNL     1      44.947  34.411  44.805  0.00  0.00    +0.000 A 
ATOM      9  N   UNL     1      45.874  33.751  45.526  0.00  0.00    +0.000 NA
ATOM     10  C   UNL     1      47.071  33.402  45.045  0.00  0.00    +0.000 A 
ATOM     11  N   UNL     1      47.395  33.714  43.775  0.00  0.00    +0.000 NA
ATOM     12  H   UNL     1      43.977  34.726  45.106  0.00  0.00    +0.000 HD
ATOM     13  H   UNL     1      47.741  32.880  45.691  0.00  0.00    +0.000 HD
BRANCH   6  14
ATOM     14  C   UNL     1      46.930  34.681  41.631  0.00  0.00    +0.000 C 
ATOM     15  H   UNL     1      46.880  33.809  40.950  0.00  0.00    +0.000 HD
ATOM     16  H   UNL     1      46.227  35.451  41.207  0.00  0.00    +0.000 HD
BRANCH  14  17
ATOM     17  C   UNL     1      48.285  35.329  41.649  0.00  0.00    +0.000 C 
ATOM     18  H   UNL     1      48.311  36.090  42.432  0.00  0.00    +0.000 HD
ATOM     19  H   UNL     1      48.465  35.853  40.677  0.00  0.00    +0.000 HD
ATOM     20  H   UNL     1      49.109  34.584  41.748  0.00  0.00    +0.000 HD
ENDBRANCH  14  17
ENDBRANCH   6  14
ENDBRANCH   5   7
ENDBRANCH   2   5
BRANCH   2  21
ATOM     21  O   UNL     1      41.732  35.409  41.829  0.00  0.00    +0.000 OA
BRANCH  21  22
ATOM     22  C   UNL     1      40.633  34.758  41.305  0.00  0.00    +0.000 A 
ATOM     23  C   UNL     1      39.986  35.342  40.213  0.00  0.00    +0.000 A 
ATOM     24  C   UNL     1      38.875  34.756  39.623  0.00  0.00    +0.000 A 
ATOM     25  N   UNL     1      38.423  33.575  40.148  0.00  0.00    +0.000 NA
ATOM     26  C   UNL     1      39.045  33.023  41.190  0.00  0.00    +0.000 A 
ATOM     27  N   UNL     1      40.105  33.607  41.731  0.00  0.00    +0.000 NA
ATOM     28  H   UNL     1      40.341  36.266  39.804  0.00  0.00    +0.000 HD
ATOM     29  H   UNL     1      38.393  35.233  38.776  0.00  0.00    +0.000 HD
BRANCH  26  30
ATOM     30  C   UNL     1      38.486  31.741  41.692  0.00  0.00    +0.000 C 
ATOM     31  C   UNL     1      37.861  30.904  40.587  0.00  0.00    +0.000 C 
ATOM     32  H   UNL     1      37.058  30.301  41.067  0.00  0.00    +0.000 HD
ATOM     33  C   UNL     1      38.869  29.906  40.027  0.00  0.00    +0.000 C 
ATOM     34  H   UNL     1      38.616  29.776  38.955  0.00  0.00    +0.000 HD
ATOM     35  O   UNL     1      40.163  30.418  40.081  0.00  0.00    +0.000 OA
ATOM     36  C   UNL     1      40.620  30.599  41.363  0.00  0.00    +0.000 C 
ATOM     37  H   UNL     1      41.332  31.469  41.360  0.00  0.00    +0.000 HD
ATOM     38  C   UNL     1      39.525  30.873  42.370  0.00  0.00    +0.000 C 
ATOM     39  H   UNL     1      40.020  31.418  43.211  0.00  0.00    +0.000 HD
ENDBRANCH  26  30
ENDBRANCH  21  22
ENDBRANCH   2  21
TORSDOF 8
