
 OpenBabel03252501163D

 36 39  0  0  1  0  0  0  0  0999 V2000
   46.2350   33.0730   43.5410 C   0  0  1  0  0  0  0  0  0  0  0  0
   45.9590   34.5030   43.7920 C   0  0  0  0  0  0  0  0  0  0  0  0
   47.3880   33.9610   43.3890 C   0  0  2  0  0  0  0  0  0  0  0  0
   45.8510   32.5930   42.6160 H   0  0  0  0  0  0  0  0  0  0  0  0
   45.4540   35.1320   43.0450 H   0  0  0  0  0  0  0  0  0  0  0  0
   45.9320   34.9300   44.8010 H   0  0  0  0  0  0  0  0  0  0  0  0
   48.1450   34.0840   44.1610 H   0  0  0  0  0  0  0  0  0  0  0  0
   46.4300   31.7160   47.0370 C   0  0  0  0  0  0  0  0  0  0  0  0
   46.5430   32.6220   45.9980 C   0  0  0  0  0  0  0  0  0  0  0  0
   46.1460   32.1870   44.7390 C   0  0  0  0  0  0  0  0  0  0  0  0
   45.6780   30.9270   44.5830 N   0  0  0  0  0  0  0  0  0  0  0  0
   45.5840   30.0710   45.6330 C   0  0  0  0  0  0  0  0  0  0  0  0
   45.9650   30.4760   46.8620 N   0  0  0  0  0  0  0  0  0  0  0  0
   46.9170   33.6340   46.1100 H   0  0  0  0  0  0  0  0  0  0  0  0
   45.2140   29.0680   45.5190 H   0  0  0  0  0  0  0  0  0  0  0  0
   46.8420   32.1650   48.4090 C   0  0  0  0  0  0  0  0  0  0  0  0
   47.0180   31.0380   49.1770 F   0  0  0  0  0  0  0  0  0  0  0  0
   45.7870   32.8800   48.9370 F   0  0  0  0  0  0  0  0  0  0  0  0
   47.9990   32.8860   48.3630 F   0  0  0  0  0  0  0  0  0  0  0  0
   47.7420   34.3340   41.9840 C   0  0  0  0  0  0  0  0  0  0  0  0
   48.6250   35.3300   41.5750 C   0  0  0  0  0  0  0  0  0  0  0  0
   48.5530   35.2090   40.1920 C   0  0  0  0  0  0  0  0  0  0  0  0
   47.6740   34.1990   39.8220 C   0  0  0  0  0  0  0  0  0  0  0  0
   47.2370   33.7310   40.9550 O   0  0  0  0  0  0  0  0  0  0  0  0
   49.1960   35.9980   42.1970 H   0  0  0  0  0  0  0  0  0  0  0  0
   49.1270   35.8470   39.5040 H   0  0  0  0  0  0  0  0  0  0  0  0
   47.3330   33.7700   38.4390 C   0  0  0  0  0  0  0  0  0  0  0  0
   48.5140   33.8980   37.5040 C   0  0  0  0  0  0  0  0  0  0  0  0
   49.0770   34.8030   37.8710 H   0  0  0  0  0  0  0  0  0  0  0  0
   49.4870   32.7460   37.6150 C   0  0  0  0  0  0  0  0  0  0  0  0
   49.5300   32.2150   36.6430 H   0  0  0  0  0  0  0  0  0  0  0  0
   49.1180   31.9160   38.6660 O   0  0  0  0  0  0  0  0  0  0  0  0
   47.8920   31.3190   38.3400 C   0  0  0  0  0  0  0  0  0  0  0  0
   47.9900   30.8880   37.3200 H   0  0  0  0  0  0  0  0  0  0  0  0
   46.7920   32.3640   38.3940 C   0  0  0  0  0  0  0  0  0  0  0  0
   46.1950   32.2610   37.4580 H   0  0  0  0  0  0  0  0  0  0  0  0
  1  4  1  6  0  0  0
  1  2  1  0  0  0  0
  1 10  1  0  0  0  0
  2  6  1  0  0  0  0
  3  1  1  0  0  0  0
  3  2  1  0  0  0  0
  3  7  1  1  0  0  0
  5  2  1  0  0  0  0
  8 16  1  0  0  0  0
  9 14  1  0  0  0  0
  9  8  2  0  0  0  0
 10  9  1  0  0  0  0
 11 10  2  0  0  0  0
 11 12  1  0  0  0  0
 12 13  2  0  0  0  0
 13  8  1  0  0  0  0
 15 12  1  0  0  0  0
 16 18  1  0  0  0  0
 16 17  1  0  0  0  0
 19 16  1  0  0  0  0
 20  3  1  0  0  0  0
 21 20  2  0  0  0  0
 21 25  1  0  0  0  0
 22 21  1  0  0  0  0
 23 22  2  0  0  0  0
 23 24  1  0  0  0  0
 24 20  1  0  0  0  0
 26 22  1  0  0  0  0
 27 23  1  0  0  0  0
 28 30  1  0  0  0  0
 28 29  1  0  0  0  0
 28 27  1  0  0  0  0
 30 32  1  0  0  0  0
 31 30  1  0  0  0  0
 33 35  1  0  0  0  0
 33 32  1  0  0  0  0
 34 33  1  0  0  0  0
 35 27  1  0  0  0  0
 36 35  1  0  0  0  0
M  END
>  <minimizedAffinity>
-5.70744801

>  <minimizedRMSD>
3.58966565

$$$$
