
 OpenBabel03252507333D

 50 53  0  0  1  0  0  0  0  0999 V2000
   46.9810   32.7560   45.4320 C   0  0  0  0  0  0  0  0  0  0  0  0
   45.8650   33.4140   45.9330 C   0  0  0  0  0  0  0  0  0  0  0  0
   45.2030   34.3750   45.1320 C   0  0  0  0  0  0  0  0  0  0  0  0
   45.7350   34.6000   43.8660 N   0  0  0  0  0  0  0  0  0  0  0  0
   46.8120   33.9340   43.4460 C   0  0  0  0  0  0  0  0  0  0  0  0
   47.4250   33.0300   44.2100 N   0  0  0  0  0  0  0  0  0  0  0  0
   45.3230   33.4280   46.8550 H   0  0  0  0  0  0  0  0  0  0  0  0
   44.3530   34.9650   45.3380 H   0  0  0  0  0  0  0  0  0  0  0  0
   47.6090   31.7650   46.2800 C   0  0  2  0  0  0  0  0  0  0  0  0
   47.3030   30.3180   45.7870 C   0  0  0  0  0  0  0  0  0  0  0  0
   48.0900   29.3420   46.5910 C   0  0  0  0  0  0  0  0  0  0  0  0
   48.1200   29.5760   48.0630 C   0  0  0  0  0  0  0  0  0  0  0  0
   48.1750   30.9660   48.4480 C   0  0  0  0  0  0  0  0  0  0  0  0
   47.1970   31.8690   47.6650 C   0  0  2  0  0  0  0  0  0  0  0  0
   48.7120   31.8350   46.1250 H   0  0  0  0  0  0  0  0  0  0  0  0
   46.2320   30.1170   45.7510 H   0  0  0  0  0  0  0  0  0  0  0  0
   47.6480   30.3210   44.7340 H   0  0  0  0  0  0  0  0  0  0  0  0
   49.0670   29.2310   46.0840 H   0  0  0  0  0  0  0  0  0  0  0  0
   47.5880   28.3420   46.4460 H   0  0  0  0  0  0  0  0  0  0  0  0
   49.2260   29.2840   48.2710 H   0  0  0  0  0  0  0  0  0  0  0  0
   47.7310   28.7950   48.7190 H   0  0  0  0  0  0  0  0  0  0  0  0
   47.8540   31.0790   49.5140 H   0  0  0  0  0  0  0  0  0  0  0  0
   49.1520   31.5050   48.3720 H   0  0  0  0  0  0  0  0  0  0  0  0
   47.3620   32.8300   48.1550 H   0  0  0  0  0  0  0  0  0  0  0  0
   45.8420   31.3360   47.8270 N   0  0  0  0  0  0  0  0  0  0  0  0
   45.1830   30.7720   48.9350 C   0  0  0  0  0  0  0  0  0  0  0  0
   44.7120   31.4780   49.8990 O   0  0  0  0  0  0  0  0  0  0  0  0
   45.0680   29.3490   48.9020 N   0  0  0  0  0  0  0  0  0  0  0  0
   45.1550   31.2570   46.9850 H   0  0  0  0  0  0  0  0  0  0  0  0
   45.3180   28.4940   49.4610 H   0  0  0  0  0  0  0  0  0  0  0  0
   44.6390   28.7030   48.2000 H   0  0  0  0  0  0  0  0  0  0  0  0
   47.3370   34.2310   42.1060 C   0  0  0  0  0  0  0  0  0  0  0  0
   48.2240   35.2610   41.9020 C   0  0  0  0  0  0  0  0  0  0  0  0
   48.7670   35.6070   40.6820 C   0  0  0  0  0  0  0  0  0  0  0  0
   48.3520   34.8240   39.6340 C   0  0  0  0  0  0  0  0  0  0  0  0
   47.4530   33.7720   39.8140 C   0  0  0  0  0  0  0  0  0  0  0  0
   46.9540   33.4870   41.0540 N   0  0  0  0  0  0  0  0  0  0  0  0
   48.4990   35.8320   42.7990 H   0  0  0  0  0  0  0  0  0  0  0  0
   49.4590   36.4160   40.5480 H   0  0  0  0  0  0  0  0  0  0  0  0
   48.6990   34.9820   38.6210 H   0  0  0  0  0  0  0  0  0  0  0  0
   46.9700   32.8900   38.7070 C   0  0  0  0  0  0  0  0  0  0  0  0
   45.5130   32.5590   38.8030 C   0  0  0  0  0  0  0  0  0  0  0  0
   45.2770   31.4990   38.9630 H   0  0  0  0  0  0  0  0  0  0  0  0
   44.7100   33.1680   37.6520 C   0  0  0  0  0  0  0  0  0  0  0  0
   43.6520   32.8180   37.8050 H   0  0  0  0  0  0  0  0  0  0  0  0
   45.1410   32.7080   36.4120 O   0  0  0  0  0  0  0  0  0  0  0  0
   46.5350   32.6450   36.3310 C   0  0  0  0  0  0  0  0  0  0  0  0
   46.9030   31.6120   36.5860 H   0  0  0  0  0  0  0  0  0  0  0  0
   47.1950   33.5710   37.3510 C   0  0  0  0  0  0  0  0  0  0  0  0
   46.7010   34.5540   37.3320 H   0  0  0  0  0  0  0  0  0  0  0  0
  1  2  1  0  0  0  0
  1  9  1  0  0  0  0
  2  7  1  0  0  0  0
  3  8  1  0  0  0  0
  3  2  2  0  0  0  0
  4  3  1  0  0  0  0
  5  4  2  0  0  0  0
  5  6  1  0  0  0  0
  6  1  2  0  0  0  0
  9 15  1  6  0  0  0
  9 14  1  0  0  0  0
 10  9  1  0  0  0  0
 10 11  1  0  0  0  0
 11 12  1  0  0  0  0
 12 20  1  0  0  0  0
 12 13  1  0  0  0  0
 12 21  1  0  0  0  0
 13 22  1  0  0  0  0
 14 25  1  0  0  0  0
 14 24  1  1  0  0  0
 14 13  1  0  0  0  0
 16 10  1  0  0  0  0
 17 10  1  0  0  0  0
 18 11  1  0  0  0  0
 19 11  1  0  0  0  0
 23 13  1  0  0  0  0
 25 26  1  0  0  0  0
 26 27  2  0  0  0  0
 28 26  1  0  0  0  0
 28 30  1  0  0  0  0
 29 25  1  0  0  0  0
 31 28  1  0  0  0  0
 32  5  1  0  0  0  0
 33 32  1  0  0  0  0
 33 38  1  0  0  0  0
 34 33  2  0  0  0  0
 35 36  2  0  0  0  0
 35 34  1  0  0  0  0
 36 37  1  0  0  0  0
 37 32  2  0  0  0  0
 39 34  1  0  0  0  0
 40 35  1  0  0  0  0
 41 42  1  0  0  0  0
 41 36  1  0  0  0  0
 42 43  1  0  0  0  0
 44 45  1  0  0  0  0
 44 42  1  0  0  0  0
 46 44  1  0  0  0  0
 47 46  1  0  0  0  0
 47 48  1  0  0  0  0
 47 49  1  0  0  0  0
 49 41  1  0  0  0  0
 50 49  1  0  0  0  0
M  END
>  <minimizedAffinity>
-6.56111288

>  <minimizedRMSD>
0.46226871

$$$$
