
     RDKit          3D

 47 51  0  0  0  0  0  0  0  0999 V2000
   46.3868   32.6689   45.8653 C   0  0  1  0  0  0  0  0  0  0  0  0
   46.9753   32.8334   47.2027 C   0  0  0  0  0  0  0  0  0  0  0  0
   45.5487   32.2071   46.9526 C   0  0  2  0  0  0  0  0  0  0  0  0
   45.3018   30.8055   47.3051 C   0  0  0  0  0  0  0  0  0  0  0  0
   45.1656   30.2636   48.5417 C   0  0  0  0  0  0  0  0  0  0  0  0
   45.0592   28.9192   48.8360 C   0  0  0  0  0  0  0  0  0  0  0  0
   45.0972   28.0381   47.7473 C   0  0  0  0  0  0  0  0  0  0  0  0
   45.2327   28.5567   46.4592 C   0  0  0  0  0  0  0  0  0  0  0  0
   45.1976   27.6531   45.4133 C   0  0  0  0  0  0  0  0  0  0  0  0
   45.2526   28.1331   44.1109 C   0  0  0  0  0  0  0  0  0  0  0  0
   45.3383   29.4883   43.8609 C   0  0  0  0  0  0  0  0  0  0  0  0
   45.3718   30.3400   44.9412 C   0  0  0  0  0  0  0  0  0  0  0  0
   45.3286   29.9152   46.2615 C   0  0  0  0  0  0  0  0  0  0  0  0
   44.6106   35.7398   44.8431 C   0  0  0  0  0  0  0  0  0  0  0  0
   45.1387   35.9682   43.5232 C   0  0  0  0  0  0  0  0  0  0  0  0
   46.1158   35.0443   43.0300 C   0  0  0  0  0  0  0  0  0  0  0  0
   46.4933   34.0227   43.8016 N   0  0  0  0  0  0  0  0  0  0  0  0
   45.9545   33.8499   45.0594 C   0  0  0  0  0  0  0  0  0  0  0  0
   45.0459   34.6797   45.5610 N   0  0  0  0  0  0  0  0  0  0  0  0
   47.1448   32.0312   45.2853 H   0  0  0  0  0  0  0  0  0  0  0  0
   47.6517   32.1004   47.6824 H   0  0  0  0  0  0  0  0  0  0  0  0
   46.9546   33.7895   47.7443 H   0  0  0  0  0  0  0  0  0  0  0  0
   44.8525   32.8821   47.5480 H   0  0  0  0  0  0  0  0  0  0  0  0
   45.1411   30.9869   49.3615 H   0  0  0  0  0  0  0  0  0  0  0  0
   44.9531   28.5602   49.8395 H   0  0  0  0  0  0  0  0  0  0  0  0
   45.0189   26.9840   47.9583 H   0  0  0  0  0  0  0  0  0  0  0  0
   45.1274   26.5898   45.6438 H   0  0  0  0  0  0  0  0  0  0  0  0
   45.2205   27.3299   43.3691 H   0  0  0  0  0  0  0  0  0  0  0  0
   45.3660   29.6570   42.8133 H   0  0  0  0  0  0  0  0  0  0  0  0
   45.3499   31.2976   44.5050 H   0  0  0  0  0  0  0  0  0  0  0  0
   43.8902   36.4680   45.1395 H   0  0  0  0  0  0  0  0  0  0  0  0
   44.8529   36.7722   42.8947 H   0  0  0  0  0  0  0  0  0  0  0  0
   46.7094   35.1954   41.6994 C   0  0  0  0  0  0  0  0  0  0  0  0
   46.4564   33.9957   40.7964 C   0  0  1  0  0  0  0  0  0  0  0  0
   46.5449   33.0347   41.3202 H   0  0  0  0  0  0  0  0  0  0  0  0
   47.4781   34.1326   39.6634 C   0  0  2  0  0  0  0  0  0  0  0  0
   47.0225   33.7990   38.7090 H   0  0  0  0  0  0  0  0  0  0  0  0
   47.8294   35.4708   39.4598 O   0  0  0  0  0  0  0  0  0  0  0  0
   48.6604   35.9663   40.4576 C   0  0  1  0  0  0  0  0  0  0  0  0
   49.7274   35.8890   40.2399 H   0  0  0  0  0  0  0  0  0  0  0  0
   48.2293   35.3444   41.7621 C   0  0  1  0  0  0  0  0  0  0  0  0
   48.4927   35.9424   42.6379 H   0  0  0  0  0  0  0  0  0  0  0  0
   46.3381   36.0649   41.1362 H   0  0  0  0  0  0  0  0  0  0  0  0
   45.4727   34.1457   40.3134 H   0  0  0  0  0  0  0  0  0  0  0  0
   48.3760   33.5155   39.8406 H   0  0  0  0  0  0  0  0  0  0  0  0
   48.4125   37.0621   40.5601 H   0  0  0  0  0  0  0  0  0  0  0  0
   48.6320   34.2948   41.8265 H   0  0  0  0  0  0  0  0  0  0  0  0
  1  3  1  0
  1  2  1  0
  3  2  1  0
  3  4  1  0
  4  5  2  0
  5  6  1  0
  7  6  2  0
  8  7  1  0
  9  8  2  0
 10  9  1  0
 11 10  2  0
 11 12  1  0
 12 13  2  0
 13  8  1  0
 13  4  1  0
 14 19  2  0
 15 14  1  0
 16 15  2  0
 16 17  1  0
 17 18  2  0
 18 19  1  0
 18  1  1  0
  1 20  1  6
  2 21  1  0
  2 22  1  0
  3 23  1  1
  5 24  1  0
  6 25  1  0
  7 26  1  0
  9 27  1  0
 10 28  1  0
 11 29  1  0
 12 30  1  0
 14 31  1  0
 15 32  1  0
 33 34  1  0
 34 35  1  1
 34 36  1  0
 36 37  1  6
 36 38  1  0
 38 39  1  0
 39 40  1  6
 39 41  1  0
 41 42  1  1
 41 33  1  0
 33 43  1  0
 34 44  1  0
 36 45  1  0
 39 46  1  0
 41 47  1  0
 16 33  1  0
M  ISO  8  20  13  21  13  22  13  23  13  24  14  25  14  26  14  27  14
M  ISO  8  28  14  29  14  30  14  31  14  32  14  35  15  37  15  40  15
M  ISO  1  42  15
M  END
>  <DihAtoms>  (1) 
14,15,32,33

>  <DihDeg>  (1) 
-120.22589927886098

$$$$
