
 OpenBabel03242523433D

 25 26  0  0  1  0  0  0  0  0999 V2000
   46.4810   35.1210   42.0980 C   0  0  1  0  0  0  0  0  0  0  0  0
   46.1320   36.2010   42.0400 H   0  0  0  0  0  0  0  0  0  0  0  0
   45.8890   34.4030   40.9490 C   0  0  0  0  0  3  0  0  0  0  0  0
   44.4710   33.9020   41.1550 C   0  0  0  0  0  3  0  0  0  0  0  0
   44.4540   32.9640   41.7040 H   0  0  0  0  0  0  0  0  0  0  0  0
   43.9870   33.5980   39.7360 C   0  0  0  0  0  3  0  0  0  0  0  0
   44.1090   34.5330   39.1630 H   0  0  0  0  0  0  0  0  0  0  0  0
   44.6860   32.5380   39.2610 O   0  0  0  0  0  0  0  0  0  0  0  0
   46.0500   32.6550   39.1690 C   0  0  0  0  0  3  0  0  0  0  0  0
   46.4680   31.6320   39.0500 H   0  0  0  0  0  0  0  0  0  0  0  0
   46.7070   33.3110   40.3430 C   0  0  0  0  0  3  0  0  0  0  0  0
   46.9190   32.5470   41.1020 H   0  0  0  0  0  0  0  0  0  0  0  0
   45.1660   35.2770   44.1650 C   0  0  0  0  0  0  0  0  0  0  0  0
   46.1730   34.6360   43.4400 C   0  0  0  0  0  0  0  0  0  0  0  0
   46.8510   33.5720   44.0400 C   0  0  0  0  0  0  0  0  0  0  0  0
   46.4910   33.2180   45.3000 N   0  0  0  0  0  0  0  0  0  0  0  0
   45.5090   33.8600   45.9790 C   0  0  0  0  0  0  0  0  0  0  0  0
   44.8340   34.8980   45.4180 N   0  0  0  0  0  0  0  0  0  0  0  0
   44.6190   36.1060   43.7340 H   0  0  0  0  0  0  0  0  0  0  0  0
   47.6320   33.0510   43.5360 H   0  0  0  0  0  0  0  0  0  0  0  0
   45.2740   33.5150   46.9960 H   0  0  0  0  0  0  0  0  0  0  0  0
   47.9880   35.1830   41.9600 C   0  0  0  0  0  0  0  0  0  0  0  0
   48.4120   34.1670   41.9820 H   0  0  0  0  0  0  0  0  0  0  0  0
   48.2140   35.7270   41.0170 H   0  0  0  0  0  0  0  0  0  0  0  0
   48.3890   35.7470   42.8330 H   0  0  0  0  0  0  0  0  0  0  0  0
  1  2  1  6  0  0  0
  1 14  1  0  0  0  0
  3  4  1  0  0  0  0
  3  1  1  0  0  0  0
  4  5  1  0  0  0  0
  6  4  1  0  0  0  0
  7  6  1  0  0  0  0
  8  6  1  0  0  0  0
  9  8  1  0  0  0  0
  9 11  1  0  0  0  0
 10  9  1  0  0  0  0
 11  3  1  0  0  0  0
 11 12  1  0  0  0  0
 13 18  1  0  0  0  0
 14 15  1  0  0  0  0
 14 13  2  0  0  0  0
 15 16  2  0  0  0  0
 16 17  1  0  0  0  0
 17 21  1  0  0  0  0
 18 17  2  0  0  0  0
 19 13  1  0  0  0  0
 20 15  1  0  0  0  0
 22 23  1  0  0  0  0
 22  1  1  0  0  0  0
 22 25  1  0  0  0  0
 24 22  1  0  0  0  0
M  END
>  <minimizedAffinity>
-3.97037601

>  <minimizedRMSD>
0.412244797

$$$$
