
 OpenBabel03252509213D

 26 28  0  0  0  0  0  0  0  0999 V2000
   44.9940   33.3110   43.3740 C   0  0  0  0  0  0  0  0  0  0  0  0
   45.6380   34.2370   42.5390 C   0  0  0  0  0  0  0  0  0  0  0  0
   46.9810   34.4550   42.7960 C   0  0  0  0  0  0  0  0  0  0  0  0
   47.5860   33.7650   43.8280 N   0  0  0  0  0  0  0  0  0  0  0  0
   46.9390   32.8870   44.6030 C   0  0  0  0  0  0  0  0  0  0  0  0
   45.6360   32.6780   44.3530 N   0  0  0  0  0  0  0  0  0  0  0  0
   43.9780   33.0240   43.3230 H   0  0  0  0  0  0  0  0  0  0  0  0
   47.5520   32.4360   45.3600 H   0  0  0  0  0  0  0  0  0  0  0  0
   44.8430   34.8910   41.4560 C   0  0  0  0  0  3  0  0  0  0  0  0
   43.6120   35.5450   41.9880 C   0  0  0  0  0  3  0  0  0  0  0  0
   43.6950   36.6700   41.8980 H   0  0  0  0  0  0  0  0  0  0  0  0
   42.3180   35.1350   41.3970 C   0  0  0  0  0  3  0  0  0  0  0  0
   41.7860   34.3410   41.9590 H   0  0  0  0  0  0  0  0  0  0  0  0
   42.4070   34.6550   40.0920 O   0  0  0  0  0  0  0  0  0  0  0  0
   43.1770   33.4770   40.2140 C   0  0  0  0  0  3  0  0  0  0  0  0
   43.0740   32.8400   39.3360 H   0  0  0  0  0  0  0  0  0  0  0  0
   44.5940   33.9300   40.3100 C   0  0  0  0  0  3  0  0  0  0  0  0
   44.8390   34.4130   39.3350 H   0  0  0  0  0  0  0  0  0  0  0  0
   47.7560   35.3810   41.8910 C   0  0  0  0  0  0  0  0  0  0  0  0
   49.2670   35.1550   42.0550 C   0  0  0  0  0  0  0  0  0  0  0  0
   48.4620   34.7730   40.7780 C   0  0  0  0  0  0  0  0  0  0  0  0
   47.6240   36.4860   42.0690 H   0  0  0  0  0  0  0  0  0  0  0  0
   49.9800   35.9560   41.8660 H   0  0  0  0  0  0  0  0  0  0  0  0
   49.6360   34.2840   42.5940 H   0  0  0  0  0  0  0  0  0  0  0  0
   48.6210   35.4010   39.8760 H   0  0  0  0  0  0  0  0  0  0  0  0
   48.3160   33.7070   40.5680 H   0  0  0  0  0  0  0  0  0  0  0  0
  1  6  1  0  0  0  0
  2  3  1  0  0  0  0
  2  1  2  0  0  0  0
  3  4  2  0  0  0  0
  4  5  1  0  0  0  0
  5  8  1  0  0  0  0
  6  5  2  0  0  0  0
  7  1  1  0  0  0  0
  9 10  1  0  0  0  0
  9  2  1  0  0  0  0
 11 10  1  0  0  0  0
 12 13  1  0  0  0  0
 12 10  1  0  0  0  0
 14 15  1  0  0  0  0
 14 12  1  0  0  0  0
 15 17  1  0  0  0  0
 16 15  1  0  0  0  0
 17  9  1  0  0  0  0
 18 17  1  0  0  0  0
 19 20  1  0  0  0  0
 19 22  1  0  0  0  0
 19  3  1  0  0  0  0
 20 24  1  0  0  0  0
 21 19  1  0  0  0  0
 21 20  1  0  0  0  0
 23 20  1  0  0  0  0
 25 21  1  0  0  0  0
 26 21  1  0  0  0  0
M  END
>  <minimizedAffinity>
-4.50379372

>  <minimizedRMSD>
2.69645691

$$$$
