
 OpenBabel03252505413D

 29 31  0  0  1  0  0  0  0  0999 V2000
   37.7090   29.6620   38.7270 C   0  0  1  0  0  0  0  0  0  0  0  0
   36.4510   30.1580   37.9740 C   0  0  0  0  0  0  0  0  0  0  0  0
   37.1330   30.9690   39.0420 C   0  0  2  0  0  0  0  0  0  0  0  0
   38.5500   29.5540   38.0130 H   0  0  0  0  0  0  0  0  0  0  0  0
   36.5660   30.5530   36.9560 H   0  0  0  0  0  0  0  0  0  0  0  0
   35.4830   29.6620   38.2070 H   0  0  0  0  0  0  0  0  0  0  0  0
   36.5190   31.1020   39.9780 H   0  0  0  0  0  0  0  0  0  0  0  0
   37.8690   32.2430   38.6430 C   0  0  0  0  0  3  0  0  0  0  0  0
   37.4610   33.3230   39.5750 C   0  0  0  0  0  3  0  0  0  0  0  0
   37.0350   34.2190   39.0550 H   0  0  0  0  0  0  0  0  0  0  0  0
   38.5990   33.7870   40.4610 C   0  0  0  0  0  3  0  0  0  0  0  0
   38.2170   34.6680   41.0490 H   0  0  0  0  0  0  0  0  0  0  0  0
   39.6050   34.1610   39.5620 O   0  0  0  0  0  0  0  0  0  0  0  0
   40.2370   33.0010   39.1390 C   0  0  0  0  0  3  0  0  0  0  0  0
   41.0120   33.3140   38.4010 H   0  0  0  0  0  0  0  0  0  0  0  0
   39.3310   31.9390   38.6220 C   0  0  0  0  0  3  0  0  0  0  0  0
   39.5600   30.9840   39.1670 H   0  0  0  0  0  0  0  0  0  0  0  0
   37.4500   28.4700   39.5830 C   0  0  0  0  0  0  0  0  0  0  0  0
   37.2140   27.2140   38.9670 C   0  0  0  0  0  0  0  0  0  0  0  0
   36.9830   26.1150   39.7890 C   0  0  0  0  0  0  0  0  0  0  0  0
   36.9950   26.3030   41.1370 N   0  0  0  0  0  0  0  0  0  0  0  0
   37.2250   27.5240   41.6820 C   0  0  0  0  0  0  0  0  0  0  0  0
   37.4520   28.6050   40.8960 N   0  0  0  0  0  0  0  0  0  0  0  0
   37.2190   27.1390   37.8900 H   0  0  0  0  0  0  0  0  0  0  0  0
   36.7990   25.1440   39.3540 H   0  0  0  0  0  0  0  0  0  0  0  0
   37.2070   27.5170   43.1850 C   0  0  0  0  0  0  0  0  0  0  0  0
   36.0710   26.9310   43.6780 F   0  0  0  0  0  0  0  0  0  0  0  0
   37.2710   28.8320   43.6570 F   0  0  0  0  0  0  0  0  0  0  0  0
   38.3670   26.9000   43.6400 F   0  0  0  0  0  0  0  0  0  0  0  0
  1  4  1  6  0  0  0
  1  3  1  0  0  0  0
  1 18  1  0  0  0  0
  2  6  1  0  0  0  0
  2  1  1  0  0  0  0
  2  3  1  0  0  0  0
  3  7  1  1  0  0  0
  5  2  1  0  0  0  0
  8  3  1  0  0  0  0
  8  9  1  0  0  0  0
  9 11  1  0  0  0  0
 10  9  1  0  0  0  0
 11 12  1  0  0  0  0
 13 11  1  0  0  0  0
 14 13  1  0  0  0  0
 15 14  1  0  0  0  0
 16  8  1  0  0  0  0
 16 14  1  0  0  0  0
 16 17  1  0  0  0  0
 18 23  1  0  0  0  0
 19 18  2  0  0  0  0
 19 20  1  0  0  0  0
 20 21  2  0  0  0  0
 21 22  1  0  0  0  0
 22 26  1  0  0  0  0
 23 22  2  0  0  0  0
 24 19  1  0  0  0  0
 25 20  1  0  0  0  0
 26 29  1  0  0  0  0
 26 28  1  0  0  0  0
 26 27  1  0  0  0  0
M  END
>  <minimizedAffinity>
-5.29317474

$$$$

 OpenBabel03252505413D

 29 31  0  0  1  0  0  0  0  0999 V2000
   38.0510   28.0860   42.2320 C   0  0  1  0  0  0  0  0  0  0  0  0
   37.4940   27.9430   43.6700 C   0  0  0  0  0  0  0  0  0  0  0  0
   37.0340   27.0770   42.5280 C   0  0  2  0  0  0  0  0  0  0  0  0
   39.1310   27.8380   42.2270 H   0  0  0  0  0  0  0  0  0  0  0  0
   38.1020   27.4220   44.4220 H   0  0  0  0  0  0  0  0  0  0  0  0
   36.8230   28.7470   44.0430 H   0  0  0  0  0  0  0  0  0  0  0  0
   35.9630   27.2530   42.2230 H   0  0  0  0  0  0  0  0  0  0  0  0
   37.4040   25.5990   42.5280 C   0  0  0  0  0  3  0  0  0  0  0  0
   36.9350   25.0050   41.2510 C   0  0  0  0  0  3  0  0  0  0  0  0
   36.2470   24.1330   41.3950 H   0  0  0  0  0  0  0  0  0  0  0  0
   38.0790   24.5640   40.3620 C   0  0  0  0  0  3  0  0  0  0  0  0
   37.6210   24.0390   39.4770 H   0  0  0  0  0  0  0  0  0  0  0  0
   38.8180   23.6830   41.1610 O   0  0  0  0  0  0  0  0  0  0  0  0
   39.6040   24.4510   42.0080 C   0  0  0  0  0  3  0  0  0  0  0  0
   40.1600   23.7360   42.6580 H   0  0  0  0  0  0  0  0  0  0  0  0
   38.8730   25.4940   42.7780 C   0  0  0  0  0  3  0  0  0  0  0  0
   39.3880   26.4780   42.6140 H   0  0  0  0  0  0  0  0  0  0  0  0
   37.6970   29.3840   41.5910 C   0  0  0  0  0  0  0  0  0  0  0  0
   36.3800   29.5780   41.1000 C   0  0  0  0  0  0  0  0  0  0  0  0
   36.0740   30.8030   40.5130 C   0  0  0  0  0  0  0  0  0  0  0  0
   37.0520   31.7460   40.4410 N   0  0  0  0  0  0  0  0  0  0  0  0
   38.2990   31.5160   40.9240 C   0  0  0  0  0  0  0  0  0  0  0  0
   38.6140   30.3290   41.4990 N   0  0  0  0  0  0  0  0  0  0  0  0
   35.6550   28.7840   41.1920 H   0  0  0  0  0  0  0  0  0  0  0  0
   35.0810   30.9840   40.1290 H   0  0  0  0  0  0  0  0  0  0  0  0
   39.2260   32.6860   40.7570 C   0  0  0  0  0  0  0  0  0  0  0  0
   38.7280   33.8200   41.3450 F   0  0  0  0  0  0  0  0  0  0  0  0
   39.4160   32.9390   39.3950 F   0  0  0  0  0  0  0  0  0  0  0  0
   40.4780   32.3350   41.2500 F   0  0  0  0  0  0  0  0  0  0  0  0
  1  4  1  6  0  0  0
  1  3  1  0  0  0  0
  1  2  1  0  0  0  0
  2  6  1  0  0  0  0
  2  5  1  0  0  0  0
  3  7  1  6  0  0  0
  3  2  1  0  0  0  0
  8  3  1  0  0  0  0
  8 16  1  0  0  0  0
  9 10  1  0  0  0  0
  9  8  1  0  0  0  0
 11 13  1  0  0  0  0
 11  9  1  0  0  0  0
 12 11  1  0  0  0  0
 13 14  1  0  0  0  0
 14 15  1  0  0  0  0
 14 16  1  0  0  0  0
 17 16  1  0  0  0  0
 18  1  1  0  0  0  0
 19 24  1  0  0  0  0
 19 18  2  0  0  0  0
 20 19  1  0  0  0  0
 21 20  2  0  0  0  0
 21 22  1  0  0  0  0
 22 23  2  0  0  0  0
 23 18  1  0  0  0  0
 25 20  1  0  0  0  0
 26 22  1  0  0  0  0
 26 29  1  0  0  0  0
 26 27  1  0  0  0  0
 28 26  1  0  0  0  0
M  END
>  <minimizedAffinity>
-5.17945004

$$$$

 OpenBabel03252505413D

 29 31  0  0  1  0  0  0  0  0999 V2000
   38.6580   28.0000   42.6470 C   0  0  1  0  0  0  0  0  0  0  0  0
   37.4510   27.7980   43.5950 C   0  0  0  0  0  0  0  0  0  0  0  0
   37.6280   27.0130   42.3240 C   0  0  2  0  0  0  0  0  0  0  0  0
   39.5920   27.7140   43.1720 H   0  0  0  0  0  0  0  0  0  0  0  0
   37.5930   27.2160   44.5160 H   0  0  0  0  0  0  0  0  0  0  0  0
   36.6850   28.6040   43.6300 H   0  0  0  0  0  0  0  0  0  0  0  0
   36.8590   27.2430   41.5330 H   0  0  0  0  0  0  0  0  0  0  0  0
   37.9430   25.5240   42.4150 C   0  0  0  0  0  3  0  0  0  0  0  0
   36.6890   24.7710   42.1650 C   0  0  0  0  0  3  0  0  0  0  0  0
   36.4200   24.0700   42.9960 H   0  0  0  0  0  0  0  0  0  0  0  0
   36.7340   23.9800   40.8740 C   0  0  0  0  0  3  0  0  0  0  0  0
   35.7890   23.3690   40.8310 H   0  0  0  0  0  0  0  0  0  0  0  0
   37.8680   23.1690   41.0060 O   0  0  0  0  0  0  0  0  0  0  0  0
   38.9760   23.9520   40.7140 C   0  0  0  0  0  3  0  0  0  0  0  0
   39.8700   23.3010   40.8560 H   0  0  0  0  0  0  0  0  0  0  0  0
   39.0600   25.2330   41.4670 C   0  0  0  0  0  3  0  0  0  0  0  0
   39.1990   26.0680   40.7280 H   0  0  0  0  0  0  0  0  0  0  0  0
   38.6810   29.3420   42.0020 C   0  0  0  0  0  0  0  0  0  0  0  0
   39.5910   30.3230   42.4760 C   0  0  0  0  0  0  0  0  0  0  0  0
   39.5970   31.5660   41.8500 C   0  0  0  0  0  0  0  0  0  0  0  0
   38.7340   31.7750   40.8190 N   0  0  0  0  0  0  0  0  0  0  0  0
   37.8810   30.8070   40.4000 C   0  0  0  0  0  0  0  0  0  0  0  0
   37.8610   29.5900   40.9980 N   0  0  0  0  0  0  0  0  0  0  0  0
   40.2480   30.0860   43.2990 H   0  0  0  0  0  0  0  0  0  0  0  0
   40.2770   32.3360   42.1860 H   0  0  0  0  0  0  0  0  0  0  0  0
   37.0200   31.2330   39.2450 C   0  0  0  0  0  0  0  0  0  0  0  0
   35.9080   30.4410   39.1170 F   0  0  0  0  0  0  0  0  0  0  0  0
   37.7590   31.1560   38.0600 F   0  0  0  0  0  0  0  0  0  0  0  0
   36.7020   32.5780   39.4000 F   0  0  0  0  0  0  0  0  0  0  0  0
  1  4  1  1  0  0  0
  1  2  1  0  0  0  0
  2  6  1  0  0  0  0
  2  5  1  0  0  0  0
  3  7  1  6  0  0  0
  3  8  1  0  0  0  0
  3  1  1  0  0  0  0
  3  2  1  0  0  0  0
  9  8  1  0  0  0  0
  9 10  1  0  0  0  0
 11 13  1  0  0  0  0
 11  9  1  0  0  0  0
 12 11  1  0  0  0  0
 14 15  1  0  0  0  0
 14 13  1  0  0  0  0
 14 16  1  0  0  0  0
 16  8  1  0  0  0  0
 17 16  1  0  0  0  0
 18 19  1  0  0  0  0
 18  1  1  0  0  0  0
 19 24  1  0  0  0  0
 20 25  1  0  0  0  0
 20 19  2  0  0  0  0
 21 20  1  0  0  0  0
 22 21  2  0  0  0  0
 22 23  1  0  0  0  0
 23 18  2  0  0  0  0
 26 29  1  0  0  0  0
 26 22  1  0  0  0  0
 27 26  1  0  0  0  0
 28 26  1  0  0  0  0
M  END
>  <minimizedAffinity>
-5.1604166

$$$$

 OpenBabel03252505413D

 29 31  0  0  1  0  0  0  0  0999 V2000
   37.6650   30.0080   40.1870 C   0  0  1  0  0  0  0  0  0  0  0  0
   36.3000   30.5200   39.6670 C   0  0  0  0  0  0  0  0  0  0  0  0
   37.2610   31.3930   40.4290 C   0  0  2  0  0  0  0  0  0  0  0  0
   38.3090   29.7330   39.3280 H   0  0  0  0  0  0  0  0  0  0  0  0
   36.2010   30.7710   38.6020 H   0  0  0  0  0  0  0  0  0  0  0  0
   35.3840   30.1500   40.1780 H   0  0  0  0  0  0  0  0  0  0  0  0
   36.8900   31.6990   41.4490 H   0  0  0  0  0  0  0  0  0  0  0  0
   37.9620   32.5310   39.6980 C   0  0  0  0  0  3  0  0  0  0  0  0
   38.6980   33.3400   40.7010 C   0  0  0  0  0  3  0  0  0  0  0  0
   38.4100   34.4220   40.6950 H   0  0  0  0  0  0  0  0  0  0  0  0
   40.2000   33.2500   40.5310 C   0  0  0  0  0  3  0  0  0  0  0  0
   40.6560   33.9730   41.2640 H   0  0  0  0  0  0  0  0  0  0  0  0
   40.4220   33.6470   39.2060 O   0  0  0  0  0  0  0  0  0  0  0  0
   40.1360   32.5600   38.3930 C   0  0  0  0  0  3  0  0  0  0  0  0
   40.2850   32.9030   37.3430 H   0  0  0  0  0  0  0  0  0  0  0  0
   38.8050   31.9330   38.6200 C   0  0  0  0  0  3  0  0  0  0  0  0
   38.9570   30.8320   38.7810 H   0  0  0  0  0  0  0  0  0  0  0  0
   37.5380   28.9630   41.2420 C   0  0  0  0  0  0  0  0  0  0  0  0
   37.5320   29.3540   42.6060 C   0  0  0  0  0  0  0  0  0  0  0  0
   37.4040   28.3580   43.5710 C   0  0  0  0  0  0  0  0  0  0  0  0
   37.2930   27.0670   43.1550 N   0  0  0  0  0  0  0  0  0  0  0  0
   37.3040   26.7410   41.8390 C   0  0  0  0  0  0  0  0  0  0  0  0
   37.4280   27.6970   40.8860 N   0  0  0  0  0  0  0  0  0  0  0  0
   37.6240   30.3980   42.8610 H   0  0  0  0  0  0  0  0  0  0  0  0
   37.3960   28.6200   44.6180 H   0  0  0  0  0  0  0  0  0  0  0  0
   37.1590   25.2660   41.5910 C   0  0  0  0  0  0  0  0  0  0  0  0
   38.3740   24.6560   41.4150 F   0  0  0  0  0  0  0  0  0  0  0  0
   36.3880   25.0610   40.4420 F   0  0  0  0  0  0  0  0  0  0  0  0
   36.4280   24.7100   42.6350 F   0  0  0  0  0  0  0  0  0  0  0  0
  1  4  1  6  0  0  0
  1  3  1  0  0  0  0
  1 18  1  0  0  0  0
  2  6  1  0  0  0  0
  2  1  1  0  0  0  0
  2  3  1  0  0  0  0
  3  7  1  1  0  0  0
  5  2  1  0  0  0  0
  8  3  1  0  0  0  0
  8  9  1  0  0  0  0
 10  9  1  0  0  0  0
 11  9  1  0  0  0  0
 11 12  1  0  0  0  0
 13 11  1  0  0  0  0
 14 16  1  0  0  0  0
 14 13  1  0  0  0  0
 15 14  1  0  0  0  0
 16 17  1  0  0  0  0
 16  8  1  0  0  0  0
 18 19  1  0  0  0  0
 19 24  1  0  0  0  0
 19 20  2  0  0  0  0
 20 25  1  0  0  0  0
 21 20  1  0  0  0  0
 22 21  2  0  0  0  0
 23 18  2  0  0  0  0
 23 22  1  0  0  0  0
 26 22  1  0  0  0  0
 26 29  1  0  0  0  0
 27 26  1  0  0  0  0
 28 26  1  0  0  0  0
M  END
>  <minimizedAffinity>
-5.10076761

$$$$

 OpenBabel03252505413D

 29 31  0  0  1  0  0  0  0  0999 V2000
   38.6840   28.3240   42.2420 C   0  0  1  0  0  0  0  0  0  0  0  0
   38.2040   28.0030   43.6780 C   0  0  0  0  0  0  0  0  0  0  0  0
   38.1470   27.0010   42.5560 C   0  0  2  0  0  0  0  0  0  0  0  0
   39.7740   28.5270   42.2530 H   0  0  0  0  0  0  0  0  0  0  0  0
   38.9540   27.7830   44.4490 H   0  0  0  0  0  0  0  0  0  0  0  0
   37.2610   28.4810   44.0230 H   0  0  0  0  0  0  0  0  0  0  0  0
   37.1000   26.7300   42.2380 H   0  0  0  0  0  0  0  0  0  0  0  0
   39.0740   25.7920   42.6000 C   0  0  0  0  0  3  0  0  0  0  0  0
   39.6380   25.5930   41.2410 C   0  0  0  0  0  3  0  0  0  0  0  0
   39.4420   24.5720   40.8250 H   0  0  0  0  0  0  0  0  0  0  0  0
   41.1300   25.8470   41.1900 C   0  0  0  0  0  3  0  0  0  0  0  0
   41.4740   25.5700   40.1540 H   0  0  0  0  0  0  0  0  0  0  0  0
   41.6600   24.9840   42.1580 O   0  0  0  0  0  0  0  0  0  0  0  0
   41.4720   25.5820   43.3960 C   0  0  0  0  0  3  0  0  0  0  0  0
   41.8690   24.8690   44.1550 H   0  0  0  0  0  0  0  0  0  0  0  0
   40.0800   26.0240   43.6790 C   0  0  0  0  0  3  0  0  0  0  0  0
   40.1080   27.1030   43.9880 H   0  0  0  0  0  0  0  0  0  0  0  0
   37.8560   29.3610   41.5630 C   0  0  0  0  0  0  0  0  0  0  0  0
   36.5050   29.0670   41.2440 C   0  0  0  0  0  0  0  0  0  0  0  0
   35.7520   30.0560   40.6170 C   0  0  0  0  0  0  0  0  0  0  0  0
   36.3490   31.2480   40.3440 N   0  0  0  0  0  0  0  0  0  0  0  0
   37.6450   31.4830   40.6680 C   0  0  0  0  0  0  0  0  0  0  0  0
   38.3940   30.5320   41.2790 N   0  0  0  0  0  0  0  0  0  0  0  0
   36.0980   28.0990   41.4910 H   0  0  0  0  0  0  0  0  0  0  0  0
   34.7200   29.8660   40.3590 H   0  0  0  0  0  0  0  0  0  0  0  0
   38.1110   32.8620   40.2920 C   0  0  0  0  0  0  0  0  0  0  0  0
   37.0880   33.6270   39.7930 F   0  0  0  0  0  0  0  0  0  0  0  0
   39.1100   32.7660   39.3190 F   0  0  0  0  0  0  0  0  0  0  0  0
   38.7210   33.4410   41.3990 F   0  0  0  0  0  0  0  0  0  0  0  0
  1  4  1  6  0  0  0
  1  3  1  0  0  0  0
  1  2  1  0  0  0  0
  2  6  1  0  0  0  0
  2  5  1  0  0  0  0
  3  7  1  6  0  0  0
  3  8  1  0  0  0  0
  3  2  1  0  0  0  0
  8 16  1  0  0  0  0
  9  8  1  0  0  0  0
 10  9  1  0  0  0  0
 11  9  1  0  0  0  0
 11 13  1  0  0  0  0
 12 11  1  0  0  0  0
 13 14  1  0  0  0  0
 14 16  1  0  0  0  0
 14 15  1  0  0  0  0
 16 17  1  0  0  0  0
 18  1  1  0  0  0  0
 19 24  1  0  0  0  0
 19 18  2  0  0  0  0
 20 19  1  0  0  0  0
 21 20  2  0  0  0  0
 21 22  1  0  0  0  0
 22 23  2  0  0  0  0
 23 18  1  0  0  0  0
 25 20  1  0  0  0  0
 26 22  1  0  0  0  0
 26 29  1  0  0  0  0
 27 26  1  0  0  0  0
 28 26  1  0  0  0  0
M  END
>  <minimizedAffinity>
-5.03243494

$$$$

 OpenBabel03252505413D

 29 31  0  0  1  0  0  0  0  0999 V2000
   37.6970   28.1920   41.1940 C   0  0  1  0  0  0  0  0  0  0  0  0
   37.2780   28.9000   42.5050 C   0  0  0  0  0  0  0  0  0  0  0  0
   36.8320   27.5060   42.1530 C   0  0  2  0  0  0  0  0  0  0  0  0
   38.7950   28.0410   41.1890 H   0  0  0  0  0  0  0  0  0  0  0  0
   38.0000   28.9530   43.3310 H   0  0  0  0  0  0  0  0  0  0  0  0
   36.5490   29.7360   42.4280 H   0  0  0  0  0  0  0  0  0  0  0  0
   35.7270   27.4170   41.9490 H   0  0  0  0  0  0  0  0  0  0  0  0
   37.3710   26.3320   42.9630 C   0  0  0  0  0  3  0  0  0  0  0  0
   37.1370   25.0890   42.1860 C   0  0  0  0  0  3  0  0  0  0  0  0
   36.5450   24.3220   42.7470 H   0  0  0  0  0  0  0  0  0  0  0  0
   38.4260   24.4450   41.7210 C   0  0  0  0  0  3  0  0  0  0  0  0
   38.1470   23.4660   41.2390 H   0  0  0  0  0  0  0  0  0  0  0  0
   39.1600   24.2500   42.8980 O   0  0  0  0  0  0  0  0  0  0  0  0
   39.7390   25.4660   43.2320 C   0  0  0  0  0  3  0  0  0  0  0  0
   40.2910   25.3020   44.1870 H   0  0  0  0  0  0  0  0  0  0  0  0
   38.8000   26.6190   43.2900 C   0  0  0  0  0  3  0  0  0  0  0  0
   39.2120   27.4420   42.6450 H   0  0  0  0  0  0  0  0  0  0  0  0
   37.1440   28.8430   39.9720 C   0  0  0  0  0  0  0  0  0  0  0  0
   36.0490   28.2380   39.3020 C   0  0  0  0  0  0  0  0  0  0  0  0
   35.5470   28.8710   38.1680 C   0  0  0  0  0  0  0  0  0  0  0  0
   36.1320   30.0320   37.7630 N   0  0  0  0  0  0  0  0  0  0  0  0
   37.1780   30.5720   38.4370 C   0  0  0  0  0  0  0  0  0  0  0  0
   37.6800   29.9700   39.5430 N   0  0  0  0  0  0  0  0  0  0  0  0
   35.6360   27.3160   39.6810 H   0  0  0  0  0  0  0  0  0  0  0  0
   34.7150   28.4390   37.6330 H   0  0  0  0  0  0  0  0  0  0  0  0
   37.6710   31.8580   37.8350 C   0  0  0  0  0  0  0  0  0  0  0  0
   37.5190   31.8750   36.4730 F   0  0  0  0  0  0  0  0  0  0  0  0
   39.0270   32.0210   38.1330 F   0  0  0  0  0  0  0  0  0  0  0  0
   37.0210   32.9180   38.4580 F   0  0  0  0  0  0  0  0  0  0  0  0
  1  4  1  6  0  0  0
  1  3  1  0  0  0  0
  1  2  1  0  0  0  0
  2  5  1  0  0  0  0
  3  7  1  6  0  0  0
  3  2  1  0  0  0  0
  3  8  1  0  0  0  0
  6  2  1  0  0  0  0
  8 16  1  0  0  0  0
  9 10  1  0  0  0  0
  9  8  1  0  0  0  0
 11  9  1  0  0  0  0
 11 13  1  0  0  0  0
 12 11  1  0  0  0  0
 13 14  1  0  0  0  0
 14 16  1  0  0  0  0
 14 15  1  0  0  0  0
 17 16  1  0  0  0  0
 18  1  1  0  0  0  0
 19 24  1  0  0  0  0
 19 18  2  0  0  0  0
 20 19  1  0  0  0  0
 21 20  2  0  0  0  0
 21 22  1  0  0  0  0
 22 23  2  0  0  0  0
 23 18  1  0  0  0  0
 25 20  1  0  0  0  0
 26 28  1  0  0  0  0
 26 22  1  0  0  0  0
 26 29  1  0  0  0  0
 27 26  1  0  0  0  0
M  END
>  <minimizedAffinity>
-4.98431683

$$$$

 OpenBabel03252505413D

 29 31  0  0  1  0  0  0  0  0999 V2000
   37.6820   28.3770   41.0610 C   0  0  1  0  0  0  0  0  0  0  0  0
   37.3290   29.2240   42.3070 C   0  0  0  0  0  0  0  0  0  0  0  0
   36.8470   27.8110   42.1190 C   0  0  2  0  0  0  0  0  0  0  0  0
   38.7770   28.2030   41.0290 H   0  0  0  0  0  0  0  0  0  0  0  0
   38.0850   29.3480   43.0940 H   0  0  0  0  0  0  0  0  0  0  0  0
   36.6110   30.0620   42.1710 H   0  0  0  0  0  0  0  0  0  0  0  0
   35.7330   27.7240   41.9690 H   0  0  0  0  0  0  0  0  0  0  0  0
   37.3990   26.7160   43.0250 C   0  0  0  0  0  3  0  0  0  0  0  0
   37.4560   25.4560   42.2440 C   0  0  0  0  0  3  0  0  0  0  0  0
   36.8880   24.6150   42.7180 H   0  0  0  0  0  0  0  0  0  0  0  0
   38.8760   24.9880   41.9990 C   0  0  0  0  0  3  0  0  0  0  0  0
   38.8070   23.9830   41.4970 H   0  0  0  0  0  0  0  0  0  0  0  0
   39.4320   24.8890   43.2800 O   0  0  0  0  0  0  0  0  0  0  0  0
   39.7870   26.1700   43.6790 C   0  0  0  0  0  3  0  0  0  0  0  0
   40.1970   26.0770   44.7120 H   0  0  0  0  0  0  0  0  0  0  0  0
   38.7080   27.1890   43.5680 C   0  0  0  0  0  3  0  0  0  0  0  0
   39.1050   28.0600   42.9810 H   0  0  0  0  0  0  0  0  0  0  0  0
   37.0910   28.9090   39.8000 C   0  0  0  0  0  0  0  0  0  0  0  0
   37.8830   29.7310   38.9580 C   0  0  0  0  0  0  0  0  0  0  0  0
   37.3080   30.2080   37.7830 C   0  0  0  0  0  0  0  0  0  0  0  0
   36.0210   29.8620   37.5060 N   0  0  0  0  0  0  0  0  0  0  0  0
   35.3030   29.0720   38.3420 C   0  0  0  0  0  0  0  0  0  0  0  0
   35.8460   28.5990   39.4910 N   0  0  0  0  0  0  0  0  0  0  0  0
   38.8970   29.9650   39.2420 H   0  0  0  0  0  0  0  0  0  0  0  0
   37.8820   30.8370   37.1180 H   0  0  0  0  0  0  0  0  0  0  0  0
   33.9090   28.7990   37.8500 C   0  0  0  0  0  0  0  0  0  0  0  0
   33.6270   29.4970   36.7050 F   0  0  0  0  0  0  0  0  0  0  0  0
   32.9880   29.1680   38.8350 F   0  0  0  0  0  0  0  0  0  0  0  0
   33.7560   27.4260   37.6910 F   0  0  0  0  0  0  0  0  0  0  0  0
  1  4  1  6  0  0  0
  1  3  1  0  0  0  0
  1  2  1  0  0  0  0
  2  5  1  0  0  0  0
  3  7  1  6  0  0  0
  3  2  1  0  0  0  0
  3  8  1  0  0  0  0
  6  2  1  0  0  0  0
  8 16  1  0  0  0  0
  9 10  1  0  0  0  0
  9  8  1  0  0  0  0
 11  9  1  0  0  0  0
 11 13  1  0  0  0  0
 12 11  1  0  0  0  0
 13 14  1  0  0  0  0
 14 15  1  0  0  0  0
 16 14  1  0  0  0  0
 17 16  1  0  0  0  0
 18  1  1  0  0  0  0
 19 24  1  0  0  0  0
 19 18  2  0  0  0  0
 20 19  1  0  0  0  0
 21 20  2  0  0  0  0
 21 22  1  0  0  0  0
 22 23  2  0  0  0  0
 23 18  1  0  0  0  0
 25 20  1  0  0  0  0
 26 22  1  0  0  0  0
 26 28  1  0  0  0  0
 27 26  1  0  0  0  0
 29 26  1  0  0  0  0
M  END
>  <minimizedAffinity>
-4.91309357

$$$$

 OpenBabel03252505413D

 29 31  0  0  1  0  0  0  0  0999 V2000
   36.7840   28.8080   38.2860 C   0  0  1  0  0  0  0  0  0  0  0  0
   35.4030   29.4130   37.9320 C   0  0  0  0  0  0  0  0  0  0  0  0
   36.3150   30.0140   38.9680 C   0  0  2  0  0  0  0  0  0  0  0  0
   37.4500   28.8630   37.4010 H   0  0  0  0  0  0  0  0  0  0  0  0
   35.3060   30.0040   37.0110 H   0  0  0  0  0  0  0  0  0  0  0  0
   34.4990   28.8580   38.2640 H   0  0  0  0  0  0  0  0  0  0  0  0
   35.9180   29.9440   40.0210 H   0  0  0  0  0  0  0  0  0  0  0  0
   36.9730   31.3580   38.6810 C   0  0  0  0  0  3  0  0  0  0  0  0
   37.1440   32.0730   39.9700 C   0  0  0  0  0  3  0  0  0  0  0  0
   36.6600   33.0830   39.9840 H   0  0  0  0  0  0  0  0  0  0  0  0
   38.6000   32.2410   40.3510 C   0  0  0  0  0  3  0  0  0  0  0  0
   38.6240   32.8800   41.2780 H   0  0  0  0  0  0  0  0  0  0  0  0
   39.1700   32.9000   39.2550 O   0  0  0  0  0  0  0  0  0  0  0  0
   39.4050   31.9480   38.2730 C   0  0  0  0  0  3  0  0  0  0  0  0
   39.8270   32.4930   37.3980 H   0  0  0  0  0  0  0  0  0  0  0  0
   38.2340   31.0980   37.9240 C   0  0  0  0  0  3  0  0  0  0  0  0
   38.5440   30.0210   38.0010 H   0  0  0  0  0  0  0  0  0  0  0  0
   36.6910   27.4650   38.9240 C   0  0  0  0  0  0  0  0  0  0  0  0
   36.3350   26.3440   38.1300 C   0  0  0  0  0  0  0  0  0  0  0  0
   36.2640   25.1000   38.7500 C   0  0  0  0  0  0  0  0  0  0  0  0
   36.5380   25.0240   40.0810 N   0  0  0  0  0  0  0  0  0  0  0  0
   36.8740   26.1240   40.8000 C   0  0  0  0  0  0  0  0  0  0  0  0
   36.9490   27.3440   40.2120 N   0  0  0  0  0  0  0  0  0  0  0  0
   36.1310   26.4790   37.0790 H   0  0  0  0  0  0  0  0  0  0  0  0
   35.9950   24.2250   38.1750 H   0  0  0  0  0  0  0  0  0  0  0  0
   37.1480   25.8260   42.2470 C   0  0  0  0  0  0  0  0  0  0  0  0
   38.4930   25.7640   42.5100 F   0  0  0  0  0  0  0  0  0  0  0  0
   36.5720   24.5980   42.5870 F   0  0  0  0  0  0  0  0  0  0  0  0
   36.4950   26.7740   43.0270 F   0  0  0  0  0  0  0  0  0  0  0  0
  1  4  1  6  0  0  0
  1 18  1  0  0  0  0
  1  3  1  0  0  0  0
  2  6  1  0  0  0  0
  2  1  1  0  0  0  0
  2  3  1  0  0  0  0
  3  7  1  1  0  0  0
  5  2  1  0  0  0  0
  8  3  1  0  0  0  0
  8  9  1  0  0  0  0
  9 10  1  0  0  0  0
  9 11  1  0  0  0  0
 11 12  1  0  0  0  0
 13 11  1  0  0  0  0
 14 13  1  0  0  0  0
 15 14  1  0  0  0  0
 16 17  1  0  0  0  0
 16 14  1  0  0  0  0
 16  8  1  0  0  0  0
 18 23  1  0  0  0  0
 19 20  1  0  0  0  0
 19 18  2  0  0  0  0
 20 21  2  0  0  0  0
 21 22  1  0  0  0  0
 22 26  1  0  0  0  0
 23 22  2  0  0  0  0
 24 19  1  0  0  0  0
 25 20  1  0  0  0  0
 26 27  1  0  0  0  0
 26 28  1  0  0  0  0
 26 29  1  0  0  0  0
M  END
>  <minimizedAffinity>
-4.86617756

$$$$

 OpenBabel03252505413D

 29 31  0  0  1  0  0  0  0  0999 V2000
   36.4830   28.7390   39.8730 C   0  0  1  0  0  0  0  0  0  0  0  0
   35.0240   29.2550   39.8850 C   0  0  0  0  0  0  0  0  0  0  0  0
   36.1670   30.0290   40.4850 C   0  0  2  0  0  0  0  0  0  0  0  0
   36.8400   28.6630   38.8260 H   0  0  0  0  0  0  0  0  0  0  0  0
   34.6090   29.6910   38.9660 H   0  0  0  0  0  0  0  0  0  0  0  0
   34.3030   28.7450   40.5620 H   0  0  0  0  0  0  0  0  0  0  0  0
   36.1180   30.1210   41.6070 H   0  0  0  0  0  0  0  0  0  0  0  0
   36.6150   31.3220   39.8130 C   0  0  0  0  0  3  0  0  0  0  0  0
   37.7240   31.8980   40.6140 C   0  0  0  0  0  3  0  0  0  0  0  0
   37.5260   32.9450   40.9560 H   0  0  0  0  0  0  0  0  0  0  0  0
   39.0440   31.8850   39.8700 C   0  0  0  0  0  3  0  0  0  0  0  0
   39.7870   32.4320   40.5150 H   0  0  0  0  0  0  0  0  0  0  0  0
   38.7780   32.5800   38.6840 O   0  0  0  0  0  0  0  0  0  0  0  0
   38.1390   31.7010   37.8220 C   0  0  0  0  0  3  0  0  0  0  0  0
   37.9060   32.2790   36.8970 H   0  0  0  0  0  0  0  0  0  0  0  0
   36.9520   31.0070   38.3920 C   0  0  0  0  0  3  0  0  0  0  0  0
   37.0820   29.9020   38.2360 H   0  0  0  0  0  0  0  0  0  0  0  0
   36.6790   27.5120   40.6970 C   0  0  0  0  0  0  0  0  0  0  0  0
   36.8640   27.6430   42.0980 C   0  0  0  0  0  0  0  0  0  0  0  0
   37.0380   26.4810   42.8450 C   0  0  0  0  0  0  0  0  0  0  0  0
   37.0210   25.2860   42.1940 N   0  0  0  0  0  0  0  0  0  0  0  0
   36.8410   25.2100   40.8520 C   0  0  0  0  0  0  0  0  0  0  0  0
   36.6710   26.3320   40.1090 N   0  0  0  0  0  0  0  0  0  0  0  0
   36.8650   28.6240   42.5460 H   0  0  0  0  0  0  0  0  0  0  0  0
   37.1810   26.5430   43.9140 H   0  0  0  0  0  0  0  0  0  0  0  0
   36.8440   23.8010   40.3300 C   0  0  0  0  0  0  0  0  0  0  0  0
   35.5730   23.3120   40.1750 F   0  0  0  0  0  0  0  0  0  0  0  0
   37.5330   22.9750   41.2250 F   0  0  0  0  0  0  0  0  0  0  0  0
   37.5780   23.7660   39.1500 F   0  0  0  0  0  0  0  0  0  0  0  0
  1  4  1  6  0  0  0
  1  2  1  0  0  0  0
  1  3  1  0  0  0  0
  1 18  1  0  0  0  0
  2  3  1  0  0  0  0
  2  6  1  0  0  0  0
  3  7  1  1  0  0  0
  5  2  1  0  0  0  0
  8  3  1  0  0  0  0
  8  9  1  0  0  0  0
  9 10  1  0  0  0  0
 11 12  1  0  0  0  0
 11  9  1  0  0  0  0
 13 11  1  0  0  0  0
 14 16  1  0  0  0  0
 14 13  1  0  0  0  0
 15 14  1  0  0  0  0
 16  8  1  0  0  0  0
 17 16  1  0  0  0  0
 18 19  1  0  0  0  0
 19 24  1  0  0  0  0
 19 20  2  0  0  0  0
 20 25  1  0  0  0  0
 21 20  1  0  0  0  0
 22 21  2  0  0  0  0
 23 18  2  0  0  0  0
 23 22  1  0  0  0  0
 26 22  1  0  0  0  0
 26 28  1  0  0  0  0
 27 26  1  0  0  0  0
 29 26  1  0  0  0  0
M  END
>  <minimizedAffinity>
-4.85603809

$$$$
