
     RDKit          3D

 30 31  0  0  0  0  0  0  0  0999 V2000
   45.1847   35.2201   44.0435 C   0  0  0  0  0  0  0  0  0  0  0  0
   46.2232   34.5652   43.3777 C   0  0  0  0  0  0  0  0  0  0  0  0
   46.9096   33.5522   44.0514 C   0  0  0  0  0  0  0  0  0  0  0  0
   46.5291   33.2580   45.3203 N   0  0  0  0  0  0  0  0  0  0  0  0
   45.5159   33.9118   45.9409 C   0  0  0  0  0  0  0  0  0  0  0  0
   44.8319   34.9016   45.3076 N   0  0  0  0  0  0  0  0  0  0  0  0
   46.5521   34.9835   42.0185 C   0  0  1  0  0  0  0  0  0  0  0  0
   48.0496   35.1937   41.9460 C   0  0  0  0  0  0  0  0  0  0  0  0
   44.6289   36.0106   43.5556 H   0  0  0  0  0  0  0  0  0  0  0  0
   47.7149   33.0232   43.5940 H   0  0  0  0  0  0  0  0  0  0  0  0
   45.2654   33.6176   46.9691 H   0  0  0  0  0  0  0  0  0  0  0  0
   46.0986   36.0140   41.8634 H   0  0  0  0  0  0  0  0  0  0  0  0
   48.5733   34.2324   42.0647 H   0  0  0  0  0  0  0  0  0  0  0  0
   48.2695   35.6904   40.9762 H   0  0  0  0  0  0  0  0  0  0  0  0
   48.3437   35.8569   42.7924 H   0  0  0  0  0  0  0  0  0  0  0  0
   46.0982   34.1283   40.9020 C   0  0  2  0  0  0  0  0  0  0  0  0
   44.6640   33.6415   40.9961 C   0  0  1  0  0  0  0  0  0  0  0  0
   44.5768   32.7749   41.6467 H   0  0  0  0  0  0  0  0  0  0  0  0
   44.3503   33.1646   39.5761 C   0  0  2  0  0  0  0  0  0  0  0  0
   44.5439   34.0270   38.9139 H   0  0  0  0  0  0  0  0  0  0  0  0
   45.0979   32.0629   39.3175 O   0  0  0  0  0  0  0  0  0  0  0  0
   46.4632   32.1812   39.3756 C   0  0  1  0  0  0  0  0  0  0  0  0
   46.8874   31.1563   39.4304 H   0  0  0  0  0  0  0  0  0  0  0  0
   46.9780   32.9797   40.5326 C   0  0  2  0  0  0  0  0  0  0  0  0
   47.0939   32.3145   41.3966 H   0  0  0  0  0  0  0  0  0  0  0  0
   46.0864   34.7915   39.9825 H   0  0  0  0  0  0  0  0  0  0  0  0
   43.9956   34.4857   41.2531 H   0  0  0  0  0  0  0  0  0  0  0  0
   43.2932   32.8927   39.4834 H   0  0  0  0  0  0  0  0  0  0  0  0
   46.8120   32.6006   38.4086 H   0  0  0  0  0  0  0  0  0  0  0  0
   47.9744   33.3793   40.2668 H   0  0  0  0  0  0  0  0  0  0  0  0
  1  6  2  0
  2  1  1  0
  2  3  2  0
  3  4  1  0
  4  5  2  0
  6  5  1  0
  7  2  1  0
  8  7  1  0
  1  9  1  0
  3 10  1  0
  5 11  1  0
  7 12  1  6
  8 13  1  0
  8 14  1  0
  8 15  1  0
 16 17  1  0
 17 18  1  1
 17 19  1  0
 19 20  1  6
 19 21  1  0
 21 22  1  0
 22 23  1  1
 22 24  1  0
 24 25  1  1
 24 16  1  0
 16 26  1  6
 17 27  1  0
 19 28  1  0
 22 29  1  0
 24 30  1  0
  7 16  1  0
M  ISO  8   9  14  10  14  11  14  12   8  13   8  14   8  15   8  18  15
M  ISO  3  20  15  23  15  25  15
M  END
>  <DihAtoms>  (1) 
1,6,15,16

>  <DihDeg>  (1) 
60.06273401238607

$$$$
