REMARK  Name = 
REMARK  2 active torsions:
REMARK  status: ('A' for Active; 'I' for Inactive)
REMARK    1  A    between atoms: C_2  and  C_17
REMARK    2  A    between atoms: C_3  and  C_7
REMARK                            x       y       z     vdW  Elec       q    Type
REMARK                         _______ _______ _______ _____ _____    ______ ____
ROOT
ATOM      1  C   UNL     1      44.589  35.906  44.320  0.00  0.00    +0.000 A 
ATOM      2  C   UNL     1      45.331  35.903  43.129  0.00  0.00    +0.000 A 
ATOM      3  C   UNL     1      46.297  34.917  43.019  0.00  0.00    +0.000 A 
ATOM      4  N   UNL     1      46.463  34.022  44.058  0.00  0.00    +0.000 NA
ATOM      5  C   UNL     1      45.734  34.056  45.179  0.00  0.00    +0.000 A 
ATOM      6  N   UNL     1      44.799  35.014  45.285  0.00  0.00    +0.000 NA
ATOM      7  H   UNL     1      43.818  36.583  44.574  0.00  0.00    +0.000 HD
ATOM      8  H   UNL     1      45.987  33.291  45.889  0.00  0.00    +0.000 HD
ENDROOT
BRANCH   2   9
ATOM      9  C   UNL     1      45.020  36.934  42.094  0.00  0.00    +0.000 C 
ATOM     10  C   UNL     1      45.083  38.317  42.650  0.00  0.00    +0.000 C 
ATOM     11  H   UNL     1      45.959  38.879  42.205  0.00  0.00    +0.000 HD
ATOM     12  C   UNL     1      43.877  39.163  42.502  0.00  0.00    +0.000 C 
ATOM     13  H   UNL     1      43.199  39.155  43.380  0.00  0.00    +0.000 HD
ATOM     14  O   UNL     1      43.067  38.827  41.419  0.00  0.00    +0.000 OA
ATOM     15  C   UNL     1      42.605  37.529  41.728  0.00  0.00    +0.000 C 
ATOM     16  H   UNL     1      41.734  37.262  41.130  0.00  0.00    +0.000 HD
ATOM     17  C   UNL     1      43.724  36.608  41.377  0.00  0.00    +0.000 C 
ATOM     18  H   UNL     1      43.859  36.681  40.273  0.00  0.00    +0.000 HD
ENDBRANCH   2   9
BRANCH   3  19
ATOM     19  C   UNL     1      47.082  34.805  41.735  0.00  0.00    +0.000 C 
ATOM     20  C   UNL     1      48.462  35.463  41.887  0.00  0.00    +0.000 C 
ATOM     21  C   UNL     1      48.239  33.928  41.746  0.00  0.00    +0.000 C 
ATOM     22  H   UNL     1      46.638  35.307  40.828  0.00  0.00    +0.000 HD
ATOM     23  H   UNL     1      48.984  35.882  41.028  0.00  0.00    +0.000 HD
ATOM     24  H   UNL     1      48.830  35.744  42.872  0.00  0.00    +0.000 HD
ATOM     25  H   UNL     1      48.531  33.464  40.780  0.00  0.00    +0.000 HD
ATOM     26  H   UNL     1      48.430  33.303  42.625  0.00  0.00    +0.000 HD
ENDBRANCH   3  19
TORSDOF 2
