
 OpenBabel03242518133D

 32 34  0  0  0  0  0  0  0  0999 V2000
   49.0880   33.0350   41.7980 C   0  0  0  0  0  0  0  0  0  0  0  0
   48.9890   32.2690   40.5920 C   0  0  0  0  0  0  0  0  0  0  0  0
   50.1090   31.6910   40.0570 C   0  0  0  0  0  0  0  0  0  0  0  0
   51.3570   31.8970   40.7680 C   0  0  0  0  0  0  0  0  0  0  0  0
   50.9300   32.9200   42.2020 S   0  0  0  0  0  0  0  0  0  0  0  0
   47.9950   32.2080   40.1880 H   0  0  0  0  0  0  0  0  0  0  0  0
   50.0830   31.1180   39.1700 H   0  0  0  0  0  0  0  0  0  0  0  0
   52.6320   31.3970   40.4020 C   0  0  0  0  0  0  0  0  0  0  0  0
   52.7310   31.3480   38.8750 C   0  0  0  0  0  0  0  0  0  0  0  0
   52.8340   32.3770   38.5300 H   0  0  0  0  0  0  0  0  0  0  0  0
   53.8910   30.5210   38.4130 C   0  0  0  0  0  0  0  0  0  0  0  0
   53.7680   30.3740   37.3220 H   0  0  0  0  0  0  0  0  0  0  0  0
   53.8750   29.2590   39.0140 O   0  0  0  0  0  0  0  0  0  0  0  0
   54.1320   29.4530   40.3610 C   0  0  0  0  0  0  0  0  0  0  0  0
   54.3910   28.5240   40.8980 H   0  0  0  0  0  0  0  0  0  0  0  0
   52.9260   30.0770   41.0360 C   0  0  0  0  0  0  0  0  0  0  0  0
   52.0670   29.3970   41.0540 H   0  0  0  0  0  0  0  0  0  0  0  0
   48.1960   33.7600   42.6270 C   0  0  0  0  0  0  0  0  0  0  0  0
   47.3230   33.0940   42.8910 H   0  0  0  0  0  0  0  0  0  0  0  0
   48.6920   33.9560   43.6070 H   0  0  0  0  0  0  0  0  0  0  0  0
   47.6850   35.0710   42.1090 C   0  0  0  0  0  0  0  0  0  0  0  0
   48.1340   35.3340   41.1580 H   0  0  0  0  0  0  0  0  0  0  0  0
   47.9870   35.8620   42.8480 H   0  0  0  0  0  0  0  0  0  0  0  0
   46.2350   35.0440   42.0700 C   0  0  0  0  0  0  0  0  0  0  0  0
   45.4500   35.6230   43.0550 C   0  0  0  0  0  0  0  0  0  0  0  0
   44.0700   35.5700   42.9710 C   0  0  0  0  0  0  0  0  0  0  0  0
   43.5490   34.9330   41.8940 N   0  0  0  0  0  0  0  0  0  0  0  0
   44.3180   34.3740   40.9410 C   0  0  0  0  0  0  0  0  0  0  0  0
   45.6360   34.4300   41.0320 N   0  0  0  0  0  0  0  0  0  0  0  0
   45.9860   36.1020   43.8660 H   0  0  0  0  0  0  0  0  0  0  0  0
   43.5100   36.0310   43.7570 H   0  0  0  0  0  0  0  0  0  0  0  0
   43.8400   33.8800   40.1070 H   0  0  0  0  0  0  0  0  0  0  0  0
  1  5  1  0  0  0  0
  1 18  1  0  0  0  0
  2  1  2  0  0  0  0
  3  2  1  0  0  0  0
  3  4  2  0  0  0  0
  4  5  1  0  0  0  0
  6  2  1  0  0  0  0
  7  3  1  0  0  0  0
  8  4  1  0  0  0  0
  8 16  1  0  0  0  0
  9  8  1  0  0  0  0
 10  9  1  0  0  0  0
 11  9  1  0  0  0  0
 11 13  1  0  0  0  0
 12 11  1  0  0  0  0
 13 14  1  0  0  0  0
 14 15  1  0  0  0  0
 14 16  1  0  0  0  0
 16 17  1  0  0  0  0
 18 19  1  0  0  0  0
 18 20  1  0  0  0  0
 21 18  1  0  0  0  0
 21 23  1  0  0  0  0
 22 21  1  0  0  0  0
 24 21  1  0  0  0  0
 24 25  1  0  0  0  0
 25 30  1  0  0  0  0
 26 25  2  0  0  0  0
 26 31  1  0  0  0  0
 27 26  1  0  0  0  0
 28 29  1  0  0  0  0
 28 27  2  0  0  0  0
 29 24  2  0  0  0  0
 32 28  1  0  0  0  0
M  END
>  <minimizedAffinity>
-4.00929022

>  <minimizedRMSD>
1.3876977

$$$$
