
 OpenBabel03252508393D

 42 45  0  0  0  0  0  0  0  0999 V2000
   45.1800   33.9370   40.6930 C   0  0  0  0  0  0  0  0  0  0  0  0
   44.1250   33.6320   39.8750 C   0  0  0  0  0  0  0  0  0  0  0  0
   44.4180   33.1460   38.6340 C   0  0  0  0  0  0  0  0  0  0  0  0
   45.7020   32.9490   38.1670 C   0  0  0  0  0  0  0  0  0  0  0  0
   46.7310   33.2680   39.0180 C   0  0  0  0  0  0  0  0  0  0  0  0
   46.4980   33.7590   40.2750 C   0  0  0  0  0  0  0  0  0  0  0  0
   43.5950   32.9000   37.9750 H   0  0  0  0  0  0  0  0  0  0  0  0
   45.8600   32.5570   37.1640 H   0  0  0  0  0  0  0  0  0  0  0  0
   47.7360   33.1050   38.6320 H   0  0  0  0  0  0  0  0  0  0  0  0
   40.8520   35.2760   40.7780 C   0  0  0  0  0  0  0  0  0  0  0  0
   42.1460   35.0940   40.2610 C   0  0  0  0  0  0  0  0  0  0  0  0
   42.7930   33.8510   40.3960 C   0  0  0  0  0  0  0  0  0  0  0  0
   42.0880   32.8980   41.0370 N   0  0  0  0  0  0  0  0  0  0  0  0
   40.8610   33.0820   41.5220 C   0  0  0  0  0  0  0  0  0  0  0  0
   40.2450   34.2690   41.3930 N   0  0  0  0  0  0  0  0  0  0  0  0
   40.2440   36.5290   40.6220 N   0  0  0  0  0  0  0  0  0  0  0  0
   42.6650   35.9100   39.7500 H   0  0  0  0  0  0  0  0  0  0  0  0
   40.3130   32.2960   42.0360 H   0  0  0  0  0  0  0  0  0  0  0  0
   39.4250   36.7030   39.9900 H   0  0  0  0  0  0  0  0  0  0  0  0
   40.7950   37.1480   41.2560 H   0  0  0  0  0  0  0  0  0  0  0  0
   47.6610   34.0650   41.0990 C   0  0  0  0  0  0  0  0  0  0  0  0
   48.1190   35.3690   41.0020 C   0  0  0  0  0  0  0  0  0  0  0  0
   49.2170   35.8500   41.7130 C   0  0  0  0  0  0  0  0  0  0  0  0
   49.8700   34.9760   42.5460 C   0  0  0  0  0  0  0  0  0  0  0  0
   49.4160   33.6680   42.6480 C   0  0  0  0  0  0  0  0  0  0  0  0
   48.3300   33.2030   41.9420 C   0  0  0  0  0  0  0  0  0  0  0  0
   47.6480   36.1150   40.3600 H   0  0  0  0  0  0  0  0  0  0  0  0
   49.5540   36.8720   41.6190 H   0  0  0  0  0  0  0  0  0  0  0  0
   50.7320   35.3320   43.1120 H   0  0  0  0  0  0  0  0  0  0  0  0
   49.9310   33.0060   43.2970 H   0  0  0  0  0  0  0  0  0  0  0  0
   47.8100   31.8260   42.0140 C   0  0  0  0  0  3  0  0  0  0  0  0
   46.4070   31.6760   41.4550 C   0  0  0  0  0  3  0  0  0  0  0  0
   46.3220   32.1210   40.4390 H   0  0  0  0  0  0  0  0  0  0  0  0
   46.2250   30.1620   41.2780 C   0  0  0  0  0  3  0  0  0  0  0  0
   46.7880   29.5930   42.0500 H   0  0  0  0  0  0  0  0  0  0  0  0
   46.8390   29.8460   40.0530 O   0  0  0  0  0  0  0  0  0  0  0  0
   48.0690   30.4430   39.9220 C   0  0  0  0  0  3  0  0  0  0  0  0
   48.0530   31.2160   39.1340 H   0  0  0  0  0  0  0  0  0  0  0  0
   48.6850   30.8740   41.2200 C   0  0  0  0  0  3  0  0  0  0  0  0
   49.6590   31.3500   40.9890 H   0  0  0  0  0  0  0  0  0  0  0  0
   44.7840   34.8830   43.0950 N   0  0  0  0  0  0  0  0  0  0  0  0
   44.9610   34.4540   42.0140 C   0  0  0  0  0  0  0  0  0  0  0  0
  1 42  1  0  0  0  0
  2 12  1  0  0  0  0
  2  1  2  0  0  0  0
  3  2  1  0  0  0  0
  4  3  2  0  0  0  0
  4  5  1  0  0  0  0
  5  6  2  0  0  0  0
  6  1  1  0  0  0  0
  6 21  1  0  0  0  0
  7  3  1  0  0  0  0
  8  4  1  0  0  0  0
  9  5  1  0  0  0  0
 10 15  1  0  0  0  0
 11 12  1  0  0  0  0
 11 10  2  0  0  0  0
 12 13  2  0  0  0  0
 13 14  1  0  0  0  0
 14 18  1  0  0  0  0
 15 14  2  0  0  0  0
 16 10  1  0  0  0  0
 16 20  1  0  0  0  0
 17 11  1  0  0  0  0
 19 16  1  0  0  0  0
 21 26  1  0  0  0  0
 22 21  2  0  0  0  0
 22 23  1  0  0  0  0
 23 24  2  0  0  0  0
 24 25  1  0  0  0  0
 24 29  1  0  0  0  0
 25 30  1  0  0  0  0
 26 31  1  0  0  0  0
 26 25  2  0  0  0  0
 27 22  1  0  0  0  0
 28 23  1  0  0  0  0
 32 31  1  0  0  0  0
 33 32  1  0  0  0  0
 34 32  1  0  0  0  0
 34 35  1  0  0  0  0
 36 34  1  0  0  0  0
 37 36  1  0  0  0  0
 37 39  1  0  0  0  0
 38 37  1  0  0  0  0
 39 31  1  0  0  0  0
 40 39  1  0  0  0  0
 42 41  3  0  0  0  0
M  END
>  <minimizedAffinity>
-5.92875957

>  <minimizedRMSD>
0.477496415

$$$$
