
 OpenBabel03252506473D

 43 46  0  0  1  0  0  0  0  0999 V2000
   49.4300   33.3790   41.3870 N   0  0  1  0  0  0  0  0  0  0  0  0
   50.6860   33.0780   42.0590 C   0  0  0  0  0  0  0  0  0  0  0  0
   51.2680   31.7560   41.6570 C   0  0  0  0  0  0  0  0  0  0  0  0
   50.3630   30.6570   42.1930 C   0  0  0  0  0  0  0  0  0  0  0  0
   48.9150   31.0720   42.0840 C   0  0  0  0  0  0  0  0  0  0  0  0
   48.7800   32.1590   41.0460 C   0  0  2  0  0  0  0  0  0  0  0  0
   50.5870   33.0710   43.1590 H   0  0  0  0  0  0  0  0  0  0  0  0
   51.4060   33.8860   41.7990 H   0  0  0  0  0  0  0  0  0  0  0  0
   52.2530   31.6840   42.1540 H   0  0  0  0  0  0  0  0  0  0  0  0
   51.4140   31.6650   40.5550 H   0  0  0  0  0  0  0  0  0  0  0  0
   50.6510   30.3430   43.2080 H   0  0  0  0  0  0  0  0  0  0  0  0
   50.5330   29.7840   41.5300 H   0  0  0  0  0  0  0  0  0  0  0  0
   48.2460   30.2480   41.8710 H   0  0  0  0  0  0  0  0  0  0  0  0
   48.6420   31.5240   43.0720 H   0  0  0  0  0  0  0  0  0  0  0  0
   47.6850   32.3930   40.9900 H   0  0  0  0  0  0  0  0  0  0  0  0
   47.3030   34.7000   41.9770 C   0  0  1  0  0  0  0  0  0  0  0  0
   48.4160   35.6120   41.7380 C   0  0  0  0  0  0  0  0  0  0  0  0
   48.7160   34.2500   42.2670 C   0  0  2  0  0  0  0  0  0  0  0  0
   46.8550   34.1100   41.1330 H   0  0  0  0  0  0  0  0  0  0  0  0
   48.6960   35.8480   40.6860 H   0  0  0  0  0  0  0  0  0  0  0  0
   48.5450   36.4860   42.4210 H   0  0  0  0  0  0  0  0  0  0  0  0
   48.9750   34.1840   43.3430 H   0  0  0  0  0  0  0  0  0  0  0  0
   45.5470   36.0540   43.1450 C   0  0  0  0  0  0  0  0  0  0  0  0
   46.3730   34.9050   43.0940 C   0  0  0  0  0  0  0  0  0  0  0  0
   46.2600   33.9910   44.1400 C   0  0  0  0  0  0  0  0  0  0  0  0
   45.3750   34.2530   45.1310 N   0  0  0  0  0  0  0  0  0  0  0  0
   44.6030   35.3460   45.1600 C   0  0  0  0  0  0  0  0  0  0  0  0
   44.6790   36.2640   44.1630 N   0  0  0  0  0  0  0  0  0  0  0  0
   45.6100   36.7950   42.3370 H   0  0  0  0  0  0  0  0  0  0  0  0
   46.8770   33.0920   44.1410 H   0  0  0  0  0  0  0  0  0  0  0  0
   43.8950   35.5610   45.9490 H   0  0  0  0  0  0  0  0  0  0  0  0
   49.1510   31.6640   39.7540 N   0  0  0  0  0  0  0  0  0  0  0  0
   50.0260   31.1080   39.8380 H   0  0  0  0  0  0  0  0  0  0  0  0
   49.0700   32.5530   38.6800 C   0  0  0  0  0  3  0  0  0  0  0  0
   47.5930   32.8750   38.4470 C   0  0  0  0  0  3  0  0  0  0  0  0
   47.4820   33.8150   37.8950 H   0  0  0  0  0  0  0  0  0  0  0  0
   46.9480   31.7810   37.5990 C   0  0  0  0  0  3  0  0  0  0  0  0
   45.9160   32.1080   37.3910 H   0  0  0  0  0  0  0  0  0  0  0  0
   47.6040   31.6000   36.3840 O   0  0  0  0  0  0  0  0  0  0  0  0
   48.8570   31.0420   36.6830 C   0  0  0  0  0  3  0  0  0  0  0  0
   48.7840   30.1290   37.3010 H   0  0  0  0  0  0  0  0  0  0  0  0
   49.6480   32.1460   37.3730 C   0  0  0  0  0  3  0  0  0  0  0  0
   49.5300   33.0370   36.6990 H   0  0  0  0  0  0  0  0  0  0  0  0
  1  2  1  1  0  0  0
  1 18  1  0  0  0  0
  2  7  1  0  0  0  0
  3  2  1  0  0  0  0
  3  9  1  0  0  0  0
  3  4  1  0  0  0  0
  4 11  1  0  0  0  0
  5  4  1  0  0  0  0
  5 14  1  0  0  0  0
  6 15  1  6  0  0  0
  6  1  1  0  0  0  0
  6  5  1  0  0  0  0
  8  2  1  0  0  0  0
 10  3  1  0  0  0  0
 12  4  1  0  0  0  0
 13  5  1  0  0  0  0
 16 19  1  6  0  0  0
 16 18  1  0  0  0  0
 16 24  1  0  0  0  0
 17 16  1  0  0  0  0
 17 18  1  0  0  0  0
 17 21  1  0  0  0  0
 18 22  1  1  0  0  0
 20 17  1  0  0  0  0
 23 28  1  0  0  0  0
 24 23  2  0  0  0  0
 24 25  1  0  0  0  0
 25 30  1  0  0  0  0
 25 26  2  0  0  0  0
 26 27  1  0  0  0  0
 27 31  1  0  0  0  0
 28 27  2  0  0  0  0
 29 23  1  0  0  0  0
 32 33  1  0  0  0  0
 32  6  1  0  0  0  0
 34 32  1  0  0  0  0
 35 34  1  0  0  0  0
 36 35  1  0  0  0  0
 37 35  1  0  0  0  0
 38 37  1  0  0  0  0
 39 40  1  0  0  0  0
 39 37  1  0  0  0  0
 40 41  1  0  0  0  0
 40 42  1  0  0  0  0
 42 34  1  0  0  0  0
 43 42  1  0  0  0  0
M  END
>  <minimizedAffinity>
-4.97998619

>  <minimizedRMSD>
2.50298238

$$$$
