
 OpenBabel03252509043D

 49 51  0  0  1  0  0  0  0  0999 V2000
   46.7920   34.3620   43.6430 N   0  0  0  0  0  0  0  0  0  0  0  0
   46.3810   35.2880   42.6610 C   0  0  0  0  0  0  0  0  0  0  0  0
   44.8800   35.4590   42.5260 C   0  0  0  0  0  0  0  0  0  0  0  0
   44.1280   35.3030   43.8190 C   0  0  0  0  0  0  0  0  0  0  0  0
   45.0610   35.1060   44.9920 C   0  0  0  0  0  0  0  0  0  0  0  0
   45.9120   33.8460   44.5730 C   0  0  2  0  0  0  0  0  0  0  0  0
   46.7560   35.1330   41.6420 H   0  0  0  0  0  0  0  0  0  0  0  0
   46.7750   36.2960   42.9660 H   0  0  0  0  0  0  0  0  0  0  0  0
   44.5250   34.7650   41.7400 H   0  0  0  0  0  0  0  0  0  0  0  0
   44.6780   36.4890   42.1540 H   0  0  0  0  0  0  0  0  0  0  0  0
   43.4750   36.1810   44.0390 H   0  0  0  0  0  0  0  0  0  0  0  0
   43.4630   34.4310   43.7830 H   0  0  0  0  0  0  0  0  0  0  0  0
   44.4730   34.8020   45.8640 H   0  0  0  0  0  0  0  0  0  0  0  0
   45.7440   35.9620   45.1650 H   0  0  0  0  0  0  0  0  0  0  0  0
   45.1430   33.1250   44.2300 H   0  0  0  0  0  0  0  0  0  0  0  0
   47.9190   33.5590   43.2530 C   0  0  0  0  0  0  0  0  0  0  0  0
   48.4150   33.1880   44.1760 H   0  0  0  0  0  0  0  0  0  0  0  0
   48.5970   34.2090   42.6720 H   0  0  0  0  0  0  0  0  0  0  0  0
   47.4480   32.3970   42.4630 C   0  0  0  0  0  0  0  0  0  0  0  0
   47.5850   31.4170   42.9540 H   0  0  0  0  0  0  0  0  0  0  0  0
   46.3450   32.4630   42.2620 H   0  0  0  0  0  0  0  0  0  0  0  0
   49.8350   31.6530   39.6610 C   0  0  0  0  0  0  0  0  0  0  0  0
   49.2150   31.6660   40.9240 C   0  0  0  0  0  0  0  0  0  0  0  0
   48.0820   32.4010   41.1230 C   0  0  0  0  0  0  0  0  0  0  0  0
   47.6040   33.0900   40.0820 N   0  0  0  0  0  0  0  0  0  0  0  0
   48.1760   33.0910   38.8750 C   0  0  0  0  0  0  0  0  0  0  0  0
   49.2930   32.3790   38.6420 N   0  0  0  0  0  0  0  0  0  0  0  0
   50.7430   31.0690   39.4900 H   0  0  0  0  0  0  0  0  0  0  0  0
   49.6800   31.0730   41.7090 H   0  0  0  0  0  0  0  0  0  0  0  0
   47.6560   33.7070   38.1360 H   0  0  0  0  0  0  0  0  0  0  0  0
   46.5330   33.5130   45.7570 O   0  0  0  0  0  0  0  0  0  0  0  0
   45.5700   31.1250   45.1260 O   0  0  0  0  0  0  0  0  0  0  0  0
   46.1770   31.9420   46.2650 P   0  0  2  0  0  0  0  0  0  0  0  0
   44.9550   32.0980   47.4370 O   0  0  0  0  0  0  0  0  0  0  0  0
   45.1510   31.5960   48.2630 H   0  0  0  0  0  0  0  0  0  0  0  0
   47.4950   31.1910   46.9690 O   0  0  0  0  0  0  0  0  0  0  0  0
   47.5590   29.8890   46.4680 C   0  0  0  0  0  0  0  0  0  0  0  0
   46.5880   29.3890   46.7230 H   0  0  0  0  0  0  0  0  0  0  0  0
   47.7420   29.8670   45.3920 H   0  0  0  0  0  0  0  0  0  0  0  0
   48.6500   29.1900   47.2530 C   0  0  0  0  0  3  0  0  0  0  0  0
   49.9670   29.1410   46.5150 C   0  0  0  0  0  3  0  0  0  0  0  0
   49.8780   28.4510   45.6520 H   0  0  0  0  0  0  0  0  0  0  0  0
   50.9490   28.4870   47.4910 C   0  0  0  0  0  3  0  0  0  0  0  0
   51.9540   28.3630   47.0410 H   0  0  0  0  0  0  0  0  0  0  0  0
   50.5010   27.2300   47.8250 O   0  0  0  0  0  0  0  0  0  0  0  0
   49.2890   27.1920   48.4780 C   0  0  0  0  0  3  0  0  0  0  0  0
   49.0620   26.1280   48.6740 H   0  0  0  0  0  0  0  0  0  0  0  0
   48.2000   27.7910   47.5960 C   0  0  0  0  0  3  0  0  0  0  0  0
   48.1490   27.2150   46.6550 H   0  0  0  0  0  0  0  0  0  0  0  0
  1  6  1  0  0  0  0
  2  8  1  0  0  0  0
  2  1  1  0  0  0  0
  3  2  1  0  0  0  0
  3  4  1  0  0  0  0
  4 11  1  0  0  0  0
  4  5  1  0  0  0  0
  5 14  1  0  0  0  0
  5 13  1  0  0  0  0
  6 15  1  6  0  0  0
  6  5  1  0  0  0  0
  6 31  1  0  0  0  0
  7  2  1  0  0  0  0
  9  3  1  0  0  0  0
 10  3  1  0  0  0  0
 12  4  1  0  0  0  0
 16  1  1  0  0  0  0
 16 17  1  0  0  0  0
 18 16  1  0  0  0  0
 19 20  1  0  0  0  0
 19 16  1  0  0  0  0
 21 19  1  0  0  0  0
 22 23  1  0  0  0  0
 23 24  2  0  0  0  0
 23 29  1  0  0  0  0
 24 19  1  0  0  0  0
 25 24  1  0  0  0  0
 26 25  2  0  0  0  0
 27 26  1  0  0  0  0
 27 22  2  0  0  0  0
 28 22  1  0  0  0  0
 30 26  1  0  0  0  0
 31 33  1  0  0  0  0
 33 32  2  6  0  0  0
 33 36  1  0  0  0  0
 33 34  1  0  0  0  0
 34 35  1  0  0  0  0
 37 38  1  0  0  0  0
 37 36  1  0  0  0  0
 37 40  1  0  0  0  0
 39 37  1  0  0  0  0
 40 48  1  0  0  0  0
 41 40  1  0  0  0  0
 41 43  1  0  0  0  0
 42 41  1  0  0  0  0
 43 45  1  0  0  0  0
 44 43  1  0  0  0  0
 45 46  1  0  0  0  0
 46 47  1  0  0  0  0
 48 46  1  0  0  0  0
 49 48  1  0  0  0  0
M  END
>  <minimizedAffinity>
-4.19642019

>  <minimizedRMSD>
1.50144958

$$$$
