
 OpenBabel03252509333D

 41 43  0  0  1  0  0  0  0  0999 V2000
   45.5160   32.4170   41.1100 C   0  0  1  0  0  0  0  0  0  0  0  0
   44.1420   32.7710   40.6100 C   0  0  0  0  0  0  0  0  0  0  0  0
   43.8890   31.6910   39.5880 C   0  0  0  0  0  0  0  0  0  0  0  0
   45.2440   31.2310   39.1150 C   0  0  0  0  0  0  0  0  0  0  0  0
   46.2460   32.1520   39.7980 C   0  0  1  0  0  0  0  0  0  0  0  0
   45.4810   31.4480   41.6430 H   0  0  0  0  0  0  0  0  0  0  0  0
   43.3690   32.6380   41.4220 H   0  0  0  0  0  0  0  0  0  0  0  0
   44.0500   33.7900   40.2460 H   0  0  0  0  0  0  0  0  0  0  0  0
   43.3120   30.8290   40.0200 H   0  0  0  0  0  0  0  0  0  0  0  0
   43.2500   32.1030   38.7970 H   0  0  0  0  0  0  0  0  0  0  0  0
   45.2420   31.3590   38.0180 H   0  0  0  0  0  0  0  0  0  0  0  0
   45.4450   30.2010   39.4500 H   0  0  0  0  0  0  0  0  0  0  0  0
   47.2110   31.6590   39.9640 H   0  0  0  0  0  0  0  0  0  0  0  0
   46.4790   33.4070   39.0220 C   0  0  0  0  0  3  0  0  0  0  0  0
   47.9140   33.8460   39.2290 C   0  0  0  0  0  3  0  0  0  0  0  0
   48.0200   34.6430   40.0020 H   0  0  0  0  0  0  0  0  0  0  0  0
   48.4460   34.5130   37.9530 C   0  0  0  0  0  3  0  0  0  0  0  0
   49.5140   34.7640   38.1930 H   0  0  0  0  0  0  0  0  0  0  0  0
   48.5000   33.6230   36.9000 O   0  0  0  0  0  0  0  0  0  0  0  0
   47.5730   32.6030   36.9510 C   0  0  0  0  0  3  0  0  0  0  0  0
   47.2910   32.2860   35.9290 H   0  0  0  0  0  0  0  0  0  0  0  0
   46.3120   33.1930   37.5650 C   0  0  0  0  0  3  0  0  0  0  0  0
   45.4680   32.5880   37.2530 H   0  0  0  0  0  0  0  0  0  0  0  0
   46.1330   33.3980   41.8460 O   0  0  0  0  0  0  0  0  0  0  0  0
   44.7390   34.6460   43.6470 O   0  0  0  0  0  0  0  0  0  0  0  0
   45.5400   33.3990   43.4200 P   0  0  1  0  0  0  0  0  0  0  0  0
   44.6660   32.0070   43.7530 O   0  0  0  0  0  0  0  0  0  0  0  0
   44.7820   31.3530   43.0220 H   0  0  0  0  0  0  0  0  0  0  0  0
   46.8730   33.3750   44.4720 O   0  0  0  0  0  0  0  0  0  0  0  0
   47.1080   32.0810   44.8300 C   0  0  0  0  0  0  0  0  0  0  0  0
   48.2310   31.9880   44.9180 H   0  0  0  0  0  0  0  0  0  0  0  0
   46.8090   31.2860   44.1590 H   0  0  0  0  0  0  0  0  0  0  0  0
   46.5150   32.2280   48.5010 C   0  0  0  0  0  0  0  0  0  0  0  0
   47.0150   32.5380   47.2320 C   0  0  0  0  0  0  0  0  0  0  0  0
   46.5900   31.7640   46.1670 C   0  0  0  0  0  0  0  0  0  0  0  0
   45.7090   30.7420   46.4060 N   0  0  0  0  0  0  0  0  0  0  0  0
   45.2490   30.4740   47.6490 C   0  0  0  0  0  0  0  0  0  0  0  0
   45.6520   31.2120   48.6740 N   0  0  0  0  0  0  0  0  0  0  0  0
   46.8930   32.8800   49.2920 H   0  0  0  0  0  0  0  0  0  0  0  0
   47.7180   33.3580   47.0550 H   0  0  0  0  0  0  0  0  0  0  0  0
   44.5560   29.6560   47.7810 H   0  0  0  0  0  0  0  0  0  0  0  0
  1  6  1  1  0  0  0
  1 24  1  0  0  0  0
  2  1  1  0  0  0  0
  2  7  1  0  0  0  0
  3  9  1  0  0  0  0
  3  2  1  0  0  0  0
  4 12  1  0  0  0  0
  4  3  1  0  0  0  0
  4  5  1  0  0  0  0
  5 13  1  1  0  0  0
  5  1  1  0  0  0  0
  8  2  1  0  0  0  0
 10  3  1  0  0  0  0
 11  4  1  0  0  0  0
 14 15  1  0  0  0  0
 14  5  1  0  0  0  0
 15 16  1  0  0  0  0
 17 18  1  0  0  0  0
 17 15  1  0  0  0  0
 19 20  1  0  0  0  0
 19 17  1  0  0  0  0
 20 22  1  0  0  0  0
 21 20  1  0  0  0  0
 22 14  1  0  0  0  0
 23 22  1  0  0  0  0
 24 26  1  0  0  0  0
 26 25  2  1  0  0  0
 26 27  1  0  0  0  0
 26 29  1  0  0  0  0
 28 27  1  0  0  0  0
 29 30  1  0  0  0  0
 30 31  1  0  0  0  0
 30 35  1  0  0  0  0
 32 30  1  0  0  0  0
 33 38  1  0  0  0  0
 33 39  1  0  0  0  0
 34 33  2  0  0  0  0
 35 36  2  0  0  0  0
 35 34  1  0  0  0  0
 36 37  1  0  0  0  0
 37 41  1  0  0  0  0
 37 38  2  0  0  0  0
 40 34  1  0  0  0  0
M  END
>  <minimizedAffinity>
-4.21154737

>  <minimizedRMSD>
3.32907057

$$$$
