
 OpenBabel03252507203D

 45 48  0  0  1  0  0  0  0  0999 V2000
   48.3670   30.3810   43.7450 C   0  0  0  0  0  0  0  0  0  0  0  0
   49.1410   30.0070   44.6970 O   0  0  0  0  0  0  0  0  0  0  0  0
   48.0510   29.5250   42.6490 N   0  0  0  0  0  0  0  0  0  0  0  0
   46.7520   29.2570   42.0160 C   0  0  0  0  0  0  0  0  0  0  0  0
   46.8660   29.4800   40.5110 C   0  0  0  0  0  0  0  0  0  0  0  0
   47.8160   28.4460   39.9340 C   0  0  0  0  0  0  0  0  0  0  0  0
   48.5890   27.8110   41.0290 C   0  0  0  0  0  0  0  0  0  0  0  0
   49.1190   28.7910   42.0440 C   0  0  1  0  0  0  0  0  0  0  0  0
   46.1070   30.1200   42.3540 H   0  0  0  0  0  0  0  0  0  0  0  0
   46.3250   28.3030   42.2990 H   0  0  0  0  0  0  0  0  0  0  0  0
   47.2790   30.5100   40.3970 H   0  0  0  0  0  0  0  0  0  0  0  0
   45.8410   29.4110   40.1100 H   0  0  0  0  0  0  0  0  0  0  0  0
   48.3650   28.8090   39.0710 H   0  0  0  0  0  0  0  0  0  0  0  0
   47.1240   27.6540   39.5240 H   0  0  0  0  0  0  0  0  0  0  0  0
   49.3710   27.1210   40.7200 H   0  0  0  0  0  0  0  0  0  0  0  0
   47.8570   27.1720   41.6100 H   0  0  0  0  0  0  0  0  0  0  0  0
   49.5340   28.1510   42.8550 H   0  0  0  0  0  0  0  0  0  0  0  0
   50.2660   29.5870   41.5090 C   0  0  0  0  0  3  0  0  0  0  0  0
   49.9440   30.9380   40.9410 C   0  0  0  0  0  3  0  0  0  0  0  0
   49.2970   31.4420   41.7080 H   0  0  0  0  0  0  0  0  0  0  0  0
   51.1980   31.8260   40.9220 C   0  0  0  0  0  3  0  0  0  0  0  0
   51.3700   32.2620   41.9050 H   0  0  0  0  0  0  0  0  0  0  0  0
   52.2570   31.0430   40.5200 O   0  0  0  0  0  0  0  0  0  0  0  0
   52.6390   30.1370   41.5060 C   0  0  0  0  0  3  0  0  0  0  0  0
   52.9300   29.1970   40.9630 H   0  0  0  0  0  0  0  0  0  0  0  0
   51.4510   29.7290   42.3960 C   0  0  0  0  0  3  0  0  0  0  0  0
   51.3730   30.5380   43.1450 H   0  0  0  0  0  0  0  0  0  0  0  0
   48.2500   32.6440   42.8610 C   0  0  0  0  0  0  0  0  0  0  0  0
   47.8030   31.7000   43.7890 C   0  0  0  0  0  0  0  0  0  0  0  0
   46.8490   32.0570   44.7140 C   0  0  0  0  0  0  0  0  0  0  0  0
   46.3760   33.3150   44.6930 N   0  0  0  0  0  0  0  0  0  0  0  0
   46.8050   34.2420   43.7930 C   0  0  0  0  0  0  0  0  0  0  0  0
   47.7300   33.8860   42.9000 N   0  0  0  0  0  0  0  0  0  0  0  0
   48.9900   32.4620   42.0960 H   0  0  0  0  0  0  0  0  0  0  0  0
   46.4010   35.2640   43.7980 H   0  0  0  0  0  0  0  0  0  0  0  0
   46.3940   31.0680   45.6690 C   0  0  0  0  0  0  0  0  0  0  0  0
   45.4320   30.1550   45.3130 C   0  0  0  0  0  0  0  0  0  0  0  0
   45.0170   29.2240   46.2390 C   0  0  0  0  0  0  0  0  0  0  0  0
   45.5230   29.1560   47.5230 C   0  0  0  0  0  0  0  0  0  0  0  0
   46.4850   30.0980   47.8210 C   0  0  0  0  0  0  0  0  0  0  0  0
   46.8760   30.9930   46.9140 N   0  0  0  0  0  0  0  0  0  0  0  0
   44.9530   30.0870   44.3720 H   0  0  0  0  0  0  0  0  0  0  0  0
   44.2520   28.4730   46.0020 H   0  0  0  0  0  0  0  0  0  0  0  0
   45.2160   28.4350   48.2680 H   0  0  0  0  0  0  0  0  0  0  0  0
   46.9490   30.1290   48.8140 H   0  0  0  0  0  0  0  0  0  0  0  0
  1 29  1  0  0  0  0
  1  2  2  0  0  0  0
  3  1  1  0  0  0  0
  4 10  1  0  0  0  0
  4  9  1  0  0  0  0
  4  3  1  0  0  0  0
  5  4  1  0  0  0  0
  6  5  1  0  0  0  0
  6  7  1  0  0  0  0
  7 16  1  0  0  0  0
  7  8  1  0  0  0  0
  8  3  1  0  0  0  0
  8 17  1  1  0  0  0
 11  5  1  0  0  0  0
 12  5  1  0  0  0  0
 13  6  1  0  0  0  0
 14  6  1  0  0  0  0
 15  7  1  0  0  0  0
 18  8  1  0  0  0  0
 18 26  1  0  0  0  0
 19 18  1  0  0  0  0
 19 20  1  0  0  0  0
 21 19  1  0  0  0  0
 21 22  1  0  0  0  0
 23 21  1  0  0  0  0
 23 24  1  0  0  0  0
 24 26  1  0  0  0  0
 25 24  1  0  0  0  0
 26 27  1  0  0  0  0
 28 33  2  0  0  0  0
 28 29  1  0  0  0  0
 29 30  2  0  0  0  0
 30 36  1  0  0  0  0
 31 30  1  0  0  0  0
 32 35  1  0  0  0  0
 32 31  2  0  0  0  0
 33 32  1  0  0  0  0
 34 28  1  0  0  0  0
 36 41  1  0  0  0  0
 37 36  2  0  0  0  0
 37 38  1  0  0  0  0
 38 39  2  0  0  0  0
 39 40  1  0  0  0  0
 39 44  1  0  0  0  0
 40 45  1  0  0  0  0
 41 40  2  0  0  0  0
 42 37  1  0  0  0  0
 43 38  1  0  0  0  0
M  END
>  <minimizedAffinity>
-3.42403269

>  <minimizedRMSD>
4.24674273

$$$$
