
 OpenBabel03252500473D

 27 29  0  0  0  0  0  0  0  0999 V2000
   44.8210   35.0180   44.7110 C   0  0  0  0  0  0  0  0  0  0  0  0
   44.9830   34.3520   43.4710 C   0  0  0  0  0  0  0  0  0  0  0  0
   45.5090   33.0680   43.4780 C   0  0  0  0  0  0  0  0  0  0  0  0
   45.8390   32.5250   44.6850 N   0  0  0  0  0  0  0  0  0  0  0  0
   45.6750   33.1780   45.8380 C   0  0  0  0  0  0  0  0  0  0  0  0
   45.1720   34.4160   45.8820 N   0  0  0  0  0  0  0  0  0  0  0  0
   44.4220   36.0190   44.8240 H   0  0  0  0  0  0  0  0  0  0  0  0
   45.6220   32.5860   42.5430 H   0  0  0  0  0  0  0  0  0  0  0  0
   44.5620   35.1110   42.2430 C   0  0  0  0  0  0  0  0  0  0  0  0
   43.0560   35.1720   42.1390 C   0  0  0  0  0  0  0  0  0  0  0  0
   42.7560   36.0080   42.8400 H   0  0  0  0  0  0  0  0  0  0  0  0
   42.5860   35.6100   40.7900 C   0  0  0  0  0  0  0  0  0  0  0  0
   41.4930   35.4210   40.7360 H   0  0  0  0  0  0  0  0  0  0  0  0
   43.1550   34.8880   39.7480 O   0  0  0  0  0  0  0  0  0  0  0  0
   43.9550   33.8380   40.2600 C   0  0  0  0  0  0  0  0  0  0  0  0
   44.3540   33.2520   39.4060 H   0  0  0  0  0  0  0  0  0  0  0  0
   45.0930   34.4930   40.9910 C   0  0  0  0  0  0  0  0  0  0  0  0
   45.9460   33.8060   41.1620 H   0  0  0  0  0  0  0  0  0  0  0  0
   46.0480   32.5420   47.0980 C   0  0  0  0  0  0  0  0  0  0  0  0
   47.3490   32.2510   47.4040 C   0  0  0  0  0  0  0  0  0  0  0  0
   47.7490   31.6520   48.5790 C   0  0  0  0  0  0  0  0  0  0  0  0
   46.7610   31.3480   49.4580 N   0  0  0  0  0  0  0  0  0  0  0  0
   45.4720   31.6330   49.1640 C   0  0  0  0  0  0  0  0  0  0  0  0
   45.0600   32.2270   48.0020 N   0  0  0  0  0  0  0  0  0  0  0  0
   48.1230   32.5000   46.6910 H   0  0  0  0  0  0  0  0  0  0  0  0
   48.7730   31.4350   48.7950 H   0  0  0  0  0  0  0  0  0  0  0  0
   44.7450   31.3600   49.9170 H   0  0  0  0  0  0  0  0  0  0  0  0
  1  7  1  0  0  0  0
  1  6  1  0  0  0  0
  2  3  1  0  0  0  0
  2  1  2  0  0  0  0
  3  4  2  0  0  0  0
  4  5  1  0  0  0  0
  5  6  2  0  0  0  0
  5 19  1  0  0  0  0
  8  3  1  0  0  0  0
  9  2  1  0  0  0  0
 10  9  1  0  0  0  0
 10 11  1  0  0  0  0
 12 10  1  0  0  0  0
 13 12  1  0  0  0  0
 14 15  1  0  0  0  0
 14 12  1  0  0  0  0
 15 17  1  0  0  0  0
 16 15  1  0  0  0  0
 17 18  1  0  0  0  0
 17  9  1  0  0  0  0
 19 20  2  0  0  0  0
 19 24  1  0  0  0  0
 20 21  1  0  0  0  0
 21 26  1  0  0  0  0
 21 22  2  0  0  0  0
 23 22  1  0  0  0  0
 23 27  1  0  0  0  0
 24 23  2  0  0  0  0
 25 20  1  0  0  0  0
M  END
>  <minimizedAffinity>
-5.05408239

>  <minimizedRMSD>
1.91930258

$$$$
