
 OpenBabel03252505133D

 45 48  0  0  1  0  0  0  0  0999 V2000
   37.3870   32.5320   39.9250 C   0  0  0  0  0  0  0  0  0  0  0  0
   37.0220   31.3600   40.6240 C   0  0  0  0  0  0  0  0  0  0  0  0
   38.0280   30.3530   40.8100 C   0  0  0  0  0  0  0  0  0  0  0  0
   39.2630   30.5750   40.3100 N   0  0  0  0  0  0  0  0  0  0  0  0
   39.5720   31.7020   39.6510 C   0  0  0  0  0  0  0  0  0  0  0  0
   38.6410   32.6860   39.4540 N   0  0  0  0  0  0  0  0  0  0  0  0
   36.6370   33.3020   39.7760 H   0  0  0  0  0  0  0  0  0  0  0  0
   36.0200   31.2190   41.0090 H   0  0  0  0  0  0  0  0  0  0  0  0
   40.9520   31.8870   39.1220 C   0  0  2  0  0  0  0  0  0  0  0  0
   41.7440   32.4520   40.2810 C   0  0  0  0  0  0  0  0  0  0  0  0
   42.0620   33.8840   40.2190 C   0  0  0  0  0  0  0  0  0  0  0  0
   42.7730   34.0960   38.8890 C   0  0  0  0  0  0  0  0  0  0  0  0
   41.8920   33.8380   37.7540 C   0  0  0  0  0  0  0  0  0  0  0  0
   40.9720   32.6860   37.9290 C   0  0  0  0  0  0  0  0  0  0  0  0
   41.3100   30.8560   38.8950 H   0  0  0  0  0  0  0  0  0  0  0  0
   42.7000   31.8890   40.3290 H   0  0  0  0  0  0  0  0  0  0  0  0
   41.2630   32.2560   41.2720 H   0  0  0  0  0  0  0  0  0  0  0  0
   42.8230   34.0980   40.9910 H   0  0  0  0  0  0  0  0  0  0  0  0
   41.2060   34.5600   40.3410 H   0  0  0  0  0  0  0  0  0  0  0  0
   42.9710   35.1940   38.8590 H   0  0  0  0  0  0  0  0  0  0  0  0
   43.6920   33.5060   38.9000 H   0  0  0  0  0  0  0  0  0  0  0  0
   41.7740   34.3180   36.8120 H   0  0  0  0  0  0  0  0  0  0  0  0
   40.0630   32.3360   36.8900 N   0  0  0  0  0  0  0  0  0  0  0  0
   40.1960   31.3930   36.4560 H   0  0  0  0  0  0  0  0  0  0  0  0
   39.4130   33.1580   36.7790 H   0  0  0  0  0  0  0  0  0  0  0  0
   37.6760   29.1440   41.5290 C   0  0  0  0  0  0  0  0  0  0  0  0
   37.5460   29.2170   42.8900 C   0  0  0  0  0  0  0  0  0  0  0  0
   37.2030   28.0070   43.5250 C   0  0  0  0  0  0  0  0  0  0  0  0
   37.0380   26.8970   42.7280 C   0  0  0  0  0  0  0  0  0  0  0  0
   37.1680   26.8260   41.3830 C   0  0  0  0  0  0  0  0  0  0  0  0
   37.5010   28.0160   40.7950 N   0  0  0  0  0  0  0  0  0  0  0  0
   37.7030   30.1520   43.3900 H   0  0  0  0  0  0  0  0  0  0  0  0
   37.0960   28.0490   44.5910 H   0  0  0  0  0  0  0  0  0  0  0  0
   36.7790   26.0400   43.3290 H   0  0  0  0  0  0  0  0  0  0  0  0
   36.9900   25.6860   40.6420 O   0  0  0  0  0  0  0  0  0  0  0  0
   36.6940   24.4110   41.0860 C   0  0  0  0  0  3  0  0  0  0  0  0
   38.0000   23.6950   41.3590 C   0  0  0  0  0  3  0  0  0  0  0  0
   37.8720   23.0000   42.2020 H   0  0  0  0  0  0  0  0  0  0  0  0
   38.5320   23.0520   40.1100 C   0  0  0  0  0  3  0  0  0  0  0  0
   39.4640   22.5270   40.3140 H   0  0  0  0  0  0  0  0  0  0  0  0
   37.5600   22.1930   39.5660 O   0  0  0  0  0  0  0  0  0  0  0  0
   36.6130   23.0720   38.9930 C   0  0  0  0  0  3  0  0  0  0  0  0
   37.1860   23.8690   38.4940 H   0  0  0  0  0  0  0  0  0  0  0  0
   35.8190   23.6270   40.1310 C   0  0  0  0  0  3  0  0  0  0  0  0
   35.0830   24.3350   39.6980 H   0  0  0  0  0  0  0  0  0  0  0  0
  1  2  1  0  0  0  0
  2  3  2  0  0  0  0
  2  8  1  0  0  0  0
  3 26  1  0  0  0  0
  4  3  1  0  0  0  0
  5  4  2  0  0  0  0
  6  5  1  0  0  0  0
  6  1  2  0  0  0  0
  7  1  1  0  0  0  0
  9 15  1  6  0  0  0
  9  5  1  0  0  0  0
  9 10  1  0  0  0  0
 10 16  1  0  0  0  0
 10 17  1  0  0  0  0
 11 10  1  0  0  0  0
 11 19  1  0  0  0  0
 11 18  1  0  0  0  0
 12 21  1  0  0  0  0
 12 11  1  0  0  0  0
 13 14  2  0  0  0  0
 13 12  1  0  0  0  0
 14  9  1  0  0  0  0
 20 12  1  0  0  0  0
 22 13  1  0  0  0  0
 23 14  1  0  0  0  0
 24 23  1  0  0  0  0
 25 23  1  0  0  0  0
 26 27  1  0  0  0  0
 27 32  1  0  0  0  0
 27 28  2  0  0  0  0
 28 33  1  0  0  0  0
 29 34  1  0  0  0  0
 29 28  1  0  0  0  0
 30 29  2  0  0  0  0
 31 30  1  0  0  0  0
 31 26  2  0  0  0  0
 35 36  1  0  0  0  0
 35 30  1  0  0  0  0
 36 37  1  0  0  0  0
 37 38  1  0  0  0  0
 39 40  1  0  0  0  0
 39 37  1  0  0  0  0
 41 39  1  0  0  0  0
 42 41  1  0  0  0  0
 42 44  1  0  0  0  0
 43 42  1  0  0  0  0
 44 36  1  0  0  0  0
 45 44  1  0  0  0  0
M  END
>  <minimizedAffinity>
-6.6391778

$$$$

 OpenBabel03252505133D

 45 48  0  0  1  0  0  0  0  0999 V2000
   36.5160   29.7590   38.6720 C   0  0  0  0  0  0  0  0  0  0  0  0
   37.1120   31.0390   38.7300 C   0  0  0  0  0  0  0  0  0  0  0  0
   38.0960   31.2710   39.7480 C   0  0  0  0  0  0  0  0  0  0  0  0
   38.4020   30.2620   40.5930 N   0  0  0  0  0  0  0  0  0  0  0  0
   37.8140   29.0590   40.5070 C   0  0  0  0  0  0  0  0  0  0  0  0
   36.8700   28.7990   39.5490 N   0  0  0  0  0  0  0  0  0  0  0  0
   35.7690   29.5690   37.9080 H   0  0  0  0  0  0  0  0  0  0  0  0
   36.8400   31.8220   38.0340 H   0  0  0  0  0  0  0  0  0  0  0  0
   38.1910   27.9870   41.4690 C   0  0  2  0  0  0  0  0  0  0  0  0
   38.1950   26.7120   40.6540 C   0  0  0  0  0  0  0  0  0  0  0  0
   37.0570   25.8050   40.8560 C   0  0  0  0  0  0  0  0  0  0  0  0
   37.0100   25.5220   42.3520 C   0  0  0  0  0  0  0  0  0  0  0  0
   36.6990   26.7230   43.1220 C   0  0  0  0  0  0  0  0  0  0  0  0
   37.3360   27.9680   42.6210 C   0  0  0  0  0  0  0  0  0  0  0  0
   39.2350   28.2340   41.7740 H   0  0  0  0  0  0  0  0  0  0  0  0
   39.1240   26.1610   40.9110 H   0  0  0  0  0  0  0  0  0  0  0  0
   38.2850   26.8990   39.5540 H   0  0  0  0  0  0  0  0  0  0  0  0
   37.3070   24.8360   40.3860 H   0  0  0  0  0  0  0  0  0  0  0  0
   36.0950   26.1680   40.4740 H   0  0  0  0  0  0  0  0  0  0  0  0
   36.1200   24.8600   42.4750 H   0  0  0  0  0  0  0  0  0  0  0  0
   37.9430   25.0270   42.6310 H   0  0  0  0  0  0  0  0  0  0  0  0
   36.0980   26.8870   43.9830 H   0  0  0  0  0  0  0  0  0  0  0  0
   37.1060   29.2030   43.2890 N   0  0  0  0  0  0  0  0  0  0  0  0
   37.9440   29.6610   43.7180 H   0  0  0  0  0  0  0  0  0  0  0  0
   36.0750   29.3990   43.1990 H   0  0  0  0  0  0  0  0  0  0  0  0
   38.7250   32.5750   39.8220 C   0  0  0  0  0  0  0  0  0  0  0  0
   37.9190   33.6730   39.9660 C   0  0  0  0  0  0  0  0  0  0  0  0
   38.5940   34.9080   40.0320 C   0  0  0  0  0  0  0  0  0  0  0  0
   39.9670   34.8860   39.9470 C   0  0  0  0  0  0  0  0  0  0  0  0
   40.7630   33.8000   39.8040 C   0  0  0  0  0  0  0  0  0  0  0  0
   40.0790   32.6160   39.7430 N   0  0  0  0  0  0  0  0  0  0  0  0
   36.8560   33.5490   40.0200 H   0  0  0  0  0  0  0  0  0  0  0  0
   37.9760   35.7770   40.1460 H   0  0  0  0  0  0  0  0  0  0  0  0
   40.3630   35.8870   40.0100 H   0  0  0  0  0  0  0  0  0  0  0  0
   42.1310   33.8420   39.7250 O   0  0  0  0  0  0  0  0  0  0  0  0
   42.9180   34.2020   38.6480 C   0  0  0  0  0  3  0  0  0  0  0  0
   42.2580   33.6790   37.3890 C   0  0  0  0  0  3  0  0  0  0  0  0
   42.4490   34.3700   36.5560 H   0  0  0  0  0  0  0  0  0  0  0  0
   42.6710   32.2610   37.1160 C   0  0  0  0  0  3  0  0  0  0  0  0
   42.2040   31.8930   36.2040 H   0  0  0  0  0  0  0  0  0  0  0  0
   44.0730   32.1770   37.0530 O   0  0  0  0  0  0  0  0  0  0  0  0
   44.4800   32.2850   38.4030 C   0  0  0  0  0  3  0  0  0  0  0  0
   43.7790   31.6730   38.9920 H   0  0  0  0  0  0  0  0  0  0  0  0
   44.3520   33.7290   38.7610 C   0  0  0  0  0  3  0  0  0  0  0  0
   44.6500   33.8270   39.8260 H   0  0  0  0  0  0  0  0  0  0  0  0
  1  2  2  0  0  0  0
  1  6  1  0  0  0  0
  2  3  1  0  0  0  0
  3 26  1  0  0  0  0
  3  4  2  0  0  0  0
  5  4  1  0  0  0  0
  5  9  1  0  0  0  0
  6  5  2  0  0  0  0
  7  1  1  0  0  0  0
  8  2  1  0  0  0  0
  9 15  1  1  0  0  0
  9 14  1  0  0  0  0
 10 11  1  0  0  0  0
 10 16  1  0  0  0  0
 10  9  1  0  0  0  0
 11 12  1  0  0  0  0
 12 20  1  0  0  0  0
 12 21  1  0  0  0  0
 12 13  1  0  0  0  0
 13 22  1  0  0  0  0
 14 13  2  0  0  0  0
 14 23  1  0  0  0  0
 17 10  1  0  0  0  0
 18 11  1  0  0  0  0
 19 11  1  0  0  0  0
 23 24  1  0  0  0  0
 25 23  1  0  0  0  0
 26 27  1  0  0  0  0
 27 32  1  0  0  0  0
 27 28  2  0  0  0  0
 28 33  1  0  0  0  0
 29 34  1  0  0  0  0
 29 28  1  0  0  0  0
 30 29  2  0  0  0  0
 31 30  1  0  0  0  0
 31 26  2  0  0  0  0
 35 30  1  0  0  0  0
 36 44  1  0  0  0  0
 36 35  1  0  0  0  0
 37 36  1  0  0  0  0
 38 37  1  0  0  0  0
 39 37  1  0  0  0  0
 40 39  1  0  0  0  0
 41 39  1  0  0  0  0
 41 42  1  0  0  0  0
 42 44  1  0  0  0  0
 42 43  1  0  0  0  0
 44 45  1  0  0  0  0
M  END
>  <minimizedAffinity>
-6.52071953

$$$$

 OpenBabel03252505133D

 45 48  0  0  1  0  0  0  0  0999 V2000
   39.4260   34.5040   40.1100 C   0  0  0  0  0  0  0  0  0  0  0  0
   38.5060   33.4680   40.3830 C   0  0  0  0  0  0  0  0  0  0  0  0
   38.9600   32.1150   40.2370 C   0  0  0  0  0  0  0  0  0  0  0  0
   40.2370   31.9010   39.8500 N   0  0  0  0  0  0  0  0  0  0  0  0
   41.0830   32.9110   39.5990 C   0  0  0  0  0  0  0  0  0  0  0  0
   40.6870   34.2160   39.7270 N   0  0  0  0  0  0  0  0  0  0  0  0
   39.0970   35.5320   40.2150 H   0  0  0  0  0  0  0  0  0  0  0  0
   37.4900   33.6800   40.6920 H   0  0  0  0  0  0  0  0  0  0  0  0
   42.4780   32.6120   39.1730 C   0  0  2  0  0  0  0  0  0  0  0  0
   43.3070   32.7250   40.4350 C   0  0  0  0  0  0  0  0  0  0  0  0
   44.1340   33.9310   40.5660 C   0  0  0  0  0  0  0  0  0  0  0  0
   44.9990   33.9830   39.3140 C   0  0  0  0  0  0  0  0  0  0  0  0
   44.1980   34.1830   38.1090 C   0  0  0  0  0  0  0  0  0  0  0  0
   42.9060   33.4520   38.0910 C   0  0  0  0  0  0  0  0  0  0  0  0
   42.4510   31.5480   38.8410 H   0  0  0  0  0  0  0  0  0  0  0  0
   43.9780   31.8410   40.4650 H   0  0  0  0  0  0  0  0  0  0  0  0
   42.6940   32.6330   41.3670 H   0  0  0  0  0  0  0  0  0  0  0  0
   44.8420   33.7680   41.4000 H   0  0  0  0  0  0  0  0  0  0  0  0
   43.5800   34.8650   40.7240 H   0  0  0  0  0  0  0  0  0  0  0  0
   45.5890   34.9220   39.4300 H   0  0  0  0  0  0  0  0  0  0  0  0
   45.6290   33.0910   39.3020 H   0  0  0  0  0  0  0  0  0  0  0  0
   44.3570   34.7580   37.2290 H   0  0  0  0  0  0  0  0  0  0  0  0
   42.0380   33.5700   36.9690 N   0  0  0  0  0  0  0  0  0  0  0  0
   41.8550   32.6910   36.4290 H   0  0  0  0  0  0  0  0  0  0  0  0
   41.7500   34.5820   36.9250 H   0  0  0  0  0  0  0  0  0  0  0  0
   38.0330   31.0360   40.5170 C   0  0  0  0  0  0  0  0  0  0  0  0
   36.6940   31.2800   40.3710 C   0  0  0  0  0  0  0  0  0  0  0  0
   35.8500   30.1900   40.6580 C   0  0  0  0  0  0  0  0  0  0  0  0
   36.4460   29.0120   41.0500 C   0  0  0  0  0  0  0  0  0  0  0  0
   37.7700   28.7720   41.1950 C   0  0  0  0  0  0  0  0  0  0  0  0
   38.5640   29.8490   40.9090 N   0  0  0  0  0  0  0  0  0  0  0  0
   36.3620   32.2500   40.0560 H   0  0  0  0  0  0  0  0  0  0  0  0
   34.7980   30.3660   40.5460 H   0  0  0  0  0  0  0  0  0  0  0  0
   35.6980   28.2590   41.2390 H   0  0  0  0  0  0  0  0  0  0  0  0
   38.3050   27.5720   41.5900 O   0  0  0  0  0  0  0  0  0  0  0  0
   37.9280   26.7730   42.6520 C   0  0  0  0  0  3  0  0  0  0  0  0
   38.9810   26.8990   43.7330 C   0  0  0  0  0  3  0  0  0  0  0  0
   38.5080   26.8130   44.7220 H   0  0  0  0  0  0  0  0  0  0  0  0
   40.1050   25.9310   43.5040 C   0  0  0  0  0  3  0  0  0  0  0  0
   40.8540   26.0160   44.2900 H   0  0  0  0  0  0  0  0  0  0  0  0
   39.5950   24.6230   43.4110 O   0  0  0  0  0  0  0  0  0  0  0  0
   38.9880   24.5850   42.1350 C   0  0  0  0  0  3  0  0  0  0  0  0
   39.6710   25.1090   41.4470 H   0  0  0  0  0  0  0  0  0  0  0  0
   37.6980   25.3260   42.2670 C   0  0  0  0  0  3  0  0  0  0  0  0
   37.2180   25.3220   41.2650 H   0  0  0  0  0  0  0  0  0  0  0  0
  1  7  1  0  0  0  0
  1  2  1  0  0  0  0
  2  8  1  0  0  0  0
  3  2  2  0  0  0  0
  3 26  1  0  0  0  0
  4  3  1  0  0  0  0
  5  6  1  0  0  0  0
  5  4  2  0  0  0  0
  6  1  2  0  0  0  0
  9 15  1  6  0  0  0
  9  5  1  0  0  0  0
  9 10  1  0  0  0  0
 10 16  1  0  0  0  0
 10 11  1  0  0  0  0
 10 17  1  0  0  0  0
 11 19  1  0  0  0  0
 11 18  1  0  0  0  0
 12 20  1  0  0  0  0
 12 11  1  0  0  0  0
 13 12  1  0  0  0  0
 14 13  2  0  0  0  0
 14  9  1  0  0  0  0
 21 12  1  0  0  0  0
 22 13  1  0  0  0  0
 23 14  1  0  0  0  0
 24 23  1  0  0  0  0
 25 23  1  0  0  0  0
 26 31  1  0  0  0  0
 27 26  2  0  0  0  0
 27 28  1  0  0  0  0
 28 29  2  0  0  0  0
 29 30  1  0  0  0  0
 29 34  1  0  0  0  0
 30 35  1  0  0  0  0
 31 30  2  0  0  0  0
 32 27  1  0  0  0  0
 33 28  1  0  0  0  0
 35 36  1  0  0  0  0
 36 37  1  0  0  0  0
 37 38  1  0  0  0  0
 39 37  1  0  0  0  0
 39 40  1  0  0  0  0
 41 39  1  0  0  0  0
 42 44  1  0  0  0  0
 42 41  1  0  0  0  0
 43 42  1  0  0  0  0
 44 36  1  0  0  0  0
 45 44  1  0  0  0  0
M  END
>  <minimizedAffinity>
-6.34553862

$$$$

 OpenBabel03252505133D

 45 48  0  0  1  0  0  0  0  0999 V2000
   35.9830   24.8440   38.7860 C   0  0  0  0  0  0  0  0  0  0  0  0
   36.2330   26.0940   38.1780 C   0  0  0  0  0  0  0  0  0  0  0  0
   36.9070   27.0930   38.9570 C   0  0  0  0  0  0  0  0  0  0  0  0
   37.2670   26.7900   40.2230 N   0  0  0  0  0  0  0  0  0  0  0  0
   37.0130   25.5900   40.7670 C   0  0  0  0  0  0  0  0  0  0  0  0
   36.3720   24.6110   40.0560 N   0  0  0  0  0  0  0  0  0  0  0  0
   35.4740   24.0790   38.2100 H   0  0  0  0  0  0  0  0  0  0  0  0
   35.9280   26.2990   37.1590 H   0  0  0  0  0  0  0  0  0  0  0  0
   37.4330   25.3160   42.1690 C   0  0  2  0  0  0  0  0  0  0  0  0
   37.6590   26.6810   42.7850 C   0  0  0  0  0  0  0  0  0  0  0  0
   39.0580   27.0880   42.9720 C   0  0  0  0  0  0  0  0  0  0  0  0
   39.7090   25.9820   43.7900 C   0  0  0  0  0  0  0  0  0  0  0  0
   39.7610   24.7210   43.0550 C   0  0  0  0  0  0  0  0  0  0  0  0
   38.5580   24.4280   42.2340 C   0  0  0  0  0  0  0  0  0  0  0  0
   36.5440   24.8390   42.6440 H   0  0  0  0  0  0  0  0  0  0  0  0
   37.1660   26.6770   43.7800 H   0  0  0  0  0  0  0  0  0  0  0  0
   37.1410   27.5000   42.2270 H   0  0  0  0  0  0  0  0  0  0  0  0
   39.0680   27.9780   43.6280 H   0  0  0  0  0  0  0  0  0  0  0  0
   39.6120   27.2990   42.0480 H   0  0  0  0  0  0  0  0  0  0  0  0
   40.7730   26.3050   43.8860 H   0  0  0  0  0  0  0  0  0  0  0  0
   39.1990   25.9300   44.7540 H   0  0  0  0  0  0  0  0  0  0  0  0
   40.4990   23.9590   42.9880 H   0  0  0  0  0  0  0  0  0  0  0  0
   38.4930   23.2280   41.4720 N   0  0  0  0  0  0  0  0  0  0  0  0
   37.7380   22.5520   41.7350 H   0  0  0  0  0  0  0  0  0  0  0  0
   39.2690   23.2880   40.7620 H   0  0  0  0  0  0  0  0  0  0  0  0
   37.1780   28.3820   38.3500 C   0  0  0  0  0  0  0  0  0  0  0  0
   36.5450   28.6890   37.1760 C   0  0  0  0  0  0  0  0  0  0  0  0
   36.8520   29.9560   36.6420 C   0  0  0  0  0  0  0  0  0  0  0  0
   37.7410   30.7400   37.3410 C   0  0  0  0  0  0  0  0  0  0  0  0
   38.3670   30.4360   38.5020 C   0  0  0  0  0  0  0  0  0  0  0  0
   38.0480   29.2000   38.9960 N   0  0  0  0  0  0  0  0  0  0  0  0
   35.8710   27.9810   36.7340 H   0  0  0  0  0  0  0  0  0  0  0  0
   36.3630   30.2110   35.7220 H   0  0  0  0  0  0  0  0  0  0  0  0
   37.8920   31.6790   36.8330 H   0  0  0  0  0  0  0  0  0  0  0  0
   39.2450   31.2620   39.1540 O   0  0  0  0  0  0  0  0  0  0  0  0
   39.0860   31.8940   40.3720 C   0  0  0  0  0  3  0  0  0  0  0  0
   37.6830   32.4590   40.4280 C   0  0  0  0  0  3  0  0  0  0  0  0
   37.3100   32.4240   41.4620 H   0  0  0  0  0  0  0  0  0  0  0  0
   37.6270   33.8230   39.8020 C   0  0  0  0  0  3  0  0  0  0  0  0
   36.6190   34.2310   39.8560 H   0  0  0  0  0  0  0  0  0  0  0  0
   38.5640   34.6690   40.4220 O   0  0  0  0  0  0  0  0  0  0  0  0
   39.8080   34.2280   39.9150 C   0  0  0  0  0  3  0  0  0  0  0  0
   39.6580   34.0350   38.8410 H   0  0  0  0  0  0  0  0  0  0  0  0
   40.1260   32.9610   40.6400 C   0  0  0  0  0  3  0  0  0  0  0  0
   41.0930   32.5910   40.2370 H   0  0  0  0  0  0  0  0  0  0  0  0
  1  6  1  0  0  0  0
  2  1  2  0  0  0  0
  2  3  1  0  0  0  0
  3  4  2  0  0  0  0
  4  5  1  0  0  0  0
  5  9  1  0  0  0  0
  6  5  2  0  0  0  0
  7  1  1  0  0  0  0
  8  2  1  0  0  0  0
  9 14  1  0  0  0  0
  9 15  1  1  0  0  0
  9 10  1  0  0  0  0
 10 11  1  0  0  0  0
 10 16  1  0  0  0  0
 11 18  1  0  0  0  0
 11 12  1  0  0  0  0
 12 20  1  0  0  0  0
 12 21  1  0  0  0  0
 13 12  1  0  0  0  0
 14 13  2  0  0  0  0
 17 10  1  0  0  0  0
 19 11  1  0  0  0  0
 22 13  1  0  0  0  0
 23 24  1  0  0  0  0
 23 14  1  0  0  0  0
 25 23  1  0  0  0  0
 26  3  1  0  0  0  0
 26 31  1  0  0  0  0
 27 26  2  0  0  0  0
 28 27  1  0  0  0  0
 28 29  2  0  0  0  0
 29 30  1  0  0  0  0
 30 31  2  0  0  0  0
 30 35  1  0  0  0  0
 32 27  1  0  0  0  0
 33 28  1  0  0  0  0
 34 29  1  0  0  0  0
 35 36  1  0  0  0  0
 36 37  1  0  0  0  0
 36 44  1  0  0  0  0
 37 38  1  0  0  0  0
 39 40  1  0  0  0  0
 39 41  1  0  0  0  0
 39 37  1  0  0  0  0
 42 41  1  0  0  0  0
 42 44  1  0  0  0  0
 43 42  1  0  0  0  0
 45 44  1  0  0  0  0
M  END
>  <minimizedAffinity>
-6.33027744

$$$$

 OpenBabel03252505133D

 45 48  0  0  1  0  0  0  0  0999 V2000
   36.3150   29.2210   37.9780 C   0  0  0  0  0  0  0  0  0  0  0  0
   36.4720   28.5450   39.2090 C   0  0  0  0  0  0  0  0  0  0  0  0
   37.3090   29.1530   40.2030 C   0  0  0  0  0  0  0  0  0  0  0  0
   37.9010   30.3330   39.9140 N   0  0  0  0  0  0  0  0  0  0  0  0
   37.7280   30.9450   38.7330 C   0  0  0  0  0  0  0  0  0  0  0  0
   36.9370   30.3970   37.7590 N   0  0  0  0  0  0  0  0  0  0  0  0
   35.6860   28.7720   37.2170 H   0  0  0  0  0  0  0  0  0  0  0  0
   35.9810   27.6000   39.4030 H   0  0  0  0  0  0  0  0  0  0  0  0
   38.4090   32.2440   38.4730 C   0  0  2  0  0  0  0  0  0  0  0  0
   39.8300   31.8750   38.1030 C   0  0  0  0  0  0  0  0  0  0  0  0
   40.8540   32.1120   39.1280 C   0  0  0  0  0  0  0  0  0  0  0  0
   40.7300   33.5810   39.5110 C   0  0  0  0  0  0  0  0  0  0  0  0
   39.4520   33.8690   40.1560 C   0  0  0  0  0  0  0  0  0  0  0  0
   38.2870   33.1500   39.5790 C   0  0  0  0  0  0  0  0  0  0  0  0
   37.8900   32.6630   37.5790 H   0  0  0  0  0  0  0  0  0  0  0  0
   40.0980   32.4700   37.2040 H   0  0  0  0  0  0  0  0  0  0  0  0
   39.9290   30.8130   37.7660 H   0  0  0  0  0  0  0  0  0  0  0  0
   41.8450   32.0210   38.6470 H   0  0  0  0  0  0  0  0  0  0  0  0
   40.8010   31.4520   40.0040 H   0  0  0  0  0  0  0  0  0  0  0  0
   41.4960   33.7190   40.3100 H   0  0  0  0  0  0  0  0  0  0  0  0
   40.9400   34.1790   38.6210 H   0  0  0  0  0  0  0  0  0  0  0  0
   39.1840   34.5000   40.9680 H   0  0  0  0  0  0  0  0  0  0  0  0
   36.9880   33.3490   40.1240 N   0  0  0  0  0  0  0  0  0  0  0  0
   36.2770   33.7770   39.4850 H   0  0  0  0  0  0  0  0  0  0  0  0
   37.0280   32.9990   41.1170 H   0  0  0  0  0  0  0  0  0  0  0  0
   37.4800   28.4800   41.4750 C   0  0  0  0  0  0  0  0  0  0  0  0
   36.3580   28.0740   42.1470 C   0  0  0  0  0  0  0  0  0  0  0  0
   36.5960   27.4270   43.3750 C   0  0  0  0  0  0  0  0  0  0  0  0
   37.9070   27.2700   43.7670 C   0  0  0  0  0  0  0  0  0  0  0  0
   39.0150   27.6720   43.1020 C   0  0  0  0  0  0  0  0  0  0  0  0
   38.7520   28.2970   41.9130 N   0  0  0  0  0  0  0  0  0  0  0  0
   35.3900   28.2600   41.7270 H   0  0  0  0  0  0  0  0  0  0  0  0
   35.7270   27.1020   43.9130 H   0  0  0  0  0  0  0  0  0  0  0  0
   37.9560   26.7630   44.7170 H   0  0  0  0  0  0  0  0  0  0  0  0
   40.3000   27.4870   43.5450 O   0  0  0  0  0  0  0  0  0  0  0  0
   40.9300   26.3040   43.8790 C   0  0  0  0  0  3  0  0  0  0  0  0
   42.3650   26.6230   44.2420 C   0  0  0  0  0  3  0  0  0  0  0  0
   42.7120   25.9320   45.0240 H   0  0  0  0  0  0  0  0  0  0  0  0
   43.2350   26.6490   43.0180 C   0  0  0  0  0  3  0  0  0  0  0  0
   44.2690   26.8660   43.2840 H   0  0  0  0  0  0  0  0  0  0  0  0
   43.1220   25.4300   42.3270 O   0  0  0  0  0  0  0  0  0  0  0  0
   41.8500   25.5040   41.7130 C   0  0  0  0  0  3  0  0  0  0  0  0
   41.7500   26.5300   41.3230 H   0  0  0  0  0  0  0  0  0  0  0  0
   40.8520   25.2500   42.7950 C   0  0  0  0  0  3  0  0  0  0  0  0
   39.8460   25.3250   42.3310 H   0  0  0  0  0  0  0  0  0  0  0  0
  1  2  1  0  0  0  0
  2  8  1  0  0  0  0
  2  3  2  0  0  0  0
  3 26  1  0  0  0  0
  4  3  1  0  0  0  0
  5  4  2  0  0  0  0
  6  1  2  0  0  0  0
  6  5  1  0  0  0  0
  7  1  1  0  0  0  0
  9 15  1  6  0  0  0
  9  5  1  0  0  0  0
  9 14  1  0  0  0  0
 10  9  1  0  0  0  0
 10 11  1  0  0  0  0
 11 12  1  0  0  0  0
 11 19  1  0  0  0  0
 12 13  1  0  0  0  0
 12 20  1  0  0  0  0
 13 22  1  0  0  0  0
 14 23  1  0  0  0  0
 14 13  2  0  0  0  0
 16 10  1  0  0  0  0
 17 10  1  0  0  0  0
 18 11  1  0  0  0  0
 21 12  1  0  0  0  0
 23 25  1  0  0  0  0
 24 23  1  0  0  0  0
 26 31  2  0  0  0  0
 26 27  1  0  0  0  0
 27 28  2  0  0  0  0
 28 29  1  0  0  0  0
 28 33  1  0  0  0  0
 29 34  1  0  0  0  0
 30 35  1  0  0  0  0
 30 29  2  0  0  0  0
 31 30  1  0  0  0  0
 32 27  1  0  0  0  0
 35 36  1  0  0  0  0
 36 37  1  0  0  0  0
 37 38  1  0  0  0  0
 39 40  1  0  0  0  0
 39 37  1  0  0  0  0
 41 39  1  0  0  0  0
 42 41  1  0  0  0  0
 42 44  1  0  0  0  0
 43 42  1  0  0  0  0
 44 36  1  0  0  0  0
 45 44  1  0  0  0  0
M  END
>  <minimizedAffinity>
-6.26075077

$$$$

 OpenBabel03252505133D

 45 48  0  0  1  0  0  0  0  0999 V2000
   35.2820   29.4860   40.0190 C   0  0  0  0  0  0  0  0  0  0  0  0
   36.0920   30.6260   39.8190 C   0  0  0  0  0  0  0  0  0  0  0  0
   37.3050   30.7250   40.5780 C   0  0  0  0  0  0  0  0  0  0  0  0
   37.6100   29.7320   41.4420 N   0  0  0  0  0  0  0  0  0  0  0  0
   36.8150   28.6630   41.6060 C   0  0  0  0  0  0  0  0  0  0  0  0
   35.6500   28.5320   40.8990 N   0  0  0  0  0  0  0  0  0  0  0  0
   34.3620   29.3970   39.4520 H   0  0  0  0  0  0  0  0  0  0  0  0
   35.8140   31.4020   39.1170 H   0  0  0  0  0  0  0  0  0  0  0  0
   37.2040   27.6010   42.5740 C   0  0  2  0  0  0  0  0  0  0  0  0
   38.2040   28.2600   43.5000 C   0  0  0  0  0  0  0  0  0  0  0  0
   39.6140   27.9000   43.3000 C   0  0  0  0  0  0  0  0  0  0  0  0
   39.6730   26.3810   43.3900 C   0  0  0  0  0  0  0  0  0  0  0  0
   38.9450   25.7430   42.2970 C   0  0  0  0  0  0  0  0  0  0  0  0
   37.6770   26.4160   41.9170 C   0  0  0  0  0  0  0  0  0  0  0  0
   36.2690   27.3750   43.1380 H   0  0  0  0  0  0  0  0  0  0  0  0
   37.9210   27.9840   44.5370 H   0  0  0  0  0  0  0  0  0  0  0  0
   38.1360   29.3770   43.4880 H   0  0  0  0  0  0  0  0  0  0  0  0
   40.1850   28.2650   44.1740 H   0  0  0  0  0  0  0  0  0  0  0  0
   40.0670   28.2770   42.3740 H   0  0  0  0  0  0  0  0  0  0  0  0
   40.7470   26.1400   43.2040 H   0  0  0  0  0  0  0  0  0  0  0  0
   39.3460   26.0900   44.3910 H   0  0  0  0  0  0  0  0  0  0  0  0
   39.1450   24.8800   41.7100 H   0  0  0  0  0  0  0  0  0  0  0  0
   36.8800   25.8870   40.8630 N   0  0  0  0  0  0  0  0  0  0  0  0
   35.9230   25.5540   41.1280 H   0  0  0  0  0  0  0  0  0  0  0  0
   37.4660   25.9510   39.9900 H   0  0  0  0  0  0  0  0  0  0  0  0
   38.1540   31.8840   40.3840 C   0  0  0  0  0  0  0  0  0  0  0  0
   37.5550   33.1080   40.2470 C   0  0  0  0  0  0  0  0  0  0  0  0
   38.4380   34.1910   40.0620 C   0  0  0  0  0  0  0  0  0  0  0  0
   39.7860   33.9130   40.0380 C   0  0  0  0  0  0  0  0  0  0  0  0
   40.3770   32.7030   40.1730 C   0  0  0  0  0  0  0  0  0  0  0  0
   39.4950   31.6720   40.3510 N   0  0  0  0  0  0  0  0  0  0  0  0
   36.4870   33.1840   40.2860 H   0  0  0  0  0  0  0  0  0  0  0  0
   37.9830   35.1560   39.9550 H   0  0  0  0  0  0  0  0  0  0  0  0
   40.3520   34.8190   39.8910 H   0  0  0  0  0  0  0  0  0  0  0  0
   41.7310   32.4900   40.1400 O   0  0  0  0  0  0  0  0  0  0  0  0
   42.4920   31.9660   39.1120 C   0  0  0  0  0  3  0  0  0  0  0  0
   43.9360   32.3550   39.3520 C   0  0  0  0  0  3  0  0  0  0  0  0
   44.6000   31.5580   38.9870 H   0  0  0  0  0  0  0  0  0  0  0  0
   44.2310   33.7100   38.7770 C   0  0  0  0  0  3  0  0  0  0  0  0
   45.2730   33.9800   38.9400 H   0  0  0  0  0  0  0  0  0  0  0  0
   43.8970   33.7300   37.4100 O   0  0  0  0  0  0  0  0  0  0  0  0
   42.4840   33.7750   37.4070 C   0  0  0  0  0  3  0  0  0  0  0  0
   42.1910   34.4820   38.1980 H   0  0  0  0  0  0  0  0  0  0  0  0
   42.0240   32.3930   37.7360 C   0  0  0  0  0  3  0  0  0  0  0  0
   40.9140   32.4170   37.7560 H   0  0  0  0  0  0  0  0  0  0  0  0
  1  6  1  0  0  0  0
  2  1  2  0  0  0  0
  2  3  1  0  0  0  0
  3  4  2  0  0  0  0
  4  5  1  0  0  0  0
  5  9  1  0  0  0  0
  6  5  2  0  0  0  0
  7  1  1  0  0  0  0
  8  2  1  0  0  0  0
  9 15  1  1  0  0  0
  9 10  1  0  0  0  0
 10 16  1  0  0  0  0
 11 12  1  0  0  0  0
 11 10  1  0  0  0  0
 11 18  1  0  0  0  0
 12 21  1  0  0  0  0
 13 12  1  0  0  0  0
 14 13  2  0  0  0  0
 14  9  1  0  0  0  0
 17 10  1  0  0  0  0
 19 11  1  0  0  0  0
 20 12  1  0  0  0  0
 22 13  1  0  0  0  0
 23 24  1  0  0  0  0
 23 14  1  0  0  0  0
 25 23  1  0  0  0  0
 26  3  1  0  0  0  0
 27 32  1  0  0  0  0
 27 26  2  0  0  0  0
 28 27  1  0  0  0  0
 29 28  2  0  0  0  0
 29 30  1  0  0  0  0
 30 31  2  0  0  0  0
 31 26  1  0  0  0  0
 33 28  1  0  0  0  0
 34 29  1  0  0  0  0
 35 30  1  0  0  0  0
 36 37  1  0  0  0  0
 36 35  1  0  0  0  0
 38 37  1  0  0  0  0
 39 40  1  0  0  0  0
 39 37  1  0  0  0  0
 41 39  1  0  0  0  0
 42 41  1  0  0  0  0
 42 44  1  0  0  0  0
 42 43  1  0  0  0  0
 44 45  1  0  0  0  0
 44 36  1  0  0  0  0
M  END
>  <minimizedAffinity>
-6.21186161

$$$$

 OpenBabel03252505133D

 45 48  0  0  1  0  0  0  0  0999 V2000
   35.3570   27.8760   37.3670 C   0  0  0  0  0  0  0  0  0  0  0  0
   35.7880   26.8900   38.2820 C   0  0  0  0  0  0  0  0  0  0  0  0
   36.5300   27.3220   39.4310 C   0  0  0  0  0  0  0  0  0  0  0  0
   36.7790   28.6420   39.5800 N   0  0  0  0  0  0  0  0  0  0  0  0
   36.3530   29.5510   38.6890 C   0  0  0  0  0  0  0  0  0  0  0  0
   35.6420   29.1770   37.5800 N   0  0  0  0  0  0  0  0  0  0  0  0
   34.7960   27.5640   36.4940 H   0  0  0  0  0  0  0  0  0  0  0  0
   35.5690   25.8400   38.1280 H   0  0  0  0  0  0  0  0  0  0  0  0
   36.6600   30.9910   38.9060 C   0  0  2  0  0  0  0  0  0  0  0  0
   37.8860   31.2640   38.0620 C   0  0  0  0  0  0  0  0  0  0  0  0
   39.1590   31.3960   38.7820 C   0  0  0  0  0  0  0  0  0  0  0  0
   38.9370   32.4820   39.8260 C   0  0  0  0  0  0  0  0  0  0  0  0
   37.9560   32.0790   40.8300 C   0  0  0  0  0  0  0  0  0  0  0  0
   36.8010   31.3110   40.2990 C   0  0  0  0  0  0  0  0  0  0  0  0
   35.7860   31.5360   38.4780 H   0  0  0  0  0  0  0  0  0  0  0  0
   37.7010   32.2110   37.5120 H   0  0  0  0  0  0  0  0  0  0  0  0
   38.0330   30.5050   37.2530 H   0  0  0  0  0  0  0  0  0  0  0  0
   39.9040   31.8160   38.0810 H   0  0  0  0  0  0  0  0  0  0  0  0
   39.5440   30.4690   39.2260 H   0  0  0  0  0  0  0  0  0  0  0  0
   39.9070   32.5350   40.3740 H   0  0  0  0  0  0  0  0  0  0  0  0
   38.7010   33.4110   39.3010 H   0  0  0  0  0  0  0  0  0  0  0  0
   37.9030   32.2260   41.8810 H   0  0  0  0  0  0  0  0  0  0  0  0
   35.7790   30.8620   41.1820 N   0  0  0  0  0  0  0  0  0  0  0  0
   34.8220   31.2550   41.0220 H   0  0  0  0  0  0  0  0  0  0  0  0
   36.2400   30.1870   41.8470 H   0  0  0  0  0  0  0  0  0  0  0  0
   36.9770   26.3270   40.3860 C   0  0  0  0  0  0  0  0  0  0  0  0
   36.4830   25.0550   40.2720 C   0  0  0  0  0  0  0  0  0  0  0  0
   36.9590   24.1390   41.2300 C   0  0  0  0  0  0  0  0  0  0  0  0
   37.8540   24.6060   42.1660 C   0  0  0  0  0  0  0  0  0  0  0  0
   38.3410   25.8640   42.2780 C   0  0  0  0  0  0  0  0  0  0  0  0
   37.8610   26.7310   41.3340 N   0  0  0  0  0  0  0  0  0  0  0  0
   35.7870   24.8230   39.4910 H   0  0  0  0  0  0  0  0  0  0  0  0
   36.5820   23.1380   41.1530 H   0  0  0  0  0  0  0  0  0  0  0  0
   38.1410   23.8140   42.8380 H   0  0  0  0  0  0  0  0  0  0  0  0
   39.2340   26.2710   43.2360 O   0  0  0  0  0  0  0  0  0  0  0  0
   40.5350   25.8490   43.4300 C   0  0  0  0  0  3  0  0  0  0  0  0
   41.2560   26.9070   44.2400 C   0  0  0  0  0  3  0  0  0  0  0  0
   42.0000   26.4290   44.8940 H   0  0  0  0  0  0  0  0  0  0  0  0
   41.8180   27.9760   43.3480 C   0  0  0  0  0  3  0  0  0  0  0  0
   42.3470   28.7270   43.9330 H   0  0  0  0  0  0  0  0  0  0  0  0
   42.6510   27.3940   42.3750 O   0  0  0  0  0  0  0  0  0  0  0  0
   41.7480   26.7870   41.4740 C   0  0  0  0  0  3  0  0  0  0  0  0
   40.9180   27.4980   41.3350 H   0  0  0  0  0  0  0  0  0  0  0  0
   41.2690   25.5400   42.1420 C   0  0  0  0  0  3  0  0  0  0  0  0
   40.5420   25.0610   41.4530 H   0  0  0  0  0  0  0  0  0  0  0  0
  1  6  2  0  0  0  0
  1  2  1  0  0  0  0
  2  3  2  0  0  0  0
  3  4  1  0  0  0  0
  3 26  1  0  0  0  0
  5  9  1  0  0  0  0
  5  4  2  0  0  0  0
  6  5  1  0  0  0  0
  7  1  1  0  0  0  0
  8  2  1  0  0  0  0
  9 15  1  6  0  0  0
  9 14  1  0  0  0  0
 10 11  1  0  0  0  0
 10  9  1  0  0  0  0
 11 19  1  0  0  0  0
 11 12  1  0  0  0  0
 12 20  1  0  0  0  0
 12 13  1  0  0  0  0
 13 22  1  0  0  0  0
 14 13  2  0  0  0  0
 14 23  1  0  0  0  0
 16 10  1  0  0  0  0
 17 10  1  0  0  0  0
 18 11  1  0  0  0  0
 21 12  1  0  0  0  0
 23 25  1  0  0  0  0
 24 23  1  0  0  0  0
 26 31  1  0  0  0  0
 27 26  2  0  0  0  0
 27 28  1  0  0  0  0
 28 29  2  0  0  0  0
 29 30  1  0  0  0  0
 29 34  1  0  0  0  0
 30 35  1  0  0  0  0
 31 30  2  0  0  0  0
 32 27  1  0  0  0  0
 33 28  1  0  0  0  0
 35 36  1  0  0  0  0
 36 37  1  0  0  0  0
 37 38  1  0  0  0  0
 39 40  1  0  0  0  0
 39 37  1  0  0  0  0
 41 39  1  0  0  0  0
 42 44  1  0  0  0  0
 42 41  1  0  0  0  0
 43 42  1  0  0  0  0
 44 36  1  0  0  0  0
 45 44  1  0  0  0  0
M  END
>  <minimizedAffinity>
-6.04556847

$$$$

 OpenBabel03252505133D

 45 48  0  0  1  0  0  0  0  0999 V2000
   36.0740   29.6680   37.5370 C   0  0  0  0  0  0  0  0  0  0  0  0
   36.0990   28.7090   38.5740 C   0  0  0  0  0  0  0  0  0  0  0  0
   36.9910   28.9370   39.6740 C   0  0  0  0  0  0  0  0  0  0  0  0
   37.7580   30.0490   39.6630 N   0  0  0  0  0  0  0  0  0  0  0  0
   37.7080   30.9380   38.6600 C   0  0  0  0  0  0  0  0  0  0  0  0
   36.8690   30.7550   37.5930 N   0  0  0  0  0  0  0  0  0  0  0  0
   35.4050   29.5080   36.6990 H   0  0  0  0  0  0  0  0  0  0  0  0
   35.4680   27.8290   38.5470 H   0  0  0  0  0  0  0  0  0  0  0  0
   38.5800   32.1440   38.7040 C   0  0  2  0  0  0  0  0  0  0  0  0
   39.9930   31.6050   38.7660 C   0  0  0  0  0  0  0  0  0  0  0  0
   40.6640   31.6830   40.0700 C   0  0  0  0  0  0  0  0  0  0  0  0
   40.5970   33.1470   40.4870 C   0  0  0  0  0  0  0  0  0  0  0  0
   39.2230   33.5810   40.7240 C   0  0  0  0  0  0  0  0  0  0  0  0
   38.2230   33.0320   39.7730 C   0  0  0  0  0  0  0  0  0  0  0  0
   38.4180   32.6470   37.7220 H   0  0  0  0  0  0  0  0  0  0  0  0
   40.5960   32.1810   38.0330 H   0  0  0  0  0  0  0  0  0  0  0  0
   40.0700   30.5470   38.4100 H   0  0  0  0  0  0  0  0  0  0  0  0
   41.7390   31.4770   39.9120 H   0  0  0  0  0  0  0  0  0  0  0  0
   40.2650   31.0150   40.8440 H   0  0  0  0  0  0  0  0  0  0  0  0
   41.0840   33.1660   41.4900 H   0  0  0  0  0  0  0  0  0  0  0  0
   41.1420   33.7340   39.7450 H   0  0  0  0  0  0  0  0  0  0  0  0
   38.7880   34.2210   41.4530 H   0  0  0  0  0  0  0  0  0  0  0  0
   36.8500   33.3830   39.9040 N   0  0  0  0  0  0  0  0  0  0  0  0
   36.4280   33.9140   39.1060 H   0  0  0  0  0  0  0  0  0  0  0  0
   36.5370   33.0060   40.8370 H   0  0  0  0  0  0  0  0  0  0  0  0
   37.0280   27.9680   40.7520 C   0  0  0  0  0  0  0  0  0  0  0  0
   36.5740   28.3540   41.9850 C   0  0  0  0  0  0  0  0  0  0  0  0
   36.6380   27.3650   42.9850 C   0  0  0  0  0  0  0  0  0  0  0  0
   37.1410   26.1340   42.6290 C   0  0  0  0  0  0  0  0  0  0  0  0
   37.5900   25.7530   41.4100 C   0  0  0  0  0  0  0  0  0  0  0  0
   37.5150   26.7350   40.4600 N   0  0  0  0  0  0  0  0  0  0  0  0
   36.2050   29.3510   42.1270 H   0  0  0  0  0  0  0  0  0  0  0  0
   36.2850   27.6530   43.9560 H   0  0  0  0  0  0  0  0  0  0  0  0
   37.1370   25.4680   43.4770 H   0  0  0  0  0  0  0  0  0  0  0  0
   38.0810   24.5070   41.1150 O   0  0  0  0  0  0  0  0  0  0  0  0
   37.3780   23.3440   40.8680 C   0  0  0  0  0  3  0  0  0  0  0  0
   38.3160   22.3620   40.1980 C   0  0  0  0  0  3  0  0  0  0  0  0
   38.0590   21.3370   40.5030 H   0  0  0  0  0  0  0  0  0  0  0  0
   38.3420   22.5710   38.7110 C   0  0  0  0  0  3  0  0  0  0  0  0
   39.0070   21.8550   38.2320 H   0  0  0  0  0  0  0  0  0  0  0  0
   37.0350   22.4900   38.1970 O   0  0  0  0  0  0  0  0  0  0  0  0
   36.4380   23.7080   38.5960 C   0  0  0  0  0  3  0  0  0  0  0  0
   37.1930   24.4940   38.4390 H   0  0  0  0  0  0  0  0  0  0  0  0
   36.1230   23.5590   40.0490 C   0  0  0  0  0  3  0  0  0  0  0  0
   35.6700   24.5170   40.3810 H   0  0  0  0  0  0  0  0  0  0  0  0
  1  6  2  0  0  0  0
  1  2  1  0  0  0  0
  2  3  2  0  0  0  0
  3 26  1  0  0  0  0
  4  3  1  0  0  0  0
  5  9  1  0  0  0  0
  5  4  2  0  0  0  0
  6  5  1  0  0  0  0
  7  1  1  0  0  0  0
  8  2  1  0  0  0  0
  9 15  1  6  0  0  0
  9 10  1  0  0  0  0
  9 14  1  0  0  0  0
 10 11  1  0  0  0  0
 11 12  1  0  0  0  0
 11 19  1  0  0  0  0
 12 13  1  0  0  0  0
 12 20  1  0  0  0  0
 13 22  1  0  0  0  0
 14 23  1  0  0  0  0
 14 13  2  0  0  0  0
 16 10  1  0  0  0  0
 17 10  1  0  0  0  0
 18 11  1  0  0  0  0
 21 12  1  0  0  0  0
 23 25  1  0  0  0  0
 24 23  1  0  0  0  0
 26 27  1  0  0  0  0
 27 32  1  0  0  0  0
 27 28  2  0  0  0  0
 28 33  1  0  0  0  0
 29 28  1  0  0  0  0
 29 34  1  0  0  0  0
 30 29  2  0  0  0  0
 31 26  2  0  0  0  0
 31 30  1  0  0  0  0
 35 30  1  0  0  0  0
 36 35  1  0  0  0  0
 37 38  1  0  0  0  0
 37 36  1  0  0  0  0
 39 37  1  0  0  0  0
 40 39  1  0  0  0  0
 41 42  1  0  0  0  0
 41 39  1  0  0  0  0
 42 44  1  0  0  0  0
 43 42  1  0  0  0  0
 44 45  1  0  0  0  0
 44 36  1  0  0  0  0
M  END
>  <minimizedAffinity>
-6.00987673

$$$$

 OpenBabel03252505133D

 45 48  0  0  1  0  0  0  0  0999 V2000
   41.4890   29.0390   36.6990 C   0  0  0  0  0  0  0  0  0  0  0  0
   40.3420   29.3570   37.4610 C   0  0  0  0  0  0  0  0  0  0  0  0
   40.3430   30.5980   38.1820 C   0  0  0  0  0  0  0  0  0  0  0  0
   41.4320   31.3930   38.0980 N   0  0  0  0  0  0  0  0  0  0  0  0
   42.5030   31.0570   37.3630 C   0  0  0  0  0  0  0  0  0  0  0  0
   42.5400   29.8820   36.6610 N   0  0  0  0  0  0  0  0  0  0  0  0
   41.5030   28.1050   36.1490 H   0  0  0  0  0  0  0  0  0  0  0  0
   39.4880   28.6930   37.5040 H   0  0  0  0  0  0  0  0  0  0  0  0
   43.6740   31.9750   37.3110 C   0  0  2  0  0  0  0  0  0  0  0  0
   44.6640   31.4060   38.3040 C   0  0  0  0  0  0  0  0  0  0  0  0
   44.7910   32.1190   39.5810 C   0  0  0  0  0  0  0  0  0  0  0  0
   45.1150   33.5630   39.2220 C   0  0  0  0  0  0  0  0  0  0  0  0
   44.0110   34.2090   38.5180 C   0  0  0  0  0  0  0  0  0  0  0  0
   43.3020   33.3420   37.5430 C   0  0  0  0  0  0  0  0  0  0  0  0
   44.0780   31.8620   36.2780 H   0  0  0  0  0  0  0  0  0  0  0  0
   45.6590   31.4030   37.8100 H   0  0  0  0  0  0  0  0  0  0  0  0
   44.4740   30.3280   38.5380 H   0  0  0  0  0  0  0  0  0  0  0  0
   45.6940   31.7390   40.0950 H   0  0  0  0  0  0  0  0  0  0  0  0
   43.9230   32.0450   40.2480 H   0  0  0  0  0  0  0  0  0  0  0  0
   45.1730   34.0820   40.2080 H   0  0  0  0  0  0  0  0  0  0  0  0
   46.0680   33.5720   38.6880 H   0  0  0  0  0  0  0  0  0  0  0  0
   43.6070   35.1910   38.5650 H   0  0  0  0  0  0  0  0  0  0  0  0
   42.2070   33.8600   36.7960 N   0  0  0  0  0  0  0  0  0  0  0  0
   42.3320   33.9000   35.7570 H   0  0  0  0  0  0  0  0  0  0  0  0
   41.4610   34.1040   37.4980 H   0  0  0  0  0  0  0  0  0  0  0  0
   39.1740   30.9460   38.9660 C   0  0  0  0  0  0  0  0  0  0  0  0
   38.3060   31.8730   38.4550 C   0  0  0  0  0  0  0  0  0  0  0  0
   37.1930   32.1650   39.2670 C   0  0  0  0  0  0  0  0  0  0  0  0
   37.0940   31.5020   40.4690 C   0  0  0  0  0  0  0  0  0  0  0  0
   37.9530   30.5870   40.9750 C   0  0  0  0  0  0  0  0  0  0  0  0
   39.0230   30.3240   40.1630 N   0  0  0  0  0  0  0  0  0  0  0  0
   38.5030   32.3160   37.4980 H   0  0  0  0  0  0  0  0  0  0  0  0
   36.5030   32.8890   38.8790 H   0  0  0  0  0  0  0  0  0  0  0  0
   36.2040   31.8110   40.9950 H   0  0  0  0  0  0  0  0  0  0  0  0
   37.8000   29.9580   42.1840 O   0  0  0  0  0  0  0  0  0  0  0  0
   36.9420   28.9260   42.5110 C   0  0  0  0  0  3  0  0  0  0  0  0
   37.4200   28.3130   43.8110 C   0  0  0  0  0  3  0  0  0  0  0  0
   36.5560   27.9580   44.3930 H   0  0  0  0  0  0  0  0  0  0  0  0
   38.4620   27.2620   43.5580 C   0  0  0  0  0  3  0  0  0  0  0  0
   38.7930   26.8150   44.4940 H   0  0  0  0  0  0  0  0  0  0  0  0
   37.9570   26.2950   42.6700 O   0  0  0  0  0  0  0  0  0  0  0  0
   37.9700   26.9470   41.4150 C   0  0  0  0  0  3  0  0  0  0  0  0
   38.9190   27.5040   41.3610 H   0  0  0  0  0  0  0  0  0  0  0  0
   36.8070   27.8830   41.4220 C   0  0  0  0  0  3  0  0  0  0  0  0
   36.8160   28.4180   40.4480 H   0  0  0  0  0  0  0  0  0  0  0  0
  1  2  1  0  0  0  0
  2  8  1  0  0  0  0
  2  3  2  0  0  0  0
  3 26  1  0  0  0  0
  4  3  1  0  0  0  0
  5  4  2  0  0  0  0
  6  1  2  0  0  0  0
  6  5  1  0  0  0  0
  7  1  1  0  0  0  0
  9 15  1  6  0  0  0
  9  5  1  0  0  0  0
  9 14  1  0  0  0  0
  9 10  1  0  0  0  0
 10 17  1  0  0  0  0
 10 11  1  0  0  0  0
 11 18  1  0  0  0  0
 11 19  1  0  0  0  0
 12 11  1  0  0  0  0
 12 20  1  0  0  0  0
 13 22  1  0  0  0  0
 13 12  1  0  0  0  0
 14 13  2  0  0  0  0
 16 10  1  0  0  0  0
 21 12  1  0  0  0  0
 23 25  1  0  0  0  0
 23 14  1  0  0  0  0
 24 23  1  0  0  0  0
 26 31  1  0  0  0  0
 27 26  2  0  0  0  0
 27 28  1  0  0  0  0
 28 29  2  0  0  0  0
 29 30  1  0  0  0  0
 29 34  1  0  0  0  0
 30 35  1  0  0  0  0
 31 30  2  0  0  0  0
 32 27  1  0  0  0  0
 33 28  1  0  0  0  0
 35 36  1  0  0  0  0
 36 37  1  0  0  0  0
 37 38  1  0  0  0  0
 39 37  1  0  0  0  0
 39 40  1  0  0  0  0
 41 39  1  0  0  0  0
 42 44  1  0  0  0  0
 42 41  1  0  0  0  0
 43 42  1  0  0  0  0
 44 36  1  0  0  0  0
 45 44  1  0  0  0  0
M  END
>  <minimizedAffinity>
-6.00084066

$$$$
