
 OpenBabel03252506573D

 39 43  0  0  0  0  0  0  0  0999 V2000
   47.2930   31.2540   45.2080 C   0  0  0  0  0  0  0  0  0  0  0  0
   46.9420   32.5890   45.1280 C   0  0  0  0  0  0  0  0  0  0  0  0
   46.3250   33.2750   46.1680 C   0  0  0  0  0  0  0  0  0  0  0  0
   46.0350   32.6190   47.3550 C   0  0  0  0  0  0  0  0  0  0  0  0
   45.4630   32.9480   48.5390 N   0  0  0  0  0  0  0  0  0  0  0  0
   45.4590   31.8480   49.3360 C   0  0  0  0  0  0  0  0  0  0  0  0
   46.0320   30.8420   48.6330 N   0  0  0  0  0  0  0  0  0  0  0  0
   46.3960   31.2830   47.4120 C   0  0  0  0  0  0  0  0  0  0  0  0
   47.0060   30.5820   46.4000 C   0  0  0  0  0  0  0  0  0  0  0  0
   47.7720   30.7360   44.3910 H   0  0  0  0  0  0  0  0  0  0  0  0
   46.0480   34.3170   46.1090 H   0  0  0  0  0  0  0  0  0  0  0  0
   45.0940   33.9100   48.7670 H   0  0  0  0  0  0  0  0  0  0  0  0
   45.0690   31.7810   50.3480 H   0  0  0  0  0  0  0  0  0  0  0  0
   46.7140   35.0440   42.3920 C   0  0  0  0  0  0  0  0  0  0  0  0
   47.7900   34.6960   41.5830 C   0  0  0  0  0  0  0  0  0  0  0  0
   48.5980   33.6130   41.9790 C   0  0  0  0  0  0  0  0  0  0  0  0
   48.2860   32.9580   43.1370 N   0  0  0  0  0  0  0  0  0  0  0  0
   47.2230   33.3300   43.9010 C   0  0  0  0  0  0  0  0  0  0  0  0
   46.4480   34.3580   43.5350 N   0  0  0  0  0  0  0  0  0  0  0  0
   46.1100   35.8770   42.0680 H   0  0  0  0  0  0  0  0  0  0  0  0
   47.9780   35.2590   40.6800 H   0  0  0  0  0  0  0  0  0  0  0  0
   49.4330   33.3230   41.3760 H   0  0  0  0  0  0  0  0  0  0  0  0
   47.3440   29.1650   46.5750 C   0  0  0  0  0  0  0  0  0  0  0  0
   48.6180   28.6430   46.3500 C   0  0  0  0  0  0  0  0  0  0  0  0
   48.4540   27.2810   46.6400 C   0  0  0  0  0  0  0  0  0  0  0  0
   47.1290   27.0660   47.0120 C   0  0  0  0  0  0  0  0  0  0  0  0
   46.5140   28.2400   46.9520 O   0  0  0  0  0  0  0  0  0  0  0  0
   49.5340   29.1080   46.0350 H   0  0  0  0  0  0  0  0  0  0  0  0
   49.1990   26.4860   46.5990 H   0  0  0  0  0  0  0  0  0  0  0  0
   46.4540   25.8200   47.4100 C   0  0  0  0  0  3  0  0  0  0  0  0
   46.5920   24.7430   46.3830 C   0  0  0  0  0  3  0  0  0  0  0  0
   47.5450   24.7920   45.8180 H   0  0  0  0  0  0  0  0  0  0  0  0
   46.4750   23.4090   47.1290 C   0  0  0  0  0  3  0  0  0  0  0  0
   47.3940   23.1990   47.7190 H   0  0  0  0  0  0  0  0  0  0  0  0
   45.4520   23.5990   48.0620 O   0  0  0  0  0  0  0  0  0  0  0  0
   45.9840   24.2530   49.1920 C   0  0  0  0  0  3  0  0  0  0  0  0
   45.1560   24.7280   49.7630 H   0  0  0  0  0  0  0  0  0  0  0  0
   46.9980   25.2730   48.7220 C   0  0  0  0  0  3  0  0  0  0  0  0
   46.9490   26.1240   49.4540 H   0  0  0  0  0  0  0  0  0  0  0  0
  1  9  1  0  0  0  0
  2  1  2  0  0  0  0
  2  3  1  0  0  0  0
  3  4  2  0  0  0  0
  4  8  1  0  0  0  0
  4  5  1  0  0  0  0
  5 12  1  0  0  0  0
  5  6  1  0  0  0  0
  6 13  1  0  0  0  0
  7  6  2  0  0  0  0
  8  7  1  0  0  0  0
  9 23  1  0  0  0  0
  9  8  2  0  0  0  0
 10  1  1  0  0  0  0
 11  3  1  0  0  0  0
 14 19  1  0  0  0  0
 15 16  1  0  0  0  0
 15 14  2  0  0  0  0
 16 17  2  0  0  0  0
 17 18  1  0  0  0  0
 18  2  1  0  0  0  0
 19 18  2  0  0  0  0
 20 14  1  0  0  0  0
 21 15  1  0  0  0  0
 22 16  1  0  0  0  0
 23 27  1  0  0  0  0
 24 23  2  0  0  0  0
 24 25  1  0  0  0  0
 25 26  2  0  0  0  0
 26 30  1  0  0  0  0
 27 26  1  0  0  0  0
 28 24  1  0  0  0  0
 29 25  1  0  0  0  0
 30 38  1  0  0  0  0
 31 33  1  0  0  0  0
 31 30  1  0  0  0  0
 32 31  1  0  0  0  0
 33 34  1  0  0  0  0
 33 35  1  0  0  0  0
 35 36  1  0  0  0  0
 36 37  1  0  0  0  0
 38 36  1  0  0  0  0
 38 39  1  0  0  0  0
M  END
>  <minimizedAffinity>
-5.69047594

>  <minimizedRMSD>
1.02800655

$$$$
