
 OpenBabel03252507203D

 45 48  0  0  1  0  0  0  0  0999 V2000
   46.9420   31.8250   44.8750 C   0  0  0  0  0  0  0  0  0  0  0  0
   47.0870   33.0700   45.1500 O   0  0  0  0  0  0  0  0  0  0  0  0
   46.1240   30.9680   45.6700 N   0  0  0  0  0  0  0  0  0  0  0  0
   45.1360   29.9640   45.2500 C   0  0  0  0  0  0  0  0  0  0  0  0
   45.4490   28.6320   45.9250 C   0  0  0  0  0  0  0  0  0  0  0  0
   45.2540   28.7860   47.4240 C   0  0  0  0  0  0  0  0  0  0  0  0
   45.1870   30.2260   47.7740 C   0  0  0  0  0  0  0  0  0  0  0  0
   46.2390   31.0650   47.0930 C   0  0  1  0  0  0  0  0  0  0  0  0
   45.3970   29.7700   44.1690 H   0  0  0  0  0  0  0  0  0  0  0  0
   44.1120   30.2970   45.3610 H   0  0  0  0  0  0  0  0  0  0  0  0
   46.5170   28.4220   45.6810 H   0  0  0  0  0  0  0  0  0  0  0  0
   44.7770   27.8880   45.4660 H   0  0  0  0  0  0  0  0  0  0  0  0
   45.9170   28.1530   48.0040 H   0  0  0  0  0  0  0  0  0  0  0  0
   44.2220   28.3620   47.5980 H   0  0  0  0  0  0  0  0  0  0  0  0
   45.1460   30.4550   48.8360 H   0  0  0  0  0  0  0  0  0  0  0  0
   44.2070   30.6120   47.3590 H   0  0  0  0  0  0  0  0  0  0  0  0
   45.9580   32.1130   47.3410 H   0  0  0  0  0  0  0  0  0  0  0  0
   47.5970   30.8430   47.6760 C   0  0  0  0  0  3  0  0  0  0  0  0
   47.8040   31.2760   49.0960 C   0  0  0  0  0  3  0  0  0  0  0  0
   46.9360   30.8520   49.6710 H   0  0  0  0  0  0  0  0  0  0  0  0
   49.0050   30.5410   49.7130 C   0  0  0  0  0  3  0  0  0  0  0  0
   48.7140   29.5450   50.0410 H   0  0  0  0  0  0  0  0  0  0  0  0
   49.9980   30.4930   48.7590 O   0  0  0  0  0  0  0  0  0  0  0  0
   49.6930   29.6020   47.7350 C   0  0  0  0  0  3  0  0  0  0  0  0
   50.0840   30.0740   46.7920 H   0  0  0  0  0  0  0  0  0  0  0  0
   48.1750   29.4800   47.5180 C   0  0  0  0  0  3  0  0  0  0  0  0
   47.8430   28.7470   48.2770 H   0  0  0  0  0  0  0  0  0  0  0  0
   48.6620   30.3740   43.9520 C   0  0  0  0  0  0  0  0  0  0  0  0
   47.6220   31.2830   43.7340 C   0  0  0  0  0  0  0  0  0  0  0  0
   47.2880   31.6350   42.4480 C   0  0  0  0  0  0  0  0  0  0  0  0
   47.9790   31.0870   41.4330 N   0  0  0  0  0  0  0  0  0  0  0  0
   48.9930   30.2020   41.6350 C   0  0  0  0  0  0  0  0  0  0  0  0
   49.3100   29.8650   42.8860 N   0  0  0  0  0  0  0  0  0  0  0  0
   48.9970   30.0330   44.9200 H   0  0  0  0  0  0  0  0  0  0  0  0
   49.5420   29.7680   40.7870 H   0  0  0  0  0  0  0  0  0  0  0  0
   46.2080   32.5770   42.2370 C   0  0  0  0  0  0  0  0  0  0  0  0
   44.9060   32.1440   42.2200 C   0  0  0  0  0  0  0  0  0  0  0  0
   43.8970   33.0590   42.0200 C   0  0  0  0  0  0  0  0  0  0  0  0
   44.1270   34.4090   41.8330 C   0  0  0  0  0  0  0  0  0  0  0  0
   45.4540   34.7840   41.8590 C   0  0  0  0  0  0  0  0  0  0  0  0
   46.4190   33.8860   42.0540 N   0  0  0  0  0  0  0  0  0  0  0  0
   44.5790   31.1450   42.3460 H   0  0  0  0  0  0  0  0  0  0  0  0
   42.8410   32.7620   41.9990 H   0  0  0  0  0  0  0  0  0  0  0  0
   43.3540   35.1480   41.6740 H   0  0  0  0  0  0  0  0  0  0  0  0
   45.7410   35.8330   41.7200 H   0  0  0  0  0  0  0  0  0  0  0  0
  1  2  2  0  0  0  0
  1  3  1  0  0  0  0
  3  8  1  0  0  0  0
  4 10  1  0  0  0  0
  4  3  1  0  0  0  0
  4  5  1  0  0  0  0
  5  6  1  0  0  0  0
  6 14  1  0  0  0  0
  6  7  1  0  0  0  0
  6 13  1  0  0  0  0
  7 15  1  0  0  0  0
  8 17  1  1  0  0  0
  8 18  1  0  0  0  0
  8  7  1  0  0  0  0
  9  4  1  0  0  0  0
 11  5  1  0  0  0  0
 12  5  1  0  0  0  0
 16  7  1  0  0  0  0
 18 19  1  0  0  0  0
 19 20  1  0  0  0  0
 19 21  1  0  0  0  0
 21 22  1  0  0  0  0
 23 21  1  0  0  0  0
 24 23  1  0  0  0  0
 25 24  1  0  0  0  0
 26 18  1  0  0  0  0
 26 24  1  0  0  0  0
 26 27  1  0  0  0  0
 28 34  1  0  0  0  0
 29 28  1  0  0  0  0
 29  1  1  0  0  0  0
 30 29  2  0  0  0  0
 31 32  2  0  0  0  0
 31 30  1  0  0  0  0
 32 33  1  0  0  0  0
 33 28  2  0  0  0  0
 35 32  1  0  0  0  0
 36 30  1  0  0  0  0
 37 36  1  0  0  0  0
 37 42  1  0  0  0  0
 38 37  2  0  0  0  0
 39 40  2  0  0  0  0
 39 38  1  0  0  0  0
 40 41  1  0  0  0  0
 41 36  2  0  0  0  0
 43 38  1  0  0  0  0
 44 39  1  0  0  0  0
 45 40  1  0  0  0  0
M  END
>  <minimizedAffinity>
-4.67750263

>  <minimizedRMSD>
7.28110504

$$$$
