REMARK  Name = 
REMARK  3 active torsions:
REMARK  status: ('A' for Active; 'I' for Inactive)
REMARK    1  A    between atoms: C_1  and  C_8
REMARK    2  A    between atoms: N_4  and  C_13
REMARK    3  A    between atoms: C_17  and  C_31
REMARK                            x       y       z     vdW  Elec       q    Type
REMARK                         _______ _______ _______ _____ _____    ______ ____
ROOT
ATOM      1  N   UNL     1      42.347  33.730  39.648  0.00  0.00    +0.000 NA
ATOM      2  C   UNL     1      42.215  33.931  41.094  0.00  0.00    +0.000 C 
ATOM      3  C   UNL     1      41.167  34.926  41.440  0.00  0.00    +0.000 C 
ATOM      4  N   UNL     1      40.335  35.285  40.305  0.00  0.00    +0.000 NA
ATOM      5  C   UNL     1      41.052  35.643  39.126  0.00  0.00    +0.000 C 
ATOM      6  C   UNL     1      42.450  35.098  39.105  0.00  0.00    +0.000 C 
ATOM      7  H   UNL     1      43.200  33.179  39.510  0.00  0.00    +0.000 HD
ATOM      8  H   UNL     1      41.998  32.961  41.608  0.00  0.00    +0.000 HD
ATOM      9  H   UNL     1      40.447  34.551  42.214  0.00  0.00    +0.000 HD
ATOM     10  H   UNL     1      41.509  35.925  41.759  0.00  0.00    +0.000 HD
ATOM     11  H   UNL     1      39.524  34.668  40.188  0.00  0.00    +0.000 HD
ATOM     12  H   UNL     1      41.065  36.760  38.967  0.00  0.00    +0.000 HD
ATOM     13  H   UNL     1      40.513  35.251  38.238  0.00  0.00    +0.000 HD
ATOM     14  H   UNL     1      43.101  35.675  39.757  0.00  0.00    +0.000 HD
ENDROOT
BRANCH   6  15
ATOM     15  C   UNL     1      43.025  35.091  37.719  0.00  0.00    +0.000 C 
ATOM     16  C   UNL     1      43.974  33.981  37.433  0.00  0.00    +0.000 C 
ATOM     17  H   UNL     1      43.613  33.334  36.582  0.00  0.00    +0.000 HD
ATOM     18  C   UNL     1      45.290  34.574  36.914  0.00  0.00    +0.000 C 
ATOM     19  H   UNL     1      45.898  33.680  36.585  0.00  0.00    +0.000 HD
ATOM     20  O   UNL     1      45.093  35.338  35.786  0.00  0.00    +0.000 OA
ATOM     21  C   UNL     1      44.090  36.283  35.910  0.00  0.00    +0.000 C 
ATOM     22  H   UNL     1      43.198  35.834  35.382  0.00  0.00    +0.000 HD
ATOM     23  C   UNL     1      43.655  36.399  37.377  0.00  0.00    +0.000 C 
ATOM     24  H   UNL     1      42.842  37.167  37.393  0.00  0.00    +0.000 HD
ENDBRANCH   6  15
BRANCH   2  28
ATOM     25  C   UNL     1      45.631  34.614  42.038  0.00  0.00    +0.000 A 
ATOM     26  C   UNL     1      44.899  35.648  42.635  0.00  0.00    +0.000 A 
ATOM     27  C   UNL     1      43.553  35.495  42.352  0.00  0.00    +0.000 A 
ATOM     28  N   UNL     1      43.495  34.397  41.602  0.00  0.00    +0.000 N 
ATOM     29  N   UNL     1      44.705  33.883  41.419  0.00  0.00    +0.000 NA
ATOM     30  H   UNL     1      45.458  36.404  43.220  0.00  0.00    +0.000 HD
ATOM     31  H   UNL     1      42.987  36.291  42.821  0.00  0.00    +0.000 HD
BRANCH  25  34
ATOM     32  C   UNL     1      49.354  35.151  41.966  0.00  0.00    +0.000 A 
ATOM     33  C   UNL     1      47.968  35.450  41.819  0.00  0.00    +0.000 A 
ATOM     34  C   UNL     1      47.080  34.444  42.133  0.00  0.00    +0.000 A 
ATOM     35  N   UNL     1      47.544  33.245  42.557  0.00  0.00    +0.000 NA
ATOM     36  C   UNL     1      48.867  32.988  42.687  0.00  0.00    +0.000 A 
ATOM     37  N   UNL     1      49.740  33.946  42.389  0.00  0.00    +0.000 NA
ATOM     38  H   UNL     1      50.070  35.940  41.720  0.00  0.00    +0.000 HD
ATOM     39  H   UNL     1      47.604  36.399  41.483  0.00  0.00    +0.000 HD
ATOM     40  H   UNL     1      49.119  31.989  43.036  0.00  0.00    +0.000 HD
ENDBRANCH  25  34
ENDBRANCH   2  28
TORSDOF 3
