
 OpenBabel03252508393D

 42 45  0  0  0  0  0  0  0  0999 V2000
   45.1180   33.9470   40.7240 C   0  0  0  0  0  0  0  0  0  0  0  0
   44.0680   33.6320   39.9030 C   0  0  0  0  0  0  0  0  0  0  0  0
   44.3690   33.1330   38.6690 C   0  0  0  0  0  0  0  0  0  0  0  0
   45.6560   32.9320   38.2120 C   0  0  0  0  0  0  0  0  0  0  0  0
   46.6800   33.2600   39.0660 C   0  0  0  0  0  0  0  0  0  0  0  0
   46.4390   33.7650   40.3160 C   0  0  0  0  0  0  0  0  0  0  0  0
   43.5510   32.8800   38.0080 H   0  0  0  0  0  0  0  0  0  0  0  0
   45.8200   32.5290   37.2150 H   0  0  0  0  0  0  0  0  0  0  0  0
   47.6880   33.0940   38.6880 H   0  0  0  0  0  0  0  0  0  0  0  0
   40.7980   35.2920   40.7880 C   0  0  0  0  0  0  0  0  0  0  0  0
   42.0960   35.1060   40.2810 C   0  0  0  0  0  0  0  0  0  0  0  0
   42.7330   33.8570   40.4130 C   0  0  0  0  0  0  0  0  0  0  0  0
   42.0150   32.9040   41.0400 N   0  0  0  0  0  0  0  0  0  0  0  0
   40.7860   33.0920   41.5160 C   0  0  0  0  0  0  0  0  0  0  0  0
   40.1780   34.2850   41.3900 N   0  0  0  0  0  0  0  0  0  0  0  0
   40.2000   36.5500   40.6360 N   0  0  0  0  0  0  0  0  0  0  0  0
   42.6250   35.9220   39.7810 H   0  0  0  0  0  0  0  0  0  0  0  0
   40.2270   32.3060   42.0190 H   0  0  0  0  0  0  0  0  0  0  0  0
   39.3880   36.7340   39.9980 H   0  0  0  0  0  0  0  0  0  0  0  0
   40.7500   37.1610   41.2800 H   0  0  0  0  0  0  0  0  0  0  0  0
   47.5970   34.0810   41.1440 C   0  0  0  0  0  0  0  0  0  0  0  0
   48.1280   35.3450   40.9480 C   0  0  0  0  0  0  0  0  0  0  0  0
   49.2340   35.8280   41.6460 C   0  0  0  0  0  0  0  0  0  0  0  0
   49.8160   34.9980   42.5710 C   0  0  0  0  0  0  0  0  0  0  0  0
   49.2890   33.7290   42.7720 C   0  0  0  0  0  0  0  0  0  0  0  0
   48.1960   33.2620   42.0780 C   0  0  0  0  0  0  0  0  0  0  0  0
   47.7150   36.0550   40.2310 H   0  0  0  0  0  0  0  0  0  0  0  0
   49.6280   36.8190   41.4740 H   0  0  0  0  0  0  0  0  0  0  0  0
   50.6830   35.3560   43.1280 H   0  0  0  0  0  0  0  0  0  0  0  0
   49.7510   33.1010   43.4900 H   0  0  0  0  0  0  0  0  0  0  0  0
   47.6000   31.9260   42.2530 C   0  0  0  0  0  3  0  0  0  0  0  0
   48.6160   30.7990   42.2440 C   0  0  0  0  0  3  0  0  0  0  0  0
   49.4530   30.9970   42.9490 H   0  0  0  0  0  0  0  0  0  0  0  0
   47.8530   29.5910   42.8070 C   0  0  0  0  0  3  0  0  0  0  0  0
   46.7760   29.6300   42.5360 H   0  0  0  0  0  0  0  0  0  0  0  0
   47.8960   29.7350   44.2060 O   0  0  0  0  0  0  0  0  0  0  0  0
   47.6080   31.0170   44.6040 C   0  0  0  0  0  3  0  0  0  0  0  0
   48.4990   31.5090   45.0340 H   0  0  0  0  0  0  0  0  0  0  0  0
   46.8700   31.8280   43.5800 C   0  0  0  0  0  3  0  0  0  0  0  0
   46.7080   32.8390   44.0040 H   0  0  0  0  0  0  0  0  0  0  0  0
   44.7070   34.9200   43.1130 N   0  0  0  0  0  0  0  0  0  0  0  0
   44.8910   34.4780   42.0380 C   0  0  0  0  0  0  0  0  0  0  0  0
  1 42  1  0  0  0  0
  2 12  1  0  0  0  0
  2  1  2  0  0  0  0
  3  2  1  0  0  0  0
  4  3  2  0  0  0  0
  4  5  1  0  0  0  0
  5  6  2  0  0  0  0
  6  1  1  0  0  0  0
  6 21  1  0  0  0  0
  7  3  1  0  0  0  0
  8  4  1  0  0  0  0
  9  5  1  0  0  0  0
 10 15  1  0  0  0  0
 11 12  1  0  0  0  0
 11 10  2  0  0  0  0
 12 13  2  0  0  0  0
 13 14  1  0  0  0  0
 14 18  1  0  0  0  0
 15 14  2  0  0  0  0
 16 10  1  0  0  0  0
 16 20  1  0  0  0  0
 17 11  1  0  0  0  0
 19 16  1  0  0  0  0
 21 26  1  0  0  0  0
 22 21  2  0  0  0  0
 22 23  1  0  0  0  0
 23 24  2  0  0  0  0
 24 25  1  0  0  0  0
 24 29  1  0  0  0  0
 25 30  1  0  0  0  0
 26 31  1  0  0  0  0
 26 25  2  0  0  0  0
 27 22  1  0  0  0  0
 28 23  1  0  0  0  0
 31 39  1  0  0  0  0
 32 31  1  0  0  0  0
 32 34  1  0  0  0  0
 32 33  1  0  0  0  0
 34 36  1  0  0  0  0
 35 34  1  0  0  0  0
 36 37  1  0  0  0  0
 37 38  1  0  0  0  0
 39 40  1  0  0  0  0
 39 37  1  0  0  0  0
 42 41  3  0  0  0  0
M  END
>  <minimizedAffinity>
-6.14223576

>  <minimizedRMSD>
1.05244315

$$$$
