
     RDKit          3D

 45 48  0  0  0  0  0  0  0  0999 V2000
   47.1463   31.2760   46.7188 C   0  0  0  0  0  0  0  0  0  0  0  0
   46.7740   31.7739   48.0955 C   0  0  1  0  0  0  0  0  0  0  0  0
   46.1795   30.7688   49.0194 C   0  0  0  0  0  0  0  0  0  0  0  0
   47.5175   31.2671   49.2729 C   0  0  1  0  0  0  0  0  0  0  0  0
   48.7673   30.5070   49.0373 C   0  0  0  0  0  0  0  0  0  0  0  0
   49.6123   30.2418   50.3166 C   0  0  0  0  0  0  0  0  0  0  0  0
   50.0823   31.2642   49.3666 C   0  0  0  0  0  0  0  0  0  0  0  0
   45.9110   33.1259   45.9103 C   0  0  0  0  0  0  0  0  0  0  0  0
   46.9254   32.3830   45.6949 C   0  0  0  0  0  0  0  0  0  0  0  0
   44.5150   36.1616   44.3585 C   0  0  0  0  0  0  0  0  0  0  0  0
   45.1346   36.2054   43.1165 C   0  0  0  0  0  0  0  0  0  0  0  0
   46.0308   35.1890   42.8366 C   0  0  0  0  0  0  0  0  0  0  0  0
   46.2285   34.2533   43.7728 N   0  0  0  0  0  0  0  0  0  0  0  0
   45.6369   34.2071   44.9636 C   0  0  0  0  0  0  0  0  0  0  0  0
   44.7767   35.1899   45.2237 N   0  0  0  0  0  0  0  0  0  0  0  0
   48.1673   30.8816   46.6433 H   0  0  0  0  0  0  0  0  0  0  0  0
   46.4356   30.4757   46.4390 H   0  0  0  0  0  0  0  0  0  0  0  0
   46.4055   32.8149   48.1494 H   0  0  0  0  0  0  0  0  0  0  0  0
   46.0478   29.7248   48.6576 H   0  0  0  0  0  0  0  0  0  0  0  0
   45.3373   31.0705   49.6908 H   0  0  0  0  0  0  0  0  0  0  0  0
   47.6136   31.9947   50.1363 H   0  0  0  0  0  0  0  0  0  0  0  0
   48.8348   29.7475   48.2370 H   0  0  0  0  0  0  0  0  0  0  0  0
   49.1980   30.6079   51.2776 H   0  0  0  0  0  0  0  0  0  0  0  0
   50.1506   29.2691   50.3098 H   0  0  0  0  0  0  0  0  0  0  0  0
   49.9639   32.3357   49.6124 H   0  0  0  0  0  0  0  0  0  0  0  0
   50.9262   31.0733   48.6581 H   0  0  0  0  0  0  0  0  0  0  0  0
   45.1624   33.0964   46.7214 H   0  0  0  0  0  0  0  0  0  0  0  0
   47.5720   32.5445   44.8383 H   0  0  0  0  0  0  0  0  0  0  0  0
   43.8120   36.9450   44.5983 H   0  0  0  0  0  0  0  0  0  0  0  0
   44.9684   36.9579   42.3761 H   0  0  0  0  0  0  0  0  0  0  0  0
   46.7758   35.0742   41.5795 C   0  0  2  0  0  0  0  0  0  0  0  0
   47.9593   34.1058   41.7085 C   0  0  1  0  0  0  0  0  0  0  0  0
   48.7696   34.5557   42.2885 H   0  0  0  0  0  0  0  0  0  0  0  0
   48.4234   33.8733   40.2826 C   0  0  1  0  0  0  0  0  0  0  0  0
   49.4861   33.5922   40.2852 H   0  0  0  0  0  0  0  0  0  0  0  0
   48.0815   34.9012   39.4399 O   0  0  0  0  0  0  0  0  0  0  0  0
   48.2115   36.1731   39.9748 C   0  0  2  0  0  0  0  0  0  0  0  0
   47.7860   36.8648   39.1953 H   0  0  0  0  0  0  0  0  0  0  0  0
   47.4128   36.4039   41.2241 C   0  0  2  0  0  0  0  0  0  0  0  0
   48.1438   36.6353   42.0455 H   0  0  0  0  0  0  0  0  0  0  0  0
   46.1447   34.7204   40.7342 H   0  0  0  0  0  0  0  0  0  0  0  0
   47.6564   33.1647   42.2247 H   0  0  0  0  0  0  0  0  0  0  0  0
   47.8630   32.9569   39.9341 H   0  0  0  0  0  0  0  0  0  0  0  0
   49.2689   36.4824   40.0918 H   0  0  0  0  0  0  0  0  0  0  0  0
   46.6594   37.2075   41.1353 H   0  0  0  0  0  0  0  0  0  0  0  0
  1  2  1  0
  2  3  1  0
  2  4  1  0
  3  4  1  0
  5  4  1  0
  5  7  1  0
  5  6  1  0
  7  6  1  0
  9  8  2  0
  9  1  1  0
 10 15  2  0
 11 10  1  0
 12 11  2  0
 12 13  1  0
 13 14  2  0
 14 15  1  0
 14  8  1  0
  1 16  1  0
  1 17  1  0
  2 18  1  6
  3 19  1  0
  3 20  1  0
  4 21  1  1
  5 22  1  0
  6 23  1  0
  6 24  1  0
  7 25  1  0
  7 26  1  0
  8 27  1  0
  9 28  1  0
 10 29  1  0
 11 30  1  0
 31 32  1  0
 32 33  1  1
 32 34  1  0
 34 35  1  1
 34 36  1  0
 36 37  1  0
 37 38  1  6
 37 39  1  0
 39 40  1  1
 39 31  1  0
 31 41  1  6
 32 42  1  0
 34 43  1  0
 37 44  1  0
 39 45  1  0
 12 31  1  0
M  ISO  8  16   8  17   8  18  13  19  13  20  13  21  13  22  13  23  13
M  ISO  8  24  13  25  13  26  13  29  14  30  14  33  15  35  15  38  15
M  ISO  1  40  15
M  END
>  <DihAtoms>  (1) 
10,11,30,31

>  <DihDeg>  (1) 
58.775526726135816

$$$$
