
     RDKit          3D

 30 31  0  0  0  0  0  0  0  0999 V2000
   44.5545   36.0437   44.4866 C   0  0  0  0  0  0  0  0  0  0  0  0
   45.2109   35.9430   43.2488 C   0  0  0  0  0  0  0  0  0  0  0  0
   46.0810   34.8749   43.0166 C   0  0  0  0  0  0  0  0  0  0  0  0
   46.2419   33.9704   44.0388 N   0  0  0  0  0  0  0  0  0  0  0  0
   45.5986   34.1040   45.1995 C   0  0  0  0  0  0  0  0  0  0  0  0
   44.7624   35.1169   45.4433 N   0  0  0  0  0  0  0  0  0  0  0  0
   46.7778   34.7634   41.7130 C   0  0  0  0  0  0  0  0  0  0  0  0
   48.1908   35.3087   41.8944 C   0  0  0  0  0  0  0  0  0  0  0  0
   43.9046   36.9022   44.5689 H   0  0  0  0  0  0  0  0  0  0  0  0
   45.0630   36.6668   42.4712 H   0  0  0  0  0  0  0  0  0  0  0  0
   45.8158   33.3179   45.9241 H   0  0  0  0  0  0  0  0  0  0  0  0
   46.2223   35.3543   40.9800 H   0  0  0  0  0  0  0  0  0  0  0  0
   46.8335   33.7242   41.3349 H   0  0  0  0  0  0  0  0  0  0  0  0
   48.1343   36.3665   42.2237 H   0  0  0  0  0  0  0  0  0  0  0  0
   48.7233   34.7324   42.6680 H   0  0  0  0  0  0  0  0  0  0  0  0
   48.9891   35.2412   40.6212 C   0  0  2  0  0  0  0  0  0  0  0  0
   49.1590   36.5611   39.9554 C   0  0  2  0  0  0  0  0  0  0  0  0
   50.1848   36.9889   40.0735 H   0  0  0  0  0  0  0  0  0  0  0  0
   48.7369   36.6054   38.5280 C   0  0  2  0  0  0  0  0  0  0  0  0
   49.3549   37.3958   38.0152 H   0  0  0  0  0  0  0  0  0  0  0  0
   48.8590   35.4813   37.7854 O   0  0  0  0  0  0  0  0  0  0  0  0
   49.0030   34.2851   38.4147 C   0  0  1  0  0  0  0  0  0  0  0  0
   48.5165   33.4840   37.7848 H   0  0  0  0  0  0  0  0  0  0  0  0
   48.2313   34.2761   39.7081 C   0  0  1  0  0  0  0  0  0  0  0  0
   48.1520   33.2955   40.1900 H   0  0  0  0  0  0  0  0  0  0  0  0
   49.9902   34.8040   40.7900 H   0  0  0  0  0  0  0  0  0  0  0  0
   48.4953   37.2833   40.5130 H   0  0  0  0  0  0  0  0  0  0  0  0
   47.6808   36.9843   38.4326 H   0  0  0  0  0  0  0  0  0  0  0  0
   50.0581   33.9695   38.5575 H   0  0  0  0  0  0  0  0  0  0  0  0
   47.2530   34.7804   39.5229 H   0  0  0  0  0  0  0  0  0  0  0  0
  1  6  2  0
  2  1  1  0
  3  2  2  0
  3  4  1  0
  4  5  2  0
  5  6  1  0
  7  8  1  0
  7  3  1  0
  1  9  1  0
  2 10  1  0
  5 11  1  0
  7 12  1  0
  7 13  1  0
  8 14  1  0
  8 15  1  0
 16 17  1  0
 17 18  1  6
 17 19  1  0
 19 20  1  6
 19 21  1  0
 21 22  1  0
 22 23  1  6
 22 24  1  0
 24 25  1  1
 24 16  1  0
 16 26  1  1
 17 27  1  0
 19 28  1  0
 22 29  1  0
 24 30  1  0
  8 16  1  0
M  ISO  8   9  14  10  14  11  14  12   8  13   8  14   8  15   8  18  15
M  ISO  3  20  15  23  15  25  15
M  END
>  <DihAtoms>  (1) 
6,7,15,16

>  <DihDeg>  (1) 
-60.00695494927667

$$$$
