
 OpenBabel03252505113D

 45 48  0  0  1  0  0  0  0  0999 V2000
   44.5500   35.5480   44.5850 C   0  0  0  0  0  0  0  0  0  0  0  0
   45.2460   35.5880   43.3560 C   0  0  0  0  0  0  0  0  0  0  0  0
   46.3700   34.7100   43.1960 C   0  0  0  0  0  0  0  0  0  0  0  0
   46.7040   33.8960   44.2220 N   0  0  0  0  0  0  0  0  0  0  0  0
   46.0190   33.8870   45.3750 C   0  0  0  0  0  0  0  0  0  0  0  0
   44.9410   34.7090   45.5660 N   0  0  0  0  0  0  0  0  0  0  0  0
   43.6990   36.2070   44.7200 H   0  0  0  0  0  0  0  0  0  0  0  0
   44.9470   36.2550   42.5570 H   0  0  0  0  0  0  0  0  0  0  0  0
   46.4370   32.9680   46.4700 C   0  0  2  0  0  0  0  0  0  0  0  0
   46.9540   31.7310   45.7680 C   0  0  0  0  0  0  0  0  0  0  0  0
   46.0770   30.5530   45.7880 C   0  0  0  0  0  0  0  0  0  0  0  0
   45.7710   30.2860   47.2560 C   0  0  0  0  0  0  0  0  0  0  0  0
   44.9930   31.3680   47.8550 C   0  0  0  0  0  0  0  0  0  0  0  0
   45.3800   32.7320   47.4120 C   0  0  0  0  0  0  0  0  0  0  0  0
   47.2840   33.4910   46.9720 H   0  0  0  0  0  0  0  0  0  0  0  0
   47.9130   31.4550   46.2560 H   0  0  0  0  0  0  0  0  0  0  0  0
   47.2370   31.9220   44.7020 H   0  0  0  0  0  0  0  0  0  0  0  0
   46.6690   29.6820   45.4530 H   0  0  0  0  0  0  0  0  0  0  0  0
   45.1640   30.6390   45.1860 H   0  0  0  0  0  0  0  0  0  0  0  0
   45.0800   29.4100   47.2350 H   0  0  0  0  0  0  0  0  0  0  0  0
   46.7130   30.0650   47.7620 H   0  0  0  0  0  0  0  0  0  0  0  0
   44.1930   31.3750   48.5540 H   0  0  0  0  0  0  0  0  0  0  0  0
   44.6930   33.8680   47.9260 N   0  0  0  0  0  0  0  0  0  0  0  0
   45.2650   34.5400   48.4890 H   0  0  0  0  0  0  0  0  0  0  0  0
   43.6940   33.7770   47.6050 H   0  0  0  0  0  0  0  0  0  0  0  0
   47.0950   34.7300   41.9410 C   0  0  0  0  0  0  0  0  0  0  0  0
   48.2250   35.4990   41.8600 C   0  0  0  0  0  0  0  0  0  0  0  0
   48.8800   35.4730   40.6130 C   0  0  0  0  0  0  0  0  0  0  0  0
   48.3280   34.6930   39.6230 C   0  0  0  0  0  0  0  0  0  0  0  0
   47.2110   33.9330   39.7040 C   0  0  0  0  0  0  0  0  0  0  0  0
   46.5970   33.9790   40.9260 N   0  0  0  0  0  0  0  0  0  0  0  0
   48.5470   36.0630   42.7130 H   0  0  0  0  0  0  0  0  0  0  0  0
   49.7670   36.0700   40.5350 H   0  0  0  0  0  0  0  0  0  0  0  0
   48.9190   34.7570   38.7230 H   0  0  0  0  0  0  0  0  0  0  0  0
   46.7090   33.1740   38.6780 O   0  0  0  0  0  0  0  0  0  0  0  0
   46.7860   33.4090   37.3190 C   0  0  0  0  0  0  0  0  0  0  0  0
   45.4060   33.2050   36.7280 C   0  0  0  0  0  0  0  0  0  0  0  0
   45.2580   33.8950   35.8860 H   0  0  0  0  0  0  0  0  0  0  0  0
   45.1770   31.7610   36.3860 C   0  0  0  0  0  0  0  0  0  0  0  0
   44.1890   31.6200   35.9500 H   0  0  0  0  0  0  0  0  0  0  0  0
   46.1940   31.3080   35.5260 O   0  0  0  0  0  0  0  0  0  0  0  0
   47.3190   31.1740   36.3720 C   0  0  0  0  0  0  0  0  0  0  0  0
   46.9550   30.7210   37.3070 H   0  0  0  0  0  0  0  0  0  0  0  0
   47.8220   32.5590   36.6160 C   0  0  0  0  0  0  0  0  0  0  0  0
   48.6960   32.4710   37.2950 H   0  0  0  0  0  0  0  0  0  0  0  0
  1  7  1  0  0  0  0
  1  6  1  0  0  0  0
  2  1  2  0  0  0  0
  3  2  1  0  0  0  0
  3  4  2  0  0  0  0
  4  5  1  0  0  0  0
  5  6  2  0  0  0  0
  5  9  1  0  0  0  0
  8  2  1  0  0  0  0
  9 15  1  1  0  0  0
  9 14  1  0  0  0  0
 10 11  1  0  0  0  0
 10 16  1  0  0  0  0
 10  9  1  0  0  0  0
 11 12  1  0  0  0  0
 12 21  1  0  0  0  0
 12 13  1  0  0  0  0
 13 22  1  0  0  0  0
 14 13  2  0  0  0  0
 14 23  1  0  0  0  0
 17 10  1  0  0  0  0
 18 11  1  0  0  0  0
 19 11  1  0  0  0  0
 20 12  1  0  0  0  0
 23 24  1  0  0  0  0
 25 23  1  0  0  0  0
 26  3  1  0  0  0  0
 27 26  1  0  0  0  0
 27 32  1  0  0  0  0
 28 27  2  0  0  0  0
 29 30  2  0  0  0  0
 29 28  1  0  0  0  0
 30 31  1  0  0  0  0
 31 26  2  0  0  0  0
 33 28  1  0  0  0  0
 34 29  1  0  0  0  0
 35 30  1  0  0  0  0
 36 35  1  0  0  0  0
 37 36  1  0  0  0  0
 38 37  1  0  0  0  0
 39 37  1  0  0  0  0
 40 39  1  0  0  0  0
 41 42  1  0  0  0  0
 41 39  1  0  0  0  0
 42 44  1  0  0  0  0
 42 43  1  0  0  0  0
 44 45  1  0  0  0  0
 44 36  1  0  0  0  0
M  END
>  <minimizedAffinity>
-7.24061823

>  <minimizedRMSD>
1.25501311

$$$$
