
 OpenBabel03252506463D

 43 46  0  0  1  0  0  0  0  0999 V2000
   49.4290   33.3790   41.3870 N   0  0  1  0  0  0  0  0  0  0  0  0
   50.6860   33.0770   42.0580 C   0  0  0  0  0  0  0  0  0  0  0  0
   51.2670   31.7550   41.6560 C   0  0  0  0  0  0  0  0  0  0  0  0
   50.3620   30.6560   42.1910 C   0  0  0  0  0  0  0  0  0  0  0  0
   48.9140   31.0710   42.0830 C   0  0  0  0  0  0  0  0  0  0  0  0
   48.7790   32.1580   41.0450 C   0  0  2  0  0  0  0  0  0  0  0  0
   50.5870   33.0700   43.1590 H   0  0  0  0  0  0  0  0  0  0  0  0
   51.4050   33.8850   41.7990 H   0  0  0  0  0  0  0  0  0  0  0  0
   52.2520   31.6820   42.1530 H   0  0  0  0  0  0  0  0  0  0  0  0
   51.4130   31.6640   40.5550 H   0  0  0  0  0  0  0  0  0  0  0  0
   50.6490   30.3420   43.2070 H   0  0  0  0  0  0  0  0  0  0  0  0
   50.5320   29.7830   41.5280 H   0  0  0  0  0  0  0  0  0  0  0  0
   48.2440   30.2480   41.8700 H   0  0  0  0  0  0  0  0  0  0  0  0
   48.6410   31.5230   43.0710 H   0  0  0  0  0  0  0  0  0  0  0  0
   47.6840   32.3930   40.9900 H   0  0  0  0  0  0  0  0  0  0  0  0
   47.3030   34.7000   41.9770 C   0  0  1  0  0  0  0  0  0  0  0  0
   48.4160   35.6110   41.7390 C   0  0  0  0  0  0  0  0  0  0  0  0
   48.7160   34.2490   42.2670 C   0  0  2  0  0  0  0  0  0  0  0  0
   46.8540   34.1110   41.1330 H   0  0  0  0  0  0  0  0  0  0  0  0
   48.6970   35.8480   40.6870 H   0  0  0  0  0  0  0  0  0  0  0  0
   48.5450   36.4850   42.4220 H   0  0  0  0  0  0  0  0  0  0  0  0
   48.9750   34.1830   43.3430 H   0  0  0  0  0  0  0  0  0  0  0  0
   45.5460   36.0540   43.1450 C   0  0  0  0  0  0  0  0  0  0  0  0
   46.3720   34.9050   43.0940 C   0  0  0  0  0  0  0  0  0  0  0  0
   46.2600   33.9910   44.1400 C   0  0  0  0  0  0  0  0  0  0  0  0
   45.3760   34.2530   45.1310 N   0  0  0  0  0  0  0  0  0  0  0  0
   44.6030   35.3460   45.1600 C   0  0  0  0  0  0  0  0  0  0  0  0
   44.6790   36.2640   44.1640 N   0  0  0  0  0  0  0  0  0  0  0  0
   45.6090   36.7940   42.3370 H   0  0  0  0  0  0  0  0  0  0  0  0
   46.8780   33.0920   44.1420 H   0  0  0  0  0  0  0  0  0  0  0  0
   43.8950   35.5610   45.9500 H   0  0  0  0  0  0  0  0  0  0  0  0
   49.1490   31.6640   39.7530 N   0  0  0  0  0  0  0  0  0  0  0  0
   50.0240   31.1080   39.8370 H   0  0  0  0  0  0  0  0  0  0  0  0
   49.0700   32.5540   38.6800 C   0  0  0  0  0  3  0  0  0  0  0  0
   47.5920   32.8760   38.4470 C   0  0  0  0  0  3  0  0  0  0  0  0
   47.4820   33.8160   37.8960 H   0  0  0  0  0  0  0  0  0  0  0  0
   46.9460   31.7820   37.5990 C   0  0  0  0  0  3  0  0  0  0  0  0
   45.9140   32.1100   37.3910 H   0  0  0  0  0  0  0  0  0  0  0  0
   47.6020   31.6010   36.3840 O   0  0  0  0  0  0  0  0  0  0  0  0
   48.8540   31.0430   36.6830 C   0  0  0  0  0  3  0  0  0  0  0  0
   48.7810   30.1300   37.3010 H   0  0  0  0  0  0  0  0  0  0  0  0
   49.6460   32.1470   37.3730 C   0  0  0  0  0  3  0  0  0  0  0  0
   49.5290   33.0370   36.6990 H   0  0  0  0  0  0  0  0  0  0  0  0
  1  2  1  1  0  0  0
  1 18  1  0  0  0  0
  2  7  1  0  0  0  0
  3  2  1  0  0  0  0
  3  9  1  0  0  0  0
  3  4  1  0  0  0  0
  4 11  1  0  0  0  0
  5  4  1  0  0  0  0
  5 14  1  0  0  0  0
  6 15  1  6  0  0  0
  6  1  1  0  0  0  0
  6  5  1  0  0  0  0
  8  2  1  0  0  0  0
 10  3  1  0  0  0  0
 12  4  1  0  0  0  0
 13  5  1  0  0  0  0
 16 19  1  6  0  0  0
 16 18  1  0  0  0  0
 16 24  1  0  0  0  0
 17 16  1  0  0  0  0
 17 18  1  0  0  0  0
 17 21  1  0  0  0  0
 18 22  1  1  0  0  0
 20 17  1  0  0  0  0
 23 28  1  0  0  0  0
 24 23  2  0  0  0  0
 24 25  1  0  0  0  0
 25 30  1  0  0  0  0
 25 26  2  0  0  0  0
 26 27  1  0  0  0  0
 27 31  1  0  0  0  0
 28 27  2  0  0  0  0
 29 23  1  0  0  0  0
 32 33  1  0  0  0  0
 32  6  1  0  0  0  0
 34 32  1  0  0  0  0
 35 34  1  0  0  0  0
 36 35  1  0  0  0  0
 37 35  1  0  0  0  0
 38 37  1  0  0  0  0
 39 40  1  0  0  0  0
 39 37  1  0  0  0  0
 40 41  1  0  0  0  0
 40 42  1  0  0  0  0
 42 34  1  0  0  0  0
 43 42  1  0  0  0  0
M  END
>  <minimizedAffinity>
-4.97757006

>  <minimizedRMSD>
2.44087553

$$$$
