
 OpenBabel03252508393D

 42 45  0  0  0  0  0  0  0  0999 V2000
   45.1790   33.9380   40.6930 C   0  0  0  0  0  0  0  0  0  0  0  0
   44.1240   33.6320   39.8750 C   0  0  0  0  0  0  0  0  0  0  0  0
   44.4170   33.1460   38.6340 C   0  0  0  0  0  0  0  0  0  0  0  0
   45.7010   32.9490   38.1670 C   0  0  0  0  0  0  0  0  0  0  0  0
   46.7310   33.2680   39.0180 C   0  0  0  0  0  0  0  0  0  0  0  0
   46.4970   33.7590   40.2750 C   0  0  0  0  0  0  0  0  0  0  0  0
   43.5940   32.9000   37.9760 H   0  0  0  0  0  0  0  0  0  0  0  0
   45.8590   32.5570   37.1650 H   0  0  0  0  0  0  0  0  0  0  0  0
   47.7360   33.1050   38.6320 H   0  0  0  0  0  0  0  0  0  0  0  0
   40.8510   35.2760   40.7780 C   0  0  0  0  0  0  0  0  0  0  0  0
   42.1450   35.0950   40.2610 C   0  0  0  0  0  0  0  0  0  0  0  0
   42.7920   33.8520   40.3960 C   0  0  0  0  0  0  0  0  0  0  0  0
   42.0870   32.8980   41.0370 N   0  0  0  0  0  0  0  0  0  0  0  0
   40.8600   33.0820   41.5230 C   0  0  0  0  0  0  0  0  0  0  0  0
   40.2440   34.2700   41.3930 N   0  0  0  0  0  0  0  0  0  0  0  0
   40.2440   36.5290   40.6230 N   0  0  0  0  0  0  0  0  0  0  0  0
   42.6650   35.9110   39.7500 H   0  0  0  0  0  0  0  0  0  0  0  0
   40.3120   32.2970   42.0360 H   0  0  0  0  0  0  0  0  0  0  0  0
   39.4240   36.7040   39.9910 H   0  0  0  0  0  0  0  0  0  0  0  0
   40.7950   37.1490   41.2560 H   0  0  0  0  0  0  0  0  0  0  0  0
   47.6600   34.0650   41.1000 C   0  0  0  0  0  0  0  0  0  0  0  0
   48.1180   35.3690   41.0020 C   0  0  0  0  0  0  0  0  0  0  0  0
   49.2170   35.8500   41.7130 C   0  0  0  0  0  0  0  0  0  0  0  0
   49.8690   34.9770   42.5460 C   0  0  0  0  0  0  0  0  0  0  0  0
   49.4160   33.6680   42.6480 C   0  0  0  0  0  0  0  0  0  0  0  0
   48.3290   33.2030   41.9430 C   0  0  0  0  0  0  0  0  0  0  0  0
   47.6480   36.1150   40.3600 H   0  0  0  0  0  0  0  0  0  0  0  0
   49.5530   36.8720   41.6190 H   0  0  0  0  0  0  0  0  0  0  0  0
   50.7310   35.3330   43.1120 H   0  0  0  0  0  0  0  0  0  0  0  0
   49.9310   33.0070   43.2970 H   0  0  0  0  0  0  0  0  0  0  0  0
   47.8090   31.8260   42.0140 C   0  0  0  0  0  3  0  0  0  0  0  0
   46.4060   31.6760   41.4540 C   0  0  0  0  0  3  0  0  0  0  0  0
   46.3210   32.1210   40.4380 H   0  0  0  0  0  0  0  0  0  0  0  0
   46.2240   30.1630   41.2790 C   0  0  0  0  0  3  0  0  0  0  0  0
   46.7860   29.5950   42.0510 H   0  0  0  0  0  0  0  0  0  0  0  0
   46.8390   29.8460   40.0540 O   0  0  0  0  0  0  0  0  0  0  0  0
   48.0690   30.4430   39.9240 C   0  0  0  0  0  3  0  0  0  0  0  0
   48.0530   31.2160   39.1350 H   0  0  0  0  0  0  0  0  0  0  0  0
   48.6850   30.8740   41.2210 C   0  0  0  0  0  3  0  0  0  0  0  0
   49.6590   31.3500   40.9910 H   0  0  0  0  0  0  0  0  0  0  0  0
   44.7840   34.8840   43.0950 N   0  0  0  0  0  0  0  0  0  0  0  0
   44.9600   34.4540   42.0140 C   0  0  0  0  0  0  0  0  0  0  0  0
  1 42  1  0  0  0  0
  2 12  1  0  0  0  0
  2  1  2  0  0  0  0
  3  2  1  0  0  0  0
  4  3  2  0  0  0  0
  4  5  1  0  0  0  0
  5  6  2  0  0  0  0
  6  1  1  0  0  0  0
  6 21  1  0  0  0  0
  7  3  1  0  0  0  0
  8  4  1  0  0  0  0
  9  5  1  0  0  0  0
 10 15  1  0  0  0  0
 11 12  1  0  0  0  0
 11 10  2  0  0  0  0
 12 13  2  0  0  0  0
 13 14  1  0  0  0  0
 14 18  1  0  0  0  0
 15 14  2  0  0  0  0
 16 10  1  0  0  0  0
 16 20  1  0  0  0  0
 17 11  1  0  0  0  0
 19 16  1  0  0  0  0
 21 26  1  0  0  0  0
 22 21  2  0  0  0  0
 22 23  1  0  0  0  0
 23 24  2  0  0  0  0
 24 25  1  0  0  0  0
 24 29  1  0  0  0  0
 25 30  1  0  0  0  0
 26 31  1  0  0  0  0
 26 25  2  0  0  0  0
 27 22  1  0  0  0  0
 28 23  1  0  0  0  0
 32 31  1  0  0  0  0
 33 32  1  0  0  0  0
 34 32  1  0  0  0  0
 34 35  1  0  0  0  0
 36 34  1  0  0  0  0
 37 36  1  0  0  0  0
 37 39  1  0  0  0  0
 38 37  1  0  0  0  0
 39 31  1  0  0  0  0
 40 39  1  0  0  0  0
 42 41  3  0  0  0  0
M  END
>  <minimizedAffinity>
-5.92860985

>  <minimizedRMSD>
0.660184264

$$$$
