REMARK  Name = 
REMARK  4 active torsions:
REMARK  status: ('A' for Active; 'I' for Inactive)
REMARK    1  A    between atoms: N_1  and  C_9
REMARK    2  A    between atoms: C_6  and  N_16
REMARK    3  A    between atoms: C_7  and  C_11
REMARK    4  A    between atoms: N_16  and  C_34
REMARK                            x       y       z     vdW  Elec       q    Type
REMARK                         _______ _______ _______ _____ _____    ______ ____
ROOT
ATOM      1  N   UNL     1      49.321  33.211  41.485  0.00  0.00    +0.000 NA
ATOM      2  C   UNL     1      50.666  33.119  42.035  0.00  0.00    +0.000 C 
ATOM      3  C   UNL     1      51.331  31.805  41.752  0.00  0.00    +0.000 C 
ATOM      4  C   UNL     1      50.603  30.726  42.539  0.00  0.00    +0.000 C 
ATOM      5  C   UNL     1      49.118  30.997  42.550  0.00  0.00    +0.000 C 
ATOM      6  C   UNL     1      48.764  31.903  41.396  0.00  0.00    +0.000 C 
ATOM      7  H   UNL     1      50.687  33.267  43.130  0.00  0.00    +0.000 HD
ATOM      8  H   UNL     1      51.269  33.937  41.582  0.00  0.00    +0.000 HD
ATOM      9  H   UNL     1      52.366  31.890  42.132  0.00  0.00    +0.000 HD
ATOM     10  H   UNL     1      51.366  31.564  40.664  0.00  0.00    +0.000 HD
ATOM     11  H   UNL     1      51.028  30.591  43.546  0.00  0.00    +0.000 HD
ATOM     12  H   UNL     1      50.788  29.781  41.987  0.00  0.00    +0.000 HD
ATOM     13  H   UNL     1      48.515  30.098  42.535  0.00  0.00    +0.000 HD
ATOM     14  H   UNL     1      48.908  31.566  43.492  0.00  0.00    +0.000 HD
ATOM     15  H   UNL     1      47.651  32.034  41.441  0.00  0.00    +0.000 HD
ENDROOT
BRANCH   1  18
ATOM     16  C   UNL     1      47.201  34.563  42.026  0.00  0.00    +0.000 C 
ATOM     17  C   UNL     1      48.304  35.459  41.699  0.00  0.00    +0.000 C 
ATOM     18  C   UNL     1      48.622  34.139  42.316  0.00  0.00    +0.000 C 
ATOM     19  H   UNL     1      46.737  33.913  41.237  0.00  0.00    +0.000 HD
ATOM     20  H   UNL     1      48.560  35.621  40.627  0.00  0.00    +0.000 HD
ATOM     21  H   UNL     1      48.443  36.380  42.315  0.00  0.00    +0.000 HD
ATOM     22  H   UNL     1      48.905  34.151  43.388  0.00  0.00    +0.000 HD
BRANCH  16  24
ATOM     23  C   UNL     1      45.521  36.030  43.170  0.00  0.00    +0.000 A 
ATOM     24  C   UNL     1      46.294  34.844  43.146  0.00  0.00    +0.000 A 
ATOM     25  C   UNL     1      46.153  33.968  44.221  0.00  0.00    +0.000 A 
ATOM     26  N   UNL     1      45.293  34.300  45.213  0.00  0.00    +0.000 NA
ATOM     27  C   UNL     1      44.571  35.427  45.216  0.00  0.00    +0.000 A 
ATOM     28  N   UNL     1      44.676  36.310  44.191  0.00  0.00    +0.000 NA
ATOM     29  H   UNL     1      45.608  36.742  42.339  0.00  0.00    +0.000 HD
ATOM     30  H   UNL     1      46.729  33.042  44.244  0.00  0.00    +0.000 HD
ATOM     31  H   UNL     1      43.883  35.698  46.006  0.00  0.00    +0.000 HD
ENDBRANCH  16  24
ENDBRANCH   1  18
BRANCH   6  32
ATOM     32  N   UNL     1      49.041  31.255  40.149  0.00  0.00    +0.000 NA
ATOM     33  H   UNL     1      49.051  31.965  39.389  0.00  0.00    +0.000 HD
BRANCH  32  34
ATOM     34  C   UNL     1      48.369  30.060  39.885  0.00  0.00    +0.000 C 
ATOM     35  C   UNL     1      47.767  29.560  41.200  0.00  0.00    +0.000 C 
ATOM     36  H   UNL     1      46.944  28.862  41.010  0.00  0.00    +0.000 HD
ATOM     37  C   UNL     1      48.821  28.800  42.001  0.00  0.00    +0.000 C 
ATOM     38  H   UNL     1      48.311  28.391  42.889  0.00  0.00    +0.000 HD
ATOM     39  O   UNL     1      49.367  27.739  41.282  0.00  0.00    +0.000 OA
ATOM     40  C   UNL     1      50.131  28.305  40.250  0.00  0.00    +0.000 C 
ATOM     41  H   UNL     1      50.874  29.036  40.617  0.00  0.00    +0.000 HD
ATOM     42  C   UNL     1      49.130  28.932  39.288  0.00  0.00    +0.000 C 
ATOM     43  H   UNL     1      48.375  28.121  39.104  0.00  0.00    +0.000 HD
ENDBRANCH  32  34
ENDBRANCH   6  32
TORSDOF 4
