REMARK  Name = 
REMARK  10 active torsions:
REMARK  status: ('A' for Active; 'I' for Inactive)
REMARK    1  A    between atoms: C_1  and  N_2
REMARK    2  A    between atoms: C_1  and  S_8
REMARK    3  A    between atoms: N_2  and  S_3
REMARK    4  A    between atoms: S_3  and  O_4
REMARK    5  A    between atoms: S_3  and  O_5
REMARK    6  A    between atoms: S_3  and  O_6
REMARK    7  A    between atoms: O_6  and  C_7
REMARK    8  A    between atoms: S_8  and  C_10
REMARK    9  A    between atoms: C_13  and  O_15
REMARK   10  A    between atoms: O_15  and  C_26
REMARK                            x       y       z     vdW  Elec       q    Type
REMARK                         _______ _______ _______ _____ _____    ______ ____
ROOT
ATOM      1  C   UNL     1      40.883  33.034  41.373  0.00  0.00    +0.000 A 
ATOM      2  C   UNL     1      41.632  33.965  40.680  0.00  0.00    +0.000 A 
ATOM      3  C   UNL     1      41.045  34.798  39.733  0.00  0.00    +0.000 A 
ATOM      4  N   UNL     1      39.714  34.657  39.521  0.00  0.00    +0.000 NA
ATOM      5  C   UNL     1      39.003  33.737  40.214  0.00  0.00    +0.000 A 
ATOM      6  N   UNL     1      39.556  32.927  41.130  0.00  0.00    +0.000 NA
ATOM      7  H   UNL     1      41.320  32.378  42.112  0.00  0.00    +0.000 HD
ATOM      8  H   UNL     1      41.656  35.501  39.221  0.00  0.00    +0.000 HD
ENDROOT
BRANCH   2   9
ATOM      9  S   UNL     1      43.400  34.121  40.989  0.00  0.00    +0.000 S 
BRANCH   9  10
ATOM     10  C   UNL     1      43.745  35.719  41.709  0.00  0.00    +0.000 C 
ATOM     11  H   UNL     1      44.786  36.066  41.537  0.00  0.00    +0.000 HD
ATOM     12  H   UNL     1      43.097  36.499  41.252  0.00  0.00    +0.000 HD
BRANCH  10  13
ATOM     13  N   UNL     1      43.429  35.650  43.129  0.00  0.00    +0.000 NA
ATOM     14  H   UNL     1      43.025  34.729  43.398  0.00  0.00    +0.000 HD
BRANCH  13  15
ATOM     15  S   UNL     1      44.835  35.837  44.103  0.00  0.00    +0.000 S 
BRANCH  15  16
ATOM     16  O   UNL     1      46.069  35.344  43.435  0.00  0.00    +0.000 OA
ATOM     17  H   UNL     1      46.123  34.884  42.550  0.00  0.00    +0.000 HD
ENDBRANCH  15  16
BRANCH  15  18
ATOM     18  O   UNL     1      44.975  37.328  44.366  0.00  0.00    +0.000 OA
ATOM     19  H   UNL     1      44.347  37.837  44.942  0.00  0.00    +0.000 HD
ENDBRANCH  15  18
BRANCH  15  20
ATOM     20  O   UNL     1      44.589  35.092  45.573  0.00  0.00    +0.000 OA
BRANCH  20  21
ATOM     21  C   UNL     1      45.418  33.996  45.747  0.00  0.00    +0.000 C 
ATOM     22  H   UNL     1      44.827  33.260  46.330  0.00  0.00    +0.000 HD
ATOM     23  H   UNL     1      45.795  33.606  44.802  0.00  0.00    +0.000 HD
ATOM     24  H   UNL     1      46.289  34.364  46.349  0.00  0.00    +0.000 HD
ENDBRANCH  20  21
ENDBRANCH  15  20
ENDBRANCH  13  15
ENDBRANCH  10  13
ENDBRANCH   9  10
ENDBRANCH   2   9
BRANCH   5  25
ATOM     25  O   UNL     1      37.634  33.567  40.021  0.00  0.00    +0.000 OA
BRANCH  25  26
ATOM     26  C   UNL     1      36.900  34.346  39.088  0.00  0.00    +0.000 C 
ATOM     27  C   UNL     1      35.441  34.234  39.349  0.00  0.00    +0.000 C 
ATOM     28  H   UNL     1      34.941  34.218  38.338  0.00  0.00    +0.000 HD
ATOM     29  C   UNL     1      34.821  35.323  40.146  0.00  0.00    +0.000 C 
ATOM     30  H   UNL     1      33.804  35.581  39.726  0.00  0.00    +0.000 HD
ATOM     31  O   UNL     1      35.504  36.501  40.230  0.00  0.00    +0.000 OA
ATOM     32  C   UNL     1      36.854  36.390  40.432  0.00  0.00    +0.000 C 
ATOM     33  H   UNL     1      37.253  37.442  40.431  0.00  0.00    +0.000 HD
ATOM     34  C   UNL     1      37.443  35.747  39.198  0.00  0.00    +0.000 C 
ATOM     35  H   UNL     1      38.546  35.738  39.324  0.00  0.00    +0.000 HD
ENDBRANCH  25  26
ENDBRANCH   5  25
TORSDOF 10
