
 OpenBabel03252503223D

 41 45  0  0  1  0  0  0  0  0999 V2000
   34.4660   29.2650   37.7870 C   0  0  1  0  0  0  0  0  0  0  0  0
   34.4070   28.6900   36.4590 C   0  0  0  0  0  0  0  0  0  0  0  0
   33.1730   28.6100   37.3200 C   0  0  2  0  0  0  0  0  0  0  0  0
   34.3740   30.3590   38.0180 H   0  0  0  0  0  0  0  0  0  0  0  0
   34.4080   29.3720   35.5850 H   0  0  0  0  0  0  0  0  0  0  0  0
   34.9690   27.7630   36.2750 H   0  0  0  0  0  0  0  0  0  0  0  0
   32.9060   27.6050   37.6450 H   0  0  0  0  0  0  0  0  0  0  0  0
   32.0760   29.5590   36.9810 C   0  0  0  0  0  0  0  0  0  0  0  0
   31.1200   30.0050   37.8660 C   0  0  0  0  0  0  0  0  0  0  0  0
   30.1350   30.8950   37.4980 C   0  0  0  0  0  0  0  0  0  0  0  0
   30.0900   31.3650   36.2050 C   0  0  0  0  0  0  0  0  0  0  0  0
   29.1420   32.2470   35.7850 N   0  0  0  0  0  0  0  0  0  0  0  0
   29.1090   32.7010   34.5220 C   0  0  0  0  0  0  0  0  0  0  0  0
   30.0390   32.3070   33.5460 C   0  0  0  0  0  0  0  0  0  0  0  0
   31.0230   31.4080   33.9330 C   0  0  0  0  0  0  0  0  0  0  0  0
   31.0290   30.9540   35.2530 C   0  0  0  0  0  0  0  0  0  0  0  0
   31.9930   30.0570   35.6870 C   0  0  0  0  0  0  0  0  0  0  0  0
   31.1970   29.6080   38.8710 H   0  0  0  0  0  0  0  0  0  0  0  0
   29.3910   31.2330   38.2160 H   0  0  0  0  0  0  0  0  0  0  0  0
   28.3610   33.4010   34.1760 H   0  0  0  0  0  0  0  0  0  0  0  0
   30.0280   32.6610   32.5320 H   0  0  0  0  0  0  0  0  0  0  0  0
   31.7550   31.0810   33.2180 H   0  0  0  0  0  0  0  0  0  0  0  0
   32.6700   29.7780   34.8810 H   0  0  0  0  0  0  0  0  0  0  0  0
   35.1520   29.1490   40.2020 C   0  0  0  0  0  0  0  0  0  0  0  0
   35.2120   28.5990   38.8860 C   0  0  0  0  0  0  0  0  0  0  0  0
   35.9600   27.4560   38.6780 C   0  0  0  0  0  0  0  0  0  0  0  0
   36.6000   26.9240   39.7650 N   0  0  0  0  0  0  0  0  0  0  0  0
   36.5400   27.4440   41.0010 C   0  0  0  0  0  0  0  0  0  0  0  0
   35.8130   28.5580   41.2120 N   0  0  0  0  0  0  0  0  0  0  0  0
   34.5700   30.0520   40.4010 H   0  0  0  0  0  0  0  0  0  0  0  0
   36.0300   27.0090   37.6960 H   0  0  0  0  0  0  0  0  0  0  0  0
   37.3130   26.6820   42.0160 C   0  0  0  0  0  3  0  0  0  0  0  0
   38.7720   26.5270   41.6610 C   0  0  0  0  0  3  0  0  0  0  0  0
   39.2910   26.2000   42.6050 H   0  0  0  0  0  0  0  0  0  0  0  0
   39.3220   27.8870   41.3170 C   0  0  0  0  0  3  0  0  0  0  0  0
   38.9740   28.1350   40.2900 H   0  0  0  0  0  0  0  0  0  0  0  0
   38.8690   28.8470   42.2060 O   0  0  0  0  0  0  0  0  0  0  0  0
   38.4660   28.3290   43.4110 C   0  0  0  0  0  3  0  0  0  0  0  0
   39.2750   27.7600   43.9160 H   0  0  0  0  0  0  0  0  0  0  0  0
   37.2460   27.4440   43.3200 C   0  0  0  0  0  3  0  0  0  0  0  0
   37.2000   26.7250   44.1760 H   0  0  0  0  0  0  0  0  0  0  0  0
  1  4  1  1  0  0  0
  1 25  1  0  0  0  0
  2  3  1  0  0  0  0
  2  1  1  0  0  0  0
  3  7  1  1  0  0  0
  3  1  1  0  0  0  0
  5  2  1  0  0  0  0
  6  2  1  0  0  0  0
  8  3  1  0  0  0  0
  8  9  1  0  0  0  0
  9 18  1  0  0  0  0
 10  9  2  0  0  0  0
 10 19  1  0  0  0  0
 11 10  1  0  0  0  0
 12 11  1  0  0  0  0
 13 12  2  0  0  0  0
 14 15  2  0  0  0  0
 14 13  1  0  0  0  0
 15 16  1  0  0  0  0
 16 17  1  0  0  0  0
 16 11  2  0  0  0  0
 17  8  2  0  0  0  0
 20 13  1  0  0  0  0
 21 14  1  0  0  0  0
 22 15  1  0  0  0  0
 23 17  1  0  0  0  0
 24 30  1  0  0  0  0
 24 29  1  0  0  0  0
 25 24  2  0  0  0  0
 26 25  1  0  0  0  0
 26 27  2  0  0  0  0
 27 28  1  0  0  0  0
 28 29  2  0  0  0  0
 28 32  1  0  0  0  0
 31 26  1  0  0  0  0
 32 40  1  0  0  0  0
 33 32  1  0  0  0  0
 33 34  1  0  0  0  0
 35 33  1  0  0  0  0
 35 37  1  0  0  0  0
 36 35  1  0  0  0  0
 37 38  1  0  0  0  0
 38 39  1  0  0  0  0
 40 38  1  0  0  0  0
 40 41  1  0  0  0  0
M  END
>  <minimizedAffinity>
-6.52432108

$$$$

 OpenBabel03252503223D

 41 45  0  0  1  0  0  0  0  0999 V2000
   35.0310   29.0190   37.5080 C   0  0  1  0  0  0  0  0  0  0  0  0
   35.1580   28.3220   36.2460 C   0  0  0  0  0  0  0  0  0  0  0  0
   33.8090   28.3290   36.9180 C   0  0  2  0  0  0  0  0  0  0  0  0
   34.9270   30.1310   37.6200 H   0  0  0  0  0  0  0  0  0  0  0  0
   35.3000   28.9180   35.3220 H   0  0  0  0  0  0  0  0  0  0  0  0
   35.7230   27.3790   36.2340 H   0  0  0  0  0  0  0  0  0  0  0  0
   33.4780   27.3620   37.2910 H   0  0  0  0  0  0  0  0  0  0  0  0
   32.7920   29.2480   36.3330 C   0  0  0  0  0  0  0  0  0  0  0  0
   32.7970   29.7020   35.0330 C   0  0  0  0  0  0  0  0  0  0  0  0
   31.8210   30.5410   34.5440 C   0  0  0  0  0  0  0  0  0  0  0  0
   30.7970   30.9490   35.3680 C   0  0  0  0  0  0  0  0  0  0  0  0
   29.8050   31.7750   34.9380 N   0  0  0  0  0  0  0  0  0  0  0  0
   28.8090   32.1660   35.7500 C   0  0  0  0  0  0  0  0  0  0  0  0
   28.7150   31.7570   37.0900 C   0  0  0  0  0  0  0  0  0  0  0  0
   29.7080   30.9140   37.5690 C   0  0  0  0  0  0  0  0  0  0  0  0
   30.7290   30.5280   36.6990 C   0  0  0  0  0  0  0  0  0  0  0  0
   31.7430   29.6850   37.1300 C   0  0  0  0  0  0  0  0  0  0  0  0
   33.6210   29.3520   34.4230 H   0  0  0  0  0  0  0  0  0  0  0  0
   31.8470   30.8860   33.5110 H   0  0  0  0  0  0  0  0  0  0  0  0
   28.0150   32.8220   35.4220 H   0  0  0  0  0  0  0  0  0  0  0  0
   27.9250   32.0590   37.7540 H   0  0  0  0  0  0  0  0  0  0  0  0
   29.6740   30.5780   38.5880 H   0  0  0  0  0  0  0  0  0  0  0  0
   31.6220   29.4210   38.1800 H   0  0  0  0  0  0  0  0  0  0  0  0
   35.1850   29.0030   40.0170 C   0  0  0  0  0  0  0  0  0  0  0  0
   35.5950   28.4570   38.7620 C   0  0  0  0  0  0  0  0  0  0  0  0
   36.5010   27.4140   38.7570 C   0  0  0  0  0  0  0  0  0  0  0  0
   36.9480   26.9700   39.9720 N   0  0  0  0  0  0  0  0  0  0  0  0
   36.5600   27.4860   41.1500 C   0  0  0  0  0  0  0  0  0  0  0  0
   35.6780   28.5030   41.1630 N   0  0  0  0  0  0  0  0  0  0  0  0
   34.4710   29.8290   40.0570 H   0  0  0  0  0  0  0  0  0  0  0  0
   36.8350   26.9730   37.8280 H   0  0  0  0  0  0  0  0  0  0  0  0
   37.1800   26.8310   42.3310 C   0  0  0  0  0  3  0  0  0  0  0  0
   38.6760   27.0150   42.3980 C   0  0  0  0  0  3  0  0  0  0  0  0
   38.9800   26.7360   43.4450 H   0  0  0  0  0  0  0  0  0  0  0  0
   38.9800   28.4820   42.2400 C   0  0  0  0  0  3  0  0  0  0  0  0
   38.8770   28.7280   41.1600 H   0  0  0  0  0  0  0  0  0  0  0  0
   38.0990   29.2550   42.9780 O   0  0  0  0  0  0  0  0  0  0  0  0
   37.5110   28.5750   44.0150 C   0  0  0  0  0  3  0  0  0  0  0  0
   38.2600   28.1540   44.7190 H   0  0  0  0  0  0  0  0  0  0  0  0
   36.5920   27.4610   43.5730 C   0  0  0  0  0  3  0  0  0  0  0  0
   36.4790   26.6870   44.3730 H   0  0  0  0  0  0  0  0  0  0  0  0
  1  4  1  6  0  0  0
  1 25  1  0  0  0  0
  2  3  1  0  0  0  0
  2  1  1  0  0  0  0
  3  7  1  1  0  0  0
  3  1  1  0  0  0  0
  5  2  1  0  0  0  0
  6  2  1  0  0  0  0
  8  3  1  0  0  0  0
  8 17  1  0  0  0  0
  9  8  2  0  0  0  0
 10  9  1  0  0  0  0
 10 11  2  0  0  0  0
 11 16  1  0  0  0  0
 12 11  1  0  0  0  0
 12 13  2  0  0  0  0
 13 14  1  0  0  0  0
 14 15  2  0  0  0  0
 14 21  1  0  0  0  0
 15 22  1  0  0  0  0
 16 17  2  0  0  0  0
 16 15  1  0  0  0  0
 17 23  1  0  0  0  0
 18  9  1  0  0  0  0
 19 10  1  0  0  0  0
 20 13  1  0  0  0  0
 24 30  1  0  0  0  0
 24 29  1  0  0  0  0
 25 24  2  0  0  0  0
 26 25  1  0  0  0  0
 26 27  2  0  0  0  0
 27 28  1  0  0  0  0
 28 29  2  0  0  0  0
 28 32  1  0  0  0  0
 31 26  1  0  0  0  0
 32 33  1  0  0  0  0
 32 40  1  0  0  0  0
 33 34  1  0  0  0  0
 35 33  1  0  0  0  0
 35 37  1  0  0  0  0
 36 35  1  0  0  0  0
 37 38  1  0  0  0  0
 38 39  1  0  0  0  0
 40 38  1  0  0  0  0
 40 41  1  0  0  0  0
M  END
>  <minimizedAffinity>
-6.39892864

$$$$

 OpenBabel03252503223D

 41 45  0  0  1  0  0  0  0  0999 V2000
   35.3100   29.2950   37.7950 C   0  0  1  0  0  0  0  0  0  0  0  0
   35.2630   28.1930   36.8560 C   0  0  0  0  0  0  0  0  0  0  0  0
   34.0300   28.4800   37.6730 C   0  0  2  0  0  0  0  0  0  0  0  0
   35.1990   30.3770   37.5210 H   0  0  0  0  0  0  0  0  0  0  0  0
   35.2520   28.4200   35.7720 H   0  0  0  0  0  0  0  0  0  0  0  0
   35.8410   27.2890   37.0960 H   0  0  0  0  0  0  0  0  0  0  0  0
   33.7800   27.7170   38.4090 H   0  0  0  0  0  0  0  0  0  0  0  0
   32.9160   29.1650   36.9580 C   0  0  0  0  0  0  0  0  0  0  0  0
   32.8160   29.2850   35.5900 C   0  0  0  0  0  0  0  0  0  0  0  0
   31.7550   29.9200   34.9830 C   0  0  0  0  0  0  0  0  0  0  0  0
   30.7500   30.4570   35.7550 C   0  0  0  0  0  0  0  0  0  0  0  0
   29.6770   31.0920   35.2110 N   0  0  0  0  0  0  0  0  0  0  0  0
   28.7000   31.6100   35.9730 C   0  0  0  0  0  0  0  0  0  0  0  0
   28.7100   31.5380   37.3760 C   0  0  0  0  0  0  0  0  0  0  0  0
   29.7880   30.8980   37.9720 C   0  0  0  0  0  0  0  0  0  0  0  0
   30.7860   30.3720   37.1510 C   0  0  0  0  0  0  0  0  0  0  0  0
   31.8820   29.7220   37.6990 C   0  0  0  0  0  0  0  0  0  0  0  0
   33.6300   28.8460   35.0250 H   0  0  0  0  0  0  0  0  0  0  0  0
   31.6990   30.0020   33.8990 H   0  0  0  0  0  0  0  0  0  0  0  0
   27.8420   32.1170   35.5540 H   0  0  0  0  0  0  0  0  0  0  0  0
   27.9370   31.9460   38.0020 H   0  0  0  0  0  0  0  0  0  0  0  0
   29.8350   30.8200   39.0420 H   0  0  0  0  0  0  0  0  0  0  0  0
   31.8390   29.7170   38.7870 H   0  0  0  0  0  0  0  0  0  0  0  0
   37.2400   28.3790   39.1200 C   0  0  0  0  0  0  0  0  0  0  0  0
   36.0670   29.1930   39.0690 C   0  0  0  0  0  0  0  0  0  0  0  0
   35.6780   29.8680   40.2100 C   0  0  0  0  0  0  0  0  0  0  0  0
   36.4550   29.7070   41.3250 N   0  0  0  0  0  0  0  0  0  0  0  0
   37.5580   28.9410   41.3690 C   0  0  0  0  0  0  0  0  0  0  0  0
   37.9430   28.2800   40.2600 N   0  0  0  0  0  0  0  0  0  0  0  0
   37.5750   27.8310   38.2360 H   0  0  0  0  0  0  0  0  0  0  0  0
   34.7970   30.4940   40.2110 H   0  0  0  0  0  0  0  0  0  0  0  0
   38.2370   28.9320   42.6900 C   0  0  0  0  0  3  0  0  0  0  0  0
   37.3240   28.5370   43.8260 C   0  0  0  0  0  3  0  0  0  0  0  0
   37.9950   28.2930   44.6970 H   0  0  0  0  0  0  0  0  0  0  0  0
   36.6280   27.2550   43.4490 C   0  0  0  0  0  3  0  0  0  0  0  0
   35.8190   27.5160   42.7310 H   0  0  0  0  0  0  0  0  0  0  0  0
   37.5080   26.3660   42.8550 O   0  0  0  0  0  0  0  0  0  0  0  0
   38.8220   26.6050   43.1700 C   0  0  0  0  0  3  0  0  0  0  0  0
   39.0040   26.5760   44.2650 H   0  0  0  0  0  0  0  0  0  0  0  0
   39.3520   27.9140   42.6330 C   0  0  0  0  0  3  0  0  0  0  0  0
   40.2250   28.2740   43.2320 H   0  0  0  0  0  0  0  0  0  0  0  0
  1  4  1  6  0  0  0
  1 25  1  0  0  0  0
  2  6  1  0  0  0  0
  2  3  1  0  0  0  0
  2  1  1  0  0  0  0
  3  1  1  0  0  0  0
  3  7  1  1  0  0  0
  5  2  1  0  0  0  0
  8  3  1  0  0  0  0
  8 17  1  0  0  0  0
  9  8  2  0  0  0  0
 10  9  1  0  0  0  0
 10 11  2  0  0  0  0
 11 16  1  0  0  0  0
 12 11  1  0  0  0  0
 12 13  2  0  0  0  0
 13 14  1  0  0  0  0
 14 15  2  0  0  0  0
 14 21  1  0  0  0  0
 15 22  1  0  0  0  0
 16 17  2  0  0  0  0
 16 15  1  0  0  0  0
 17 23  1  0  0  0  0
 18  9  1  0  0  0  0
 19 10  1  0  0  0  0
 20 13  1  0  0  0  0
 24 29  1  0  0  0  0
 25 24  2  0  0  0  0
 25 26  1  0  0  0  0
 26 31  1  0  0  0  0
 26 27  2  0  0  0  0
 27 28  1  0  0  0  0
 28 32  1  0  0  0  0
 29 28  2  0  0  0  0
 30 24  1  0  0  0  0
 32 33  1  0  0  0  0
 33 34  1  0  0  0  0
 35 33  1  0  0  0  0
 36 35  1  0  0  0  0
 37 38  1  0  0  0  0
 37 35  1  0  0  0  0
 38 39  1  0  0  0  0
 40 32  1  0  0  0  0
 40 38  1  0  0  0  0
 40 41  1  0  0  0  0
M  END
>  <minimizedAffinity>
-6.2559104

$$$$

 OpenBabel03252503223D

 41 45  0  0  1  0  0  0  0  0999 V2000
   33.9590   28.4470   37.7370 C   0  0  1  0  0  0  0  0  0  0  0  0
   35.2170   28.0480   37.1410 C   0  0  0  0  0  0  0  0  0  0  0  0
   35.1720   29.3540   37.8910 C   0  0  2  0  0  0  0  0  0  0  0  0
   33.5510   28.0490   38.7040 H   0  0  0  0  0  0  0  0  0  0  0  0
   35.7660   27.1940   37.5850 H   0  0  0  0  0  0  0  0  0  0  0  0
   35.3020   28.0850   36.0460 H   0  0  0  0  0  0  0  0  0  0  0  0
   35.2900   30.2420   37.2720 H   0  0  0  0  0  0  0  0  0  0  0  0
   35.7890   29.3510   39.2480 C   0  0  0  0  0  0  0  0  0  0  0  0
   35.9980   30.4720   40.0200 C   0  0  0  0  0  0  0  0  0  0  0  0
   36.5620   30.4060   41.2740 C   0  0  0  0  0  0  0  0  0  0  0  0
   36.9340   29.1860   41.7920 C   0  0  0  0  0  0  0  0  0  0  0  0
   37.4930   29.0610   43.0260 N   0  0  0  0  0  0  0  0  0  0  0  0
   37.8510   27.8650   43.5210 C   0  0  0  0  0  0  0  0  0  0  0  0
   37.6770   26.6640   42.8130 C   0  0  0  0  0  0  0  0  0  0  0  0
   37.1100   26.7480   41.5490 C   0  0  0  0  0  0  0  0  0  0  0  0
   36.7520   28.0060   41.0630 C   0  0  0  0  0  0  0  0  0  0  0  0
   36.1800   28.1410   39.8060 C   0  0  0  0  0  0  0  0  0  0  0  0
   35.6880   31.4080   39.5710 H   0  0  0  0  0  0  0  0  0  0  0  0
   36.7170   31.3070   41.8650 H   0  0  0  0  0  0  0  0  0  0  0  0
   38.2960   27.7510   44.5000 H   0  0  0  0  0  0  0  0  0  0  0  0
   37.9560   25.6990   43.1950 H   0  0  0  0  0  0  0  0  0  0  0  0
   36.9600   25.8540   40.9740 H   0  0  0  0  0  0  0  0  0  0  0  0
   36.0910   27.1790   39.3040 H   0  0  0  0  0  0  0  0  0  0  0  0
   31.6540   29.4310   37.5480 C   0  0  0  0  0  0  0  0  0  0  0  0
   32.8340   28.9460   36.9050 C   0  0  0  0  0  0  0  0  0  0  0  0
   32.8930   28.9650   35.5250 C   0  0  0  0  0  0  0  0  0  0  0  0
   31.8000   29.4540   34.8610 N   0  0  0  0  0  0  0  0  0  0  0  0
   30.6930   29.9090   35.4690 C   0  0  0  0  0  0  0  0  0  0  0  0
   30.6280   29.8940   36.8140 N   0  0  0  0  0  0  0  0  0  0  0  0
   31.5740   29.4300   38.6370 H   0  0  0  0  0  0  0  0  0  0  0  0
   33.7690   28.6070   35.0020 H   0  0  0  0  0  0  0  0  0  0  0  0
   29.6450   30.3950   34.5340 C   0  0  0  0  0  3  0  0  0  0  0  0
   28.8090   31.5140   35.1060 C   0  0  0  0  0  3  0  0  0  0  0  0
   28.2650   31.9760   34.2350 H   0  0  0  0  0  0  0  0  0  0  0  0
   29.7370   32.5720   35.6430 C   0  0  0  0  0  3  0  0  0  0  0  0
   30.1290   32.2050   36.6170 H   0  0  0  0  0  0  0  0  0  0  0  0
   30.7900   32.7980   34.7740 O   0  0  0  0  0  0  0  0  0  0  0  0
   30.5230   32.4230   33.4810 C   0  0  0  0  0  3  0  0  0  0  0  0
   29.6300   32.9400   33.0690 H   0  0  0  0  0  0  0  0  0  0  0  0
   30.3360   30.9350   33.3020 C   0  0  0  0  0  3  0  0  0  0  0  0
   29.7230   30.7080   32.3940 H   0  0  0  0  0  0  0  0  0  0  0  0
  1  3  1  0  0  0  0
  1  4  1  1  0  0  0
  2  5  1  0  0  0  0
  2  1  1  0  0  0  0
  2  3  1  0  0  0  0
  3  7  1  6  0  0  0
  3  8  1  0  0  0  0
  6  2  1  0  0  0  0
  8 17  2  0  0  0  0
  8  9  1  0  0  0  0
  9 10  2  0  0  0  0
 10 11  1  0  0  0  0
 10 19  1  0  0  0  0
 11 12  1  0  0  0  0
 12 13  2  0  0  0  0
 13 20  1  0  0  0  0
 14 21  1  0  0  0  0
 14 13  1  0  0  0  0
 15 14  2  0  0  0  0
 16 15  1  0  0  0  0
 16 11  2  0  0  0  0
 17 16  1  0  0  0  0
 18  9  1  0  0  0  0
 22 15  1  0  0  0  0
 23 17  1  0  0  0  0
 24 30  1  0  0  0  0
 25 24  1  0  0  0  0
 25  1  1  0  0  0  0
 26 25  2  0  0  0  0
 27 28  2  0  0  0  0
 27 26  1  0  0  0  0
 28 29  1  0  0  0  0
 29 24  2  0  0  0  0
 31 26  1  0  0  0  0
 32 33  1  0  0  0  0
 32 28  1  0  0  0  0
 33 35  1  0  0  0  0
 34 33  1  0  0  0  0
 35 36  1  0  0  0  0
 37 35  1  0  0  0  0
 38 37  1  0  0  0  0
 39 38  1  0  0  0  0
 40 38  1  0  0  0  0
 40 32  1  0  0  0  0
 41 40  1  0  0  0  0
M  END
>  <minimizedAffinity>
-6.02531147

$$$$

 OpenBabel03252503223D

 41 45  0  0  1  0  0  0  0  0999 V2000
   37.3390   27.2260   41.3040 C   0  0  1  0  0  0  0  0  0  0  0  0
   36.9130   27.5610   42.6470 C   0  0  0  0  0  0  0  0  0  0  0  0
   38.3270   27.8980   42.2480 C   0  0  2  0  0  0  0  0  0  0  0  0
   37.0960   27.8230   40.3850 H   0  0  0  0  0  0  0  0  0  0  0  0
   36.1840   28.3850   42.7810 H   0  0  0  0  0  0  0  0  0  0  0  0
   36.7600   26.7370   43.3580 H   0  0  0  0  0  0  0  0  0  0  0  0
   39.0960   27.3190   42.7570 H   0  0  0  0  0  0  0  0  0  0  0  0
   38.5990   29.3330   41.9530 C   0  0  0  0  0  0  0  0  0  0  0  0
   39.6390   30.0620   42.4860 C   0  0  0  0  0  0  0  0  0  0  0  0
   39.8490   31.3840   42.1670 C   0  0  0  0  0  0  0  0  0  0  0  0
   39.0010   32.0160   41.2850 C   0  0  0  0  0  0  0  0  0  0  0  0
   39.1620   33.3200   40.9310 N   0  0  0  0  0  0  0  0  0  0  0  0
   38.3310   33.9250   40.0670 C   0  0  0  0  0  0  0  0  0  0  0  0
   37.2430   33.2680   39.4700 C   0  0  0  0  0  0  0  0  0  0  0  0
   37.0430   31.9360   39.8050 C   0  0  0  0  0  0  0  0  0  0  0  0
   37.9240   31.3370   40.7050 C   0  0  0  0  0  0  0  0  0  0  0  0
   37.7670   30.0080   41.0700 C   0  0  0  0  0  0  0  0  0  0  0  0
   40.2790   29.5220   43.1740 H   0  0  0  0  0  0  0  0  0  0  0  0
   40.6790   31.9390   42.6010 H   0  0  0  0  0  0  0  0  0  0  0  0
   38.4460   34.9610   39.7770 H   0  0  0  0  0  0  0  0  0  0  0  0
   36.5680   33.7360   38.7760 H   0  0  0  0  0  0  0  0  0  0  0  0
   36.2230   31.3960   39.3700 H   0  0  0  0  0  0  0  0  0  0  0  0
   36.8980   29.5630   40.5880 H   0  0  0  0  0  0  0  0  0  0  0  0
   38.5330   25.5650   39.8430 C   0  0  0  0  0  0  0  0  0  0  0  0
   37.6180   25.8210   40.9090 C   0  0  0  0  0  0  0  0  0  0  0  0
   37.0260   24.7480   41.5470 C   0  0  0  0  0  0  0  0  0  0  0  0
   37.3620   23.4970   41.1050 N   0  0  0  0  0  0  0  0  0  0  0  0
   38.2230   23.2610   40.1020 C   0  0  0  0  0  0  0  0  0  0  0  0
   38.8050   24.3020   39.4760 N   0  0  0  0  0  0  0  0  0  0  0  0
   39.0190   26.3910   39.3180 H   0  0  0  0  0  0  0  0  0  0  0  0
   36.3280   24.9010   42.3580 H   0  0  0  0  0  0  0  0  0  0  0  0
   38.4320   21.8190   39.8110 C   0  0  0  0  0  3  0  0  0  0  0  0
   37.1520   21.0820   39.5000 C   0  0  0  0  0  3  0  0  0  0  0  0
   37.4580   20.1060   39.0300 H   0  0  0  0  0  0  0  0  0  0  0  0
   36.4070   21.8540   38.4420 C   0  0  0  0  0  3  0  0  0  0  0  0
   35.9260   22.7230   38.9420 H   0  0  0  0  0  0  0  0  0  0  0  0
   37.2670   22.3020   37.4550 O   0  0  0  0  0  0  0  0  0  0  0  0
   38.4320   21.5810   37.3750 C   0  0  0  0  0  3  0  0  0  0  0  0
   38.2470   20.5010   37.1930 H   0  0  0  0  0  0  0  0  0  0  0  0
   39.3180   21.7140   38.5910 C   0  0  0  0  0  3  0  0  0  0  0  0
   40.0020   20.8350   38.6940 H   0  0  0  0  0  0  0  0  0  0  0  0
  1  4  1  6  0  0  0
  1  3  1  0  0  0  0
  1  2  1  0  0  0  0
  2  5  1  0  0  0  0
  2  6  1  0  0  0  0
  3  2  1  0  0  0  0
  3  7  1  1  0  0  0
  8  3  1  0  0  0  0
  8  9  1  0  0  0  0
  9 18  1  0  0  0  0
 10  9  2  0  0  0  0
 10 19  1  0  0  0  0
 11 10  1  0  0  0  0
 12 11  1  0  0  0  0
 13 12  2  0  0  0  0
 14 15  2  0  0  0  0
 14 13  1  0  0  0  0
 15 16  1  0  0  0  0
 16 17  1  0  0  0  0
 16 11  2  0  0  0  0
 17  8  2  0  0  0  0
 20 13  1  0  0  0  0
 21 14  1  0  0  0  0
 22 15  1  0  0  0  0
 23 17  1  0  0  0  0
 24 25  1  0  0  0  0
 25  1  1  0  0  0  0
 25 26  2  0  0  0  0
 26 31  1  0  0  0  0
 27 26  1  0  0  0  0
 28 27  2  0  0  0  0
 29 24  2  0  0  0  0
 29 28  1  0  0  0  0
 30 24  1  0  0  0  0
 32 28  1  0  0  0  0
 33 32  1  0  0  0  0
 34 33  1  0  0  0  0
 35 36  1  0  0  0  0
 35 33  1  0  0  0  0
 37 35  1  0  0  0  0
 38 37  1  0  0  0  0
 38 40  1  0  0  0  0
 39 38  1  0  0  0  0
 40 41  1  0  0  0  0
 40 32  1  0  0  0  0
M  END
>  <minimizedAffinity>
-5.81990814

$$$$

 OpenBabel03252503223D

 41 45  0  0  1  0  0  0  0  0999 V2000
   35.9890   29.4570   39.4500 C   0  0  1  0  0  0  0  0  0  0  0  0
   36.0380   30.5800   40.3630 C   0  0  0  0  0  0  0  0  0  0  0  0
   35.7420   29.2160   40.9330 C   0  0  2  0  0  0  0  0  0  0  0  0
   36.8880   28.9260   39.0370 H   0  0  0  0  0  0  0  0  0  0  0  0
   37.0190   31.0480   40.5760 H   0  0  0  0  0  0  0  0  0  0  0  0
   35.2170   31.3110   40.3230 H   0  0  0  0  0  0  0  0  0  0  0  0
   34.7310   29.0900   41.3180 H   0  0  0  0  0  0  0  0  0  0  0  0
   36.8630   28.5520   41.6560 C   0  0  0  0  0  0  0  0  0  0  0  0
   37.7840   29.2020   42.4460 C   0  0  0  0  0  0  0  0  0  0  0  0
   38.7930   28.5330   43.1010 C   0  0  0  0  0  0  0  0  0  0  0  0
   38.9000   27.1660   42.9740 C   0  0  0  0  0  0  0  0  0  0  0  0
   39.8750   26.4520   43.6000 N   0  0  0  0  0  0  0  0  0  0  0  0
   39.9680   25.1190   43.4710 C   0  0  0  0  0  0  0  0  0  0  0  0
   39.0770   24.3660   42.6890 C   0  0  0  0  0  0  0  0  0  0  0  0
   38.0680   25.0560   42.0330 C   0  0  0  0  0  0  0  0  0  0  0  0
   38.0000   26.4410   42.1870 C   0  0  0  0  0  0  0  0  0  0  0  0
   37.0080   27.1750   41.5530 C   0  0  0  0  0  0  0  0  0  0  0  0
   37.6590   30.2760   42.5170 H   0  0  0  0  0  0  0  0  0  0  0  0
   39.5090   29.0690   43.7210 H   0  0  0  0  0  0  0  0  0  0  0  0
   40.7370   24.5400   43.9620 H   0  0  0  0  0  0  0  0  0  0  0  0
   39.1360   23.2990   42.5750 H   0  0  0  0  0  0  0  0  0  0  0  0
   37.3650   24.5180   41.4240 H   0  0  0  0  0  0  0  0  0  0  0  0
   36.3640   26.5360   40.9500 H   0  0  0  0  0  0  0  0  0  0  0  0
   35.0950   29.1080   37.1270 C   0  0  0  0  0  0  0  0  0  0  0  0
   34.8430   29.2620   38.5250 C   0  0  0  0  0  0  0  0  0  0  0  0
   33.5380   29.2170   38.9730 C   0  0  0  0  0  0  0  0  0  0  0  0
   32.5620   29.0250   38.0320 N   0  0  0  0  0  0  0  0  0  0  0  0
   32.8020   28.8800   36.7190 C   0  0  0  0  0  0  0  0  0  0  0  0
   34.0730   28.9230   36.2740 N   0  0  0  0  0  0  0  0  0  0  0  0
   36.1150   29.1400   36.7400 H   0  0  0  0  0  0  0  0  0  0  0  0
   33.3070   29.3290   40.0230 H   0  0  0  0  0  0  0  0  0  0  0  0
   31.5800   28.6750   35.8990 C   0  0  0  0  0  3  0  0  0  0  0  0
   30.4170   29.5310   36.3390 C   0  0  0  0  0  3  0  0  0  0  0  0
   29.6710   29.5040   35.4970 H   0  0  0  0  0  0  0  0  0  0  0  0
   30.8930   30.9560   36.4460 C   0  0  0  0  0  3  0  0  0  0  0  0
   31.4710   31.0430   37.3930 H   0  0  0  0  0  0  0  0  0  0  0  0
   31.7030   31.2930   35.3750 O   0  0  0  0  0  0  0  0  0  0  0  0
   31.5060   30.5010   34.2710 C   0  0  0  0  0  3  0  0  0  0  0  0
   30.4540   30.5260   33.9170 H   0  0  0  0  0  0  0  0  0  0  0  0
   31.9070   29.0590   34.4740 C   0  0  0  0  0  3  0  0  0  0  0  0
   31.3650   28.3830   33.7660 H   0  0  0  0  0  0  0  0  0  0  0  0
  1  4  1  6  0  0  0
  1  2  1  0  0  0  0
  1  3  1  0  0  0  0
  2  5  1  0  0  0  0
  2  3  1  0  0  0  0
  3  7  1  1  0  0  0
  3  8  1  0  0  0  0
  6  2  1  0  0  0  0
  8  9  1  0  0  0  0
  9 18  1  0  0  0  0
  9 10  2  0  0  0  0
 10 19  1  0  0  0  0
 11 10  1  0  0  0  0
 11 12  1  0  0  0  0
 13 12  2  0  0  0  0
 13 20  1  0  0  0  0
 14 13  1  0  0  0  0
 15 16  1  0  0  0  0
 15 14  2  0  0  0  0
 16 11  2  0  0  0  0
 17  8  2  0  0  0  0
 17 16  1  0  0  0  0
 21 14  1  0  0  0  0
 22 15  1  0  0  0  0
 23 17  1  0  0  0  0
 24 25  1  0  0  0  0
 25 26  2  0  0  0  0
 25  1  1  0  0  0  0
 26 31  1  0  0  0  0
 27 26  1  0  0  0  0
 28 27  2  0  0  0  0
 29 28  1  0  0  0  0
 29 24  2  0  0  0  0
 30 24  1  0  0  0  0
 32 33  1  0  0  0  0
 32 28  1  0  0  0  0
 33 35  1  0  0  0  0
 34 33  1  0  0  0  0
 35 36  1  0  0  0  0
 37 35  1  0  0  0  0
 38 40  1  0  0  0  0
 38 37  1  0  0  0  0
 39 38  1  0  0  0  0
 40 32  1  0  0  0  0
 41 40  1  0  0  0  0
M  END
>  <minimizedAffinity>
-5.6638546

$$$$

 OpenBabel03252503223D

 41 45  0  0  1  0  0  0  0  0999 V2000
   36.0160   29.2430   39.4340 C   0  0  1  0  0  0  0  0  0  0  0  0
   35.5760   30.1400   40.4820 C   0  0  0  0  0  0  0  0  0  0  0  0
   35.5990   28.6620   40.7770 C   0  0  2  0  0  0  0  0  0  0  0  0
   37.0880   29.0540   39.1590 H   0  0  0  0  0  0  0  0  0  0  0  0
   36.3250   30.7950   40.9690 H   0  0  0  0  0  0  0  0  0  0  0  0
   34.5970   30.6270   40.3640 H   0  0  0  0  0  0  0  0  0  0  0  0
   34.6190   28.2060   40.9090 H   0  0  0  0  0  0  0  0  0  0  0  0
   36.7230   28.1830   41.6300 C   0  0  0  0  0  0  0  0  0  0  0  0
   37.4010   28.9570   42.5450 C   0  0  0  0  0  0  0  0  0  0  0  0
   38.4260   28.4550   43.3160 C   0  0  0  0  0  0  0  0  0  0  0  0
   38.7980   27.1360   43.1820 C   0  0  0  0  0  0  0  0  0  0  0  0
   39.8000   26.5860   43.9180 N   0  0  0  0  0  0  0  0  0  0  0  0
   40.1530   25.2970   43.7810 C   0  0  0  0  0  0  0  0  0  0  0  0
   39.5220   24.4270   42.8770 C   0  0  0  0  0  0  0  0  0  0  0  0
   38.4930   24.9500   42.1060 C   0  0  0  0  0  0  0  0  0  0  0  0
   38.1530   26.2920   42.2720 C   0  0  0  0  0  0  0  0  0  0  0  0
   37.1300   26.8600   41.5250 C   0  0  0  0  0  0  0  0  0  0  0  0
   37.0730   29.9870   42.6150 H   0  0  0  0  0  0  0  0  0  0  0  0
   38.9470   29.0870   44.0330 H   0  0  0  0  0  0  0  0  0  0  0  0
   40.9480   24.8470   44.3600 H   0  0  0  0  0  0  0  0  0  0  0  0
   39.7900   23.3940   42.7550 H   0  0  0  0  0  0  0  0  0  0  0  0
   37.9840   24.3190   41.4020 H   0  0  0  0  0  0  0  0  0  0  0  0
   36.6960   26.1400   40.8330 H   0  0  0  0  0  0  0  0  0  0  0  0
   35.7670   28.5640   37.0260 C   0  0  0  0  0  0  0  0  0  0  0  0
   35.1550   28.9430   38.2610 C   0  0  0  0  0  0  0  0  0  0  0  0
   33.7770   29.0090   38.3250 C   0  0  0  0  0  0  0  0  0  0  0  0
   33.0840   28.7030   37.1850 N   0  0  0  0  0  0  0  0  0  0  0  0
   33.6620   28.3470   36.0270 C   0  0  0  0  0  0  0  0  0  0  0  0
   35.0050   28.2800   35.9560 N   0  0  0  0  0  0  0  0  0  0  0  0
   36.8540   28.5030   36.9410 H   0  0  0  0  0  0  0  0  0  0  0  0
   33.2770   29.2910   39.2420 H   0  0  0  0  0  0  0  0  0  0  0  0
   32.6980   28.0560   34.9340 C   0  0  0  0  0  3  0  0  0  0  0  0
   33.1130   26.8900   34.0700 C   0  0  0  0  0  3  0  0  0  0  0  0
   32.1990   26.5950   33.4830 H   0  0  0  0  0  0  0  0  0  0  0  0
   33.4400   25.7270   34.9700 C   0  0  0  0  0  3  0  0  0  0  0  0
   34.4450   25.9170   35.4050 H   0  0  0  0  0  0  0  0  0  0  0  0
   32.5080   25.6080   35.9870 O   0  0  0  0  0  0  0  0  0  0  0  0
   31.3030   26.1970   35.6970 C   0  0  0  0  0  3  0  0  0  0  0  0
   30.8450   25.7850   34.7730 H   0  0  0  0  0  0  0  0  0  0  0  0
   31.3730   27.7000   35.5660 C   0  0  0  0  0  3  0  0  0  0  0  0
   30.5350   28.0920   34.9360 H   0  0  0  0  0  0  0  0  0  0  0  0
  1  4  1  6  0  0  0
  1  2  1  0  0  0  0
  1  3  1  0  0  0  0
  2  3  1  0  0  0  0
  2  5  1  0  0  0  0
  3  7  1  1  0  0  0
  3  8  1  0  0  0  0
  6  2  1  0  0  0  0
  8  9  1  0  0  0  0
  9 18  1  0  0  0  0
  9 10  2  0  0  0  0
 10 19  1  0  0  0  0
 11 10  1  0  0  0  0
 11 12  1  0  0  0  0
 13 12  2  0  0  0  0
 13 20  1  0  0  0  0
 14 13  1  0  0  0  0
 15 16  1  0  0  0  0
 15 14  2  0  0  0  0
 16 11  2  0  0  0  0
 17  8  2  0  0  0  0
 17 16  1  0  0  0  0
 21 14  1  0  0  0  0
 22 15  1  0  0  0  0
 23 17  1  0  0  0  0
 24 25  1  0  0  0  0
 25 26  2  0  0  0  0
 25  1  1  0  0  0  0
 26 31  1  0  0  0  0
 27 26  1  0  0  0  0
 28 27  2  0  0  0  0
 29 28  1  0  0  0  0
 29 24  2  0  0  0  0
 30 24  1  0  0  0  0
 32 40  1  0  0  0  0
 32 28  1  0  0  0  0
 33 32  1  0  0  0  0
 33 35  1  0  0  0  0
 34 33  1  0  0  0  0
 35 36  1  0  0  0  0
 35 37  1  0  0  0  0
 38 37  1  0  0  0  0
 39 38  1  0  0  0  0
 40 38  1  0  0  0  0
 41 40  1  0  0  0  0
M  END
>  <minimizedAffinity>
-5.58256102

$$$$

 OpenBabel03252503223D

 41 45  0  0  1  0  0  0  0  0999 V2000
   35.8120   28.4580   40.6310 C   0  0  1  0  0  0  0  0  0  0  0  0
   35.6700   29.8110   40.1350 C   0  0  0  0  0  0  0  0  0  0  0  0
   36.0820   28.7390   39.1590 C   0  0  2  0  0  0  0  0  0  0  0  0
   34.9610   27.7500   40.8200 H   0  0  0  0  0  0  0  0  0  0  0  0
   34.6520   30.2430   40.0580 H   0  0  0  0  0  0  0  0  0  0  0  0
   36.4250   30.5510   40.4370 H   0  0  0  0  0  0  0  0  0  0  0  0
   37.1000   28.8280   38.7840 H   0  0  0  0  0  0  0  0  0  0  0  0
   35.0230   28.2620   38.2250 C   0  0  0  0  0  0  0  0  0  0  0  0
   34.9980   27.0200   37.6320 C   0  0  0  0  0  0  0  0  0  0  0  0
   33.9840   26.6300   36.7860 C   0  0  0  0  0  0  0  0  0  0  0  0
   32.9520   27.4980   36.5120 C   0  0  0  0  0  0  0  0  0  0  0  0
   31.9230   27.1660   35.6850 N   0  0  0  0  0  0  0  0  0  0  0  0
   30.9200   28.0200   35.4270 C   0  0  0  0  0  0  0  0  0  0  0  0
   30.8550   29.3080   35.9830 C   0  0  0  0  0  0  0  0  0  0  0  0
   31.8850   29.6870   36.8320 C   0  0  0  0  0  0  0  0  0  0  0  0
   32.9130   28.7760   37.0780 C   0  0  0  0  0  0  0  0  0  0  0  0
   33.9640   29.1080   37.9210 C   0  0  0  0  0  0  0  0  0  0  0  0
   35.8300   26.3710   37.8790 H   0  0  0  0  0  0  0  0  0  0  0  0
   33.9870   25.6410   36.3290 H   0  0  0  0  0  0  0  0  0  0  0  0
   30.0970   27.7690   34.7720 H   0  0  0  0  0  0  0  0  0  0  0  0
   30.0590   30.0040   35.7880 H   0  0  0  0  0  0  0  0  0  0  0  0
   31.8740   30.6630   37.2780 H   0  0  0  0  0  0  0  0  0  0  0  0
   33.8630   30.1230   38.3020 H   0  0  0  0  0  0  0  0  0  0  0  0
   37.0930   26.7000   41.8910 C   0  0  0  0  0  0  0  0  0  0  0  0
   36.9680   28.0610   41.4750 C   0  0  0  0  0  0  0  0  0  0  0  0
   37.9360   28.9660   41.8660 C   0  0  0  0  0  0  0  0  0  0  0  0
   38.9610   28.4880   42.6370 N   0  0  0  0  0  0  0  0  0  0  0  0
   39.0750   27.2070   43.0260 C   0  0  0  0  0  0  0  0  0  0  0  0
   38.1350   26.3190   42.6480 N   0  0  0  0  0  0  0  0  0  0  0  0
   36.3450   25.9600   41.5990 H   0  0  0  0  0  0  0  0  0  0  0  0
   37.8770   30.0040   41.5710 H   0  0  0  0  0  0  0  0  0  0  0  0
   40.2790   26.9300   43.8510 C   0  0  0  0  0  3  0  0  0  0  0  0
   40.8560   25.5550   43.6190 C   0  0  0  0  0  3  0  0  0  0  0  0
   41.8910   25.5700   44.0640 H   0  0  0  0  0  0  0  0  0  0  0  0
   41.0310   25.3590   42.1350 C   0  0  0  0  0  3  0  0  0  0  0  0
   40.0260   25.1410   41.7090 H   0  0  0  0  0  0  0  0  0  0  0  0
   41.5510   26.4960   41.5410 O   0  0  0  0  0  0  0  0  0  0  0  0
   42.2240   27.3110   42.4150 C   0  0  0  0  0  3  0  0  0  0  0  0
   43.0610   26.7850   42.9220 H   0  0  0  0  0  0  0  0  0  0  0  0
   41.3430   27.9350   43.4720 C   0  0  0  0  0  3  0  0  0  0  0  0
   41.9350   28.2190   44.3780 H   0  0  0  0  0  0  0  0  0  0  0  0
  1  4  1  1  0  0  0
  1 25  1  0  0  0  0
  2  6  1  0  0  0  0
  2  1  1  0  0  0  0
  3  7  1  6  0  0  0
  3  2  1  0  0  0  0
  3  1  1  0  0  0  0
  5  2  1  0  0  0  0
  8  3  1  0  0  0  0
  9 18  1  0  0  0  0
  9  8  2  0  0  0  0
 10  9  1  0  0  0  0
 11 10  2  0  0  0  0
 11 16  1  0  0  0  0
 12 11  1  0  0  0  0
 13 12  2  0  0  0  0
 13 14  1  0  0  0  0
 14 15  2  0  0  0  0
 15 16  1  0  0  0  0
 15 22  1  0  0  0  0
 16 17  2  0  0  0  0
 17  8  1  0  0  0  0
 17 23  1  0  0  0  0
 19 10  1  0  0  0  0
 20 13  1  0  0  0  0
 21 14  1  0  0  0  0
 24 29  1  0  0  0  0
 25 26  1  0  0  0  0
 25 24  2  0  0  0  0
 26 27  2  0  0  0  0
 27 28  1  0  0  0  0
 28 32  1  0  0  0  0
 29 28  2  0  0  0  0
 30 24  1  0  0  0  0
 31 26  1  0  0  0  0
 33 32  1  0  0  0  0
 33 34  1  0  0  0  0
 35 33  1  0  0  0  0
 36 35  1  0  0  0  0
 37 35  1  0  0  0  0
 37 38  1  0  0  0  0
 38 39  1  0  0  0  0
 38 40  1  0  0  0  0
 40 32  1  0  0  0  0
 40 41  1  0  0  0  0
M  END
>  <minimizedAffinity>
-5.56264257

$$$$

 OpenBabel03252503223D

 41 45  0  0  1  0  0  0  0  0999 V2000
   37.5200   29.6220   38.9470 C   0  0  1  0  0  0  0  0  0  0  0  0
   36.4520   30.5060   38.5300 C   0  0  0  0  0  0  0  0  0  0  0  0
   37.0470   30.7100   39.9000 C   0  0  2  0  0  0  0  0  0  0  0  0
   38.5930   29.7170   38.6300 H   0  0  0  0  0  0  0  0  0  0  0  0
   36.6600   31.2530   37.7390 H   0  0  0  0  0  0  0  0  0  0  0  0
   35.4360   30.0900   38.4660 H   0  0  0  0  0  0  0  0  0  0  0  0
   36.3800   30.4770   40.7280 H   0  0  0  0  0  0  0  0  0  0  0  0
   37.9770   31.8660   40.0430 C   0  0  0  0  0  0  0  0  0  0  0  0
   37.6320   33.1830   39.8360 C   0  0  0  0  0  0  0  0  0  0  0  0
   38.5320   34.2130   39.9960 C   0  0  0  0  0  0  0  0  0  0  0  0
   39.8260   33.9340   40.3780 C   0  0  0  0  0  0  0  0  0  0  0  0
   40.7570   34.9110   40.5540 N   0  0  0  0  0  0  0  0  0  0  0  0
   42.0150   34.6280   40.9280 C   0  0  0  0  0  0  0  0  0  0  0  0
   42.4630   33.3180   41.1650 C   0  0  0  0  0  0  0  0  0  0  0  0
   41.5440   32.2920   40.9960 C   0  0  0  0  0  0  0  0  0  0  0  0
   40.2450   32.6200   40.6050 C   0  0  0  0  0  0  0  0  0  0  0  0
   39.2910   31.6300   40.4250 C   0  0  0  0  0  0  0  0  0  0  0  0
   36.6040   33.3520   39.5380 H   0  0  0  0  0  0  0  0  0  0  0  0
   38.2360   35.2460   39.8260 H   0  0  0  0  0  0  0  0  0  0  0  0
   42.7650   35.3940   41.0720 H   0  0  0  0  0  0  0  0  0  0  0  0
   43.4650   33.0740   41.4660 H   0  0  0  0  0  0  0  0  0  0  0  0
   41.8450   31.2760   41.1670 H   0  0  0  0  0  0  0  0  0  0  0  0
   39.7060   30.6390   40.6060 H   0  0  0  0  0  0  0  0  0  0  0  0
   38.0810   27.5870   40.3120 C   0  0  0  0  0  0  0  0  0  0  0  0
   37.2520   28.2120   39.3310 C   0  0  0  0  0  0  0  0  0  0  0  0
   36.2180   27.4840   38.7760 C   0  0  0  0  0  0  0  0  0  0  0  0
   36.0580   26.1960   39.2110 N   0  0  0  0  0  0  0  0  0  0  0  0
   36.8400   25.6120   40.1330 C   0  0  0  0  0  0  0  0  0  0  0  0
   37.8500   26.3150   40.6800 N   0  0  0  0  0  0  0  0  0  0  0  0
   38.9080   28.1340   40.7710 H   0  0  0  0  0  0  0  0  0  0  0  0
   35.5680   27.9220   38.0310 H   0  0  0  0  0  0  0  0  0  0  0  0
   36.4630   24.2090   40.4460 C   0  0  0  0  0  3  0  0  0  0  0  0
   36.2930   23.3500   39.2160 C   0  0  0  0  0  3  0  0  0  0  0  0
   36.2950   22.2830   39.5760 H   0  0  0  0  0  0  0  0  0  0  0  0
   37.5170   23.5140   38.3520 C   0  0  0  0  0  3  0  0  0  0  0  0
   37.4250   24.4910   37.8290 H   0  0  0  0  0  0  0  0  0  0  0  0
   38.6710   23.5020   39.1160 O   0  0  0  0  0  0  0  0  0  0  0  0
   38.5170   22.8820   40.3310 C   0  0  0  0  0  3  0  0  0  0  0  0
   38.1730   21.8310   40.2260 H   0  0  0  0  0  0  0  0  0  0  0  0
   37.5760   23.6010   41.2690 C   0  0  0  0  0  3  0  0  0  0  0  0
   37.1460   22.9010   42.0280 H   0  0  0  0  0  0  0  0  0  0  0  0
  1  4  1  6  0  0  0
  1 25  1  0  0  0  0
  1  3  1  0  0  0  0
  2  1  1  0  0  0  0
  2  3  1  0  0  0  0
  3  8  1  0  0  0  0
  3  7  1  1  0  0  0
  5  2  1  0  0  0  0
  6  2  1  0  0  0  0
  8 17  1  0  0  0  0
  9 10  1  0  0  0  0
  9  8  2  0  0  0  0
 10 11  2  0  0  0  0
 11 12  1  0  0  0  0
 11 16  1  0  0  0  0
 12 13  2  0  0  0  0
 13 20  1  0  0  0  0
 13 14  1  0  0  0  0
 14 21  1  0  0  0  0
 15 14  2  0  0  0  0
 15 22  1  0  0  0  0
 16 15  1  0  0  0  0
 17 16  2  0  0  0  0
 17 23  1  0  0  0  0
 18  9  1  0  0  0  0
 19 10  1  0  0  0  0
 24 29  1  0  0  0  0
 24 30  1  0  0  0  0
 25 24  2  0  0  0  0
 26 27  2  0  0  0  0
 26 25  1  0  0  0  0
 27 28  1  0  0  0  0
 28 32  1  0  0  0  0
 28 29  2  0  0  0  0
 31 26  1  0  0  0  0
 32 40  1  0  0  0  0
 33 34  1  0  0  0  0
 33 32  1  0  0  0  0
 35 37  1  0  0  0  0
 35 33  1  0  0  0  0
 36 35  1  0  0  0  0
 37 38  1  0  0  0  0
 38 40  1  0  0  0  0
 39 38  1  0  0  0  0
 40 41  1  0  0  0  0
M  END
>  <minimizedAffinity>
-5.55545759

$$$$
