
 OpenBabel03252506303D

 48 52  0  0  0  0  0  0  0  0999 V2000
   36.1720   29.5970   37.5510 C   0  0  0  0  0  0  0  0  0  0  0  0
   36.9010   30.1660   36.4970 C   0  0  0  0  0  0  0  0  0  0  0  0
   36.3970   29.7300   35.3250 C   0  0  0  0  0  0  0  0  0  0  0  0
   35.3920   28.9190   35.6350 N   0  0  0  0  0  0  0  0  0  0  0  0
   35.2360   28.8220   36.9600 N   0  0  0  0  0  0  0  0  0  0  0  0
   37.7300   30.8460   36.6820 H   0  0  0  0  0  0  0  0  0  0  0  0
   36.7450   29.9920   34.3340 H   0  0  0  0  0  0  0  0  0  0  0  0
   36.8560   31.2560   40.7390 C   0  0  0  0  0  0  0  0  0  0  0  0
   36.8430   30.1920   41.6530 C   0  0  0  0  0  0  0  0  0  0  0  0
   36.5930   28.8980   41.1420 C   0  0  0  0  0  0  0  0  0  0  0  0
   36.3930   28.8150   39.8240 N   0  0  0  0  0  0  0  0  0  0  0  0
   36.4060   29.8190   38.9680 C   0  0  0  0  0  0  0  0  0  0  0  0
   36.6410   31.0440   39.4410 N   0  0  0  0  0  0  0  0  0  0  0  0
   37.0490   32.2590   41.1330 H   0  0  0  0  0  0  0  0  0  0  0  0
   37.0190   30.3750   42.7020 H   0  0  0  0  0  0  0  0  0  0  0  0
   36.5790   27.7550   42.0990 C   0  0  0  0  0  3  0  0  0  0  0  0
   37.3200   28.0550   43.3740 C   0  0  0  0  0  3  0  0  0  0  0  0
   37.1380   29.1110   43.6520 H   0  0  0  0  0  0  0  0  0  0  0  0
   38.7940   27.8200   43.3130 C   0  0  0  0  0  3  0  0  0  0  0  0
   39.1700   27.8090   44.3580 H   0  0  0  0  0  0  0  0  0  0  0  0
   39.1100   26.5840   42.7530 O   0  0  0  0  0  0  0  0  0  0  0  0
   38.6220   26.5910   41.4260 C   0  0  0  0  0  3  0  0  0  0  0  0
   39.0700   25.7240   40.8870 H   0  0  0  0  0  0  0  0  0  0  0  0
   37.1210   26.4790   41.5150 C   0  0  0  0  0  3  0  0  0  0  0  0
   36.6990   26.2550   40.5140 H   0  0  0  0  0  0  0  0  0  0  0  0
   34.5440   28.2070   34.6840 C   0  0  0  0  0  0  0  0  0  0  0  0
   34.9670   27.2170   34.4480 H   0  0  0  0  0  0  0  0  0  0  0  0
   34.4720   28.7720   33.7500 H   0  0  0  0  0  0  0  0  0  0  0  0
   33.1780   28.0210   35.2400 C   0  0  0  0  0  0  0  0  0  0  0  0
   33.2570   27.3890   36.1570 H   0  0  0  0  0  0  0  0  0  0  0  0
   32.6150   27.3720   34.5110 H   0  0  0  0  0  0  0  0  0  0  0  0
   32.1410   30.2770   34.6170 C   0  0  0  0  0  0  0  0  0  0  0  0
   32.3760   29.2070   35.4530 C   0  0  0  0  0  0  0  0  0  0  0  0
   31.7490   29.2630   36.6990 C   0  0  0  0  0  0  0  0  0  0  0  0
   30.9530   30.3090   37.0710 C   0  0  0  0  0  0  0  0  0  0  0  0
   30.2430   30.6280   38.1660 N   0  0  0  0  0  0  0  0  0  0  0  0
   29.6150   31.7980   38.0340 C   0  0  0  0  0  0  0  0  0  0  0  0
   29.9090   32.3120   36.7760 C   0  0  0  0  0  0  0  0  0  0  0  0
   30.7330   31.3630   36.2250 C   0  0  0  0  0  0  0  0  0  0  0  0
   31.3460   31.3250   34.9830 C   0  0  0  0  0  0  0  0  0  0  0  0
   32.6470   30.1970   33.6540 H   0  0  0  0  0  0  0  0  0  0  0  0
   31.8490   28.4830   37.4580 H   0  0  0  0  0  0  0  0  0  0  0  0
   30.1640   30.0480   39.0520 H   0  0  0  0  0  0  0  0  0  0  0  0
   28.9720   32.3000   38.7590 H   0  0  0  0  0  0  0  0  0  0  0  0
   29.5470   33.2490   36.3730 H   0  0  0  0  0  0  0  0  0  0  0  0
   31.1390   32.4280   34.0500 C   0  0  0  0  0  0  0  0  0  0  0  0
   30.1840   32.4040   33.2320 O   0  0  0  0  0  0  0  0  0  0  0  0
   31.8030   33.2870   34.0420 H   0  0  0  0  0  0  0  0  0  0  0  0
  1 12  1  0  0  0  0
  2  6  1  0  0  0  0
  2  1  1  0  0  0  0
  3  4  1  0  0  0  0
  3  2  2  0  0  0  0
  4  5  1  0  0  0  0
  5  1  2  0  0  0  0
  7  3  1  0  0  0  0
  8 14  1  0  0  0  0
  8  9  1  0  0  0  0
  9 15  1  0  0  0  0
 10  9  2  0  0  0  0
 10 16  1  0  0  0  0
 11 10  1  0  0  0  0
 12 13  1  0  0  0  0
 12 11  2  0  0  0  0
 13  8  2  0  0  0  0
 16 17  1  0  0  0  0
 17 18  1  0  0  0  0
 19 17  1  0  0  0  0
 19 20  1  0  0  0  0
 21 19  1  0  0  0  0
 22 24  1  0  0  0  0
 22 21  1  0  0  0  0
 23 22  1  0  0  0  0
 24 16  1  0  0  0  0
 25 24  1  0  0  0  0
 26 29  1  0  0  0  0
 26  4  1  0  0  0  0
 27 26  1  0  0  0  0
 28 26  1  0  0  0  0
 29 33  1  0  0  0  0
 29 30  1  0  0  0  0
 31 29  1  0  0  0  0
 32 40  2  0  0  0  0
 32 33  1  0  0  0  0
 33 34  2  0  0  0  0
 34 35  1  0  0  0  0
 34 42  1  0  0  0  0
 35 36  1  0  0  0  0
 36 43  1  0  0  0  0
 37 36  1  0  0  0  0
 37 44  1  0  0  0  0
 38 37  2  0  0  0  0
 39 38  1  0  0  0  0
 39 35  2  0  0  0  0
 40 39  1  0  0  0  0
 41 32  1  0  0  0  0
 45 38  1  0  0  0  0
 46 40  1  0  0  0  0
 47 46  2  0  0  0  0
 48 46  1  0  0  0  0
M  END
>  <minimizedAffinity>
-6.63999224

$$$$

 OpenBabel03252506303D

 48 52  0  0  0  0  0  0  0  0999 V2000
   38.5510   31.3620   38.5670 C   0  0  0  0  0  0  0  0  0  0  0  0
   39.2090   30.2420   38.0400 C   0  0  0  0  0  0  0  0  0  0  0  0
   38.2940   29.3660   37.5830 C   0  0  0  0  0  0  0  0  0  0  0  0
   37.1080   29.9160   37.8150 N   0  0  0  0  0  0  0  0  0  0  0  0
   37.2330   31.1100   38.4040 N   0  0  0  0  0  0  0  0  0  0  0  0
   40.2960   30.1710   38.0390 H   0  0  0  0  0  0  0  0  0  0  0  0
   38.4920   28.4070   37.1200 H   0  0  0  0  0  0  0  0  0  0  0  0
   39.1520   34.3040   40.6560 C   0  0  0  0  0  0  0  0  0  0  0  0
   40.4260   34.7230   40.2460 C   0  0  0  0  0  0  0  0  0  0  0  0
   41.0660   33.9680   39.2360 C   0  0  0  0  0  0  0  0  0  0  0  0
   40.3860   32.9180   38.7680 N   0  0  0  0  0  0  0  0  0  0  0  0
   39.1870   32.5270   39.1580 C   0  0  0  0  0  0  0  0  0  0  0  0
   38.5750   33.2340   40.1100 N   0  0  0  0  0  0  0  0  0  0  0  0
   38.6560   34.8890   41.4380 H   0  0  0  0  0  0  0  0  0  0  0  0
   40.8840   35.5920   40.6950 H   0  0  0  0  0  0  0  0  0  0  0  0
   42.4190   34.4010   38.7850 C   0  0  0  0  0  3  0  0  0  0  0  0
   42.7680   33.8850   37.4140 C   0  0  0  0  0  3  0  0  0  0  0  0
   41.8580   33.9030   36.7840 H   0  0  0  0  0  0  0  0  0  0  0  0
   43.3420   32.5060   37.3920 C   0  0  0  0  0  3  0  0  0  0  0  0
   43.8010   32.3550   36.3930 H   0  0  0  0  0  0  0  0  0  0  0  0
   44.3540   32.3380   38.3350 O   0  0  0  0  0  0  0  0  0  0  0  0
   43.7750   32.5410   39.6080 C   0  0  0  0  0  3  0  0  0  0  0  0
   44.4950   32.1770   40.3790 H   0  0  0  0  0  0  0  0  0  0  0  0
   43.5170   34.0210   39.7380 C   0  0  0  0  0  3  0  0  0  0  0  0
   43.2740   34.2700   40.7910 H   0  0  0  0  0  0  0  0  0  0  0  0
   35.8140   29.3260   37.4880 C   0  0  0  0  0  0  0  0  0  0  0  0
   35.9410   28.4130   36.8840 H   0  0  0  0  0  0  0  0  0  0  0  0
   35.2170   30.0330   36.9050 H   0  0  0  0  0  0  0  0  0  0  0  0
   35.0710   28.9770   38.7280 C   0  0  0  0  0  0  0  0  0  0  0  0
   34.1310   28.4510   38.4350 H   0  0  0  0  0  0  0  0  0  0  0  0
   34.7110   29.9460   39.1760 H   0  0  0  0  0  0  0  0  0  0  0  0
   36.3390   27.0110   39.7670 C   0  0  0  0  0  0  0  0  0  0  0  0
   35.7960   28.2780   39.7670 C   0  0  0  0  0  0  0  0  0  0  0  0
   35.9640   29.0080   40.9450 C   0  0  0  0  0  0  0  0  0  0  0  0
   36.6240   28.5050   42.0290 C   0  0  0  0  0  0  0  0  0  0  0  0
   36.9320   28.9580   43.2570 N   0  0  0  0  0  0  0  0  0  0  0  0
   37.6090   28.0560   43.9690 C   0  0  0  0  0  0  0  0  0  0  0  0
   37.7780   26.9190   43.1880 C   0  0  0  0  0  0  0  0  0  0  0  0
   37.1560   27.2430   42.0090 C   0  0  0  0  0  0  0  0  0  0  0  0
   36.9990   26.5020   40.8480 C   0  0  0  0  0  0  0  0  0  0  0  0
   36.1870   26.4720   38.8310 H   0  0  0  0  0  0  0  0  0  0  0  0
   35.5860   30.0240   41.0820 H   0  0  0  0  0  0  0  0  0  0  0  0
   36.6840   29.9120   43.6520 H   0  0  0  0  0  0  0  0  0  0  0  0
   37.9860   28.1530   44.9900 H   0  0  0  0  0  0  0  0  0  0  0  0
   38.2890   26.0120   43.4880 H   0  0  0  0  0  0  0  0  0  0  0  0
   37.5500   25.1530   40.7820 C   0  0  0  0  0  0  0  0  0  0  0  0
   36.8830   24.1680   41.1900 O   0  0  0  0  0  0  0  0  0  0  0  0
   38.5430   24.9730   40.3810 H   0  0  0  0  0  0  0  0  0  0  0  0
  1 12  1  0  0  0  0
  2  1  1  0  0  0  0
  3  4  1  0  0  0  0
  3  2  2  0  0  0  0
  4  5  1  0  0  0  0
  5  1  2  0  0  0  0
  6  2  1  0  0  0  0
  7  3  1  0  0  0  0
  8 14  1  0  0  0  0
  9  8  1  0  0  0  0
  9 15  1  0  0  0  0
 10  9  2  0  0  0  0
 11 12  2  0  0  0  0
 11 10  1  0  0  0  0
 12 13  1  0  0  0  0
 13  8  2  0  0  0  0
 16 10  1  0  0  0  0
 16 24  1  0  0  0  0
 17 16  1  0  0  0  0
 18 17  1  0  0  0  0
 19 17  1  0  0  0  0
 19 21  1  0  0  0  0
 20 19  1  0  0  0  0
 21 22  1  0  0  0  0
 22 24  1  0  0  0  0
 22 23  1  0  0  0  0
 24 25  1  0  0  0  0
 26  4  1  0  0  0  0
 26 29  1  0  0  0  0
 27 26  1  0  0  0  0
 28 26  1  0  0  0  0
 29 31  1  0  0  0  0
 29 33  1  0  0  0  0
 30 29  1  0  0  0  0
 32 40  1  0  0  0  0
 33 32  2  0  0  0  0
 33 34  1  0  0  0  0
 34 42  1  0  0  0  0
 34 35  2  0  0  0  0
 35 36  1  0  0  0  0
 36 43  1  0  0  0  0
 36 37  1  0  0  0  0
 37 44  1  0  0  0  0
 38 45  1  0  0  0  0
 38 37  2  0  0  0  0
 39 35  1  0  0  0  0
 39 38  1  0  0  0  0
 40 39  2  0  0  0  0
 41 32  1  0  0  0  0
 46 40  1  0  0  0  0
 46 47  2  0  0  0  0
 48 46  1  0  0  0  0
M  END
>  <minimizedAffinity>
-6.61715269

$$$$

 OpenBabel03252506303D

 48 52  0  0  0  0  0  0  0  0999 V2000
   37.8150   31.1900   40.1270 C   0  0  0  0  0  0  0  0  0  0  0  0
   37.0620   32.3180   39.7730 C   0  0  0  0  0  0  0  0  0  0  0  0
   37.8320   33.4180   39.8920 C   0  0  0  0  0  0  0  0  0  0  0  0
   39.0200   32.9930   40.3040 N   0  0  0  0  0  0  0  0  0  0  0  0
   39.0370   31.6640   40.4530 N   0  0  0  0  0  0  0  0  0  0  0  0
   36.0220   32.2320   39.4600 H   0  0  0  0  0  0  0  0  0  0  0  0
   37.5360   34.4390   39.6890 H   0  0  0  0  0  0  0  0  0  0  0  0
   36.4700   27.9780   39.0050 C   0  0  0  0  0  0  0  0  0  0  0  0
   36.4580   27.2160   40.1820 C   0  0  0  0  0  0  0  0  0  0  0  0
   36.9240   27.8370   41.3640 C   0  0  0  0  0  0  0  0  0  0  0  0
   37.3330   29.1020   41.2410 N   0  0  0  0  0  0  0  0  0  0  0  0
   37.3420   29.8150   40.1300 C   0  0  0  0  0  0  0  0  0  0  0  0
   36.9050   29.2380   39.0100 N   0  0  0  0  0  0  0  0  0  0  0  0
   36.1100   27.4980   38.0880 H   0  0  0  0  0  0  0  0  0  0  0  0
   36.1040   26.1960   40.1660 H   0  0  0  0  0  0  0  0  0  0  0  0
   36.9150   27.0430   42.6260 C   0  0  0  0  0  3  0  0  0  0  0  0
   37.8170   27.6210   43.6830 C   0  0  0  0  0  3  0  0  0  0  0  0
   37.7620   28.7250   43.6340 H   0  0  0  0  0  0  0  0  0  0  0  0
   39.2480   27.2040   43.5810 C   0  0  0  0  0  3  0  0  0  0  0  0
   39.7360   27.4610   44.5440 H   0  0  0  0  0  0  0  0  0  0  0  0
   39.3880   25.8290   43.4070 O   0  0  0  0  0  0  0  0  0  0  0  0
   38.7570   25.4970   42.1860 C   0  0  0  0  0  3  0  0  0  0  0  0
   39.0630   24.4610   41.9080 H   0  0  0  0  0  0  0  0  0  0  0  0
   37.2710   25.5960   42.4240 C   0  0  0  0  0  3  0  0  0  0  0  0
   36.7220   25.1350   41.5780 H   0  0  0  0  0  0  0  0  0  0  0  0
   40.1820   33.8340   40.5730 C   0  0  0  0  0  0  0  0  0  0  0  0
   40.9830   33.2520   41.0590 H   0  0  0  0  0  0  0  0  0  0  0  0
   39.9070   34.6510   41.2450 H   0  0  0  0  0  0  0  0  0  0  0  0
   40.7140   34.4090   39.3090 C   0  0  0  0  0  0  0  0  0  0  0  0
   40.9860   35.4750   39.4970 H   0  0  0  0  0  0  0  0  0  0  0  0
   39.8470   34.4740   38.5900 H   0  0  0  0  0  0  0  0  0  0  0  0
   43.1260   33.8980   38.6240 C   0  0  0  0  0  0  0  0  0  0  0  0
   41.7650   33.6800   38.6330 C   0  0  0  0  0  0  0  0  0  0  0  0
   41.3210   32.5940   37.8770 C   0  0  0  0  0  0  0  0  0  0  0  0
   42.1760   31.7940   37.1730 C   0  0  0  0  0  0  0  0  0  0  0  0
   42.0440   30.7150   36.3840 N   0  0  0  0  0  0  0  0  0  0  0  0
   43.2190   30.2880   35.9170 C   0  0  0  0  0  0  0  0  0  0  0  0
   44.2150   31.1200   36.4130 C   0  0  0  0  0  0  0  0  0  0  0  0
   43.5260   32.0280   37.1780 C   0  0  0  0  0  0  0  0  0  0  0  0
   43.9860   33.1020   37.9220 C   0  0  0  0  0  0  0  0  0  0  0  0
   43.4350   34.7540   39.2250 H   0  0  0  0  0  0  0  0  0  0  0  0
   40.2700   32.3080   37.7960 H   0  0  0  0  0  0  0  0  0  0  0  0
   41.1330   30.2290   36.1350 H   0  0  0  0  0  0  0  0  0  0  0  0
   43.4100   29.4380   35.2580 H   0  0  0  0  0  0  0  0  0  0  0  0
   45.2760   31.0310   36.2130 H   0  0  0  0  0  0  0  0  0  0  0  0
   45.4160   33.3880   37.9550 C   0  0  0  0  0  0  0  0  0  0  0  0
   45.8490   34.4270   38.5160 O   0  0  0  0  0  0  0  0  0  0  0  0
   46.1330   32.7120   37.4990 H   0  0  0  0  0  0  0  0  0  0  0  0
  1 12  1  0  0  0  0
  1  5  2  0  0  0  0
  2  3  2  0  0  0  0
  2  1  1  0  0  0  0
  3  4  1  0  0  0  0
  4  5  1  0  0  0  0
  4 26  1  0  0  0  0
  6  2  1  0  0  0  0
  7  3  1  0  0  0  0
  8 13  2  0  0  0  0
  8  9  1  0  0  0  0
  9 10  2  0  0  0  0
 10 16  1  0  0  0  0
 11 10  1  0  0  0  0
 12 11  2  0  0  0  0
 13 12  1  0  0  0  0
 14  8  1  0  0  0  0
 15  9  1  0  0  0  0
 16 17  1  0  0  0  0
 18 17  1  0  0  0  0
 19 17  1  0  0  0  0
 19 20  1  0  0  0  0
 21 19  1  0  0  0  0
 22 24  1  0  0  0  0
 22 21  1  0  0  0  0
 23 22  1  0  0  0  0
 24 16  1  0  0  0  0
 25 24  1  0  0  0  0
 26 27  1  0  0  0  0
 26 28  1  0  0  0  0
 29 30  1  0  0  0  0
 29 26  1  0  0  0  0
 31 29  1  0  0  0  0
 32 33  1  0  0  0  0
 32 41  1  0  0  0  0
 33 29  1  0  0  0  0
 34 33  2  0  0  0  0
 35 39  2  0  0  0  0
 35 34  1  0  0  0  0
 36 35  1  0  0  0  0
 37 36  1  0  0  0  0
 37 38  2  0  0  0  0
 38 39  1  0  0  0  0
 39 40  1  0  0  0  0
 40 46  1  0  0  0  0
 40 32  2  0  0  0  0
 42 34  1  0  0  0  0
 43 36  1  0  0  0  0
 44 37  1  0  0  0  0
 45 38  1  0  0  0  0
 46 47  2  0  0  0  0
 48 46  1  0  0  0  0
M  END
>  <minimizedAffinity>
-6.49340248

$$$$

 OpenBabel03252506303D

 48 52  0  0  0  0  0  0  0  0999 V2000
   37.3060   30.4410   40.5670 C   0  0  0  0  0  0  0  0  0  0  0  0
   36.9730   30.4640   39.2050 C   0  0  0  0  0  0  0  0  0  0  0  0
   37.1140   31.7200   38.7370 C   0  0  0  0  0  0  0  0  0  0  0  0
   37.5200   32.4540   39.7670 N   0  0  0  0  0  0  0  0  0  0  0  0
   37.6420   31.7130   40.8740 N   0  0  0  0  0  0  0  0  0  0  0  0
   36.6590   29.5620   38.6820 H   0  0  0  0  0  0  0  0  0  0  0  0
   36.9330   32.0570   37.7250 H   0  0  0  0  0  0  0  0  0  0  0  0
   37.4310   28.3260   43.5490 C   0  0  0  0  0  0  0  0  0  0  0  0
   37.2260   27.0400   43.0290 C   0  0  0  0  0  0  0  0  0  0  0  0
   37.0450   26.9250   41.6320 C   0  0  0  0  0  0  0  0  0  0  0  0
   37.0880   28.0650   40.9370 N   0  0  0  0  0  0  0  0  0  0  0  0
   37.2810   29.2730   41.4320 C   0  0  0  0  0  0  0  0  0  0  0  0
   37.4530   29.3920   42.7490 N   0  0  0  0  0  0  0  0  0  0  0  0
   37.5720   28.4170   44.6320 H   0  0  0  0  0  0  0  0  0  0  0  0
   37.2100   26.1840   43.6870 H   0  0  0  0  0  0  0  0  0  0  0  0
   36.8290   25.5650   41.0610 C   0  0  0  0  0  3  0  0  0  0  0  0
   37.3410   24.4700   41.9580 C   0  0  0  0  0  3  0  0  0  0  0  0
   37.1420   24.7500   43.0100 H   0  0  0  0  0  0  0  0  0  0  0  0
   38.7950   24.1630   41.8050 C   0  0  0  0  0  3  0  0  0  0  0  0
   38.9800   23.1860   42.2990 H   0  0  0  0  0  0  0  0  0  0  0  0
   39.1700   24.0230   40.4710 O   0  0  0  0  0  0  0  0  0  0  0  0
   38.9240   25.2630   39.8370 C   0  0  0  0  0  3  0  0  0  0  0  0
   39.4350   25.2530   38.8460 H   0  0  0  0  0  0  0  0  0  0  0  0
   37.4280   25.3880   39.6930 C   0  0  0  0  0  3  0  0  0  0  0  0
   37.1840   26.2270   39.0090 H   0  0  0  0  0  0  0  0  0  0  0  0
   37.8040   33.8850   39.7370 C   0  0  0  0  0  0  0  0  0  0  0  0
   36.9530   34.4620   40.1350 H   0  0  0  0  0  0  0  0  0  0  0  0
   37.9780   34.2110   38.7080 H   0  0  0  0  0  0  0  0  0  0  0  0
   39.0100   34.1940   40.5490 C   0  0  0  0  0  0  0  0  0  0  0  0
   38.9040   33.6890   41.5390 H   0  0  0  0  0  0  0  0  0  0  0  0
   38.9630   35.2920   40.7990 H   0  0  0  0  0  0  0  0  0  0  0  0
   40.6230   33.3250   38.7610 C   0  0  0  0  0  0  0  0  0  0  0  0
   40.3040   33.9570   39.9440 C   0  0  0  0  0  0  0  0  0  0  0  0
   41.3840   34.4470   40.6800 C   0  0  0  0  0  0  0  0  0  0  0  0
   42.6760   34.3130   40.2590 C   0  0  0  0  0  0  0  0  0  0  0  0
   43.8800   34.6710   40.7370 N   0  0  0  0  0  0  0  0  0  0  0  0
   44.8730   34.2970   39.9290 C   0  0  0  0  0  0  0  0  0  0  0  0
   44.3210   33.6470   38.8310 C   0  0  0  0  0  0  0  0  0  0  0  0
   42.9720   33.6810   39.0800 C   0  0  0  0  0  0  0  0  0  0  0  0
   41.9130   33.1870   38.3360 C   0  0  0  0  0  0  0  0  0  0  0  0
   39.7540   32.9550   38.2160 H   0  0  0  0  0  0  0  0  0  0  0  0
   41.2740   34.9690   41.6330 H   0  0  0  0  0  0  0  0  0  0  0  0
   44.0630   35.1890   41.6460 H   0  0  0  0  0  0  0  0  0  0  0  0
   45.9450   34.4560   40.0650 H   0  0  0  0  0  0  0  0  0  0  0  0
   44.8720   33.2260   37.9990 H   0  0  0  0  0  0  0  0  0  0  0  0
   42.1830   32.5070   37.0740 C   0  0  0  0  0  0  0  0  0  0  0  0
   41.7890   31.3270   36.8850 O   0  0  0  0  0  0  0  0  0  0  0  0
   42.7270   33.0030   36.2760 H   0  0  0  0  0  0  0  0  0  0  0  0
  1  5  2  0  0  0  0
  1 12  1  0  0  0  0
  2  1  1  0  0  0  0
  3  2  2  0  0  0  0
  3  4  1  0  0  0  0
  4  5  1  0  0  0  0
  6  2  1  0  0  0  0
  7  3  1  0  0  0  0
  8 14  1  0  0  0  0
  9  8  1  0  0  0  0
  9 15  1  0  0  0  0
 10  9  2  0  0  0  0
 11 12  2  0  0  0  0
 11 10  1  0  0  0  0
 12 13  1  0  0  0  0
 13  8  2  0  0  0  0
 16 10  1  0  0  0  0
 16 17  1  0  0  0  0
 17 18  1  0  0  0  0
 19 17  1  0  0  0  0
 19 20  1  0  0  0  0
 21 19  1  0  0  0  0
 22 21  1  0  0  0  0
 23 22  1  0  0  0  0
 24 22  1  0  0  0  0
 24 16  1  0  0  0  0
 25 24  1  0  0  0  0
 26  4  1  0  0  0  0
 26 27  1  0  0  0  0
 26 29  1  0  0  0  0
 28 26  1  0  0  0  0
 29 31  1  0  0  0  0
 29 30  1  0  0  0  0
 32 33  1  0  0  0  0
 33 29  1  0  0  0  0
 33 34  2  0  0  0  0
 34 42  1  0  0  0  0
 35 34  1  0  0  0  0
 35 36  1  0  0  0  0
 36 43  1  0  0  0  0
 37 44  1  0  0  0  0
 37 36  1  0  0  0  0
 38 39  1  0  0  0  0
 38 37  2  0  0  0  0
 39 35  2  0  0  0  0
 40 32  2  0  0  0  0
 40 39  1  0  0  0  0
 41 32  1  0  0  0  0
 45 38  1  0  0  0  0
 46 40  1  0  0  0  0
 47 46  2  0  0  0  0
 48 46  1  0  0  0  0
M  END
>  <minimizedAffinity>
-6.47624636

$$$$

 OpenBabel03252506303D

 48 52  0  0  0  0  0  0  0  0999 V2000
   41.4820   31.0930   41.7640 C   0  0  0  0  0  0  0  0  0  0  0  0
   42.3930   32.1470   41.9190 C   0  0  0  0  0  0  0  0  0  0  0  0
   42.0220   33.1720   41.1260 C   0  0  0  0  0  0  0  0  0  0  0  0
   40.9210   32.7740   40.5000 N   0  0  0  0  0  0  0  0  0  0  0  0
   40.5760   31.5330   40.8630 N   0  0  0  0  0  0  0  0  0  0  0  0
   43.2420   32.0700   42.5960 H   0  0  0  0  0  0  0  0  0  0  0  0
   42.5240   34.1260   41.0250 H   0  0  0  0  0  0  0  0  0  0  0  0
   42.7510   28.1410   43.5120 C   0  0  0  0  0  0  0  0  0  0  0  0
   41.5900   27.3850   43.7330 C   0  0  0  0  0  0  0  0  0  0  0  0
   40.3680   27.9200   43.2650 C   0  0  0  0  0  0  0  0  0  0  0  0
   40.4400   29.1040   42.6520 N   0  0  0  0  0  0  0  0  0  0  0  0
   41.5350   29.8120   42.4470 C   0  0  0  0  0  0  0  0  0  0  0  0
   42.6940   29.3160   42.8850 N   0  0  0  0  0  0  0  0  0  0  0  0
   43.7000   27.7280   43.8740 H   0  0  0  0  0  0  0  0  0  0  0  0
   41.6490   26.4360   44.2420 H   0  0  0  0  0  0  0  0  0  0  0  0
   39.1240   27.1290   43.4880 C   0  0  0  0  0  3  0  0  0  0  0  0
   39.2960   25.6700   43.1600 C   0  0  0  0  0  3  0  0  0  0  0  0
   40.3090   25.3520   43.4720 H   0  0  0  0  0  0  0  0  0  0  0  0
   39.1040   25.3250   41.7190 C   0  0  0  0  0  3  0  0  0  0  0  0
   38.9840   24.2240   41.6560 H   0  0  0  0  0  0  0  0  0  0  0  0
   37.9480   25.8930   41.1880 O   0  0  0  0  0  0  0  0  0  0  0  0
   38.0930   27.2960   41.2780 C   0  0  0  0  0  3  0  0  0  0  0  0
   37.3030   27.7670   40.6470 H   0  0  0  0  0  0  0  0  0  0  0  0
   37.9360   27.6570   42.7330 C   0  0  0  0  0  3  0  0  0  0  0  0
   37.8170   28.7550   42.8390 H   0  0  0  0  0  0  0  0  0  0  0  0
   40.1580   33.5560   39.5330 C   0  0  0  0  0  0  0  0  0  0  0  0
   40.2700   33.1410   38.5170 H   0  0  0  0  0  0  0  0  0  0  0  0
   40.5200   34.5870   39.5150 H   0  0  0  0  0  0  0  0  0  0  0  0
   38.7140   33.5590   39.8880 C   0  0  0  0  0  0  0  0  0  0  0  0
   38.2730   34.5270   39.5490 H   0  0  0  0  0  0  0  0  0  0  0  0
   38.6550   33.6130   41.0120 H   0  0  0  0  0  0  0  0  0  0  0  0
   37.8390   31.7930   38.2550 C   0  0  0  0  0  0  0  0  0  0  0  0
   37.9220   32.4180   39.4800 C   0  0  0  0  0  0  0  0  0  0  0  0
   37.1260   31.8770   40.4910 C   0  0  0  0  0  0  0  0  0  0  0  0
   36.3150   30.7980   40.2850 C   0  0  0  0  0  0  0  0  0  0  0  0
   35.4650   30.0820   41.0400 N   0  0  0  0  0  0  0  0  0  0  0  0
   34.8940   29.0920   40.3520 C   0  0  0  0  0  0  0  0  0  0  0  0
   35.3790   29.1280   39.0510 C   0  0  0  0  0  0  0  0  0  0  0  0
   36.2470   30.1910   39.0590 C   0  0  0  0  0  0  0  0  0  0  0  0
   37.0300   30.7130   38.0420 C   0  0  0  0  0  0  0  0  0  0  0  0
   38.4740   32.2430   37.4910 H   0  0  0  0  0  0  0  0  0  0  0  0
   37.0950   32.2740   41.5090 H   0  0  0  0  0  0  0  0  0  0  0  0
   35.2440   30.2510   42.0650 H   0  0  0  0  0  0  0  0  0  0  0  0
   34.1690   28.3580   40.7100 H   0  0  0  0  0  0  0  0  0  0  0  0
   35.1040   28.4510   38.2510 H   0  0  0  0  0  0  0  0  0  0  0  0
   36.9880   30.0980   36.7200 C   0  0  0  0  0  0  0  0  0  0  0  0
   37.7630   29.1510   36.4290 O   0  0  0  0  0  0  0  0  0  0  0  0
   36.2900   30.4440   35.9640 H   0  0  0  0  0  0  0  0  0  0  0  0
  1  2  1  0  0  0  0
  1 12  1  0  0  0  0
  2  6  1  0  0  0  0
  3  2  2  0  0  0  0
  4  5  1  0  0  0  0
  4  3  1  0  0  0  0
  5  1  2  0  0  0  0
  7  3  1  0  0  0  0
  8  9  1  0  0  0  0
  8 14  1  0  0  0  0
  9 15  1  0  0  0  0
 10 16  1  0  0  0  0
 10  9  2  0  0  0  0
 11 10  1  0  0  0  0
 12 11  2  0  0  0  0
 12 13  1  0  0  0  0
 13  8  2  0  0  0  0
 17 18  1  0  0  0  0
 17 16  1  0  0  0  0
 19 17  1  0  0  0  0
 20 19  1  0  0  0  0
 21 22  1  0  0  0  0
 21 19  1  0  0  0  0
 22 24  1  0  0  0  0
 23 22  1  0  0  0  0
 24 25  1  0  0  0  0
 24 16  1  0  0  0  0
 26 29  1  0  0  0  0
 26  4  1  0  0  0  0
 27 26  1  0  0  0  0
 28 26  1  0  0  0  0
 29 31  1  0  0  0  0
 30 29  1  0  0  0  0
 32 33  1  0  0  0  0
 33 29  1  0  0  0  0
 33 34  2  0  0  0  0
 34 42  1  0  0  0  0
 35 34  1  0  0  0  0
 35 36  1  0  0  0  0
 36 43  1  0  0  0  0
 37 44  1  0  0  0  0
 37 36  1  0  0  0  0
 38 39  1  0  0  0  0
 38 37  2  0  0  0  0
 39 35  2  0  0  0  0
 40 32  2  0  0  0  0
 40 39  1  0  0  0  0
 41 32  1  0  0  0  0
 45 38  1  0  0  0  0
 46 40  1  0  0  0  0
 47 46  2  0  0  0  0
 48 46  1  0  0  0  0
M  END
>  <minimizedAffinity>
-6.43760872

$$$$

 OpenBabel03252506303D

 48 52  0  0  0  0  0  0  0  0999 V2000
   39.5010   30.4780   42.0190 C   0  0  0  0  0  0  0  0  0  0  0  0
   40.5570   29.5760   42.2130 C   0  0  0  0  0  0  0  0  0  0  0  0
   40.1090   28.5150   42.9130 C   0  0  0  0  0  0  0  0  0  0  0  0
   38.8220   28.7440   43.1460 N   0  0  0  0  0  0  0  0  0  0  0  0
   38.4330   29.9120   42.6230 N   0  0  0  0  0  0  0  0  0  0  0  0
   41.5550   29.7770   41.8260 H   0  0  0  0  0  0  0  0  0  0  0  0
   40.6860   27.6520   43.2190 H   0  0  0  0  0  0  0  0  0  0  0  0
   38.5420   33.6000   40.3710 C   0  0  0  0  0  0  0  0  0  0  0  0
   39.7760   34.1350   39.9720 C   0  0  0  0  0  0  0  0  0  0  0  0
   40.9380   33.3930   40.2860 C   0  0  0  0  0  0  0  0  0  0  0  0
   40.7440   32.2430   40.9380 N   0  0  0  0  0  0  0  0  0  0  0  0
   39.5800   31.7450   41.3110 C   0  0  0  0  0  0  0  0  0  0  0  0
   38.4780   32.4370   41.0200 N   0  0  0  0  0  0  0  0  0  0  0  0
   37.6400   34.1730   40.1290 H   0  0  0  0  0  0  0  0  0  0  0  0
   39.8150   35.0770   39.4480 H   0  0  0  0  0  0  0  0  0  0  0  0
   42.2580   33.9440   39.8660 C   0  0  0  0  0  3  0  0  0  0  0  0
   42.1800   34.7240   38.5810 C   0  0  0  0  0  3  0  0  0  0  0  0
   41.2280   35.2880   38.5630 H   0  0  0  0  0  0  0  0  0  0  0  0
   42.2750   33.8970   37.3400 C   0  0  0  0  0  3  0  0  0  0  0  0
   42.4810   34.5890   36.4970 H   0  0  0  0  0  0  0  0  0  0  0  0
   43.3300   32.9880   37.3890 O   0  0  0  0  0  0  0  0  0  0  0  0
   43.0770   32.1130   38.4690 C   0  0  0  0  0  3  0  0  0  0  0  0
   43.7680   31.2420   38.3790 H   0  0  0  0  0  0  0  0  0  0  0  0
   43.3280   32.8970   39.7320 C   0  0  0  0  0  3  0  0  0  0  0  0
   43.3640   32.2090   40.6020 H   0  0  0  0  0  0  0  0  0  0  0  0
   37.9160   27.8640   43.8760 C   0  0  0  0  0  0  0  0  0  0  0  0
   37.5690   28.3430   44.8070 H   0  0  0  0  0  0  0  0  0  0  0  0
   38.4310   26.9380   44.1480 H   0  0  0  0  0  0  0  0  0  0  0  0
   36.7310   27.5290   43.0440 C   0  0  0  0  0  0  0  0  0  0  0  0
   36.2400   28.4820   42.7340 H   0  0  0  0  0  0  0  0  0  0  0  0
   35.9760   27.0470   43.7290 H   0  0  0  0  0  0  0  0  0  0  0  0
   36.7300   26.8210   40.5840 C   0  0  0  0  0  0  0  0  0  0  0  0
   36.9280   26.6220   41.9330 C   0  0  0  0  0  0  0  0  0  0  0  0
   37.3890   25.3550   42.2980 C   0  0  0  0  0  0  0  0  0  0  0  0
   37.6300   24.3740   41.3800 C   0  0  0  0  0  0  0  0  0  0  0  0
   38.0630   23.1020   41.4300 N   0  0  0  0  0  0  0  0  0  0  0  0
   38.1310   22.5460   40.2200 C   0  0  0  0  0  0  0  0  0  0  0  0
   37.7240   23.4880   39.2830 C   0  0  0  0  0  0  0  0  0  0  0  0
   37.4270   24.5920   40.0430 C   0  0  0  0  0  0  0  0  0  0  0  0
   36.9690   25.8420   39.6620 C   0  0  0  0  0  0  0  0  0  0  0  0
   36.3690   27.8200   40.3390 H   0  0  0  0  0  0  0  0  0  0  0  0
   37.5880   25.0620   43.3310 H   0  0  0  0  0  0  0  0  0  0  0  0
   38.3290   22.5660   42.3080 H   0  0  0  0  0  0  0  0  0  0  0  0
   38.4480   21.5330   39.9630 H   0  0  0  0  0  0  0  0  0  0  0  0
   37.6700   23.3370   38.2110 H   0  0  0  0  0  0  0  0  0  0  0  0
   36.7380   26.1190   38.2480 C   0  0  0  0  0  0  0  0  0  0  0  0
   35.5840   26.0200   37.7560 O   0  0  0  0  0  0  0  0  0  0  0  0
   37.5540   26.4140   37.5950 H   0  0  0  0  0  0  0  0  0  0  0  0
  1  2  1  0  0  0  0
  1  5  2  0  0  0  0
  2  3  2  0  0  0  0
  3  4  1  0  0  0  0
  3  7  1  0  0  0  0
  4 26  1  0  0  0  0
  5  4  1  0  0  0  0
  6  2  1  0  0  0  0
  8 13  1  0  0  0  0
  9 10  1  0  0  0  0
  9  8  2  0  0  0  0
 10 11  2  0  0  0  0
 11 12  1  0  0  0  0
 12  1  1  0  0  0  0
 13 12  2  0  0  0  0
 14  8  1  0  0  0  0
 15  9  1  0  0  0  0
 16 10  1  0  0  0  0
 17 16  1  0  0  0  0
 18 17  1  0  0  0  0
 19 21  1  0  0  0  0
 19 17  1  0  0  0  0
 20 19  1  0  0  0  0
 21 22  1  0  0  0  0
 22 24  1  0  0  0  0
 23 22  1  0  0  0  0
 24 16  1  0  0  0  0
 24 25  1  0  0  0  0
 26 28  1  0  0  0  0
 26 27  1  0  0  0  0
 29 31  1  0  0  0  0
 29 26  1  0  0  0  0
 30 29  1  0  0  0  0
 32 33  1  0  0  0  0
 33 34  2  0  0  0  0
 33 29  1  0  0  0  0
 34 42  1  0  0  0  0
 35 36  1  0  0  0  0
 35 34  1  0  0  0  0
 36 43  1  0  0  0  0
 37 36  1  0  0  0  0
 38 39  1  0  0  0  0
 38 37  2  0  0  0  0
 39 35  2  0  0  0  0
 40 39  1  0  0  0  0
 40 32  2  0  0  0  0
 41 32  1  0  0  0  0
 44 37  1  0  0  0  0
 45 38  1  0  0  0  0
 46 40  1  0  0  0  0
 47 46  2  0  0  0  0
 48 46  1  0  0  0  0
M  END
>  <minimizedAffinity>
-6.38038158

$$$$

 OpenBabel03252506303D

 48 52  0  0  0  0  0  0  0  0999 V2000
   40.7120   30.9680   41.5910 C   0  0  0  0  0  0  0  0  0  0  0  0
   41.4020   31.6330   40.5680 C   0  0  0  0  0  0  0  0  0  0  0  0
   40.6930   32.7130   40.1860 C   0  0  0  0  0  0  0  0  0  0  0  0
   39.6010   32.7230   40.9410 N   0  0  0  0  0  0  0  0  0  0  0  0
   39.5870   31.6890   41.7900 N   0  0  0  0  0  0  0  0  0  0  0  0
   42.3590   31.2680   40.1980 H   0  0  0  0  0  0  0  0  0  0  0  0
   40.9650   33.4270   39.4190 H   0  0  0  0  0  0  0  0  0  0  0  0
   42.8500   28.4080   43.0920 C   0  0  0  0  0  0  0  0  0  0  0  0
   41.9250   27.4590   43.5530 C   0  0  0  0  0  0  0  0  0  0  0  0
   40.5550   27.7260   43.3310 C   0  0  0  0  0  0  0  0  0  0  0  0
   40.2730   28.8680   42.6990 N   0  0  0  0  0  0  0  0  0  0  0  0
   41.1470   29.7580   42.2680 C   0  0  0  0  0  0  0  0  0  0  0  0
   42.4430   29.5150   42.4720 N   0  0  0  0  0  0  0  0  0  0  0  0
   43.9130   28.2030   43.2630 H   0  0  0  0  0  0  0  0  0  0  0  0
   42.2670   26.5660   44.0540 H   0  0  0  0  0  0  0  0  0  0  0  0
   39.5580   26.7270   43.8110 C   0  0  0  0  0  3  0  0  0  0  0  0
   40.0560   25.3100   43.7010 C   0  0  0  0  0  3  0  0  0  0  0  0
   41.1340   25.2920   43.9480 H   0  0  0  0  0  0  0  0  0  0  0  0
   39.8550   24.6780   42.3620 C   0  0  0  0  0  3  0  0  0  0  0  0
   40.0020   23.5850   42.4880 H   0  0  0  0  0  0  0  0  0  0  0  0
   38.5630   24.8630   41.8770 O   0  0  0  0  0  0  0  0  0  0  0  0
   38.3700   26.2550   41.7270 C   0  0  0  0  0  3  0  0  0  0  0  0
   37.4480   26.4140   41.1190 H   0  0  0  0  0  0  0  0  0  0  0  0
   38.2290   26.8270   43.1150 C   0  0  0  0  0  3  0  0  0  0  0  0
   37.8550   27.8700   43.0570 H   0  0  0  0  0  0  0  0  0  0  0  0
   38.5310   33.7140   40.8820 C   0  0  0  0  0  0  0  0  0  0  0  0
   38.9380   34.7350   40.9600 H   0  0  0  0  0  0  0  0  0  0  0  0
   37.8370   33.5660   41.7150 H   0  0  0  0  0  0  0  0  0  0  0  0
   37.7810   33.5970   39.6040 C   0  0  0  0  0  0  0  0  0  0  0  0
   38.3950   34.0610   38.7950 H   0  0  0  0  0  0  0  0  0  0  0  0
   36.8850   34.2760   39.6880 H   0  0  0  0  0  0  0  0  0  0  0  0
   36.5160   31.4010   39.9630 C   0  0  0  0  0  0  0  0  0  0  0  0
   37.2820   32.2880   39.2380 C   0  0  0  0  0  0  0  0  0  0  0  0
   37.6390   31.8730   37.9540 C   0  0  0  0  0  0  0  0  0  0  0  0
   37.2550   30.6660   37.4430 C   0  0  0  0  0  0  0  0  0  0  0  0
   37.4390   30.0170   36.2810 N   0  0  0  0  0  0  0  0  0  0  0  0
   36.8430   28.8240   36.2720 C   0  0  0  0  0  0  0  0  0  0  0  0
   36.2110   28.6420   37.4960 C   0  0  0  0  0  0  0  0  0  0  0  0
   36.4930   29.7980   38.1800 C   0  0  0  0  0  0  0  0  0  0  0  0
   36.1290   30.1920   39.4570 C   0  0  0  0  0  0  0  0  0  0  0  0
   36.2580   31.7600   40.9600 H   0  0  0  0  0  0  0  0  0  0  0  0
   38.2430   32.4770   37.2730 H   0  0  0  0  0  0  0  0  0  0  0  0
   37.9880   30.3750   35.4440 H   0  0  0  0  0  0  0  0  0  0  0  0
   36.8260   28.0890   35.4650 H   0  0  0  0  0  0  0  0  0  0  0  0
   35.6410   27.7700   37.7940 H   0  0  0  0  0  0  0  0  0  0  0  0
   35.3180   29.2990   40.2770 C   0  0  0  0  0  0  0  0  0  0  0  0
   35.8170   28.7150   41.2730 O   0  0  0  0  0  0  0  0  0  0  0  0
   34.2730   29.1210   40.0450 H   0  0  0  0  0  0  0  0  0  0  0  0
  1  5  2  0  0  0  0
  1 12  1  0  0  0  0
  2  1  1  0  0  0  0
  3  2  2  0  0  0  0
  3  4  1  0  0  0  0
  4  5  1  0  0  0  0
  6  2  1  0  0  0  0
  7  3  1  0  0  0  0
  8 14  1  0  0  0  0
  8  9  1  0  0  0  0
  9 15  1  0  0  0  0
 10  9  2  0  0  0  0
 10 16  1  0  0  0  0
 11 10  1  0  0  0  0
 12 13  1  0  0  0  0
 12 11  2  0  0  0  0
 13  8  2  0  0  0  0
 17 16  1  0  0  0  0
 17 18  1  0  0  0  0
 19 20  1  0  0  0  0
 19 17  1  0  0  0  0
 21 19  1  0  0  0  0
 22 21  1  0  0  0  0
 22 24  1  0  0  0  0
 23 22  1  0  0  0  0
 24 16  1  0  0  0  0
 25 24  1  0  0  0  0
 26  4  1  0  0  0  0
 26 27  1  0  0  0  0
 26 28  1  0  0  0  0
 29 31  1  0  0  0  0
 29 26  1  0  0  0  0
 30 29  1  0  0  0  0
 32 41  1  0  0  0  0
 33 29  1  0  0  0  0
 33 32  2  0  0  0  0
 34 33  1  0  0  0  0
 35 34  2  0  0  0  0
 35 39  1  0  0  0  0
 36 35  1  0  0  0  0
 37 36  1  0  0  0  0
 37 38  2  0  0  0  0
 38 45  1  0  0  0  0
 38 39  1  0  0  0  0
 39 40  2  0  0  0  0
 40 32  1  0  0  0  0
 40 46  1  0  0  0  0
 42 34  1  0  0  0  0
 43 36  1  0  0  0  0
 44 37  1  0  0  0  0
 46 47  2  0  0  0  0
 48 46  1  0  0  0  0
M  END
>  <minimizedAffinity>
-6.36945581

$$$$

 OpenBabel03252506303D

 48 52  0  0  0  0  0  0  0  0999 V2000
   36.4370   26.6150   38.3740 C   0  0  0  0  0  0  0  0  0  0  0  0
   36.8120   26.0110   37.1660 C   0  0  0  0  0  0  0  0  0  0  0  0
   36.4590   26.8140   36.1420 C   0  0  0  0  0  0  0  0  0  0  0  0
   35.8850   27.8790   36.6890 N   0  0  0  0  0  0  0  0  0  0  0  0
   35.8580   27.7850   38.0240 N   0  0  0  0  0  0  0  0  0  0  0  0
   37.3090   25.0430   37.1450 H   0  0  0  0  0  0  0  0  0  0  0  0
   36.6160   26.6240   35.0880 H   0  0  0  0  0  0  0  0  0  0  0  0
   36.7360   24.2420   41.1410 C   0  0  0  0  0  0  0  0  0  0  0  0
   37.0410   25.0700   42.2320 C   0  0  0  0  0  0  0  0  0  0  0  0
   37.1390   26.4590   41.9860 C   0  0  0  0  0  0  0  0  0  0  0  0
   36.9290   26.8490   40.7260 N   0  0  0  0  0  0  0  0  0  0  0  0
   36.6430   26.0660   39.7030 C   0  0  0  0  0  0  0  0  0  0  0  0
   36.5480   24.7530   39.9250 N   0  0  0  0  0  0  0  0  0  0  0  0
   36.6590   23.1650   41.3300 H   0  0  0  0  0  0  0  0  0  0  0  0
   37.1910   24.6440   43.2120 H   0  0  0  0  0  0  0  0  0  0  0  0
   37.4590   27.3550   43.1340 C   0  0  0  0  0  3  0  0  0  0  0  0
   37.3680   28.8140   42.7750 C   0  0  0  0  0  3  0  0  0  0  0  0
   36.5180   28.9580   42.0820 H   0  0  0  0  0  0  0  0  0  0  0  0
   38.6010   29.3830   42.1530 C   0  0  0  0  0  3  0  0  0  0  0  0
   38.5110   30.4890   42.1930 H   0  0  0  0  0  0  0  0  0  0  0  0
   39.7550   29.0430   42.8560 O   0  0  0  0  0  0  0  0  0  0  0  0
   39.8670   27.6350   42.8170 C   0  0  0  0  0  3  0  0  0  0  0  0
   40.8930   27.3590   43.1550 H   0  0  0  0  0  0  0  0  0  0  0  0
   38.8080   27.0890   43.7420 C   0  0  0  0  0  3  0  0  0  0  0  0
   38.9880   26.0100   43.9260 H   0  0  0  0  0  0  0  0  0  0  0  0
   35.3400   29.0220   35.9650 C   0  0  0  0  0  0  0  0  0  0  0  0
   36.0500   29.3750   35.1990 H   0  0  0  0  0  0  0  0  0  0  0  0
   35.1550   29.8500   36.6560 H   0  0  0  0  0  0  0  0  0  0  0  0
   34.0630   28.6570   35.2990 C   0  0  0  0  0  0  0  0  0  0  0  0
   33.9110   27.5570   35.4110 H   0  0  0  0  0  0  0  0  0  0  0  0
   34.2210   28.7980   34.1910 H   0  0  0  0  0  0  0  0  0  0  0  0
   32.1640   30.3300   34.9120 C   0  0  0  0  0  0  0  0  0  0  0  0
   32.8820   29.4170   35.6530 C   0  0  0  0  0  0  0  0  0  0  0  0
   32.4090   29.1790   36.9450 C   0  0  0  0  0  0  0  0  0  0  0  0
   31.3060   29.8080   37.4470 C   0  0  0  0  0  0  0  0  0  0  0  0
   30.6380   29.7820   38.6130 N   0  0  0  0  0  0  0  0  0  0  0  0
   29.5900   30.6080   38.6090 C   0  0  0  0  0  0  0  0  0  0  0  0
   29.5330   31.2360   37.3710 C   0  0  0  0  0  0  0  0  0  0  0  0
   30.6060   30.7130   36.6940 C   0  0  0  0  0  0  0  0  0  0  0  0
   31.0610   30.9630   35.4090 C   0  0  0  0  0  0  0  0  0  0  0  0
   32.5640   30.4900   33.9100 H   0  0  0  0  0  0  0  0  0  0  0  0
   32.8820   28.4800   37.6390 H   0  0  0  0  0  0  0  0  0  0  0  0
   30.8810   29.1910   39.4610 H   0  0  0  0  0  0  0  0  0  0  0  0
   28.8750   30.7880   39.4150 H   0  0  0  0  0  0  0  0  0  0  0  0
   28.7930   31.9640   37.0610 H   0  0  0  0  0  0  0  0  0  0  0  0
   30.3460   31.9200   34.5720 C   0  0  0  0  0  0  0  0  0  0  0  0
   30.9710   32.6720   33.7800 O   0  0  0  0  0  0  0  0  0  0  0  0
   29.2640   32.0030   34.6150 H   0  0  0  0  0  0  0  0  0  0  0  0
  1 12  1  0  0  0  0
  2  1  1  0  0  0  0
  3  4  1  0  0  0  0
  3  2  2  0  0  0  0
  4  5  1  0  0  0  0
  5  1  2  0  0  0  0
  6  2  1  0  0  0  0
  7  3  1  0  0  0  0
  8 14  1  0  0  0  0
  8  9  1  0  0  0  0
  9 15  1  0  0  0  0
 10  9  2  0  0  0  0
 10 16  1  0  0  0  0
 11 10  1  0  0  0  0
 12 13  1  0  0  0  0
 12 11  2  0  0  0  0
 13  8  2  0  0  0  0
 16 24  1  0  0  0  0
 17 16  1  0  0  0  0
 18 17  1  0  0  0  0
 19 20  1  0  0  0  0
 19 17  1  0  0  0  0
 19 21  1  0  0  0  0
 22 21  1  0  0  0  0
 22 23  1  0  0  0  0
 22 24  1  0  0  0  0
 24 25  1  0  0  0  0
 26 28  1  0  0  0  0
 26  4  1  0  0  0  0
 27 26  1  0  0  0  0
 29 30  1  0  0  0  0
 29 33  1  0  0  0  0
 29 26  1  0  0  0  0
 31 29  1  0  0  0  0
 32 40  2  0  0  0  0
 32 33  1  0  0  0  0
 33 34  2  0  0  0  0
 34 35  1  0  0  0  0
 34 42  1  0  0  0  0
 35 36  1  0  0  0  0
 36 43  1  0  0  0  0
 37 36  1  0  0  0  0
 37 44  1  0  0  0  0
 38 37  2  0  0  0  0
 39 38  1  0  0  0  0
 39 35  2  0  0  0  0
 40 39  1  0  0  0  0
 41 32  1  0  0  0  0
 45 38  1  0  0  0  0
 46 48  1  0  0  0  0
 46 40  1  0  0  0  0
 47 46  2  0  0  0  0
M  END
>  <minimizedAffinity>
-6.36467314

$$$$

 OpenBabel03252506303D

 48 52  0  0  0  0  0  0  0  0999 V2000
   38.3860   31.3740   38.5990 C   0  0  0  0  0  0  0  0  0  0  0  0
   39.0320   30.3520   37.8890 C   0  0  0  0  0  0  0  0  0  0  0  0
   38.1180   29.4460   37.4890 C   0  0  0  0  0  0  0  0  0  0  0  0
   36.9460   29.8850   37.9320 N   0  0  0  0  0  0  0  0  0  0  0  0
   37.0780   31.0370   38.6000 N   0  0  0  0  0  0  0  0  0  0  0  0
   40.1090   30.3640   37.7300 H   0  0  0  0  0  0  0  0  0  0  0  0
   38.3070   28.5450   36.9210 H   0  0  0  0  0  0  0  0  0  0  0  0
   38.9960   34.3050   40.7020 C   0  0  0  0  0  0  0  0  0  0  0  0
   40.2700   34.7240   40.2920 C   0  0  0  0  0  0  0  0  0  0  0  0
   40.9070   33.9720   39.2780 C   0  0  0  0  0  0  0  0  0  0  0  0
   40.2250   32.9260   38.8050 N   0  0  0  0  0  0  0  0  0  0  0  0
   39.0250   32.5350   39.1940 C   0  0  0  0  0  0  0  0  0  0  0  0
   38.4160   33.2390   40.1510 N   0  0  0  0  0  0  0  0  0  0  0  0
   38.5010   34.8860   41.4870 H   0  0  0  0  0  0  0  0  0  0  0  0
   40.7300   35.5890   40.7450 H   0  0  0  0  0  0  0  0  0  0  0  0
   42.2610   34.4050   38.8270 C   0  0  0  0  0  3  0  0  0  0  0  0
   42.6010   33.9060   37.4480 C   0  0  0  0  0  3  0  0  0  0  0  0
   41.6890   33.9390   36.8220 H   0  0  0  0  0  0  0  0  0  0  0  0
   43.1690   32.5250   37.4040 C   0  0  0  0  0  3  0  0  0  0  0  0
   43.6230   32.3870   36.4000 H   0  0  0  0  0  0  0  0  0  0  0  0
   44.1840   32.3390   38.3400 O   0  0  0  0  0  0  0  0  0  0  0  0
   43.6100   32.5260   39.6180 C   0  0  0  0  0  3  0  0  0  0  0  0
   44.3320   32.1480   40.3800 H   0  0  0  0  0  0  0  0  0  0  0  0
   43.3610   34.0060   39.7700 C   0  0  0  0  0  3  0  0  0  0  0  0
   43.1230   34.2410   40.8280 H   0  0  0  0  0  0  0  0  0  0  0  0
   35.6580   29.2260   37.7380 C   0  0  0  0  0  0  0  0  0  0  0  0
   35.7830   28.2770   37.1910 H   0  0  0  0  0  0  0  0  0  0  0  0
   34.9940   29.8660   37.1500 H   0  0  0  0  0  0  0  0  0  0  0  0
   35.0160   28.9410   39.0480 C   0  0  0  0  0  0  0  0  0  0  0  0
   34.0050   28.5090   38.8540 H   0  0  0  0  0  0  0  0  0  0  0  0
   34.7980   29.9370   39.5280 H   0  0  0  0  0  0  0  0  0  0  0  0
   36.1300   28.4750   41.3050 C   0  0  0  0  0  0  0  0  0  0  0  0
   35.7730   28.1680   40.0090 C   0  0  0  0  0  0  0  0  0  0  0  0
   36.2010   26.9240   39.5420 C   0  0  0  0  0  0  0  0  0  0  0  0
   36.9260   26.0630   40.3140 C   0  0  0  0  0  0  0  0  0  0  0  0
   37.4590   24.8410   40.1420 N   0  0  0  0  0  0  0  0  0  0  0  0
   38.0970   24.4140   41.2330 C   0  0  0  0  0  0  0  0  0  0  0  0
   37.9970   25.3960   42.2100 C   0  0  0  0  0  0  0  0  0  0  0  0
   37.2710   26.3870   41.5990 C   0  0  0  0  0  0  0  0  0  0  0  0
   36.8560   27.6170   42.0820 C   0  0  0  0  0  0  0  0  0  0  0  0
   35.7780   29.4530   41.6340 H   0  0  0  0  0  0  0  0  0  0  0  0
   35.9870   26.5540   38.5360 H   0  0  0  0  0  0  0  0  0  0  0  0
   37.4030   24.2520   39.2600 H   0  0  0  0  0  0  0  0  0  0  0  0
   38.6190   23.4650   41.3760 H   0  0  0  0  0  0  0  0  0  0  0  0
   38.4150   25.3440   43.2090 H   0  0  0  0  0  0  0  0  0  0  0  0
   37.2010   28.0040   43.4460 C   0  0  0  0  0  0  0  0  0  0  0  0
   37.9370   29.0010   43.6620 O   0  0  0  0  0  0  0  0  0  0  0  0
   36.8310   27.4420   44.2970 H   0  0  0  0  0  0  0  0  0  0  0  0
  1  5  2  0  0  0  0
  1 12  1  0  0  0  0
  2  1  1  0  0  0  0
  3  2  2  0  0  0  0
  3  4  1  0  0  0  0
  4  5  1  0  0  0  0
  6  2  1  0  0  0  0
  7  3  1  0  0  0  0
  8 14  1  0  0  0  0
  9  8  1  0  0  0  0
  9 15  1  0  0  0  0
 10  9  2  0  0  0  0
 11 12  2  0  0  0  0
 11 10  1  0  0  0  0
 12 13  1  0  0  0  0
 13  8  2  0  0  0  0
 16 10  1  0  0  0  0
 16 24  1  0  0  0  0
 17 16  1  0  0  0  0
 18 17  1  0  0  0  0
 19 17  1  0  0  0  0
 19 21  1  0  0  0  0
 20 19  1  0  0  0  0
 21 22  1  0  0  0  0
 22 24  1  0  0  0  0
 22 23  1  0  0  0  0
 24 25  1  0  0  0  0
 26  4  1  0  0  0  0
 26 29  1  0  0  0  0
 27 26  1  0  0  0  0
 28 26  1  0  0  0  0
 29 31  1  0  0  0  0
 29 33  1  0  0  0  0
 30 29  1  0  0  0  0
 32 41  1  0  0  0  0
 32 40  1  0  0  0  0
 33 32  2  0  0  0  0
 34 33  1  0  0  0  0
 34 35  2  0  0  0  0
 35 39  1  0  0  0  0
 36 35  1  0  0  0  0
 36 37  1  0  0  0  0
 37 44  1  0  0  0  0
 37 38  2  0  0  0  0
 38 45  1  0  0  0  0
 39 40  2  0  0  0  0
 39 38  1  0  0  0  0
 40 46  1  0  0  0  0
 42 34  1  0  0  0  0
 43 36  1  0  0  0  0
 46 47  2  0  0  0  0
 46 48  1  0  0  0  0
M  END
>  <minimizedAffinity>
-6.35105848

$$$$
