
 OpenBabel03252508153D

 38 41  0  0  1  0  0  0  0  0999 V2000
   46.0220   33.0770   46.0860 C   0  0  0  0  0  3  0  0  0  0  0  0
   46.8500   32.1700   45.7420 C   0  0  0  0  0  3  0  0  0  0  0  0
   44.4910   36.0080   44.4620 C   0  0  0  0  0  0  0  0  0  0  0  0
   45.0780   36.0240   43.2040 C   0  0  0  0  0  0  0  0  0  0  0  0
   45.9990   35.0270   42.9380 C   0  0  0  0  0  0  0  0  0  0  0  0
   46.2500   34.1330   43.9020 N   0  0  0  0  0  0  0  0  0  0  0  0
   45.6900   34.1130   45.1090 C   0  0  0  0  0  0  0  0  0  0  0  0
   44.8060   35.0780   45.3560 N   0  0  0  0  0  0  0  0  0  0  0  0
   43.7690   36.7770   44.6910 H   0  0  0  0  0  0  0  0  0  0  0  0
   44.8690   36.7440   42.4410 H   0  0  0  0  0  0  0  0  0  0  0  0
   46.7160   34.8890   41.6670 C   0  0  0  0  0  3  0  0  0  0  0  0
   46.9090   33.4170   41.2820 C   0  0  0  0  0  3  0  0  0  0  0  0
   47.6750   32.9470   41.9050 H   0  0  0  0  0  0  0  0  0  0  0  0
   47.3780   33.4540   39.8390 C   0  0  0  0  0  3  0  0  0  0  0  0
   47.9620   32.5480   39.6210 H   0  0  0  0  0  0  0  0  0  0  0  0
   47.9780   34.6430   39.5090 O   0  0  0  0  0  0  0  0  0  0  0  0
   48.8040   35.1810   40.4830 C   0  0  0  0  0  3  0  0  0  0  0  0
   49.1090   36.1890   40.0870 H   0  0  0  0  0  0  0  0  0  0  0  0
   48.1270   35.4320   41.7990 C   0  0  0  0  0  3  0  0  0  0  0  0
   48.6430   34.7930   42.5650 H   0  0  0  0  0  0  0  0  0  0  0  0
   47.1460   31.1230   46.8090 C   0  0  0  0  0  0  0  0  0  0  0  0
   48.1830   30.7760   46.7290 H   0  0  0  0  0  0  0  0  0  0  0  0
   46.4710   30.2770   46.5800 H   0  0  0  0  0  0  0  0  0  0  0  0
   46.7760   31.6640   48.1700 C   0  0  1  0  0  0  0  0  0  0  0  0
   46.2140   30.6810   49.1370 C   0  0  0  0  0  0  0  0  0  0  0  0
   47.5430   31.2200   49.3570 C   0  0  1  0  0  0  0  0  0  0  0  0
   46.3830   32.6970   48.1880 H   0  0  0  0  0  0  0  0  0  0  0  0
   46.1050   29.6210   48.8170 H   0  0  0  0  0  0  0  0  0  0  0  0
   45.3720   30.9870   49.8060 H   0  0  0  0  0  0  0  0  0  0  0  0
   47.6310   31.9830   50.1910 H   0  0  0  0  0  0  0  0  0  0  0  0
   48.8080   30.4820   49.1360 C   0  0  0  0  0  0  0  0  0  0  0  0
   49.6600   30.2640   50.4210 C   0  0  0  0  0  0  0  0  0  0  0  0
   50.1070   31.2740   49.4470 C   0  0  0  0  0  0  0  0  0  0  0  0
   48.8910   29.7050   48.3540 H   0  0  0  0  0  0  0  0  0  0  0  0
   49.2400   30.6430   51.3740 H   0  0  0  0  0  0  0  0  0  0  0  0
   50.2200   29.3030   50.4350 H   0  0  0  0  0  0  0  0  0  0  0  0
   49.9670   32.3480   49.6680 H   0  0  0  0  0  0  0  0  0  0  0  0
   50.9540   31.0850   48.7410 H   0  0  0  0  0  0  0  0  0  0  0  0
  2  1  2  0  0  0  0
  2 21  1  0  0  0  0
  3  9  1  0  0  0  0
  3  8  1  0  0  0  0
  4  3  2  0  0  0  0
  5  4  1  0  0  0  0
  5  6  2  0  0  0  0
  6  7  1  0  0  0  0
  7  8  2  0  0  0  0
  7  1  1  0  0  0  0
 10  4  1  0  0  0  0
 11 19  1  0  0  0  0
 11  5  1  0  0  0  0
 12 11  1  0  0  0  0
 12 13  1  0  0  0  0
 14 12  1  0  0  0  0
 15 14  1  0  0  0  0
 16 14  1  0  0  0  0
 16 17  1  0  0  0  0
 17 19  1  0  0  0  0
 18 17  1  0  0  0  0
 19 20  1  0  0  0  0
 21 24  1  0  0  0  0
 22 21  1  0  0  0  0
 23 21  1  0  0  0  0
 24 27  1  1  0  0  0
 24 25  1  0  0  0  0
 24 26  1  0  0  0  0
 25 26  1  0  0  0  0
 25 29  1  0  0  0  0
 26 30  1  1  0  0  0
 28 25  1  0  0  0  0
 31 26  1  0  0  0  0
 31 33  1  0  0  0  0
 31 32  1  0  0  0  0
 32 36  1  0  0  0  0
 32 35  1  0  0  0  0
 33 37  1  0  0  0  0
 33 32  1  0  0  0  0
 34 31  1  0  0  0  0
 38 33  1  0  0  0  0
M  END
>  <minimizedAffinity>
-5.82961893

>  <minimizedRMSD>
0.447511524

$$$$
