REMARK  Name = 
REMARK  9 active torsions:
REMARK  status: ('A' for Active; 'I' for Inactive)
REMARK    1  A    between atoms: N_1  and  C_7
REMARK    2  A    between atoms: C_6  and  O_15
REMARK    3  A    between atoms: C_7  and  C_8
REMARK    4  A    between atoms: C_8  and  C_11
REMARK    5  A    between atoms: O_15  and  P_17
REMARK    6  A    between atoms: P_17  and  O_18
REMARK    7  A    between atoms: P_17  and  O_19
REMARK    8  A    between atoms: O_19  and  C_20
REMARK    9  A    between atoms: C_20  and  C_40
REMARK                            x       y       z     vdW  Elec       q    Type
REMARK                         _______ _______ _______ _____ _____    ______ ____
ROOT
ATOM      1  N   UNL     1      47.161  34.165  43.084  0.00  0.00    +0.000 NA
ATOM      2  C   UNL     1      46.650  35.353  42.519  0.00  0.00    +0.000 C 
ATOM      3  C   UNL     1      45.164  35.574  42.723  0.00  0.00    +0.000 C 
ATOM      4  C   UNL     1      44.638  35.037  44.025  0.00  0.00    +0.000 C 
ATOM      5  C   UNL     1      45.744  34.478  44.891  0.00  0.00    +0.000 C 
ATOM      6  C   UNL     1      46.423  33.398  43.963  0.00  0.00    +0.000 C 
ATOM      7  H   UNL     1      46.832  35.514  41.450  0.00  0.00    +0.000 HD
ATOM      8  H   UNL     1      47.159  36.213  43.034  0.00  0.00    +0.000 HD
ATOM      9  H   UNL     1      44.632  35.159  41.845  0.00  0.00    +0.000 HD
ATOM     10  H   UNL     1      44.971  36.671  42.721  0.00  0.00    +0.000 HD
ATOM     11  H   UNL     1      44.094  35.812  44.616  0.00  0.00    +0.000 HD
ATOM     12  H   UNL     1      43.919  34.226  43.853  0.00  0.00    +0.000 HD
ATOM     13  H   UNL     1      45.297  33.927  45.724  0.00  0.00    +0.000 HD
ATOM     14  H   UNL     1      46.503  35.231  45.183  0.00  0.00    +0.000 HD
ATOM     15  H   UNL     1      45.559  32.826  43.568  0.00  0.00    +0.000 HD
ENDROOT
BRANCH   1  16
ATOM     16  C   UNL     1      48.147  33.508  42.269  0.00  0.00    +0.000 C 
ATOM     17  H   UNL     1      48.764  32.859  42.928  0.00  0.00    +0.000 HD
ATOM     18  H   UNL     1      48.762  34.297  41.801  0.00  0.00    +0.000 HD
BRANCH  16  19
ATOM     19  C   UNL     1      47.469  32.659  41.262  0.00  0.00    +0.000 C 
ATOM     20  H   UNL     1      47.501  31.575  41.472  0.00  0.00    +0.000 HD
ATOM     21  H   UNL     1      46.374  32.903  41.195  0.00  0.00    +0.000 HD
BRANCH  19  24
ATOM     22  C   UNL     1      49.329  32.261  38.024  0.00  0.00    +0.000 A 
ATOM     23  C   UNL     1      48.807  32.015  39.307  0.00  0.00    +0.000 A 
ATOM     24  C   UNL     1      48.007  32.943  39.910  0.00  0.00    +0.000 A 
ATOM     25  N   UNL     1      47.753  34.068  39.235  0.00  0.00    +0.000 NA
ATOM     26  C   UNL     1      48.238  34.321  38.016  0.00  0.00    +0.000 A 
ATOM     27  N   UNL     1      49.029  33.430  37.392  0.00  0.00    +0.000 NA
ATOM     28  H   UNL     1      49.971  31.525  37.532  0.00  0.00    +0.000 HD
ATOM     29  H   UNL     1      49.071  31.069  39.776  0.00  0.00    +0.000 HD
ATOM     30  H   UNL     1      47.932  35.288  37.607  0.00  0.00    +0.000 HD
ENDBRANCH  19  24
ENDBRANCH  16  19
ENDBRANCH   1  16
BRANCH   6  31
ATOM     31  O   UNL     1      47.215  32.710  44.855  0.00  0.00    +0.000 OA
BRANCH  31  33
ATOM     32  O   UNL     1      46.040  30.544  43.879  0.00  0.00    +0.000 OA
ATOM     33  P   UNL     1      46.672  31.136  45.137  0.00  0.00    +0.000 P 
BRANCH  33  34
ATOM     34  O   UNL     1      45.416  31.274  46.275  0.00  0.00    +0.000 OA
ATOM     35  H   UNL     1      45.517  30.652  47.034  0.00  0.00    +0.000 HD
ENDBRANCH  33  34
BRANCH  33  36
ATOM     36  O   UNL     1      47.867  30.160  45.781  0.00  0.00    +0.000 OA
BRANCH  36  37
ATOM     37  C   UNL     1      47.733  28.892  45.211  0.00  0.00    +0.000 C 
ATOM     38  H   UNL     1      46.752  28.476  45.560  0.00  0.00    +0.000 HD
ATOM     39  H   UNL     1      47.783  28.920  44.121  0.00  0.00    +0.000 HD
BRANCH  37  40
ATOM     40  C   UNL     1      48.829  28.041  45.818  0.00  0.00    +0.000 C 
ATOM     41  C   UNL     1      50.166  28.745  45.858  0.00  0.00    +0.000 C 
ATOM     42  H   UNL     1      50.554  28.853  44.825  0.00  0.00    +0.000 HD
ATOM     43  C   UNL     1      51.108  27.775  46.573  0.00  0.00    +0.000 C 
ATOM     44  H   UNL     1      52.142  28.172  46.631  0.00  0.00    +0.000 HD
ATOM     45  O   UNL     1      51.173  26.591  45.874  0.00  0.00    +0.000 OA
ATOM     46  C   UNL     1      49.984  25.905  45.771  0.00  0.00    +0.000 C 
ATOM     47  H   UNL     1      50.190  24.989  45.186  0.00  0.00    +0.000 HD
ATOM     48  C   UNL     1      48.950  26.753  45.041  0.00  0.00    +0.000 C 
ATOM     49  H   UNL     1      49.340  27.001  44.037  0.00  0.00    +0.000 HD
ENDBRANCH  37  40
ENDBRANCH  36  37
ENDBRANCH  33  36
ENDBRANCH  31  33
ENDBRANCH   6  31
TORSDOF 9
