
 OpenBabel03252501013D

 26 28  0  0  1  0  0  0  0  0999 V2000
   46.7210   35.1060   41.6740 C   0  0  1  0  0  0  0  0  0  0  0  0
   48.2270   35.2270   41.7500 C   0  0  0  0  0  0  0  0  0  0  0  0
   47.5180   33.9500   41.2730 C   0  0  2  0  0  0  0  0  0  0  0  0
   46.2510   35.8230   40.9700 H   0  0  0  0  0  0  0  0  0  0  0  0
   48.7320   35.1990   42.7460 H   0  0  0  0  0  0  0  0  0  0  0  0
   48.7250   35.8520   41.0140 H   0  0  0  0  0  0  0  0  0  0  0  0
   47.6080   33.0970   41.9550 H   0  0  0  0  0  0  0  0  0  0  0  0
   47.5300   33.5960   39.8280 C   0  0  0  0  0  0  0  0  0  0  0  0
   46.2030   33.3280   39.2080 C   0  0  0  0  0  0  0  0  0  0  0  0
   45.6850   34.3100   39.0500 H   0  0  0  0  0  0  0  0  0  0  0  0
   46.4530   32.7790   37.8140 C   0  0  0  0  0  0  0  0  0  0  0  0
   45.4960   32.5750   37.2960 H   0  0  0  0  0  0  0  0  0  0  0  0
   47.2110   33.6700   37.0590 O   0  0  0  0  0  0  0  0  0  0  0  0
   48.4640   33.8410   37.6230 C   0  0  0  0  0  0  0  0  0  0  0  0
   48.8910   32.8480   37.9480 H   0  0  0  0  0  0  0  0  0  0  0  0
   48.2620   34.5890   38.9460 C   0  0  0  0  0  0  0  0  0  0  0  0
   49.2130   34.9300   39.3840 H   0  0  0  0  0  0  0  0  0  0  0  0
   44.5300   35.8830   44.6410 C   0  0  0  0  0  0  0  0  0  0  0  0
   45.1190   36.0220   43.3640 C   0  0  0  0  0  0  0  0  0  0  0  0
   46.0560   35.0600   43.0200 C   0  0  0  0  0  0  0  0  0  0  0  0
   46.3620   34.0480   43.9000 N   0  0  0  0  0  0  0  0  0  0  0  0
   45.7720   33.9510   45.1180 C   0  0  0  0  0  0  0  0  0  0  0  0
   44.8610   34.8740   45.4690 N   0  0  0  0  0  0  0  0  0  0  0  0
   43.7850   36.6000   44.9820 H   0  0  0  0  0  0  0  0  0  0  0  0
   44.8580   36.8170   42.7120 H   0  0  0  0  0  0  0  0  0  0  0  0
   46.1280   33.0980   45.6780 H   0  0  0  0  0  0  0  0  0  0  0  0
  1  4  1  6  0  0  0
  1  2  1  0  0  0  0
  1 20  1  0  0  0  0
  2  5  1  0  0  0  0
  3  1  1  0  0  0  0
  3  2  1  0  0  0  0
  3  7  1  1  0  0  0
  6  2  1  0  0  0  0
  8  3  1  0  0  0  0
  9  8  1  0  0  0  0
 10  9  1  0  0  0  0
 11  9  1  0  0  0  0
 12 11  1  0  0  0  0
 13 14  1  0  0  0  0
 13 11  1  0  0  0  0
 14 15  1  0  0  0  0
 14 16  1  0  0  0  0
 16 17  1  0  0  0  0
 16  8  1  0  0  0  0
 18 24  1  0  0  0  0
 18 23  1  0  0  0  0
 19 18  2  0  0  0  0
 20 19  1  0  0  0  0
 20 21  2  0  0  0  0
 21 22  1  0  0  0  0
 22 23  2  0  0  0  0
 22 26  1  0  0  0  0
 25 19  1  0  0  0  0
M  END
>  <minimizedAffinity>
-4.79248095

>  <minimizedRMSD>
1.27722299

$$$$
