
 OpenBabel03252508573D

 25 26  0  0  0  0  0  0  0  0999 V2000
   36.6040   27.2260   42.8410 C   0  0  0  0  0  0  0  0  0  0  0  0
   36.0310   26.6350   43.5850 H   0  0  0  0  0  0  0  0  0  0  0  0
   35.8900   27.8150   42.2420 H   0  0  0  0  0  0  0  0  0  0  0  0
   37.3260   26.2800   41.9210 C   0  0  0  0  0  3  0  0  0  0  0  0
   37.0010   26.4850   40.4830 C   0  0  0  0  0  3  0  0  0  0  0  0
   37.8180   26.9890   39.9120 H   0  0  0  0  0  0  0  0  0  0  0  0
   36.5340   25.2680   39.7640 C   0  0  0  0  0  3  0  0  0  0  0  0
   36.8190   25.3840   38.6790 H   0  0  0  0  0  0  0  0  0  0  0  0
   37.0090   24.0650   40.1580 O   0  0  0  0  0  0  0  0  0  0  0  0
   37.5840   23.9500   41.3850 C   0  0  0  0  0  3  0  0  0  0  0  0
   37.3810   22.9130   41.7840 H   0  0  0  0  0  0  0  0  0  0  0  0
   36.9140   24.8750   42.3660 C   0  0  0  0  0  3  0  0  0  0  0  0
   37.1990   24.7210   43.4130 H   0  0  0  0  0  0  0  0  0  0  0  0
   37.5660   28.1570   43.5730 C   0  0  0  0  0  0  0  0  0  0  0  0
   37.1140   28.5400   44.4920 H   0  0  0  0  0  0  0  0  0  0  0  0
   38.4760   27.5940   43.8540 H   0  0  0  0  0  0  0  0  0  0  0  0
   39.3640   30.9940   41.8400 C   0  0  0  0  0  0  0  0  0  0  0  0
   39.1080   29.9010   42.6860 C   0  0  0  0  0  0  0  0  0  0  0  0
   37.8420   29.3100   42.6820 C   0  0  0  0  0  0  0  0  0  0  0  0
   36.9060   29.8480   41.8320 N   0  0  0  0  0  0  0  0  0  0  0  0
   37.1910   30.8880   41.0460 C   0  0  0  0  0  0  0  0  0  0  0  0
   38.3950   31.4680   41.0320 N   0  0  0  0  0  0  0  0  0  0  0  0
   40.3690   31.3800   41.9160 H   0  0  0  0  0  0  0  0  0  0  0  0
   39.8620   29.5040   43.3380 H   0  0  0  0  0  0  0  0  0  0  0  0
   36.3600   31.2160   40.4210 H   0  0  0  0  0  0  0  0  0  0  0  0
  1 14  1  0  0  0  0
  1  2  1  0  0  0  0
  3  1  1  0  0  0  0
  4 12  1  0  0  0  0
  4  1  1  0  0  0  0
  5  4  1  0  0  0  0
  6  5  1  0  0  0  0
  7  9  1  0  0  0  0
  7  5  1  0  0  0  0
  8  7  1  0  0  0  0
  9 10  1  0  0  0  0
 10 11  1  0  0  0  0
 10 12  1  0  0  0  0
 12 13  1  0  0  0  0
 14 16  1  0  0  0  0
 14 15  1  0  0  0  0
 17 23  1  0  0  0  0
 17 18  1  0  0  0  0
 18 24  1  0  0  0  0
 19 18  2  0  0  0  0
 19 14  1  0  0  0  0
 20 19  1  0  0  0  0
 21 20  2  0  0  0  0
 22 21  1  0  0  0  0
 22 17  2  0  0  0  0
 25 21  1  0  0  0  0
M  END
>  <minimizedAffinity>
-4.26277781

$$$$

 OpenBabel03252508573D

 25 26  0  0  0  0  0  0  0  0999 V2000
   37.7280   28.8900   43.3890 C   0  0  0  0  0  0  0  0  0  0  0  0
   37.6870   29.3140   44.4140 H   0  0  0  0  0  0  0  0  0  0  0  0
   36.8170   29.1990   42.8490 H   0  0  0  0  0  0  0  0  0  0  0  0
   37.7340   27.3890   43.4850 C   0  0  0  0  0  3  0  0  0  0  0  0
   39.0930   26.8120   43.6790 C   0  0  0  0  0  3  0  0  0  0  0  0
   39.2760   26.4540   44.7220 H   0  0  0  0  0  0  0  0  0  0  0  0
   39.4790   25.7670   42.6930 C   0  0  0  0  0  3  0  0  0  0  0  0
   40.2100   25.0750   43.2000 H   0  0  0  0  0  0  0  0  0  0  0  0
   38.5090   24.9840   42.1700 O   0  0  0  0  0  0  0  0  0  0  0  0
   37.2130   25.3870   42.2590 C   0  0  0  0  0  3  0  0  0  0  0  0
   36.6550   25.0150   41.3510 H   0  0  0  0  0  0  0  0  0  0  0  0
   37.1240   26.8880   42.1740 C   0  0  0  0  0  3  0  0  0  0  0  0
   36.1080   27.2830   42.0650 H   0  0  0  0  0  0  0  0  0  0  0  0
   38.9660   29.4230   42.6740 C   0  0  0  0  0  0  0  0  0  0  0  0
   39.7030   29.7910   43.3920 H   0  0  0  0  0  0  0  0  0  0  0  0
   39.4360   28.6020   42.0980 H   0  0  0  0  0  0  0  0  0  0  0  0
   36.8900   31.6270   40.4120 C   0  0  0  0  0  0  0  0  0  0  0  0
   37.2860   30.5440   41.2140 C   0  0  0  0  0  0  0  0  0  0  0  0
   38.5410   30.5640   41.8270 C   0  0  0  0  0  0  0  0  0  0  0  0
   39.3270   31.6690   41.6010 N   0  0  0  0  0  0  0  0  0  0  0  0
   38.9120   32.6760   40.8310 C   0  0  0  0  0  0  0  0  0  0  0  0
   37.7150   32.6780   40.2360 N   0  0  0  0  0  0  0  0  0  0  0  0
   35.9060   31.5180   39.9840 H   0  0  0  0  0  0  0  0  0  0  0  0
   36.6480   29.6950   41.3710 H   0  0  0  0  0  0  0  0  0  0  0  0
   39.6310   33.4900   40.7340 H   0  0  0  0  0  0  0  0  0  0  0  0
  1  4  1  0  0  0  0
  1  2  1  0  0  0  0
  3  1  1  0  0  0  0
  4  5  1  0  0  0  0
  5  6  1  0  0  0  0
  7  8  1  0  0  0  0
  7  5  1  0  0  0  0
  9 10  1  0  0  0  0
  9  7  1  0  0  0  0
 11 10  1  0  0  0  0
 12 10  1  0  0  0  0
 12  4  1  0  0  0  0
 13 12  1  0  0  0  0
 14  1  1  0  0  0  0
 14 15  1  0  0  0  0
 16 14  1  0  0  0  0
 17 18  1  0  0  0  0
 18 24  1  0  0  0  0
 18 19  2  0  0  0  0
 19 14  1  0  0  0  0
 20 19  1  0  0  0  0
 21 20  2  0  0  0  0
 22 17  2  0  0  0  0
 22 21  1  0  0  0  0
 23 17  1  0  0  0  0
 25 21  1  0  0  0  0
M  END
>  <minimizedAffinity>
-4.22274017

$$$$

 OpenBabel03252508573D

 25 26  0  0  0  0  0  0  0  0999 V2000
   36.3060   27.7300   40.3100 C   0  0  0  0  0  0  0  0  0  0  0  0
   35.6110   26.9830   39.8740 H   0  0  0  0  0  0  0  0  0  0  0  0
   37.0630   27.9840   39.5500 H   0  0  0  0  0  0  0  0  0  0  0  0
   37.0060   27.1110   41.4880 C   0  0  0  0  0  3  0  0  0  0  0  0
   36.5500   27.6470   42.7990 C   0  0  0  0  0  3  0  0  0  0  0  0
   35.8910   26.9400   43.3620 H   0  0  0  0  0  0  0  0  0  0  0  0
   37.6340   28.1630   43.6800 C   0  0  0  0  0  3  0  0  0  0  0  0
   37.2920   28.0420   44.7470 H   0  0  0  0  0  0  0  0  0  0  0  0
   38.8560   27.5890   43.6010 O   0  0  0  0  0  0  0  0  0  0  0  0
   39.1670   26.8410   42.5100 C   0  0  0  0  0  3  0  0  0  0  0  0
   40.2720   26.9440   42.3030 H   0  0  0  0  0  0  0  0  0  0  0  0
   38.4950   27.3990   41.2830 C   0  0  0  0  0  3  0  0  0  0  0  0
   38.8290   26.9610   40.3360 H   0  0  0  0  0  0  0  0  0  0  0  0
   35.5200   28.9770   40.7030 C   0  0  0  0  0  0  0  0  0  0  0  0
   34.5040   28.9410   40.2990 H   0  0  0  0  0  0  0  0  0  0  0  0
   35.4420   29.0270   41.8060 H   0  0  0  0  0  0  0  0  0  0  0  0
   37.1200   31.2950   38.1830 C   0  0  0  0  0  0  0  0  0  0  0  0
   36.4670   30.1810   38.7380 C   0  0  0  0  0  0  0  0  0  0  0  0
   36.2080   30.1490   40.1110 C   0  0  0  0  0  0  0  0  0  0  0  0
   36.6190   31.2350   40.8470 N   0  0  0  0  0  0  0  0  0  0  0  0
   37.2370   32.2720   40.2800 C   0  0  0  0  0  0  0  0  0  0  0  0
   37.4940   32.3240   38.9690 N   0  0  0  0  0  0  0  0  0  0  0  0
   37.2750   31.2250   37.1180 H   0  0  0  0  0  0  0  0  0  0  0  0
   36.1590   29.3490   38.1350 H   0  0  0  0  0  0  0  0  0  0  0  0
   37.5090   33.0650   40.9770 H   0  0  0  0  0  0  0  0  0  0  0  0
  1 14  1  0  0  0  0
  1  4  1  0  0  0  0
  2  1  1  0  0  0  0
  3  1  1  0  0  0  0
  4  5  1  0  0  0  0
  5  6  1  0  0  0  0
  5  7  1  0  0  0  0
  7  8  1  0  0  0  0
  9  7  1  0  0  0  0
 10  9  1  0  0  0  0
 11 10  1  0  0  0  0
 12  4  1  0  0  0  0
 12 10  1  0  0  0  0
 13 12  1  0  0  0  0
 14 16  1  0  0  0  0
 15 14  1  0  0  0  0
 17 18  2  0  0  0  0
 17 22  1  0  0  0  0
 18 19  1  0  0  0  0
 19 14  1  0  0  0  0
 19 20  2  0  0  0  0
 21 20  1  0  0  0  0
 21 25  1  0  0  0  0
 22 21  2  0  0  0  0
 23 17  1  0  0  0  0
 24 18  1  0  0  0  0
M  END
>  <minimizedAffinity>
-4.20298195

$$$$

 OpenBabel03252508573D

 25 26  0  0  0  0  0  0  0  0999 V2000
   36.6250   28.3760   41.6220 C   0  0  0  0  0  0  0  0  0  0  0  0
   37.3070   27.8550   40.9180 H   0  0  0  0  0  0  0  0  0  0  0  0
   35.6160   28.3960   41.1770 H   0  0  0  0  0  0  0  0  0  0  0  0
   37.0950   29.7950   41.7900 C   0  0  0  0  0  3  0  0  0  0  0  0
   36.2640   30.7880   41.0550 C   0  0  0  0  0  3  0  0  0  0  0  0
   35.5920   31.3820   41.7220 H   0  0  0  0  0  0  0  0  0  0  0  0
   37.0190   31.6870   40.1400 C   0  0  0  0  0  3  0  0  0  0  0  0
   36.4480   32.6550   40.0670 H   0  0  0  0  0  0  0  0  0  0  0  0
   38.2900   32.0160   40.4640 O   0  0  0  0  0  0  0  0  0  0  0  0
   38.9580   31.2600   41.3770 C   0  0  0  0  0  3  0  0  0  0  0  0
   40.0550   31.2570   41.1110 H   0  0  0  0  0  0  0  0  0  0  0  0
   38.5350   29.8180   41.2730 C   0  0  0  0  0  3  0  0  0  0  0  0
   39.1460   29.1160   41.8510 H   0  0  0  0  0  0  0  0  0  0  0  0
   36.5980   27.6220   42.9470 C   0  0  0  0  0  0  0  0  0  0  0  0
   36.8430   28.2870   43.7800 H   0  0  0  0  0  0  0  0  0  0  0  0
   35.5790   27.2260   43.1210 H   0  0  0  0  0  0  0  0  0  0  0  0
   38.3590   24.3760   42.1410 C   0  0  0  0  0  0  0  0  0  0  0  0
   37.3730   25.3760   42.1970 C   0  0  0  0  0  0  0  0  0  0  0  0
   37.6350   26.5630   42.8840 C   0  0  0  0  0  0  0  0  0  0  0  0
   38.8700   26.6810   43.4760 N   0  0  0  0  0  0  0  0  0  0  0  0
   39.7780   25.7060   43.3990 C   0  0  0  0  0  0  0  0  0  0  0  0
   39.5480   24.5630   42.7470 N   0  0  0  0  0  0  0  0  0  0  0  0
   38.0610   23.4980   41.5890 H   0  0  0  0  0  0  0  0  0  0  0  0
   36.4180   25.2530   41.7240 H   0  0  0  0  0  0  0  0  0  0  0  0
   40.7150   25.9270   43.9110 H   0  0  0  0  0  0  0  0  0  0  0  0
  1  4  1  0  0  0  0
  1 14  1  0  0  0  0
  2  1  1  0  0  0  0
  3  1  1  0  0  0  0
  5  6  1  0  0  0  0
  5  4  1  0  0  0  0
  7  9  1  0  0  0  0
  7  5  1  0  0  0  0
  8  7  1  0  0  0  0
  9 10  1  0  0  0  0
 11 10  1  0  0  0  0
 12 10  1  0  0  0  0
 12  4  1  0  0  0  0
 12 13  1  0  0  0  0
 14 16  1  0  0  0  0
 14 15  1  0  0  0  0
 17 18  2  0  0  0  0
 17 22  1  0  0  0  0
 18 19  1  0  0  0  0
 19 14  1  0  0  0  0
 19 20  2  0  0  0  0
 21 20  1  0  0  0  0
 21 25  1  0  0  0  0
 22 21  2  0  0  0  0
 23 17  1  0  0  0  0
 24 18  1  0  0  0  0
M  END
>  <minimizedAffinity>
-4.15605879

$$$$

 OpenBabel03252508573D

 25 26  0  0  0  0  0  0  0  0999 V2000
   37.9270   27.5550   43.5050 C   0  0  0  0  0  0  0  0  0  0  0  0
   38.2260   28.6220   43.5680 H   0  0  0  0  0  0  0  0  0  0  0  0
   37.8530   27.1540   44.5290 H   0  0  0  0  0  0  0  0  0  0  0  0
   39.0000   26.7940   42.7750 C   0  0  0  0  0  3  0  0  0  0  0  0
   38.6320   25.3820   42.4840 C   0  0  0  0  0  3  0  0  0  0  0  0
   38.3730   25.2030   41.4110 H   0  0  0  0  0  0  0  0  0  0  0  0
   39.6120   24.3660   42.9590 C   0  0  0  0  0  3  0  0  0  0  0  0
   39.5330   23.4720   42.2770 H   0  0  0  0  0  0  0  0  0  0  0  0
   40.9210   24.7030   42.9990 O   0  0  0  0  0  0  0  0  0  0  0  0
   41.2680   26.0170   42.9670 C   0  0  0  0  0  3  0  0  0  0  0  0
   42.2120   26.1570   43.5690 H   0  0  0  0  0  0  0  0  0  0  0  0
   40.2340   26.8500   43.6780 C   0  0  0  0  0  3  0  0  0  0  0  0
   40.5200   27.8930   43.8490 H   0  0  0  0  0  0  0  0  0  0  0  0
   36.5760   27.4530   42.8030 C   0  0  0  0  0  0  0  0  0  0  0  0
   36.4990   26.5200   42.2380 H   0  0  0  0  0  0  0  0  0  0  0  0
   35.7700   27.4540   43.5620 H   0  0  0  0  0  0  0  0  0  0  0  0
   37.1650   30.7860   41.1220 C   0  0  0  0  0  0  0  0  0  0  0  0
   37.2620   29.7210   42.0340 C   0  0  0  0  0  0  0  0  0  0  0  0
   36.4790   28.5800   41.8440 C   0  0  0  0  0  0  0  0  0  0  0  0
   35.6460   28.5710   40.7510 N   0  0  0  0  0  0  0  0  0  0  0  0
   35.5840   29.6040   39.9100 C   0  0  0  0  0  0  0  0  0  0  0  0
   36.3240   30.7050   40.0720 N   0  0  0  0  0  0  0  0  0  0  0  0
   37.8080   31.6200   41.3550 H   0  0  0  0  0  0  0  0  0  0  0  0
   37.9240   29.7590   42.8780 H   0  0  0  0  0  0  0  0  0  0  0  0
   34.8830   29.4680   39.0860 H   0  0  0  0  0  0  0  0  0  0  0  0
  1  2  1  0  0  0  0
  1  3  1  0  0  0  0
  4  1  1  0  0  0  0
  4 12  1  0  0  0  0
  5  4  1  0  0  0  0
  5  7  1  0  0  0  0
  6  5  1  0  0  0  0
  7  9  1  0  0  0  0
  8  7  1  0  0  0  0
 10  9  1  0  0  0  0
 10 11  1  0  0  0  0
 10 12  1  0  0  0  0
 12 13  1  0  0  0  0
 14  1  1  0  0  0  0
 14 16  1  0  0  0  0
 15 14  1  0  0  0  0
 17 23  1  0  0  0  0
 17 18  1  0  0  0  0
 18 24  1  0  0  0  0
 19 18  2  0  0  0  0
 19 14  1  0  0  0  0
 20 19  1  0  0  0  0
 21 22  1  0  0  0  0
 21 20  2  0  0  0  0
 22 17  2  0  0  0  0
 25 21  1  0  0  0  0
M  END
>  <minimizedAffinity>
-4.1516695

$$$$

 OpenBabel03252508573D

 25 26  0  0  0  0  0  0  0  0999 V2000
   36.7230   27.4490   41.0450 C   0  0  0  0  0  0  0  0  0  0  0  0
   37.7480   27.4410   40.6210 H   0  0  0  0  0  0  0  0  0  0  0  0
   36.1390   26.6530   40.5570 H   0  0  0  0  0  0  0  0  0  0  0  0
   36.0790   28.7710   40.7290 C   0  0  0  0  0  3  0  0  0  0  0  0
   35.9220   29.0220   39.2700 C   0  0  0  0  0  3  0  0  0  0  0  0
   34.8700   28.9060   38.9110 H   0  0  0  0  0  0  0  0  0  0  0  0
   36.5010   30.3050   38.7870 C   0  0  0  0  0  3  0  0  0  0  0  0
   35.9070   30.6270   37.8840 H   0  0  0  0  0  0  0  0  0  0  0  0
   36.5170   31.3620   39.6310 O   0  0  0  0  0  0  0  0  0  0  0  0
   36.3610   31.1480   40.9640 C   0  0  0  0  0  3  0  0  0  0  0  0
   36.9540   31.9250   41.5280 H   0  0  0  0  0  0  0  0  0  0  0  0
   36.9810   29.8330   41.3600 C   0  0  0  0  0  3  0  0  0  0  0  0
   37.0520   29.6640   42.4400 H   0  0  0  0  0  0  0  0  0  0  0  0
   36.8000   27.1950   42.5480 C   0  0  0  0  0  0  0  0  0  0  0  0
   36.7790   28.1360   43.1040 H   0  0  0  0  0  0  0  0  0  0  0  0
   35.9230   26.5980   42.8620 H   0  0  0  0  0  0  0  0  0  0  0  0
   40.3590   26.6090   43.6780 C   0  0  0  0  0  0  0  0  0  0  0  0
   39.1340   27.2480   43.4170 C   0  0  0  0  0  0  0  0  0  0  0  0
   38.0940   26.5270   42.8260 C   0  0  0  0  0  0  0  0  0  0  0  0
   38.3410   25.2070   42.5310 N   0  0  0  0  0  0  0  0  0  0  0  0
   39.5190   24.6390   42.7940 C   0  0  0  0  0  0  0  0  0  0  0  0
   40.5270   25.3100   43.3600 N   0  0  0  0  0  0  0  0  0  0  0  0
   41.0970   27.2490   44.1340 H   0  0  0  0  0  0  0  0  0  0  0  0
   38.9740   28.2800   43.6600 H   0  0  0  0  0  0  0  0  0  0  0  0
   39.5820   23.5880   42.5100 H   0  0  0  0  0  0  0  0  0  0  0  0
  1 14  1  0  0  0  0
  2  1  1  0  0  0  0
  3  1  1  0  0  0  0
  4  1  1  0  0  0  0
  4 12  1  0  0  0  0
  5  4  1  0  0  0  0
  6  5  1  0  0  0  0
  7  5  1  0  0  0  0
  7  9  1  0  0  0  0
  8  7  1  0  0  0  0
  9 10  1  0  0  0  0
 10 12  1  0  0  0  0
 10 11  1  0  0  0  0
 12 13  1  0  0  0  0
 14 19  1  0  0  0  0
 14 16  1  0  0  0  0
 14 15  1  0  0  0  0
 17 23  1  0  0  0  0
 18 24  1  0  0  0  0
 18 17  1  0  0  0  0
 19 18  2  0  0  0  0
 20 21  2  0  0  0  0
 20 19  1  0  0  0  0
 21 22  1  0  0  0  0
 22 17  2  0  0  0  0
 25 21  1  0  0  0  0
M  END
>  <minimizedAffinity>
-4.07490921

$$$$

 OpenBabel03252508573D

 25 26  0  0  0  0  0  0  0  0999 V2000
   36.6430   30.6900   39.5550 C   0  0  0  0  0  0  0  0  0  0  0  0
   37.0940   29.7010   39.3310 H   0  0  0  0  0  0  0  0  0  0  0  0
   35.7390   30.8080   38.9360 H   0  0  0  0  0  0  0  0  0  0  0  0
   37.6230   31.7650   39.1720 C   0  0  0  0  0  3  0  0  0  0  0  0
   39.0300   31.2870   39.0940 C   0  0  0  0  0  3  0  0  0  0  0  0
   39.4010   31.1710   38.0460 H   0  0  0  0  0  0  0  0  0  0  0  0
   40.0050   32.0620   39.9090 C   0  0  0  0  0  3  0  0  0  0  0  0
   41.0090   31.9840   39.4040 H   0  0  0  0  0  0  0  0  0  0  0  0
   39.7760   33.3800   40.1050 O   0  0  0  0  0  0  0  0  0  0  0  0
   38.5290   33.8760   39.8860 C   0  0  0  0  0  3  0  0  0  0  0  0
   38.3480   34.7300   40.6010 H   0  0  0  0  0  0  0  0  0  0  0  0
   37.4870   32.8490   40.2430 C   0  0  0  0  0  3  0  0  0  0  0  0
   36.4580   33.2240   40.2610 H   0  0  0  0  0  0  0  0  0  0  0  0
   36.2760   30.7500   41.0340 C   0  0  0  0  0  0  0  0  0  0  0  0
   36.6830   31.6510   41.5010 H   0  0  0  0  0  0  0  0  0  0  0  0
   35.1740   30.7870   41.1350 H   0  0  0  0  0  0  0  0  0  0  0  0
   38.6670   28.5950   43.0140 C   0  0  0  0  0  0  0  0  0  0  0  0
   38.0930   29.7140   42.3870 C   0  0  0  0  0  0  0  0  0  0  0  0
   36.8860   29.5730   41.6990 C   0  0  0  0  0  0  0  0  0  0  0  0
   36.3240   28.3190   41.6780 N   0  0  0  0  0  0  0  0  0  0  0  0
   36.9020   27.2830   42.2870 C   0  0  0  0  0  0  0  0  0  0  0  0
   38.0560   27.3950   42.9510 N   0  0  0  0  0  0  0  0  0  0  0  0
   39.5970   28.8050   43.5190 H   0  0  0  0  0  0  0  0  0  0  0  0
   38.5590   30.6800   42.4220 H   0  0  0  0  0  0  0  0  0  0  0  0
   36.3520   26.3460   42.1940 H   0  0  0  0  0  0  0  0  0  0  0  0
  1 14  1  0  0  0  0
  2  1  1  0  0  0  0
  3  1  1  0  0  0  0
  4  1  1  0  0  0  0
  4 12  1  0  0  0  0
  5  4  1  0  0  0  0
  5  7  1  0  0  0  0
  6  5  1  0  0  0  0
  7  9  1  0  0  0  0
  8  7  1  0  0  0  0
 10  9  1  0  0  0  0
 10 12  1  0  0  0  0
 10 11  1  0  0  0  0
 12 13  1  0  0  0  0
 14 16  1  0  0  0  0
 14 15  1  0  0  0  0
 14 19  1  0  0  0  0
 17 23  1  0  0  0  0
 18 24  1  0  0  0  0
 18 17  2  0  0  0  0
 19 18  1  0  0  0  0
 20 19  2  0  0  0  0
 20 21  1  0  0  0  0
 21 22  2  0  0  0  0
 22 17  1  0  0  0  0
 25 21  1  0  0  0  0
M  END
>  <minimizedAffinity>
-4.00031567

$$$$

 OpenBabel03252508573D

 25 26  0  0  0  0  0  0  0  0999 V2000
   35.9060   29.1140   40.8140 C   0  0  0  0  0  0  0  0  0  0  0  0
   34.8020   29.0170   40.7570 H   0  0  0  0  0  0  0  0  0  0  0  0
   36.3370   28.7460   39.8680 H   0  0  0  0  0  0  0  0  0  0  0  0
   36.4110   28.2450   41.9330 C   0  0  0  0  0  3  0  0  0  0  0  0
   37.4170   28.9190   42.8000 C   0  0  0  0  0  3  0  0  0  0  0  0
   37.0100   29.2270   43.7940 H   0  0  0  0  0  0  0  0  0  0  0  0
   38.6990   28.1800   42.9680 C   0  0  0  0  0  3  0  0  0  0  0  0
   39.1260   28.4640   43.9720 H   0  0  0  0  0  0  0  0  0  0  0  0
   38.6730   26.8280   42.9310 O   0  0  0  0  0  0  0  0  0  0  0  0
   37.5930   26.2010   42.3910 C   0  0  0  0  0  3  0  0  0  0  0  0
   37.9370   25.2400   41.9080 H   0  0  0  0  0  0  0  0  0  0  0  0
   37.0250   27.0170   41.2590 C   0  0  0  0  0  3  0  0  0  0  0  0
   36.2640   26.5050   40.6610 H   0  0  0  0  0  0  0  0  0  0  0  0
   36.2710   30.5810   41.0200 C   0  0  0  0  0  0  0  0  0  0  0  0
   35.3760   31.2080   41.0270 H   0  0  0  0  0  0  0  0  0  0  0  0
   36.7730   30.6980   41.9990 H   0  0  0  0  0  0  0  0  0  0  0  0
   37.5170   31.1050   37.4900 C   0  0  0  0  0  0  0  0  0  0  0  0
   36.7110   30.7070   38.5710 C   0  0  0  0  0  0  0  0  0  0  0  0
   37.1160   31.0000   39.8750 C   0  0  0  0  0  0  0  0  0  0  0  0
   38.3040   31.6760   40.0210 N   0  0  0  0  0  0  0  0  0  0  0  0
   39.0380   32.0350   38.9680 C   0  0  0  0  0  0  0  0  0  0  0  0
   38.6700   31.7660   37.7120 N   0  0  0  0  0  0  0  0  0  0  0  0
   37.1190   30.8330   36.5250 H   0  0  0  0  0  0  0  0  0  0  0  0
   35.7880   30.1800   38.4220 H   0  0  0  0  0  0  0  0  0  0  0  0
   39.9570   32.5650   39.2230 H   0  0  0  0  0  0  0  0  0  0  0  0
  1 14  1  0  0  0  0
  1  4  1  0  0  0  0
  2  1  1  0  0  0  0
  3  1  1  0  0  0  0
  4  5  1  0  0  0  0
  5  7  1  0  0  0  0
  5  6  1  0  0  0  0
  7  8  1  0  0  0  0
  9  7  1  0  0  0  0
 10  9  1  0  0  0  0
 11 10  1  0  0  0  0
 12  4  1  0  0  0  0
 12 10  1  0  0  0  0
 13 12  1  0  0  0  0
 14 15  1  0  0  0  0
 14 16  1  0  0  0  0
 17 22  2  0  0  0  0
 17 18  1  0  0  0  0
 18 19  2  0  0  0  0
 19 20  1  0  0  0  0
 19 14  1  0  0  0  0
 21 25  1  0  0  0  0
 21 20  2  0  0  0  0
 22 21  1  0  0  0  0
 23 17  1  0  0  0  0
 24 18  1  0  0  0  0
M  END
>  <minimizedAffinity>
-3.98536158

$$$$

 OpenBabel03252508573D

 25 26  0  0  0  0  0  0  0  0999 V2000
   36.7940   29.8160   41.8210 C   0  0  0  0  0  0  0  0  0  0  0  0
   37.8900   29.8090   41.9990 H   0  0  0  0  0  0  0  0  0  0  0  0
   36.2960   30.1650   42.7400 H   0  0  0  0  0  0  0  0  0  0  0  0
   36.3400   28.4100   41.5420 C   0  0  0  0  0  3  0  0  0  0  0  0
   36.5970   27.4680   42.6660 C   0  0  0  0  0  3  0  0  0  0  0  0
   35.6750   27.1980   43.2370 H   0  0  0  0  0  0  0  0  0  0  0  0
   37.3610   26.2440   42.2980 C   0  0  0  0  0  3  0  0  0  0  0  0
   37.0530   25.4250   43.0090 H   0  0  0  0  0  0  0  0  0  0  0  0
   37.2140   25.7430   41.0510 O   0  0  0  0  0  0  0  0  0  0  0  0
   36.6920   26.5350   40.0770 C   0  0  0  0  0  3  0  0  0  0  0  0
   37.1580   26.2490   39.0890 H   0  0  0  0  0  0  0  0  0  0  0  0
   37.1020   27.9690   40.2910 C   0  0  0  0  0  3  0  0  0  0  0  0
   36.8690   28.6430   39.4600 H   0  0  0  0  0  0  0  0  0  0  0  0
   36.4800   30.7590   40.6640 C   0  0  0  0  0  0  0  0  0  0  0  0
   36.4430   30.2150   39.7160 H   0  0  0  0  0  0  0  0  0  0  0  0
   35.4860   31.2180   40.8270 H   0  0  0  0  0  0  0  0  0  0  0  0
   38.4010   33.9150   39.8720 C   0  0  0  0  0  0  0  0  0  0  0  0
   37.3570   32.9780   39.9480 C   0  0  0  0  0  0  0  0  0  0  0  0
   37.5770   31.7530   40.5820 C   0  0  0  0  0  0  0  0  0  0  0  0
   38.8310   31.5380   41.1030 N   0  0  0  0  0  0  0  0  0  0  0  0
   39.7940   32.4560   41.0090 C   0  0  0  0  0  0  0  0  0  0  0  0
   39.6060   33.6340   40.4080 N   0  0  0  0  0  0  0  0  0  0  0  0
   38.1330   34.8290   39.3640 H   0  0  0  0  0  0  0  0  0  0  0  0
   36.3890   33.1770   39.5300 H   0  0  0  0  0  0  0  0  0  0  0  0
   40.7400   32.1590   41.4640 H   0  0  0  0  0  0  0  0  0  0  0  0
  1  2  1  0  0  0  0
  1  3  1  0  0  0  0
  4  1  1  0  0  0  0
  4  5  1  0  0  0  0
  5  6  1  0  0  0  0
  7  5  1  0  0  0  0
  7  8  1  0  0  0  0
  9  7  1  0  0  0  0
 10 12  1  0  0  0  0
 10  9  1  0  0  0  0
 11 10  1  0  0  0  0
 12  4  1  0  0  0  0
 13 12  1  0  0  0  0
 14 16  1  0  0  0  0
 14  1  1  0  0  0  0
 15 14  1  0  0  0  0
 17 18  2  0  0  0  0
 17 22  1  0  0  0  0
 18 19  1  0  0  0  0
 19 14  1  0  0  0  0
 19 20  2  0  0  0  0
 21 20  1  0  0  0  0
 21 25  1  0  0  0  0
 22 21  2  0  0  0  0
 23 17  1  0  0  0  0
 24 18  1  0  0  0  0
M  END
>  <minimizedAffinity>
-3.97042203

$$$$
