
 OpenBabel03242518183D

 24 25  0  0  0  0  0  0  0  0999 V2000
   36.9430   27.0070   42.8690 C   0  0  0  0  0  0  0  0  0  0  0  0
   37.6880   27.0990   43.7020 H   0  0  0  0  0  0  0  0  0  0  0  0
   35.9840   26.6070   43.2350 H   0  0  0  0  0  0  0  0  0  0  0  0
   37.5220   26.0210   41.9030 C   0  0  0  0  0  3  0  0  0  0  0  0
   36.7860   24.7100   41.9870 C   0  0  0  0  0  3  0  0  0  0  0  0
   36.6450   24.4630   43.0430 H   0  0  0  0  0  0  0  0  0  0  0  0
   37.4650   23.6220   41.1990 C   0  0  0  0  0  3  0  0  0  0  0  0
   37.0810   22.6490   41.5870 H   0  0  0  0  0  0  0  0  0  0  0  0
   38.8370   23.6090   41.3610 O   0  0  0  0  0  0  0  0  0  0  0  0
   39.4360   24.8150   41.0520 C   0  0  0  0  0  3  0  0  0  0  0  0
   39.0840   25.2750   40.1050 H   0  0  0  0  0  0  0  0  0  0  0  0
   39.0090   25.8060   42.1420 C   0  0  0  0  0  3  0  0  0  0  0  0
   39.0970   25.3500   43.1540 H   0  0  0  0  0  0  0  0  0  0  0  0
   37.6300   30.4210   41.7600 C   0  0  0  0  0  0  0  0  0  0  0  0
   36.6020   30.6970   40.8490 C   0  0  0  0  0  0  0  0  0  0  0  0
   35.6730   29.7080   40.6190 C   0  0  0  0  0  0  0  0  0  0  0  0
   35.7840   28.5220   41.2690 N   0  0  0  0  0  0  0  0  0  0  0  0
   36.7810   28.2880   42.1350 C   0  0  0  0  0  0  0  0  0  0  0  0
   37.7050   29.2340   42.3840 N   0  0  0  0  0  0  0  0  0  0  0  0
   38.3880   31.1530   41.9840 H   0  0  0  0  0  0  0  0  0  0  0  0
   34.9010   29.9470   39.9210 H   0  0  0  0  0  0  0  0  0  0  0  0
   36.6320   31.9790   40.2610 N   0  0  0  0  0  0  0  0  0  0  0  0
   35.8730   32.6470   40.5730 H   0  0  0  0  0  0  0  0  0  0  0  0
   37.4090   32.1360   39.5720 H   0  0  0  0  0  0  0  0  0  0  0  0
  1  3  1  0  0  0  0
  1  2  1  0  0  0  0
  4  5  1  0  0  0  0
  4 12  1  0  0  0  0
  4  1  1  0  0  0  0
  5  6  1  0  0  0  0
  7  9  1  0  0  0  0
  7  8  1  0  0  0  0
  7  5  1  0  0  0  0
 10  9  1  0  0  0  0
 10 12  1  0  0  0  0
 11 10  1  0  0  0  0
 12 13  1  0  0  0  0
 14 20  1  0  0  0  0
 14 19  1  0  0  0  0
 15 14  2  0  0  0  0
 16 15  1  0  0  0  0
 16 17  2  0  0  0  0
 17 18  1  0  0  0  0
 18 19  2  0  0  0  0
 18  1  1  0  0  0  0
 21 16  1  0  0  0  0
 22 23  1  0  0  0  0
 22 15  1  0  0  0  0
 24 22  1  0  0  0  0
M  END
>  <minimizedAffinity>
-4.52925777

$$$$

 OpenBabel03242518183D

 24 25  0  0  0  0  0  0  0  0999 V2000
   36.1740   29.9910   40.9340 C   0  0  0  0  0  0  0  0  0  0  0  0
   36.0590   30.8020   41.6990 H   0  0  0  0  0  0  0  0  0  0  0  0
   35.2250   29.4540   40.7760 H   0  0  0  0  0  0  0  0  0  0  0  0
   37.1670   29.0260   41.5010 C   0  0  0  0  0  3  0  0  0  0  0  0
   36.4600   27.8480   42.1200 C   0  0  0  0  0  3  0  0  0  0  0  0
   35.6230   28.2250   42.7140 H   0  0  0  0  0  0  0  0  0  0  0  0
   37.3990   26.9600   42.8940 C   0  0  0  0  0  3  0  0  0  0  0  0
   36.7730   26.3480   43.5850 H   0  0  0  0  0  0  0  0  0  0  0  0
   38.2930   27.6660   43.6760 O   0  0  0  0  0  0  0  0  0  0  0  0
   39.0420   28.5810   42.9600 C   0  0  0  0  0  3  0  0  0  0  0  0
   39.4630   28.1880   42.0100 H   0  0  0  0  0  0  0  0  0  0  0  0
   38.0770   29.6890   42.5230 C   0  0  0  0  0  3  0  0  0  0  0  0
   37.4190   30.0020   43.3660 H   0  0  0  0  0  0  0  0  0  0  0  0
   37.4530   32.3910   38.4930 C   0  0  0  0  0  0  0  0  0  0  0  0
   37.8040   31.6010   37.3900 C   0  0  0  0  0  0  0  0  0  0  0  0
   37.5990   30.2430   37.4880 C   0  0  0  0  0  0  0  0  0  0  0  0
   37.0740   29.7270   38.6280 N   0  0  0  0  0  0  0  0  0  0  0  0
   36.7490   30.5090   39.6670 C   0  0  0  0  0  0  0  0  0  0  0  0
   36.9370   31.8410   39.6040 N   0  0  0  0  0  0  0  0  0  0  0  0
   37.5890   33.4590   38.4790 H   0  0  0  0  0  0  0  0  0  0  0  0
   37.8740   29.6670   36.6320 H   0  0  0  0  0  0  0  0  0  0  0  0
   38.3360   32.2950   36.2820 N   0  0  0  0  0  0  0  0  0  0  0  0
   37.7110   32.3480   35.4290 H   0  0  0  0  0  0  0  0  0  0  0  0
   39.2980   32.6890   36.4230 H   0  0  0  0  0  0  0  0  0  0  0  0
  1  4  1  0  0  0  0
  1  2  1  0  0  0  0
  3  1  1  0  0  0  0
  4  5  1  0  0  0  0
  4 12  1  0  0  0  0
  5  6  1  0  0  0  0
  5  7  1  0  0  0  0
  7  8  1  0  0  0  0
  7  9  1  0  0  0  0
 10  9  1  0  0  0  0
 11 10  1  0  0  0  0
 12 10  1  0  0  0  0
 12 13  1  0  0  0  0
 14 19  1  0  0  0  0
 15 16  1  0  0  0  0
 15 14  2  0  0  0  0
 16 17  2  0  0  0  0
 17 18  1  0  0  0  0
 18  1  1  0  0  0  0
 19 18  2  0  0  0  0
 20 14  1  0  0  0  0
 21 16  1  0  0  0  0
 22 24  1  0  0  0  0
 22 15  1  0  0  0  0
 23 22  1  0  0  0  0
M  END
>  <minimizedAffinity>
-4.52259016

$$$$

 OpenBabel03242518183D

 24 25  0  0  0  0  0  0  0  0999 V2000
   37.7910   28.5450   43.4870 C   0  0  0  0  0  0  0  0  0  0  0  0
   38.5140   28.8330   44.2950 H   0  0  0  0  0  0  0  0  0  0  0  0
   36.8150   28.2570   43.9090 H   0  0  0  0  0  0  0  0  0  0  0  0
   38.3810   27.3450   42.8130 C   0  0  0  0  0  3  0  0  0  0  0  0
   37.3020   26.3470   42.4810 C   0  0  0  0  0  3  0  0  0  0  0  0
   36.6440   26.2520   43.3490 H   0  0  0  0  0  0  0  0  0  0  0  0
   37.8650   25.0350   42.0030 C   0  0  0  0  0  3  0  0  0  0  0  0
   37.0600   24.2730   42.1190 H   0  0  0  0  0  0  0  0  0  0  0  0
   38.9430   24.6020   42.7510 O   0  0  0  0  0  0  0  0  0  0  0  0
   39.9710   25.5240   42.8160 C   0  0  0  0  0  3  0  0  0  0  0  0
   40.2360   25.9870   41.8420 H   0  0  0  0  0  0  0  0  0  0  0  0
   39.4560   26.6910   43.6670 C   0  0  0  0  0  3  0  0  0  0  0  0
   38.9420   26.3220   44.5840 H   0  0  0  0  0  0  0  0  0  0  0  0
   36.2480   30.7360   41.0030 C   0  0  0  0  0  0  0  0  0  0  0  0
   37.3070   31.5300   40.5430 C   0  0  0  0  0  0  0  0  0  0  0  0
   38.5520   31.3080   41.0880 C   0  0  0  0  0  0  0  0  0  0  0  0
   38.7050   30.3480   42.0350 N   0  0  0  0  0  0  0  0  0  0  0  0
   37.6720   29.6050   42.4550 C   0  0  0  0  0  0  0  0  0  0  0  0
   36.4420   29.7960   41.9420 N   0  0  0  0  0  0  0  0  0  0  0  0
   35.2500   30.8600   40.6170 H   0  0  0  0  0  0  0  0  0  0  0  0
   39.3390   31.9260   40.7180 H   0  0  0  0  0  0  0  0  0  0  0  0
   36.9770   32.4820   39.5550 N   0  0  0  0  0  0  0  0  0  0  0  0
   37.3450   32.2830   38.5830 H   0  0  0  0  0  0  0  0  0  0  0  0
   36.3960   33.2890   39.8910 H   0  0  0  0  0  0  0  0  0  0  0  0
  1  3  1  0  0  0  0
  1  2  1  0  0  0  0
  4  1  1  0  0  0  0
  4 12  1  0  0  0  0
  5  4  1  0  0  0  0
  5  6  1  0  0  0  0
  7  8  1  0  0  0  0
  7  5  1  0  0  0  0
  7  9  1  0  0  0  0
  9 10  1  0  0  0  0
 10 12  1  0  0  0  0
 11 10  1  0  0  0  0
 12 13  1  0  0  0  0
 14 19  1  0  0  0  0
 15 14  2  0  0  0  0
 15 16  1  0  0  0  0
 16 17  2  0  0  0  0
 17 18  1  0  0  0  0
 18  1  1  0  0  0  0
 19 18  2  0  0  0  0
 20 14  1  0  0  0  0
 21 16  1  0  0  0  0
 22 24  1  0  0  0  0
 22 15  1  0  0  0  0
 23 22  1  0  0  0  0
M  END
>  <minimizedAffinity>
-4.45912504

$$$$

 OpenBabel03242518183D

 24 25  0  0  0  0  0  0  0  0999 V2000
   36.8250   30.4140   41.3630 C   0  0  0  0  0  0  0  0  0  0  0  0
   36.8990   31.1080   42.2400 H   0  0  0  0  0  0  0  0  0  0  0  0
   35.7750   30.1690   41.1360 H   0  0  0  0  0  0  0  0  0  0  0  0
   37.5200   29.1540   41.7740 C   0  0  0  0  0  3  0  0  0  0  0  0
   36.5160   28.0610   42.0300 C   0  0  0  0  0  3  0  0  0  0  0  0
   35.6950   28.4800   42.6170 H   0  0  0  0  0  0  0  0  0  0  0  0
   37.1430   26.8420   42.6540 C   0  0  0  0  0  3  0  0  0  0  0  0
   36.3190   26.2540   43.1210 H   0  0  0  0  0  0  0  0  0  0  0  0
   38.0410   27.1480   43.6580 O   0  0  0  0  0  0  0  0  0  0  0  0
   39.0490   28.0020   43.2500 C   0  0  0  0  0  3  0  0  0  0  0  0
   39.5120   27.7360   42.2770 H   0  0  0  0  0  0  0  0  0  0  0  0
   38.3910   29.3650   43.0020 C   0  0  0  0  0  3  0  0  0  0  0  0
   37.6970   29.6320   43.8320 H   0  0  0  0  0  0  0  0  0  0  0  0
   37.7280   30.9440   37.8620 C   0  0  0  0  0  0  0  0  0  0  0  0
   38.8030   31.8410   37.9190 C   0  0  0  0  0  0  0  0  0  0  0  0
   39.2160   32.2610   39.1630 C   0  0  0  0  0  0  0  0  0  0  0  0
   38.5790   31.8010   40.2690 N   0  0  0  0  0  0  0  0  0  0  0  0
   37.5530   30.9440   40.1820 C   0  0  0  0  0  0  0  0  0  0  0  0
   37.1240   30.5120   38.9810 N   0  0  0  0  0  0  0  0  0  0  0  0
   37.3570   30.5780   36.9190 H   0  0  0  0  0  0  0  0  0  0  0  0
   40.0370   32.9430   39.1760 H   0  0  0  0  0  0  0  0  0  0  0  0
   39.3530   32.2190   36.6750 N   0  0  0  0  0  0  0  0  0  0  0  0
   40.3170   31.8360   36.4630 H   0  0  0  0  0  0  0  0  0  0  0  0
   38.7450   32.8420   36.0900 H   0  0  0  0  0  0  0  0  0  0  0  0
  1  4  1  0  0  0  0
  1  2  1  0  0  0  0
  3  1  1  0  0  0  0
  4  5  1  0  0  0  0
  4 12  1  0  0  0  0
  5  6  1  0  0  0  0
  5  7  1  0  0  0  0
  7  8  1  0  0  0  0
  7  9  1  0  0  0  0
 10  9  1  0  0  0  0
 11 10  1  0  0  0  0
 12 10  1  0  0  0  0
 12 13  1  0  0  0  0
 14 15  2  0  0  0  0
 14 19  1  0  0  0  0
 15 16  1  0  0  0  0
 16 21  1  0  0  0  0
 16 17  2  0  0  0  0
 18 17  1  0  0  0  0
 18  1  1  0  0  0  0
 19 18  2  0  0  0  0
 20 14  1  0  0  0  0
 22 15  1  0  0  0  0
 23 22  1  0  0  0  0
 24 22  1  0  0  0  0
M  END
>  <minimizedAffinity>
-4.42712307

$$$$

 OpenBabel03242518183D

 24 25  0  0  0  0  0  0  0  0999 V2000
   38.1870   27.7320   43.6250 C   0  0  0  0  0  0  0  0  0  0  0  0
   37.2850   27.1480   43.9430 H   0  0  0  0  0  0  0  0  0  0  0  0
   38.3650   28.5880   44.2950 H   0  0  0  0  0  0  0  0  0  0  0  0
   37.8760   28.2640   42.2610 C   0  0  0  0  0  3  0  0  0  0  0  0
   38.0810   29.7560   42.2200 C   0  0  0  0  0  3  0  0  0  0  0  0
   37.6350   30.1880   43.1190 H   0  0  0  0  0  0  0  0  0  0  0  0
   37.5740   30.3670   40.9410 C   0  0  0  0  0  3  0  0  0  0  0  0
   37.4380   31.4580   41.1320 H   0  0  0  0  0  0  0  0  0  0  0  0
   36.3460   29.8690   40.5500 O   0  0  0  0  0  0  0  0  0  0  0  0
   36.3310   28.4930   40.4160 C   0  0  0  0  0  3  0  0  0  0  0  0
   37.1990   28.0750   39.8650 H   0  0  0  0  0  0  0  0  0  0  0  0
   36.4590   27.9160   41.8310 C   0  0  0  0  0  3  0  0  0  0  0  0
   35.7820   28.4440   42.5420 H   0  0  0  0  0  0  0  0  0  0  0  0
   41.7050   26.7430   43.5740 C   0  0  0  0  0  0  0  0  0  0  0  0
   41.6700   25.3760   43.2650 C   0  0  0  0  0  0  0  0  0  0  0  0
   40.4360   24.7980   43.0740 C   0  0  0  0  0  0  0  0  0  0  0  0
   39.3170   25.5570   43.1900 N   0  0  0  0  0  0  0  0  0  0  0  0
   39.3830   26.8620   43.4870 C   0  0  0  0  0  0  0  0  0  0  0  0
   40.5740   27.4590   43.6800 N   0  0  0  0  0  0  0  0  0  0  0  0
   42.6390   27.2540   43.7350 H   0  0  0  0  0  0  0  0  0  0  0  0
   40.4400   23.7570   42.8390 H   0  0  0  0  0  0  0  0  0  0  0  0
   42.9240   24.7340   43.1810 N   0  0  0  0  0  0  0  0  0  0  0  0
   43.2310   24.4480   42.2090 H   0  0  0  0  0  0  0  0  0  0  0  0
   43.4230   24.6090   44.0960 H   0  0  0  0  0  0  0  0  0  0  0  0
  1  2  1  0  0  0  0
  1  3  1  0  0  0  0
  4  1  1  0  0  0  0
  5  4  1  0  0  0  0
  5  6  1  0  0  0  0
  7  8  1  0  0  0  0
  7  5  1  0  0  0  0
  9  7  1  0  0  0  0
 10  9  1  0  0  0  0
 10 12  1  0  0  0  0
 11 10  1  0  0  0  0
 12  4  1  0  0  0  0
 12 13  1  0  0  0  0
 14 19  1  0  0  0  0
 14 20  1  0  0  0  0
 15 14  2  0  0  0  0
 16 17  2  0  0  0  0
 16 15  1  0  0  0  0
 17 18  1  0  0  0  0
 18  1  1  0  0  0  0
 18 19  2  0  0  0  0
 21 16  1  0  0  0  0
 22 15  1  0  0  0  0
 22 24  1  0  0  0  0
 23 22  1  0  0  0  0
M  END
>  <minimizedAffinity>
-4.2962184

$$$$

 OpenBabel03242518183D

 24 25  0  0  0  0  0  0  0  0999 V2000
   36.2200   30.7790   41.0090 C   0  0  0  0  0  0  0  0  0  0  0  0
   36.1410   31.6450   41.7160 H   0  0  0  0  0  0  0  0  0  0  0  0
   35.2250   30.4390   40.6810 H   0  0  0  0  0  0  0  0  0  0  0  0
   36.8600   29.6700   41.7830 C   0  0  0  0  0  3  0  0  0  0  0  0
   38.3610   29.7950   41.7360 C   0  0  0  0  0  3  0  0  0  0  0  0
   38.6540   30.0200   40.7070 H   0  0  0  0  0  0  0  0  0  0  0  0
   39.0540   28.5890   42.3130 C   0  0  0  0  0  3  0  0  0  0  0  0
   40.1010   28.6010   41.9290 H   0  0  0  0  0  0  0  0  0  0  0  0
   38.4890   27.3940   41.9100 O   0  0  0  0  0  0  0  0  0  0  0  0
   37.1390   27.3040   42.1940 C   0  0  0  0  0  3  0  0  0  0  0  0
   36.8620   27.6280   43.2190 H   0  0  0  0  0  0  0  0  0  0  0  0
   36.4310   28.3040   41.2710 C   0  0  0  0  0  3  0  0  0  0  0  0
   36.8170   28.2290   40.2290 H   0  0  0  0  0  0  0  0  0  0  0  0
   38.7660   32.4980   39.0300 C   0  0  0  0  0  0  0  0  0  0  0  0
   38.8280   31.7610   37.8400 C   0  0  0  0  0  0  0  0  0  0  0  0
   37.9920   30.6730   37.7200 C   0  0  0  0  0  0  0  0  0  0  0  0
   37.1550   30.3590   38.7400 N   0  0  0  0  0  0  0  0  0  0  0  0
   37.1190   31.0840   39.8670 C   0  0  0  0  0  0  0  0  0  0  0  0
   37.9220   32.1540   40.0160 N   0  0  0  0  0  0  0  0  0  0  0  0
   39.3940   33.3590   39.1850 H   0  0  0  0  0  0  0  0  0  0  0  0
   38.0610   30.1320   36.8030 H   0  0  0  0  0  0  0  0  0  0  0  0
   39.7540   32.2230   36.8790 N   0  0  0  0  0  0  0  0  0  0  0  0
   39.3360   32.6640   36.0130 H   0  0  0  0  0  0  0  0  0  0  0  0
   40.7630   32.0800   37.1280 H   0  0  0  0  0  0  0  0  0  0  0  0
  1  2  1  0  0  0  0
  1  4  1  0  0  0  0
  3  1  1  0  0  0  0
  5  4  1  0  0  0  0
  5  7  1  0  0  0  0
  6  5  1  0  0  0  0
  8  7  1  0  0  0  0
  9 10  1  0  0  0  0
  9  7  1  0  0  0  0
 10 11  1  0  0  0  0
 12  4  1  0  0  0  0
 12 10  1  0  0  0  0
 13 12  1  0  0  0  0
 14 20  1  0  0  0  0
 14 19  1  0  0  0  0
 15 14  2  0  0  0  0
 16 15  1  0  0  0  0
 16 17  2  0  0  0  0
 17 18  1  0  0  0  0
 18 19  2  0  0  0  0
 18  1  1  0  0  0  0
 21 16  1  0  0  0  0
 22 24  1  0  0  0  0
 22 15  1  0  0  0  0
 23 22  1  0  0  0  0
M  END
>  <minimizedAffinity>
-4.22564173

$$$$

 OpenBabel03242518183D

 24 25  0  0  0  0  0  0  0  0999 V2000
   38.5740   32.6450   40.6830 C   0  0  0  0  0  0  0  0  0  0  0  0
   39.0430   32.7090   41.7000 H   0  0  0  0  0  0  0  0  0  0  0  0
   37.7010   33.3130   40.6040 H   0  0  0  0  0  0  0  0  0  0  0  0
   38.0960   31.2340   40.5370 C   0  0  0  0  0  3  0  0  0  0  0  0
   36.5910   31.1810   40.5970 C   0  0  0  0  0  3  0  0  0  0  0  0
   36.2590   31.8160   41.4220 H   0  0  0  0  0  0  0  0  0  0  0  0
   36.0720   29.7700   40.6740 C   0  0  0  0  0  3  0  0  0  0  0  0
   35.0280   29.8270   41.0620 H   0  0  0  0  0  0  0  0  0  0  0  0
   36.7860   28.9760   41.5510 O   0  0  0  0  0  0  0  0  0  0  0  0
   38.1390   28.9320   41.2720 C   0  0  0  0  0  3  0  0  0  0  0  0
   38.3830   28.7770   40.2000 H   0  0  0  0  0  0  0  0  0  0  0  0
   38.6960   30.3230   41.5970 C   0  0  0  0  0  3  0  0  0  0  0  0
   38.3110   30.6910   42.5750 H   0  0  0  0  0  0  0  0  0  0  0  0
   41.3720   34.1590   38.8870 C   0  0  0  0  0  0  0  0  0  0  0  0
   41.4550   33.4200   37.6990 C   0  0  0  0  0  0  0  0  0  0  0  0
   40.5460   32.4020   37.5180 C   0  0  0  0  0  0  0  0  0  0  0  0
   39.6210   32.1540   38.4790 N   0  0  0  0  0  0  0  0  0  0  0  0
   39.5670   32.8790   39.6050 C   0  0  0  0  0  0  0  0  0  0  0  0
   40.4410   33.8820   39.8130 N   0  0  0  0  0  0  0  0  0  0  0  0
   42.0540   34.9680   39.0880 H   0  0  0  0  0  0  0  0  0  0  0  0
   40.6330   31.8570   36.6050 H   0  0  0  0  0  0  0  0  0  0  0  0
   42.4760   33.8080   36.8050 N   0  0  0  0  0  0  0  0  0  0  0  0
   42.1530   34.2810   35.9150 H   0  0  0  0  0  0  0  0  0  0  0  0
   43.4520   33.5860   37.1190 H   0  0  0  0  0  0  0  0  0  0  0  0
  1  2  1  0  0  0  0
  3  1  1  0  0  0  0
  4  5  1  0  0  0  0
  4  1  1  0  0  0  0
  4 12  1  0  0  0  0
  5  7  1  0  0  0  0
  5  6  1  0  0  0  0
  7  8  1  0  0  0  0
  7  9  1  0  0  0  0
 10  9  1  0  0  0  0
 10 12  1  0  0  0  0
 11 10  1  0  0  0  0
 12 13  1  0  0  0  0
 14 20  1  0  0  0  0
 14 19  1  0  0  0  0
 15 14  2  0  0  0  0
 16 15  1  0  0  0  0
 16 17  2  0  0  0  0
 17 18  1  0  0  0  0
 18 19  2  0  0  0  0
 18  1  1  0  0  0  0
 21 16  1  0  0  0  0
 22 24  1  0  0  0  0
 22 15  1  0  0  0  0
 23 22  1  0  0  0  0
M  END
>  <minimizedAffinity>
-4.21066093

$$$$

 OpenBabel03242518183D

 24 25  0  0  0  0  0  0  0  0999 V2000
   37.9190   28.3110   43.4660 C   0  0  0  0  0  0  0  0  0  0  0  0
   36.8460   28.5300   43.7090 H   0  0  0  0  0  0  0  0  0  0  0  0
   38.5770   28.5590   44.3140 H   0  0  0  0  0  0  0  0  0  0  0  0
   38.2750   29.2080   42.3220 C   0  0  0  0  0  3  0  0  0  0  0  0
   39.3240   30.2030   42.7420 C   0  0  0  0  0  3  0  0  0  0  0  0
   39.0430   30.6050   43.7190 H   0  0  0  0  0  0  0  0  0  0  0  0
   39.5580   31.2630   41.6980 C   0  0  0  0  0  3  0  0  0  0  0  0
   40.0560   32.1200   42.2080 H   0  0  0  0  0  0  0  0  0  0  0  0
   38.3880   31.7460   41.1430 O   0  0  0  0  0  0  0  0  0  0  0  0
   37.5920   30.7570   40.5970 C   0  0  0  0  0  3  0  0  0  0  0  0
   38.1370   30.0230   39.9660 H   0  0  0  0  0  0  0  0  0  0  0  0
   37.0550   29.9300   41.7710 C   0  0  0  0  0  3  0  0  0  0  0  0
   36.6900   30.5900   42.5920 H   0  0  0  0  0  0  0  0  0  0  0  0
   37.1040   25.0720   41.9840 C   0  0  0  0  0  0  0  0  0  0  0  0
   38.2960   24.3420   42.0820 C   0  0  0  0  0  0  0  0  0  0  0  0
   39.3790   24.9670   42.6600 C   0  0  0  0  0  0  0  0  0  0  0  0
   39.2560   26.2430   43.1040 N   0  0  0  0  0  0  0  0  0  0  0  0
   38.1010   26.9150   42.9950 C   0  0  0  0  0  0  0  0  0  0  0  0
   37.0230   26.3340   42.4360 N   0  0  0  0  0  0  0  0  0  0  0  0
   36.2220   24.6410   41.5430 H   0  0  0  0  0  0  0  0  0  0  0  0
   40.2730   24.3870   42.7220 H   0  0  0  0  0  0  0  0  0  0  0  0
   38.2550   23.0270   41.5720 N   0  0  0  0  0  0  0  0  0  0  0  0
   38.2920   22.2530   42.2930 H   0  0  0  0  0  0  0  0  0  0  0  0
   38.1900   22.9560   40.5270 H   0  0  0  0  0  0  0  0  0  0  0  0
  1  2  1  0  0  0  0
  1  3  1  0  0  0  0
  4  5  1  0  0  0  0
  4  1  1  0  0  0  0
  5  6  1  0  0  0  0
  7  8  1  0  0  0  0
  7  5  1  0  0  0  0
  9  7  1  0  0  0  0
 10  9  1  0  0  0  0
 10 12  1  0  0  0  0
 11 10  1  0  0  0  0
 12  4  1  0  0  0  0
 12 13  1  0  0  0  0
 14 15  2  0  0  0  0
 14 19  1  0  0  0  0
 15 16  1  0  0  0  0
 16 21  1  0  0  0  0
 16 17  2  0  0  0  0
 18 17  1  0  0  0  0
 18  1  1  0  0  0  0
 19 18  2  0  0  0  0
 20 14  1  0  0  0  0
 22 15  1  0  0  0  0
 22 23  1  0  0  0  0
 24 22  1  0  0  0  0
M  END
>  <minimizedAffinity>
-4.19424152

$$$$

 OpenBabel03242518183D

 24 25  0  0  0  0  0  0  0  0999 V2000
   35.5860   28.8290   40.5970 C   0  0  0  0  0  0  0  0  0  0  0  0
   34.9260   29.0400   41.4790 H   0  0  0  0  0  0  0  0  0  0  0  0
   35.0340   28.2990   39.8050 H   0  0  0  0  0  0  0  0  0  0  0  0
   36.6680   27.9250   41.0980 C   0  0  0  0  0  3  0  0  0  0  0  0
   36.7000   26.6510   40.2950 C   0  0  0  0  0  3  0  0  0  0  0  0
   35.6720   26.3000   40.1690 H   0  0  0  0  0  0  0  0  0  0  0  0
   37.6200   25.6210   40.8940 C   0  0  0  0  0  3  0  0  0  0  0  0
   37.3250   24.6320   40.4690 H   0  0  0  0  0  0  0  0  0  0  0  0
   37.5040   25.5210   42.2670 O   0  0  0  0  0  0  0  0  0  0  0  0
   37.7030   26.7220   42.9220 C   0  0  0  0  0  3  0  0  0  0  0  0
   38.5840   27.2980   42.5700 H   0  0  0  0  0  0  0  0  0  0  0  0
   36.5010   27.6110   42.5760 C   0  0  0  0  0  3  0  0  0  0  0  0
   35.5460   27.0450   42.6660 H   0  0  0  0  0  0  0  0  0  0  0  0
   37.2810   32.0660   40.6750 C   0  0  0  0  0  0  0  0  0  0  0  0
   37.4850   32.3760   39.3240 C   0  0  0  0  0  0  0  0  0  0  0  0
   37.0380   31.4710   38.3880 C   0  0  0  0  0  0  0  0  0  0  0  0
   36.4280   30.3310   38.7990 N   0  0  0  0  0  0  0  0  0  0  0  0
   36.2470   30.0620   40.1000 C   0  0  0  0  0  0  0  0  0  0  0  0
   36.6720   30.9270   41.0410 N   0  0  0  0  0  0  0  0  0  0  0  0
   37.6070   32.7320   41.4550 H   0  0  0  0  0  0  0  0  0  0  0  0
   37.2070   31.7340   37.3680 H   0  0  0  0  0  0  0  0  0  0  0  0
   38.1350   33.6030   39.0680 N   0  0  0  0  0  0  0  0  0  0  0  0
   37.5320   34.3640   38.6480 H   0  0  0  0  0  0  0  0  0  0  0  0
   39.1530   33.6290   39.3230 H   0  0  0  0  0  0  0  0  0  0  0  0
  1  4  1  0  0  0  0
  1  2  1  0  0  0  0
  3  1  1  0  0  0  0
  4 12  1  0  0  0  0
  5  7  1  0  0  0  0
  5  4  1  0  0  0  0
  6  5  1  0  0  0  0
  7  9  1  0  0  0  0
  8  7  1  0  0  0  0
  9 10  1  0  0  0  0
 11 10  1  0  0  0  0
 12 13  1  0  0  0  0
 12 10  1  0  0  0  0
 14 19  1  0  0  0  0
 14 20  1  0  0  0  0
 15 14  2  0  0  0  0
 16 17  2  0  0  0  0
 16 15  1  0  0  0  0
 17 18  1  0  0  0  0
 18  1  1  0  0  0  0
 18 19  2  0  0  0  0
 21 16  1  0  0  0  0
 22 24  1  0  0  0  0
 22 15  1  0  0  0  0
 23 22  1  0  0  0  0
M  END
>  <minimizedAffinity>
-4.15596199

$$$$
