
 OpenBabel03252508113D

 48 51  0  0  0  0  0  0  0  0999 V2000
   39.9010   32.9930   40.5480 C   0  0  0  0  0  0  0  0  0  0  0  0
   39.1050   31.8780   40.3980 C   0  0  0  0  0  0  0  0  0  0  0  0
   37.8060   31.9850   39.9910 C   0  0  0  0  0  0  0  0  0  0  0  0
   37.3520   33.2760   39.7410 N   0  0  0  0  0  0  0  0  0  0  0  0
   38.1110   34.3480   39.8830 C   0  0  0  0  0  0  0  0  0  0  0  0
   39.3920   34.1930   40.2910 N   0  0  0  0  0  0  0  0  0  0  0  0
   40.9400   32.9550   40.8700 H   0  0  0  0  0  0  0  0  0  0  0  0
   37.6890   35.3380   39.6700 H   0  0  0  0  0  0  0  0  0  0  0  0
   36.8590   30.9630   39.7930 C   0  0  0  0  0  0  0  0  0  0  0  0
   36.1450   30.3740   40.8560 C   0  0  0  0  0  0  0  0  0  0  0  0
   35.2570   29.3420   40.7050 C   0  0  0  0  0  0  0  0  0  0  0  0
   35.0260   28.8230   39.4440 C   0  0  0  0  0  0  0  0  0  0  0  0
   35.7400   29.4100   38.3500 C   0  0  0  0  0  0  0  0  0  0  0  0
   35.5200   28.9010   37.1040 C   0  0  0  0  0  0  0  0  0  0  0  0
   36.1780   29.4250   36.0150 C   0  0  0  0  0  0  0  0  0  0  0  0
   37.0790   30.4900   36.1990 C   0  0  0  0  0  0  0  0  0  0  0  0
   37.2650   30.9710   37.5140 C   0  0  0  0  0  0  0  0  0  0  0  0
   36.6040   30.4310   38.5680 C   0  0  0  0  0  0  0  0  0  0  0  0
   36.3130   30.7660   41.8480 H   0  0  0  0  0  0  0  0  0  0  0  0
   34.7580   28.9570   41.5800 H   0  0  0  0  0  0  0  0  0  0  0  0
   34.3400   28.0210   39.3110 H   0  0  0  0  0  0  0  0  0  0  0  0
   34.8110   28.0750   37.0010 H   0  0  0  0  0  0  0  0  0  0  0  0
   35.9440   28.9650   35.0780 H   0  0  0  0  0  0  0  0  0  0  0  0
   37.5240   30.8120   35.2880 H   0  0  0  0  0  0  0  0  0  0  0  0
   37.9590   31.7810   37.4180 H   0  0  0  0  0  0  0  0  0  0  0  0
   39.6750   30.6650   40.6700 O   0  0  0  0  0  0  0  0  0  0  0  0
   42.0770   29.8960   39.9520 O   0  0  0  0  0  0  0  0  0  0  0  0
   40.6210   29.7730   39.6170 P   0  0  1  0  0  0  0  0  0  0  0  0
   40.2410   28.1300   39.6500 O   0  0  0  0  0  0  0  0  0  0  0  0
   39.0130   28.0420   40.3280 C   0  0  0  0  0  0  0  0  0  0  0  0
   38.1470   28.2750   39.7110 H   0  0  0  0  0  0  0  0  0  0  0  0
   39.0620   28.8700   41.0930 H   0  0  0  0  0  0  0  0  0  0  0  0
   38.9060   26.7680   41.1110 C   0  0  0  0  0  3  0  0  0  0  0  0
   37.6010   26.6410   41.8540 C   0  0  0  0  0  3  0  0  0  0  0  0
   37.6020   25.6040   42.3010 H   0  0  0  0  0  0  0  0  0  0  0  0
   37.5130   27.5770   43.0170 C   0  0  0  0  0  3  0  0  0  0  0  0
   36.5920   28.2080   42.8410 H   0  0  0  0  0  0  0  0  0  0  0  0
   38.5490   28.4700   43.1380 O   0  0  0  0  0  0  0  0  0  0  0  0
   39.8130   27.9620   43.0530 C   0  0  0  0  0  3  0  0  0  0  0  0
   40.2710   27.7490   44.0600 H   0  0  0  0  0  0  0  0  0  0  0  0
   39.9970   26.7840   42.1610 C   0  0  0  0  0  3  0  0  0  0  0  0
   40.0210   25.8120   42.7290 H   0  0  0  0  0  0  0  0  0  0  0  0
   40.3670   30.3620   38.0540 O   0  0  0  0  0  0  0  0  0  0  0  0
   41.1510   31.2520   37.3520 C   0  0  0  0  0  0  0  0  0  0  0  0
   42.2510   30.7270   37.2420 O   0  0  0  0  0  0  0  0  0  0  0  0
   40.4210   32.4320   37.0130 N   0  0  0  0  0  0  0  0  0  0  0  0
   39.6300   32.5340   36.3040 H   0  0  0  0  0  0  0  0  0  0  0  0
   40.2790   33.4580   37.1570 H   0  0  0  0  0  0  0  0  0  0  0  0
  1  7  1  0  0  0  0
  2  1  1  0  0  0  0
  2 26  1  0  0  0  0
  3  2  2  0  0  0  0
  4  5  2  0  0  0  0
  4  3  1  0  0  0  0
  5  6  1  0  0  0  0
  6  1  2  0  0  0  0
  8  5  1  0  0  0  0
  9  3  1  0  0  0  0
  9 10  1  0  0  0  0
 10 19  1  0  0  0  0
 11 10  2  0  0  0  0
 11 20  1  0  0  0  0
 12 11  1  0  0  0  0
 13 18  1  0  0  0  0
 13 12  2  0  0  0  0
 14 13  1  0  0  0  0
 15 16  1  0  0  0  0
 15 14  2  0  0  0  0
 16 17  2  0  0  0  0
 17 18  1  0  0  0  0
 18  9  2  0  0  0  0
 21 12  1  0  0  0  0
 22 14  1  0  0  0  0
 23 15  1  0  0  0  0
 24 16  1  0  0  0  0
 25 17  1  0  0  0  0
 28 29  1  0  0  0  0
 28 27  2  1  0  0  0
 28 26  1  0  0  0  0
 29 30  1  0  0  0  0
 30 32  1  0  0  0  0
 30 33  1  0  0  0  0
 31 30  1  0  0  0  0
 33 34  1  0  0  0  0
 33 41  1  0  0  0  0
 34 35  1  0  0  0  0
 34 36  1  0  0  0  0
 36 38  1  0  0  0  0
 37 36  1  0  0  0  0
 39 38  1  0  0  0  0
 39 40  1  0  0  0  0
 41 42  1  0  0  0  0
 41 39  1  0  0  0  0
 43 28  1  0  0  0  0
 44 43  1  0  0  0  0
 45 44  2  0  0  0  0
 46 48  1  0  0  0  0
 46 44  1  0  0  0  0
 47 46  1  0  0  0  0
M  END
>  <minimizedAffinity>
-6.07403135

$$$$

 OpenBabel03252508113D

 48 51  0  0  0  0  0  0  0  0999 V2000
   37.7250   30.1480   37.7120 C   0  0  0  0  0  0  0  0  0  0  0  0
   37.8970   29.5670   38.9500 C   0  0  0  0  0  0  0  0  0  0  0  0
   36.8920   28.8610   39.5460 C   0  0  0  0  0  0  0  0  0  0  0  0
   35.7050   28.7680   38.8270 N   0  0  0  0  0  0  0  0  0  0  0  0
   35.5340   29.3230   37.6400 C   0  0  0  0  0  0  0  0  0  0  0  0
   36.5580   30.0160   37.0890 N   0  0  0  0  0  0  0  0  0  0  0  0
   38.4960   30.7200   37.2000 H   0  0  0  0  0  0  0  0  0  0  0  0
   34.5710   29.2120   37.1280 H   0  0  0  0  0  0  0  0  0  0  0  0
   36.8930   28.2140   40.7960 C   0  0  0  0  0  0  0  0  0  0  0  0
   36.8920   28.9190   42.0150 C   0  0  0  0  0  0  0  0  0  0  0  0
   36.9480   28.3220   43.2470 C   0  0  0  0  0  0  0  0  0  0  0  0
   37.0090   26.9430   43.3330 C   0  0  0  0  0  0  0  0  0  0  0  0
   37.0090   26.2080   42.1040 C   0  0  0  0  0  0  0  0  0  0  0  0
   37.0730   24.8480   42.1790 C   0  0  0  0  0  0  0  0  0  0  0  0
   37.0740   24.0890   41.0320 C   0  0  0  0  0  0  0  0  0  0  0  0
   37.0100   24.7280   39.7800 C   0  0  0  0  0  0  0  0  0  0  0  0
   36.9470   26.1390   39.7680 C   0  0  0  0  0  0  0  0  0  0  0  0
   36.9500   26.8600   40.9180 C   0  0  0  0  0  0  0  0  0  0  0  0
   36.8450   29.9970   41.9690 H   0  0  0  0  0  0  0  0  0  0  0  0
   36.9420   28.9480   44.1260 H   0  0  0  0  0  0  0  0  0  0  0  0
   37.0540   26.4660   44.2820 H   0  0  0  0  0  0  0  0  0  0  0  0
   37.1200   24.3860   43.1700 H   0  0  0  0  0  0  0  0  0  0  0  0
   37.1270   23.0310   41.1860 H   0  0  0  0  0  0  0  0  0  0  0  0
   37.0160   24.0410   38.9680 H   0  0  0  0  0  0  0  0  0  0  0  0
   36.8800   26.4050   38.7330 H   0  0  0  0  0  0  0  0  0  0  0  0
   39.1160   29.7260   39.5480 O   0  0  0  0  0  0  0  0  0  0  0  0
   40.0870   30.5890   41.8260 O   0  0  0  0  0  0  0  0  0  0  0  0
   39.5790   31.0310   40.4870 P   0  0  1  0  0  0  0  0  0  0  0  0
   40.8060   31.9350   39.7650 O   0  0  0  0  0  0  0  0  0  0  0  0
   41.1870   31.2090   38.6230 C   0  0  0  0  0  0  0  0  0  0  0  0
   41.1300   31.7750   37.6960 H   0  0  0  0  0  0  0  0  0  0  0  0
   40.3960   30.4100   38.5310 H   0  0  0  0  0  0  0  0  0  0  0  0
   42.4800   30.4810   38.8390 C   0  0  0  0  0  3  0  0  0  0  0  0
   43.6720   31.2240   38.2970 C   0  0  0  0  0  3  0  0  0  0  0  0
   44.5770   30.6310   38.6220 H   0  0  0  0  0  0  0  0  0  0  0  0
   43.7130   31.2250   36.8020 C   0  0  0  0  0  3  0  0  0  0  0  0
   43.7250   32.3110   36.4900 H   0  0  0  0  0  0  0  0  0  0  0  0
   42.6170   30.6790   36.1800 O   0  0  0  0  0  0  0  0  0  0  0  0
   42.1980   29.4600   36.6260 C   0  0  0  0  0  3  0  0  0  0  0  0
   42.6010   28.6040   36.0140 H   0  0  0  0  0  0  0  0  0  0  0  0
   42.4030   29.1770   38.0740 C   0  0  0  0  0  3  0  0  0  0  0  0
   43.3150   28.5440   38.2660 H   0  0  0  0  0  0  0  0  0  0  0  0
   38.2300   32.0220   40.7130 O   0  0  0  0  0  0  0  0  0  0  0  0
   38.0670   33.3290   40.3050 C   0  0  0  0  0  0  0  0  0  0  0  0
   37.3020   33.2960   39.3500 O   0  0  0  0  0  0  0  0  0  0  0  0
   38.8240   34.2250   41.1190 N   0  0  0  0  0  0  0  0  0  0  0  0
   38.6490   34.4970   42.1360 H   0  0  0  0  0  0  0  0  0  0  0  0
   39.6310   34.8860   41.1950 H   0  0  0  0  0  0  0  0  0  0  0  0
  1  2  1  0  0  0  0
  2  3  2  0  0  0  0
  2 26  1  0  0  0  0
  3  9  1  0  0  0  0
  4  3  1  0  0  0  0
  5  4  2  0  0  0  0
  6  5  1  0  0  0  0
  6  1  2  0  0  0  0
  7  1  1  0  0  0  0
  8  5  1  0  0  0  0
  9 18  2  0  0  0  0
  9 10  1  0  0  0  0
 10 11  2  0  0  0  0
 11 12  1  0  0  0  0
 11 20  1  0  0  0  0
 12 21  1  0  0  0  0
 13 14  1  0  0  0  0
 13 12  2  0  0  0  0
 14 22  1  0  0  0  0
 15 23  1  0  0  0  0
 15 14  2  0  0  0  0
 16 15  1  0  0  0  0
 17 16  2  0  0  0  0
 17 18  1  0  0  0  0
 18 13  1  0  0  0  0
 19 10  1  0  0  0  0
 24 16  1  0  0  0  0
 25 17  1  0  0  0  0
 26 28  1  0  0  0  0
 28 43  1  0  0  0  0
 28 27  2  1  0  0  0
 29 28  1  0  0  0  0
 30 33  1  0  0  0  0
 30 29  1  0  0  0  0
 31 30  1  0  0  0  0
 32 30  1  0  0  0  0
 34 35  1  0  0  0  0
 34 33  1  0  0  0  0
 36 34  1  0  0  0  0
 37 36  1  0  0  0  0
 38 39  1  0  0  0  0
 38 36  1  0  0  0  0
 39 41  1  0  0  0  0
 40 39  1  0  0  0  0
 41 42  1  0  0  0  0
 41 33  1  0  0  0  0
 44 43  1  0  0  0  0
 44 46  1  0  0  0  0
 45 44  2  0  0  0  0
 46 48  1  0  0  0  0
 46 47  1  0  0  0  0
M  END
>  <minimizedAffinity>
-5.9639163

$$$$

 OpenBabel03252508113D

 48 51  0  0  0  0  0  0  0  0999 V2000
   41.8120   29.9790   40.4960 C   0  0  0  0  0  0  0  0  0  0  0  0
   40.5490   29.4870   40.7450 C   0  0  0  0  0  0  0  0  0  0  0  0
   40.2390   28.9060   41.9410 C   0  0  0  0  0  0  0  0  0  0  0  0
   41.2690   28.8490   42.8740 N   0  0  0  0  0  0  0  0  0  0  0  0
   42.4810   29.3190   42.6410 C   0  0  0  0  0  0  0  0  0  0  0  0
   42.7430   29.8850   41.4390 N   0  0  0  0  0  0  0  0  0  0  0  0
   42.1040   30.4490   39.5590 H   0  0  0  0  0  0  0  0  0  0  0  0
   43.2480   29.2400   43.4210 H   0  0  0  0  0  0  0  0  0  0  0  0
   39.0150   28.3510   42.3590 C   0  0  0  0  0  0  0  0  0  0  0  0
   38.0960   29.0570   43.1590 C   0  0  0  0  0  0  0  0  0  0  0  0
   36.9220   28.5290   43.6280 C   0  0  0  0  0  0  0  0  0  0  0  0
   36.5890   27.2240   43.3130 C   0  0  0  0  0  0  0  0  0  0  0  0
   37.5100   26.4900   42.4980 C   0  0  0  0  0  0  0  0  0  0  0  0
   37.1920   25.2010   42.1860 C   0  0  0  0  0  0  0  0  0  0  0  0
   38.0370   24.4470   41.4050 C   0  0  0  0  0  0  0  0  0  0  0  0
   39.2330   25.0180   40.9330 C   0  0  0  0  0  0  0  0  0  0  0  0
   39.5070   26.3560   41.2910 C   0  0  0  0  0  0  0  0  0  0  0  0
   38.6540   27.0730   42.0660 C   0  0  0  0  0  0  0  0  0  0  0  0
   38.3380   30.0780   43.4170 H   0  0  0  0  0  0  0  0  0  0  0  0
   36.2810   29.1490   44.2350 H   0  0  0  0  0  0  0  0  0  0  0  0
   35.6820   26.8000   43.6700 H   0  0  0  0  0  0  0  0  0  0  0  0
   36.2530   24.7930   42.5700 H   0  0  0  0  0  0  0  0  0  0  0  0
   37.7080   23.4470   41.2110 H   0  0  0  0  0  0  0  0  0  0  0  0
   39.8040   24.3420   40.3390 H   0  0  0  0  0  0  0  0  0  0  0  0
   40.4360   26.5880   40.8110 H   0  0  0  0  0  0  0  0  0  0  0  0
   39.6240   29.6120   39.7460 O   0  0  0  0  0  0  0  0  0  0  0  0
   39.1900   31.4830   37.9590 O   0  0  0  0  0  0  0  0  0  0  0  0
   38.8150   31.0180   39.3340 P   0  0  1  0  0  0  0  0  0  0  0  0
   37.1400   30.8210   39.3510 O   0  0  0  0  0  0  0  0  0  0  0  0
   36.9000   29.5870   38.7200 C   0  0  0  0  0  0  0  0  0  0  0  0
   37.7310   29.2270   38.1170 H   0  0  0  0  0  0  0  0  0  0  0  0
   36.0760   29.8130   37.9830 H   0  0  0  0  0  0  0  0  0  0  0  0
   36.3300   28.5820   39.6750 C   0  0  0  0  0  3  0  0  0  0  0  0
   36.2040   27.2060   39.0740 C   0  0  0  0  0  3  0  0  0  0  0  0
   35.8760   26.5320   39.9200 H   0  0  0  0  0  0  0  0  0  0  0  0
   35.1120   27.1260   38.0550 C   0  0  0  0  0  3  0  0  0  0  0  0
   35.6030   26.7790   37.0990 H   0  0  0  0  0  0  0  0  0  0  0  0
   34.5070   28.3190   37.7420 O   0  0  0  0  0  0  0  0  0  0  0  0
   34.1030   29.0980   38.7860 C   0  0  0  0  0  3  0  0  0  0  0  0
   33.0160   28.9550   39.0480 H   0  0  0  0  0  0  0  0  0  0  0  0
   34.9270   29.0280   40.0250 C   0  0  0  0  0  3  0  0  0  0  0  0
   34.4740   28.3550   40.8070 H   0  0  0  0  0  0  0  0  0  0  0  0
   39.2370   32.2140   40.4510 O   0  0  0  0  0  0  0  0  0  0  0  0
   38.7970   33.5190   40.4920 C   0  0  0  0  0  0  0  0  0  0  0  0
   39.7900   34.2100   40.6800 O   0  0  0  0  0  0  0  0  0  0  0  0
   37.3830   33.5970   40.3050 N   0  0  0  0  0  0  0  0  0  0  0  0
   36.8270   33.4130   39.4130 H   0  0  0  0  0  0  0  0  0  0  0  0
   36.4450   33.8040   40.7190 H   0  0  0  0  0  0  0  0  0  0  0  0
  1  2  2  0  0  0  0
  1  6  1  0  0  0  0
  2  3  1  0  0  0  0
  3  9  1  0  0  0  0
  3  4  2  0  0  0  0
  5  4  1  0  0  0  0
  5  8  1  0  0  0  0
  6  5  2  0  0  0  0
  7  1  1  0  0  0  0
  9 10  1  0  0  0  0
 10 19  1  0  0  0  0
 10 11  2  0  0  0  0
 11 20  1  0  0  0  0
 12 11  1  0  0  0  0
 12 21  1  0  0  0  0
 13 12  2  0  0  0  0
 14 13  1  0  0  0  0
 14 22  1  0  0  0  0
 15 14  2  0  0  0  0
 16 17  2  0  0  0  0
 16 15  1  0  0  0  0
 17 18  1  0  0  0  0
 18  9  2  0  0  0  0
 18 13  1  0  0  0  0
 23 15  1  0  0  0  0
 24 16  1  0  0  0  0
 25 17  1  0  0  0  0
 26  2  1  0  0  0  0
 28 27  2  6  0  0  0
 28 29  1  0  0  0  0
 28 26  1  0  0  0  0
 28 43  1  0  0  0  0
 30 29  1  0  0  0  0
 30 33  1  0  0  0  0
 31 30  1  0  0  0  0
 32 30  1  0  0  0  0
 33 41  1  0  0  0  0
 34 33  1  0  0  0  0
 34 35  1  0  0  0  0
 36 34  1  0  0  0  0
 37 36  1  0  0  0  0
 38 36  1  0  0  0  0
 38 39  1  0  0  0  0
 39 40  1  0  0  0  0
 39 41  1  0  0  0  0
 41 42  1  0  0  0  0
 43 44  1  0  0  0  0
 44 45  2  0  0  0  0
 46 44  1  0  0  0  0
 46 48  1  0  0  0  0
 47 46  1  0  0  0  0
M  END
>  <minimizedAffinity>
-5.89093924

$$$$

 OpenBabel03252508113D

 48 51  0  0  0  0  0  0  0  0999 V2000
   37.6490   29.5090   37.1710 C   0  0  0  0  0  0  0  0  0  0  0  0
   37.9070   29.0350   38.4390 C   0  0  0  0  0  0  0  0  0  0  0  0
   36.8940   28.7750   39.3170 C   0  0  0  0  0  0  0  0  0  0  0  0
   35.6070   29.0140   38.8470 N   0  0  0  0  0  0  0  0  0  0  0  0
   35.3540   29.4680   37.6320 C   0  0  0  0  0  0  0  0  0  0  0  0
   36.3910   29.7140   36.7970 N   0  0  0  0  0  0  0  0  0  0  0  0
   38.4240   29.7310   36.4390 H   0  0  0  0  0  0  0  0  0  0  0  0
   34.3150   29.6360   37.3260 H   0  0  0  0  0  0  0  0  0  0  0  0
   36.9750   28.2990   40.6390 C   0  0  0  0  0  0  0  0  0  0  0  0
   37.1670   29.1530   41.7420 C   0  0  0  0  0  0  0  0  0  0  0  0
   37.3050   28.7180   43.0340 C   0  0  0  0  0  0  0  0  0  0  0  0
   37.2580   27.3630   43.3050 C   0  0  0  0  0  0  0  0  0  0  0  0
   37.0620   26.4780   42.1960 C   0  0  0  0  0  0  0  0  0  0  0  0
   37.0180   25.1400   42.4540 C   0  0  0  0  0  0  0  0  0  0  0  0
   36.8310   24.2410   41.4280 C   0  0  0  0  0  0  0  0  0  0  0  0
   36.6850   24.7170   40.1120 C   0  0  0  0  0  0  0  0  0  0  0  0
   36.7410   26.1130   39.9100 C   0  0  0  0  0  0  0  0  0  0  0  0
   36.9310   26.9740   40.9420 C   0  0  0  0  0  0  0  0  0  0  0  0
   37.2070   30.2150   41.5510 H   0  0  0  0  0  0  0  0  0  0  0  0
   37.4480   29.4500   43.8140 H   0  0  0  0  0  0  0  0  0  0  0  0
   37.3650   27.0100   44.3030 H   0  0  0  0  0  0  0  0  0  0  0  0
   37.1330   24.8080   43.4890 H   0  0  0  0  0  0  0  0  0  0  0  0
   36.8100   23.2130   41.7220 H   0  0  0  0  0  0  0  0  0  0  0  0
   36.5450   23.9320   39.4060 H   0  0  0  0  0  0  0  0  0  0  0  0
   36.5850   26.2480   38.8590 H   0  0  0  0  0  0  0  0  0  0  0  0
   39.2180   28.8360   38.7750 O   0  0  0  0  0  0  0  0  0  0  0  0
   39.6380   31.2160   39.7930 O   0  0  0  0  0  0  0  0  0  0  0  0
   40.3170   30.0330   39.1710 P   0  0  1  0  0  0  0  0  0  0  0  0
   41.4800   29.4960   40.2670 O   0  0  0  0  0  0  0  0  0  0  0  0
   41.3430   28.0970   40.3070 C   0  0  0  0  0  0  0  0  0  0  0  0
   42.2720   27.5540   40.1450 H   0  0  0  0  0  0  0  0  0  0  0  0
   40.7010   27.8600   39.4110 H   0  0  0  0  0  0  0  0  0  0  0  0
   40.5540   27.6550   41.5030 C   0  0  0  0  0  3  0  0  0  0  0  0
   41.0550   28.2520   42.7930 C   0  0  0  0  0  3  0  0  0  0  0  0
   40.3140   27.9340   43.5850 H   0  0  0  0  0  0  0  0  0  0  0  0
   42.3660   27.6730   43.2180 C   0  0  0  0  0  3  0  0  0  0  0  0
   43.0790   28.5450   43.3050 H   0  0  0  0  0  0  0  0  0  0  0  0
   42.9520   26.8130   42.3210 O   0  0  0  0  0  0  0  0  0  0  0  0
   42.1620   25.8270   41.8060 C   0  0  0  0  0  3  0  0  0  0  0  0
   42.2620   24.8490   42.3570 H   0  0  0  0  0  0  0  0  0  0  0  0
   40.7200   26.1560   41.6310 C   0  0  0  0  0  3  0  0  0  0  0  0
   40.0800   25.7500   42.4650 H   0  0  0  0  0  0  0  0  0  0  0  0
   41.0890   30.5280   37.7520 O   0  0  0  0  0  0  0  0  0  0  0  0
   41.2020   31.8100   37.2580 C   0  0  0  0  0  0  0  0  0  0  0  0
   42.3890   32.1000   37.3250 O   0  0  0  0  0  0  0  0  0  0  0  0
   39.9330   32.3250   36.8560 N   0  0  0  0  0  0  0  0  0  0  0  0
   39.3390   32.0300   36.0190 H   0  0  0  0  0  0  0  0  0  0  0  0
   39.1580   33.0060   37.0280 H   0  0  0  0  0  0  0  0  0  0  0  0
  1  2  1  0  0  0  0
  2 26  1  0  0  0  0
  2  3  2  0  0  0  0
  3  9  1  0  0  0  0
  4  3  1  0  0  0  0
  5  4  2  0  0  0  0
  6  1  2  0  0  0  0
  6  5  1  0  0  0  0
  7  1  1  0  0  0  0
  8  5  1  0  0  0  0
  9 18  2  0  0  0  0
  9 10  1  0  0  0  0
 10 11  2  0  0  0  0
 11 12  1  0  0  0  0
 11 20  1  0  0  0  0
 12 21  1  0  0  0  0
 13 14  1  0  0  0  0
 13 12  2  0  0  0  0
 14 22  1  0  0  0  0
 15 23  1  0  0  0  0
 15 14  2  0  0  0  0
 16 15  1  0  0  0  0
 17 16  2  0  0  0  0
 17 18  1  0  0  0  0
 18 13  1  0  0  0  0
 19 10  1  0  0  0  0
 24 16  1  0  0  0  0
 25 17  1  0  0  0  0
 26 28  1  0  0  0  0
 28 27  2  1  0  0  0
 28 29  1  0  0  0  0
 29 30  1  0  0  0  0
 30 33  1  0  0  0  0
 31 30  1  0  0  0  0
 32 30  1  0  0  0  0
 33 41  1  0  0  0  0
 33 34  1  0  0  0  0
 34 36  1  0  0  0  0
 34 35  1  0  0  0  0
 36 37  1  0  0  0  0
 38 36  1  0  0  0  0
 39 38  1  0  0  0  0
 39 40  1  0  0  0  0
 41 39  1  0  0  0  0
 41 42  1  0  0  0  0
 43 28  1  0  0  0  0
 44 45  2  0  0  0  0
 44 43  1  0  0  0  0
 46 48  1  0  0  0  0
 46 44  1  0  0  0  0
 47 46  1  0  0  0  0
M  END
>  <minimizedAffinity>
-5.72278166

$$$$

 OpenBabel03252508113D

 48 51  0  0  0  0  0  0  0  0999 V2000
   36.8820   29.2210   36.7720 C   0  0  0  0  0  0  0  0  0  0  0  0
   37.3140   28.4070   37.7980 C   0  0  0  0  0  0  0  0  0  0  0  0
   36.4360   27.8830   38.7030 C   0  0  0  0  0  0  0  0  0  0  0  0
   35.0990   28.2190   38.5180 N   0  0  0  0  0  0  0  0  0  0  0  0
   34.6800   28.9980   37.5370 C   0  0  0  0  0  0  0  0  0  0  0  0
   35.5860   29.4970   36.6650 N   0  0  0  0  0  0  0  0  0  0  0  0
   37.5440   29.6600   36.0290 H   0  0  0  0  0  0  0  0  0  0  0  0
   33.6100   29.2240   37.4500 H   0  0  0  0  0  0  0  0  0  0  0  0
   36.7020   27.0480   39.8040 C   0  0  0  0  0  0  0  0  0  0  0  0
   36.6280   25.6440   39.7260 C   0  0  0  0  0  0  0  0  0  0  0  0
   36.8270   24.8040   40.7910 C   0  0  0  0  0  0  0  0  0  0  0  0
   37.1200   25.3380   42.0320 C   0  0  0  0  0  0  0  0  0  0  0  0
   37.2030   26.7640   42.1310 C   0  0  0  0  0  0  0  0  0  0  0  0
   37.4880   27.2990   43.3530 C   0  0  0  0  0  0  0  0  0  0  0  0
   37.5810   28.6630   43.5090 C   0  0  0  0  0  0  0  0  0  0  0  0
   37.3780   29.5000   42.3970 C   0  0  0  0  0  0  0  0  0  0  0  0
   37.0840   28.8860   41.1590 C   0  0  0  0  0  0  0  0  0  0  0  0
   36.9960   27.5370   41.0380 C   0  0  0  0  0  0  0  0  0  0  0  0
   36.3990   25.2080   38.7650 H   0  0  0  0  0  0  0  0  0  0  0  0
   36.7490   23.7400   40.6320 H   0  0  0  0  0  0  0  0  0  0  0  0
   37.2770   24.6990   42.8680 H   0  0  0  0  0  0  0  0  0  0  0  0
   37.6410   26.6160   44.1930 H   0  0  0  0  0  0  0  0  0  0  0  0
   37.8080   28.9930   44.5010 H   0  0  0  0  0  0  0  0  0  0  0  0
   37.4770   30.5320   42.6370 H   0  0  0  0  0  0  0  0  0  0  0  0
   36.9950   29.6940   40.4620 H   0  0  0  0  0  0  0  0  0  0  0  0
   38.6550   28.1480   37.8640 O   0  0  0  0  0  0  0  0  0  0  0  0
   40.4750   28.7640   39.6490 O   0  0  0  0  0  0  0  0  0  0  0  0
   39.8330   29.2210   38.3740 P   0  0  1  0  0  0  0  0  0  0  0  0
   41.0650   29.4070   37.2370 O   0  0  0  0  0  0  0  0  0  0  0  0
   42.2640   29.2550   37.9540 C   0  0  0  0  0  0  0  0  0  0  0  0
   42.7760   28.3120   37.7720 H   0  0  0  0  0  0  0  0  0  0  0  0
   41.9350   29.2090   39.0320 H   0  0  0  0  0  0  0  0  0  0  0  0
   43.1300   30.4740   37.8440 C   0  0  0  0  0  3  0  0  0  0  0  0
   43.1500   31.0580   36.4560 C   0  0  0  0  0  3  0  0  0  0  0  0
   43.7360   32.0210   36.5370 H   0  0  0  0  0  0  0  0  0  0  0  0
   43.9110   30.2080   35.4890 C   0  0  0  0  0  3  0  0  0  0  0  0
   43.1870   29.9560   34.6590 H   0  0  0  0  0  0  0  0  0  0  0  0
   44.3430   28.9990   35.9770 O   0  0  0  0  0  0  0  0  0  0  0  0
   44.9870   29.0140   37.1790 C   0  0  0  0  0  3  0  0  0  0  0  0
   46.1090   29.0380   37.0780 H   0  0  0  0  0  0  0  0  0  0  0  0
   44.5520   30.0540   38.1530 C   0  0  0  0  0  3  0  0  0  0  0  0
   45.2400   30.9460   38.1690 H   0  0  0  0  0  0  0  0  0  0  0  0
   39.1000   30.7210   38.6360 O   0  0  0  0  0  0  0  0  0  0  0  0
   39.5420   31.9580   38.2200 C   0  0  0  0  0  0  0  0  0  0  0  0
   39.8140   32.5840   39.2360 O   0  0  0  0  0  0  0  0  0  0  0  0
   39.5280   32.0630   36.7960 N   0  0  0  0  0  0  0  0  0  0  0  0
   40.1650   31.5730   36.0950 H   0  0  0  0  0  0  0  0  0  0  0  0
   39.1020   32.4950   35.9440 H   0  0  0  0  0  0  0  0  0  0  0  0
  1  2  1  0  0  0  0
  2 26  1  0  0  0  0
  2  3  2  0  0  0  0
  3  9  1  0  0  0  0
  4  3  1  0  0  0  0
  5  4  2  0  0  0  0
  6  1  2  0  0  0  0
  6  5  1  0  0  0  0
  7  1  1  0  0  0  0
  8  5  1  0  0  0  0
  9 18  1  0  0  0  0
 10  9  2  0  0  0  0
 10 11  1  0  0  0  0
 11 12  2  0  0  0  0
 12 13  1  0  0  0  0
 12 21  1  0  0  0  0
 13 14  1  0  0  0  0
 14 15  2  0  0  0  0
 14 22  1  0  0  0  0
 15 23  1  0  0  0  0
 16 24  1  0  0  0  0
 16 15  1  0  0  0  0
 17 16  2  0  0  0  0
 18 17  1  0  0  0  0
 18 13  2  0  0  0  0
 19 10  1  0  0  0  0
 20 11  1  0  0  0  0
 25 17  1  0  0  0  0
 26 28  1  0  0  0  0
 28 43  1  0  0  0  0
 28 27  2  1  0  0  0
 29 30  1  0  0  0  0
 29 28  1  0  0  0  0
 30 32  1  0  0  0  0
 31 30  1  0  0  0  0
 33 30  1  0  0  0  0
 33 41  1  0  0  0  0
 34 35  1  0  0  0  0
 34 33  1  0  0  0  0
 36 38  1  0  0  0  0
 36 34  1  0  0  0  0
 37 36  1  0  0  0  0
 38 39  1  0  0  0  0
 39 41  1  0  0  0  0
 40 39  1  0  0  0  0
 41 42  1  0  0  0  0
 44 43  1  0  0  0  0
 44 45  2  0  0  0  0
 46 44  1  0  0  0  0
 47 46  1  0  0  0  0
 48 46  1  0  0  0  0
M  END
>  <minimizedAffinity>
-5.65852118

$$$$

 OpenBabel03252508113D

 48 51  0  0  0  0  0  0  0  0999 V2000
   36.7590   29.9340   37.4590 C   0  0  0  0  0  0  0  0  0  0  0  0
   37.1110   29.3790   38.6710 C   0  0  0  0  0  0  0  0  0  0  0  0
   36.3650   28.3840   39.2360 C   0  0  0  0  0  0  0  0  0  0  0  0
   35.2480   27.9770   38.5140 N   0  0  0  0  0  0  0  0  0  0  0  0
   34.9070   28.5060   37.3520 C   0  0  0  0  0  0  0  0  0  0  0  0
   35.6760   29.4910   36.8320 N   0  0  0  0  0  0  0  0  0  0  0  0
   37.3230   30.7280   36.9730 H   0  0  0  0  0  0  0  0  0  0  0  0
   34.0130   28.1380   36.8360 H   0  0  0  0  0  0  0  0  0  0  0  0
   36.5720   27.7150   40.4570 C   0  0  0  0  0  0  0  0  0  0  0  0
   36.2020   28.2690   41.6980 C   0  0  0  0  0  0  0  0  0  0  0  0
   36.4370   27.6700   42.9070 C   0  0  0  0  0  0  0  0  0  0  0  0
   37.0770   26.4440   42.9460 C   0  0  0  0  0  0  0  0  0  0  0  0
   37.4590   25.8630   41.6940 C   0  0  0  0  0  0  0  0  0  0  0  0
   38.0940   24.6560   41.7230 C   0  0  0  0  0  0  0  0  0  0  0  0
   38.4840   24.0490   40.5520 C   0  0  0  0  0  0  0  0  0  0  0  0
   38.2240   24.6850   39.3240 C   0  0  0  0  0  0  0  0  0  0  0  0
   37.5640   25.9340   39.3600 C   0  0  0  0  0  0  0  0  0  0  0  0
   37.1950   26.5090   40.5320 C   0  0  0  0  0  0  0  0  0  0  0  0
   35.7010   29.2270   41.6890 H   0  0  0  0  0  0  0  0  0  0  0  0
   36.1150   28.1730   43.8060 H   0  0  0  0  0  0  0  0  0  0  0  0
   37.2670   25.9670   43.8770 H   0  0  0  0  0  0  0  0  0  0  0  0
   38.2780   24.1920   42.6960 H   0  0  0  0  0  0  0  0  0  0  0  0
   38.9750   23.1060   40.6700 H   0  0  0  0  0  0  0  0  0  0  0  0
   38.5680   24.1220   38.4890 H   0  0  0  0  0  0  0  0  0  0  0  0
   37.4490   26.2170   38.3340 H   0  0  0  0  0  0  0  0  0  0  0  0
   38.2370   29.8650   39.2760 O   0  0  0  0  0  0  0  0  0  0  0  0
   36.9300   31.7240   40.5850 O   0  0  0  0  0  0  0  0  0  0  0  0
   38.2980   31.1700   40.3200 P   0  0  1  0  0  0  0  0  0  0  0  0
   38.9660   30.7640   41.8140 O   0  0  0  0  0  0  0  0  0  0  0  0
   40.1220   30.0200   41.5200 C   0  0  0  0  0  0  0  0  0  0  0  0
   41.0390   30.4420   41.9270 H   0  0  0  0  0  0  0  0  0  0  0  0
   40.2280   30.1100   40.4000 H   0  0  0  0  0  0  0  0  0  0  0  0
   39.9230   28.5600   41.7950 C   0  0  0  0  0  3  0  0  0  0  0  0
   40.4500   28.1370   43.1420 C   0  0  0  0  0  3  0  0  0  0  0  0
   40.1370   27.0590   43.2680 H   0  0  0  0  0  0  0  0  0  0  0  0
   41.9440   28.1280   43.1930 C   0  0  0  0  0  3  0  0  0  0  0  0
   42.2320   28.8250   44.0350 H   0  0  0  0  0  0  0  0  0  0  0  0
   42.5770   28.6220   42.0790 O   0  0  0  0  0  0  0  0  0  0  0  0
   42.1570   28.1480   40.8700 C   0  0  0  0  0  3  0  0  0  0  0  0
   42.7890   27.2960   40.4870 H   0  0  0  0  0  0  0  0  0  0  0  0
   40.7160   27.7880   40.7620 C   0  0  0  0  0  3  0  0  0  0  0  0
   40.5390   26.6800   40.8650 H   0  0  0  0  0  0  0  0  0  0  0  0
   39.2460   32.3720   39.6050 O   0  0  0  0  0  0  0  0  0  0  0  0
   39.5760   33.6050   40.1250 C   0  0  0  0  0  0  0  0  0  0  0  0
   40.4050   34.0880   39.3650 O   0  0  0  0  0  0  0  0  0  0  0  0
   38.8530   33.8710   41.3270 N   0  0  0  0  0  0  0  0  0  0  0  0
   37.8120   34.0770   41.4360 H   0  0  0  0  0  0  0  0  0  0  0  0
   38.8750   33.9960   42.3660 H   0  0  0  0  0  0  0  0  0  0  0  0
  1  2  1  0  0  0  0
  2  3  2  0  0  0  0
  2 26  1  0  0  0  0
  3  9  1  0  0  0  0
  4  3  1  0  0  0  0
  5  4  2  0  0  0  0
  6  5  1  0  0  0  0
  6  1  2  0  0  0  0
  7  1  1  0  0  0  0
  8  5  1  0  0  0  0
  9 18  2  0  0  0  0
  9 10  1  0  0  0  0
 10 11  2  0  0  0  0
 11 12  1  0  0  0  0
 11 20  1  0  0  0  0
 12 21  1  0  0  0  0
 13 14  1  0  0  0  0
 13 12  2  0  0  0  0
 14 22  1  0  0  0  0
 15 23  1  0  0  0  0
 15 14  2  0  0  0  0
 16 17  2  0  0  0  0
 16 15  1  0  0  0  0
 17 18  1  0  0  0  0
 18 13  1  0  0  0  0
 19 10  1  0  0  0  0
 24 16  1  0  0  0  0
 25 17  1  0  0  0  0
 26 28  1  0  0  0  0
 28 27  2  1  0  0  0
 28 29  1  0  0  0  0
 30 33  1  0  0  0  0
 30 29  1  0  0  0  0
 30 31  1  0  0  0  0
 32 30  1  0  0  0  0
 33 34  1  0  0  0  0
 34 36  1  0  0  0  0
 34 35  1  0  0  0  0
 36 37  1  0  0  0  0
 38 36  1  0  0  0  0
 39 38  1  0  0  0  0
 40 39  1  0  0  0  0
 41 42  1  0  0  0  0
 41 39  1  0  0  0  0
 41 33  1  0  0  0  0
 43 44  1  0  0  0  0
 43 28  1  0  0  0  0
 44 46  1  0  0  0  0
 45 44  2  0  0  0  0
 46 47  1  0  0  0  0
 46 48  1  0  0  0  0
M  END
>  <minimizedAffinity>
-5.64770365

$$$$

 OpenBabel03252508113D

 48 51  0  0  0  0  0  0  0  0999 V2000
   37.6870   30.6270   39.2940 C   0  0  0  0  0  0  0  0  0  0  0  0
   38.4320   29.6470   39.9160 C   0  0  0  0  0  0  0  0  0  0  0  0
   38.0870   29.1710   41.1480 C   0  0  0  0  0  0  0  0  0  0  0  0
   36.9490   29.7320   41.7190 N   0  0  0  0  0  0  0  0  0  0  0  0
   36.2320   30.6700   41.1280 C   0  0  0  0  0  0  0  0  0  0  0  0
   36.6130   31.1130   39.9070 N   0  0  0  0  0  0  0  0  0  0  0  0
   37.9240   31.0360   38.3140 H   0  0  0  0  0  0  0  0  0  0  0  0
   35.3460   31.0700   41.6360 H   0  0  0  0  0  0  0  0  0  0  0  0
   38.7310   28.1880   41.9230 C   0  0  0  0  0  0  0  0  0  0  0  0
   39.8170   28.4820   42.7700 C   0  0  0  0  0  0  0  0  0  0  0  0
   40.5000   27.5420   43.4960 C   0  0  0  0  0  0  0  0  0  0  0  0
   40.1250   26.2140   43.4130 C   0  0  0  0  0  0  0  0  0  0  0  0
   39.0210   25.8950   42.5580 C   0  0  0  0  0  0  0  0  0  0  0  0
   38.6470   24.5870   42.4670 C   0  0  0  0  0  0  0  0  0  0  0  0
   37.5930   24.2210   41.6620 C   0  0  0  0  0  0  0  0  0  0  0  0
   36.9060   25.2080   40.9330 C   0  0  0  0  0  0  0  0  0  0  0  0
   37.3420   26.5450   41.0680 C   0  0  0  0  0  0  0  0  0  0  0  0
   38.3870   26.8740   41.8680 C   0  0  0  0  0  0  0  0  0  0  0  0
   40.1250   29.5150   42.8490 H   0  0  0  0  0  0  0  0  0  0  0  0
   41.3200   27.8650   44.1200 H   0  0  0  0  0  0  0  0  0  0  0  0
   40.6460   25.4720   43.9700 H   0  0  0  0  0  0  0  0  0  0  0  0
   39.2040   23.8480   43.0500 H   0  0  0  0  0  0  0  0  0  0  0  0
   37.3710   23.1740   41.6520 H   0  0  0  0  0  0  0  0  0  0  0  0
   36.1110   24.8080   40.3490 H   0  0  0  0  0  0  0  0  0  0  0  0
   36.6740   27.1180   40.4580 H   0  0  0  0  0  0  0  0  0  0  0  0
   39.5240   29.1750   39.2420 O   0  0  0  0  0  0  0  0  0  0  0  0
   41.1150   31.0680   40.1160 O   0  0  0  0  0  0  0  0  0  0  0  0
   41.0130   29.9330   39.1420 P   0  0  1  0  0  0  0  0  0  0  0  0
   42.2900   28.8820   39.4700 O   0  0  0  0  0  0  0  0  0  0  0  0
   42.2100   27.8760   38.4900 C   0  0  0  0  0  0  0  0  0  0  0  0
   41.2770   27.8730   37.9310 H   0  0  0  0  0  0  0  0  0  0  0  0
   42.2020   26.9160   39.0830 H   0  0  0  0  0  0  0  0  0  0  0  0
   43.4500   27.8260   37.6500 C   0  0  0  0  0  3  0  0  0  0  0  0
   43.1590   27.6990   36.1770 C   0  0  0  0  0  3  0  0  0  0  0  0
   44.1580   27.7870   35.6580 H   0  0  0  0  0  0  0  0  0  0  0  0
   42.6390   26.3450   35.8130 C   0  0  0  0  0  3  0  0  0  0  0  0
   41.6350   26.5170   35.3240 H   0  0  0  0  0  0  0  0  0  0  0  0
   42.3910   25.5020   36.8690 O   0  0  0  0  0  0  0  0  0  0  0  0
   43.3770   25.3790   37.8040 C   0  0  0  0  0  3  0  0  0  0  0  0
   44.0400   24.4840   37.6300 H   0  0  0  0  0  0  0  0  0  0  0  0
   44.2200   26.5830   38.0440 C   0  0  0  0  0  3  0  0  0  0  0  0
   45.2070   26.5340   37.5040 H   0  0  0  0  0  0  0  0  0  0  0  0
   41.1900   30.5390   37.5750 O   0  0  0  0  0  0  0  0  0  0  0  0
   41.1890   31.8580   37.1770 C   0  0  0  0  0  0  0  0  0  0  0  0
   42.3550   32.2290   37.2150 O   0  0  0  0  0  0  0  0  0  0  0  0
   39.8680   32.3070   36.8710 N   0  0  0  0  0  0  0  0  0  0  0  0
   39.2570   32.0320   36.0410 H   0  0  0  0  0  0  0  0  0  0  0  0
   39.0570   32.9150   37.1280 H   0  0  0  0  0  0  0  0  0  0  0  0
  1  6  2  0  0  0  0
  1  2  1  0  0  0  0
  2  3  2  0  0  0  0
  3  4  1  0  0  0  0
  3  9  1  0  0  0  0
  5  8  1  0  0  0  0
  5  4  2  0  0  0  0
  6  5  1  0  0  0  0
  7  1  1  0  0  0  0
  9 10  1  0  0  0  0
 10 19  1  0  0  0  0
 10 11  2  0  0  0  0
 11 20  1  0  0  0  0
 12 11  1  0  0  0  0
 12 21  1  0  0  0  0
 13 12  2  0  0  0  0
 14 13  1  0  0  0  0
 14 22  1  0  0  0  0
 15 14  2  0  0  0  0
 16 17  2  0  0  0  0
 16 15  1  0  0  0  0
 17 18  1  0  0  0  0
 18  9  2  0  0  0  0
 18 13  1  0  0  0  0
 23 15  1  0  0  0  0
 24 16  1  0  0  0  0
 25 17  1  0  0  0  0
 26  2  1  0  0  0  0
 28 26  1  0  0  0  0
 28 29  1  0  0  0  0
 28 27  2  1  0  0  0
 30 32  1  0  0  0  0
 30 29  1  0  0  0  0
 31 30  1  0  0  0  0
 33 41  1  0  0  0  0
 33 30  1  0  0  0  0
 34 33  1  0  0  0  0
 35 34  1  0  0  0  0
 36 34  1  0  0  0  0
 36 38  1  0  0  0  0
 37 36  1  0  0  0  0
 38 39  1  0  0  0  0
 39 41  1  0  0  0  0
 40 39  1  0  0  0  0
 42 41  1  0  0  0  0
 43 28  1  0  0  0  0
 44 45  2  0  0  0  0
 44 43  1  0  0  0  0
 46 48  1  0  0  0  0
 46 44  1  0  0  0  0
 47 46  1  0  0  0  0
M  END
>  <minimizedAffinity>
-5.49315834

$$$$

 OpenBabel03252508113D

 48 51  0  0  0  0  0  0  0  0999 V2000
   41.0850   29.3750   38.3790 C   0  0  0  0  0  0  0  0  0  0  0  0
   40.1290   29.3090   39.3700 C   0  0  0  0  0  0  0  0  0  0  0  0
   40.0050   28.2020   40.1610 C   0  0  0  0  0  0  0  0  0  0  0  0
   40.8980   27.1670   39.9020 N   0  0  0  0  0  0  0  0  0  0  0  0
   41.8160   27.2250   38.9530 C   0  0  0  0  0  0  0  0  0  0  0  0
   41.9000   28.3420   38.1920 N   0  0  0  0  0  0  0  0  0  0  0  0
   41.2190   30.2350   37.7260 H   0  0  0  0  0  0  0  0  0  0  0  0
   42.4870   26.3720   38.8010 H   0  0  0  0  0  0  0  0  0  0  0  0
   39.0920   27.9640   41.2050 C   0  0  0  0  0  0  0  0  0  0  0  0
   38.9520   28.8340   42.3030 C   0  0  0  0  0  0  0  0  0  0  0  0
   38.1130   28.6060   43.3620 C   0  0  0  0  0  0  0  0  0  0  0  0
   37.3420   27.4580   43.3830 C   0  0  0  0  0  0  0  0  0  0  0  0
   37.4680   26.5610   42.2740 C   0  0  0  0  0  0  0  0  0  0  0  0
   36.7140   25.4250   42.2880 C   0  0  0  0  0  0  0  0  0  0  0  0
   36.7930   24.5260   41.2490 C   0  0  0  0  0  0  0  0  0  0  0  0
   37.6590   24.7900   40.1730 C   0  0  0  0  0  0  0  0  0  0  0  0
   38.4140   25.9830   40.2160 C   0  0  0  0  0  0  0  0  0  0  0  0
   38.3170   26.8480   41.2570 C   0  0  0  0  0  0  0  0  0  0  0  0
   39.5470   29.7360   42.3050 H   0  0  0  0  0  0  0  0  0  0  0  0
   38.0740   29.3330   44.1580 H   0  0  0  0  0  0  0  0  0  0  0  0
   36.6860   27.2660   44.1980 H   0  0  0  0  0  0  0  0  0  0  0  0
   36.0520   25.2550   43.1420 H   0  0  0  0  0  0  0  0  0  0  0  0
   36.1670   23.6640   41.3450 H   0  0  0  0  0  0  0  0  0  0  0  0
   37.6340   24.0280   39.4300 H   0  0  0  0  0  0  0  0  0  0  0  0
   38.9730   25.9920   39.3020 H   0  0  0  0  0  0  0  0  0  0  0  0
   39.3180   30.3980   39.5270 O   0  0  0  0  0  0  0  0  0  0  0  0
   39.2850   31.9650   37.4250 O   0  0  0  0  0  0  0  0  0  0  0  0
   38.4210   31.1290   38.3190 P   0  0  1  0  0  0  0  0  0  0  0  0
   37.6330   30.0050   37.3390 O   0  0  0  0  0  0  0  0  0  0  0  0
   36.3580   29.8380   37.9070 C   0  0  0  0  0  0  0  0  0  0  0  0
   35.5380   29.9520   37.2010 H   0  0  0  0  0  0  0  0  0  0  0  0
   36.2590   30.7070   38.6190 H   0  0  0  0  0  0  0  0  0  0  0  0
   36.2920   28.6050   38.7570 C   0  0  0  0  0  3  0  0  0  0  0  0
   35.7930   27.3980   38.0060 C   0  0  0  0  0  3  0  0  0  0  0  0
   35.8990   26.5280   38.7190 H   0  0  0  0  0  0  0  0  0  0  0  0
   34.3320   27.4820   37.6960 C   0  0  0  0  0  3  0  0  0  0  0  0
   34.2470   27.3960   36.5730 H   0  0  0  0  0  0  0  0  0  0  0  0
   33.7270   28.6720   38.0170 O   0  0  0  0  0  0  0  0  0  0  0  0
   33.9580   29.1630   39.2690 C   0  0  0  0  0  3  0  0  0  0  0  0
   33.1480   28.8940   40.0050 H   0  0  0  0  0  0  0  0  0  0  0  0
   35.2910   28.8660   39.8630 C   0  0  0  0  0  3  0  0  0  0  0  0
   35.2580   28.0040   40.5870 H   0  0  0  0  0  0  0  0  0  0  0  0
   37.2660   32.1220   39.0500 O   0  0  0  0  0  0  0  0  0  0  0  0
   37.4810   33.2900   39.7490 C   0  0  0  0  0  0  0  0  0  0  0  0
   36.8600   34.1640   39.1580 O   0  0  0  0  0  0  0  0  0  0  0  0
   38.3240   33.0700   40.8810 N   0  0  0  0  0  0  0  0  0  0  0  0
   38.0920   32.5460   41.7810 H   0  0  0  0  0  0  0  0  0  0  0  0
   39.2520   33.2250   41.3380 H   0  0  0  0  0  0  0  0  0  0  0  0
  1  2  1  0  0  0  0
  2 26  1  0  0  0  0
  2  3  2  0  0  0  0
  3  9  1  0  0  0  0
  4  3  1  0  0  0  0
  5  4  2  0  0  0  0
  6  1  2  0  0  0  0
  6  5  1  0  0  0  0
  7  1  1  0  0  0  0
  8  5  1  0  0  0  0
  9 18  2  0  0  0  0
  9 10  1  0  0  0  0
 10 19  1  0  0  0  0
 10 11  2  0  0  0  0
 11 12  1  0  0  0  0
 11 20  1  0  0  0  0
 12 21  1  0  0  0  0
 13 14  1  0  0  0  0
 13 12  2  0  0  0  0
 14 22  1  0  0  0  0
 15 23  1  0  0  0  0
 15 14  2  0  0  0  0
 16 17  2  0  0  0  0
 16 15  1  0  0  0  0
 17 18  1  0  0  0  0
 18 13  1  0  0  0  0
 24 16  1  0  0  0  0
 25 17  1  0  0  0  0
 28 27  2  6  0  0  0
 28 43  1  0  0  0  0
 28 26  1  0  0  0  0
 29 30  1  0  0  0  0
 29 28  1  0  0  0  0
 30 32  1  0  0  0  0
 30 33  1  0  0  0  0
 31 30  1  0  0  0  0
 33 41  1  0  0  0  0
 34 35  1  0  0  0  0
 34 33  1  0  0  0  0
 36 34  1  0  0  0  0
 36 38  1  0  0  0  0
 37 36  1  0  0  0  0
 38 39  1  0  0  0  0
 39 41  1  0  0  0  0
 39 40  1  0  0  0  0
 41 42  1  0  0  0  0
 43 44  1  0  0  0  0
 44 46  1  0  0  0  0
 45 44  2  0  0  0  0
 46 48  1  0  0  0  0
 46 47  1  0  0  0  0
M  END
>  <minimizedAffinity>
-5.47478914

$$$$

 OpenBabel03252508113D

 48 51  0  0  0  0  0  0  0  0999 V2000
   40.8250   30.2680   39.2830 C   0  0  0  0  0  0  0  0  0  0  0  0
   39.7110   29.8480   39.9780 C   0  0  0  0  0  0  0  0  0  0  0  0
   39.7850   28.8270   40.8830 C   0  0  0  0  0  0  0  0  0  0  0  0
   41.0420   28.2550   41.0520 N   0  0  0  0  0  0  0  0  0  0  0  0
   42.1120   28.6540   40.3880 C   0  0  0  0  0  0  0  0  0  0  0  0
   41.9910   29.6680   39.4990 N   0  0  0  0  0  0  0  0  0  0  0  0
   40.8130   31.0750   38.5530 H   0  0  0  0  0  0  0  0  0  0  0  0
   43.0730   28.1570   40.5690 H   0  0  0  0  0  0  0  0  0  0  0  0
   38.7580   28.2710   41.6680 C   0  0  0  0  0  0  0  0  0  0  0  0
   38.2740   28.8950   42.8340 C   0  0  0  0  0  0  0  0  0  0  0  0
   37.3140   28.3560   43.6500 C   0  0  0  0  0  0  0  0  0  0  0  0
   36.7680   27.1250   43.3380 C   0  0  0  0  0  0  0  0  0  0  0  0
   37.2470   26.4760   42.1540 C   0  0  0  0  0  0  0  0  0  0  0  0
   36.7160   25.2590   41.8410 C   0  0  0  0  0  0  0  0  0  0  0  0
   37.1370   24.5880   40.7150 C   0  0  0  0  0  0  0  0  0  0  0  0
   38.1190   25.1690   39.8920 C   0  0  0  0  0  0  0  0  0  0  0  0
   38.6300   26.4290   40.2710 C   0  0  0  0  0  0  0  0  0  0  0  0
   38.1970   27.0640   41.3890 C   0  0  0  0  0  0  0  0  0  0  0  0
   38.6880   29.8580   43.0950 H   0  0  0  0  0  0  0  0  0  0  0  0
   37.0060   28.9110   44.5230 H   0  0  0  0  0  0  0  0  0  0  0  0
   36.0230   26.6930   43.9620 H   0  0  0  0  0  0  0  0  0  0  0  0
   35.9540   24.8410   42.5040 H   0  0  0  0  0  0  0  0  0  0  0  0
   36.6670   23.6410   40.5480 H   0  0  0  0  0  0  0  0  0  0  0  0
   38.3620   24.5600   39.0530 H   0  0  0  0  0  0  0  0  0  0  0  0
   39.3310   26.6870   39.5040 H   0  0  0  0  0  0  0  0  0  0  0  0
   38.5370   30.4990   39.7250 O   0  0  0  0  0  0  0  0  0  0  0  0
   37.4120   31.2670   37.4830 O   0  0  0  0  0  0  0  0  0  0  0  0
   37.4750   30.1490   38.4800 P   0  0  1  0  0  0  0  0  0  0  0  0
   37.9160   28.7570   37.6360 O   0  0  0  0  0  0  0  0  0  0  0  0
   36.7600   28.3550   36.9430 C   0  0  0  0  0  0  0  0  0  0  0  0
   36.6760   28.7680   35.9400 H   0  0  0  0  0  0  0  0  0  0  0  0
   35.9150   28.8240   37.5260 H   0  0  0  0  0  0  0  0  0  0  0  0
   36.5480   26.8740   37.0370 C   0  0  0  0  0  3  0  0  0  0  0  0
   36.3600   26.2200   35.6930 C   0  0  0  0  0  3  0  0  0  0  0  0
   36.3270   25.1090   35.8950 H   0  0  0  0  0  0  0  0  0  0  0  0
   35.0390   26.5530   35.0760 C   0  0  0  0  0  3  0  0  0  0  0  0
   35.2710   27.0250   34.0760 H   0  0  0  0  0  0  0  0  0  0  0  0
   34.2870   27.4820   35.7530 O   0  0  0  0  0  0  0  0  0  0  0  0
   34.1310   27.2890   37.0940 C   0  0  0  0  0  3  0  0  0  0  0  0
   33.1710   26.7590   37.3550 H   0  0  0  0  0  0  0  0  0  0  0  0
   35.2670   26.6440   37.8090 C   0  0  0  0  0  3  0  0  0  0  0  0
   35.0970   25.5440   37.9860 H   0  0  0  0  0  0  0  0  0  0  0  0
   35.9390   29.9220   39.1460 O   0  0  0  0  0  0  0  0  0  0  0  0
   35.6030   29.8530   40.4810 C   0  0  0  0  0  0  0  0  0  0  0  0
   35.1670   28.7250   40.6670 O   0  0  0  0  0  0  0  0  0  0  0  0
   35.8770   31.0850   41.1500 N   0  0  0  0  0  0  0  0  0  0  0  0
   36.8280   31.5070   41.3870 H   0  0  0  0  0  0  0  0  0  0  0  0
   35.5010   31.9380   41.6240 H   0  0  0  0  0  0  0  0  0  0  0  0
  1  6  2  0  0  0  0
  1  2  1  0  0  0  0
  2  3  2  0  0  0  0
  3  4  1  0  0  0  0
  3  9  1  0  0  0  0
  5  8  1  0  0  0  0
  5  4  2  0  0  0  0
  6  5  1  0  0  0  0
  7  1  1  0  0  0  0
  9 10  1  0  0  0  0
 10 19  1  0  0  0  0
 10 11  2  0  0  0  0
 11 20  1  0  0  0  0
 12 11  1  0  0  0  0
 12 21  1  0  0  0  0
 13 12  2  0  0  0  0
 14 13  1  0  0  0  0
 14 22  1  0  0  0  0
 15 14  2  0  0  0  0
 16 17  2  0  0  0  0
 16 15  1  0  0  0  0
 17 18  1  0  0  0  0
 18  9  2  0  0  0  0
 18 13  1  0  0  0  0
 23 15  1  0  0  0  0
 24 16  1  0  0  0  0
 25 17  1  0  0  0  0
 26  2  1  0  0  0  0
 28 27  2  6  0  0  0
 28 43  1  0  0  0  0
 28 26  1  0  0  0  0
 29 28  1  0  0  0  0
 30 33  1  0  0  0  0
 30 32  1  0  0  0  0
 30 29  1  0  0  0  0
 31 30  1  0  0  0  0
 33 41  1  0  0  0  0
 34 35  1  0  0  0  0
 34 33  1  0  0  0  0
 36 34  1  0  0  0  0
 36 38  1  0  0  0  0
 37 36  1  0  0  0  0
 38 39  1  0  0  0  0
 39 40  1  0  0  0  0
 39 41  1  0  0  0  0
 41 42  1  0  0  0  0
 43 44  1  0  0  0  0
 44 45  2  0  0  0  0
 44 46  1  0  0  0  0
 46 47  1  0  0  0  0
 46 48  1  0  0  0  0
M  END
>  <minimizedAffinity>
-5.45986032

$$$$
