
 OpenBabel03242518173D

 24 25  0  0  0  0  0  0  0  0999 V2000
   46.6030   33.0390   46.3090 C   0  0  0  0  0  0  0  0  0  0  0  0
   47.3760   32.3660   45.8520 H   0  0  0  0  0  0  0  0  0  0  0  0
   47.0640   33.7640   46.9990 H   0  0  0  0  0  0  0  0  0  0  0  0
   45.6970   32.1500   47.1020 C   0  0  0  0  0  3  0  0  0  0  0  0
   45.8920   32.3850   48.5770 C   0  0  0  0  0  3  0  0  0  0  0  0
   46.9670   32.4340   48.7760 H   0  0  0  0  0  0  0  0  0  0  0  0
   45.1680   31.3660   49.4180 C   0  0  0  0  0  3  0  0  0  0  0  0
   45.6350   31.3900   50.4310 H   0  0  0  0  0  0  0  0  0  0  0  0
   45.2990   30.0770   48.9400 O   0  0  0  0  0  0  0  0  0  0  0  0
   44.8890   29.9330   47.6290 C   0  0  0  0  0  3  0  0  0  0  0  0
   43.9200   30.4220   47.3930 H   0  0  0  0  0  0  0  0  0  0  0  0
   45.9140   30.6830   46.7680 C   0  0  0  0  0  3  0  0  0  0  0  0
   46.9560   30.4450   47.0870 H   0  0  0  0  0  0  0  0  0  0  0  0
   44.3880   35.4980   44.7600 C   0  0  0  0  0  0  0  0  0  0  0  0
   44.1950   35.0120   43.4600 C   0  0  0  0  0  0  0  0  0  0  0  0
   44.8270   33.8380   43.1190 C   0  0  0  0  0  0  0  0  0  0  0  0
   45.6010   33.2050   44.0360 N   0  0  0  0  0  0  0  0  0  0  0  0
   45.7670   33.6960   45.2720 C   0  0  0  0  0  0  0  0  0  0  0  0
   45.1620   34.8420   45.6380 N   0  0  0  0  0  0  0  0  0  0  0  0
   43.9210   36.4120   45.0880 H   0  0  0  0  0  0  0  0  0  0  0  0
   44.6600   33.4910   42.1230 H   0  0  0  0  0  0  0  0  0  0  0  0
   43.3590   35.7910   42.6310 N   0  0  0  0  0  0  0  0  0  0  0  0
   42.4140   35.3710   42.4060 H   0  0  0  0  0  0  0  0  0  0  0  0
   43.7650   36.7100   42.3260 H   0  0  0  0  0  0  0  0  0  0  0  0
  1  3  1  0  0  0  0
  1  4  1  0  0  0  0
  2  1  1  0  0  0  0
  4  5  1  0  0  0  0
  5  6  1  0  0  0  0
  5  7  1  0  0  0  0
  7  8  1  0  0  0  0
  9  7  1  0  0  0  0
 10  9  1  0  0  0  0
 11 10  1  0  0  0  0
 12 13  1  0  0  0  0
 12  4  1  0  0  0  0
 12 10  1  0  0  0  0
 14 20  1  0  0  0  0
 14 19  1  0  0  0  0
 15 14  2  0  0  0  0
 16 15  1  0  0  0  0
 16 17  2  0  0  0  0
 17 18  1  0  0  0  0
 18 19  2  0  0  0  0
 18  1  1  0  0  0  0
 21 16  1  0  0  0  0
 22 15  1  0  0  0  0
 23 22  1  0  0  0  0
 24 22  1  0  0  0  0
M  END
>  <minimizedAffinity>
-4.4440999

>  <minimizedRMSD>
1.66873538

$$$$
