REMARK  Name = 
REMARK  3 active torsions:
REMARK  status: ('A' for Active; 'I' for Inactive)
REMARK    1  A    between atoms: C_2  and  N_7
REMARK    2  A    between atoms: C_5  and  C_8
REMARK    3  A    between atoms: C_8  and  C_15
REMARK                            x       y       z     vdW  Elec       q    Type
REMARK                         _______ _______ _______ _____ _____    ______ ____
ROOT
ATOM      1  C   UNL     1      45.940  33.059  46.567  0.00  0.00    +0.000 C 
ATOM      2  H   UNL     1      46.840  32.435  46.326  0.00  0.00    +0.000 HD
ATOM      3  H   UNL     1      46.106  33.665  47.472  0.00  0.00    +0.000 HD
ENDROOT
BRANCH   1   4
ATOM      4  C   UNL     1      44.831  32.094  46.848  0.00  0.00    +0.000 C 
ATOM      5  C   UNL     1      45.184  31.216  48.020  0.00  0.00    +0.000 C 
ATOM      6  H   UNL     1      46.218  30.882  47.899  0.00  0.00    +0.000 HD
ATOM      7  C   UNL     1      44.203  30.089  48.206  0.00  0.00    +0.000 C 
ATOM      8  H   UNL     1      44.708  29.317  48.833  0.00  0.00    +0.000 HD
ATOM      9  O   UNL     1      43.848  29.477  47.019  0.00  0.00    +0.000 OA
ATOM     10  C   UNL     1      43.337  30.355  46.082  0.00  0.00    +0.000 C 
ATOM     11  H   UNL     1      42.585  31.068  46.481  0.00  0.00    +0.000 HD
ATOM     12  C   UNL     1      44.505  31.241  45.632  0.00  0.00    +0.000 C 
ATOM     13  H   UNL     1      45.415  30.631  45.429  0.00  0.00    +0.000 HD
ENDBRANCH   1   4
BRANCH   1  18
ATOM     14  C   UNL     1      44.419  35.807  44.699  0.00  0.00    +0.000 A 
ATOM     15  C   UNL     1      44.672  35.489  43.358  0.00  0.00    +0.000 A 
ATOM     16  C   UNL     1      45.365  34.328  43.099  0.00  0.00    +0.000 A 
ATOM     17  N   UNL     1      45.772  33.548  44.132  0.00  0.00    +0.000 NA
ATOM     18  C   UNL     1      45.515  33.880  45.405  0.00  0.00    +0.000 A 
ATOM     19  N   UNL     1      44.839  35.008  45.693  0.00  0.00    +0.000 NA
ATOM     20  H   UNL     1      43.882  36.701  44.968  0.00  0.00    +0.000 HD
ATOM     21  H   UNL     1      45.542  34.111  42.069  0.00  0.00    +0.000 HD
BRANCH  15  22
ATOM     22  N   UNL     1      44.179  36.407  42.406  0.00  0.00    +0.000 N 
ATOM     23  H   UNL     1      43.361  36.072  41.824  0.00  0.00    +0.000 HD
ATOM     24  H   UNL     1      44.678  37.330  42.377  0.00  0.00    +0.000 HD
ENDBRANCH  15  22
ENDBRANCH   1  18
TORSDOF 3
