
 OpenBabel03252507363D

 30 33  0  0  0  0  0  0  0  0999 V2000
   47.3130   34.5690   42.9780 C   0  0  0  0  0  0  0  0  0  0  0  0
   47.2080   33.5610   43.9680 C   0  0  0  0  0  0  0  0  0  0  0  0
   46.0470   33.5460   44.7400 C   0  0  0  0  0  0  0  0  0  0  0  0
   45.1070   34.4690   44.5110 N   0  0  0  0  0  0  0  0  0  0  0  0
   45.2290   35.4230   43.5590 C   0  0  0  0  0  0  0  0  0  0  0  0
   46.3280   35.4590   42.8070 N   0  0  0  0  0  0  0  0  0  0  0  0
   47.9580   32.8220   44.1540 H   0  0  0  0  0  0  0  0  0  0  0  0
   44.4510   36.1440   43.4080 H   0  0  0  0  0  0  0  0  0  0  0  0
   45.5170   33.0670   47.0550 C   0  0  0  0  0  0  0  0  0  0  0  0
   45.7970   32.5700   45.7970 C   0  0  0  0  0  0  0  0  0  0  0  0
   45.8210   31.2050   45.6170 C   0  0  0  0  0  0  0  0  0  0  0  0
   45.5790   30.3240   46.6450 C   0  0  0  0  0  0  0  0  0  0  0  0
   45.5490   28.9690   46.7110 N   0  0  0  0  0  0  0  0  0  0  0  0
   45.2550   28.6100   47.9940 C   0  0  0  0  0  0  0  0  0  0  0  0
   45.1070   29.7460   48.7010 N   0  0  0  0  0  0  0  0  0  0  0  0
   45.2990   30.8130   47.9020 C   0  0  0  0  0  0  0  0  0  0  0  0
   45.2700   32.1730   48.1020 C   0  0  0  0  0  0  0  0  0  0  0  0
   45.4700   34.1190   47.3190 H   0  0  0  0  0  0  0  0  0  0  0  0
   46.0430   30.8800   44.6220 H   0  0  0  0  0  0  0  0  0  0  0  0
   45.7360   28.3890   45.8560 H   0  0  0  0  0  0  0  0  0  0  0  0
   45.1980   27.5470   48.1870 H   0  0  0  0  0  0  0  0  0  0  0  0
   45.0470   32.5150   49.1020 H   0  0  0  0  0  0  0  0  0  0  0  0
   48.4800   34.5770   42.2090 O   0  0  0  0  0  0  0  0  0  0  0  0
   48.4790   34.4660   40.8460 C   0  0  0  0  0  0  0  0  0  0  0  0
   48.2560   33.2160   40.3510 N   0  0  0  0  0  0  0  0  0  0  0  0
   48.2890   33.2920   38.9970 C   0  0  0  0  0  0  0  0  0  0  0  0
   48.1420   32.4370   38.3210 H   0  0  0  0  0  0  0  0  0  0  0  0
   48.5310   34.5730   38.6680 N   0  0  0  0  0  0  0  0  0  0  0  0
   48.6120   34.9410   37.6960 H   0  0  0  0  0  0  0  0  0  0  0  0
   48.6430   35.2730   39.7860 N   0  0  0  0  0  0  0  0  0  0  0  0
  1  2  1  0  0  0  0
  2  7  1  0  0  0  0
  2  3  2  0  0  0  0
  3 10  1  0  0  0  0
  4  3  1  0  0  0  0
  5  4  2  0  0  0  0
  6  1  2  0  0  0  0
  6  5  1  0  0  0  0
  8  5  1  0  0  0  0
  9 18  1  0  0  0  0
  9 17  1  0  0  0  0
 10  9  2  0  0  0  0
 11 10  1  0  0  0  0
 11 12  2  0  0  0  0
 12 13  1  0  0  0  0
 12 16  1  0  0  0  0
 13 14  1  0  0  0  0
 14 21  1  0  0  0  0
 14 15  2  0  0  0  0
 16 17  2  0  0  0  0
 16 15  1  0  0  0  0
 17 22  1  0  0  0  0
 19 11  1  0  0  0  0
 20 13  1  0  0  0  0
 23  1  1  0  0  0  0
 24 23  1  0  0  0  0
 25 24  1  0  0  0  0
 26 25  2  0  0  0  0
 27 26  1  0  0  0  0
 28 26  1  0  0  0  0
 28 30  1  0  0  0  0
 29 28  1  0  0  0  0
 30 24  2  0  0  0  0
M  END
>  <minimizedAffinity>
-5.2364893

>  <minimizedRMSD>
7.82371998

$$$$
