REMARK  Name = 
REMARK  4 active torsions:
REMARK  status: ('A' for Active; 'I' for Inactive)
REMARK    1  A    between atoms: C_2  and  C_14
REMARK    2  A    between atoms: C_3  and  S_16
REMARK    3  A    between atoms: S_16  and  C_18
REMARK    4  A    between atoms: C_22  and  C_37
REMARK                            x       y       z     vdW  Elec       q    Type
REMARK                         _______ _______ _______ _____ _____    ______ ____
ROOT
ATOM      1  C   UNL     1      47.533  32.675  44.270  0.00  0.00    +0.000 A 
ATOM      2  C   UNL     1      46.840  33.646  43.553  0.00  0.00    +0.000 A 
ATOM      3  C   UNL     1      45.784  34.366  44.094  0.00  0.00    +0.000 A 
ATOM      4  C   UNL     1      45.389  34.114  45.419  0.00  0.00    +0.000 A 
ATOM      5  N   UNL     1      44.444  34.597  46.248  0.00  0.00    +0.000 N 
ATOM      6  C   UNL     1      44.524  33.972  47.435  0.00  0.00    +0.000 A 
ATOM      7  N   UNL     1      45.532  33.096  47.325  0.00  0.00    +0.000 NA
ATOM      8  C   UNL     1      46.092  33.151  46.098  0.00  0.00    +0.000 A 
ATOM      9  C   UNL     1      47.148  32.416  45.590  0.00  0.00    +0.000 A 
ATOM     10  H   UNL     1      48.344  32.152  43.789  0.00  0.00    +0.000 HD
ATOM     11  H   UNL     1      43.759  35.347  45.992  0.00  0.00    +0.000 HD
ATOM     12  H   UNL     1      43.913  34.123  48.322  0.00  0.00    +0.000 HD
ATOM     13  H   UNL     1      47.670  31.670  46.161  0.00  0.00    +0.000 HD
ENDROOT
BRANCH   2  18
ATOM     14  C   UNL     1      47.069  33.427  39.908  0.00  0.00    +0.000 A 
ATOM     15  C   UNL     1      47.972  34.436  39.580  0.00  0.00    +0.000 A 
ATOM     16  C   UNL     1      48.501  35.192  40.633  0.00  0.00    +0.000 A 
ATOM     17  N   UNL     1      48.119  34.919  41.927  0.00  0.00    +0.000 NA
ATOM     18  C   UNL     1      47.236  33.923  42.173  0.00  0.00    +0.000 A 
ATOM     19  N   UNL     1      46.687  33.152  41.193  0.00  0.00    +0.000 NA
ATOM     20  H   UNL     1      46.592  32.773  39.181  0.00  0.00    +0.000 HD
ATOM     21  H   UNL     1      48.219  34.587  38.556  0.00  0.00    +0.000 HD
ATOM     22  H   UNL     1      49.200  35.977  40.411  0.00  0.00    +0.000 HD
ENDBRANCH   2  18
BRANCH   3  23
ATOM     23  S   UNL     1      44.915  35.596  43.169  0.00  0.00    +0.000 S 
BRANCH  23  25
ATOM     24  N   UNL     1      42.324  35.619  42.697  0.00  0.00    +0.000 NA
ATOM     25  C   UNL     1      43.517  34.939  42.217  0.00  0.00    +0.000 C 
ATOM     26  C   UNL     1      43.804  35.308  40.760  0.00  0.00    +0.000 C 
ATOM     27  O   UNL     1      42.681  35.316  39.960  0.00  0.00    +0.000 OA
ATOM     28  C   UNL     1      41.553  34.767  40.525  0.00  0.00    +0.000 C 
ATOM     29  C   UNL     1      41.218  35.505  41.793  0.00  0.00    +0.000 C 
ATOM     30  H   UNL     1      42.574  36.631  42.910  0.00  0.00    +0.000 HD
ATOM     31  H   UNL     1      43.385  33.854  42.317  0.00  0.00    +0.000 HD
ATOM     32  H   UNL     1      44.457  34.563  40.314  0.00  0.00    +0.000 HD
ATOM     33  H   UNL     1      44.305  36.298  40.709  0.00  0.00    +0.000 HD
ATOM     34  H   UNL     1      40.729  34.857  39.823  0.00  0.00    +0.000 HD
ATOM     35  H   UNL     1      41.788  33.722  40.806  0.00  0.00    +0.000 HD
ATOM     36  H   UNL     1      40.864  36.544  41.573  0.00  0.00    +0.000 HD
BRANCH  29  37
ATOM     37  C   UNL     1      40.066  34.794  42.423  0.00  0.00    +0.000 A 
ATOM     38  N   UNL     1      39.521  33.633  41.957  0.00  0.00    +0.000 NA
ATOM     39  C   UNL     1      38.498  33.309  42.800  0.00  0.00    +0.000 A 
ATOM     40  H   UNL     1      37.904  32.427  42.648  0.00  0.00    +0.000 HD
ATOM     41  N   UNL     1      38.410  34.246  43.764  0.00  0.00    +0.000 N 
ATOM     42  H   UNL     1      37.711  34.249  44.548  0.00  0.00    +0.000 HD
ATOM     43  N   UNL     1      39.376  35.145  43.517  0.00  0.00    +0.000 NA
ENDBRANCH  29  37
ENDBRANCH  23  25
ENDBRANCH   3  23
TORSDOF 4
