
 OpenBabel03252509123D

 30 33  0  0  0  0  0  0  0  0999 V2000
   47.5060   32.1960   43.9450 C   0  0  0  0  0  0  0  0  0  0  0  0
   46.9800   33.3890   43.4520 C   0  0  0  0  0  0  0  0  0  0  0  0
   46.1130   34.1710   44.1630 C   0  0  0  0  0  0  0  0  0  0  0  0
   45.7260   33.7640   45.4510 C   0  0  0  0  0  0  0  0  0  0  0  0
   44.9120   34.2730   46.4160 N   0  0  0  0  0  0  0  0  0  0  0  0
   44.9200   33.4400   47.4740 C   0  0  0  0  0  0  0  0  0  0  0  0
   45.7470   32.4190   47.1450 N   0  0  0  0  0  0  0  0  0  0  0  0
   46.2510   32.5930   45.9170 C   0  0  0  0  0  0  0  0  0  0  0  0
   47.1250   31.7860   45.2250 C   0  0  0  0  0  0  0  0  0  0  0  0
   48.1920   31.5650   43.4010 H   0  0  0  0  0  0  0  0  0  0  0  0
   44.3940   35.1760   46.2780 H   0  0  0  0  0  0  0  0  0  0  0  0
   44.3190   33.6990   48.3350 H   0  0  0  0  0  0  0  0  0  0  0  0
   47.5120   30.8740   45.6310 H   0  0  0  0  0  0  0  0  0  0  0  0
   47.1970   33.6360   39.7900 C   0  0  0  0  0  0  0  0  0  0  0  0
   48.1260   34.6570   39.6050 C   0  0  0  0  0  0  0  0  0  0  0  0
   48.6710   35.2550   40.7400 C   0  0  0  0  0  0  0  0  0  0  0  0
   48.2790   34.8210   41.9790 N   0  0  0  0  0  0  0  0  0  0  0  0
   47.3760   33.8280   42.1160 C   0  0  0  0  0  0  0  0  0  0  0  0
   46.8360   33.2360   41.0290 N   0  0  0  0  0  0  0  0  0  0  0  0
   46.7520   33.1460   38.9340 H   0  0  0  0  0  0  0  0  0  0  0  0
   48.4200   34.9820   38.6310 H   0  0  0  0  0  0  0  0  0  0  0  0
   49.3930   36.0490   40.6600 H   0  0  0  0  0  0  0  0  0  0  0  0
   45.4500   35.6940   43.5300 S   0  0  0  0  0  0  0  0  0  0  0  0
   43.9730   35.4600   42.5650 C   0  0  0  0  0  0  0  0  0  0  0  0
   43.9370   35.1370   41.2390 N   0  0  0  0  0  0  0  0  0  0  0  0
   42.6380   35.0450   40.8730 C   0  0  0  0  0  0  0  0  0  0  0  0
   42.3810   34.7970   39.8550 H   0  0  0  0  0  0  0  0  0  0  0  0
   41.8550   35.3050   41.9550 N   0  0  0  0  0  0  0  0  0  0  0  0
   40.8100   35.2990   41.9350 H   0  0  0  0  0  0  0  0  0  0  0  0
   42.6800   35.5460   42.9370 N   0  0  0  0  0  0  0  0  0  0  0  0
  1  9  1  0  0  0  0
  2  1  2  0  0  0  0
  2  3  1  0  0  0  0
  3  4  2  0  0  0  0
  4  8  1  0  0  0  0
  4  5  1  0  0  0  0
  5  6  1  0  0  0  0
  6 12  1  0  0  0  0
  7  6  2  0  0  0  0
  8  7  1  0  0  0  0
  9 13  1  0  0  0  0
  9  8  2  0  0  0  0
 10  1  1  0  0  0  0
 11  5  1  0  0  0  0
 14 19  1  0  0  0  0
 15 14  2  0  0  0  0
 15 16  1  0  0  0  0
 16 17  2  0  0  0  0
 17 18  1  0  0  0  0
 18  2  1  0  0  0  0
 19 18  2  0  0  0  0
 20 14  1  0  0  0  0
 21 15  1  0  0  0  0
 22 16  1  0  0  0  0
 23  3  1  0  0  0  0
 24 30  2  0  0  0  0
 24 23  1  0  0  0  0
 25 24  1  0  0  0  0
 26 25  2  0  0  0  0
 26 28  1  0  0  0  0
 27 26  1  0  0  0  0
 28 30  1  0  0  0  0
 29 28  1  0  0  0  0
M  END
>  <minimizedAffinity>
-5.02915716

>  <minimizedRMSD>
1.59530663

$$$$
