
 OpenBabel03242519183D

 40 43  0  0  1  0  0  0  0  0999 V2000
   37.1500   28.9910   42.3300 C   0  0  0  0  0  0  0  0  0  0  0  0
   36.2090   28.2500   41.6510 C   0  0  0  0  0  0  0  0  0  0  0  0
   35.5500   28.7130   40.5030 C   0  0  0  0  0  0  0  0  0  0  0  0
   35.9050   29.9650   40.0960 N   0  0  0  0  0  0  0  0  0  0  0  0
   36.8220   30.6780   40.7640 C   0  0  0  0  0  0  0  0  0  0  0  0
   37.4280   30.2010   41.8560 N   0  0  0  0  0  0  0  0  0  0  0  0
   35.9840   27.2650   42.0390 H   0  0  0  0  0  0  0  0  0  0  0  0
   34.8180   28.1030   39.9970 H   0  0  0  0  0  0  0  0  0  0  0  0
   37.2360   32.0440   40.3030 C   0  0  2  0  0  0  0  0  0  0  0  0
   37.2950   32.3160   38.8330 C   0  0  0  0  0  0  0  0  0  0  0  0
   38.5780   32.1510   39.6670 C   0  0  1  0  0  0  0  0  0  0  0  0
   36.9930   32.8240   41.0520 H   0  0  0  0  0  0  0  0  0  0  0  0
   37.0070   31.4700   38.1680 H   0  0  0  0  0  0  0  0  0  0  0  0
   36.9970   33.3190   38.5050 H   0  0  0  0  0  0  0  0  0  0  0  0
   39.1560   31.2460   39.4200 H   0  0  0  0  0  0  0  0  0  0  0  0
   39.3500   33.4180   39.7710 C   0  0  0  0  0  0  0  0  0  0  0  0
   39.0400   34.5180   40.4570 N   0  0  0  0  0  0  0  0  0  0  0  0
   40.0000   35.4730   40.3070 C   0  0  0  0  0  0  0  0  0  0  0  0
   39.8030   36.3930   40.8410 H   0  0  0  0  0  0  0  0  0  0  0  0
   40.9240   34.9150   39.4940 N   0  0  0  0  0  0  0  0  0  0  0  0
   41.7510   35.5170   39.2660 H   0  0  0  0  0  0  0  0  0  0  0  0
   40.5290   33.6860   39.1790 N   0  0  0  0  0  0  0  0  0  0  0  0
   37.8200   28.4870   43.5010 C   0  0  0  0  0  0  0  0  0  0  0  0
   37.0500   28.3750   44.3190 H   0  0  0  0  0  0  0  0  0  0  0  0
   38.5650   29.1940   43.9170 H   0  0  0  0  0  0  0  0  0  0  0  0
   38.3890   27.1480   43.2610 C   0  0  0  0  0  0  0  0  0  0  0  0
   38.0930   26.7560   42.2460 H   0  0  0  0  0  0  0  0  0  0  0  0
   38.0350   26.3510   43.9640 H   0  0  0  0  0  0  0  0  0  0  0  0
   39.6630   24.4600   43.3340 Cl  0  0  0  0  0  0  0  0  0  0  0  0
   40.5840   25.9420   43.3100 C   0  0  0  0  0  0  0  0  0  0  0  0
   39.8860   27.1200   43.2780 C   0  0  0  0  0  0  0  0  0  0  0  0
   40.6100   28.2930   43.2580 C   0  0  0  0  0  0  0  0  0  0  0  0
   41.9900   28.2800   43.2730 C   0  0  0  0  0  0  0  0  0  0  0  0
   42.6840   27.0670   43.3060 C   0  0  0  0  0  0  0  0  0  0  0  0
   41.9460   25.8930   43.3250 C   0  0  0  0  0  0  0  0  0  0  0  0
   40.1220   29.2580   43.2320 H   0  0  0  0  0  0  0  0  0  0  0  0
   42.6110   29.1410   43.2590 H   0  0  0  0  0  0  0  0  0  0  0  0
   43.7650   27.0300   43.3180 H   0  0  0  0  0  0  0  0  0  0  0  0
   42.5530   24.6310   43.3590 O   0  0  0  0  0  0  0  0  0  0  0  0
   43.2010   24.3960   42.6150 H   0  0  0  0  0  0  0  0  0  0  0  0
  1 23  1  0  0  0  0
  2  7  1  0  0  0  0
  2  1  2  0  0  0  0
  3  2  1  0  0  0  0
  4  3  2  0  0  0  0
  4  5  1  0  0  0  0
  5  6  2  0  0  0  0
  6  1  1  0  0  0  0
  8  3  1  0  0  0  0
  9  5  1  0  0  0  0
  9 12  1  1  0  0  0
 10 11  1  0  0  0  0
 10  9  1  0  0  0  0
 11 15  1  6  0  0  0
 11 16  1  0  0  0  0
 11  9  1  0  0  0  0
 13 10  1  0  0  0  0
 14 10  1  0  0  0  0
 16 17  1  0  0  0  0
 18 17  2  0  0  0  0
 18 19  1  0  0  0  0
 20 18  1  0  0  0  0
 21 20  1  0  0  0  0
 22 20  1  0  0  0  0
 22 16  2  0  0  0  0
 23 25  1  0  0  0  0
 23 24  1  0  0  0  0
 26 31  1  0  0  0  0
 26 23  1  0  0  0  0
 26 28  1  0  0  0  0
 27 26  1  0  0  0  0
 30 35  1  0  0  0  0
 30 29  1  0  0  0  0
 31 30  2  0  0  0  0
 32 33  2  0  0  0  0
 32 31  1  0  0  0  0
 33 34  1  0  0  0  0
 34 38  1  0  0  0  0
 34 35  2  0  0  0  0
 35 39  1  0  0  0  0
 36 32  1  0  0  0  0
 37 33  1  0  0  0  0
 40 39  1  0  0  0  0
M  END
>  <minimizedAffinity>
-6.63518906

$$$$

 OpenBabel03242519183D

 40 43  0  0  1  0  0  0  0  0999 V2000
   37.5120   29.9640   41.7750 C   0  0  0  0  0  0  0  0  0  0  0  0
   36.3980   30.2480   41.0170 C   0  0  0  0  0  0  0  0  0  0  0  0
   36.4380   31.0510   39.8670 C   0  0  0  0  0  0  0  0  0  0  0  0
   37.6690   31.5400   39.5440 N   0  0  0  0  0  0  0  0  0  0  0  0
   38.7460   31.2570   40.2890 C   0  0  0  0  0  0  0  0  0  0  0  0
   38.6670   30.4880   41.3800 N   0  0  0  0  0  0  0  0  0  0  0  0
   35.4590   29.8200   41.3400 H   0  0  0  0  0  0  0  0  0  0  0  0
   35.5450   31.2510   39.2980 H   0  0  0  0  0  0  0  0  0  0  0  0
   40.1070   31.7710   39.9210 C   0  0  2  0  0  0  0  0  0  0  0  0
   40.8970   32.5080   40.9560 C   0  0  0  0  0  0  0  0  0  0  0  0
   40.2410   33.2460   39.7760 C   0  0  1  0  0  0  0  0  0  0  0  0
   40.5770   31.1610   39.1230 H   0  0  0  0  0  0  0  0  0  0  0  0
   40.4150   32.6140   41.9540 H   0  0  0  0  0  0  0  0  0  0  0  0
   41.9830   32.3510   40.9510 H   0  0  0  0  0  0  0  0  0  0  0  0
   39.4200   33.9170   40.0720 H   0  0  0  0  0  0  0  0  0  0  0  0
   41.2460   33.8110   38.8350 C   0  0  0  0  0  0  0  0  0  0  0  0
   41.8710   33.1950   37.8310 N   0  0  0  0  0  0  0  0  0  0  0  0
   42.7230   34.0470   37.1930 C   0  0  0  0  0  0  0  0  0  0  0  0
   43.2620   33.6040   36.3660 H   0  0  0  0  0  0  0  0  0  0  0  0
   42.5990   35.2220   37.8490 N   0  0  0  0  0  0  0  0  0  0  0  0
   43.1920   36.0080   37.4890 H   0  0  0  0  0  0  0  0  0  0  0  0
   41.7140   35.0730   38.8280 N   0  0  0  0  0  0  0  0  0  0  0  0
   37.4450   29.1270   42.9460 C   0  0  0  0  0  0  0  0  0  0  0  0
   36.5430   28.4550   42.8400 H   0  0  0  0  0  0  0  0  0  0  0  0
   37.2580   29.6950   43.8790 H   0  0  0  0  0  0  0  0  0  0  0  0
   38.6250   28.2490   43.0490 C   0  0  0  0  0  0  0  0  0  0  0  0
   39.0160   28.2160   44.1050 H   0  0  0  0  0  0  0  0  0  0  0  0
   39.5130   28.5790   42.4500 H   0  0  0  0  0  0  0  0  0  0  0  0
   40.6160   26.2340   43.9570 Cl  0  0  0  0  0  0  0  0  0  0  0  0
   39.1910   25.8100   43.0440 C   0  0  0  0  0  0  0  0  0  0  0  0
   38.3470   26.8250   42.6810 C   0  0  0  0  0  0  0  0  0  0  0  0
   37.2200   26.4930   41.9600 C   0  0  0  0  0  0  0  0  0  0  0  0
   36.9530   25.1840   41.6160 C   0  0  0  0  0  0  0  0  0  0  0  0
   37.8270   24.1610   41.9960 C   0  0  0  0  0  0  0  0  0  0  0  0
   38.9570   24.5060   42.7220 C   0  0  0  0  0  0  0  0  0  0  0  0
   36.5120   27.2470   41.6400 H   0  0  0  0  0  0  0  0  0  0  0  0
   36.1070   24.8550   41.0640 H   0  0  0  0  0  0  0  0  0  0  0  0
   37.6400   23.1280   41.7390 H   0  0  0  0  0  0  0  0  0  0  0  0
   39.8910   23.5520   43.1470 O   0  0  0  0  0  0  0  0  0  0  0  0
   39.5580   22.7900   43.7280 H   0  0  0  0  0  0  0  0  0  0  0  0
  1 23  1  0  0  0  0
  2  7  1  0  0  0  0
  2  1  2  0  0  0  0
  3  2  1  0  0  0  0
  4  3  2  0  0  0  0
  4  5  1  0  0  0  0
  5  6  2  0  0  0  0
  6  1  1  0  0  0  0
  8  3  1  0  0  0  0
  9 12  1  6  0  0  0
  9  5  1  0  0  0  0
  9 10  1  0  0  0  0
 10 13  1  0  0  0  0
 11  9  1  0  0  0  0
 11 15  1  1  0  0  0
 11 10  1  0  0  0  0
 14 10  1  0  0  0  0
 16 11  1  0  0  0  0
 17 16  1  0  0  0  0
 18 17  2  0  0  0  0
 18 20  1  0  0  0  0
 19 18  1  0  0  0  0
 20 22  1  0  0  0  0
 21 20  1  0  0  0  0
 22 16  2  0  0  0  0
 23 26  1  0  0  0  0
 23 25  1  0  0  0  0
 24 23  1  0  0  0  0
 26 27  1  0  0  0  0
 28 26  1  0  0  0  0
 30 29  1  0  0  0  0
 31 30  2  0  0  0  0
 31 26  1  0  0  0  0
 32 31  1  0  0  0  0
 33 32  2  0  0  0  0
 33 34  1  0  0  0  0
 34 35  2  0  0  0  0
 35 30  1  0  0  0  0
 35 39  1  0  0  0  0
 36 32  1  0  0  0  0
 37 33  1  0  0  0  0
 38 34  1  0  0  0  0
 39 40  1  0  0  0  0
M  END
>  <minimizedAffinity>
-6.57042265

$$$$

 OpenBabel03242519183D

 40 43  0  0  1  0  0  0  0  0999 V2000
   36.9650   29.3000   42.0120 C   0  0  0  0  0  0  0  0  0  0  0  0
   35.9090   28.6460   41.4180 C   0  0  0  0  0  0  0  0  0  0  0  0
   35.2840   29.1040   40.2490 C   0  0  0  0  0  0  0  0  0  0  0  0
   35.7970   30.2560   39.7300 N   0  0  0  0  0  0  0  0  0  0  0  0
   36.8250   30.8840   40.3170 C   0  0  0  0  0  0  0  0  0  0  0  0
   37.3940   30.4150   41.4330 N   0  0  0  0  0  0  0  0  0  0  0  0
   35.5620   27.7370   41.8920 H   0  0  0  0  0  0  0  0  0  0  0  0
   34.4590   28.5650   39.8110 H   0  0  0  0  0  0  0  0  0  0  0  0
   37.4100   32.1360   39.7340 C   0  0  2  0  0  0  0  0  0  0  0  0
   37.8900   32.1100   38.3180 C   0  0  0  0  0  0  0  0  0  0  0  0
   38.8790   32.1330   39.4960 C   0  0  1  0  0  0  0  0  0  0  0  0
   37.0010   33.0470   40.2170 H   0  0  0  0  0  0  0  0  0  0  0  0
   37.7630   31.1440   37.7780 H   0  0  0  0  0  0  0  0  0  0  0  0
   37.7390   33.0240   37.7290 H   0  0  0  0  0  0  0  0  0  0  0  0
   39.4640   31.2060   39.6040 H   0  0  0  0  0  0  0  0  0  0  0  0
   39.6460   33.4060   39.5650 C   0  0  0  0  0  0  0  0  0  0  0  0
   39.3520   34.5080   40.2570 N   0  0  0  0  0  0  0  0  0  0  0  0
   40.2990   35.4690   40.0660 C   0  0  0  0  0  0  0  0  0  0  0  0
   40.1160   36.3910   40.6020 H   0  0  0  0  0  0  0  0  0  0  0  0
   41.1960   34.9130   39.2220 N   0  0  0  0  0  0  0  0  0  0  0  0
   42.0090   35.5200   38.9590 H   0  0  0  0  0  0  0  0  0  0  0  0
   40.7990   33.6810   38.9280 N   0  0  0  0  0  0  0  0  0  0  0  0
   37.5960   28.8010   43.2080 C   0  0  0  0  0  0  0  0  0  0  0  0
   37.2170   29.4130   44.0790 H   0  0  0  0  0  0  0  0  0  0  0  0
   38.6930   28.9550   43.2200 H   0  0  0  0  0  0  0  0  0  0  0  0
   37.2210   27.4000   43.4710 C   0  0  0  0  0  0  0  0  0  0  0  0
   36.4020   27.0610   42.7750 H   0  0  0  0  0  0  0  0  0  0  0  0
   36.7960   27.2080   44.4890 H   0  0  0  0  0  0  0  0  0  0  0  0
   36.6030   24.9770   41.8590 Cl  0  0  0  0  0  0  0  0  0  0  0  0
   38.1790   25.2800   42.5430 C   0  0  0  0  0  0  0  0  0  0  0  0
   38.3430   26.4310   43.2690 C   0  0  0  0  0  0  0  0  0  0  0  0
   39.5870   26.6730   43.8100 C   0  0  0  0  0  0  0  0  0  0  0  0
   40.6290   25.7870   43.6300 C   0  0  0  0  0  0  0  0  0  0  0  0
   40.4420   24.6180   42.8870 C   0  0  0  0  0  0  0  0  0  0  0  0
   39.1870   24.3840   42.3460 C   0  0  0  0  0  0  0  0  0  0  0  0
   39.7850   27.5630   44.3940 H   0  0  0  0  0  0  0  0  0  0  0  0
   41.6110   25.9090   44.0160 H   0  0  0  0  0  0  0  0  0  0  0  0
   41.2430   23.9090   42.7310 H   0  0  0  0  0  0  0  0  0  0  0  0
   38.9030   23.2410   41.5870 O   0  0  0  0  0  0  0  0  0  0  0  0
   39.4650   23.0700   40.7600 H   0  0  0  0  0  0  0  0  0  0  0  0
  1 23  1  0  0  0  0
  2  7  1  0  0  0  0
  2  1  2  0  0  0  0
  3  2  1  0  0  0  0
  4  3  2  0  0  0  0
  4  5  1  0  0  0  0
  5  6  2  0  0  0  0
  6  1  1  0  0  0  0
  8  3  1  0  0  0  0
  9 12  1  1  0  0  0
  9  5  1  0  0  0  0
 10 11  1  0  0  0  0
 10  9  1  0  0  0  0
 11 16  1  0  0  0  0
 11 15  1  1  0  0  0
 11  9  1  0  0  0  0
 13 10  1  0  0  0  0
 14 10  1  0  0  0  0
 16 17  1  0  0  0  0
 18 17  2  0  0  0  0
 18 19  1  0  0  0  0
 20 18  1  0  0  0  0
 21 20  1  0  0  0  0
 22 20  1  0  0  0  0
 22 16  2  0  0  0  0
 23 25  1  0  0  0  0
 23 26  1  0  0  0  0
 23 24  1  0  0  0  0
 26 28  1  0  0  0  0
 27 26  1  0  0  0  0
 29 30  1  0  0  0  0
 30 31  1  0  0  0  0
 31 26  1  0  0  0  0
 31 32  2  0  0  0  0
 32 36  1  0  0  0  0
 33 32  1  0  0  0  0
 33 37  1  0  0  0  0
 34 33  2  0  0  0  0
 35 30  2  0  0  0  0
 35 34  1  0  0  0  0
 38 34  1  0  0  0  0
 39 35  1  0  0  0  0
 40 39  1  0  0  0  0
M  END
>  <minimizedAffinity>
-6.40400743

$$$$

 OpenBabel03242519183D

 40 43  0  0  1  0  0  0  0  0999 V2000
   36.4490   28.6400   41.2010 C   0  0  0  0  0  0  0  0  0  0  0  0
   36.0000   27.9740   40.0820 C   0  0  0  0  0  0  0  0  0  0  0  0
   35.8680   28.5870   38.8270 C   0  0  0  0  0  0  0  0  0  0  0  0
   36.2170   29.9040   38.7850 N   0  0  0  0  0  0  0  0  0  0  0  0
   36.6520   30.5430   39.8800 C   0  0  0  0  0  0  0  0  0  0  0  0
   36.7630   29.9230   41.0600 N   0  0  0  0  0  0  0  0  0  0  0  0
   35.7450   26.9290   40.1990 H   0  0  0  0  0  0  0  0  0  0  0  0
   35.5140   28.0330   37.9720 H   0  0  0  0  0  0  0  0  0  0  0  0
   37.0620   31.9840   39.8320 C   0  0  2  0  0  0  0  0  0  0  0  0
   37.3060   32.6150   38.4970 C   0  0  0  0  0  0  0  0  0  0  0  0
   38.4710   32.2590   39.4370 C   0  0  1  0  0  0  0  0  0  0  0  0
   36.6870   32.5510   40.7080 H   0  0  0  0  0  0  0  0  0  0  0  0
   37.1480   31.9580   37.6110 H   0  0  0  0  0  0  0  0  0  0  0  0
   37.0100   33.6650   38.3860 H   0  0  0  0  0  0  0  0  0  0  0  0
   39.1170   31.4510   39.0590 H   0  0  0  0  0  0  0  0  0  0  0  0
   39.1660   33.4680   39.9570 C   0  0  0  0  0  0  0  0  0  0  0  0
   40.3000   34.0170   39.5210 N   0  0  0  0  0  0  0  0  0  0  0  0
   40.6190   35.1210   40.2550 C   0  0  0  0  0  0  0  0  0  0  0  0
   41.5330   35.6120   39.9480 H   0  0  0  0  0  0  0  0  0  0  0  0
   39.6290   35.2320   41.1680 N   0  0  0  0  0  0  0  0  0  0  0  0
   39.7100   36.0410   41.8290 H   0  0  0  0  0  0  0  0  0  0  0  0
   38.7640   34.2410   40.9830 N   0  0  0  0  0  0  0  0  0  0  0  0
   36.5860   27.9840   42.4760 C   0  0  0  0  0  0  0  0  0  0  0  0
   37.0030   26.9510   42.2900 H   0  0  0  0  0  0  0  0  0  0  0  0
   35.6160   27.8030   42.9810 H   0  0  0  0  0  0  0  0  0  0  0  0
   37.5490   28.6880   43.3430 C   0  0  0  0  0  0  0  0  0  0  0  0
   37.2080   28.6820   44.4170 H   0  0  0  0  0  0  0  0  0  0  0  0
   37.6820   29.7760   43.1150 H   0  0  0  0  0  0  0  0  0  0  0  0
   39.7920   30.4050   42.4100 Cl  0  0  0  0  0  0  0  0  0  0  0  0
   40.0210   28.7600   42.9470 C   0  0  0  0  0  0  0  0  0  0  0  0
   38.9110   28.0670   43.3530 C   0  0  0  0  0  0  0  0  0  0  0  0
   39.0880   26.7680   43.7780 C   0  0  0  0  0  0  0  0  0  0  0  0
   40.3390   26.1860   43.7920 C   0  0  0  0  0  0  0  0  0  0  0  0
   41.4600   26.9100   43.3730 C   0  0  0  0  0  0  0  0  0  0  0  0
   41.2700   28.2170   42.9480 C   0  0  0  0  0  0  0  0  0  0  0  0
   38.2540   26.1640   44.1120 H   0  0  0  0  0  0  0  0  0  0  0  0
   40.5500   25.1940   44.1060 H   0  0  0  0  0  0  0  0  0  0  0  0
   42.4500   26.4770   43.3760 H   0  0  0  0  0  0  0  0  0  0  0  0
   42.3310   29.0200   42.5110 O   0  0  0  0  0  0  0  0  0  0  0  0
   43.1040   29.1740   43.1500 H   0  0  0  0  0  0  0  0  0  0  0  0
  1 23  1  0  0  0  0
  2  7  1  0  0  0  0
  2  1  2  0  0  0  0
  3  2  1  0  0  0  0
  4  3  2  0  0  0  0
  4  5  1  0  0  0  0
  5  6  2  0  0  0  0
  6  1  1  0  0  0  0
  8  3  1  0  0  0  0
  9  5  1  0  0  0  0
  9 12  1  1  0  0  0
 10 11  1  0  0  0  0
 10  9  1  0  0  0  0
 11 15  1  6  0  0  0
 11  9  1  0  0  0  0
 11 16  1  0  0  0  0
 13 10  1  0  0  0  0
 14 10  1  0  0  0  0
 16 22  2  0  0  0  0
 17 16  1  0  0  0  0
 17 18  2  0  0  0  0
 18 20  1  0  0  0  0
 19 18  1  0  0  0  0
 20 21  1  0  0  0  0
 22 20  1  0  0  0  0
 23 25  1  0  0  0  0
 23 26  1  0  0  0  0
 24 23  1  0  0  0  0
 26 31  1  0  0  0  0
 26 27  1  0  0  0  0
 28 26  1  0  0  0  0
 29 30  1  0  0  0  0
 30 35  2  0  0  0  0
 30 31  1  0  0  0  0
 31 32  2  0  0  0  0
 32 33  1  0  0  0  0
 32 36  1  0  0  0  0
 33 37  1  0  0  0  0
 34 38  1  0  0  0  0
 34 33  2  0  0  0  0
 35 34  1  0  0  0  0
 39 35  1  0  0  0  0
 39 40  1  0  0  0  0
M  END
>  <minimizedAffinity>
-6.11753798

$$$$

 OpenBabel03242519183D

 40 43  0  0  1  0  0  0  0  0999 V2000
   36.9100   29.1160   41.0950 C   0  0  0  0  0  0  0  0  0  0  0  0
   36.2960   28.4470   40.0600 C   0  0  0  0  0  0  0  0  0  0  0  0
   36.5400   27.0970   39.7670 C   0  0  0  0  0  0  0  0  0  0  0  0
   37.4380   26.4790   40.5870 N   0  0  0  0  0  0  0  0  0  0  0  0
   38.0290   27.1400   41.5930 C   0  0  0  0  0  0  0  0  0  0  0  0
   37.7700   28.4290   41.8380 N   0  0  0  0  0  0  0  0  0  0  0  0
   35.5960   29.0090   39.4560 H   0  0  0  0  0  0  0  0  0  0  0  0
   36.0410   26.6060   38.9480 H   0  0  0  0  0  0  0  0  0  0  0  0
   38.9960   26.4570   42.5130 C   0  0  2  0  0  0  0  0  0  0  0  0
   39.1550   26.9860   43.9040 C   0  0  0  0  0  0  0  0  0  0  0  0
   40.2430   27.2030   42.8370 C   0  0  1  0  0  0  0  0  0  0  0  0
   39.1270   25.3860   42.2560 H   0  0  0  0  0  0  0  0  0  0  0  0
   38.5190   27.8610   44.1690 H   0  0  0  0  0  0  0  0  0  0  0  0
   39.3240   26.2460   44.6970 H   0  0  0  0  0  0  0  0  0  0  0  0
   40.3640   28.2550   42.5330 H   0  0  0  0  0  0  0  0  0  0  0  0
   41.4940   26.4600   43.1470 C   0  0  0  0  0  0  0  0  0  0  0  0
   42.6380   26.9400   43.6340 N   0  0  0  0  0  0  0  0  0  0  0  0
   43.5590   25.9460   43.7840 C   0  0  0  0  0  0  0  0  0  0  0  0
   44.5120   26.2760   44.1760 H   0  0  0  0  0  0  0  0  0  0  0  0
   42.9320   24.8240   43.3680 N   0  0  0  0  0  0  0  0  0  0  0  0
   43.4990   23.9440   43.4140 H   0  0  0  0  0  0  0  0  0  0  0  0
   41.6990   25.1390   42.9890 N   0  0  0  0  0  0  0  0  0  0  0  0
   36.6330   30.5000   41.3800 C   0  0  0  0  0  0  0  0  0  0  0  0
   37.4800   30.9000   42.0110 H   0  0  0  0  0  0  0  0  0  0  0  0
   35.7300   30.6460   42.0060 H   0  0  0  0  0  0  0  0  0  0  0  0
   36.5980   31.3080   40.1470 C   0  0  0  0  0  0  0  0  0  0  0  0
   35.8920   32.1790   40.2510 H   0  0  0  0  0  0  0  0  0  0  0  0
   36.2200   30.7690   39.2400 H   0  0  0  0  0  0  0  0  0  0  0  0
   37.4250   31.0700   37.2990 Cl  0  0  0  0  0  0  0  0  0  0  0  0
   38.4070   31.8610   38.5050 C   0  0  0  0  0  0  0  0  0  0  0  0
   37.9210   31.9070   39.7850 C   0  0  0  0  0  0  0  0  0  0  0  0
   38.6940   32.5310   40.7400 C   0  0  0  0  0  0  0  0  0  0  0  0
   39.9150   33.0880   40.4190 C   0  0  0  0  0  0  0  0  0  0  0  0
   40.3940   33.0300   39.1060 C   0  0  0  0  0  0  0  0  0  0  0  0
   39.6080   32.4010   38.1530 C   0  0  0  0  0  0  0  0  0  0  0  0
   38.3700   32.6030   41.7710 H   0  0  0  0  0  0  0  0  0  0  0  0
   40.5620   33.5830   41.1000 H   0  0  0  0  0  0  0  0  0  0  0  0
   41.3470   33.4590   38.8300 H   0  0  0  0  0  0  0  0  0  0  0  0
   40.0030   32.2930   36.8130 O   0  0  0  0  0  0  0  0  0  0  0  0
   40.2060   33.1500   36.3090 H   0  0  0  0  0  0  0  0  0  0  0  0
  1 23  1  0  0  0  0
  1  6  1  0  0  0  0
  2  1  2  0  0  0  0
  3  2  1  0  0  0  0
  3  4  2  0  0  0  0
  4  5  1  0  0  0  0
  5  6  2  0  0  0  0
  5  9  1  0  0  0  0
  7  2  1  0  0  0  0
  8  3  1  0  0  0  0
  9 12  1  6  0  0  0
  9 11  1  0  0  0  0
  9 10  1  0  0  0  0
 10 13  1  0  0  0  0
 10 14  1  0  0  0  0
 11 15  1  6  0  0  0
 11 16  1  0  0  0  0
 11 10  1  0  0  0  0
 16 17  1  0  0  0  0
 17 18  2  0  0  0  0
 18 19  1  0  0  0  0
 20 21  1  0  0  0  0
 20 18  1  0  0  0  0
 22 16  2  0  0  0  0
 22 20  1  0  0  0  0
 23 25  1  0  0  0  0
 23 24  1  0  0  0  0
 26 27  1  0  0  0  0
 26 23  1  0  0  0  0
 28 26  1  0  0  0  0
 29 30  1  0  0  0  0
 30 31  1  0  0  0  0
 31 26  1  0  0  0  0
 31 32  2  0  0  0  0
 32 36  1  0  0  0  0
 33 32  1  0  0  0  0
 33 37  1  0  0  0  0
 34 33  2  0  0  0  0
 35 30  2  0  0  0  0
 35 34  1  0  0  0  0
 38 34  1  0  0  0  0
 39 35  1  0  0  0  0
 40 39  1  0  0  0  0
M  END
>  <minimizedAffinity>
-6.11270475

$$$$

 OpenBabel03242519183D

 40 43  0  0  1  0  0  0  0  0999 V2000
   38.1980   31.3790   41.0950 C   0  0  0  0  0  0  0  0  0  0  0  0
   37.0570   31.6940   40.3920 C   0  0  0  0  0  0  0  0  0  0  0  0
   35.9610   30.8250   40.2770 C   0  0  0  0  0  0  0  0  0  0  0  0
   36.1020   29.6290   40.9160 N   0  0  0  0  0  0  0  0  0  0  0  0
   37.2170   29.3320   41.5980 C   0  0  0  0  0  0  0  0  0  0  0  0
   38.2400   30.1880   41.6820 N   0  0  0  0  0  0  0  0  0  0  0  0
   37.0240   32.6650   39.9140 H   0  0  0  0  0  0  0  0  0  0  0  0
   35.0840   31.1070   39.7190 H   0  0  0  0  0  0  0  0  0  0  0  0
   37.3640   28.0280   42.3250 C   0  0  2  0  0  0  0  0  0  0  0  0
   37.4730   28.0500   43.8170 C   0  0  0  0  0  0  0  0  0  0  0  0
   38.6960   27.7540   42.9310 C   0  0  1  0  0  0  0  0  0  0  0  0
   36.9050   27.1880   41.7650 H   0  0  0  0  0  0  0  0  0  0  0  0
   37.4220   29.0540   44.2950 H   0  0  0  0  0  0  0  0  0  0  0  0
   36.9930   27.2250   44.3580 H   0  0  0  0  0  0  0  0  0  0  0  0
   39.4700   28.5370   42.9650 H   0  0  0  0  0  0  0  0  0  0  0  0
   39.1710   26.3520   43.0750 C   0  0  0  0  0  0  0  0  0  0  0  0
   38.7510   25.2680   42.4210 N   0  0  0  0  0  0  0  0  0  0  0  0
   39.4300   24.1590   42.8300 C   0  0  0  0  0  0  0  0  0  0  0  0
   39.1320   23.2450   42.3340 H   0  0  0  0  0  0  0  0  0  0  0  0
   40.2930   24.6050   43.7690 N   0  0  0  0  0  0  0  0  0  0  0  0
   40.9090   23.8760   44.2020 H   0  0  0  0  0  0  0  0  0  0  0  0
   40.1330   25.9160   43.9090 N   0  0  0  0  0  0  0  0  0  0  0  0
   39.3040   32.2950   41.2050 C   0  0  0  0  0  0  0  0  0  0  0  0
   40.2530   31.7170   41.0000 H   0  0  0  0  0  0  0  0  0  0  0  0
   39.4400   32.6950   42.2300 H   0  0  0  0  0  0  0  0  0  0  0  0
   39.2230   33.3620   40.1910 C   0  0  0  0  0  0  0  0  0  0  0  0
   39.3620   34.3780   40.6580 H   0  0  0  0  0  0  0  0  0  0  0  0
   38.2340   33.4450   39.6700 H   0  0  0  0  0  0  0  0  0  0  0  0
   41.3250   35.4680   40.2110 Cl  0  0  0  0  0  0  0  0  0  0  0  0
   41.2940   34.1740   39.0400 C   0  0  0  0  0  0  0  0  0  0  0  0
   40.2750   33.2630   39.1310 C   0  0  0  0  0  0  0  0  0  0  0  0
   40.2480   32.2400   38.2080 C   0  0  0  0  0  0  0  0  0  0  0  0
   41.2130   32.1380   37.2270 C   0  0  0  0  0  0  0  0  0  0  0  0
   42.2450   33.0780   37.1510 C   0  0  0  0  0  0  0  0  0  0  0  0
   42.2630   34.1020   38.0850 C   0  0  0  0  0  0  0  0  0  0  0  0
   39.4710   31.4860   38.2220 H   0  0  0  0  0  0  0  0  0  0  0  0
   41.2550   31.3780   36.4850 H   0  0  0  0  0  0  0  0  0  0  0  0
   43.0120   33.0190   36.3920 H   0  0  0  0  0  0  0  0  0  0  0  0
   43.2560   35.0910   38.0890 O   0  0  0  0  0  0  0  0  0  0  0  0
   44.2220   34.7910   38.1660 H   0  0  0  0  0  0  0  0  0  0  0  0
  1 23  1  0  0  0  0
  1  6  1  0  0  0  0
  2  1  2  0  0  0  0
  3  2  1  0  0  0  0
  3  4  2  0  0  0  0
  4  5  1  0  0  0  0
  5  6  2  0  0  0  0
  5  9  1  0  0  0  0
  7  2  1  0  0  0  0
  8  3  1  0  0  0  0
  9 12  1  6  0  0  0
  9 11  1  0  0  0  0
  9 10  1  0  0  0  0
 10 13  1  0  0  0  0
 10 14  1  0  0  0  0
 11 15  1  6  0  0  0
 11 16  1  0  0  0  0
 11 10  1  0  0  0  0
 16 22  2  0  0  0  0
 17 18  2  0  0  0  0
 17 16  1  0  0  0  0
 18 20  1  0  0  0  0
 19 18  1  0  0  0  0
 20 22  1  0  0  0  0
 20 21  1  0  0  0  0
 23 25  1  0  0  0  0
 24 23  1  0  0  0  0
 26 27  1  0  0  0  0
 26 23  1  0  0  0  0
 28 26  1  0  0  0  0
 30 31  1  0  0  0  0
 30 29  1  0  0  0  0
 31 26  1  0  0  0  0
 32 36  1  0  0  0  0
 32 31  2  0  0  0  0
 33 32  1  0  0  0  0
 34 33  2  0  0  0  0
 34 35  1  0  0  0  0
 35 39  1  0  0  0  0
 35 30  2  0  0  0  0
 37 33  1  0  0  0  0
 38 34  1  0  0  0  0
 39 40  1  0  0  0  0
M  END
>  <minimizedAffinity>
-6.06583977

$$$$

 OpenBabel03242519183D

 40 43  0  0  1  0  0  0  0  0999 V2000
   36.5560   30.2230   38.9120 C   0  0  0  0  0  0  0  0  0  0  0  0
   35.8710   29.6760   37.8510 C   0  0  0  0  0  0  0  0  0  0  0  0
   35.4880   28.3270   37.7990 C   0  0  0  0  0  0  0  0  0  0  0  0
   35.8440   27.5820   38.8830 N   0  0  0  0  0  0  0  0  0  0  0  0
   36.5120   28.1250   39.9110 C   0  0  0  0  0  0  0  0  0  0  0  0
   36.8600   29.4160   39.9220 N   0  0  0  0  0  0  0  0  0  0  0  0
   35.6250   30.3350   37.0290 H   0  0  0  0  0  0  0  0  0  0  0  0
   34.9510   27.9330   36.9510 H   0  0  0  0  0  0  0  0  0  0  0  0
   36.8810   27.3140   41.1180 C   0  0  2  0  0  0  0  0  0  0  0  0
   36.5720   27.8680   42.4730 C   0  0  0  0  0  0  0  0  0  0  0  0
   38.0140   27.8240   41.9370 C   0  0  1  0  0  0  0  0  0  0  0  0
   36.8940   26.2280   40.8980 H   0  0  0  0  0  0  0  0  0  0  0  0
   36.0660   28.8600   42.4910 H   0  0  0  0  0  0  0  0  0  0  0  0
   36.2660   27.1480   43.2420 H   0  0  0  0  0  0  0  0  0  0  0  0
   38.4470   28.8190   41.7410 H   0  0  0  0  0  0  0  0  0  0  0  0
   38.8700   26.8730   42.6950 C   0  0  0  0  0  0  0  0  0  0  0  0
   39.0650   25.5740   42.4620 N   0  0  0  0  0  0  0  0  0  0  0  0
   39.9210   25.0380   43.3770 C   0  0  0  0  0  0  0  0  0  0  0  0
   40.1190   23.9830   43.2390 H   0  0  0  0  0  0  0  0  0  0  0  0
   40.2490   26.0650   44.1910 N   0  0  0  0  0  0  0  0  0  0  0  0
   40.9130   25.8330   44.9690 H   0  0  0  0  0  0  0  0  0  0  0  0
   39.6180   27.1580   43.7770 N   0  0  0  0  0  0  0  0  0  0  0  0
   36.9280   31.6150   38.9440 C   0  0  0  0  0  0  0  0  0  0  0  0
   36.0210   32.2220   38.6530 H   0  0  0  0  0  0  0  0  0  0  0  0
   37.6930   31.8810   38.1870 H   0  0  0  0  0  0  0  0  0  0  0  0
   37.3110   32.0380   40.3040 C   0  0  0  0  0  0  0  0  0  0  0  0
   37.6350   31.1580   40.9280 H   0  0  0  0  0  0  0  0  0  0  0  0
   36.4850   32.4980   40.9050 H   0  0  0  0  0  0  0  0  0  0  0  0
   39.9960   30.8560   40.7930 Cl  0  0  0  0  0  0  0  0  0  0  0  0
   39.7470   32.5660   40.5480 C   0  0  0  0  0  0  0  0  0  0  0  0
   38.4630   32.9930   40.3320 C   0  0  0  0  0  0  0  0  0  0  0  0
   38.2630   34.3420   40.1380 C   0  0  0  0  0  0  0  0  0  0  0  0
   39.3180   35.2320   40.1610 C   0  0  0  0  0  0  0  0  0  0  0  0
   40.6210   34.7760   40.3830 C   0  0  0  0  0  0  0  0  0  0  0  0
   40.8110   33.4160   40.5770 C   0  0  0  0  0  0  0  0  0  0  0  0
   37.2740   34.7470   39.9620 H   0  0  0  0  0  0  0  0  0  0  0  0
   39.2380   36.2810   40.0190 H   0  0  0  0  0  0  0  0  0  0  0  0
   41.4630   35.4520   40.4050 H   0  0  0  0  0  0  0  0  0  0  0  0
   42.0790   32.8660   40.8060 O   0  0  0  0  0  0  0  0  0  0  0  0
   42.7990   33.0270   40.1090 H   0  0  0  0  0  0  0  0  0  0  0  0
  1 23  1  0  0  0  0
  1  6  1  0  0  0  0
  2  1  2  0  0  0  0
  3  2  1  0  0  0  0
  3  4  2  0  0  0  0
  4  5  1  0  0  0  0
  5  6  2  0  0  0  0
  5  9  1  0  0  0  0
  7  2  1  0  0  0  0
  8  3  1  0  0  0  0
  9 12  1  6  0  0  0
  9 11  1  0  0  0  0
  9 10  1  0  0  0  0
 10 13  1  0  0  0  0
 10 14  1  0  0  0  0
 11 15  1  6  0  0  0
 11 10  1  0  0  0  0
 11 16  1  0  0  0  0
 16 22  2  0  0  0  0
 17 16  1  0  0  0  0
 17 18  2  0  0  0  0
 18 20  1  0  0  0  0
 19 18  1  0  0  0  0
 20 21  1  0  0  0  0
 22 20  1  0  0  0  0
 23 26  1  0  0  0  0
 24 23  1  0  0  0  0
 25 23  1  0  0  0  0
 26 31  1  0  0  0  0
 26 28  1  0  0  0  0
 26 27  1  0  0  0  0
 30 35  1  0  0  0  0
 30 29  1  0  0  0  0
 31 30  2  0  0  0  0
 32 33  2  0  0  0  0
 32 31  1  0  0  0  0
 33 34  1  0  0  0  0
 34 38  1  0  0  0  0
 34 35  2  0  0  0  0
 35 39  1  0  0  0  0
 36 32  1  0  0  0  0
 37 33  1  0  0  0  0
 40 39  1  0  0  0  0
M  END
>  <minimizedAffinity>
-5.9528923

$$$$

 OpenBabel03242519183D

 40 43  0  0  1  0  0  0  0  0999 V2000
   38.5910   30.0260   41.9230 C   0  0  0  0  0  0  0  0  0  0  0  0
   39.5760   30.8890   42.3490 C   0  0  0  0  0  0  0  0  0  0  0  0
   40.3040   31.7120   41.4780 C   0  0  0  0  0  0  0  0  0  0  0  0
   39.9690   31.6010   40.1610 N   0  0  0  0  0  0  0  0  0  0  0  0
   39.0090   30.7580   39.7570 C   0  0  0  0  0  0  0  0  0  0  0  0
   38.3370   29.9880   40.6200 N   0  0  0  0  0  0  0  0  0  0  0  0
   39.7800   30.9180   43.4120 H   0  0  0  0  0  0  0  0  0  0  0  0
   41.0680   32.3760   41.8480 H   0  0  0  0  0  0  0  0  0  0  0  0
   38.6180   30.6530   38.3120 C   0  0  2  0  0  0  0  0  0  0  0  0
   37.6040   31.6130   37.7740 C   0  0  0  0  0  0  0  0  0  0  0  0
   37.2500   30.1370   38.0310 C   0  0  1  0  0  0  0  0  0  0  0  0
   39.4330   30.2260   37.6940 H   0  0  0  0  0  0  0  0  0  0  0  0
   37.2120   32.3640   38.4960 H   0  0  0  0  0  0  0  0  0  0  0  0
   37.7490   31.9550   36.7420 H   0  0  0  0  0  0  0  0  0  0  0  0
   36.5270   29.9890   38.8480 H   0  0  0  0  0  0  0  0  0  0  0  0
   36.9820   29.3930   36.7710 C   0  0  0  0  0  0  0  0  0  0  0  0
   35.8780   29.4110   36.0230 N   0  0  0  0  0  0  0  0  0  0  0  0
   36.0110   28.5950   34.9400 C   0  0  0  0  0  0  0  0  0  0  0  0
   35.1450   28.5660   34.2930 H   0  0  0  0  0  0  0  0  0  0  0  0
   37.2510   28.0680   35.0490 N   0  0  0  0  0  0  0  0  0  0  0  0
   37.5310   27.4050   34.2880 H   0  0  0  0  0  0  0  0  0  0  0  0
   37.8250   28.5510   36.1450 N   0  0  0  0  0  0  0  0  0  0  0  0
   37.8510   29.1990   42.8420 C   0  0  0  0  0  0  0  0  0  0  0  0
   36.9190   29.7640   43.1420 H   0  0  0  0  0  0  0  0  0  0  0  0
   38.3840   29.0200   43.7970 H   0  0  0  0  0  0  0  0  0  0  0  0
   37.4070   27.9470   42.2020 C   0  0  0  0  0  0  0  0  0  0  0  0
   37.4590   28.0240   41.0790 H   0  0  0  0  0  0  0  0  0  0  0  0
   36.3390   27.6700   42.3970 H   0  0  0  0  0  0  0  0  0  0  0  0
   36.7700   25.4040   40.7960 Cl  0  0  0  0  0  0  0  0  0  0  0  0
   38.0470   25.5370   41.9770 C   0  0  0  0  0  0  0  0  0  0  0  0
   38.2460   26.7610   42.5590 C   0  0  0  0  0  0  0  0  0  0  0  0
   39.2540   26.8690   43.4930 C   0  0  0  0  0  0  0  0  0  0  0  0
   40.0340   25.7820   43.8300 C   0  0  0  0  0  0  0  0  0  0  0  0
   39.8160   24.5410   43.2240 C   0  0  0  0  0  0  0  0  0  0  0  0
   38.7990   24.4430   42.2860 C   0  0  0  0  0  0  0  0  0  0  0  0
   39.4640   27.8070   43.9910 H   0  0  0  0  0  0  0  0  0  0  0  0
   40.8260   25.7910   44.5370 H   0  0  0  0  0  0  0  0  0  0  0  0
   40.4130   23.6750   43.4710 H   0  0  0  0  0  0  0  0  0  0  0  0
   38.5050   23.2420   41.6280 O   0  0  0  0  0  0  0  0  0  0  0  0
   39.2480   22.7970   41.1000 H   0  0  0  0  0  0  0  0  0  0  0  0
  1  2  1  0  0  0  0
  1 23  1  0  0  0  0
  2  7  1  0  0  0  0
  3  8  1  0  0  0  0
  3  2  2  0  0  0  0
  4  3  1  0  0  0  0
  5  4  2  0  0  0  0
  5  6  1  0  0  0  0
  6  1  2  0  0  0  0
  9 12  1  6  0  0  0
  9  5  1  0  0  0  0
 10 11  1  0  0  0  0
 10  9  1  0  0  0  0
 10 13  1  0  0  0  0
 11  9  1  0  0  0  0
 11 15  1  1  0  0  0
 14 10  1  0  0  0  0
 16 11  1  0  0  0  0
 17 16  1  0  0  0  0
 18 20  1  0  0  0  0
 18 17  2  0  0  0  0
 19 18  1  0  0  0  0
 20 22  1  0  0  0  0
 21 20  1  0  0  0  0
 22 16  2  0  0  0  0
 23 24  1  0  0  0  0
 23 25  1  0  0  0  0
 26 28  1  0  0  0  0
 26 31  1  0  0  0  0
 26 23  1  0  0  0  0
 27 26  1  0  0  0  0
 29 30  1  0  0  0  0
 30 35  2  0  0  0  0
 30 31  1  0  0  0  0
 31 32  2  0  0  0  0
 32 33  1  0  0  0  0
 32 36  1  0  0  0  0
 33 37  1  0  0  0  0
 34 38  1  0  0  0  0
 34 33  2  0  0  0  0
 35 34  1  0  0  0  0
 39 35  1  0  0  0  0
 40 39  1  0  0  0  0
M  END
>  <minimizedAffinity>
-5.86721802

$$$$

 OpenBabel03242519183D

 40 43  0  0  1  0  0  0  0  0999 V2000
   36.7150   27.4660   40.5300 C   0  0  0  0  0  0  0  0  0  0  0  0
   36.3880   26.4550   39.6560 C   0  0  0  0  0  0  0  0  0  0  0  0
   36.9840   25.1860   39.6930 C   0  0  0  0  0  0  0  0  0  0  0  0
   37.9230   25.0150   40.6660 N   0  0  0  0  0  0  0  0  0  0  0  0
   38.2340   26.0070   41.5130 C   0  0  0  0  0  0  0  0  0  0  0  0
   37.6430   27.2040   41.4440 N   0  0  0  0  0  0  0  0  0  0  0  0
   35.6310   26.6700   38.9120 H   0  0  0  0  0  0  0  0  0  0  0  0
   36.7020   24.4170   38.9910 H   0  0  0  0  0  0  0  0  0  0  0  0
   39.2470   25.8150   42.6020 C   0  0  2  0  0  0  0  0  0  0  0  0
   39.3400   26.8450   43.6830 C   0  0  0  0  0  0  0  0  0  0  0  0
   40.4170   26.7350   42.5890 C   0  0  1  0  0  0  0  0  0  0  0  0
   39.4770   24.7430   42.7690 H   0  0  0  0  0  0  0  0  0  0  0  0
   38.6240   27.6950   43.6090 H   0  0  0  0  0  0  0  0  0  0  0  0
   39.5650   26.4820   44.6930 H   0  0  0  0  0  0  0  0  0  0  0  0
   40.4460   27.5980   41.9050 H   0  0  0  0  0  0  0  0  0  0  0  0
   41.7260   26.2800   43.1300 C   0  0  0  0  0  0  0  0  0  0  0  0
   42.6580   27.0040   43.7500 N   0  0  0  0  0  0  0  0  0  0  0  0
   43.7230   26.2300   44.1010 C   0  0  0  0  0  0  0  0  0  0  0  0
   44.5160   26.7640   44.6080 H   0  0  0  0  0  0  0  0  0  0  0  0
   43.4100   24.9890   43.6700 N   0  0  0  0  0  0  0  0  0  0  0  0
   44.1270   24.2480   43.8570 H   0  0  0  0  0  0  0  0  0  0  0  0
   42.2140   25.0260   43.0920 N   0  0  0  0  0  0  0  0  0  0  0  0
   36.0790   28.7580   40.4760 C   0  0  0  0  0  0  0  0  0  0  0  0
   34.9880   28.6170   40.7370 H   0  0  0  0  0  0  0  0  0  0  0  0
   36.0650   29.1960   39.4590 H   0  0  0  0  0  0  0  0  0  0  0  0
   36.6450   29.6790   41.4790 C   0  0  0  0  0  0  0  0  0  0  0  0
   37.4280   29.1660   42.1060 H   0  0  0  0  0  0  0  0  0  0  0  0
   35.9130   30.0640   42.2340 H   0  0  0  0  0  0  0  0  0  0  0  0
   39.2850   30.4090   42.6390 Cl  0  0  0  0  0  0  0  0  0  0  0  0
   38.5500   31.2990   41.3310 C   0  0  0  0  0  0  0  0  0  0  0  0
   37.3290   30.8680   40.8800 C   0  0  0  0  0  0  0  0  0  0  0  0
   36.7460   31.5690   39.8470 C   0  0  0  0  0  0  0  0  0  0  0  0
   37.3680   32.6660   39.2870 C   0  0  0  0  0  0  0  0  0  0  0  0
   38.6130   33.0900   39.7610 C   0  0  0  0  0  0  0  0  0  0  0  0
   39.1910   32.3780   40.8010 C   0  0  0  0  0  0  0  0  0  0  0  0
   35.7830   31.2830   39.4440 H   0  0  0  0  0  0  0  0  0  0  0  0
   36.9790   33.2520   38.4910 H   0  0  0  0  0  0  0  0  0  0  0  0
   39.1200   33.9460   39.3390 H   0  0  0  0  0  0  0  0  0  0  0  0
   40.4360   32.7270   41.3420 O   0  0  0  0  0  0  0  0  0  0  0  0
   41.2320   32.7630   40.7150 H   0  0  0  0  0  0  0  0  0  0  0  0
  1  6  1  0  0  0  0
  2  3  1  0  0  0  0
  2  1  2  0  0  0  0
  3  4  2  0  0  0  0
  4  5  1  0  0  0  0
  5  9  1  0  0  0  0
  6  5  2  0  0  0  0
  7  2  1  0  0  0  0
  8  3  1  0  0  0  0
  9 12  1  1  0  0  0
  9 10  1  0  0  0  0
 10 14  1  0  0  0  0
 11 15  1  6  0  0  0
 11  9  1  0  0  0  0
 11 16  1  0  0  0  0
 11 10  1  0  0  0  0
 13 10  1  0  0  0  0
 16 17  1  0  0  0  0
 17 18  2  0  0  0  0
 18 19  1  0  0  0  0
 20 21  1  0  0  0  0
 20 18  1  0  0  0  0
 22 16  2  0  0  0  0
 22 20  1  0  0  0  0
 23  1  1  0  0  0  0
 23 24  1  0  0  0  0
 23 26  1  0  0  0  0
 25 23  1  0  0  0  0
 26 27  1  0  0  0  0
 26 28  1  0  0  0  0
 30 29  1  0  0  0  0
 31 30  1  0  0  0  0
 31 26  1  0  0  0  0
 32 31  2  0  0  0  0
 33 34  2  0  0  0  0
 33 32  1  0  0  0  0
 34 35  1  0  0  0  0
 35 30  2  0  0  0  0
 35 39  1  0  0  0  0
 36 32  1  0  0  0  0
 37 33  1  0  0  0  0
 38 34  1  0  0  0  0
 40 39  1  0  0  0  0
M  END
>  <minimizedAffinity>
-5.80734587

$$$$
