
 OpenBabel03242519163D

 40 43  0  0  1  0  0  0  0  0999 V2000
   48.3300   34.2210   40.9170 C   0  0  0  0  0  0  0  0  0  0  0  0
   47.8860   34.3580   39.6210 C   0  0  0  0  0  0  0  0  0  0  0  0
   48.2630   33.4900   38.5860 C   0  0  0  0  0  0  0  0  0  0  0  0
   49.1100   32.4860   38.9510 N   0  0  0  0  0  0  0  0  0  0  0  0
   49.5350   32.3620   40.2160 C   0  0  0  0  0  0  0  0  0  0  0  0
   49.1540   33.2120   41.1750 N   0  0  0  0  0  0  0  0  0  0  0  0
   47.2150   35.1810   39.4140 H   0  0  0  0  0  0  0  0  0  0  0  0
   47.8940   33.6280   37.5820 H   0  0  0  0  0  0  0  0  0  0  0  0
   50.4450   31.2420   40.6270 C   0  0  2  0  0  0  0  0  0  0  0  0
   51.1850   31.3610   41.9220 C   0  0  0  0  0  0  0  0  0  0  0  0
   51.9070   31.5220   40.5720 C   0  0  1  0  0  0  0  0  0  0  0  0
   50.1230   30.2700   40.2020 H   0  0  0  0  0  0  0  0  0  0  0  0
   50.9940   32.2870   42.5100 H   0  0  0  0  0  0  0  0  0  0  0  0
   51.3260   30.4360   42.4960 H   0  0  0  0  0  0  0  0  0  0  0  0
   52.2770   32.5420   40.3840 H   0  0  0  0  0  0  0  0  0  0  0  0
   52.8650   30.4150   40.3080 C   0  0  0  0  0  0  0  0  0  0  0  0
   54.1130   30.2830   40.7570 N   0  0  0  0  0  0  0  0  0  0  0  0
   54.6760   29.1300   40.2980 C   0  0  0  0  0  0  0  0  0  0  0  0
   55.6920   28.9650   40.6300 H   0  0  0  0  0  0  0  0  0  0  0  0
   53.7180   28.5500   39.5410 N   0  0  0  0  0  0  0  0  0  0  0  0
   53.9790   27.6370   39.0980 H   0  0  0  0  0  0  0  0  0  0  0  0
   52.6390   29.3250   39.5520 N   0  0  0  0  0  0  0  0  0  0  0  0
   47.9190   35.1220   41.9640 C   0  0  0  0  0  0  0  0  0  0  0  0
   48.0430   36.1770   41.5810 H   0  0  0  0  0  0  0  0  0  0  0  0
   48.5680   35.0750   42.8610 H   0  0  0  0  0  0  0  0  0  0  0  0
   46.4920   34.9490   42.2930 C   0  0  0  0  0  0  0  0  0  0  0  0
   45.9940   34.2330   41.5800 H   0  0  0  0  0  0  0  0  0  0  0  0
   45.8720   35.8780   42.2090 H   0  0  0  0  0  0  0  0  0  0  0  0
   44.5720   36.4210   44.0250 Cl  0  0  0  0  0  0  0  0  0  0  0  0
   45.3930   34.9710   44.5440 C   0  0  0  0  0  0  0  0  0  0  0  0
   46.2560   34.3810   43.6580 C   0  0  0  0  0  0  0  0  0  0  0  0
   46.9050   33.2360   44.0640 C   0  0  0  0  0  0  0  0  0  0  0  0
   46.6940   32.7030   45.3190 C   0  0  0  0  0  0  0  0  0  0  0  0
   45.8100   33.3200   46.2090 C   0  0  0  0  0  0  0  0  0  0  0  0
   45.1620   34.4710   45.7900 C   0  0  0  0  0  0  0  0  0  0  0  0
   47.6000   32.7200   43.4140 H   0  0  0  0  0  0  0  0  0  0  0  0
   47.1580   31.8260   45.6990 H   0  0  0  0  0  0  0  0  0  0  0  0
   45.6280   32.9210   47.1970 H   0  0  0  0  0  0  0  0  0  0  0  0
   44.2580   35.1590   46.6110 O   0  0  0  0  0  0  0  0  0  0  0  0
   43.4570   34.6480   46.9660 H   0  0  0  0  0  0  0  0  0  0  0  0
  1  6  1  0  0  0  0
  1 23  1  0  0  0  0
  2  1  2  0  0  0  0
  3  4  2  0  0  0  0
  3  2  1  0  0  0  0
  4  5  1  0  0  0  0
  5  9  1  0  0  0  0
  5  6  2  0  0  0  0
  7  2  1  0  0  0  0
  8  3  1  0  0  0  0
  9 12  1  6  0  0  0
  9 10  1  0  0  0  0
 10 14  1  0  0  0  0
 10 13  1  0  0  0  0
 11 15  1  6  0  0  0
 11  9  1  0  0  0  0
 11 10  1  0  0  0  0
 16 11  1  0  0  0  0
 16 17  1  0  0  0  0
 18 19  1  0  0  0  0
 18 17  2  0  0  0  0
 20 22  1  0  0  0  0
 20 18  1  0  0  0  0
 21 20  1  0  0  0  0
 22 16  2  0  0  0  0
 23 26  1  0  0  0  0
 23 25  1  0  0  0  0
 24 23  1  0  0  0  0
 26 31  1  0  0  0  0
 27 26  1  0  0  0  0
 28 26  1  0  0  0  0
 29 30  1  0  0  0  0
 30 35  1  0  0  0  0
 31 32  1  0  0  0  0
 31 30  2  0  0  0  0
 32 33  2  0  0  0  0
 33 37  1  0  0  0  0
 33 34  1  0  0  0  0
 34 38  1  0  0  0  0
 35 34  2  0  0  0  0
 35 39  1  0  0  0  0
 36 32  1  0  0  0  0
 39 40  1  0  0  0  0
M  END
>  <minimizedAffinity>
-5.72481775

>  <minimizedRMSD>
0.192752779

$$$$
