
 OpenBabel03242520123D

 32 34  0  0  0  0  0  0  0  0999 V2000
   48.7850   30.4070   47.5320 C   0  0  0  0  0  0  0  0  0  0  0  0
   49.0490   30.1750   48.8440 C   0  0  0  0  0  0  0  0  0  0  0  0
   50.1370   29.3850   49.1680 C   0  0  0  0  0  0  0  0  0  0  0  0
   50.9380   28.8450   48.1740 C   0  0  0  0  0  0  0  0  0  0  0  0
   50.6270   29.1130   46.8310 C   0  0  0  0  0  0  0  0  0  0  0  0
   49.5870   29.8650   46.5670 N   0  0  0  0  0  0  0  0  0  0  0  0
   48.4020   30.6130   49.5920 H   0  0  0  0  0  0  0  0  0  0  0  0
   50.3760   29.1800   50.2050 H   0  0  0  0  0  0  0  0  0  0  0  0
   51.7940   28.2250   48.4050 H   0  0  0  0  0  0  0  0  0  0  0  0
   45.5950   32.1720   47.4740 C   0  0  0  0  0  0  0  0  0  0  0  0
   45.6120   32.7370   46.1770 C   0  0  0  0  0  0  0  0  0  0  0  0
   46.7030   32.5200   45.3210 C   0  0  0  0  0  0  0  0  0  0  0  0
   47.6770   31.7550   45.8470 N   0  0  0  0  0  0  0  0  0  0  0  0
   47.6590   31.2300   47.0590 C   0  0  0  0  0  0  0  0  0  0  0  0
   46.6270   31.4370   47.8640 N   0  0  0  0  0  0  0  0  0  0  0  0
   44.4520   32.4280   48.2900 N   0  0  0  0  0  0  0  0  0  0  0  0
   44.8010   33.3360   45.8220 H   0  0  0  0  0  0  0  0  0  0  0  0
   46.7370   32.9360   44.3400 H   0  0  0  0  0  0  0  0  0  0  0  0
   43.5620   32.7490   47.8550 H   0  0  0  0  0  0  0  0  0  0  0  0
   44.5750   32.2730   49.3340 H   0  0  0  0  0  0  0  0  0  0  0  0
   51.4400   28.5660   45.7560 C   0  0  0  0  0  3  0  0  0  0  0  0
   50.9430   28.2140   44.5800 C   0  0  0  0  0  3  0  0  0  0  0  0
   49.4920   28.3530   44.2560 C   0  0  0  0  0  0  0  0  0  0  0  0
   49.2960   29.3950   43.9760 H   0  0  0  0  0  0  0  0  0  0  0  0
   48.8650   27.9990   45.0820 H   0  0  0  0  0  0  0  0  0  0  0  0
   49.2650   27.4250   43.0930 C   0  0  0  0  0  0  0  0  0  0  0  0
   48.0720   27.1130   42.5700 N   0  0  0  0  0  0  0  0  0  0  0  0
   48.2830   26.2670   41.5590 C   0  0  0  0  0  0  0  0  0  0  0  0
   47.5320   25.8280   40.9340 H   0  0  0  0  0  0  0  0  0  0  0  0
   49.6160   26.0690   41.4740 N   0  0  0  0  0  0  0  0  0  0  0  0
   50.1540   25.4740   40.8090 H   0  0  0  0  0  0  0  0  0  0  0  0
   50.2330   26.7810   42.4180 N   0  0  0  0  0  0  0  0  0  0  0  0
  1  2  1  0  0  0  0
  2  3  2  0  0  0  0
  2  7  1  0  0  0  0
  3  8  1  0  0  0  0
  4  9  1  0  0  0  0
  4  3  1  0  0  0  0
  5  4  2  0  0  0  0
  6  5  1  0  0  0  0
  6  1  2  0  0  0  0
 10 15  1  0  0  0  0
 10 16  1  0  0  0  0
 11 10  2  0  0  0  0
 12 13  2  0  0  0  0
 12 11  1  0  0  0  0
 13 14  1  0  0  0  0
 14  1  1  0  0  0  0
 14 15  2  0  0  0  0
 16 20  1  0  0  0  0
 17 11  1  0  0  0  0
 18 12  1  0  0  0  0
 19 16  1  0  0  0  0
 21  5  1  0  0  0  0
 22 21  2  0  0  0  0
 23 22  1  0  0  0  0
 23 25  1  0  0  0  0
 24 23  1  0  0  0  0
 26 23  1  0  0  0  0
 27 26  1  0  0  0  0
 28 27  2  0  0  0  0
 29 28  1  0  0  0  0
 30 28  1  0  0  0  0
 30 32  1  0  0  0  0
 31 30  1  0  0  0  0
 32 26  2  0  0  0  0
M  END
>  <minimizedAffinity>
-2.19199896

>  <minimizedRMSD>
5.85820961

$$$$
