
 OpenBabel03242519173D

 40 43  0  0  1  0  0  0  0  0999 V2000
   48.3280   34.2270   40.9220 C   0  0  0  0  0  0  0  0  0  0  0  0
   47.8850   34.3670   39.6270 C   0  0  0  0  0  0  0  0  0  0  0  0
   48.2590   33.5000   38.5900 C   0  0  0  0  0  0  0  0  0  0  0  0
   49.1030   32.4930   38.9530 N   0  0  0  0  0  0  0  0  0  0  0  0
   49.5290   32.3660   40.2170 C   0  0  0  0  0  0  0  0  0  0  0  0
   49.1500   33.2150   41.1780 N   0  0  0  0  0  0  0  0  0  0  0  0
   47.2150   35.1920   39.4210 H   0  0  0  0  0  0  0  0  0  0  0  0
   47.8900   33.6400   37.5870 H   0  0  0  0  0  0  0  0  0  0  0  0
   50.4360   31.2440   40.6270 C   0  0  2  0  0  0  0  0  0  0  0  0
   51.1770   31.3580   41.9220 C   0  0  0  0  0  0  0  0  0  0  0  0
   51.8980   31.5190   40.5720 C   0  0  1  0  0  0  0  0  0  0  0  0
   50.1110   30.2730   40.2010 H   0  0  0  0  0  0  0  0  0  0  0  0
   50.9880   32.2840   42.5110 H   0  0  0  0  0  0  0  0  0  0  0  0
   51.3150   30.4330   42.4940 H   0  0  0  0  0  0  0  0  0  0  0  0
   52.2710   32.5390   40.3850 H   0  0  0  0  0  0  0  0  0  0  0  0
   52.8540   30.4100   40.3060 C   0  0  0  0  0  0  0  0  0  0  0  0
   52.6630   29.3190   39.5640 N   0  0  0  0  0  0  0  0  0  0  0  0
   53.7760   28.5330   39.5600 C   0  0  0  0  0  0  0  0  0  0  0  0
   53.6830   27.6280   38.9730 H   0  0  0  0  0  0  0  0  0  0  0  0
   54.6690   29.1860   40.3350 N   0  0  0  0  0  0  0  0  0  0  0  0
   55.6000   28.7200   40.4480 H   0  0  0  0  0  0  0  0  0  0  0  0
   54.1100   30.3080   40.7770 N   0  0  0  0  0  0  0  0  0  0  0  0
   47.9200   35.1270   41.9710 C   0  0  0  0  0  0  0  0  0  0  0  0
   48.0470   36.1830   41.5890 H   0  0  0  0  0  0  0  0  0  0  0  0
   48.5690   35.0780   42.8670 H   0  0  0  0  0  0  0  0  0  0  0  0
   46.4920   34.9580   42.3000 C   0  0  0  0  0  0  0  0  0  0  0  0
   45.9920   34.2450   41.5850 H   0  0  0  0  0  0  0  0  0  0  0  0
   45.8750   35.8890   42.2190 H   0  0  0  0  0  0  0  0  0  0  0  0
   44.5710   36.4250   44.0340 Cl  0  0  0  0  0  0  0  0  0  0  0  0
   45.3920   34.9740   44.5500 C   0  0  0  0  0  0  0  0  0  0  0  0
   46.2550   34.3870   43.6630 C   0  0  0  0  0  0  0  0  0  0  0  0
   46.9050   33.2400   44.0670 C   0  0  0  0  0  0  0  0  0  0  0  0
   46.6930   32.7040   45.3210 C   0  0  0  0  0  0  0  0  0  0  0  0
   45.8080   33.3190   46.2120 C   0  0  0  0  0  0  0  0  0  0  0  0
   45.1600   34.4710   45.7950 C   0  0  0  0  0  0  0  0  0  0  0  0
   47.6000   32.7260   43.4160 H   0  0  0  0  0  0  0  0  0  0  0  0
   47.1570   31.8260   45.6990 H   0  0  0  0  0  0  0  0  0  0  0  0
   45.6250   32.9180   47.1990 H   0  0  0  0  0  0  0  0  0  0  0  0
   44.2560   35.1570   46.6170 O   0  0  0  0  0  0  0  0  0  0  0  0
   43.4540   34.6450   46.9690 H   0  0  0  0  0  0  0  0  0  0  0  0
  1  6  1  0  0  0  0
  1 23  1  0  0  0  0
  2  1  2  0  0  0  0
  3  4  2  0  0  0  0
  3  2  1  0  0  0  0
  4  5  1  0  0  0  0
  5  9  1  0  0  0  0
  5  6  2  0  0  0  0
  7  2  1  0  0  0  0
  8  3  1  0  0  0  0
  9 12  1  6  0  0  0
  9 10  1  0  0  0  0
 10 14  1  0  0  0  0
 10 13  1  0  0  0  0
 11 15  1  6  0  0  0
 11  9  1  0  0  0  0
 11 10  1  0  0  0  0
 16 11  1  0  0  0  0
 16 22  2  0  0  0  0
 17 16  1  0  0  0  0
 18 17  2  0  0  0  0
 18 20  1  0  0  0  0
 19 18  1  0  0  0  0
 20 21  1  0  0  0  0
 20 22  1  0  0  0  0
 23 26  1  0  0  0  0
 23 25  1  0  0  0  0
 24 23  1  0  0  0  0
 26 31  1  0  0  0  0
 27 26  1  0  0  0  0
 28 26  1  0  0  0  0
 29 30  1  0  0  0  0
 30 35  1  0  0  0  0
 31 32  1  0  0  0  0
 31 30  2  0  0  0  0
 32 33  2  0  0  0  0
 33 37  1  0  0  0  0
 33 34  1  0  0  0  0
 34 38  1  0  0  0  0
 35 34  2  0  0  0  0
 35 39  1  0  0  0  0
 36 32  1  0  0  0  0
 39 40  1  0  0  0  0
M  END
>  <minimizedAffinity>
-5.72104073

>  <minimizedRMSD>
0.276150435

$$$$
