
 OpenBabel03252508073D

 42 45  0  0  0  0  0  0  0  0999 V2000
   45.4110   35.8430   42.6190 C   0  0  0  0  0  0  0  0  0  0  0  0
   45.6090   34.4730   42.6960 C   0  0  0  0  0  0  0  0  0  0  0  0
   45.3230   33.7990   43.8590 C   0  0  0  0  0  0  0  0  0  0  0  0
   44.8390   34.5520   44.9110 N   0  0  0  0  0  0  0  0  0  0  0  0
   44.6500   35.8670   44.8320 C   0  0  0  0  0  0  0  0  0  0  0  0
   44.9420   36.5000   43.6760 N   0  0  0  0  0  0  0  0  0  0  0  0
   45.6250   36.4170   41.7160 H   0  0  0  0  0  0  0  0  0  0  0  0
   44.2740   36.4360   45.6580 H   0  0  0  0  0  0  0  0  0  0  0  0
   45.4700   32.4150   44.0980 C   0  0  0  0  0  0  0  0  0  0  0  0
   44.9810   31.4180   43.2480 C   0  0  0  0  0  0  0  0  0  0  0  0
   45.0650   30.0740   43.5090 C   0  0  0  0  0  0  0  0  0  0  0  0
   45.6630   29.6400   44.6730 C   0  0  0  0  0  0  0  0  0  0  0  0
   46.1700   30.6430   45.5520 C   0  0  0  0  0  0  0  0  0  0  0  0
   46.7630   30.2210   46.7110 C   0  0  0  0  0  0  0  0  0  0  0  0
   47.2770   31.1360   47.6070 C   0  0  0  0  0  0  0  0  0  0  0  0
   47.1850   32.5060   47.3170 C   0  0  0  0  0  0  0  0  0  0  0  0
   46.5660   32.8880   46.1140 C   0  0  0  0  0  0  0  0  0  0  0  0
   46.0620   31.9580   45.2460 C   0  0  0  0  0  0  0  0  0  0  0  0
   44.5070   31.7290   42.3270 H   0  0  0  0  0  0  0  0  0  0  0  0
   44.6760   29.3340   42.8260 H   0  0  0  0  0  0  0  0  0  0  0  0
   45.7580   28.5970   44.9350 H   0  0  0  0  0  0  0  0  0  0  0  0
   46.8400   29.1690   46.9430 H   0  0  0  0  0  0  0  0  0  0  0  0
   47.7360   30.7520   48.5100 H   0  0  0  0  0  0  0  0  0  0  0  0
   47.6120   33.1320   48.0710 H   0  0  0  0  0  0  0  0  0  0  0  0
   46.6140   33.9550   46.0670 H   0  0  0  0  0  0  0  0  0  0  0  0
   46.0890   33.8480   41.5780 O   0  0  0  0  0  0  0  0  0  0  0  0
   48.0990   32.3530   40.8140 O   0  0  0  0  0  0  0  0  0  0  0  0
   47.7250   33.7510   41.1580 P   0  0  1  0  0  0  0  0  0  0  0  0
   48.0560   34.7000   39.7940 O   0  0  0  0  0  0  0  0  0  0  0  0
   47.8270   34.1400   38.5420 C   0  0  0  0  0  0  0  0  0  0  0  0
   46.7500   33.3650   38.2540 N   0  0  0  0  0  0  0  0  0  0  0  0
   46.8050   32.9750   36.9660 C   0  0  0  0  0  0  0  0  0  0  0  0
   46.0990   32.3500   36.4260 H   0  0  0  0  0  0  0  0  0  0  0  0
   47.9240   33.5080   36.4400 N   0  0  0  0  0  0  0  0  0  0  0  0
   48.2860   33.4070   35.4450 H   0  0  0  0  0  0  0  0  0  0  0  0
   48.5200   34.1990   37.3940 N   0  0  0  0  0  0  0  0  0  0  0  0
   48.6360   34.3260   42.4460 O   0  0  0  0  0  0  0  0  0  0  0  0
   49.7820   35.0990   42.3710 C   0  0  0  0  0  0  0  0  0  0  0  0
   49.3820   36.2290   42.0360 O   0  0  0  0  0  0  0  0  0  0  0  0
   50.9510   34.3200   42.7010 N   0  0  0  0  0  0  0  0  0  0  0  0
   51.0220   33.9580   43.6890 H   0  0  0  0  0  0  0  0  0  0  0  0
   51.7590   34.0530   42.0950 H   0  0  0  0  0  0  0  0  0  0  0  0
  1  2  2  0  0  0  0
  1  6  1  0  0  0  0
  2  3  1  0  0  0  0
  3  9  1  0  0  0  0
  3  4  2  0  0  0  0
  5  4  1  0  0  0  0
  5  8  1  0  0  0  0
  6  5  2  0  0  0  0
  7  1  1  0  0  0  0
  9 18  1  0  0  0  0
 10 11  1  0  0  0  0
 10  9  2  0  0  0  0
 11 12  2  0  0  0  0
 12 21  1  0  0  0  0
 12 13  1  0  0  0  0
 13 14  1  0  0  0  0
 14 22  1  0  0  0  0
 14 15  2  0  0  0  0
 15 23  1  0  0  0  0
 16 15  1  0  0  0  0
 16 24  1  0  0  0  0
 17 16  2  0  0  0  0
 18 13  2  0  0  0  0
 18 17  1  0  0  0  0
 19 10  1  0  0  0  0
 20 11  1  0  0  0  0
 25 17  1  0  0  0  0
 26  2  1  0  0  0  0
 28 27  2  6  0  0  0
 28 26  1  0  0  0  0
 28 37  1  0  0  0  0
 29 28  1  0  0  0  0
 30 29  1  0  0  0  0
 31 30  1  0  0  0  0
 32 31  2  0  0  0  0
 33 32  1  0  0  0  0
 34 32  1  0  0  0  0
 34 36  1  0  0  0  0
 35 34  1  0  0  0  0
 36 30  2  0  0  0  0
 38 37  1  0  0  0  0
 38 40  1  0  0  0  0
 39 38  2  0  0  0  0
 40 41  1  0  0  0  0
 42 40  1  0  0  0  0
M  END
>  <minimizedAffinity>
-6.11853075

>  <minimizedRMSD>
0.78783083

$$$$
