REMARK  Name = 
REMARK  3 active torsions:
REMARK  status: ('A' for Active; 'I' for Inactive)
REMARK    1  A    between atoms: C_2  and  C_12
REMARK    2  A    between atoms: C_10  and  O_16
REMARK    3  A    between atoms: O_16  and  C_24
REMARK                            x       y       z     vdW  Elec       q    Type
REMARK                         _______ _______ _______ _____ _____    ______ ____
ROOT
ATOM      1  C   UNL     1      45.125  34.613  45.315  0.00  0.00    +0.000 A 
ATOM      2  C   UNL     1      45.519  34.879  43.980  0.00  0.00    +0.000 A 
ATOM      3  C   UNL     1      46.547  34.099  43.453  0.00  0.00    +0.000 A 
ATOM      4  N   UNL     1      47.100  33.154  44.221  0.00  0.00    +0.000 NA
ATOM      5  C   UNL     1      46.707  32.917  45.494  0.00  0.00    +0.000 A 
ATOM      6  N   UNL     1      45.726  33.649  46.022  0.00  0.00    +0.000 NA
ATOM      7  H   UNL     1      45.079  35.634  43.364  0.00  0.00    +0.000 HD
ATOM      8  H   UNL     1      47.176  32.150  46.075  0.00  0.00    +0.000 HD
ENDROOT
BRANCH   3  10
ATOM      9  C   UNL     1      48.173  35.059  41.935  0.00  0.00    +0.000 A 
ATOM     10  C   UNL     1      47.061  34.256  42.095  0.00  0.00    +0.000 A 
ATOM     11  C   UNL     1      46.511  33.660  40.982  0.00  0.00    +0.000 A 
ATOM     12  C   UNL     1      47.031  33.838  39.721  0.00  0.00    +0.000 A 
ATOM     13  N   UNL     1      46.672  33.368  38.500  0.00  0.00    +0.000 N 
ATOM     14  C   UNL     1      47.545  33.866  37.576  0.00  0.00    +0.000 A 
ATOM     15  N   UNL     1      48.429  34.635  38.239  0.00  0.00    +0.000 NA
ATOM     16  C   UNL     1      48.141  34.638  39.555  0.00  0.00    +0.000 A 
ATOM     17  C   UNL     1      48.704  35.241  40.654  0.00  0.00    +0.000 A 
ATOM     18  H   UNL     1      48.692  35.579  42.734  0.00  0.00    +0.000 HD
ATOM     19  H   UNL     1      45.652  33.050  41.168  0.00  0.00    +0.000 HD
ATOM     20  H   UNL     1      45.843  32.732  38.396  0.00  0.00    +0.000 HD
ATOM     21  H   UNL     1      47.372  33.566  36.552  0.00  0.00    +0.000 HD
ATOM     22  H   UNL     1      49.572  35.860  40.481  0.00  0.00    +0.000 HD
ENDBRANCH   3  10
BRANCH   1  23
ATOM     23  O   UNL     1      44.094  35.400  45.836  0.00  0.00    +0.000 OA
BRANCH  23  24
ATOM     24  C   UNL     1      43.611  35.256  47.107  0.00  0.00    +0.000 A 
ATOM     25  N   UNL     1      42.288  34.945  47.210  0.00  0.00    +0.000 NA
ATOM     26  C   UNL     1      41.986  34.842  48.528  0.00  0.00    +0.000 A 
ATOM     27  H   UNL     1      40.987  34.599  48.922  0.00  0.00    +0.000 HD
ATOM     28  N   UNL     1      43.110  35.087  49.223  0.00  0.00    +0.000 N 
ATOM     29  H   UNL     1      43.191  35.080  50.262  0.00  0.00    +0.000 HD
ATOM     30  N   UNL     1      44.084  35.335  48.361  0.00  0.00    +0.000 NA
ENDBRANCH  23  24
ENDBRANCH   1  23
TORSDOF 3
