
     RDKit          3D

 33 35  0  0  0  0  0  0  0  0999 V2000
   45.2256   36.1225   43.0221 C   0  0  0  0  0  0  0  0  0  0  0  0
   44.2150   35.7902   42.0891 C   0  0  0  0  0  0  0  0  0  0  0  0
   44.4721   34.6992   41.2290 C   0  0  0  0  0  0  0  0  0  0  0  0
   45.6515   34.0426   41.3427 N   0  0  0  0  0  0  0  0  0  0  0  0
   46.5821   34.4029   42.2525 C   0  0  0  0  0  0  0  0  0  0  0  0
   46.3747   35.4394   43.0925 N   0  0  0  0  0  0  0  0  0  0  0  0
   49.0562   35.9249   41.3784 Cl  0  0  0  0  0  0  0  0  0  0  0  0
   49.0108   34.2748   41.9076 C   0  0  0  0  0  0  0  0  0  0  0  0
   47.8277   33.6307   42.2991 C   0  0  0  0  0  0  0  0  0  0  0  0
   47.7681   32.3297   42.7201 C   0  0  0  0  0  0  0  0  0  0  0  0
   48.9534   31.6393   42.7505 C   0  0  0  0  0  0  0  0  0  0  0  0
   50.1833   32.1717   42.3869 C   0  0  0  0  0  0  0  0  0  0  0  0
   50.1476   33.4977   41.9730 C   0  0  0  0  0  0  0  0  0  0  0  0
   44.9404   37.2575   43.9061 C   0  0  0  0  0  0  0  0  0  0  0  0
   45.5160   38.4044   43.6380 C   0  0  0  0  0  0  0  0  0  0  0  0
   45.2796   39.6074   44.4864 C   0  0  0  0  0  0  0  0  0  0  0  0
   43.2835   36.2877   41.9796 H   0  0  0  0  0  0  0  0  0  0  0  0
   43.7856   34.3510   40.4808 H   0  0  0  0  0  0  0  0  0  0  0  0
   46.8355   31.8740   43.0123 H   0  0  0  0  0  0  0  0  0  0  0  0
   48.9483   30.6127   43.0760 H   0  0  0  0  0  0  0  0  0  0  0  0
   51.1097   31.6243   42.4130 H   0  0  0  0  0  0  0  0  0  0  0  0
   51.0815   33.9595   41.6788 H   0  0  0  0  0  0  0  0  0  0  0  0
   44.2771   37.1364   44.7443 H   0  0  0  0  0  0  0  0  0  0  0  0
   46.1731   38.4562   42.7776 H   0  0  0  0  0  0  0  0  0  0  0  0
   44.8376   40.4220   43.8869 H   0  0  0  0  0  0  0  0  0  0  0  0
   46.2514   39.9483   44.9198 H   0  0  0  0  0  0  0  0  0  0  0  0
   44.3423   39.1969   45.5655 C   0  0  0  0  0  0  0  0  0  0  0  0
   43.4121   39.8902   46.2473 N   0  0  0  0  0  0  0  0  0  0  0  0
   42.7945   39.0894   47.1459 C   0  0  0  0  0  0  0  0  0  0  0  0
   42.0058   39.4268   47.8124 H   0  0  0  0  0  0  0  0  0  0  0  0
   43.3666   37.8608   47.0104 N   0  0  0  0  0  0  0  0  0  0  0  0
   43.0797   37.0304   47.5900 H   0  0  0  0  0  0  0  0  0  0  0  0
   44.2905   37.9292   46.0656 N   0  0  0  0  0  0  0  0  0  0  0  0
  1  6  1  0
  1 14  1  0
  2  1  2  0
  3  4  2  0
  3  2  1  0
  4  5  1  0
  5  9  1  0
  5  6  2  0
  7  8  1  0
  8 13  2  0
  8  9  1  0
  9 10  2  0
 10 11  1  0
 12 11  2  0
 13 12  1  0
 15 14  2  0
 15 16  1  0
  2 17  1  0
  3 18  1  0
 10 19  1  0
 11 20  1  0
 12 21  1  0
 13 22  1  0
 14 23  1  0
 15 24  1  0
 16 25  1  0
 16 26  1  0
 27 28  1  0
 28 29  2  0
 29 30  1  0
 29 31  1  0
 31 32  1  0
 31 33  1  0
 33 27  2  0
 16 27  1  0
M  ISO  8  17  14  18  14  19  14  20  14  21  14  22  14  25   8  26   8
M  ISO  2  30  14  32   9
M  END
>  <DihAtoms>  (1) 
14,15,26,27

>  <DihDeg>  (1) 
89.99765724697416

$$$$
