
 OpenBabel03252503343D

 20 21  0  0  0  0  0  0  0  0999 V2000
   46.4780   34.0610   40.9320 C   0  0  0  0  0  0  0  0  0  0  0  0
   45.4400   33.3810   41.1410 O   0  0  0  0  0  0  0  0  0  0  0  0
   46.8960   34.8700   42.0200 N   0  0  0  0  0  0  0  0  0  0  0  0
   47.7730   35.4670   41.9680 H   0  0  0  0  0  0  0  0  0  0  0  0
   44.5030   35.8750   44.6990 C   0  0  0  0  0  0  0  0  0  0  0  0
   45.1860   35.9070   43.4760 C   0  0  0  0  0  0  0  0  0  0  0  0
   46.1520   34.9150   43.2370 C   0  0  0  0  0  0  0  0  0  0  0  0
   46.3890   33.9680   44.1860 N   0  0  0  0  0  0  0  0  0  0  0  0
   45.6980   33.9790   45.3600 C   0  0  0  0  0  0  0  0  0  0  0  0
   44.7680   34.9220   45.6070 N   0  0  0  0  0  0  0  0  0  0  0  0
   43.7860   36.6580   44.8100 H   0  0  0  0  0  0  0  0  0  0  0  0
   44.9990   36.6590   42.7180 H   0  0  0  0  0  0  0  0  0  0  0  0
   45.8710   33.2390   46.1250 H   0  0  0  0  0  0  0  0  0  0  0  0
   47.2190   34.0450   39.6800 C   0  0  0  0  0  0  0  0  0  0  0  0
   46.9390   33.3340   38.5740 N   0  0  0  0  0  0  0  0  0  0  0  0
   47.8790   33.6030   37.6210 C   0  0  0  0  0  0  0  0  0  0  0  0
   47.9300   33.1870   36.6240 H   0  0  0  0  0  0  0  0  0  0  0  0
   48.7280   34.4880   38.1720 N   0  0  0  0  0  0  0  0  0  0  0  0
   49.5800   34.9190   37.7200 H   0  0  0  0  0  0  0  0  0  0  0  0
   48.3180   34.7500   39.4240 N   0  0  0  0  0  0  0  0  0  0  0  0
  1  2  2  0  0  0  0
  1  3  1  0  0  0  0
  3  7  1  0  0  0  0
  4  3  1  0  0  0  0
  5 11  1  0  0  0  0
  5 10  1  0  0  0  0
  6  5  2  0  0  0  0
  7  6  1  0  0  0  0
  7  8  2  0  0  0  0
  8  9  1  0  0  0  0
  9 10  2  0  0  0  0
  9 13  1  0  0  0  0
 12  6  1  0  0  0  0
 14  1  1  0  0  0  0
 15 14  1  0  0  0  0
 16 18  1  0  0  0  0
 16 15  2  0  0  0  0
 17 16  1  0  0  0  0
 18 20  1  0  0  0  0
 19 18  1  0  0  0  0
 20 14  2  0  0  0  0
M  END
>  <minimizedAffinity>
-4.37161064

>  <minimizedRMSD>
0.390781194

$$$$
