
 OpenBabel03252501323D

 22 23  0  0  0  0  0  0  0  0999 V2000
   45.6210   34.0930   44.4890 C   0  0  0  0  0  0  0  0  0  0  0  0
   45.3400   34.1190   45.8420 C   0  0  0  0  0  0  0  0  0  0  0  0
   46.0800   33.2540   46.6400 C   0  0  0  0  0  0  0  0  0  0  0  0
   46.9950   32.4720   46.0520 N   0  0  0  0  0  0  0  0  0  0  0  0
   47.2430   32.4720   44.7280 C   0  0  0  0  0  0  0  0  0  0  0  0
   46.5470   33.3000   43.9110 N   0  0  0  0  0  0  0  0  0  0  0  0
   45.8510   33.2840   47.6900 H   0  0  0  0  0  0  0  0  0  0  0  0
   48.0080   31.7890   44.4060 H   0  0  0  0  0  0  0  0  0  0  0  0
   44.1540   34.0620   42.6560 C   0  0  0  0  0  0  0  0  0  0  0  0
   44.2360   32.8440   42.9980 O   0  0  0  0  0  0  0  0  0  0  0  0
   44.9650   34.9150   43.4830 N   0  0  0  0  0  0  0  0  0  0  0  0
   45.0170   35.9240   43.3250 H   0  0  0  0  0  0  0  0  0  0  0  0
   43.3510   34.6070   41.5660 C   0  0  0  0  0  0  0  0  0  0  0  0
   42.1030   35.0960   41.4890 N   0  0  0  0  0  0  0  0  0  0  0  0
   41.8480   35.4780   40.2030 C   0  0  0  0  0  0  0  0  0  0  0  0
   40.8410   35.8770   40.1200 H   0  0  0  0  0  0  0  0  0  0  0  0
   42.9710   35.2100   39.4980 N   0  0  0  0  0  0  0  0  0  0  0  0
   42.8940   35.4650   38.4870 H   0  0  0  0  0  0  0  0  0  0  0  0
   43.8710   34.6870   40.3260 N   0  0  0  0  0  0  0  0  0  0  0  0
   44.3320   35.0190   46.2710 N   0  0  0  0  0  0  0  0  0  0  0  0
   43.4990   35.1680   45.6600 H   0  0  0  0  0  0  0  0  0  0  0  0
   44.2900   35.5830   47.1390 H   0  0  0  0  0  0  0  0  0  0  0  0
  1  2  1  0  0  0  0
  2 20  1  0  0  0  0
  2  3  2  0  0  0  0
  3  7  1  0  0  0  0
  4  3  1  0  0  0  0
  5  4  2  0  0  0  0
  6  1  2  0  0  0  0
  6  5  1  0  0  0  0
  8  5  1  0  0  0  0
  9 10  2  0  0  0  0
  9 11  1  0  0  0  0
 11  1  1  0  0  0  0
 12 11  1  0  0  0  0
 13  9  1  0  0  0  0
 14 13  1  0  0  0  0
 15 14  2  0  0  0  0
 16 15  1  0  0  0  0
 17 15  1  0  0  0  0
 17 19  1  0  0  0  0
 18 17  1  0  0  0  0
 19 13  2  0  0  0  0
 20 22  1  0  0  0  0
 21 20  1  0  0  0  0
M  END
>  <minimizedAffinity>
-4.39061546

>  <minimizedRMSD>
1.7673465

$$$$
