
 OpenBabel03252501323D

 22 23  0  0  0  0  0  0  0  0999 V2000
   45.7590   35.0020   42.8360 C   0  0  0  0  0  0  0  0  0  0  0  0
   45.9770   34.1360   43.8920 C   0  0  0  0  0  0  0  0  0  0  0  0
   47.2610   33.6200   44.0090 C   0  0  0  0  0  0  0  0  0  0  0  0
   48.1800   33.9920   43.1090 N   0  0  0  0  0  0  0  0  0  0  0  0
   47.9350   34.8400   42.0910 C   0  0  0  0  0  0  0  0  0  0  0  0
   46.6960   35.3680   41.9380 N   0  0  0  0  0  0  0  0  0  0  0  0
   47.4160   32.9480   44.8330 H   0  0  0  0  0  0  0  0  0  0  0  0
   48.7750   35.0430   41.4510 H   0  0  0  0  0  0  0  0  0  0  0  0
   43.8100   34.8750   41.5340 C   0  0  0  0  0  0  0  0  0  0  0  0
   44.4830   33.8650   41.1690 O   0  0  0  0  0  0  0  0  0  0  0  0
   44.4920   35.6510   42.5350 N   0  0  0  0  0  0  0  0  0  0  0  0
   44.0840   36.5060   42.9210 H   0  0  0  0  0  0  0  0  0  0  0  0
   42.4930   35.2660   41.0410 C   0  0  0  0  0  0  0  0  0  0  0  0
   41.3630   35.6750   41.6400 N   0  0  0  0  0  0  0  0  0  0  0  0
   40.4120   35.9140   40.6910 C   0  0  0  0  0  0  0  0  0  0  0  0
   39.4890   36.2470   41.1570 H   0  0  0  0  0  0  0  0  0  0  0  0
   40.9890   35.6420   39.4980 N   0  0  0  0  0  0  0  0  0  0  0  0
   40.3460   35.7910   38.6870 H   0  0  0  0  0  0  0  0  0  0  0  0
   42.2400   35.2520   39.7180 N   0  0  0  0  0  0  0  0  0  0  0  0
   44.8710   33.8660   44.7380 N   0  0  0  0  0  0  0  0  0  0  0  0
   43.9200   33.7900   44.3130 H   0  0  0  0  0  0  0  0  0  0  0  0
   44.8560   33.7260   45.7640 H   0  0  0  0  0  0  0  0  0  0  0  0
  1  2  1  0  0  0  0
  2  3  2  0  0  0  0
  2 20  1  0  0  0  0
  3  7  1  0  0  0  0
  4  3  1  0  0  0  0
  5  4  2  0  0  0  0
  6  5  1  0  0  0  0
  6  1  2  0  0  0  0
  8  5  1  0  0  0  0
  9 11  1  0  0  0  0
 10  9  2  0  0  0  0
 11  1  1  0  0  0  0
 11 12  1  0  0  0  0
 13  9  1  0  0  0  0
 13 14  1  0  0  0  0
 15 16  1  0  0  0  0
 15 14  2  0  0  0  0
 17 19  1  0  0  0  0
 17 15  1  0  0  0  0
 18 17  1  0  0  0  0
 19 13  2  0  0  0  0
 20 22  1  0  0  0  0
 21 20  1  0  0  0  0
M  END
>  <minimizedAffinity>
-4.32682323

>  <minimizedRMSD>
2.53214455

$$$$
