
 OpenBabel03242516103D

 23 25  0  0  0  0  0  0  0  0999 V2000
   35.6130   29.1300   39.6840 C   0  0  0  0  0  0  0  0  0  0  0  0
   34.9950   28.7680   38.3830 C   0  0  0  0  0  0  0  0  0  0  0  0
   34.1330   29.1000   39.5330 C   0  0  0  0  0  0  0  0  0  0  0  0
   35.0140   29.4810   37.5300 H   0  0  0  0  0  0  0  0  0  0  0  0
   35.0400   27.7000   38.0880 H   0  0  0  0  0  0  0  0  0  0  0  0
   33.5460   30.0520   39.5650 H   0  0  0  0  0  0  0  0  0  0  0  0
   33.6060   28.3040   40.1140 H   0  0  0  0  0  0  0  0  0  0  0  0
   36.7790   26.9090   39.8460 C   0  0  0  0  0  0  0  0  0  0  0  0
   36.2740   28.0500   40.4730 C   0  0  0  0  0  0  0  0  0  0  0  0
   36.4060   28.1570   41.8750 C   0  0  0  0  0  0  0  0  0  0  0  0
   37.0270   27.1280   42.5490 N   0  0  0  0  0  0  0  0  0  0  0  0
   37.4970   26.0520   41.9160 C   0  0  0  0  0  0  0  0  0  0  0  0
   37.3750   25.9420   40.5750 N   0  0  0  0  0  0  0  0  0  0  0  0
   36.6790   26.8230   38.7740 H   0  0  0  0  0  0  0  0  0  0  0  0
   36.0080   29.0490   42.3380 H   0  0  0  0  0  0  0  0  0  0  0  0
   37.9710   25.2870   42.5160 H   0  0  0  0  0  0  0  0  0  0  0  0
   36.1850   30.4690   39.9110 C   0  0  0  0  0  0  0  0  0  0  0  0
   36.7730   31.0620   38.8480 N   0  0  0  0  0  0  0  0  0  0  0  0
   37.2500   32.2660   39.1850 C   0  0  0  0  0  0  0  0  0  0  0  0
   37.7700   32.9490   38.5080 H   0  0  0  0  0  0  0  0  0  0  0  0
   36.9470   32.4240   40.5050 N   0  0  0  0  0  0  0  0  0  0  0  0
   37.2160   33.2870   41.0030 H   0  0  0  0  0  0  0  0  0  0  0  0
   36.3120   31.3320   40.9020 N   0  0  0  0  0  0  0  0  0  0  0  0
  1 17  1  0  0  0  0
  1  9  1  0  0  0  0
  2  3  1  0  0  0  0
  2  1  1  0  0  0  0
  3  6  1  0  0  0  0
  3  1  1  0  0  0  0
  3  7  1  0  0  0  0
  4  2  1  0  0  0  0
  5  2  1  0  0  0  0
  8  9  2  0  0  0  0
  8 13  1  0  0  0  0
  9 10  1  0  0  0  0
 10 15  1  0  0  0  0
 10 11  2  0  0  0  0
 12 16  1  0  0  0  0
 12 11  1  0  0  0  0
 13 12  2  0  0  0  0
 14  8  1  0  0  0  0
 17 23  2  0  0  0  0
 18 19  2  0  0  0  0
 18 17  1  0  0  0  0
 19 21  1  0  0  0  0
 20 19  1  0  0  0  0
 21 23  1  0  0  0  0
 21 22  1  0  0  0  0
M  END
>  <minimizedAffinity>
-4.40294027

$$$$

 OpenBabel03242516103D

 23 25  0  0  0  0  0  0  0  0999 V2000
   37.3740   27.1760   42.5240 C   0  0  0  0  0  0  0  0  0  0  0  0
   37.6240   28.0770   43.6770 C   0  0  0  0  0  0  0  0  0  0  0  0
   36.3230   27.3940   43.5540 C   0  0  0  0  0  0  0  0  0  0  0  0
   38.2960   27.7620   44.5060 H   0  0  0  0  0  0  0  0  0  0  0  0
   37.6350   29.1660   43.4680 H   0  0  0  0  0  0  0  0  0  0  0  0
   36.0340   26.5630   44.2450 H   0  0  0  0  0  0  0  0  0  0  0  0
   35.4110   27.9380   43.2030 H   0  0  0  0  0  0  0  0  0  0  0  0
   37.6860   29.0700   40.9000 C   0  0  0  0  0  0  0  0  0  0  0  0
   37.1950   27.7920   41.1760 C   0  0  0  0  0  0  0  0  0  0  0  0
   36.5250   27.0950   40.1470 C   0  0  0  0  0  0  0  0  0  0  0  0
   36.3910   27.7150   38.9240 N   0  0  0  0  0  0  0  0  0  0  0  0
   36.8730   28.9380   38.6970 C   0  0  0  0  0  0  0  0  0  0  0  0
   37.5150   29.6110   39.6750 N   0  0  0  0  0  0  0  0  0  0  0  0
   38.1980   29.6060   41.6840 H   0  0  0  0  0  0  0  0  0  0  0  0
   36.1540   26.1080   40.3850 H   0  0  0  0  0  0  0  0  0  0  0  0
   36.7270   29.3560   37.7100 H   0  0  0  0  0  0  0  0  0  0  0  0
   37.9310   25.8120   42.4860 C   0  0  0  0  0  0  0  0  0  0  0  0
   39.2270   25.6800   42.8460 N   0  0  0  0  0  0  0  0  0  0  0  0
   39.6090   24.3990   42.7680 C   0  0  0  0  0  0  0  0  0  0  0  0
   40.6070   24.0250   43.0060 H   0  0  0  0  0  0  0  0  0  0  0  0
   38.5080   23.7140   42.3440 N   0  0  0  0  0  0  0  0  0  0  0  0
   38.5500   22.6920   42.2050 H   0  0  0  0  0  0  0  0  0  0  0  0
   37.5280   24.5910   42.1870 N   0  0  0  0  0  0  0  0  0  0  0  0
  1  3  1  0  0  0  0
  1  2  1  0  0  0  0
  2  4  1  0  0  0  0
  3  2  1  0  0  0  0
  3  6  1  0  0  0  0
  5  2  1  0  0  0  0
  7  3  1  0  0  0  0
  8  9  1  0  0  0  0
  8 14  1  0  0  0  0
  9  1  1  0  0  0  0
 10 15  1  0  0  0  0
 10  9  2  0  0  0  0
 11 10  1  0  0  0  0
 12 11  2  0  0  0  0
 12 13  1  0  0  0  0
 13  8  2  0  0  0  0
 16 12  1  0  0  0  0
 17  1  1  0  0  0  0
 17 18  1  0  0  0  0
 19 18  2  0  0  0  0
 19 20  1  0  0  0  0
 21 19  1  0  0  0  0
 22 21  1  0  0  0  0
 23 21  1  0  0  0  0
 23 17  2  0  0  0  0
M  END
>  <minimizedAffinity>
-4.22753525

$$$$

 OpenBabel03242516103D

 23 25  0  0  0  0  0  0  0  0999 V2000
   37.9890   26.1090   41.9810 C   0  0  0  0  0  0  0  0  0  0  0  0
   37.3110   25.4800   40.8200 C   0  0  0  0  0  0  0  0  0  0  0  0
   36.9840   25.0310   42.1860 C   0  0  0  0  0  0  0  0  0  0  0  0
   36.5260   26.0320   40.2560 H   0  0  0  0  0  0  0  0  0  0  0  0
   37.9170   24.7880   40.2010 H   0  0  0  0  0  0  0  0  0  0  0  0
   35.9960   25.2670   42.6560 H   0  0  0  0  0  0  0  0  0  0  0  0
   37.3850   24.0710   42.5940 H   0  0  0  0  0  0  0  0  0  0  0  0
   39.9770   25.8170   43.4920 C   0  0  0  0  0  0  0  0  0  0  0  0
   39.4310   25.7960   42.2070 C   0  0  0  0  0  0  0  0  0  0  0  0
   40.2770   25.4690   41.1250 C   0  0  0  0  0  0  0  0  0  0  0  0
   41.5990   25.1880   41.3970 N   0  0  0  0  0  0  0  0  0  0  0  0
   42.0850   25.2190   42.6390 C   0  0  0  0  0  0  0  0  0  0  0  0
   41.2830   25.5300   43.6790 N   0  0  0  0  0  0  0  0  0  0  0  0
   39.3330   26.0670   44.3220 H   0  0  0  0  0  0  0  0  0  0  0  0
   39.8320   25.4590   40.1400 H   0  0  0  0  0  0  0  0  0  0  0  0
   43.1340   24.9870   42.7690 H   0  0  0  0  0  0  0  0  0  0  0  0
   37.5830   27.4360   42.4760 C   0  0  0  0  0  0  0  0  0  0  0  0
   37.7090   28.4660   41.6100 N   0  0  0  0  0  0  0  0  0  0  0  0
   37.3100   29.6110   42.1790 C   0  0  0  0  0  0  0  0  0  0  0  0
   37.3100   30.5890   41.6920 H   0  0  0  0  0  0  0  0  0  0  0  0
   36.9240   29.2760   43.4440 N   0  0  0  0  0  0  0  0  0  0  0  0
   36.5710   29.9990   44.0910 H   0  0  0  0  0  0  0  0  0  0  0  0
   37.1010   27.9710   43.5830 N   0  0  0  0  0  0  0  0  0  0  0  0
  1  3  1  0  0  0  0
  1  9  1  0  0  0  0
  1 17  1  0  0  0  0
  2  1  1  0  0  0  0
  2  3  1  0  0  0  0
  3  7  1  0  0  0  0
  3  6  1  0  0  0  0
  4  2  1  0  0  0  0
  5  2  1  0  0  0  0
  8 13  1  0  0  0  0
  8 14  1  0  0  0  0
  9  8  2  0  0  0  0
 10 11  2  0  0  0  0
 10  9  1  0  0  0  0
 11 12  1  0  0  0  0
 12 16  1  0  0  0  0
 12 13  2  0  0  0  0
 15 10  1  0  0  0  0
 17 23  2  0  0  0  0
 18 19  2  0  0  0  0
 18 17  1  0  0  0  0
 19 21  1  0  0  0  0
 20 19  1  0  0  0  0
 21 23  1  0  0  0  0
 21 22  1  0  0  0  0
M  END
>  <minimizedAffinity>
-4.14056253

$$$$

 OpenBabel03242516103D

 23 25  0  0  0  0  0  0  0  0999 V2000
   37.3570   27.8600   42.3330 C   0  0  0  0  0  0  0  0  0  0  0  0
   36.7780   26.5170   42.5920 C   0  0  0  0  0  0  0  0  0  0  0  0
   36.8280   27.5120   43.6800 C   0  0  0  0  0  0  0  0  0  0  0  0
   35.7780   26.2450   42.1870 H   0  0  0  0  0  0  0  0  0  0  0  0
   37.4900   25.6700   42.6600 H   0  0  0  0  0  0  0  0  0  0  0  0
   35.8980   28.0040   44.0610 H   0  0  0  0  0  0  0  0  0  0  0  0
   37.5910   27.4460   44.4940 H   0  0  0  0  0  0  0  0  0  0  0  0
   39.5350   27.0130   41.4060 C   0  0  0  0  0  0  0  0  0  0  0  0
   38.8340   27.9650   42.1490 C   0  0  0  0  0  0  0  0  0  0  0  0
   39.5590   29.0320   42.7230 C   0  0  0  0  0  0  0  0  0  0  0  0
   40.9210   29.0760   42.5180 N   0  0  0  0  0  0  0  0  0  0  0  0
   41.5570   28.1480   41.8010 C   0  0  0  0  0  0  0  0  0  0  0  0
   40.8710   27.1240   41.2490 N   0  0  0  0  0  0  0  0  0  0  0  0
   38.9840   26.1950   40.9660 H   0  0  0  0  0  0  0  0  0  0  0  0
   38.9950   29.7570   43.2940 H   0  0  0  0  0  0  0  0  0  0  0  0
   42.6270   28.2530   41.6870 H   0  0  0  0  0  0  0  0  0  0  0  0
   36.5920   28.8960   41.6160 C   0  0  0  0  0  0  0  0  0  0  0  0
   35.7420   28.4630   40.6590 N   0  0  0  0  0  0  0  0  0  0  0  0
   35.1120   29.4960   40.0850 C   0  0  0  0  0  0  0  0  0  0  0  0
   34.3740   29.4170   39.2840 H   0  0  0  0  0  0  0  0  0  0  0  0
   35.5930   30.6090   40.7110 N   0  0  0  0  0  0  0  0  0  0  0  0
   35.2540   31.5470   40.4410 H   0  0  0  0  0  0  0  0  0  0  0  0
   36.4720   30.2100   41.6170 N   0  0  0  0  0  0  0  0  0  0  0  0
  1  2  1  0  0  0  0
  1  3  1  0  0  0  0
  2  5  1  0  0  0  0
  2  3  1  0  0  0  0
  3  6  1  0  0  0  0
  3  7  1  0  0  0  0
  4  2  1  0  0  0  0
  8  9  1  0  0  0  0
  9  1  1  0  0  0  0
  9 10  2  0  0  0  0
 10 15  1  0  0  0  0
 11 10  1  0  0  0  0
 12 11  2  0  0  0  0
 13  8  2  0  0  0  0
 13 12  1  0  0  0  0
 14  8  1  0  0  0  0
 16 12  1  0  0  0  0
 17 23  2  0  0  0  0
 17  1  1  0  0  0  0
 18 17  1  0  0  0  0
 19 18  2  0  0  0  0
 19 21  1  0  0  0  0
 20 19  1  0  0  0  0
 21 23  1  0  0  0  0
 22 21  1  0  0  0  0
M  END
>  <minimizedAffinity>
-4.08808994

$$$$

 OpenBabel03242516103D

 23 25  0  0  0  0  0  0  0  0999 V2000
   38.9080   30.4340   40.5210 C   0  0  0  0  0  0  0  0  0  0  0  0
   40.3800   30.2820   40.4050 C   0  0  0  0  0  0  0  0  0  0  0  0
   39.5120   29.8370   39.2990 C   0  0  0  0  0  0  0  0  0  0  0  0
   41.0290   31.1680   40.2280 H   0  0  0  0  0  0  0  0  0  0  0  0
   40.8510   29.4870   41.0180 H   0  0  0  0  0  0  0  0  0  0  0  0
   39.4780   30.3910   38.3280 H   0  0  0  0  0  0  0  0  0  0  0  0
   39.2910   28.7540   39.1330 H   0  0  0  0  0  0  0  0  0  0  0  0
   37.0950   28.7730   41.0450 C   0  0  0  0  0  0  0  0  0  0  0  0
   38.1810   29.5410   41.4700 C   0  0  0  0  0  0  0  0  0  0  0  0
   38.5770   29.4500   42.8230 C   0  0  0  0  0  0  0  0  0  0  0  0
   37.8680   28.6070   43.6510 N   0  0  0  0  0  0  0  0  0  0  0  0
   36.8340   27.8880   43.2080 C   0  0  0  0  0  0  0  0  0  0  0  0
   36.4500   27.9700   41.9170 N   0  0  0  0  0  0  0  0  0  0  0  0
   36.7890   28.8410   40.0120 H   0  0  0  0  0  0  0  0  0  0  0  0
   39.4200   30.0520   43.1280 H   0  0  0  0  0  0  0  0  0  0  0  0
   36.3290   27.2510   43.9210 H   0  0  0  0  0  0  0  0  0  0  0  0
   38.2570   31.7400   40.3150 C   0  0  0  0  0  0  0  0  0  0  0  0
   38.9940   32.8340   40.6060 N   0  0  0  0  0  0  0  0  0  0  0  0
   38.2920   33.9510   40.3780 C   0  0  0  0  0  0  0  0  0  0  0  0
   38.6590   34.9680   40.5330 H   0  0  0  0  0  0  0  0  0  0  0  0
   37.0740   33.5310   39.9300 N   0  0  0  0  0  0  0  0  0  0  0  0
   36.3430   34.2170   39.6820 H   0  0  0  0  0  0  0  0  0  0  0  0
   37.0920   32.2070   39.9050 N   0  0  0  0  0  0  0  0  0  0  0  0
  1  9  1  0  0  0  0
  2  1  1  0  0  0  0
  2  5  1  0  0  0  0
  3  2  1  0  0  0  0
  3  1  1  0  0  0  0
  4  2  1  0  0  0  0
  6  3  1  0  0  0  0
  7  3  1  0  0  0  0
  8  9  2  0  0  0  0
  8 13  1  0  0  0  0
  9 10  1  0  0  0  0
 10 15  1  0  0  0  0
 10 11  2  0  0  0  0
 12 11  1  0  0  0  0
 12 16  1  0  0  0  0
 13 12  2  0  0  0  0
 14  8  1  0  0  0  0
 17  1  1  0  0  0  0
 17 18  1  0  0  0  0
 19 20  1  0  0  0  0
 19 18  2  0  0  0  0
 21 19  1  0  0  0  0
 22 21  1  0  0  0  0
 23 21  1  0  0  0  0
 23 17  2  0  0  0  0
M  END
>  <minimizedAffinity>
-4.05854416

$$$$

 OpenBabel03242516103D

 23 25  0  0  0  0  0  0  0  0999 V2000
   38.8440   29.6500   41.8750 C   0  0  0  0  0  0  0  0  0  0  0  0
   39.6300   30.6850   42.5930 C   0  0  0  0  0  0  0  0  0  0  0  0
   39.8510   30.4720   41.1510 C   0  0  0  0  0  0  0  0  0  0  0  0
   39.1530   31.6400   42.9070 H   0  0  0  0  0  0  0  0  0  0  0  0
   40.4250   30.3250   43.2760 H   0  0  0  0  0  0  0  0  0  0  0  0
   39.5190   31.2270   40.3940 H   0  0  0  0  0  0  0  0  0  0  0  0
   40.7450   29.9170   40.7750 H   0  0  0  0  0  0  0  0  0  0  0  0
   39.0420   27.6910   43.4380 C   0  0  0  0  0  0  0  0  0  0  0  0
   39.1550   28.2160   42.1490 C   0  0  0  0  0  0  0  0  0  0  0  0
   39.5690   27.3560   41.1090 C   0  0  0  0  0  0  0  0  0  0  0  0
   39.8410   26.0410   41.4230 N   0  0  0  0  0  0  0  0  0  0  0  0
   39.7220   25.5750   42.6680 C   0  0  0  0  0  0  0  0  0  0  0  0
   39.3270   26.3910   43.6680 N   0  0  0  0  0  0  0  0  0  0  0  0
   38.7270   28.3460   44.2360 H   0  0  0  0  0  0  0  0  0  0  0  0
   39.6480   27.7850   40.1200 H   0  0  0  0  0  0  0  0  0  0  0  0
   39.9550   24.5310   42.8330 H   0  0  0  0  0  0  0  0  0  0  0  0
   37.4460   29.8910   41.4780 C   0  0  0  0  0  0  0  0  0  0  0  0
   36.7390   28.8110   41.0760 N   0  0  0  0  0  0  0  0  0  0  0  0
   35.4910   29.1620   40.7430 C   0  0  0  0  0  0  0  0  0  0  0  0
   34.7180   28.4770   40.3860 H   0  0  0  0  0  0  0  0  0  0  0  0
   35.4240   30.5090   40.9460 N   0  0  0  0  0  0  0  0  0  0  0  0
   34.5480   31.0230   40.7570 H   0  0  0  0  0  0  0  0  0  0  0  0
   36.6080   30.9070   41.3850 N   0  0  0  0  0  0  0  0  0  0  0  0
  1  9  1  0  0  0  0
  1  2  1  0  0  0  0
  2  4  1  0  0  0  0
  2  5  1  0  0  0  0
  3  1  1  0  0  0  0
  3  2  1  0  0  0  0
  6  3  1  0  0  0  0
  7  3  1  0  0  0  0
  8 13  1  0  0  0  0
  8 14  1  0  0  0  0
  9  8  2  0  0  0  0
 10 11  2  0  0  0  0
 10  9  1  0  0  0  0
 11 12  1  0  0  0  0
 12 16  1  0  0  0  0
 12 13  2  0  0  0  0
 15 10  1  0  0  0  0
 17  1  1  0  0  0  0
 18 17  1  0  0  0  0
 19 21  1  0  0  0  0
 19 18  2  0  0  0  0
 20 19  1  0  0  0  0
 21 23  1  0  0  0  0
 22 21  1  0  0  0  0
 23 17  2  0  0  0  0
M  END
>  <minimizedAffinity>
-3.99428558

$$$$

 OpenBabel03242516103D

 23 25  0  0  0  0  0  0  0  0999 V2000
   36.3060   29.3860   39.7560 C   0  0  0  0  0  0  0  0  0  0  0  0
   35.5450   28.3580   39.0020 C   0  0  0  0  0  0  0  0  0  0  0  0
   34.8270   29.2920   39.8890 C   0  0  0  0  0  0  0  0  0  0  0  0
   35.3870   28.4630   37.9060 H   0  0  0  0  0  0  0  0  0  0  0  0
   35.6370   27.3100   39.3520 H   0  0  0  0  0  0  0  0  0  0  0  0
   34.1740   30.1010   39.4760 H   0  0  0  0  0  0  0  0  0  0  0  0
   34.4540   28.9700   40.8920 H   0  0  0  0  0  0  0  0  0  0  0  0
   37.3110   29.7280   42.0350 C   0  0  0  0  0  0  0  0  0  0  0  0
   37.1580   28.9350   40.8950 C   0  0  0  0  0  0  0  0  0  0  0  0
   37.8290   27.6930   40.8480 C   0  0  0  0  0  0  0  0  0  0  0  0
   38.6000   27.3310   41.9310 N   0  0  0  0  0  0  0  0  0  0  0  0
   38.7230   28.1150   43.0040 C   0  0  0  0  0  0  0  0  0  0  0  0
   38.0850   29.3040   43.0560 N   0  0  0  0  0  0  0  0  0  0  0  0
   36.8000   30.6780   42.0740 H   0  0  0  0  0  0  0  0  0  0  0  0
   37.6950   27.0970   39.9560 H   0  0  0  0  0  0  0  0  0  0  0  0
   39.3470   27.7600   43.8120 H   0  0  0  0  0  0  0  0  0  0  0  0
   36.7920   30.6130   39.0990 C   0  0  0  0  0  0  0  0  0  0  0  0
   37.3810   30.4570   37.8930 N   0  0  0  0  0  0  0  0  0  0  0  0
   37.7770   31.6390   37.4050 C   0  0  0  0  0  0  0  0  0  0  0  0
   38.2790   31.7890   36.4460 H   0  0  0  0  0  0  0  0  0  0  0  0
   37.4180   32.5600   38.3450 N   0  0  0  0  0  0  0  0  0  0  0  0
   37.6190   33.5630   38.1980 H   0  0  0  0  0  0  0  0  0  0  0  0
   36.8330   31.9100   39.3390 N   0  0  0  0  0  0  0  0  0  0  0  0
  1  3  1  0  0  0  0
  1  9  1  0  0  0  0
  2  5  1  0  0  0  0
  2  1  1  0  0  0  0
  2  3  1  0  0  0  0
  3  7  1  0  0  0  0
  4  2  1  0  0  0  0
  6  3  1  0  0  0  0
  8 14  1  0  0  0  0
  8 13  1  0  0  0  0
  9  8  2  0  0  0  0
 10  9  1  0  0  0  0
 10 11  2  0  0  0  0
 11 12  1  0  0  0  0
 12 13  2  0  0  0  0
 12 16  1  0  0  0  0
 15 10  1  0  0  0  0
 17 23  2  0  0  0  0
 17  1  1  0  0  0  0
 18 17  1  0  0  0  0
 19 18  2  0  0  0  0
 19 21  1  0  0  0  0
 20 19  1  0  0  0  0
 21 23  1  0  0  0  0
 22 21  1  0  0  0  0
M  END
>  <minimizedAffinity>
-3.95198679

$$$$

 OpenBabel03242516103D

 23 25  0  0  0  0  0  0  0  0999 V2000
   37.3360   31.2370   39.1800 C   0  0  0  0  0  0  0  0  0  0  0  0
   38.4650   32.1440   38.8530 C   0  0  0  0  0  0  0  0  0  0  0  0
   37.1450   32.7120   39.1840 C   0  0  0  0  0  0  0  0  0  0  0  0
   39.2920   32.3020   39.5800 H   0  0  0  0  0  0  0  0  0  0  0  0
   38.7750   32.1930   37.7900 H   0  0  0  0  0  0  0  0  0  0  0  0
   36.9690   33.2530   40.1470 H   0  0  0  0  0  0  0  0  0  0  0  0
   36.4680   33.1110   38.3890 H   0  0  0  0  0  0  0  0  0  0  0  0
   37.2810   30.4610   36.7900 C   0  0  0  0  0  0  0  0  0  0  0  0
   36.7320   30.4390   38.0730 C   0  0  0  0  0  0  0  0  0  0  0  0
   35.5880   29.6420   38.2990 C   0  0  0  0  0  0  0  0  0  0  0  0
   35.0760   28.9270   37.2370 N   0  0  0  0  0  0  0  0  0  0  0  0
   35.6280   28.9720   36.0240 C   0  0  0  0  0  0  0  0  0  0  0  0
   36.7220   29.7320   35.8000 N   0  0  0  0  0  0  0  0  0  0  0  0
   38.1550   31.0700   36.6130 H   0  0  0  0  0  0  0  0  0  0  0  0
   35.1810   29.6410   39.3000 H   0  0  0  0  0  0  0  0  0  0  0  0
   35.1660   28.3830   35.2430 H   0  0  0  0  0  0  0  0  0  0  0  0
   37.2300   30.5950   40.5030 C   0  0  0  0  0  0  0  0  0  0  0  0
   38.2930   29.8650   40.9060 N   0  0  0  0  0  0  0  0  0  0  0  0
   38.0710   29.3380   42.1170 C   0  0  0  0  0  0  0  0  0  0  0  0
   38.7740   28.7070   42.6660 H   0  0  0  0  0  0  0  0  0  0  0  0
   36.8240   29.7580   42.4750 N   0  0  0  0  0  0  0  0  0  0  0  0
   36.4200   29.4780   43.3830 H   0  0  0  0  0  0  0  0  0  0  0  0
   36.3550   30.5060   41.4870 N   0  0  0  0  0  0  0  0  0  0  0  0
  1  3  1  0  0  0  0
  1 17  1  0  0  0  0
  2  1  1  0  0  0  0
  2  3  1  0  0  0  0
  2  4  1  0  0  0  0
  3  6  1  0  0  0  0
  5  2  1  0  0  0  0
  7  3  1  0  0  0  0
  8  9  1  0  0  0  0
  9 10  2  0  0  0  0
  9  1  1  0  0  0  0
 10 15  1  0  0  0  0
 11 10  1  0  0  0  0
 12 11  2  0  0  0  0
 13 12  1  0  0  0  0
 13  8  2  0  0  0  0
 14  8  1  0  0  0  0
 16 12  1  0  0  0  0
 17 18  1  0  0  0  0
 17 23  2  0  0  0  0
 18 19  2  0  0  0  0
 19 21  1  0  0  0  0
 19 20  1  0  0  0  0
 21 22  1  0  0  0  0
 23 21  1  0  0  0  0
M  END
>  <minimizedAffinity>
-3.88207412

$$$$

 OpenBabel03242516103D

 23 25  0  0  0  0  0  0  0  0999 V2000
   37.8660   30.7390   39.7430 C   0  0  0  0  0  0  0  0  0  0  0  0
   36.8210   30.6830   38.6900 C   0  0  0  0  0  0  0  0  0  0  0  0
   37.9510   29.7350   38.6470 C   0  0  0  0  0  0  0  0  0  0  0  0
   35.8120   30.2730   38.9160 H   0  0  0  0  0  0  0  0  0  0  0  0
   36.8260   31.4960   37.9360 H   0  0  0  0  0  0  0  0  0  0  0  0
   37.8070   28.6480   38.8700 H   0  0  0  0  0  0  0  0  0  0  0  0
   38.7990   29.8740   37.9330 H   0  0  0  0  0  0  0  0  0  0  0  0
   40.0820   31.7740   39.1580 C   0  0  0  0  0  0  0  0  0  0  0  0
   38.8140   31.8920   39.7310 C   0  0  0  0  0  0  0  0  0  0  0  0
   38.4490   33.1320   40.3000 C   0  0  0  0  0  0  0  0  0  0  0  0
   39.3670   34.1600   40.2590 N   0  0  0  0  0  0  0  0  0  0  0  0
   40.5700   34.0100   39.7020 C   0  0  0  0  0  0  0  0  0  0  0  0
   40.9260   32.8280   39.1560 N   0  0  0  0  0  0  0  0  0  0  0  0
   40.3640   30.8280   38.7220 H   0  0  0  0  0  0  0  0  0  0  0  0
   37.4630   33.2000   40.7380 H   0  0  0  0  0  0  0  0  0  0  0  0
   41.2330   34.8640   39.7100 H   0  0  0  0  0  0  0  0  0  0  0  0
   37.6320   30.1740   41.0830 C   0  0  0  0  0  0  0  0  0  0  0  0
   38.7300   29.8710   41.8100 N   0  0  0  0  0  0  0  0  0  0  0  0
   38.3830   29.3680   43.0010 C   0  0  0  0  0  0  0  0  0  0  0  0
   39.0830   29.0430   43.7750 H   0  0  0  0  0  0  0  0  0  0  0  0
   37.0190   29.3600   43.0110 N   0  0  0  0  0  0  0  0  0  0  0  0
   36.5050   29.0110   43.8360 H   0  0  0  0  0  0  0  0  0  0  0  0
   36.6090   29.8490   41.8510 N   0  0  0  0  0  0  0  0  0  0  0  0
  1 17  1  0  0  0  0
  2  4  1  0  0  0  0
  2  1  1  0  0  0  0
  3  2  1  0  0  0  0
  3  6  1  0  0  0  0
  3  1  1  0  0  0  0
  5  2  1  0  0  0  0
  7  3  1  0  0  0  0
  8  9  1  0  0  0  0
  9  1  1  0  0  0  0
  9 10  2  0  0  0  0
 10 15  1  0  0  0  0
 11 10  1  0  0  0  0
 12 16  1  0  0  0  0
 12 11  2  0  0  0  0
 13  8  2  0  0  0  0
 13 12  1  0  0  0  0
 14  8  1  0  0  0  0
 17 18  1  0  0  0  0
 17 23  2  0  0  0  0
 18 19  2  0  0  0  0
 19 21  1  0  0  0  0
 19 20  1  0  0  0  0
 21 22  1  0  0  0  0
 23 21  1  0  0  0  0
M  END
>  <minimizedAffinity>
-3.88085008

$$$$
