
 OpenBabel03252508083D

 42 45  0  0  0  0  0  0  0  0999 V2000
   45.2400   35.8230   42.9280 C   0  0  0  0  0  0  0  0  0  0  0  0
   45.5170   34.4650   42.9710 C   0  0  0  0  0  0  0  0  0  0  0  0
   45.3350   33.7610   44.1360 C   0  0  0  0  0  0  0  0  0  0  0  0
   44.8700   34.4710   45.2260 N   0  0  0  0  0  0  0  0  0  0  0  0
   44.6050   35.7750   45.1790 C   0  0  0  0  0  0  0  0  0  0  0  0
   44.7960   36.4390   44.0190 N   0  0  0  0  0  0  0  0  0  0  0  0
   45.3710   36.4200   42.0240 H   0  0  0  0  0  0  0  0  0  0  0  0
   44.2450   36.3110   46.0340 H   0  0  0  0  0  0  0  0  0  0  0  0
   45.5710   32.3840   44.3440 C   0  0  0  0  0  0  0  0  0  0  0  0
   45.1440   31.3760   43.4740 C   0  0  0  0  0  0  0  0  0  0  0  0
   45.3150   30.0350   43.7050 C   0  0  0  0  0  0  0  0  0  0  0  0
   45.9430   29.6150   44.8570 C   0  0  0  0  0  0  0  0  0  0  0  0
   46.3880   30.6290   45.7570 C   0  0  0  0  0  0  0  0  0  0  0  0
   47.0120   30.2200   46.9050 C   0  0  0  0  0  0  0  0  0  0  0  0
   47.4690   31.1470   47.8190 C   0  0  0  0  0  0  0  0  0  0  0  0
   47.2890   32.5140   47.5610 C   0  0  0  0  0  0  0  0  0  0  0  0
   46.6420   32.8820   46.3670 C   0  0  0  0  0  0  0  0  0  0  0  0
   46.1960   31.9400   45.4810 C   0  0  0  0  0  0  0  0  0  0  0  0
   44.6480   31.6770   42.5610 H   0  0  0  0  0  0  0  0  0  0  0  0
   44.9710   29.2880   43.0060 H   0  0  0  0  0  0  0  0  0  0  0  0
   46.1060   28.5750   45.0950 H   0  0  0  0  0  0  0  0  0  0  0  0
   47.1570   29.1710   47.1130 H   0  0  0  0  0  0  0  0  0  0  0  0
   47.9560   30.7720   48.7130 H   0  0  0  0  0  0  0  0  0  0  0  0
   47.6790   33.1490   48.3270 H   0  0  0  0  0  0  0  0  0  0  0  0
   46.6220   33.9500   46.3440 H   0  0  0  0  0  0  0  0  0  0  0  0
   45.9670   33.8830   41.8180 O   0  0  0  0  0  0  0  0  0  0  0  0
   48.0180   32.3650   41.2270 O   0  0  0  0  0  0  0  0  0  0  0  0
   47.5940   33.7840   41.3620 P   0  0  1  0  0  0  0  0  0  0  0  0
   47.8450   34.5180   39.8560 O   0  0  0  0  0  0  0  0  0  0  0  0
   47.6790   33.7390   38.7170 C   0  0  0  0  0  0  0  0  0  0  0  0
   46.4790   33.2430   38.3180 N   0  0  0  0  0  0  0  0  0  0  0  0
   46.6370   32.5310   37.1850 C   0  0  0  0  0  0  0  0  0  0  0  0
   45.8770   32.0080   36.6130 H   0  0  0  0  0  0  0  0  0  0  0  0
   47.9450   32.5800   36.8690 N   0  0  0  0  0  0  0  0  0  0  0  0
   48.4290   32.1300   36.0360 H   0  0  0  0  0  0  0  0  0  0  0  0
   48.5490   33.3040   37.7930 N   0  0  0  0  0  0  0  0  0  0  0  0
   48.5140   34.5880   42.5130 O   0  0  0  0  0  0  0  0  0  0  0  0
   49.7160   35.2440   42.3020 C   0  0  0  0  0  0  0  0  0  0  0  0
   49.3970   36.3450   41.8170 O   0  0  0  0  0  0  0  0  0  0  0  0
   50.8290   34.4240   42.7150 N   0  0  0  0  0  0  0  0  0  0  0  0
   50.9040   34.2010   43.7440 H   0  0  0  0  0  0  0  0  0  0  0  0
   51.5930   34.0070   42.1370 H   0  0  0  0  0  0  0  0  0  0  0  0
  1  2  2  0  0  0  0
  1  6  1  0  0  0  0
  2  3  1  0  0  0  0
  3  9  1  0  0  0  0
  3  4  2  0  0  0  0
  5  4  1  0  0  0  0
  5  8  1  0  0  0  0
  6  5  2  0  0  0  0
  7  1  1  0  0  0  0
  9 18  1  0  0  0  0
 10 11  1  0  0  0  0
 10  9  2  0  0  0  0
 11 12  2  0  0  0  0
 12 21  1  0  0  0  0
 12 13  1  0  0  0  0
 13 14  1  0  0  0  0
 14 22  1  0  0  0  0
 14 15  2  0  0  0  0
 15 23  1  0  0  0  0
 16 15  1  0  0  0  0
 16 24  1  0  0  0  0
 17 16  2  0  0  0  0
 18 13  2  0  0  0  0
 18 17  1  0  0  0  0
 19 10  1  0  0  0  0
 20 11  1  0  0  0  0
 25 17  1  0  0  0  0
 26  2  1  0  0  0  0
 28 27  2  6  0  0  0
 28 26  1  0  0  0  0
 28 37  1  0  0  0  0
 29 28  1  0  0  0  0
 30 29  1  0  0  0  0
 31 30  1  0  0  0  0
 32 31  2  0  0  0  0
 33 32  1  0  0  0  0
 34 32  1  0  0  0  0
 34 36  1  0  0  0  0
 35 34  1  0  0  0  0
 36 30  2  0  0  0  0
 38 37  1  0  0  0  0
 38 40  1  0  0  0  0
 39 38  2  0  0  0  0
 40 41  1  0  0  0  0
 42 40  1  0  0  0  0
M  END
>  <minimizedAffinity>
-5.97458601

>  <minimizedRMSD>
0.874657929

$$$$
