REMARK  Name = 
REMARK  4 active torsions:
REMARK  status: ('A' for Active; 'I' for Inactive)
REMARK    1  A    between atoms: C_1  and  C_8
REMARK    2  A    between atoms: C_2  and  S_7
REMARK    3  A    between atoms: C_8  and  C_9
REMARK    4  A    between atoms: C_9  and  C_17
REMARK                            x       y       z     vdW  Elec       q    Type
REMARK                         _______ _______ _______ _____ _____    ______ ____
ROOT
ATOM      1  C   UNL     1      48.548  35.345  40.966  0.00  0.00    +0.000 C 
ATOM      2  H   UNL     1      48.319  36.427  40.876  0.00  0.00    +0.000 HD
ATOM      3  H   UNL     1      49.637  35.292  41.158  0.00  0.00    +0.000 HD
ENDROOT
BRANCH   1   4
ATOM      4  C   UNL     1      47.744  34.845  42.097  0.00  0.00    +0.000 A 
ATOM      5  C   UNL     1      48.313  33.809  42.826  0.00  0.00    +0.000 A 
ATOM      6  C   UNL     1      47.604  33.293  43.906  0.00  0.00    +0.000 A 
ATOM      7  N   UNL     1      46.371  33.825  44.210  0.00  0.00    +0.000 NA
ATOM      8  C   UNL     1      45.859  34.830  43.473  0.00  0.00    +0.000 A 
ATOM      9  N   UNL     1      46.527  35.345  42.424  0.00  0.00    +0.000 NA
ATOM     10  H   UNL     1      48.011  32.488  44.499  0.00  0.00    +0.000 HD
ATOM     11  H   UNL     1      44.907  35.256  43.691  0.00  0.00    +0.000 HD
BRANCH   5  12
ATOM     12  S   UNL     1      49.908  33.135  42.417  0.00  0.00    +0.000 S 
ATOM     13  H   UNL     1      50.651  33.097  43.629  0.00  0.00    +0.000 HD
ENDBRANCH   5  12
ENDBRANCH   1   4
BRANCH   1  14
ATOM     14  C   UNL     1      48.192  34.702  39.650  0.00  0.00    +0.000 C 
ATOM     15  H   UNL     1      48.293  33.590  39.756  0.00  0.00    +0.000 HD
ATOM     16  H   UNL     1      47.099  34.884  39.476  0.00  0.00    +0.000 HD
BRANCH  14  17
ATOM     17  C   UNL     1      49.021  35.235  38.561  0.00  0.00    +0.000 A 
ATOM     18  N   UNL     1      50.347  35.441  38.575  0.00  0.00    +0.000 NA
ATOM     19  C   UNL     1      50.713  35.939  37.380  0.00  0.00    +0.000 A 
ATOM     20  H   UNL     1      51.590  36.275  36.846  0.00  0.00    +0.000 HD
ATOM     21  N   UNL     1      49.592  36.043  36.617  0.00  0.00    +0.000 N 
ATOM     22  H   UNL     1      49.328  36.361  35.639  0.00  0.00    +0.000 HD
ATOM     23  N   UNL     1      48.553  35.612  37.338  0.00  0.00    +0.000 NA
ENDBRANCH  14  17
ENDBRANCH   1  14
TORSDOF 4
