
 OpenBabel03242519163D

 40 43  0  0  1  0  0  0  0  0999 V2000
   48.3340   34.2200   40.9280 C   0  0  0  0  0  0  0  0  0  0  0  0
   47.8640   34.3640   39.6420 C   0  0  0  0  0  0  0  0  0  0  0  0
   48.2270   33.5070   38.5920 C   0  0  0  0  0  0  0  0  0  0  0  0
   49.0880   32.5060   38.9330 N   0  0  0  0  0  0  0  0  0  0  0  0
   49.5400   32.3750   40.1880 C   0  0  0  0  0  0  0  0  0  0  0  0
   49.1700   33.2150   41.1610 N   0  0  0  0  0  0  0  0  0  0  0  0
   47.1830   35.1840   39.4540 H   0  0  0  0  0  0  0  0  0  0  0  0
   47.8380   33.6500   37.5970 H   0  0  0  0  0  0  0  0  0  0  0  0
   50.4650   31.2600   40.5730 C   0  0  2  0  0  0  0  0  0  0  0  0
   51.1860   31.3460   41.8810 C   0  0  0  0  0  0  0  0  0  0  0  0
   51.9220   31.5680   40.5480 C   0  0  1  0  0  0  0  0  0  0  0  0
   50.1680   30.2970   40.1100 H   0  0  0  0  0  0  0  0  0  0  0  0
   50.9680   32.2470   42.4990 H   0  0  0  0  0  0  0  0  0  0  0  0
   51.3360   30.4050   42.4250 H   0  0  0  0  0  0  0  0  0  0  0  0
   52.2750   32.6020   40.4010 H   0  0  0  0  0  0  0  0  0  0  0  0
   52.9040   30.4900   40.2590 C   0  0  0  0  0  0  0  0  0  0  0  0
   52.8030   29.5000   39.3710 N   0  0  0  0  0  0  0  0  0  0  0  0
   53.9110   28.7080   39.3970 C   0  0  0  0  0  0  0  0  0  0  0  0
   53.8880   27.8830   38.6960 H   0  0  0  0  0  0  0  0  0  0  0  0
   54.7060   29.2500   40.3460 N   0  0  0  0  0  0  0  0  0  0  0  0
   55.6200   28.7620   40.5060 H   0  0  0  0  0  0  0  0  0  0  0  0
   54.0980   30.3150   40.8550 N   0  0  0  0  0  0  0  0  0  0  0  0
   47.9370   35.1090   41.9900 C   0  0  0  0  0  0  0  0  0  0  0  0
   48.0760   36.1690   41.6230 H   0  0  0  0  0  0  0  0  0  0  0  0
   48.5870   35.0400   42.8850 H   0  0  0  0  0  0  0  0  0  0  0  0
   46.5080   34.9510   42.3180 C   0  0  0  0  0  0  0  0  0  0  0  0
   46.0020   34.2450   41.6010 H   0  0  0  0  0  0  0  0  0  0  0  0
   45.8990   35.8880   42.2380 H   0  0  0  0  0  0  0  0  0  0  0  0
   44.5780   36.4170   44.0430 Cl  0  0  0  0  0  0  0  0  0  0  0  0
   45.3970   34.9670   44.5630 C   0  0  0  0  0  0  0  0  0  0  0  0
   46.2660   34.3800   43.6800 C   0  0  0  0  0  0  0  0  0  0  0  0
   46.9140   33.2340   44.0870 C   0  0  0  0  0  0  0  0  0  0  0  0
   46.6980   32.6980   45.3400 C   0  0  0  0  0  0  0  0  0  0  0  0
   45.8080   33.3120   46.2270 C   0  0  0  0  0  0  0  0  0  0  0  0
   45.1600   34.4630   45.8070 C   0  0  0  0  0  0  0  0  0  0  0  0
   47.6130   32.7210   43.4390 H   0  0  0  0  0  0  0  0  0  0  0  0
   47.1610   31.8210   45.7190 H   0  0  0  0  0  0  0  0  0  0  0  0
   45.6210   32.9110   47.2130 H   0  0  0  0  0  0  0  0  0  0  0  0
   44.2520   35.1480   46.6250 O   0  0  0  0  0  0  0  0  0  0  0  0
   43.4490   34.6350   46.9740 H   0  0  0  0  0  0  0  0  0  0  0  0
  1  6  1  0  0  0  0
  1 23  1  0  0  0  0
  2  1  2  0  0  0  0
  3  4  2  0  0  0  0
  3  2  1  0  0  0  0
  4  5  1  0  0  0  0
  5  9  1  0  0  0  0
  5  6  2  0  0  0  0
  7  2  1  0  0  0  0
  8  3  1  0  0  0  0
  9 12  1  6  0  0  0
  9 10  1  0  0  0  0
 10 14  1  0  0  0  0
 10 13  1  0  0  0  0
 11 15  1  6  0  0  0
 11  9  1  0  0  0  0
 11 10  1  0  0  0  0
 16 11  1  0  0  0  0
 16 22  2  0  0  0  0
 17 18  2  0  0  0  0
 17 16  1  0  0  0  0
 18 20  1  0  0  0  0
 19 18  1  0  0  0  0
 20 21  1  0  0  0  0
 20 22  1  0  0  0  0
 23 26  1  0  0  0  0
 23 25  1  0  0  0  0
 24 23  1  0  0  0  0
 26 31  1  0  0  0  0
 27 26  1  0  0  0  0
 28 26  1  0  0  0  0
 29 30  1  0  0  0  0
 30 35  1  0  0  0  0
 31 32  1  0  0  0  0
 31 30  2  0  0  0  0
 32 33  2  0  0  0  0
 33 37  1  0  0  0  0
 33 34  1  0  0  0  0
 34 38  1  0  0  0  0
 35 34  2  0  0  0  0
 35 39  1  0  0  0  0
 36 32  1  0  0  0  0
 39 40  1  0  0  0  0
M  END
>  <minimizedAffinity>
-5.72428989

>  <minimizedRMSD>
0.20086579

$$$$
