
 OpenBabel03252507433D

 29 31  0  0  0  0  0  0  0  0999 V2000
   46.8830   34.9280   42.3370 C   0  0  0  0  0  0  0  0  0  0  0  0
   47.0210   33.9730   42.8850 H   0  0  0  0  0  0  0  0  0  0  0  0
   47.1070   35.7690   43.0230 H   0  0  0  0  0  0  0  0  0  0  0  0
   45.4440   34.9570   41.9510 C   0  0  0  0  0  0  0  0  0  0  0  0
   44.5080   35.7290   42.6980 C   0  0  0  0  0  0  0  0  0  0  0  0
   42.9170   35.3970   41.7930 S   0  0  0  0  0  0  0  0  0  0  0  0
   43.8220   34.2710   40.5680 C   0  0  0  0  0  0  0  0  0  0  0  0
   44.8930   34.3170   40.9440 N   0  0  0  0  0  0  0  0  0  0  0  0
   44.7050   36.3350   43.5580 H   0  0  0  0  0  0  0  0  0  0  0  0
   43.1950   33.5500   39.4310 C   0  0  0  0  0  0  0  0  0  0  0  0
   41.9400   33.1240   39.2940 N   0  0  0  0  0  0  0  0  0  0  0  0
   41.7730   32.5120   38.1100 C   0  0  0  0  0  0  0  0  0  0  0  0
   40.8000   32.1170   37.8670 H   0  0  0  0  0  0  0  0  0  0  0  0
   42.9850   32.5630   37.4860 N   0  0  0  0  0  0  0  0  0  0  0  0
   43.0860   32.1410   36.5360 H   0  0  0  0  0  0  0  0  0  0  0  0
   43.8340   33.1930   38.2970 N   0  0  0  0  0  0  0  0  0  0  0  0
   47.8340   34.9440   41.1980 C   0  0  0  0  0  0  0  0  0  0  0  0
   47.3470   34.8530   40.2350 H   0  0  0  0  0  0  0  0  0  0  0  0
   48.3300   35.9590   41.1800 H   0  0  0  0  0  0  0  0  0  0  0  0
   48.9660   33.9960   41.3440 C   0  0  0  0  0  0  0  0  0  0  0  0
   49.0010   32.9070   40.4770 C   0  0  0  0  0  0  0  0  0  0  0  0
   50.0310   31.9900   40.5650 C   0  0  0  0  0  0  0  0  0  0  0  0
   50.9910   32.2000   41.5220 N   0  0  0  0  0  0  0  0  0  0  0  0
   50.9210   33.2710   42.3460 C   0  0  0  0  0  0  0  0  0  0  0  0
   49.9300   34.1400   42.2520 N   0  0  0  0  0  0  0  0  0  0  0  0
   50.0850   31.1270   39.8980 H   0  0  0  0  0  0  0  0  0  0  0  0
   51.7310   33.3540   43.0790 H   0  0  0  0  0  0  0  0  0  0  0  0
   47.7080   32.6900   39.2400 S   0  0  0  0  0  0  0  0  0  0  0  0
   46.4980   32.5950   39.9710 H   0  0  0  0  0  0  0  0  0  0  0  0
  1  2  1  0  0  0  0
  1  3  1  0  0  0  0
  4  1  1  0  0  0  0
  4  5  2  0  0  0  0
  5  9  1  0  0  0  0
  6  5  1  0  0  0  0
  7  8  2  0  0  0  0
  7  6  1  0  0  0  0
  8  4  1  0  0  0  0
 10  7  1  0  0  0  0
 11 10  1  0  0  0  0
 12 11  2  0  0  0  0
 13 12  1  0  0  0  0
 14 12  1  0  0  0  0
 14 16  1  0  0  0  0
 15 14  1  0  0  0  0
 16 10  2  0  0  0  0
 17 20  1  0  0  0  0
 17  1  1  0  0  0  0
 18 17  1  0  0  0  0
 19 17  1  0  0  0  0
 20 25  1  0  0  0  0
 21 22  1  0  0  0  0
 21 20  2  0  0  0  0
 22 23  2  0  0  0  0
 23 24  1  0  0  0  0
 24 27  1  0  0  0  0
 25 24  2  0  0  0  0
 26 22  1  0  0  0  0
 28 29  1  0  0  0  0
 28 21  1  0  0  0  0
M  END
>  <minimizedAffinity>
-4.41611481

>  <minimizedRMSD>
1.54142129

$$$$
