
 OpenBabel03252503253D

 45 50  0  0  1  0  0  0  0  0999 V2000
   35.1900   28.8550   37.7580 C   0  0  1  0  0  0  0  0  0  0  0  0
   35.3090   28.0370   36.5560 C   0  0  0  0  0  0  0  0  0  0  0  0
   33.9710   28.1490   37.1860 C   0  0  2  0  0  0  0  0  0  0  0  0
   35.1690   29.9590   37.7000 H   0  0  0  0  0  0  0  0  0  0  0  0
   35.7750   27.0070   36.6840 H   0  0  0  0  0  0  0  0  0  0  0  0
   35.6500   28.5230   35.6580 H   0  0  0  0  0  0  0  0  0  0  0  0
   33.5050   27.3850   37.8160 H   0  0  0  0  0  0  0  0  0  0  0  0
   32.9900   29.0590   36.5380 C   0  0  0  0  0  0  0  0  0  0  0  0
   33.0180   29.4190   35.2060 C   0  0  0  0  0  0  0  0  0  0  0  0
   32.0660   30.2760   34.6770 C   0  0  0  0  0  0  0  0  0  0  0  0
   31.0740   30.7860   35.4700 C   0  0  0  0  0  0  0  0  0  0  0  0
   30.1340   31.6220   34.9770 N   0  0  0  0  0  0  0  0  0  0  0  0
   29.1560   32.1190   35.7850 C   0  0  0  0  0  0  0  0  0  0  0  0
   29.0460   31.8100   37.1630 C   0  0  0  0  0  0  0  0  0  0  0  0
   30.0070   30.9540   37.6660 C   0  0  0  0  0  0  0  0  0  0  0  0
   30.9970   30.4560   36.8290 C   0  0  0  0  0  0  0  0  0  0  0  0
   31.9640   29.6010   37.3140 C   0  0  0  0  0  0  0  0  0  0  0  0
   33.8220   28.9930   34.6080 H   0  0  0  0  0  0  0  0  0  0  0  0
   32.1330   30.5270   33.6190 H   0  0  0  0  0  0  0  0  0  0  0  0
   28.4200   32.7850   35.3590 H   0  0  0  0  0  0  0  0  0  0  0  0
   28.2380   32.2490   37.7310 H   0  0  0  0  0  0  0  0  0  0  0  0
   29.9620   30.6920   38.7070 H   0  0  0  0  0  0  0  0  0  0  0  0
   31.8440   29.3970   38.3690 H   0  0  0  0  0  0  0  0  0  0  0  0
   35.4040   29.1200   40.2510 C   0  0  0  0  0  0  0  0  0  0  0  0
   35.6920   28.3540   39.0710 C   0  0  0  0  0  0  0  0  0  0  0  0
   36.4180   27.1990   39.2130 C   0  0  0  0  0  0  0  0  0  0  0  0
   36.8210   26.8520   40.4670 N   0  0  0  0  0  0  0  0  0  0  0  0
   36.5400   27.5890   41.5700 C   0  0  0  0  0  0  0  0  0  0  0  0
   35.8310   28.7220   41.4600 N   0  0  0  0  0  0  0  0  0  0  0  0
   34.8270   30.0400   40.1420 H   0  0  0  0  0  0  0  0  0  0  0  0
   36.6460   26.6080   38.3530 H   0  0  0  0  0  0  0  0  0  0  0  0
   37.0280   27.0940   42.8810 C   0  0  2  0  0  0  0  0  0  0  0  0
   37.2020   27.9730   44.0220 C   0  0  0  0  0  0  0  0  0  0  0  0
   38.4500   27.5990   43.2580 C   0  0  2  0  0  0  0  0  0  0  0  0
   36.9860   25.9790   42.9750 H   0  0  0  0  0  0  0  0  0  0  0  0
   37.1330   27.4890   45.0290 H   0  0  0  0  0  0  0  0  0  0  0  0
   36.8140   28.9990   44.0180 H   0  0  0  0  0  0  0  0  0  0  0  0
   39.1410   26.8550   43.7220 H   0  0  0  0  0  0  0  0  0  0  0  0
   39.0200   28.7190   42.4660 C   0  0  0  0  0  0  0  0  0  0  0  0
   39.7000   28.8400   41.3140 N   0  0  0  0  0  0  0  0  0  0  0  0
   39.9930   30.1110   41.0230 C   0  0  0  0  0  0  0  0  0  0  0  0
   40.5410   30.3410   40.1180 H   0  0  0  0  0  0  0  0  0  0  0  0
   39.4760   30.8250   42.0370 N   0  0  0  0  0  0  0  0  0  0  0  0
   39.5690   31.8730   42.0550 H   0  0  0  0  0  0  0  0  0  0  0  0
   38.9000   30.0050   42.8910 N   0  0  0  0  0  0  0  0  0  0  0  0
  1  4  1  6  0  0  0
  1 25  1  0  0  0  0
  2  5  1  0  0  0  0
  2  3  1  0  0  0  0
  2  1  1  0  0  0  0
  3  1  1  0  0  0  0
  3  7  1  1  0  0  0
  6  2  1  0  0  0  0
  8  3  1  0  0  0  0
  8 17  1  0  0  0  0
  9  8  2  0  0  0  0
 10  9  1  0  0  0  0
 10 11  2  0  0  0  0
 11 16  1  0  0  0  0
 12 11  1  0  0  0  0
 12 13  2  0  0  0  0
 13 14  1  0  0  0  0
 14 15  2  0  0  0  0
 14 21  1  0  0  0  0
 15 22  1  0  0  0  0
 16 17  2  0  0  0  0
 16 15  1  0  0  0  0
 17 23  1  0  0  0  0
 18  9  1  0  0  0  0
 19 10  1  0  0  0  0
 20 13  1  0  0  0  0
 24 29  1  0  0  0  0
 25 26  1  0  0  0  0
 25 24  2  0  0  0  0
 26 27  2  0  0  0  0
 27 28  1  0  0  0  0
 28 32  1  0  0  0  0
 29 28  2  0  0  0  0
 30 24  1  0  0  0  0
 31 26  1  0  0  0  0
 32 35  1  1  0  0  0
 32 34  1  0  0  0  0
 32 33  1  0  0  0  0
 33 36  1  0  0  0  0
 34 38  1  1  0  0  0
 34 33  1  0  0  0  0
 37 33  1  0  0  0  0
 39 45  2  0  0  0  0
 39 34  1  0  0  0  0
 40 39  1  0  0  0  0
 41 40  2  0  0  0  0
 41 43  1  0  0  0  0
 42 41  1  0  0  0  0
 43 44  1  0  0  0  0
 43 45  1  0  0  0  0
M  END
>  <minimizedAffinity>
-6.63987732

$$$$

 OpenBabel03252503253D

 45 50  0  0  1  0  0  0  0  0999 V2000
   35.4520   29.4710   38.1210 C   0  0  1  0  0  0  0  0  0  0  0  0
   35.6520   28.6040   36.9650 C   0  0  0  0  0  0  0  0  0  0  0  0
   34.3850   28.4650   37.7220 C   0  0  2  0  0  0  0  0  0  0  0  0
   35.1710   30.5330   37.9990 H   0  0  0  0  0  0  0  0  0  0  0  0
   36.3530   27.7190   37.1060 H   0  0  0  0  0  0  0  0  0  0  0  0
   35.7930   29.0790   36.0090 H   0  0  0  0  0  0  0  0  0  0  0  0
   34.1640   27.6700   38.4410 H   0  0  0  0  0  0  0  0  0  0  0  0
   33.1680   29.0750   37.1240 C   0  0  0  0  0  0  0  0  0  0  0  0
   32.9810   29.2860   35.7730 C   0  0  0  0  0  0  0  0  0  0  0  0
   31.8160   29.8630   35.2930 C   0  0  0  0  0  0  0  0  0  0  0  0
   30.8210   30.2400   36.1560 C   0  0  0  0  0  0  0  0  0  0  0  0
   29.6770   30.8040   35.7130 N   0  0  0  0  0  0  0  0  0  0  0  0
   28.7000   31.1710   36.5900 C   0  0  0  0  0  0  0  0  0  0  0  0
   28.8010   30.9980   37.9920 C   0  0  0  0  0  0  0  0  0  0  0  0
   29.9720   30.4190   38.4440 C   0  0  0  0  0  0  0  0  0  0  0  0
   30.9570   30.0500   37.5370 C   0  0  0  0  0  0  0  0  0  0  0  0
   32.1310   29.4720   37.9710 C   0  0  0  0  0  0  0  0  0  0  0  0
   33.7940   28.9740   35.1190 H   0  0  0  0  0  0  0  0  0  0  0  0
   31.7190   30.0060   34.2180 H   0  0  0  0  0  0  0  0  0  0  0  0
   27.7980   31.6190   36.2020 H   0  0  0  0  0  0  0  0  0  0  0  0
   27.9780   31.3180   38.6150 H   0  0  0  0  0  0  0  0  0  0  0  0
   30.0910   30.2690   39.5010 H   0  0  0  0  0  0  0  0  0  0  0  0
   32.1670   29.3650   39.0460 H   0  0  0  0  0  0  0  0  0  0  0  0
   37.5950   29.0610   39.3750 C   0  0  0  0  0  0  0  0  0  0  0  0
   36.1670   29.2040   39.4040 C   0  0  0  0  0  0  0  0  0  0  0  0
   35.5310   29.0840   40.6140 C   0  0  0  0  0  0  0  0  0  0  0  0
   36.2970   28.8360   41.7120 N   0  0  0  0  0  0  0  0  0  0  0  0
   37.6460   28.7040   41.6640 C   0  0  0  0  0  0  0  0  0  0  0  0
   38.2940   28.8170   40.4950 N   0  0  0  0  0  0  0  0  0  0  0  0
   38.1050   29.1560   38.4140 H   0  0  0  0  0  0  0  0  0  0  0  0
   34.4690   29.1870   40.6660 H   0  0  0  0  0  0  0  0  0  0  0  0
   38.3660   28.4460   42.9370 C   0  0  2  0  0  0  0  0  0  0  0  0
   39.6640   27.8010   42.9720 C   0  0  0  0  0  0  0  0  0  0  0  0
   38.4700   26.9400   43.3100 C   0  0  2  0  0  0  0  0  0  0  0  0
   37.9510   29.0230   43.8030 H   0  0  0  0  0  0  0  0  0  0  0  0
   40.3070   28.0400   43.8560 H   0  0  0  0  0  0  0  0  0  0  0  0
   40.2470   27.6360   42.0570 H   0  0  0  0  0  0  0  0  0  0  0  0
   38.3050   26.6760   44.3830 H   0  0  0  0  0  0  0  0  0  0  0  0
   38.1390   25.9420   42.2620 C   0  0  0  0  0  0  0  0  0  0  0  0
   38.7540   25.4390   41.1780 N   0  0  0  0  0  0  0  0  0  0  0  0
   38.0070   24.5310   40.5420 C   0  0  0  0  0  0  0  0  0  0  0  0
   38.3930   24.0510   39.6510 H   0  0  0  0  0  0  0  0  0  0  0  0
   36.8710   24.4570   41.2540 N   0  0  0  0  0  0  0  0  0  0  0  0
   36.0990   23.8050   40.9630 H   0  0  0  0  0  0  0  0  0  0  0  0
   36.9460   25.2900   42.2720 N   0  0  0  0  0  0  0  0  0  0  0  0
  1  4  1  6  0  0  0
  1 25  1  0  0  0  0
  2  5  1  0  0  0  0
  2  3  1  0  0  0  0
  2  1  1  0  0  0  0
  3  1  1  0  0  0  0
  3  7  1  1  0  0  0
  6  2  1  0  0  0  0
  8  3  1  0  0  0  0
  8 17  1  0  0  0  0
  9  8  2  0  0  0  0
 10  9  1  0  0  0  0
 10 11  2  0  0  0  0
 11 16  1  0  0  0  0
 12 11  1  0  0  0  0
 12 13  2  0  0  0  0
 13 14  1  0  0  0  0
 14 15  2  0  0  0  0
 14 21  1  0  0  0  0
 15 22  1  0  0  0  0
 16 17  2  0  0  0  0
 16 15  1  0  0  0  0
 17 23  1  0  0  0  0
 18  9  1  0  0  0  0
 19 10  1  0  0  0  0
 20 13  1  0  0  0  0
 24 25  2  0  0  0  0
 24 29  1  0  0  0  0
 25 26  1  0  0  0  0
 26 31  1  0  0  0  0
 26 27  2  0  0  0  0
 28 27  1  0  0  0  0
 28 32  1  0  0  0  0
 29 28  2  0  0  0  0
 30 24  1  0  0  0  0
 32 33  1  0  0  0  0
 32 34  1  0  0  0  0
 32 35  1  1  0  0  0
 33 34  1  0  0  0  0
 33 36  1  0  0  0  0
 34 38  1  1  0  0  0
 37 33  1  0  0  0  0
 39 45  2  0  0  0  0
 39 34  1  0  0  0  0
 40 39  1  0  0  0  0
 41 40  2  0  0  0  0
 41 43  1  0  0  0  0
 42 41  1  0  0  0  0
 43 45  1  0  0  0  0
 44 43  1  0  0  0  0
M  END
>  <minimizedAffinity>
-6.15790224

$$$$

 OpenBabel03252503253D

 45 50  0  0  1  0  0  0  0  0999 V2000
   35.8750   29.6450   37.4200 C   0  0  1  0  0  0  0  0  0  0  0  0
   35.8210   28.3550   36.7410 C   0  0  0  0  0  0  0  0  0  0  0  0
   34.7450   28.6710   37.7110 C   0  0  2  0  0  0  0  0  0  0  0  0
   35.5760   30.5770   36.9050 H   0  0  0  0  0  0  0  0  0  0  0  0
   36.5340   27.5520   37.1150 H   0  0  0  0  0  0  0  0  0  0  0  0
   35.7550   28.3640   35.6660 H   0  0  0  0  0  0  0  0  0  0  0  0
   34.6810   28.2810   38.7310 H   0  0  0  0  0  0  0  0  0  0  0  0
   33.4290   29.0820   37.1530 C   0  0  0  0  0  0  0  0  0  0  0  0
   33.1340   29.1430   35.8060 C   0  0  0  0  0  0  0  0  0  0  0  0
   31.8810   29.5380   35.3650 C   0  0  0  0  0  0  0  0  0  0  0  0
   30.9050   29.8800   36.2630 C   0  0  0  0  0  0  0  0  0  0  0  0
   29.6770   30.2690   35.8580 N   0  0  0  0  0  0  0  0  0  0  0  0
   28.7210   30.6050   36.7690 C   0  0  0  0  0  0  0  0  0  0  0  0
   28.9290   30.5770   38.1700 C   0  0  0  0  0  0  0  0  0  0  0  0
   30.1870   30.1790   38.5830 C   0  0  0  0  0  0  0  0  0  0  0  0
   31.1490   29.8380   37.6420 C   0  0  0  0  0  0  0  0  0  0  0  0
   32.4080   29.4390   38.0360 C   0  0  0  0  0  0  0  0  0  0  0  0
   33.9360   28.8630   35.1240 H   0  0  0  0  0  0  0  0  0  0  0  0
   31.7000   29.5680   34.2920 H   0  0  0  0  0  0  0  0  0  0  0  0
   27.7490   30.9110   36.4110 H   0  0  0  0  0  0  0  0  0  0  0  0
   28.1150   30.8600   38.8210 H   0  0  0  0  0  0  0  0  0  0  0  0
   30.3890   30.1420   39.6380 H   0  0  0  0  0  0  0  0  0  0  0  0
   32.5240   29.4370   39.1110 H   0  0  0  0  0  0  0  0  0  0  0  0
   38.0520   29.1020   38.5580 C   0  0  0  0  0  0  0  0  0  0  0  0
   36.8470   29.8820   38.5270 C   0  0  0  0  0  0  0  0  0  0  0  0
   36.6510   30.8050   39.5230 C   0  0  0  0  0  0  0  0  0  0  0  0
   37.6130   30.9220   40.4790 N   0  0  0  0  0  0  0  0  0  0  0  0
   38.7450   30.1750   40.4920 C   0  0  0  0  0  0  0  0  0  0  0  0
   38.9630   29.2660   39.5300 N   0  0  0  0  0  0  0  0  0  0  0  0
   38.2120   28.3660   37.7670 H   0  0  0  0  0  0  0  0  0  0  0  0
   35.7640   31.4000   39.5250 H   0  0  0  0  0  0  0  0  0  0  0  0
   39.7210   30.4090   41.5860 C   0  0  2  0  0  0  0  0  0  0  0  0
   40.6090   29.3660   42.0630 C   0  0  0  0  0  0  0  0  0  0  0  0
   39.3860   29.6540   42.9030 C   0  0  2  0  0  0  0  0  0  0  0  0
   39.8870   31.4950   41.8040 H   0  0  0  0  0  0  0  0  0  0  0  0
   41.5650   29.7130   42.5320 H   0  0  0  0  0  0  0  0  0  0  0  0
   40.7220   28.4180   41.5230 H   0  0  0  0  0  0  0  0  0  0  0  0
   39.5310   30.2180   43.8560 H   0  0  0  0  0  0  0  0  0  0  0  0
   38.3610   28.5820   42.8460 C   0  0  0  0  0  0  0  0  0  0  0  0
   38.3090   27.3160   42.4000 N   0  0  0  0  0  0  0  0  0  0  0  0
   37.1090   26.7560   42.5870 C   0  0  0  0  0  0  0  0  0  0  0  0
   36.9400   25.7350   42.2680 H   0  0  0  0  0  0  0  0  0  0  0  0
   36.3710   27.7100   43.1770 N   0  0  0  0  0  0  0  0  0  0  0  0
   35.3690   27.5250   43.4370 H   0  0  0  0  0  0  0  0  0  0  0  0
   37.1070   28.7900   43.3320 N   0  0  0  0  0  0  0  0  0  0  0  0
  1  4  1  6  0  0  0
  1  3  1  0  0  0  0
  1 25  1  0  0  0  0
  2  5  1  0  0  0  0
  2  1  1  0  0  0  0
  2  3  1  0  0  0  0
  3  7  1  1  0  0  0
  6  2  1  0  0  0  0
  8  3  1  0  0  0  0
  8 17  1  0  0  0  0
  9  8  2  0  0  0  0
 10  9  1  0  0  0  0
 10 11  2  0  0  0  0
 11 16  1  0  0  0  0
 12 11  1  0  0  0  0
 12 13  2  0  0  0  0
 13 14  1  0  0  0  0
 14 15  2  0  0  0  0
 14 21  1  0  0  0  0
 15 22  1  0  0  0  0
 16 17  2  0  0  0  0
 16 15  1  0  0  0  0
 17 23  1  0  0  0  0
 18  9  1  0  0  0  0
 19 10  1  0  0  0  0
 20 13  1  0  0  0  0
 24 29  1  0  0  0  0
 25 24  2  0  0  0  0
 25 26  1  0  0  0  0
 26 31  1  0  0  0  0
 26 27  2  0  0  0  0
 27 28  1  0  0  0  0
 28 32  1  0  0  0  0
 29 28  2  0  0  0  0
 30 24  1  0  0  0  0
 32 35  1  1  0  0  0
 32 33  1  0  0  0  0
 32 34  1  0  0  0  0
 33 36  1  0  0  0  0
 33 34  1  0  0  0  0
 34 38  1  1  0  0  0
 37 33  1  0  0  0  0
 39 34  1  0  0  0  0
 39 45  2  0  0  0  0
 40 41  2  0  0  0  0
 40 39  1  0  0  0  0
 41 43  1  0  0  0  0
 42 41  1  0  0  0  0
 43 45  1  0  0  0  0
 43 44  1  0  0  0  0
M  END
>  <minimizedAffinity>
-5.9311614

$$$$

 OpenBabel03252503253D

 45 50  0  0  1  0  0  0  0  0999 V2000
   39.1940   27.7490   42.0120 C   0  0  1  0  0  0  0  0  0  0  0  0
   38.9450   27.2450   43.3580 C   0  0  0  0  0  0  0  0  0  0  0  0
   37.8970   27.0250   42.3330 C   0  0  2  0  0  0  0  0  0  0  0  0
   39.8730   27.2200   41.3180 H   0  0  0  0  0  0  0  0  0  0  0  0
   38.6450   28.0120   44.1430 H   0  0  0  0  0  0  0  0  0  0  0  0
   39.6370   26.5190   43.7510 H   0  0  0  0  0  0  0  0  0  0  0  0
   36.9730   27.6050   42.2410 H   0  0  0  0  0  0  0  0  0  0  0  0
   37.8000   25.6620   41.7450 C   0  0  0  0  0  0  0  0  0  0  0  0
   38.5810   24.5890   42.1220 C   0  0  0  0  0  0  0  0  0  0  0  0
   38.4300   23.3490   41.5230 C   0  0  0  0  0  0  0  0  0  0  0  0
   37.4980   23.1620   40.5380 C   0  0  0  0  0  0  0  0  0  0  0  0
   37.3310   21.9630   39.9390 N   0  0  0  0  0  0  0  0  0  0  0  0
   36.3970   21.8010   38.9600 C   0  0  0  0  0  0  0  0  0  0  0  0
   35.5510   22.8410   38.5040 C   0  0  0  0  0  0  0  0  0  0  0  0
   35.7220   24.0680   39.1180 C   0  0  0  0  0  0  0  0  0  0  0  0
   36.6780   24.2160   40.1140 C   0  0  0  0  0  0  0  0  0  0  0  0
   36.8610   25.4330   40.7370 C   0  0  0  0  0  0  0  0  0  0  0  0
   39.3110   24.7770   42.9090 H   0  0  0  0  0  0  0  0  0  0  0  0
   39.0710   22.5350   41.8590 H   0  0  0  0  0  0  0  0  0  0  0  0
   36.2900   20.8280   38.5030 H   0  0  0  0  0  0  0  0  0  0  0  0
   34.8380   22.6250   37.7220 H   0  0  0  0  0  0  0  0  0  0  0  0
   35.1010   24.8860   38.8030 H   0  0  0  0  0  0  0  0  0  0  0  0
   36.1990   26.1970   40.3540 H   0  0  0  0  0  0  0  0  0  0  0  0
   39.9820   30.1110   42.3720 C   0  0  0  0  0  0  0  0  0  0  0  0
   39.0830   29.2070   41.7130 C   0  0  0  0  0  0  0  0  0  0  0  0
   38.1620   29.7330   40.8430 C   0  0  0  0  0  0  0  0  0  0  0  0
   38.1600   31.0820   40.6600 N   0  0  0  0  0  0  0  0  0  0  0  0
   39.0180   31.9210   41.2920 C   0  0  0  0  0  0  0  0  0  0  0  0
   39.9290   31.4340   42.1470 N   0  0  0  0  0  0  0  0  0  0  0  0
   40.7170   29.6960   43.0660 H   0  0  0  0  0  0  0  0  0  0  0  0
   37.4810   29.0840   40.3380 H   0  0  0  0  0  0  0  0  0  0  0  0
   38.9190   33.3720   40.9950 C   0  0  2  0  0  0  0  0  0  0  0  0
   38.3010   33.8710   39.7810 C   0  0  0  0  0  0  0  0  0  0  0  0
   39.8110   33.8370   39.8090 C   0  0  2  0  0  0  0  0  0  0  0  0
   39.1100   34.0190   41.8890 H   0  0  0  0  0  0  0  0  0  0  0  0
   37.8760   34.9050   39.8360 H   0  0  0  0  0  0  0  0  0  0  0  0
   37.7270   33.2120   39.1180 H   0  0  0  0  0  0  0  0  0  0  0  0
   40.3510   34.8070   39.9370 H   0  0  0  0  0  0  0  0  0  0  0  0
   40.3990   32.7930   38.9330 C   0  0  0  0  0  0  0  0  0  0  0  0
   41.5120   32.0400   38.9400 N   0  0  0  0  0  0  0  0  0  0  0  0
   41.5810   31.2190   37.8860 C   0  0  0  0  0  0  0  0  0  0  0  0
   42.4320   30.5590   37.7780 H   0  0  0  0  0  0  0  0  0  0  0  0
   40.4620   31.4640   37.1840 N   0  0  0  0  0  0  0  0  0  0  0  0
   40.2660   30.9430   36.2920 H   0  0  0  0  0  0  0  0  0  0  0  0
   39.7620   32.3940   37.8000 N   0  0  0  0  0  0  0  0  0  0  0  0
  1  4  1  6  0  0  0
  1  3  1  0  0  0  0
  1  2  1  0  0  0  0
  2  6  1  0  0  0  0
  2  5  1  0  0  0  0
  3  7  1  1  0  0  0
  3  2  1  0  0  0  0
  8  9  1  0  0  0  0
  8  3  1  0  0  0  0
  9 18  1  0  0  0  0
 10 19  1  0  0  0  0
 10  9  2  0  0  0  0
 11 10  1  0  0  0  0
 12 11  2  0  0  0  0
 13 12  1  0  0  0  0
 14 13  2  0  0  0  0
 14 15  1  0  0  0  0
 15 16  2  0  0  0  0
 16 11  1  0  0  0  0
 16 17  1  0  0  0  0
 17  8  2  0  0  0  0
 20 13  1  0  0  0  0
 21 14  1  0  0  0  0
 22 15  1  0  0  0  0
 23 17  1  0  0  0  0
 24 30  1  0  0  0  0
 25  1  1  0  0  0  0
 25 24  2  0  0  0  0
 26 25  1  0  0  0  0
 27 26  2  0  0  0  0
 27 28  1  0  0  0  0
 28 29  2  0  0  0  0
 29 24  1  0  0  0  0
 31 26  1  0  0  0  0
 32 28  1  0  0  0  0
 32 35  1  1  0  0  0
 33 34  1  0  0  0  0
 33 36  1  0  0  0  0
 33 32  1  0  0  0  0
 34 38  1  1  0  0  0
 34 32  1  0  0  0  0
 37 33  1  0  0  0  0
 39 40  1  0  0  0  0
 39 34  1  0  0  0  0
 41 40  2  0  0  0  0
 42 41  1  0  0  0  0
 43 45  1  0  0  0  0
 43 41  1  0  0  0  0
 44 43  1  0  0  0  0
 45 39  2  0  0  0  0
M  END
>  <minimizedAffinity>
-5.87891102

$$$$

 OpenBabel03252503253D

 45 50  0  0  1  0  0  0  0  0999 V2000
   37.2570   27.3430   41.2390 C   0  0  1  0  0  0  0  0  0  0  0  0
   36.7380   27.7060   42.5530 C   0  0  0  0  0  0  0  0  0  0  0  0
   38.1630   28.0010   42.2680 C   0  0  2  0  0  0  0  0  0  0  0  0
   37.0340   27.9540   40.3460 H   0  0  0  0  0  0  0  0  0  0  0  0
   36.6010   26.8590   43.3000 H   0  0  0  0  0  0  0  0  0  0  0  0
   35.9200   28.4060   42.5860 H   0  0  0  0  0  0  0  0  0  0  0  0
   39.0120   27.4110   42.6250 H   0  0  0  0  0  0  0  0  0  0  0  0
   38.5140   29.4110   41.9550 C   0  0  0  0  0  0  0  0  0  0  0  0
   39.6150   30.0740   42.4570 C   0  0  0  0  0  0  0  0  0  0  0  0
   39.8730   31.3930   42.1170 C   0  0  0  0  0  0  0  0  0  0  0  0
   39.0340   32.0690   41.2730 C   0  0  0  0  0  0  0  0  0  0  0  0
   39.2640   33.3540   40.9260 N   0  0  0  0  0  0  0  0  0  0  0  0
   38.4140   34.0080   40.0840 C   0  0  0  0  0  0  0  0  0  0  0  0
   37.2590   33.4140   39.5210 C   0  0  0  0  0  0  0  0  0  0  0  0
   37.0250   32.0980   39.8750 C   0  0  0  0  0  0  0  0  0  0  0  0
   37.9000   31.4470   40.7340 C   0  0  0  0  0  0  0  0  0  0  0  0
   37.6820   30.1350   41.0980 C   0  0  0  0  0  0  0  0  0  0  0  0
   40.2580   29.5030   43.1250 H   0  0  0  0  0  0  0  0  0  0  0  0
   40.7560   31.8690   42.5400 H   0  0  0  0  0  0  0  0  0  0  0  0
   38.6280   35.0350   39.8280 H   0  0  0  0  0  0  0  0  0  0  0  0
   36.6400   34.0060   38.8620 H   0  0  0  0  0  0  0  0  0  0  0  0
   36.1590   31.6080   39.4710 H   0  0  0  0  0  0  0  0  0  0  0  0
   36.7880   29.7250   40.6490 H   0  0  0  0  0  0  0  0  0  0  0  0
   37.0690   24.8940   41.7860 C   0  0  0  0  0  0  0  0  0  0  0  0
   37.5570   25.9190   40.9070 C   0  0  0  0  0  0  0  0  0  0  0  0
   38.2780   25.5340   39.8060 C   0  0  0  0  0  0  0  0  0  0  0  0
   38.4860   24.2020   39.6160 N   0  0  0  0  0  0  0  0  0  0  0  0
   38.0180   23.2480   40.4580 C   0  0  0  0  0  0  0  0  0  0  0  0
   37.3090   23.5960   41.5430 N   0  0  0  0  0  0  0  0  0  0  0  0
   36.4950   25.1960   42.6650 H   0  0  0  0  0  0  0  0  0  0  0  0
   38.6520   26.2750   39.1340 H   0  0  0  0  0  0  0  0  0  0  0  0
   38.3050   21.8290   40.1320 C   0  0  2  0  0  0  0  0  0  0  0  0
   38.5390   21.3820   38.7710 C   0  0  0  0  0  0  0  0  0  0  0  0
   37.1670   21.1180   39.3450 C   0  0  2  0  0  0  0  0  0  0  0  0
   38.5840   21.2180   41.0280 H   0  0  0  0  0  0  0  0  0  0  0  0
   39.1620   20.4590   38.6580 H   0  0  0  0  0  0  0  0  0  0  0  0
   38.6890   22.0970   37.9520 H   0  0  0  0  0  0  0  0  0  0  0  0
   36.9230   20.0720   39.6500 H   0  0  0  0  0  0  0  0  0  0  0  0
   36.1020   21.9650   38.7520 C   0  0  0  0  0  0  0  0  0  0  0  0
   34.9220   22.4610   39.1600 N   0  0  0  0  0  0  0  0  0  0  0  0
   34.3200   23.1920   38.2160 C   0  0  0  0  0  0  0  0  0  0  0  0
   33.3600   23.6480   38.4240 H   0  0  0  0  0  0  0  0  0  0  0  0
   35.1560   23.1560   37.1660 N   0  0  0  0  0  0  0  0  0  0  0  0
   34.9160   23.6600   36.2740 H   0  0  0  0  0  0  0  0  0  0  0  0
   36.2100   22.4320   37.4780 N   0  0  0  0  0  0  0  0  0  0  0  0
  1  4  1  6  0  0  0
  1  3  1  0  0  0  0
  1  2  1  0  0  0  0
  2  6  1  0  0  0  0
  2  5  1  0  0  0  0
  3  2  1  0  0  0  0
  3  7  1  1  0  0  0
  8  3  1  0  0  0  0
  8  9  1  0  0  0  0
  9 18  1  0  0  0  0
 10  9  2  0  0  0  0
 10 19  1  0  0  0  0
 11 10  1  0  0  0  0
 12 11  1  0  0  0  0
 13 12  2  0  0  0  0
 14 15  2  0  0  0  0
 14 13  1  0  0  0  0
 15 16  1  0  0  0  0
 16 17  1  0  0  0  0
 16 11  2  0  0  0  0
 17  8  2  0  0  0  0
 20 13  1  0  0  0  0
 21 14  1  0  0  0  0
 22 15  1  0  0  0  0
 23 17  1  0  0  0  0
 24 30  1  0  0  0  0
 25  1  1  0  0  0  0
 25 24  2  0  0  0  0
 26 25  1  0  0  0  0
 27 26  2  0  0  0  0
 27 28  1  0  0  0  0
 28 29  2  0  0  0  0
 29 24  1  0  0  0  0
 31 26  1  0  0  0  0
 32 28  1  0  0  0  0
 32 35  1  1  0  0  0
 33 34  1  0  0  0  0
 33 32  1  0  0  0  0
 34 38  1  1  0  0  0
 34 32  1  0  0  0  0
 36 33  1  0  0  0  0
 37 33  1  0  0  0  0
 39 40  1  0  0  0  0
 39 34  1  0  0  0  0
 41 42  1  0  0  0  0
 41 40  2  0  0  0  0
 43 45  1  0  0  0  0
 43 41  1  0  0  0  0
 44 43  1  0  0  0  0
 45 39  2  0  0  0  0
M  END
>  <minimizedAffinity>
-5.87717819

$$$$

 OpenBabel03252503253D

 45 50  0  0  1  0  0  0  0  0999 V2000
   35.4830   29.5160   38.3560 C   0  0  1  0  0  0  0  0  0  0  0  0
   35.5390   28.5870   37.2330 C   0  0  0  0  0  0  0  0  0  0  0  0
   34.3560   28.5230   38.1250 C   0  0  2  0  0  0  0  0  0  0  0  0
   35.2170   30.5790   38.2080 H   0  0  0  0  0  0  0  0  0  0  0  0
   36.2290   27.6900   37.3460 H   0  0  0  0  0  0  0  0  0  0  0  0
   35.5880   29.0090   36.2430 H   0  0  0  0  0  0  0  0  0  0  0  0
   34.1940   27.7730   38.9040 H   0  0  0  0  0  0  0  0  0  0  0  0
   33.0970   29.1390   37.6260 C   0  0  0  0  0  0  0  0  0  0  0  0
   32.0520   29.5440   38.4300 C   0  0  0  0  0  0  0  0  0  0  0  0
   30.9090   30.1090   37.8880 C   0  0  0  0  0  0  0  0  0  0  0  0
   30.7920   30.2760   36.5340 C   0  0  0  0  0  0  0  0  0  0  0  0
   29.6890   30.8240   35.9810 N   0  0  0  0  0  0  0  0  0  0  0  0
   29.5950   30.9800   34.6300 C   0  0  0  0  0  0  0  0  0  0  0  0
   30.6120   30.5940   33.7240 C   0  0  0  0  0  0  0  0  0  0  0  0
   31.7420   30.0330   34.2910 C   0  0  0  0  0  0  0  0  0  0  0  0
   31.8220   29.8820   35.6690 C   0  0  0  0  0  0  0  0  0  0  0  0
   32.9410   29.3250   36.2520 C   0  0  0  0  0  0  0  0  0  0  0  0
   32.1820   29.3950   39.5020 H   0  0  0  0  0  0  0  0  0  0  0  0
   30.1140   30.4130   38.5670 H   0  0  0  0  0  0  0  0  0  0  0  0
   28.6980   31.4220   34.2210 H   0  0  0  0  0  0  0  0  0  0  0  0
   30.4540   30.7530   32.6670 H   0  0  0  0  0  0  0  0  0  0  0  0
   32.5390   29.7250   33.6410 H   0  0  0  0  0  0  0  0  0  0  0  0
   33.6870   29.0410   35.5230 H   0  0  0  0  0  0  0  0  0  0  0  0
   37.6920   28.8960   39.3900 C   0  0  0  0  0  0  0  0  0  0  0  0
   36.3240   29.2940   39.5690 C   0  0  0  0  0  0  0  0  0  0  0  0
   35.8590   29.4460   40.8500 C   0  0  0  0  0  0  0  0  0  0  0  0
   36.7260   29.2090   41.8730 N   0  0  0  0  0  0  0  0  0  0  0  0
   38.0150   28.8340   41.6840 C   0  0  0  0  0  0  0  0  0  0  0  0
   38.4970   28.6780   40.4420 N   0  0  0  0  0  0  0  0  0  0  0  0
   38.0660   28.7740   38.3710 H   0  0  0  0  0  0  0  0  0  0  0  0
   34.8460   29.7420   41.0130 H   0  0  0  0  0  0  0  0  0  0  0  0
   38.8610   28.6170   42.8850 C   0  0  2  0  0  0  0  0  0  0  0  0
   40.0590   27.8000   42.8480 C   0  0  0  0  0  0  0  0  0  0  0  0
   38.8200   27.1630   43.4330 C   0  0  2  0  0  0  0  0  0  0  0  0
   38.6440   29.3400   43.7130 H   0  0  0  0  0  0  0  0  0  0  0  0
   40.8400   28.0410   43.6130 H   0  0  0  0  0  0  0  0  0  0  0  0
   40.4870   27.4530   41.9000 H   0  0  0  0  0  0  0  0  0  0  0  0
   38.7690   27.0450   44.5420 H   0  0  0  0  0  0  0  0  0  0  0  0
   38.2270   26.1130   42.5670 C   0  0  0  0  0  0  0  0  0  0  0  0
   36.9960   25.6200   42.3510 N   0  0  0  0  0  0  0  0  0  0  0  0
   36.9880   24.6430   41.4370 C   0  0  0  0  0  0  0  0  0  0  0  0
   36.0540   24.1640   41.1750 H   0  0  0  0  0  0  0  0  0  0  0  0
   38.2710   24.5140   41.0600 N   0  0  0  0  0  0  0  0  0  0  0  0
   38.5460   23.8010   40.3370 H   0  0  0  0  0  0  0  0  0  0  0  0
   39.0060   25.3810   41.7260 N   0  0  0  0  0  0  0  0  0  0  0  0
  1  4  1  6  0  0  0
  1 25  1  0  0  0  0
  2  5  1  0  0  0  0
  2  3  1  0  0  0  0
  2  1  1  0  0  0  0
  3  1  1  0  0  0  0
  3  7  1  1  0  0  0
  6  2  1  0  0  0  0
  8  3  1  0  0  0  0
  8  9  1  0  0  0  0
  9 18  1  0  0  0  0
 10  9  2  0  0  0  0
 10 19  1  0  0  0  0
 11 10  1  0  0  0  0
 12 11  1  0  0  0  0
 13 12  2  0  0  0  0
 14 15  2  0  0  0  0
 14 13  1  0  0  0  0
 15 16  1  0  0  0  0
 16 17  1  0  0  0  0
 16 11  2  0  0  0  0
 17  8  2  0  0  0  0
 20 13  1  0  0  0  0
 21 14  1  0  0  0  0
 22 15  1  0  0  0  0
 23 17  1  0  0  0  0
 24 25  2  0  0  0  0
 24 29  1  0  0  0  0
 25 26  1  0  0  0  0
 26 31  1  0  0  0  0
 26 27  2  0  0  0  0
 28 27  1  0  0  0  0
 28 32  1  0  0  0  0
 29 28  2  0  0  0  0
 30 24  1  0  0  0  0
 32 34  1  0  0  0  0
 32 35  1  1  0  0  0
 33 32  1  0  0  0  0
 33 34  1  0  0  0  0
 33 36  1  0  0  0  0
 34 38  1  1  0  0  0
 37 33  1  0  0  0  0
 39 34  1  0  0  0  0
 40 39  1  0  0  0  0
 41 40  2  0  0  0  0
 42 41  1  0  0  0  0
 43 41  1  0  0  0  0
 43 45  1  0  0  0  0
 44 43  1  0  0  0  0
 45 39  2  0  0  0  0
M  END
>  <minimizedAffinity>
-5.844769

$$$$

 OpenBabel03252503253D

 45 50  0  0  1  0  0  0  0  0999 V2000
   35.7370   28.8400   40.0800 C   0  0  1  0  0  0  0  0  0  0  0  0
   35.9690   29.9770   39.1960 C   0  0  0  0  0  0  0  0  0  0  0  0
   36.0260   28.6190   38.6040 C   0  0  2  0  0  0  0  0  0  0  0  0
   34.7180   28.5680   40.4100 H   0  0  0  0  0  0  0  0  0  0  0  0
   36.9890   30.4750   39.2630 H   0  0  0  0  0  0  0  0  0  0  0  0
   35.1750   30.6980   39.1000 H   0  0  0  0  0  0  0  0  0  0  0  0
   36.9440   28.0760   38.3580 H   0  0  0  0  0  0  0  0  0  0  0  0
   34.8470   28.1730   37.8150 C   0  0  0  0  0  0  0  0  0  0  0  0
   34.6400   26.8810   37.3780 C   0  0  0  0  0  0  0  0  0  0  0  0
   33.5130   26.5450   36.6450 C   0  0  0  0  0  0  0  0  0  0  0  0
   32.5770   27.4950   36.3360 C   0  0  0  0  0  0  0  0  0  0  0  0
   31.4710   27.1930   35.6220 N   0  0  0  0  0  0  0  0  0  0  0  0
   30.5530   28.1560   35.3260 C   0  0  0  0  0  0  0  0  0  0  0  0
   30.6780   29.5080   35.7270 C   0  0  0  0  0  0  0  0  0  0  0  0
   31.8100   29.8160   36.4580 C   0  0  0  0  0  0  0  0  0  0  0  0
   32.7350   28.8240   36.7520 C   0  0  0  0  0  0  0  0  0  0  0  0
   33.8700   29.1130   37.4800 C   0  0  0  0  0  0  0  0  0  0  0  0
   35.4060   26.1540   37.6440 H   0  0  0  0  0  0  0  0  0  0  0  0
   33.3980   25.5100   36.3250 H   0  0  0  0  0  0  0  0  0  0  0  0
   29.6790   27.8800   34.7540 H   0  0  0  0  0  0  0  0  0  0  0  0
   29.9020   30.2060   35.4480 H   0  0  0  0  0  0  0  0  0  0  0  0
   31.9460   30.8310   36.7840 H   0  0  0  0  0  0  0  0  0  0  0  0
   33.9270   30.1560   37.7600 H   0  0  0  0  0  0  0  0  0  0  0  0
   36.3870   27.7380   42.2470 C   0  0  0  0  0  0  0  0  0  0  0  0
   36.7930   28.3920   41.0360 C   0  0  0  0  0  0  0  0  0  0  0  0
   38.1350   28.5770   40.8220 C   0  0  0  0  0  0  0  0  0  0  0  0
   38.9980   28.1270   41.7740 N   0  0  0  0  0  0  0  0  0  0  0  0
   38.5950   27.5100   42.9120 C   0  0  0  0  0  0  0  0  0  0  0  0
   37.2890   27.3160   43.1480 N   0  0  0  0  0  0  0  0  0  0  0  0
   35.3190   27.5890   42.4220 H   0  0  0  0  0  0  0  0  0  0  0  0
   38.4670   29.0610   39.9290 H   0  0  0  0  0  0  0  0  0  0  0  0
   39.6390   27.0560   43.8650 C   0  0  2  0  0  0  0  0  0  0  0  0
   40.9680   26.6710   43.4280 C   0  0  0  0  0  0  0  0  0  0  0  0
   40.0030   25.5490   43.7330 C   0  0  2  0  0  0  0  0  0  0  0  0
   39.3960   27.2940   44.9320 H   0  0  0  0  0  0  0  0  0  0  0  0
   41.7840   26.7770   44.1870 H   0  0  0  0  0  0  0  0  0  0  0  0
   41.3130   26.8660   42.4050 H   0  0  0  0  0  0  0  0  0  0  0  0
   40.1480   24.9830   44.6850 H   0  0  0  0  0  0  0  0  0  0  0  0
   39.5320   24.8260   42.5260 C   0  0  0  0  0  0  0  0  0  0  0  0
   39.9120   24.7400   41.2410 N   0  0  0  0  0  0  0  0  0  0  0  0
   39.1290   23.9210   40.5290 C   0  0  0  0  0  0  0  0  0  0  0  0
   39.3330   23.7670   39.4770 H   0  0  0  0  0  0  0  0  0  0  0  0
   38.2150   23.4710   41.4030 N   0  0  0  0  0  0  0  0  0  0  0  0
   37.4660   22.7990   41.0950 H   0  0  0  0  0  0  0  0  0  0  0  0
   38.4490   24.0030   42.5850 N   0  0  0  0  0  0  0  0  0  0  0  0
  1  4  1  1  0  0  0
  1 25  1  0  0  0  0
  2  5  1  0  0  0  0
  2  1  1  0  0  0  0
  3  7  1  6  0  0  0
  3  2  1  0  0  0  0
  3  1  1  0  0  0  0
  6  2  1  0  0  0  0
  8  3  1  0  0  0  0
  9 18  1  0  0  0  0
  9  8  2  0  0  0  0
 10  9  1  0  0  0  0
 11 10  2  0  0  0  0
 11 16  1  0  0  0  0
 12 11  1  0  0  0  0
 13 12  2  0  0  0  0
 13 14  1  0  0  0  0
 14 15  2  0  0  0  0
 15 16  1  0  0  0  0
 15 22  1  0  0  0  0
 16 17  2  0  0  0  0
 17 23  1  0  0  0  0
 17  8  1  0  0  0  0
 19 10  1  0  0  0  0
 20 13  1  0  0  0  0
 21 14  1  0  0  0  0
 24 30  1  0  0  0  0
 24 29  1  0  0  0  0
 25 24  2  0  0  0  0
 26 25  1  0  0  0  0
 26 27  2  0  0  0  0
 27 28  1  0  0  0  0
 28 29  2  0  0  0  0
 28 32  1  0  0  0  0
 31 26  1  0  0  0  0
 32 35  1  1  0  0  0
 33 34  1  0  0  0  0
 33 32  1  0  0  0  0
 33 36  1  0  0  0  0
 34 32  1  0  0  0  0
 34 38  1  1  0  0  0
 37 33  1  0  0  0  0
 39 45  2  0  0  0  0
 39 34  1  0  0  0  0
 40 39  1  0  0  0  0
 41 40  2  0  0  0  0
 41 43  1  0  0  0  0
 42 41  1  0  0  0  0
 43 45  1  0  0  0  0
 44 43  1  0  0  0  0
M  END
>  <minimizedAffinity>
-5.83497906

$$$$

 OpenBabel03252503253D

 45 50  0  0  1  0  0  0  0  0999 V2000
   40.0270   28.0420   41.8610 C   0  0  1  0  0  0  0  0  0  0  0  0
   39.4390   27.9500   43.1930 C   0  0  0  0  0  0  0  0  0  0  0  0
   38.5170   28.0660   42.0380 C   0  0  2  0  0  0  0  0  0  0  0  0
   40.4290   27.1480   41.3500 H   0  0  0  0  0  0  0  0  0  0  0  0
   39.4720   28.8920   43.8310 H   0  0  0  0  0  0  0  0  0  0  0  0
   39.6560   27.0670   43.7700 H   0  0  0  0  0  0  0  0  0  0  0  0
   38.0010   28.9810   41.7330 H   0  0  0  0  0  0  0  0  0  0  0  0
   37.8330   26.8240   41.5900 C   0  0  0  0  0  0  0  0  0  0  0  0
   37.7160   25.6780   42.3480 C   0  0  0  0  0  0  0  0  0  0  0  0
   37.0620   24.5590   41.8580 C   0  0  0  0  0  0  0  0  0  0  0  0
   36.5170   24.5680   40.6010 C   0  0  0  0  0  0  0  0  0  0  0  0
   35.8750   23.4910   40.1010 N   0  0  0  0  0  0  0  0  0  0  0  0
   35.3410   23.5220   38.8470 C   0  0  0  0  0  0  0  0  0  0  0  0
   35.4120   24.6500   37.9940 C   0  0  0  0  0  0  0  0  0  0  0  0
   36.0690   25.7520   38.5070 C   0  0  0  0  0  0  0  0  0  0  0  0
   36.6070   25.7040   39.7870 C   0  0  0  0  0  0  0  0  0  0  0  0
   37.2650   26.7950   40.3150 C   0  0  0  0  0  0  0  0  0  0  0  0
   38.1620   25.7100   43.3420 H   0  0  0  0  0  0  0  0  0  0  0  0
   36.9970   23.6800   42.4980 H   0  0  0  0  0  0  0  0  0  0  0  0
   34.8340   22.6430   38.4780 H   0  0  0  0  0  0  0  0  0  0  0  0
   34.9620   24.5880   37.0140 H   0  0  0  0  0  0  0  0  0  0  0  0
   36.1470   26.6310   37.8940 H   0  0  0  0  0  0  0  0  0  0  0  0
   37.3000   27.6290   39.6280 H   0  0  0  0  0  0  0  0  0  0  0  0
   40.7740   30.4000   42.3220 C   0  0  0  0  0  0  0  0  0  0  0  0
   40.6600   29.3100   41.3950 C   0  0  0  0  0  0  0  0  0  0  0  0
   41.1380   29.4940   40.1220 C   0  0  0  0  0  0  0  0  0  0  0  0
   41.6910   30.7010   39.8200 N   0  0  0  0  0  0  0  0  0  0  0  0
   41.7890   31.7190   40.7100 C   0  0  0  0  0  0  0  0  0  0  0  0
   41.3300   31.5670   41.9610 N   0  0  0  0  0  0  0  0  0  0  0  0
   40.3940   30.2580   43.3370 H   0  0  0  0  0  0  0  0  0  0  0  0
   41.0680   28.7000   39.4110 H   0  0  0  0  0  0  0  0  0  0  0  0
   42.4240   32.9820   40.2560 C   0  0  2  0  0  0  0  0  0  0  0  0
   42.1530   34.2550   40.8970 C   0  0  0  0  0  0  0  0  0  0  0  0
   41.4360   33.9840   39.5950 C   0  0  2  0  0  0  0  0  0  0  0  0
   43.3030   32.8160   39.5820 H   0  0  0  0  0  0  0  0  0  0  0  0
   42.9580   35.0290   40.8110 H   0  0  0  0  0  0  0  0  0  0  0  0
   41.6090   34.3140   41.8470 H   0  0  0  0  0  0  0  0  0  0  0  0
   41.7970   34.5160   38.6810 H   0  0  0  0  0  0  0  0  0  0  0  0
   39.9820   33.7330   39.7580 C   0  0  0  0  0  0  0  0  0  0  0  0
   39.0680   32.9360   39.1810 N   0  0  0  0  0  0  0  0  0  0  0  0
   37.8480   33.0910   39.7060 C   0  0  0  0  0  0  0  0  0  0  0  0
   37.0230   32.5030   39.3260 H   0  0  0  0  0  0  0  0  0  0  0  0
   37.9990   34.0280   40.6570 N   0  0  0  0  0  0  0  0  0  0  0  0
   37.1760   34.3420   41.2330 H   0  0  0  0  0  0  0  0  0  0  0  0
   39.2580   34.4100   40.6900 N   0  0  0  0  0  0  0  0  0  0  0  0
  1  4  1  6  0  0  0
  1  3  1  0  0  0  0
  1  2  1  0  0  0  0
  2  6  1  0  0  0  0
  2  5  1  0  0  0  0
  3  7  1  6  0  0  0
  3  2  1  0  0  0  0
  8  3  1  0  0  0  0
  8  9  1  0  0  0  0
  9 18  1  0  0  0  0
 10  9  2  0  0  0  0
 10 19  1  0  0  0  0
 11 10  1  0  0  0  0
 12 11  1  0  0  0  0
 13 12  2  0  0  0  0
 14 15  2  0  0  0  0
 14 13  1  0  0  0  0
 15 16  1  0  0  0  0
 16 17  1  0  0  0  0
 16 11  2  0  0  0  0
 17  8  2  0  0  0  0
 20 13  1  0  0  0  0
 21 14  1  0  0  0  0
 22 15  1  0  0  0  0
 23 17  1  0  0  0  0
 24 30  1  0  0  0  0
 25  1  1  0  0  0  0
 25 24  2  0  0  0  0
 26 25  1  0  0  0  0
 27 26  2  0  0  0  0
 27 28  1  0  0  0  0
 28 29  2  0  0  0  0
 29 24  1  0  0  0  0
 31 26  1  0  0  0  0
 32 35  1  6  0  0  0
 32 28  1  0  0  0  0
 32 33  1  0  0  0  0
 33 37  1  0  0  0  0
 34 38  1  6  0  0  0
 34 39  1  0  0  0  0
 34 32  1  0  0  0  0
 34 33  1  0  0  0  0
 36 33  1  0  0  0  0
 39 45  2  0  0  0  0
 40 41  2  0  0  0  0
 40 39  1  0  0  0  0
 41 43  1  0  0  0  0
 42 41  1  0  0  0  0
 43 45  1  0  0  0  0
 43 44  1  0  0  0  0
M  END
>  <minimizedAffinity>
-5.82376242

$$$$

 OpenBabel03252503253D

 45 50  0  0  1  0  0  0  0  0999 V2000
   35.1560   29.2210   36.8570 C   0  0  1  0  0  0  0  0  0  0  0  0
   35.0540   29.0000   35.4190 C   0  0  0  0  0  0  0  0  0  0  0  0
   33.9280   28.5460   36.2690 C   0  0  2  0  0  0  0  0  0  0  0  0
   34.9830   30.2190   37.2980 H   0  0  0  0  0  0  0  0  0  0  0  0
   35.6630   28.1400   34.9900 H   0  0  0  0  0  0  0  0  0  0  0  0
   35.0830   29.8680   34.7820 H   0  0  0  0  0  0  0  0  0  0  0  0
   33.7430   27.5100   36.5700 H   0  0  0  0  0  0  0  0  0  0  0  0
   32.7050   29.3920   36.2820 C   0  0  0  0  0  0  0  0  0  0  0  0
   31.8550   29.5220   37.3610 C   0  0  0  0  0  0  0  0  0  0  0  0
   30.7320   30.3310   37.2950 C   0  0  0  0  0  0  0  0  0  0  0  0
   30.4410   31.0210   36.1480 C   0  0  0  0  0  0  0  0  0  0  0  0
   29.3530   31.8160   36.0580 N   0  0  0  0  0  0  0  0  0  0  0  0
   29.0820   32.4930   34.9060 C   0  0  0  0  0  0  0  0  0  0  0  0
   29.8920   32.4210   33.7470 C   0  0  0  0  0  0  0  0  0  0  0  0
   31.0060   31.6070   33.8400 C   0  0  0  0  0  0  0  0  0  0  0  0
   31.2670   30.9260   35.0210 C   0  0  0  0  0  0  0  0  0  0  0  0
   32.3740   30.1100   35.1320 C   0  0  0  0  0  0  0  0  0  0  0  0
   32.1210   28.9580   38.2550 H   0  0  0  0  0  0  0  0  0  0  0  0
   30.0950   30.4000   38.1750 H   0  0  0  0  0  0  0  0  0  0  0  0
   28.2030   33.1200   34.8680 H   0  0  0  0  0  0  0  0  0  0  0  0
   29.6020   32.9910   32.8750 H   0  0  0  0  0  0  0  0  0  0  0  0
   31.6490   31.5240   32.9840 H   0  0  0  0  0  0  0  0  0  0  0  0
   32.9590   30.0820   34.2230 H   0  0  0  0  0  0  0  0  0  0  0  0
   35.4820   27.7160   38.8480 C   0  0  0  0  0  0  0  0  0  0  0  0
   36.0450   28.3640   37.6970 C   0  0  0  0  0  0  0  0  0  0  0  0
   37.3750   28.1640   37.4300 C   0  0  0  0  0  0  0  0  0  0  0  0
   38.0790   27.3620   38.2760 N   0  0  0  0  0  0  0  0  0  0  0  0
   37.5300   26.7590   39.3590 C   0  0  0  0  0  0  0  0  0  0  0  0
   36.2310   26.9360   39.6440 N   0  0  0  0  0  0  0  0  0  0  0  0
   34.4230   27.8730   39.0640 H   0  0  0  0  0  0  0  0  0  0  0  0
   37.8200   28.6330   36.5800 H   0  0  0  0  0  0  0  0  0  0  0  0
   38.4050   25.8990   40.1950 C   0  0  2  0  0  0  0  0  0  0  0  0
   38.0300   25.4880   41.5350 C   0  0  0  0  0  0  0  0  0  0  0  0
   39.0160   26.6270   41.4260 C   0  0  2  0  0  0  0  0  0  0  0  0
   39.2180   25.3970   39.6110 H   0  0  0  0  0  0  0  0  0  0  0  0
   38.4870   24.5340   41.9020 H   0  0  0  0  0  0  0  0  0  0  0  0
   37.0140   25.6450   41.9190 H   0  0  0  0  0  0  0  0  0  0  0  0
   40.0870   26.4120   41.6570 H   0  0  0  0  0  0  0  0  0  0  0  0
   38.4460   27.9450   41.8050 C   0  0  0  0  0  0  0  0  0  0  0  0
   38.6130   29.2190   41.4140 N   0  0  0  0  0  0  0  0  0  0  0  0
   37.8350   30.0690   42.0920 C   0  0  0  0  0  0  0  0  0  0  0  0
   37.8780   31.1280   41.8680 H   0  0  0  0  0  0  0  0  0  0  0  0
   37.1450   29.2980   42.9480 N   0  0  0  0  0  0  0  0  0  0  0  0
   36.4490   29.7260   43.6100 H   0  0  0  0  0  0  0  0  0  0  0  0
   37.5030   28.0420   42.7820 N   0  0  0  0  0  0  0  0  0  0  0  0
  1  4  1  1  0  0  0
  1 25  1  0  0  0  0
  2  3  1  0  0  0  0
  2  1  1  0  0  0  0
  3  8  1  0  0  0  0
  3  7  1  1  0  0  0
  3  1  1  0  0  0  0
  5  2  1  0  0  0  0
  6  2  1  0  0  0  0
  8  9  1  0  0  0  0
  9 18  1  0  0  0  0
 10  9  2  0  0  0  0
 10 19  1  0  0  0  0
 11 10  1  0  0  0  0
 12 11  1  0  0  0  0
 13 12  2  0  0  0  0
 14 15  2  0  0  0  0
 14 13  1  0  0  0  0
 15 16  1  0  0  0  0
 16 17  1  0  0  0  0
 16 11  2  0  0  0  0
 17  8  2  0  0  0  0
 20 13  1  0  0  0  0
 21 14  1  0  0  0  0
 22 15  1  0  0  0  0
 23 17  1  0  0  0  0
 24 30  1  0  0  0  0
 24 29  1  0  0  0  0
 25 24  2  0  0  0  0
 26 25  1  0  0  0  0
 26 27  2  0  0  0  0
 27 28  1  0  0  0  0
 28 29  2  0  0  0  0
 28 32  1  0  0  0  0
 31 26  1  0  0  0  0
 32 35  1  6  0  0  0
 32 34  1  0  0  0  0
 32 33  1  0  0  0  0
 33 36  1  0  0  0  0
 33 37  1  0  0  0  0
 34 33  1  0  0  0  0
 34 38  1  1  0  0  0
 34 39  1  0  0  0  0
 39 45  2  0  0  0  0
 40 39  1  0  0  0  0
 40 41  2  0  0  0  0
 41 43  1  0  0  0  0
 42 41  1  0  0  0  0
 43 44  1  0  0  0  0
 45 43  1  0  0  0  0
M  END
>  <minimizedAffinity>
-5.74773359

$$$$
