
 OpenBabel03252508383D

 39 42  0  0  0  0  0  0  0  0999 V2000
   45.1420   33.9540   40.6980 C   0  0  0  0  0  0  0  0  0  0  0  0
   44.0960   33.6380   39.8770 C   0  0  0  0  0  0  0  0  0  0  0  0
   44.3930   33.1460   38.6440 C   0  0  0  0  0  0  0  0  0  0  0  0
   45.6770   32.9510   38.1830 C   0  0  0  0  0  0  0  0  0  0  0  0
   46.7050   33.2770   39.0310 C   0  0  0  0  0  0  0  0  0  0  0  0
   46.4550   33.7790   40.2890 C   0  0  0  0  0  0  0  0  0  0  0  0
   43.5690   32.8930   37.9850 H   0  0  0  0  0  0  0  0  0  0  0  0
   45.8970   32.5550   37.1890 H   0  0  0  0  0  0  0  0  0  0  0  0
   47.7120   33.1230   38.6660 H   0  0  0  0  0  0  0  0  0  0  0  0
   40.8120   35.2690   40.7900 C   0  0  0  0  0  0  0  0  0  0  0  0
   42.1060   35.0930   40.2730 C   0  0  0  0  0  0  0  0  0  0  0  0
   42.7610   33.8570   40.3970 C   0  0  0  0  0  0  0  0  0  0  0  0
   42.0470   32.8970   41.0370 N   0  0  0  0  0  0  0  0  0  0  0  0
   40.8180   33.0770   41.5230 C   0  0  0  0  0  0  0  0  0  0  0  0
   40.2050   34.2640   41.3970 N   0  0  0  0  0  0  0  0  0  0  0  0
   40.2040   36.5280   40.6380 N   0  0  0  0  0  0  0  0  0  0  0  0
   42.6750   35.8620   39.7620 H   0  0  0  0  0  0  0  0  0  0  0  0
   40.3910   32.2050   42.0060 H   0  0  0  0  0  0  0  0  0  0  0  0
   40.7380   37.2630   41.1490 H   0  0  0  0  0  0  0  0  0  0  0  0
   39.3250   36.6930   40.0770 H   0  0  0  0  0  0  0  0  0  0  0  0
   47.6220   34.0950   41.1140 C   0  0  0  0  0  0  0  0  0  0  0  0
   48.1370   35.3530   40.9540 C   0  0  0  0  0  0  0  0  0  0  0  0
   49.2440   35.8200   41.6580 C   0  0  0  0  0  0  0  0  0  0  0  0
   49.8390   34.9490   42.5630 C   0  0  0  0  0  0  0  0  0  0  0  0
   49.3350   33.6850   42.7360 C   0  0  0  0  0  0  0  0  0  0  0  0
   48.2340   33.2480   42.0210 C   0  0  0  0  0  0  0  0  0  0  0  0
   47.7330   36.0900   40.2720 H   0  0  0  0  0  0  0  0  0  0  0  0
   49.6500   36.7950   41.5400 H   0  0  0  0  0  0  0  0  0  0  0  0
   50.7030   35.2220   43.1560 H   0  0  0  0  0  0  0  0  0  0  0  0
   49.7570   32.9640   43.4250 H   0  0  0  0  0  0  0  0  0  0  0  0
   47.6420   31.9090   42.1560 C   0  0  0  0  0  0  0  0  0  0  0  0
   46.6660   31.4840   42.9880 N   0  0  0  0  0  0  0  0  0  0  0  0
   46.4510   30.1620   42.7500 C   0  0  0  0  0  0  0  0  0  0  0  0
   45.6680   29.7750   43.4020 H   0  0  0  0  0  0  0  0  0  0  0  0
   47.3070   29.8100   41.7710 N   0  0  0  0  0  0  0  0  0  0  0  0
   47.2260   28.7930   41.5020 H   0  0  0  0  0  0  0  0  0  0  0  0
   48.0210   30.8390   41.4080 N   0  0  0  0  0  0  0  0  0  0  0  0
   44.7370   34.8930   43.0960 N   0  0  0  0  0  0  0  0  0  0  0  0
   44.9220   34.4780   42.0140 C   0  0  0  0  0  0  0  0  0  0  0  0
  1 39  1  0  0  0  0
  2 12  1  0  0  0  0
  2  1  2  0  0  0  0
  3  2  1  0  0  0  0
  4  3  2  0  0  0  0
  4  5  1  0  0  0  0
  5  6  2  0  0  0  0
  6  1  1  0  0  0  0
  6 21  1  0  0  0  0
  7  3  1  0  0  0  0
  8  4  1  0  0  0  0
  9  5  1  0  0  0  0
 10 15  1  0  0  0  0
 11 12  1  0  0  0  0
 11 10  2  0  0  0  0
 12 13  2  0  0  0  0
 13 14  1  0  0  0  0
 14 18  1  0  0  0  0
 15 14  2  0  0  0  0
 16 10  1  0  0  0  0
 16 19  1  0  0  0  0
 17 11  1  0  0  0  0
 20 16  1  0  0  0  0
 21 26  1  0  0  0  0
 22 21  2  0  0  0  0
 22 23  1  0  0  0  0
 23 24  2  0  0  0  0
 24 25  1  0  0  0  0
 24 29  1  0  0  0  0
 25 30  1  0  0  0  0
 26 31  1  0  0  0  0
 26 25  2  0  0  0  0
 27 22  1  0  0  0  0
 28 23  1  0  0  0  0
 31 32  1  0  0  0  0
 33 32  2  0  0  0  0
 33 34  1  0  0  0  0
 35 33  1  0  0  0  0
 36 35  1  0  0  0  0
 37 35  1  0  0  0  0
 37 31  2  0  0  0  0
 39 38  3  0  0  0  0
M  END
>  <minimizedAffinity>
-5.90538311

>  <minimizedRMSD>
0.188421831

$$$$
