
 OpenBabel03252509043D

 46 48  0  0  1  0  0  0  0  0999 V2000
   46.9720   34.3540   43.3420 N   0  0  0  0  0  0  0  0  0  0  0  0
   46.5050   35.5240   42.6940 C   0  0  0  0  0  0  0  0  0  0  0  0
   45.0230   35.7640   42.8170 C   0  0  0  0  0  0  0  0  0  0  0  0
   44.4150   35.2960   44.1200 C   0  0  0  0  0  0  0  0  0  0  0  0
   45.4740   34.7660   45.0590 C   0  0  0  0  0  0  0  0  0  0  0  0
   46.1700   33.6410   44.2110 C   0  0  2  0  0  0  0  0  0  0  0  0
   46.9800   36.4000   43.2200 H   0  0  0  0  0  0  0  0  0  0  0  0
   46.7700   35.6400   41.6420 H   0  0  0  0  0  0  0  0  0  0  0  0
   44.8050   36.8380   42.6210 H   0  0  0  0  0  0  0  0  0  0  0  0
   44.5460   35.2000   41.9780 H   0  0  0  0  0  0  0  0  0  0  0  0
   43.9190   36.1870   44.5990 H   0  0  0  0  0  0  0  0  0  0  0  0
   43.6460   34.5390   43.9760 H   0  0  0  0  0  0  0  0  0  0  0  0
   46.2360   35.5080   45.3110 H   0  0  0  0  0  0  0  0  0  0  0  0
   44.9700   34.2850   45.9160 H   0  0  0  0  0  0  0  0  0  0  0  0
   45.3290   33.0490   43.7950 H   0  0  0  0  0  0  0  0  0  0  0  0
   47.9950   33.6480   42.6130 C   0  0  0  0  0  0  0  0  0  0  0  0
   48.7050   34.3590   42.1550 H   0  0  0  0  0  0  0  0  0  0  0  0
   48.5690   33.0710   43.3940 H   0  0  0  0  0  0  0  0  0  0  0  0
   47.3560   32.7020   41.6680 C   0  0  0  0  0  0  0  0  0  0  0  0
   47.4840   31.6560   41.9780 H   0  0  0  0  0  0  0  0  0  0  0  0
   46.2400   32.8460   41.6040 H   0  0  0  0  0  0  0  0  0  0  0  0
   49.2720   32.1560   38.4830 C   0  0  0  0  0  0  0  0  0  0  0  0
   48.7490   31.9730   39.7770 C   0  0  0  0  0  0  0  0  0  0  0  0
   47.9010   32.9060   40.3030 C   0  0  0  0  0  0  0  0  0  0  0  0
   47.6050   33.9710   39.5460 N   0  0  0  0  0  0  0  0  0  0  0  0
   48.1030   34.1470   38.3110 C   0  0  0  0  0  0  0  0  0  0  0  0
   48.9370   33.2500   37.7660 N   0  0  0  0  0  0  0  0  0  0  0  0
   49.9400   31.3390   38.1690 H   0  0  0  0  0  0  0  0  0  0  0  0
   49.0020   31.1030   40.3740 H   0  0  0  0  0  0  0  0  0  0  0  0
   47.8680   35.0120   37.6840 H   0  0  0  0  0  0  0  0  0  0  0  0
   46.9000   32.9810   45.1860 O   0  0  0  0  0  0  0  0  0  0  0  0
   45.4490   30.8940   44.4240 O   0  0  0  0  0  0  0  0  0  0  0  0
   46.2440   31.4770   45.5880 P   0  0  2  0  0  0  0  0  0  0  0  0
   45.1210   31.7570   46.8350 O   0  0  0  0  0  0  0  0  0  0  0  0
   44.3230   32.2290   46.5150 H   0  0  0  0  0  0  0  0  0  0  0  0
   47.4000   30.4080   46.1470 O   0  0  0  0  0  0  0  0  0  0  0  0
   47.0340   29.1150   45.8390 C   0  0  0  0  0  0  0  0  0  0  0  0
   47.9230   28.5540   45.5360 H   0  0  0  0  0  0  0  0  0  0  0  0
   46.4070   29.1870   44.9010 H   0  0  0  0  0  0  0  0  0  0  0  0
   46.2380   28.4350   46.8810 C   0  0  0  0  0  0  0  0  0  0  0  0
   46.1920   27.0830   46.9350 N   0  0  0  0  0  0  0  0  0  0  0  0
   45.4070   26.6890   47.9640 C   0  0  0  0  0  0  0  0  0  0  0  0
   45.2350   25.6280   48.1850 H   0  0  0  0  0  0  0  0  0  0  0  0
   44.9610   27.8260   48.5540 N   0  0  0  0  0  0  0  0  0  0  0  0
   44.3280   27.8160   49.3840 H   0  0  0  0  0  0  0  0  0  0  0  0
   45.4650   28.8430   47.8980 N   0  0  0  0  0  0  0  0  0  0  0  0
  1  6  1  0  0  0  0
  2  3  1  0  0  0  0
  2  7  1  0  0  0  0
  2  1  1  0  0  0  0
  3  4  1  0  0  0  0
  4 11  1  0  0  0  0
  4  5  1  0  0  0  0
  5 13  1  0  0  0  0
  5 14  1  0  0  0  0
  6 15  1  6  0  0  0
  6  5  1  0  0  0  0
  6 31  1  0  0  0  0
  8  2  1  0  0  0  0
  9  3  1  0  0  0  0
 10  3  1  0  0  0  0
 12  4  1  0  0  0  0
 16  1  1  0  0  0  0
 16 18  1  0  0  0  0
 17 16  1  0  0  0  0
 19 20  1  0  0  0  0
 19 16  1  0  0  0  0
 21 19  1  0  0  0  0
 22 23  1  0  0  0  0
 23 24  2  0  0  0  0
 23 29  1  0  0  0  0
 24 19  1  0  0  0  0
 25 24  1  0  0  0  0
 26 25  2  0  0  0  0
 27 26  1  0  0  0  0
 27 22  2  0  0  0  0
 28 22  1  0  0  0  0
 30 26  1  0  0  0  0
 31 33  1  0  0  0  0
 33 32  2  6  0  0  0
 33 36  1  0  0  0  0
 33 34  1  0  0  0  0
 35 34  1  0  0  0  0
 37 36  1  0  0  0  0
 37 40  1  0  0  0  0
 38 37  1  0  0  0  0
 39 37  1  0  0  0  0
 40 41  1  0  0  0  0
 40 46  2  0  0  0  0
 41 42  2  0  0  0  0
 42 43  1  0  0  0  0
 42 44  1  0  0  0  0
 44 45  1  0  0  0  0
 46 44  1  0  0  0  0
M  END
>  <minimizedAffinity>
-4.23391056

>  <minimizedRMSD>
1.07809603

$$$$
