
 OpenBabel03242519163D

 40 43  0  0  1  0  0  0  0  0999 V2000
   48.3320   34.2240   40.9240 C   0  0  0  0  0  0  0  0  0  0  0  0
   47.8850   34.3630   39.6300 C   0  0  0  0  0  0  0  0  0  0  0  0
   48.2590   33.4960   38.5920 C   0  0  0  0  0  0  0  0  0  0  0  0
   49.1060   32.4910   38.9540 N   0  0  0  0  0  0  0  0  0  0  0  0
   49.5360   32.3650   40.2180 C   0  0  0  0  0  0  0  0  0  0  0  0
   49.1570   33.2150   41.1790 N   0  0  0  0  0  0  0  0  0  0  0  0
   47.2130   35.1860   39.4250 H   0  0  0  0  0  0  0  0  0  0  0  0
   47.8880   33.6350   37.5900 H   0  0  0  0  0  0  0  0  0  0  0  0
   50.4460   31.2450   40.6250 C   0  0  2  0  0  0  0  0  0  0  0  0
   51.1870   31.3600   41.9200 C   0  0  0  0  0  0  0  0  0  0  0  0
   51.9070   31.5260   40.5700 C   0  0  1  0  0  0  0  0  0  0  0  0
   50.1240   30.2740   40.1980 H   0  0  0  0  0  0  0  0  0  0  0  0
   50.9950   32.2850   42.5110 H   0  0  0  0  0  0  0  0  0  0  0  0
   51.3280   30.4340   42.4910 H   0  0  0  0  0  0  0  0  0  0  0  0
   52.2770   32.5470   40.3860 H   0  0  0  0  0  0  0  0  0  0  0  0
   52.8660   30.4200   40.3030 C   0  0  0  0  0  0  0  0  0  0  0  0
   54.1100   30.2810   40.7620 N   0  0  0  0  0  0  0  0  0  0  0  0
   54.6760   29.1330   40.2950 C   0  0  0  0  0  0  0  0  0  0  0  0
   55.6900   28.9630   40.6330 H   0  0  0  0  0  0  0  0  0  0  0  0
   53.7240   28.5630   39.5240 N   0  0  0  0  0  0  0  0  0  0  0  0
   53.9870   27.6540   39.0740 H   0  0  0  0  0  0  0  0  0  0  0  0
   52.6450   29.3390   39.5340 N   0  0  0  0  0  0  0  0  0  0  0  0
   47.9240   35.1240   41.9730 C   0  0  0  0  0  0  0  0  0  0  0  0
   48.0520   36.1800   41.5920 H   0  0  0  0  0  0  0  0  0  0  0  0
   48.5730   35.0730   42.8700 H   0  0  0  0  0  0  0  0  0  0  0  0
   46.4960   34.9550   42.3020 C   0  0  0  0  0  0  0  0  0  0  0  0
   45.9960   34.2430   41.5870 H   0  0  0  0  0  0  0  0  0  0  0  0
   45.8800   35.8870   42.2200 H   0  0  0  0  0  0  0  0  0  0  0  0
   44.5730   36.4230   44.0330 Cl  0  0  0  0  0  0  0  0  0  0  0  0
   45.3940   34.9720   44.5500 C   0  0  0  0  0  0  0  0  0  0  0  0
   46.2580   34.3850   43.6650 C   0  0  0  0  0  0  0  0  0  0  0  0
   46.9080   33.2390   44.0700 C   0  0  0  0  0  0  0  0  0  0  0  0
   46.6950   32.7030   45.3240 C   0  0  0  0  0  0  0  0  0  0  0  0
   45.8090   33.3180   46.2140 C   0  0  0  0  0  0  0  0  0  0  0  0
   45.1610   34.4700   45.7950 C   0  0  0  0  0  0  0  0  0  0  0  0
   47.6040   32.7240   43.4200 H   0  0  0  0  0  0  0  0  0  0  0  0
   47.1590   31.8250   45.7020 H   0  0  0  0  0  0  0  0  0  0  0  0
   45.6260   32.9170   47.2010 H   0  0  0  0  0  0  0  0  0  0  0  0
   44.2560   35.1560   46.6160 O   0  0  0  0  0  0  0  0  0  0  0  0
   43.4540   34.6440   46.9690 H   0  0  0  0  0  0  0  0  0  0  0  0
  1  6  1  0  0  0  0
  1 23  1  0  0  0  0
  2  1  2  0  0  0  0
  3  4  2  0  0  0  0
  3  2  1  0  0  0  0
  4  5  1  0  0  0  0
  5  9  1  0  0  0  0
  5  6  2  0  0  0  0
  7  2  1  0  0  0  0
  8  3  1  0  0  0  0
  9 12  1  6  0  0  0
  9 10  1  0  0  0  0
 10 14  1  0  0  0  0
 10 13  1  0  0  0  0
 11 15  1  6  0  0  0
 11  9  1  0  0  0  0
 11 10  1  0  0  0  0
 16 11  1  0  0  0  0
 16 17  1  0  0  0  0
 18 19  1  0  0  0  0
 18 17  2  0  0  0  0
 20 22  1  0  0  0  0
 20 18  1  0  0  0  0
 21 20  1  0  0  0  0
 22 16  2  0  0  0  0
 23 26  1  0  0  0  0
 23 25  1  0  0  0  0
 24 23  1  0  0  0  0
 26 31  1  0  0  0  0
 27 26  1  0  0  0  0
 28 26  1  0  0  0  0
 29 30  1  0  0  0  0
 30 35  1  0  0  0  0
 31 32  1  0  0  0  0
 31 30  2  0  0  0  0
 32 33  2  0  0  0  0
 33 37  1  0  0  0  0
 33 34  1  0  0  0  0
 34 38  1  0  0  0  0
 35 34  2  0  0  0  0
 35 39  1  0  0  0  0
 36 32  1  0  0  0  0
 39 40  1  0  0  0  0
M  END
>  <minimizedAffinity>
-5.72889423

>  <minimizedRMSD>
0.272947609

$$$$
