
 OpenBabel03252509313D

 25 26  0  0  0  0  0  0  0  0999 V2000
   48.2890   33.3450   43.4260 O   0  0  0  0  0  0  0  0  0  0  0  0
   46.9770   33.3820   42.9820 C   0  0  0  0  0  0  0  0  0  0  0  0
   46.6700   32.3420   42.7710 H   0  0  0  0  0  0  0  0  0  0  0  0
   46.8620   33.9090   42.0000 H   0  0  0  0  0  0  0  0  0  0  0  0
   45.0930   34.2950   46.0630 C   0  0  0  0  0  0  0  0  0  0  0  0
   45.9330   33.5830   45.1840 C   0  0  0  0  0  0  0  0  0  0  0  0
   46.1100   34.1050   43.9120 C   0  0  0  0  0  0  0  0  0  0  0  0
   45.4690   35.2690   43.5830 N   0  0  0  0  0  0  0  0  0  0  0  0
   44.6720   35.9220   44.4560 C   0  0  0  0  0  0  0  0  0  0  0  0
   44.4930   35.4310   45.6810 N   0  0  0  0  0  0  0  0  0  0  0  0
   44.8940   33.9710   47.0680 H   0  0  0  0  0  0  0  0  0  0  0  0
   46.3960   32.6810   45.5190 H   0  0  0  0  0  0  0  0  0  0  0  0
   44.2590   36.8220   44.0050 H   0  0  0  0  0  0  0  0  0  0  0  0
   50.0210   33.0510   41.4920 O   0  0  0  0  0  0  0  0  0  0  0  0
   49.2400   34.0950   42.2320 P   0  0  2  0  0  0  0  0  0  0  0  0
   50.2060   35.2350   43.0150 O   0  0  0  0  0  0  0  0  0  0  0  0
   50.1890   36.1270   42.6010 H   0  0  0  0  0  0  0  0  0  0  0  0
   48.2060   34.8650   41.1550 O   0  0  0  0  0  0  0  0  0  0  0  0
   48.0170   34.5410   39.8200 C   0  0  0  0  0  0  0  0  0  0  0  0
   48.6820   34.8400   38.6890 N   0  0  0  0  0  0  0  0  0  0  0  0
   48.0830   34.2700   37.6310 C   0  0  0  0  0  0  0  0  0  0  0  0
   48.3580   34.3100   36.5850 H   0  0  0  0  0  0  0  0  0  0  0  0
   47.0350   33.6190   38.1660 N   0  0  0  0  0  0  0  0  0  0  0  0
   46.3520   33.0600   37.5880 H   0  0  0  0  0  0  0  0  0  0  0  0
   46.9570   33.7550   39.4790 N   0  0  0  0  0  0  0  0  0  0  0  0
  2  1  1  0  0  0  0
  2  7  1  0  0  0  0
  3  2  1  0  0  0  0
  4  2  1  0  0  0  0
  5 11  1  0  0  0  0
  6 12  1  0  0  0  0
  6  5  2  0  0  0  0
  7  6  1  0  0  0  0
  8  7  2  0  0  0  0
  8  9  1  0  0  0  0
  9 10  2  0  0  0  0
 10  5  1  0  0  0  0
 13  9  1  0  0  0  0
 15 14  2  6  0  0  0
 15 16  1  0  0  0  0
 15  1  1  0  0  0  0
 17 16  1  0  0  0  0
 18 15  1  0  0  0  0
 19 18  1  0  0  0  0
 20 19  1  0  0  0  0
 21 23  1  0  0  0  0
 21 20  2  0  0  0  0
 22 21  1  0  0  0  0
 23 25  1  0  0  0  0
 24 23  1  0  0  0  0
 25 19  2  0  0  0  0
M  END
>  <minimizedAffinity>
-4.8867836

>  <minimizedRMSD>
1.06029439

$$$$
