
 OpenBabel03252506563D

 36 40  0  0  0  0  0  0  0  0999 V2000
   47.2880   31.2760   45.2080 C   0  0  0  0  0  0  0  0  0  0  0  0
   46.9280   32.6040   45.1290 C   0  0  0  0  0  0  0  0  0  0  0  0
   46.3140   33.2730   46.1640 C   0  0  0  0  0  0  0  0  0  0  0  0
   46.0270   32.6120   47.3630 C   0  0  0  0  0  0  0  0  0  0  0  0
   45.4530   32.9400   48.5480 N   0  0  0  0  0  0  0  0  0  0  0  0
   45.4590   31.8350   49.3420 C   0  0  0  0  0  0  0  0  0  0  0  0
   46.0380   30.8450   48.6280 N   0  0  0  0  0  0  0  0  0  0  0  0
   46.3970   31.2870   47.4130 C   0  0  0  0  0  0  0  0  0  0  0  0
   47.0030   30.6030   46.4100 C   0  0  0  0  0  0  0  0  0  0  0  0
   47.7690   30.7530   44.3950 H   0  0  0  0  0  0  0  0  0  0  0  0
   46.0160   34.3220   46.1370 H   0  0  0  0  0  0  0  0  0  0  0  0
   45.0970   33.9230   48.7100 H   0  0  0  0  0  0  0  0  0  0  0  0
   45.0570   31.8310   50.3420 H   0  0  0  0  0  0  0  0  0  0  0  0
   46.6600   35.0650   42.4060 C   0  0  0  0  0  0  0  0  0  0  0  0
   47.7430   34.7340   41.5910 C   0  0  0  0  0  0  0  0  0  0  0  0
   48.5640   33.6620   41.9810 C   0  0  0  0  0  0  0  0  0  0  0  0
   48.2650   32.9930   43.1400 N   0  0  0  0  0  0  0  0  0  0  0  0
   47.2010   33.3500   43.9040 C   0  0  0  0  0  0  0  0  0  0  0  0
   46.4190   34.3690   43.5360 N   0  0  0  0  0  0  0  0  0  0  0  0
   46.0440   35.8970   42.0820 H   0  0  0  0  0  0  0  0  0  0  0  0
   48.0190   35.2300   40.6690 H   0  0  0  0  0  0  0  0  0  0  0  0
   49.4110   33.3260   41.4370 H   0  0  0  0  0  0  0  0  0  0  0  0
   47.3600   29.1840   46.5640 C   0  0  0  0  0  0  0  0  0  0  0  0
   48.6250   28.6660   46.3580 C   0  0  0  0  0  0  0  0  0  0  0  0
   48.4760   27.2990   46.6200 C   0  0  0  0  0  0  0  0  0  0  0  0
   47.1440   27.0660   46.9660 C   0  0  0  0  0  0  0  0  0  0  0  0
   46.5150   28.2380   46.9160 O   0  0  0  0  0  0  0  0  0  0  0  0
   49.5130   29.1880   46.0670 H   0  0  0  0  0  0  0  0  0  0  0  0
   49.2450   26.5420   46.5680 H   0  0  0  0  0  0  0  0  0  0  0  0
   46.6160   25.7510   47.3070 C   0  0  0  0  0  0  0  0  0  0  0  0
   45.6490   25.2250   48.0880 N   0  0  0  0  0  0  0  0  0  0  0  0
   45.6650   23.8840   47.9610 C   0  0  0  0  0  0  0  0  0  0  0  0
   45.0240   23.1760   48.4500 H   0  0  0  0  0  0  0  0  0  0  0  0
   46.6540   23.5670   47.0860 N   0  0  0  0  0  0  0  0  0  0  0  0
   46.9260   22.5920   46.7700 H   0  0  0  0  0  0  0  0  0  0  0  0
   47.2110   24.7020   46.7050 N   0  0  0  0  0  0  0  0  0  0  0  0
  1  9  1  0  0  0  0
  2  1  2  0  0  0  0
  2  3  1  0  0  0  0
  3  4  2  0  0  0  0
  4  8  1  0  0  0  0
  4  5  1  0  0  0  0
  5 12  1  0  0  0  0
  5  6  1  0  0  0  0
  6 13  1  0  0  0  0
  7  6  2  0  0  0  0
  8  7  1  0  0  0  0
  9 23  1  0  0  0  0
  9  8  2  0  0  0  0
 10  1  1  0  0  0  0
 11  3  1  0  0  0  0
 14 19  1  0  0  0  0
 15 16  1  0  0  0  0
 15 14  2  0  0  0  0
 16 17  2  0  0  0  0
 17 18  1  0  0  0  0
 18  2  1  0  0  0  0
 19 18  2  0  0  0  0
 20 14  1  0  0  0  0
 21 15  1  0  0  0  0
 22 16  1  0  0  0  0
 23 27  1  0  0  0  0
 24 23  2  0  0  0  0
 24 25  1  0  0  0  0
 25 26  2  0  0  0  0
 26 30  1  0  0  0  0
 27 26  1  0  0  0  0
 28 24  1  0  0  0  0
 29 25  1  0  0  0  0
 30 31  1  0  0  0  0
 32 31  2  0  0  0  0
 32 33  1  0  0  0  0
 34 32  1  0  0  0  0
 35 34  1  0  0  0  0
 36 34  1  0  0  0  0
 36 30  2  0  0  0  0
M  END
>  <minimizedAffinity>
-5.4214263

>  <minimizedRMSD>
0.615939379

$$$$
