REMARK  Name = 
REMARK  3 active torsions:
REMARK  status: ('A' for Active; 'I' for Inactive)
REMARK    1  A    between atoms: C_1  and  N_9
REMARK    2  A    between atoms: C_2  and  N_10
REMARK    3  A    between atoms: C_7  and  C_16
REMARK                            x       y       z     vdW  Elec       q    Type
REMARK                         _______ _______ _______ _____ _____    ______ ____
ROOT
ATOM      1  C   UNL     1      45.311  34.557  45.034  0.00  0.00    +0.000 A 
ATOM      2  C   UNL     1      45.264  33.940  46.270  0.00  0.00    +0.000 A 
ATOM      3  C   UNL     1      46.165  32.902  46.474  0.00  0.00    +0.000 A 
ATOM      4  N   UNL     1      47.000  32.580  45.478  0.00  0.00    +0.000 NA
ATOM      5  C   UNL     1      47.020  33.203  44.284  0.00  0.00    +0.000 A 
ATOM      6  N   UNL     1      46.159  34.221  44.040  0.00  0.00    +0.000 NA
ATOM      7  H   UNL     1      46.117  32.431  47.439  0.00  0.00    +0.000 HD
ATOM      8  H   UNL     1      47.748  32.831  43.585  0.00  0.00    +0.000 HD
ENDROOT
BRANCH   1  11
ATOM      9  C   UNL     1      43.965  35.379  43.295  0.00  0.00    +0.000 C 
ATOM     10  O   UNL     1      44.407  34.281  42.842  0.00  0.00    +0.000 OA
ATOM     11  N   UNL     1      44.459  35.660  44.617  0.00  0.00    +0.000 N 
ATOM     12  H   UNL     1      44.204  36.517  45.114  0.00  0.00    +0.000 HD
BRANCH   9  13
ATOM     13  C   UNL     1      43.059  36.299  42.615  0.00  0.00    +0.000 A 
ATOM     14  N   UNL     1      41.722  36.418  42.567  0.00  0.00    +0.000 NA
ATOM     15  C   UNL     1      41.393  37.472  41.766  0.00  0.00    +0.000 A 
ATOM     16  H   UNL     1      40.314  37.585  41.714  0.00  0.00    +0.000 HD
ATOM     17  N   UNL     1      42.561  37.995  41.326  0.00  0.00    +0.000 N 
ATOM     18  H   UNL     1      42.432  38.818  40.696  0.00  0.00    +0.000 HD
ATOM     19  N   UNL     1      43.558  37.282  41.842  0.00  0.00    +0.000 NA
ENDBRANCH   9  13
ENDBRANCH   1  11
BRANCH   2  20
ATOM     20  N   UNL     1      44.305  34.428  47.194  0.00  0.00    +0.000 N 
ATOM     21  H   UNL     1      43.374  34.736  46.836  0.00  0.00    +0.000 HD
ATOM     22  H   UNL     1      44.386  34.533  48.221  0.00  0.00    +0.000 HD
ENDBRANCH   2  20
TORSDOF 3
