
 OpenBabel03252508083D

 42 45  0  0  0  0  0  0  0  0999 V2000
   45.4100   35.8450   42.6200 C   0  0  0  0  0  0  0  0  0  0  0  0
   45.6080   34.4750   42.6960 C   0  0  0  0  0  0  0  0  0  0  0  0
   45.3230   33.8010   43.8590 C   0  0  0  0  0  0  0  0  0  0  0  0
   44.8400   34.5530   44.9120 N   0  0  0  0  0  0  0  0  0  0  0  0
   44.6510   35.8690   44.8320 C   0  0  0  0  0  0  0  0  0  0  0  0
   44.9420   36.5020   43.6760 N   0  0  0  0  0  0  0  0  0  0  0  0
   45.6240   36.4190   41.7170 H   0  0  0  0  0  0  0  0  0  0  0  0
   44.2750   36.4370   45.6590 H   0  0  0  0  0  0  0  0  0  0  0  0
   45.4690   32.4160   44.0970 C   0  0  0  0  0  0  0  0  0  0  0  0
   44.9810   31.4190   43.2470 C   0  0  0  0  0  0  0  0  0  0  0  0
   45.0650   30.0750   43.5080 C   0  0  0  0  0  0  0  0  0  0  0  0
   45.6630   29.6410   44.6710 C   0  0  0  0  0  0  0  0  0  0  0  0
   46.1700   30.6440   45.5510 C   0  0  0  0  0  0  0  0  0  0  0  0
   46.7630   30.2210   46.7100 C   0  0  0  0  0  0  0  0  0  0  0  0
   47.2760   31.1370   47.6060 C   0  0  0  0  0  0  0  0  0  0  0  0
   47.1850   32.5070   47.3170 C   0  0  0  0  0  0  0  0  0  0  0  0
   46.5660   32.8890   46.1130 C   0  0  0  0  0  0  0  0  0  0  0  0
   46.0620   31.9590   45.2460 C   0  0  0  0  0  0  0  0  0  0  0  0
   44.5070   31.7310   42.3260 H   0  0  0  0  0  0  0  0  0  0  0  0
   44.6750   29.3360   42.8250 H   0  0  0  0  0  0  0  0  0  0  0  0
   45.7570   28.5990   44.9330 H   0  0  0  0  0  0  0  0  0  0  0  0
   46.8390   29.1700   46.9410 H   0  0  0  0  0  0  0  0  0  0  0  0
   47.7360   30.7510   48.5090 H   0  0  0  0  0  0  0  0  0  0  0  0
   47.6120   33.1320   48.0700 H   0  0  0  0  0  0  0  0  0  0  0  0
   46.6140   33.9560   46.0670 H   0  0  0  0  0  0  0  0  0  0  0  0
   46.0880   33.8500   41.5780 O   0  0  0  0  0  0  0  0  0  0  0  0
   48.0970   32.3540   40.8140 O   0  0  0  0  0  0  0  0  0  0  0  0
   47.7240   33.7520   41.1570 P   0  0  1  0  0  0  0  0  0  0  0  0
   48.0560   34.7000   39.7930 O   0  0  0  0  0  0  0  0  0  0  0  0
   47.8270   34.1410   38.5420 C   0  0  0  0  0  0  0  0  0  0  0  0
   46.7500   33.3660   38.2540 N   0  0  0  0  0  0  0  0  0  0  0  0
   46.8060   32.9740   36.9650 C   0  0  0  0  0  0  0  0  0  0  0  0
   46.1000   32.3500   36.4250 H   0  0  0  0  0  0  0  0  0  0  0  0
   47.9250   33.5070   36.4400 N   0  0  0  0  0  0  0  0  0  0  0  0
   48.2880   33.4060   35.4450 H   0  0  0  0  0  0  0  0  0  0  0  0
   48.5210   34.1990   37.3950 N   0  0  0  0  0  0  0  0  0  0  0  0
   48.6350   34.3260   42.4460 O   0  0  0  0  0  0  0  0  0  0  0  0
   49.7810   35.0990   42.3710 C   0  0  0  0  0  0  0  0  0  0  0  0
   49.3820   36.2290   42.0350 O   0  0  0  0  0  0  0  0  0  0  0  0
   50.9510   34.3210   42.7010 N   0  0  0  0  0  0  0  0  0  0  0  0
   51.0210   33.9580   43.6890 H   0  0  0  0  0  0  0  0  0  0  0  0
   51.7590   34.0530   42.0950 H   0  0  0  0  0  0  0  0  0  0  0  0
  1  2  2  0  0  0  0
  1  6  1  0  0  0  0
  2  3  1  0  0  0  0
  3  9  1  0  0  0  0
  3  4  2  0  0  0  0
  5  4  1  0  0  0  0
  5  8  1  0  0  0  0
  6  5  2  0  0  0  0
  7  1  1  0  0  0  0
  9 18  1  0  0  0  0
 10 11  1  0  0  0  0
 10  9  2  0  0  0  0
 11 12  2  0  0  0  0
 12 21  1  0  0  0  0
 12 13  1  0  0  0  0
 13 14  1  0  0  0  0
 14 22  1  0  0  0  0
 14 15  2  0  0  0  0
 15 23  1  0  0  0  0
 16 15  1  0  0  0  0
 16 24  1  0  0  0  0
 17 16  2  0  0  0  0
 18 13  2  0  0  0  0
 18 17  1  0  0  0  0
 19 10  1  0  0  0  0
 20 11  1  0  0  0  0
 25 17  1  0  0  0  0
 26  2  1  0  0  0  0
 28 27  2  6  0  0  0
 28 26  1  0  0  0  0
 28 37  1  0  0  0  0
 29 28  1  0  0  0  0
 30 29  1  0  0  0  0
 31 30  1  0  0  0  0
 32 31  2  0  0  0  0
 33 32  1  0  0  0  0
 34 32  1  0  0  0  0
 34 36  1  0  0  0  0
 35 34  1  0  0  0  0
 36 30  2  0  0  0  0
 38 37  1  0  0  0  0
 38 40  1  0  0  0  0
 39 38  2  0  0  0  0
 40 41  1  0  0  0  0
 42 40  1  0  0  0  0
M  END
>  <minimizedAffinity>
-6.1185298

>  <minimizedRMSD>
0.796229541

$$$$
