
     RDKit          3D

 44 48  0  0  0  0  0  0  0  0999 V2000
   46.1390   32.6490   46.9776 C   0  0  0  0  0  0  0  0  0  0  0  0
   47.3031   31.8979   47.0774 C   0  0  0  0  0  0  0  0  0  0  0  0
   47.5121   31.0686   48.1492 C   0  0  0  0  0  0  0  0  0  0  0  0
   46.5685   30.9670   49.1452 C   0  0  0  0  0  0  0  0  0  0  0  0
   45.4122   31.6836   49.0913 C   0  0  0  0  0  0  0  0  0  0  0  0
   45.2212   32.5138   48.0028 C   0  0  0  0  0  0  0  0  0  0  0  0
   44.7206   35.3178   44.9268 C   0  0  0  0  0  0  0  0  0  0  0  0
   45.4620   35.2370   43.7222 C   0  0  0  0  0  0  0  0  0  0  0  0
   46.4499   34.2623   43.6180 C   0  0  0  0  0  0  0  0  0  0  0  0
   46.6840   33.4110   44.6675 N   0  0  0  0  0  0  0  0  0  0  0  0
   45.9314   33.5327   45.8219 C   0  0  0  0  0  0  0  0  0  0  0  0
   44.9614   34.4743   45.9505 N   0  0  0  0  0  0  0  0  0  0  0  0
   49.0080   30.1618   48.2401 S   0  0  0  0  0  0  0  0  0  0  0  0
   49.9086   30.4990   49.6690 C   0  0  0  0  0  0  0  0  0  0  0  0
   50.1084   31.7767   50.1090 N   0  0  0  0  0  0  0  0  0  0  0  0
   50.8274   32.0850   51.1833 C   0  0  0  0  0  0  0  0  0  0  0  0
   51.3814   31.0788   51.8630 N   0  0  0  0  0  0  0  0  0  0  0  0
   51.2375   29.8015   51.5044 C   0  0  0  0  0  0  0  0  0  0  0  0
   51.8187   28.7470   52.1965 C   0  0  0  0  0  0  0  0  0  0  0  0
   51.6672   27.4581   51.8075 C   0  0  0  0  0  0  0  0  0  0  0  0
   50.9257   27.1641   50.7079 C   0  0  0  0  0  0  0  0  0  0  0  0
   50.3142   28.1830   49.9694 C   0  0  0  0  0  0  0  0  0  0  0  0
   50.4784   29.4763   50.3724 C   0  0  0  0  0  0  0  0  0  0  0  0
   49.5001   27.7429   48.8139 C   0  0  0  0  0  0  0  0  0  0  0  0
   48.0155   32.0072   46.2751 H   0  0  0  0  0  0  0  0  0  0  0  0
   46.7693   30.3061   49.9675 H   0  0  0  0  0  0  0  0  0  0  0  0
   44.6754   31.5980   49.8794 H   0  0  0  0  0  0  0  0  0  0  0  0
   44.3142   33.0784   47.9570 H   0  0  0  0  0  0  0  0  0  0  0  0
   43.9418   36.0509   45.0696 H   0  0  0  0  0  0  0  0  0  0  0  0
   45.2446   35.9282   42.9195 H   0  0  0  0  0  0  0  0  0  0  0  0
   47.0375   34.1680   42.7156 H   0  0  0  0  0  0  0  0  0  0  0  0
   50.9383   33.1206   51.4670 H   0  0  0  0  0  0  0  0  0  0  0  0
   52.3928   29.0465   53.0592 H   0  0  0  0  0  0  0  0  0  0  0  0
   52.1486   26.6717   52.3906 H   0  0  0  0  0  0  0  0  0  0  0  0
   50.8398   26.1131   50.4449 H   0  0  0  0  0  0  0  0  0  0  0  0
   48.4223   27.8798   48.9158 H   0  0  0  0  0  0  0  0  0  0  0  0
   49.9532   27.9531   47.8252 H   0  0  0  0  0  0  0  0  0  0  0  0
   49.5054   26.2206   48.7339 C   0  0  0  0  0  0  0  0  0  0  0  0
   49.6179   25.3095   49.7471 N   0  0  0  0  0  0  0  0  0  0  0  0
   49.5845   24.0628   49.2616 C   0  0  0  0  0  0  0  0  0  0  0  0
   49.6587   23.1900   49.8964 H   0  0  0  0  0  0  0  0  0  0  0  0
   49.4500   24.1618   47.9310 N   0  0  0  0  0  0  0  0  0  0  0  0
   49.3926   23.3645   47.2609 H   0  0  0  0  0  0  0  0  0  0  0  0
   49.4045   25.4281   47.6299 N   0  0  0  0  0  0  0  0  0  0  0  0
  1  2  2  0
  1  6  1  0
  2  3  1  0
  3 13  1  0
  3  4  2  0
  5  4  1  0
  6  5  2  0
  7 12  2  0
  8  7  1  0
  9  8  2  0
  9 10  1  0
 10 11  2  0
 11 12  1  0
 11  1  1  0
 13 14  1  0
 14 15  2  0
 14 23  1  0
 15 16  1  0
 16 17  2  0
 18 17  1  0
 18 19  2  0
 20 19  1  0
 21 20  2  0
 22 23  2  0
 22 21  1  0
 23 18  1  0
 24 22  1  0
  2 25  1  0
  4 26  1  0
  5 27  1  0
  6 28  1  0
  7 29  1  0
  8 30  1  0
  9 31  1  0
 16 32  1  0
 19 33  1  0
 20 34  1  0
 21 35  1  0
 24 36  1  0
 24 37  1  0
 38 39  1  0
 39 40  2  0
 40 41  1  0
 40 42  1  0
 42 43  1  0
 42 44  1  0
 44 38  2  0
 24 38  1  0
M  ISO  8  25  14  26  14  27  14  28  14  29  14  30  14  31  14  32  14
M  ISO  7  33  14  34  14  35  14  36   8  37   8  41  14  43   9
M  END
>  <DihAtoms>  (1) 
21,23,37,38

>  <DihDeg>  (1) 
89.90708393149599

$$$$
