
 OpenBabel03252509033D

 46 48  0  0  1  0  0  0  0  0999 V2000
   46.8700   34.3960   43.4630 N   0  0  0  0  0  0  0  0  0  0  0  0
   46.4270   35.5480   42.7670 C   0  0  0  0  0  0  0  0  0  0  0  0
   44.9430   35.7970   42.8420 C   0  0  0  0  0  0  0  0  0  0  0  0
   44.2960   35.3710   44.1400 C   0  0  0  0  0  0  0  0  0  0  0  0
   45.3260   34.8640   45.1240 C   0  0  0  0  0  0  0  0  0  0  0  0
   46.0400   33.7110   44.3290 C   0  0  2  0  0  0  0  0  0  0  0  0
   46.8910   36.4370   43.2810 H   0  0  0  0  0  0  0  0  0  0  0  0
   46.7220   35.6320   41.7200 H   0  0  0  0  0  0  0  0  0  0  0  0
   44.7360   36.8660   42.6080 H   0  0  0  0  0  0  0  0  0  0  0  0
   44.4870   35.2110   42.0060 H   0  0  0  0  0  0  0  0  0  0  0  0
   43.7920   36.2780   44.5790 H   0  0  0  0  0  0  0  0  0  0  0  0
   43.5280   34.6130   43.9970 H   0  0  0  0  0  0  0  0  0  0  0  0
   46.0850   35.6100   45.3740 H   0  0  0  0  0  0  0  0  0  0  0  0
   44.7960   34.4110   45.9800 H   0  0  0  0  0  0  0  0  0  0  0  0
   45.2080   33.1110   43.9070 H   0  0  0  0  0  0  0  0  0  0  0  0
   47.9090   33.6640   42.7830 C   0  0  0  0  0  0  0  0  0  0  0  0
   48.6390   34.3580   42.3310 H   0  0  0  0  0  0  0  0  0  0  0  0
   48.4530   33.1020   43.5960 H   0  0  0  0  0  0  0  0  0  0  0  0
   47.2930   32.7000   41.8420 C   0  0  0  0  0  0  0  0  0  0  0  0
   47.4270   31.6590   42.1650 H   0  0  0  0  0  0  0  0  0  0  0  0
   46.1760   32.8310   41.7620 H   0  0  0  0  0  0  0  0  0  0  0  0
   49.2450   32.1310   38.6840 C   0  0  0  0  0  0  0  0  0  0  0  0
   48.7070   31.9580   39.9720 C   0  0  0  0  0  0  0  0  0  0  0  0
   47.8520   32.8940   40.4820 C   0  0  0  0  0  0  0  0  0  0  0  0
   47.5620   33.9510   39.7120 N   0  0  0  0  0  0  0  0  0  0  0  0
   48.0740   34.1180   38.4810 C   0  0  0  0  0  0  0  0  0  0  0  0
   48.9150   33.2180   37.9530 N   0  0  0  0  0  0  0  0  0  0  0  0
   49.9190   31.3130   38.3830 H   0  0  0  0  0  0  0  0  0  0  0  0
   48.9560   31.0930   40.5790 H   0  0  0  0  0  0  0  0  0  0  0  0
   47.8440   34.9770   37.8440 H   0  0  0  0  0  0  0  0  0  0  0  0
   46.7400   33.0780   45.3430 O   0  0  0  0  0  0  0  0  0  0  0  0
   45.4490   30.9570   44.4030 O   0  0  0  0  0  0  0  0  0  0  0  0
   46.2130   31.4950   45.6090 P   0  0  2  0  0  0  0  0  0  0  0  0
   45.0910   31.5660   46.8850 O   0  0  0  0  0  0  0  0  0  0  0  0
   44.2530   31.9990   46.6180 H   0  0  0  0  0  0  0  0  0  0  0  0
   47.4600   30.4770   46.0570 O   0  0  0  0  0  0  0  0  0  0  0  0
   47.1950   29.1920   45.6330 C   0  0  0  0  0  0  0  0  0  0  0  0
   48.0940   28.7740   45.1730 H   0  0  0  0  0  0  0  0  0  0  0  0
   46.4580   29.2940   44.7830 H   0  0  0  0  0  0  0  0  0  0  0  0
   46.6000   28.3150   46.6630 C   0  0  0  0  0  0  0  0  0  0  0  0
   45.2820   28.4000   46.9570 N   0  0  0  0  0  0  0  0  0  0  0  0
   44.9670   27.5070   47.9240 C   0  0  0  0  0  0  0  0  0  0  0  0
   43.9440   27.4110   48.3100 H   0  0  0  0  0  0  0  0  0  0  0  0
   46.1190   26.8590   48.2290 N   0  0  0  0  0  0  0  0  0  0  0  0
   46.1660   26.1080   48.9520 H   0  0  0  0  0  0  0  0  0  0  0  0
   47.0690   27.3540   47.4720 N   0  0  0  0  0  0  0  0  0  0  0  0
  1  6  1  0  0  0  0
  2  3  1  0  0  0  0
  2  7  1  0  0  0  0
  2  1  1  0  0  0  0
  3  4  1  0  0  0  0
  4 11  1  0  0  0  0
  4  5  1  0  0  0  0
  5 13  1  0  0  0  0
  5 14  1  0  0  0  0
  6 15  1  6  0  0  0
  6  5  1  0  0  0  0
  6 31  1  0  0  0  0
  8  2  1  0  0  0  0
  9  3  1  0  0  0  0
 10  3  1  0  0  0  0
 12  4  1  0  0  0  0
 16  1  1  0  0  0  0
 16 18  1  0  0  0  0
 17 16  1  0  0  0  0
 19 20  1  0  0  0  0
 19 16  1  0  0  0  0
 21 19  1  0  0  0  0
 22 23  1  0  0  0  0
 23 24  2  0  0  0  0
 23 29  1  0  0  0  0
 24 19  1  0  0  0  0
 25 24  1  0  0  0  0
 26 25  2  0  0  0  0
 27 26  1  0  0  0  0
 27 22  2  0  0  0  0
 28 22  1  0  0  0  0
 30 26  1  0  0  0  0
 31 33  1  0  0  0  0
 33 32  2  6  0  0  0
 33 36  1  0  0  0  0
 33 34  1  0  0  0  0
 35 34  1  0  0  0  0
 37 36  1  0  0  0  0
 37 40  1  0  0  0  0
 38 37  1  0  0  0  0
 39 37  1  0  0  0  0
 40 41  1  0  0  0  0
 40 46  2  0  0  0  0
 41 42  2  0  0  0  0
 42 44  1  0  0  0  0
 42 43  1  0  0  0  0
 44 45  1  0  0  0  0
 46 44  1  0  0  0  0
M  END
>  <minimizedAffinity>
-4.2142868

>  <minimizedRMSD>
1.10790479

$$$$
