
 OpenBabel03252508133D

 35 38  0  0  1  0  0  0  0  0999 V2000
   46.1190   30.8840   46.8730 C   0  0  0  0  0  0  0  0  0  0  0  0
   47.0810   30.3610   46.8210 H   0  0  0  0  0  0  0  0  0  0  0  0
   45.3090   30.1500   46.6550 H   0  0  0  0  0  0  0  0  0  0  0  0
   45.9360   31.5640   48.2030 C   0  0  1  0  0  0  0  0  0  0  0  0
   45.7010   30.6730   49.3710 C   0  0  0  0  0  0  0  0  0  0  0  0
   46.9590   31.3880   49.2610 C   0  0  1  0  0  0  0  0  0  0  0  0
   45.4470   32.5530   48.1830 H   0  0  0  0  0  0  0  0  0  0  0  0
   45.6140   29.5720   49.1680 H   0  0  0  0  0  0  0  0  0  0  0  0
   44.9120   30.9940   50.0930 H   0  0  0  0  0  0  0  0  0  0  0  0
   47.0780   32.2360   50.0020 H   0  0  0  0  0  0  0  0  0  0  0  0
   48.2490   30.7690   48.8810 C   0  0  0  0  0  0  0  0  0  0  0  0
   49.1840   30.4370   50.0700 C   0  0  0  0  0  0  0  0  0  0  0  0
   49.5160   31.5980   49.2000 C   0  0  0  0  0  0  0  0  0  0  0  0
   48.3010   30.0860   48.0120 H   0  0  0  0  0  0  0  0  0  0  0  0
   48.7940   30.6230   51.0820 H   0  0  0  0  0  0  0  0  0  0  0  0
   49.7910   29.5070   49.9170 H   0  0  0  0  0  0  0  0  0  0  0  0
   50.3370   31.4620   48.4360 H   0  0  0  0  0  0  0  0  0  0  0  0
   49.3340   32.6090   49.5670 H   0  0  0  0  0  0  0  0  0  0  0  0
   45.7030   33.0830   46.1190 C   0  0  0  0  0  3  0  0  0  0  0  0
   46.0030   31.8980   45.7500 C   0  0  0  0  0  3  0  0  0  0  0  0
   44.6440   36.1280   44.3390 C   0  0  0  0  0  0  0  0  0  0  0  0
   45.2460   35.9960   43.0970 C   0  0  0  0  0  0  0  0  0  0  0  0
   46.0080   34.8820   42.9060 C   0  0  0  0  0  0  0  0  0  0  0  0
   46.1430   33.9710   43.9060 N   0  0  0  0  0  0  0  0  0  0  0  0
   45.5450   34.1220   45.1030 C   0  0  0  0  0  0  0  0  0  0  0  0
   44.7990   35.2170   45.2920 N   0  0  0  0  0  0  0  0  0  0  0  0
   44.0140   36.9510   44.6410 H   0  0  0  0  0  0  0  0  0  0  0  0
   45.0880   36.7550   42.3710 H   0  0  0  0  0  0  0  0  0  0  0  0
   46.6720   34.6800   41.6200 C   0  0  0  0  0  0  0  0  0  0  0  0
   47.9550   35.0410   41.3760 N   0  0  0  0  0  0  0  0  0  0  0  0
   48.2460   34.7070   40.0880 C   0  0  0  0  0  0  0  0  0  0  0  0
   49.1900   34.8600   39.5720 H   0  0  0  0  0  0  0  0  0  0  0  0
   47.1420   34.1410   39.5430 N   0  0  0  0  0  0  0  0  0  0  0  0
   47.0260   33.7710   38.5620 H   0  0  0  0  0  0  0  0  0  0  0  0
   46.1930   34.1330   40.4900 N   0  0  0  0  0  0  0  0  0  0  0  0
  1  4  1  0  0  0  0
  2  1  1  0  0  0  0
  3  1  1  0  0  0  0
  4  7  1  6  0  0  0
  4  6  1  0  0  0  0
  4  5  1  0  0  0  0
  5  9  1  0  0  0  0
  6  5  1  0  0  0  0
  6 10  1  1  0  0  0
  8  5  1  0  0  0  0
 11 13  1  0  0  0  0
 11  6  1  0  0  0  0
 11 12  1  0  0  0  0
 12 15  1  0  0  0  0
 13 18  1  0  0  0  0
 13 12  1  0  0  0  0
 14 11  1  0  0  0  0
 16 12  1  0  0  0  0
 17 13  1  0  0  0  0
 20 19  2  0  0  0  0
 20  1  1  0  0  0  0
 21 27  1  0  0  0  0
 21 26  1  0  0  0  0
 22 21  2  0  0  0  0
 23 22  1  0  0  0  0
 23 24  2  0  0  0  0
 24 25  1  0  0  0  0
 25 26  2  0  0  0  0
 25 19  1  0  0  0  0
 28 22  1  0  0  0  0
 29 23  1  0  0  0  0
 30 29  1  0  0  0  0
 31 30  2  0  0  0  0
 32 31  1  0  0  0  0
 33 31  1  0  0  0  0
 33 35  1  0  0  0  0
 34 33  1  0  0  0  0
 35 29  2  0  0  0  0
M  END
>  <minimizedAffinity>
-5.60849142

>  <minimizedRMSD>
0.608055174

$$$$
