
 OpenBabel03242519163D

 40 43  0  0  1  0  0  0  0  0999 V2000
   48.3430   34.2190   40.9640 C   0  0  0  0  0  0  0  0  0  0  0  0
   47.8400   34.3660   39.6910 C   0  0  0  0  0  0  0  0  0  0  0  0
   48.1860   33.5200   38.6260 C   0  0  0  0  0  0  0  0  0  0  0  0
   49.0670   32.5270   38.9390 N   0  0  0  0  0  0  0  0  0  0  0  0
   49.5500   32.3930   40.1810 C   0  0  0  0  0  0  0  0  0  0  0  0
   49.1960   33.2220   41.1690 N   0  0  0  0  0  0  0  0  0  0  0  0
   47.1450   35.1790   39.5250 H   0  0  0  0  0  0  0  0  0  0  0  0
   47.7720   33.6660   37.6420 H   0  0  0  0  0  0  0  0  0  0  0  0
   50.4980   31.2850   40.5350 C   0  0  2  0  0  0  0  0  0  0  0  0
   51.1880   31.3300   41.8620 C   0  0  0  0  0  0  0  0  0  0  0  0
   51.9450   31.6330   40.5570 C   0  0  1  0  0  0  0  0  0  0  0  0
   50.2360   30.3380   40.0230 H   0  0  0  0  0  0  0  0  0  0  0  0
   50.9330   32.1960   42.5150 H   0  0  0  0  0  0  0  0  0  0  0  0
   51.3530   30.3690   42.3650 H   0  0  0  0  0  0  0  0  0  0  0  0
   52.2730   32.6800   40.4650 H   0  0  0  0  0  0  0  0  0  0  0  0
   52.9630   30.5950   40.2420 C   0  0  0  0  0  0  0  0  0  0  0  0
   54.0960   30.3290   40.8920 N   0  0  0  0  0  0  0  0  0  0  0  0
   54.7680   29.3020   40.2980 C   0  0  0  0  0  0  0  0  0  0  0  0
   55.7000   29.0380   40.7810 H   0  0  0  0  0  0  0  0  0  0  0  0
   53.9980   28.9420   39.2470 N   0  0  0  0  0  0  0  0  0  0  0  0
   54.3650   28.1510   38.6650 H   0  0  0  0  0  0  0  0  0  0  0  0
   52.9210   29.7190   39.2200 N   0  0  0  0  0  0  0  0  0  0  0  0
   47.9620   35.0960   42.0410 C   0  0  0  0  0  0  0  0  0  0  0  0
   48.1050   36.1590   41.6880 H   0  0  0  0  0  0  0  0  0  0  0  0
   48.6190   35.0090   42.9290 H   0  0  0  0  0  0  0  0  0  0  0  0
   46.5350   34.9440   42.3800 C   0  0  0  0  0  0  0  0  0  0  0  0
   46.0160   34.2540   41.6560 H   0  0  0  0  0  0  0  0  0  0  0  0
   45.9320   35.8870   42.3210 H   0  0  0  0  0  0  0  0  0  0  0  0
   44.5790   36.3570   44.1210 Cl  0  0  0  0  0  0  0  0  0  0  0  0
   45.4210   34.9130   44.6230 C   0  0  0  0  0  0  0  0  0  0  0  0
   46.3000   34.3520   43.7340 C   0  0  0  0  0  0  0  0  0  0  0  0
   46.9660   33.2110   44.1270 C   0  0  0  0  0  0  0  0  0  0  0  0
   46.7570   32.6560   45.3730 C   0  0  0  0  0  0  0  0  0  0  0  0
   45.8570   33.2440   46.2670 C   0  0  0  0  0  0  0  0  0  0  0  0
   45.1910   34.3910   45.8600 C   0  0  0  0  0  0  0  0  0  0  0  0
   47.6740   32.7170   43.4740 H   0  0  0  0  0  0  0  0  0  0  0  0
   47.2330   31.7810   45.7420 H   0  0  0  0  0  0  0  0  0  0  0  0
   45.6750   32.8280   47.2470 H   0  0  0  0  0  0  0  0  0  0  0  0
   44.2710   35.0510   46.6860 O   0  0  0  0  0  0  0  0  0  0  0  0
   43.4760   34.5210   47.0280 H   0  0  0  0  0  0  0  0  0  0  0  0
  1  6  1  0  0  0  0
  1 23  1  0  0  0  0
  2  1  2  0  0  0  0
  3  4  2  0  0  0  0
  3  2  1  0  0  0  0
  4  5  1  0  0  0  0
  5  9  1  0  0  0  0
  5  6  2  0  0  0  0
  7  2  1  0  0  0  0
  8  3  1  0  0  0  0
  9 12  1  6  0  0  0
  9 11  1  0  0  0  0
  9 10  1  0  0  0  0
 10 14  1  0  0  0  0
 10 13  1  0  0  0  0
 11 15  1  6  0  0  0
 11 10  1  0  0  0  0
 16 11  1  0  0  0  0
 16 17  1  0  0  0  0
 18 19  1  0  0  0  0
 18 17  2  0  0  0  0
 20 18  1  0  0  0  0
 21 20  1  0  0  0  0
 22 20  1  0  0  0  0
 22 16  2  0  0  0  0
 23 26  1  0  0  0  0
 23 25  1  0  0  0  0
 24 23  1  0  0  0  0
 26 31  1  0  0  0  0
 27 26  1  0  0  0  0
 28 26  1  0  0  0  0
 29 30  1  0  0  0  0
 30 35  1  0  0  0  0
 31 32  1  0  0  0  0
 31 30  2  0  0  0  0
 32 33  2  0  0  0  0
 33 37  1  0  0  0  0
 33 34  1  0  0  0  0
 34 38  1  0  0  0  0
 35 34  2  0  0  0  0
 35 39  1  0  0  0  0
 36 32  1  0  0  0  0
 39 40  1  0  0  0  0
M  END
>  <minimizedAffinity>
-5.74294233

>  <minimizedRMSD>
0.21715869

$$$$
