
     RDKit          3D

 30 33  0  0  0  0  0  0  0  0999 V2000
   48.1735   35.0591   41.9349 C   0  0  0  0  0  0  0  0  0  0  0  0
   47.0610   34.2559   42.0948 C   0  0  0  0  0  0  0  0  0  0  0  0
   46.5113   33.6605   40.9821 C   0  0  0  0  0  0  0  0  0  0  0  0
   47.0311   33.8382   39.7208 C   0  0  0  0  0  0  0  0  0  0  0  0
   46.6724   33.3679   38.5003 N   0  0  0  0  0  0  0  0  0  0  0  0
   47.5454   33.8656   37.5758 C   0  0  0  0  0  0  0  0  0  0  0  0
   48.4287   34.6346   38.2387 N   0  0  0  0  0  0  0  0  0  0  0  0
   48.1406   34.6381   39.5548 C   0  0  0  0  0  0  0  0  0  0  0  0
   48.7037   35.2412   40.6540 C   0  0  0  0  0  0  0  0  0  0  0  0
   45.1247   34.6130   45.3147 C   0  0  0  0  0  0  0  0  0  0  0  0
   45.5191   34.8792   43.9803 C   0  0  0  0  0  0  0  0  0  0  0  0
   46.5467   34.0995   43.4528 C   0  0  0  0  0  0  0  0  0  0  0  0
   47.1001   33.1535   44.2215 N   0  0  0  0  0  0  0  0  0  0  0  0
   46.7068   32.9168   45.4942 C   0  0  0  0  0  0  0  0  0  0  0  0
   45.7262   33.6489   46.0215 N   0  0  0  0  0  0  0  0  0  0  0  0
   44.0937   35.3999   45.8358 O   0  0  0  0  0  0  0  0  0  0  0  0
   48.6918   35.5788   42.7339 H   0  0  0  0  0  0  0  0  0  0  0  0
   45.6516   33.0502   41.1678 H   0  0  0  0  0  0  0  0  0  0  0  0
   45.8429   32.7319   38.3964 H   0  0  0  0  0  0  0  0  0  0  0  0
   47.3717   33.5661   36.5520 H   0  0  0  0  0  0  0  0  0  0  0  0
   49.5723   35.8601   40.4806 H   0  0  0  0  0  0  0  0  0  0  0  0
   45.0788   35.6344   43.3638 H   0  0  0  0  0  0  0  0  0  0  0  0
   47.1756   32.1503   46.0754 H   0  0  0  0  0  0  0  0  0  0  0  0
   43.6107   35.2558   47.1066 C   0  0  0  0  0  0  0  0  0  0  0  0
   44.5120   35.4410   48.1114 N   0  0  0  0  0  0  0  0  0  0  0  0
   43.8652   35.2610   49.2899 C   0  0  0  0  0  0  0  0  0  0  0  0
   44.3383   35.3468   50.2799 H   0  0  0  0  0  0  0  0  0  0  0  0
   42.5836   34.9692   49.0095 N   0  0  0  0  0  0  0  0  0  0  0  0
   41.8397   34.7783   49.7146 H   0  0  0  0  0  0  0  0  0  0  0  0
   42.4374   34.9678   47.6933 N   0  0  0  0  0  0  0  0  0  0  0  0
  1  2  2  0
  2 12  1  0
  3  2  1  0
  4  3  2  0
  5  4  1  0
  6  7  2  0
  6  5  1  0
  7  8  1  0
  8  4  1  0
  8  9  2  0
  9  1  1  0
 10 16  1  0
 10 15  1  0
 11 10  2  0
 12 11  1  0
 12 13  2  0
 13 14  1  0
 14 15  2  0
  1 17  1  0
  3 18  1  0
  5 19  1  0
  6 20  1  0
  9 21  1  0
 11 22  1  0
 14 23  1  0
 24 25  1  0
 25 26  2  0
 26 27  1  0
 26 28  1  0
 28 29  1  0
 28 30  1  0
 30 24  2  0
 16 24  1  0
M  ISO  8  17  14  18  14  19   9  20  14  21  14  22  14  23  14  27  14
M  ISO  1  29   9
M  END
>  <DihAtoms>  (1) 
9,15,23,24

>  <DihDeg>  (1) 
179.9991222068366

$$$$
