
 OpenBabel03252509033D

 46 48  0  0  1  0  0  0  0  0999 V2000
   46.9460   34.3560   43.3490 N   0  0  0  0  0  0  0  0  0  0  0  0
   46.4980   35.5410   42.7150 C   0  0  0  0  0  0  0  0  0  0  0  0
   45.0180   35.7970   42.8320 C   0  0  0  0  0  0  0  0  0  0  0  0
   44.3960   35.3180   44.1240 C   0  0  0  0  0  0  0  0  0  0  0  0
   45.4420   34.7600   45.0620 C   0  0  0  0  0  0  0  0  0  0  0  0
   46.1290   33.6400   44.2020 C   0  0  2  0  0  0  0  0  0  0  0  0
   46.9800   36.4030   43.2570 H   0  0  0  0  0  0  0  0  0  0  0  0
   46.7720   35.6690   41.6670 H   0  0  0  0  0  0  0  0  0  0  0  0
   44.8150   36.8760   42.6510 H   0  0  0  0  0  0  0  0  0  0  0  0
   44.5400   35.2520   41.9820 H   0  0  0  0  0  0  0  0  0  0  0  0
   43.9080   36.2080   44.6130 H   0  0  0  0  0  0  0  0  0  0  0  0
   43.6180   34.5720   43.9640 H   0  0  0  0  0  0  0  0  0  0  0  0
   46.2110   35.4890   45.3290 H   0  0  0  0  0  0  0  0  0  0  0  0
   44.9260   34.2730   45.9080 H   0  0  0  0  0  0  0  0  0  0  0  0
   45.2850   33.0650   43.7720 H   0  0  0  0  0  0  0  0  0  0  0  0
   47.9650   33.6470   42.6160 C   0  0  0  0  0  0  0  0  0  0  0  0
   48.6820   34.3570   42.1670 H   0  0  0  0  0  0  0  0  0  0  0  0
   48.5320   33.0590   43.3930 H   0  0  0  0  0  0  0  0  0  0  0  0
   47.3210   32.7160   41.6600 C   0  0  0  0  0  0  0  0  0  0  0  0
   47.4320   31.6670   41.9650 H   0  0  0  0  0  0  0  0  0  0  0  0
   46.2080   32.8770   41.5880 H   0  0  0  0  0  0  0  0  0  0  0  0
   49.2670   32.1670   38.4940 C   0  0  0  0  0  0  0  0  0  0  0  0
   48.7290   31.9850   39.7820 C   0  0  0  0  0  0  0  0  0  0  0  0
   47.8800   32.9200   40.3020 C   0  0  0  0  0  0  0  0  0  0  0  0
   47.5950   33.9870   39.5430 N   0  0  0  0  0  0  0  0  0  0  0  0
   48.1070   34.1630   38.3130 C   0  0  0  0  0  0  0  0  0  0  0  0
   48.9420   33.2630   37.7750 N   0  0  0  0  0  0  0  0  0  0  0  0
   49.9340   31.3480   38.1850 H   0  0  0  0  0  0  0  0  0  0  0  0
   48.9730   31.1120   40.3800 H   0  0  0  0  0  0  0  0  0  0  0  0
   47.8810   35.0300   37.6840 H   0  0  0  0  0  0  0  0  0  0  0  0
   46.8450   32.9570   45.1720 O   0  0  0  0  0  0  0  0  0  0  0  0
   45.4570   30.8910   44.2490 O   0  0  0  0  0  0  0  0  0  0  0  0
   46.2490   31.4010   45.4490 P   0  0  2  0  0  0  0  0  0  0  0  0
   45.1350   31.5310   46.7290 O   0  0  0  0  0  0  0  0  0  0  0  0
   44.3160   32.0000   46.4610 H   0  0  0  0  0  0  0  0  0  0  0  0
   47.4490   30.3310   45.9000 O   0  0  0  0  0  0  0  0  0  0  0  0
   47.1740   29.0750   45.3990 C   0  0  0  0  0  0  0  0  0  0  0  0
   48.1100   28.5230   45.2820 H   0  0  0  0  0  0  0  0  0  0  0  0
   46.8030   29.2390   44.3450 H   0  0  0  0  0  0  0  0  0  0  0  0
   46.1410   28.3270   46.1460 C   0  0  0  0  0  0  0  0  0  0  0  0
   46.0160   28.4850   47.4850 N   0  0  0  0  0  0  0  0  0  0  0  0
   45.0140   27.7040   47.9500 C   0  0  0  0  0  0  0  0  0  0  0  0
   44.7440   27.6820   49.0130 H   0  0  0  0  0  0  0  0  0  0  0  0
   44.5120   27.0520   46.8700 N   0  0  0  0  0  0  0  0  0  0  0  0
   43.7210   26.3770   46.9410 H   0  0  0  0  0  0  0  0  0  0  0  0
   45.1950   27.4370   45.8180 N   0  0  0  0  0  0  0  0  0  0  0  0
  1  6  1  0  0  0  0
  2  3  1  0  0  0  0
  2  7  1  0  0  0  0
  2  1  1  0  0  0  0
  3  4  1  0  0  0  0
  4 11  1  0  0  0  0
  4  5  1  0  0  0  0
  5 13  1  0  0  0  0
  5 14  1  0  0  0  0
  6 15  1  6  0  0  0
  6  5  1  0  0  0  0
  6 31  1  0  0  0  0
  8  2  1  0  0  0  0
  9  3  1  0  0  0  0
 10  3  1  0  0  0  0
 12  4  1  0  0  0  0
 16  1  1  0  0  0  0
 16 18  1  0  0  0  0
 17 16  1  0  0  0  0
 19 20  1  0  0  0  0
 19 16  1  0  0  0  0
 21 19  1  0  0  0  0
 22 23  1  0  0  0  0
 23 24  2  0  0  0  0
 23 29  1  0  0  0  0
 24 19  1  0  0  0  0
 25 24  1  0  0  0  0
 26 25  2  0  0  0  0
 27 26  1  0  0  0  0
 27 22  2  0  0  0  0
 28 22  1  0  0  0  0
 30 26  1  0  0  0  0
 31 33  1  0  0  0  0
 33 32  2  6  0  0  0
 33 36  1  0  0  0  0
 33 34  1  0  0  0  0
 35 34  1  0  0  0  0
 37 36  1  0  0  0  0
 37 40  1  0  0  0  0
 38 37  1  0  0  0  0
 39 37  1  0  0  0  0
 40 41  1  0  0  0  0
 41 42  2  0  0  0  0
 42 43  1  0  0  0  0
 44 45  1  0  0  0  0
 44 42  1  0  0  0  0
 46 40  2  0  0  0  0
 46 44  1  0  0  0  0
M  END
>  <minimizedAffinity>
-3.9783113

>  <minimizedRMSD>
0.686639428

$$$$
