
     RDKit          3D

 34 36  0  0  0  0  0  0  0  0999 V2000
   45.4019   31.3406   47.7396 C   0  0  0  0  0  0  0  0  0  0  0  0
   46.5875   30.4899   47.8615 C   0  0  0  0  0  0  0  0  0  0  0  0
   46.8279   29.2115   47.3662 C   0  0  0  0  0  0  0  0  0  0  0  0
   48.0399   28.6445   47.6331 C   0  0  0  0  0  0  0  0  0  0  0  0
   48.9835   29.2638   48.3395 N   0  0  0  0  0  0  0  0  0  0  0  0
   48.7408   30.4966   48.8122 C   0  0  0  0  0  0  0  0  0  0  0  0
   47.5474   31.1283   48.5840 N   0  0  0  0  0  0  0  0  0  0  0  0
   49.8499   31.1026   49.5852 C   0  0  0  0  0  0  0  0  0  0  0  0
   49.8327   32.4751   49.4904 F   0  0  0  0  0  0  0  0  0  0  0  0
   51.0908   30.6451   49.1087 F   0  0  0  0  0  0  0  0  0  0  0  0
   49.7837   30.7748   50.9239 F   0  0  0  0  0  0  0  0  0  0  0  0
   45.8394   32.6785   47.6302 O   0  0  0  0  0  0  0  0  0  0  0  0
   44.8981   34.9873   45.0792 C   0  0  0  0  0  0  0  0  0  0  0  0
   45.7659   34.6866   44.0229 C   0  0  0  0  0  0  0  0  0  0  0  0
   46.6786   33.6548   44.2463 C   0  0  0  0  0  0  0  0  0  0  0  0
   46.7122   33.0005   45.4036 N   0  0  0  0  0  0  0  0  0  0  0  0
   45.8508   33.3255   46.4024 C   0  0  0  0  0  0  0  0  0  0  0  0
   44.9534   34.3100   46.2390 N   0  0  0  0  0  0  0  0  0  0  0  0
   45.6779   35.4577   42.7493 C   0  0  0  0  0  0  0  0  0  0  0  0
   45.3009   36.7264   43.1530 F   0  0  0  0  0  0  0  0  0  0  0  0
   44.6322   34.8879   42.0249 F   0  0  0  0  0  0  0  0  0  0  0  0
   46.8664   35.4322   42.1109 F   0  0  0  0  0  0  0  0  0  0  0  0
   44.8743   31.0751   46.8004 H   0  0  0  0  0  0  0  0  0  0  0  0
   44.7285   31.1926   48.6049 H   0  0  0  0  0  0  0  0  0  0  0  0
   45.9740   28.8540   46.8224 H   0  0  0  0  0  0  0  0  0  0  0  0
   48.1480   27.6452   47.2108 H   0  0  0  0  0  0  0  0  0  0  0  0
   44.1689   35.7783   44.9632 H   0  0  0  0  0  0  0  0  0  0  0  0
   47.6001   33.3125   43.1674 C   0  0  0  0  0  0  0  0  0  0  0  0
   48.5706   33.8941   42.4259 N   0  0  0  0  0  0  0  0  0  0  0  0
   49.0221   32.9364   41.5662 C   0  0  0  0  0  0  0  0  0  0  0  0
   49.8102   33.0891   40.8301 H   0  0  0  0  0  0  0  0  0  0  0  0
   48.3472   31.7840   41.7683 N   0  0  0  0  0  0  0  0  0  0  0  0
   48.5266   30.9104   41.2201 H   0  0  0  0  0  0  0  0  0  0  0  0
   47.4791   32.0250   42.7506 N   0  0  0  0  0  0  0  0  0  0  0  0
  1  2  1  0
  2  7  2  0
  3  4  2  0
  3  2  1  0
  4  5  1  0
  5  6  2  0
  6  8  1  0
  7  6  1  0
  8 11  1  0
  9  8  1  0
 10  8  1  0
 12  1  1  0
 13 18  2  0
 14 15  2  0
 14 13  1  0
 15 16  1  0
 16 17  2  0
 17 12  1  0
 18 17  1  0
 19 20  1  0
 19 14  1  0
 21 19  1  0
 22 19  1  0
  1 23  1  0
  1 24  1  0
  3 25  1  0
  4 26  1  0
 13 27  1  0
 28 29  1  0
 29 30  2  0
 30 31  1  0
 30 32  1  0
 32 33  1  0
 32 34  1  0
 34 28  2  0
 15 28  1  0
M  ISO  7  23   8  24   8  25  14  26  14  27  14  31  14  33   9
M  END
>  <DihAtoms>  (1) 
13,14,27,28

>  <DihDeg>  (1) 
-75.25585756641799

$$$$
