
 OpenBabel03252501163D

 33 36  0  0  1  0  0  0  0  0999 V2000
   46.2160   31.7530   45.2770 C   0  0  1  0  0  0  0  0  0  0  0  0
   47.5530   31.5980   44.6640 C   0  0  0  0  0  0  0  0  0  0  0  0
   47.3060   31.5190   46.2210 C   0  0  2  0  0  0  0  0  0  0  0  0
   45.5010   30.8930   45.1020 H   0  0  0  0  0  0  0  0  0  0  0  0
   48.1420   32.4760   44.3520 H   0  0  0  0  0  0  0  0  0  0  0  0
   47.8500   30.6640   44.1740 H   0  0  0  0  0  0  0  0  0  0  0  0
   47.7250   32.3570   46.7760 H   0  0  0  0  0  0  0  0  0  0  0  0
   44.9680   35.0400   43.9520 C   0  0  0  0  0  0  0  0  0  0  0  0
   45.5300   33.7750   43.9450 C   0  0  0  0  0  0  0  0  0  0  0  0
   45.6210   33.1210   45.1620 C   0  0  0  0  0  0  0  0  0  0  0  0
   45.1710   33.7260   46.2840 N   0  0  0  0  0  0  0  0  0  0  0  0
   44.6270   34.9710   46.2450 C   0  0  0  0  0  0  0  0  0  0  0  0
   44.5290   35.6240   45.0660 N   0  0  0  0  0  0  0  0  0  0  0  0
   45.8820   33.3060   43.0530 H   0  0  0  0  0  0  0  0  0  0  0  0
   44.2700   35.4450   47.1480 H   0  0  0  0  0  0  0  0  0  0  0  0
   44.8490   35.7590   42.6420 C   0  0  0  0  0  0  0  0  0  0  0  0
   45.1420   37.0830   42.8720 F   0  0  0  0  0  0  0  0  0  0  0  0
   43.5290   35.6760   42.2510 F   0  0  0  0  0  0  0  0  0  0  0  0
   45.7080   35.2480   41.7130 F   0  0  0  0  0  0  0  0  0  0  0  0
   47.4440   30.1360   46.7450 C   0  0  0  0  0  0  0  0  0  0  0  0
   46.5060   29.1120   46.6710 C   0  0  0  0  0  0  0  0  0  0  0  0
   47.1290   28.0610   47.2950 C   0  0  0  0  0  0  0  0  0  0  0  0
   48.4120   28.4610   47.7260 C   0  0  0  0  0  0  0  0  0  0  0  0
   48.5040   29.7070   47.3540 O   0  0  0  0  0  0  0  0  0  0  0  0
   45.5230   29.1390   46.2300 H   0  0  0  0  0  0  0  0  0  0  0  0
   46.7170   27.0720   47.4430 H   0  0  0  0  0  0  0  0  0  0  0  0
   49.3530   27.5940   48.4290 C   0  0  0  0  0  0  0  0  0  0  0  0
   48.9090   26.3390   48.7110 N   0  0  0  0  0  0  0  0  0  0  0  0
   49.9150   25.6860   49.3600 C   0  0  0  0  0  0  0  0  0  0  0  0
   49.9670   24.6780   49.7530 H   0  0  0  0  0  0  0  0  0  0  0  0
   50.9460   26.5560   49.4580 N   0  0  0  0  0  0  0  0  0  0  0  0
   51.8940   26.3850   49.9040 H   0  0  0  0  0  0  0  0  0  0  0  0
   50.6260   27.7300   48.8940 N   0  0  0  0  0  0  0  0  0  0  0  0
  1  4  1  6  0  0  0
  1  3  1  0  0  0  0
  2  1  1  0  0  0  0
  2  3  1  0  0  0  0
  3 20  1  0  0  0  0
  3  7  1  1  0  0  0
  5  2  1  0  0  0  0
  6  2  1  0  0  0  0
  8 13  1  0  0  0  0
  9  8  2  0  0  0  0
  9 10  1  0  0  0  0
 10  1  1  0  0  0  0
 10 11  2  0  0  0  0
 12 11  1  0  0  0  0
 12 15  1  0  0  0  0
 13 12  2  0  0  0  0
 14  9  1  0  0  0  0
 16 17  1  0  0  0  0
 16  8  1  0  0  0  0
 18 16  1  0  0  0  0
 19 16  1  0  0  0  0
 20 24  1  0  0  0  0
 21 20  2  0  0  0  0
 21 22  1  0  0  0  0
 22 26  1  0  0  0  0
 22 23  2  0  0  0  0
 23 27  1  0  0  0  0
 24 23  1  0  0  0  0
 25 21  1  0  0  0  0
 27 28  1  0  0  0  0
 27 33  2  0  0  0  0
 28 29  2  0  0  0  0
 29 31  1  0  0  0  0
 29 30  1  0  0  0  0
 31 32  1  0  0  0  0
 33 31  1  0  0  0  0
M  END
>  <minimizedAffinity>
-4.51886559

>  <minimizedRMSD>
8.76246166

$$$$
