
 OpenBabel03252509153D

 43 47  0  0  1  0  0  0  0  0999 V2000
   37.0840   30.1960   36.9640 C   0  0  0  0  0  0  0  0  0  0  0  0
   36.3800   29.5680   37.9880 C   0  0  0  0  0  0  0  0  0  0  0  0
   36.2630   30.1100   39.2600 C   0  0  0  0  0  0  0  0  0  0  0  0
   36.8760   31.3440   39.5380 C   0  0  0  0  0  0  0  0  0  0  0  0
   36.9740   32.1470   40.6160 N   0  0  0  0  0  0  0  0  0  0  0  0
   37.7000   33.2330   40.3030 C   0  0  0  0  0  0  0  0  0  0  0  0
   38.0490   33.0890   39.0180 N   0  0  0  0  0  0  0  0  0  0  0  0
   37.5610   31.9370   38.5080 C   0  0  0  0  0  0  0  0  0  0  0  0
   37.6970   31.4250   37.2310 C   0  0  0  0  0  0  0  0  0  0  0  0
   37.1350   29.7190   35.9990 H   0  0  0  0  0  0  0  0  0  0  0  0
   36.5420   31.9410   41.5480 H   0  0  0  0  0  0  0  0  0  0  0  0
   37.9670   34.0740   40.9390 H   0  0  0  0  0  0  0  0  0  0  0  0
   38.2450   31.9270   36.4540 H   0  0  0  0  0  0  0  0  0  0  0  0
   33.8700   27.0940   37.0060 C   0  0  0  0  0  0  0  0  0  0  0  0
   34.5190   25.8780   37.2070 C   0  0  0  0  0  0  0  0  0  0  0  0
   35.8340   25.9230   37.6850 C   0  0  0  0  0  0  0  0  0  0  0  0
   36.4270   27.1400   37.9350 N   0  0  0  0  0  0  0  0  0  0  0  0
   35.7360   28.2830   37.7180 C   0  0  0  0  0  0  0  0  0  0  0  0
   34.4550   28.3060   37.2540 N   0  0  0  0  0  0  0  0  0  0  0  0
   32.8490   27.1890   36.6400 H   0  0  0  0  0  0  0  0  0  0  0  0
   33.9950   24.9770   36.9910 H   0  0  0  0  0  0  0  0  0  0  0  0
   36.3610   25.0010   37.8500 H   0  0  0  0  0  0  0  0  0  0  0  0
   35.3660   29.2990   40.5480 S   0  0  0  0  0  0  0  0  0  0  0  0
   37.2840   27.5020   40.7160 N   0  0  0  0  0  0  0  0  0  0  0  0
   36.3990   28.2420   41.6010 C   0  0  1  0  0  0  0  0  0  0  0  0
   37.1950   29.2020   42.4880 C   0  0  0  0  0  0  0  0  0  0  0  0
   38.3420   28.6460   43.0150 O   0  0  0  0  0  0  0  0  0  0  0  0
   38.4560   27.2830   42.8650 C   0  0  0  0  0  0  0  0  0  0  0  0
   38.4080   26.9340   41.4010 C   0  0  1  0  0  0  0  0  0  0  0  0
   37.5750   28.1410   39.9160 H   0  0  0  0  0  0  0  0  0  0  0  0
   35.8260   27.5380   42.2180 H   0  0  0  0  0  0  0  0  0  0  0  0
   36.6000   29.4820   43.3530 H   0  0  0  0  0  0  0  0  0  0  0  0
   37.4530   30.1210   41.9200 H   0  0  0  0  0  0  0  0  0  0  0  0
   39.4060   26.9620   43.2840 H   0  0  0  0  0  0  0  0  0  0  0  0
   37.5750   26.8130   43.3430 H   0  0  0  0  0  0  0  0  0  0  0  0
   39.3290   27.2870   40.8720 H   0  0  0  0  0  0  0  0  0  0  0  0
   38.4130   25.4440   41.3050 C   0  0  0  0  0  0  0  0  0  0  0  0
   38.4760   24.7420   40.1380 N   0  0  0  0  0  0  0  0  0  0  0  0
   38.4590   23.4190   40.4690 C   0  0  0  0  0  0  0  0  0  0  0  0
   38.5000   22.6520   39.7180 H   0  0  0  0  0  0  0  0  0  0  0  0
   38.3880   23.3030   41.8080 N   0  0  0  0  0  0  0  0  0  0  0  0
   38.3590   22.3970   42.3410 H   0  0  0  0  0  0  0  0  0  0  0  0
   38.3600   24.5510   42.3020 N   0  0  0  0  0  0  0  0  0  0  0  0
  1  9  2  0  0  0  0
  1  2  1  0  0  0  0
  2  3  2  0  0  0  0
  3  4  1  0  0  0  0
  3 23  1  0  0  0  0
  4  5  1  0  0  0  0
  5 11  1  0  0  0  0
  6  5  1  0  0  0  0
  6 12  1  0  0  0  0
  7  6  2  0  0  0  0
  8  7  1  0  0  0  0
  8  4  2  0  0  0  0
  9  8  1  0  0  0  0
 10  1  1  0  0  0  0
 13  9  1  0  0  0  0
 14 15  2  0  0  0  0
 14 19  1  0  0  0  0
 15 16  1  0  0  0  0
 16 22  1  0  0  0  0
 16 17  2  0  0  0  0
 18 17  1  0  0  0  0
 18  2  1  0  0  0  0
 19 18  2  0  0  0  0
 20 14  1  0  0  0  0
 21 15  1  0  0  0  0
 23 25  1  0  0  0  0
 24 29  1  0  0  0  0
 24 25  1  0  0  0  0
 25 31  1  1  0  0  0
 25 26  1  0  0  0  0
 26 27  1  0  0  0  0
 26 32  1  0  0  0  0
 28 27  1  0  0  0  0
 28 34  1  0  0  0  0
 28 35  1  0  0  0  0
 29 36  1  6  0  0  0
 29 28  1  0  0  0  0
 30 24  1  0  0  0  0
 33 26  1  0  0  0  0
 37 29  1  0  0  0  0
 37 43  2  0  0  0  0
 38 39  2  0  0  0  0
 38 37  1  0  0  0  0
 39 41  1  0  0  0  0
 40 39  1  0  0  0  0
 41 43  1  0  0  0  0
 41 42  1  0  0  0  0
M  END
>  <minimizedAffinity>
-6.03341913

$$$$

 OpenBabel03252509153D

 43 47  0  0  1  0  0  0  0  0999 V2000
   34.6110   28.2940   38.4170 C   0  0  0  0  0  0  0  0  0  0  0  0
   35.9620   28.2050   38.7380 C   0  0  0  0  0  0  0  0  0  0  0  0
   36.9690   28.5510   37.8480 C   0  0  0  0  0  0  0  0  0  0  0  0
   36.6230   29.0130   36.5670 C   0  0  0  0  0  0  0  0  0  0  0  0
   37.3010   29.4240   35.4780 N   0  0  0  0  0  0  0  0  0  0  0  0
   36.4340   29.7610   34.5080 C   0  0  0  0  0  0  0  0  0  0  0  0
   35.2110   29.5500   35.0140 N   0  0  0  0  0  0  0  0  0  0  0  0
   35.2830   29.0890   36.2810 C   0  0  0  0  0  0  0  0  0  0  0  0
   34.2550   28.7520   37.1430 C   0  0  0  0  0  0  0  0  0  0  0  0
   33.8790   28.0080   39.1560 H   0  0  0  0  0  0  0  0  0  0  0  0
   38.3450   29.4700   35.4140 H   0  0  0  0  0  0  0  0  0  0  0  0
   36.6470   30.1320   33.5080 H   0  0  0  0  0  0  0  0  0  0  0  0
   33.2170   28.8280   36.8750 H   0  0  0  0  0  0  0  0  0  0  0  0
   36.6460   28.1520   42.3320 C   0  0  0  0  0  0  0  0  0  0  0  0
   37.0530   26.8400   42.5640 C   0  0  0  0  0  0  0  0  0  0  0  0
   37.0890   25.9740   41.4640 C   0  0  0  0  0  0  0  0  0  0  0  0
   36.7280   26.4390   40.2190 N   0  0  0  0  0  0  0  0  0  0  0  0
   36.3420   27.7270   40.0670 C   0  0  0  0  0  0  0  0  0  0  0  0
   36.2880   28.6180   41.0960 N   0  0  0  0  0  0  0  0  0  0  0  0
   36.5790   28.9160   43.1030 H   0  0  0  0  0  0  0  0  0  0  0  0
   37.3170   26.5540   43.5550 H   0  0  0  0  0  0  0  0  0  0  0  0
   37.3980   24.9560   41.6120 H   0  0  0  0  0  0  0  0  0  0  0  0
   38.6800   28.4320   38.2740 S   0  0  0  0  0  0  0  0  0  0  0  0
   39.9740   30.5600   37.4150 N   0  0  0  0  0  0  0  0  0  0  0  0
   39.4460   30.0300   38.6630 C   0  0  1  0  0  0  0  0  0  0  0  0
   38.3120   30.9110   39.1910 C   0  0  0  0  0  0  0  0  0  0  0  0
   38.5750   32.2620   39.1050 O   0  0  0  0  0  0  0  0  0  0  0  0
   39.8750   32.5890   38.7970 C   0  0  0  0  0  0  0  0  0  0  0  0
   40.2510   31.9640   37.4810 C   0  0  1  0  0  0  0  0  0  0  0  0
   39.2990   30.3130   36.6310 H   0  0  0  0  0  0  0  0  0  0  0  0
   40.2540   29.9640   39.4030 H   0  0  0  0  0  0  0  0  0  0  0  0
   38.1640   30.7240   40.2510 H   0  0  0  0  0  0  0  0  0  0  0  0
   37.3680   30.6800   38.6530 H   0  0  0  0  0  0  0  0  0  0  0  0
   39.9580   33.6700   38.7230 H   0  0  0  0  0  0  0  0  0  0  0  0
   40.5300   32.1430   39.5710 H   0  0  0  0  0  0  0  0  0  0  0  0
   39.7020   32.4480   36.6340 H   0  0  0  0  0  0  0  0  0  0  0  0
   41.7000   32.2480   37.2580 C   0  0  0  0  0  0  0  0  0  0  0  0
   42.6590   31.2960   37.0780 N   0  0  0  0  0  0  0  0  0  0  0  0
   43.8430   31.9520   36.9070 C   0  0  0  0  0  0  0  0  0  0  0  0
   44.7620   31.4190   36.7460 H   0  0  0  0  0  0  0  0  0  0  0  0
   43.6240   33.2780   36.9790 N   0  0  0  0  0  0  0  0  0  0  0  0
   44.3580   34.0240   36.8820 H   0  0  0  0  0  0  0  0  0  0  0  0
   42.3090   33.4400   37.1930 N   0  0  0  0  0  0  0  0  0  0  0  0
  1  2  1  0  0  0  0
  1 10  1  0  0  0  0
  2 18  1  0  0  0  0
  3 23  1  0  0  0  0
  3  2  2  0  0  0  0
  4  3  1  0  0  0  0
  5  4  1  0  0  0  0
  6  7  2  0  0  0  0
  6  5  1  0  0  0  0
  7  8  1  0  0  0  0
  8  4  2  0  0  0  0
  8  9  1  0  0  0  0
  9  1  2  0  0  0  0
 11  5  1  0  0  0  0
 12  6  1  0  0  0  0
 13  9  1  0  0  0  0
 14 15  1  0  0  0  0
 14 20  1  0  0  0  0
 15 21  1  0  0  0  0
 16 22  1  0  0  0  0
 16 15  2  0  0  0  0
 17 16  1  0  0  0  0
 18 17  2  0  0  0  0
 18 19  1  0  0  0  0
 19 14  2  0  0  0  0
 23 25  1  0  0  0  0
 24 29  1  0  0  0  0
 24 25  1  0  0  0  0
 25 26  1  0  0  0  0
 25 31  1  1  0  0  0
 26 32  1  0  0  0  0
 27 26  1  0  0  0  0
 28 27  1  0  0  0  0
 28 35  1  0  0  0  0
 29 36  1  6  0  0  0
 29 28  1  0  0  0  0
 30 24  1  0  0  0  0
 33 26  1  0  0  0  0
 34 28  1  0  0  0  0
 37 29  1  0  0  0  0
 38 37  1  0  0  0  0
 39 41  1  0  0  0  0
 39 38  2  0  0  0  0
 40 39  1  0  0  0  0
 41 43  1  0  0  0  0
 42 41  1  0  0  0  0
 43 37  2  0  0  0  0
M  END
>  <minimizedAffinity>
-5.89040804

$$$$

 OpenBabel03252509153D

 43 47  0  0  1  0  0  0  0  0999 V2000
   36.6300   26.6380   39.6390 C   0  0  0  0  0  0  0  0  0  0  0  0
   36.6780   27.9730   39.2460 C   0  0  0  0  0  0  0  0  0  0  0  0
   36.8880   29.0110   40.1420 C   0  0  0  0  0  0  0  0  0  0  0  0
   37.0620   28.7170   41.5050 C   0  0  0  0  0  0  0  0  0  0  0  0
   37.2780   29.4360   42.6230 N   0  0  0  0  0  0  0  0  0  0  0  0
   37.3660   28.6100   43.6800 C   0  0  0  0  0  0  0  0  0  0  0  0
   37.2000   27.3720   43.1960 N   0  0  0  0  0  0  0  0  0  0  0  0
   37.0090   27.3930   41.8600 C   0  0  0  0  0  0  0  0  0  0  0  0
   36.8020   26.3340   40.9940 C   0  0  0  0  0  0  0  0  0  0  0  0
   36.4630   25.8800   38.8910 H   0  0  0  0  0  0  0  0  0  0  0  0
   37.3640   30.4800   42.6480 H   0  0  0  0  0  0  0  0  0  0  0  0
   37.5370   28.8630   44.7230 H   0  0  0  0  0  0  0  0  0  0  0  0
   36.7690   25.3100   41.3190 H   0  0  0  0  0  0  0  0  0  0  0  0
   35.0920   28.8940   36.0800 C   0  0  0  0  0  0  0  0  0  0  0  0
   36.1550   28.9150   35.1800 C   0  0  0  0  0  0  0  0  0  0  0  0
   37.4260   28.6060   35.6800 C   0  0  0  0  0  0  0  0  0  0  0  0
   37.5780   28.3000   37.0130 N   0  0  0  0  0  0  0  0  0  0  0  0
   36.5000   28.2990   37.8320 C   0  0  0  0  0  0  0  0  0  0  0  0
   35.2380   28.5900   37.4060 N   0  0  0  0  0  0  0  0  0  0  0  0
   34.0600   29.1140   35.8130 H   0  0  0  0  0  0  0  0  0  0  0  0
   35.9590   29.1610   34.1630 H   0  0  0  0  0  0  0  0  0  0  0  0
   38.2660   28.6140   35.0100 H   0  0  0  0  0  0  0  0  0  0  0  0
   36.9460   30.7000   39.6240 S   0  0  0  0  0  0  0  0  0  0  0  0
   38.9770   31.8320   38.3870 N   0  0  0  0  0  0  0  0  0  0  0  0
   38.5990   31.4400   39.7360 C   0  0  1  0  0  0  0  0  0  0  0  0
   38.4380   32.6690   40.6340 C   0  0  0  0  0  0  0  0  0  0  0  0
   39.4370   33.6060   40.4730 O   0  0  0  0  0  0  0  0  0  0  0  0
   40.5200   33.1890   39.7340 C   0  0  0  0  0  0  0  0  0  0  0  0
   40.0600   32.7700   38.3640 C   0  0  1  0  0  0  0  0  0  0  0  0
   38.1120   32.1950   37.8850 H   0  0  0  0  0  0  0  0  0  0  0  0
   39.3590   30.7640   40.1480 H   0  0  0  0  0  0  0  0  0  0  0  0
   38.5010   32.3730   41.6770 H   0  0  0  0  0  0  0  0  0  0  0  0
   37.4500   33.1440   40.4570 H   0  0  0  0  0  0  0  0  0  0  0  0
   41.2230   34.0130   39.6460 H   0  0  0  0  0  0  0  0  0  0  0  0
   40.9430   32.2920   40.2270 H   0  0  0  0  0  0  0  0  0  0  0  0
   39.7190   33.6520   37.7660 H   0  0  0  0  0  0  0  0  0  0  0  0
   41.2500   32.2160   37.6520 C   0  0  0  0  0  0  0  0  0  0  0  0
   41.4060   30.9070   37.3020 N   0  0  0  0  0  0  0  0  0  0  0  0
   42.6120   30.8050   36.6750 C   0  0  0  0  0  0  0  0  0  0  0  0
   42.9720   29.8650   36.2990 H   0  0  0  0  0  0  0  0  0  0  0  0
   43.1920   32.0200   36.6370 N   0  0  0  0  0  0  0  0  0  0  0  0
   44.1280   32.2360   36.2120 H   0  0  0  0  0  0  0  0  0  0  0  0
   42.3450   32.8690   37.2390 N   0  0  0  0  0  0  0  0  0  0  0  0
  1  9  1  0  0  0  0
  2  1  2  0  0  0  0
  2  3  1  0  0  0  0
  3  4  2  0  0  0  0
  4  8  1  0  0  0  0
  4  5  1  0  0  0  0
  5 11  1  0  0  0  0
  5  6  1  0  0  0  0
  6 12  1  0  0  0  0
  7  6  2  0  0  0  0
  8  7  1  0  0  0  0
  9 13  1  0  0  0  0
  9  8  2  0  0  0  0
 10  1  1  0  0  0  0
 14 19  1  0  0  0  0
 15 16  1  0  0  0  0
 15 14  2  0  0  0  0
 16 17  2  0  0  0  0
 17 18  1  0  0  0  0
 18  2  1  0  0  0  0
 19 18  2  0  0  0  0
 20 14  1  0  0  0  0
 21 15  1  0  0  0  0
 22 16  1  0  0  0  0
 23 25  1  0  0  0  0
 23  3  1  0  0  0  0
 24 25  1  0  0  0  0
 25 31  1  1  0  0  0
 25 26  1  0  0  0  0
 26 32  1  0  0  0  0
 27 26  1  0  0  0  0
 28 35  1  0  0  0  0
 28 27  1  0  0  0  0
 29 36  1  6  0  0  0
 29 24  1  0  0  0  0
 29 28  1  0  0  0  0
 30 24  1  0  0  0  0
 33 26  1  0  0  0  0
 34 28  1  0  0  0  0
 37 29  1  0  0  0  0
 38 37  1  0  0  0  0
 39 38  2  0  0  0  0
 40 39  1  0  0  0  0
 41 39  1  0  0  0  0
 41 43  1  0  0  0  0
 42 41  1  0  0  0  0
 43 37  2  0  0  0  0
M  END
>  <minimizedAffinity>
-5.7698245

$$$$

 OpenBabel03252509153D

 43 47  0  0  1  0  0  0  0  0999 V2000
   34.9050   28.6190   39.0780 C   0  0  0  0  0  0  0  0  0  0  0  0
   36.2770   28.6340   39.3140 C   0  0  0  0  0  0  0  0  0  0  0  0
   37.2080   28.8650   38.3110 C   0  0  0  0  0  0  0  0  0  0  0  0
   36.7600   29.0970   36.9990 C   0  0  0  0  0  0  0  0  0  0  0  0
   37.3470   29.3480   35.8140 N   0  0  0  0  0  0  0  0  0  0  0  0
   36.4060   29.4880   34.8650 C   0  0  0  0  0  0  0  0  0  0  0  0
   35.2290   29.3190   35.4840 N   0  0  0  0  0  0  0  0  0  0  0  0
   35.4030   29.0760   36.8000 C   0  0  0  0  0  0  0  0  0  0  0  0
   34.4490   28.8480   37.7750 C   0  0  0  0  0  0  0  0  0  0  0  0
   34.2370   28.4330   39.9030 H   0  0  0  0  0  0  0  0  0  0  0  0
   38.3820   29.4200   35.6700 H   0  0  0  0  0  0  0  0  0  0  0  0
   36.5380   29.6970   33.8060 H   0  0  0  0  0  0  0  0  0  0  0  0
   33.3930   28.8410   37.5720 H   0  0  0  0  0  0  0  0  0  0  0  0
   37.3800   26.8980   42.3400 C   0  0  0  0  0  0  0  0  0  0  0  0
   37.6760   27.9380   43.2190 C   0  0  0  0  0  0  0  0  0  0  0  0
   37.4880   29.2460   42.7540 C   0  0  0  0  0  0  0  0  0  0  0  0
   37.0300   29.4540   41.4730 N   0  0  0  0  0  0  0  0  0  0  0  0
   36.7630   28.3960   40.6720 C   0  0  0  0  0  0  0  0  0  0  0  0
   36.9240   27.1010   41.0660 N   0  0  0  0  0  0  0  0  0  0  0  0
   37.4830   25.8430   42.5850 H   0  0  0  0  0  0  0  0  0  0  0  0
   38.0260   27.6980   44.1950 H   0  0  0  0  0  0  0  0  0  0  0  0
   37.7080   30.0680   43.4090 H   0  0  0  0  0  0  0  0  0  0  0  0
   38.9460   28.8800   38.6290 S   0  0  0  0  0  0  0  0  0  0  0  0
   40.9660   30.3170   39.5190 N   0  0  0  0  0  0  0  0  0  0  0  0
   39.5860   30.5110   39.1020 C   0  0  1  0  0  0  0  0  0  0  0  0
   39.5170   31.3620   37.8320 C   0  0  0  0  0  0  0  0  0  0  0  0
   40.3610   32.4520   37.8500 O   0  0  0  0  0  0  0  0  0  0  0  0
   40.9330   32.7330   39.0700 C   0  0  0  0  0  0  0  0  0  0  0  0
   41.7160   31.5380   39.5420 C   0  0  1  0  0  0  0  0  0  0  0  0
   41.4080   29.5790   38.8940 H   0  0  0  0  0  0  0  0  0  0  0  0
   39.0220   30.9890   39.9130 H   0  0  0  0  0  0  0  0  0  0  0  0
   38.5210   31.7840   37.7260 H   0  0  0  0  0  0  0  0  0  0  0  0
   39.7360   30.7360   36.9410 H   0  0  0  0  0  0  0  0  0  0  0  0
   41.5990   33.5840   38.9580 H   0  0  0  0  0  0  0  0  0  0  0  0
   40.1150   32.8980   39.7980 H   0  0  0  0  0  0  0  0  0  0  0  0
   42.6260   31.3770   38.9110 H   0  0  0  0  0  0  0  0  0  0  0  0
   42.2100   31.8520   40.9160 C   0  0  0  0  0  0  0  0  0  0  0  0
   42.4580   30.9230   41.8830 N   0  0  0  0  0  0  0  0  0  0  0  0
   42.8910   31.6020   42.9840 C   0  0  0  0  0  0  0  0  0  0  0  0
   43.1550   31.0910   43.8910 H   0  0  0  0  0  0  0  0  0  0  0  0
   42.9110   32.9200   42.7070 N   0  0  0  0  0  0  0  0  0  0  0  0
   43.2030   33.6790   43.3730 H   0  0  0  0  0  0  0  0  0  0  0  0
   42.4920   33.0530   41.4390 N   0  0  0  0  0  0  0  0  0  0  0  0
  1  2  1  0  0  0  0
  1 10  1  0  0  0  0
  2 18  1  0  0  0  0
  3 23  1  0  0  0  0
  3  2  2  0  0  0  0
  4  3  1  0  0  0  0
  5  4  1  0  0  0  0
  6  7  2  0  0  0  0
  6  5  1  0  0  0  0
  7  8  1  0  0  0  0
  8  4  2  0  0  0  0
  8  9  1  0  0  0  0
  9  1  2  0  0  0  0
 11  5  1  0  0  0  0
 12  6  1  0  0  0  0
 13  9  1  0  0  0  0
 14 20  1  0  0  0  0
 14 15  1  0  0  0  0
 15 21  1  0  0  0  0
 16 15  2  0  0  0  0
 16 22  1  0  0  0  0
 17 16  1  0  0  0  0
 18 19  1  0  0  0  0
 18 17  2  0  0  0  0
 19 14  2  0  0  0  0
 23 25  1  0  0  0  0
 24 29  1  0  0  0  0
 25 24  1  0  0  0  0
 25 31  1  1  0  0  0
 26 27  1  0  0  0  0
 26 25  1  0  0  0  0
 27 28  1  0  0  0  0
 28 29  1  0  0  0  0
 28 35  1  0  0  0  0
 29 36  1  6  0  0  0
 29 37  1  0  0  0  0
 30 24  1  0  0  0  0
 32 26  1  0  0  0  0
 33 26  1  0  0  0  0
 34 28  1  0  0  0  0
 37 43  2  0  0  0  0
 37 38  1  0  0  0  0
 38 39  2  0  0  0  0
 39 40  1  0  0  0  0
 41 39  1  0  0  0  0
 41 42  1  0  0  0  0
 43 41  1  0  0  0  0
M  END
>  <minimizedAffinity>
-5.610291

$$$$

 OpenBabel03252509153D

 43 47  0  0  1  0  0  0  0  0999 V2000
   40.2120   31.1050   37.7140 C   0  0  0  0  0  0  0  0  0  0  0  0
   39.0540   30.4440   38.1160 C   0  0  0  0  0  0  0  0  0  0  0  0
   38.1750   30.9730   39.0500 C   0  0  0  0  0  0  0  0  0  0  0  0
   38.4530   32.2270   39.6210 C   0  0  0  0  0  0  0  0  0  0  0  0
   37.8530   33.0240   40.5250 N   0  0  0  0  0  0  0  0  0  0  0  0
   38.5840   34.1390   40.6970 C   0  0  0  0  0  0  0  0  0  0  0  0
   39.6430   34.0160   39.8850 N   0  0  0  0  0  0  0  0  0  0  0  0
   39.6010   32.8520   39.2040 C   0  0  0  0  0  0  0  0  0  0  0  0
   40.4980   32.3540   38.2770 C   0  0  0  0  0  0  0  0  0  0  0  0
   40.8520   30.6370   36.9840 H   0  0  0  0  0  0  0  0  0  0  0  0
   36.9540   32.7970   41.0110 H   0  0  0  0  0  0  0  0  0  0  0  0
   38.3840   34.9850   41.3510 H   0  0  0  0  0  0  0  0  0  0  0  0
   41.3870   32.8810   37.9800 H   0  0  0  0  0  0  0  0  0  0  0  0
   37.5750   27.8700   35.9770 C   0  0  0  0  0  0  0  0  0  0  0  0
   38.1660   26.6930   36.4320 C   0  0  0  0  0  0  0  0  0  0  0  0
   39.0810   26.8000   37.4870 C   0  0  0  0  0  0  0  0  0  0  0  0
   39.3590   28.0360   38.0250 N   0  0  0  0  0  0  0  0  0  0  0  0
   38.7480   29.1380   37.5330 C   0  0  0  0  0  0  0  0  0  0  0  0
   37.8490   29.1000   36.5100 N   0  0  0  0  0  0  0  0  0  0  0  0
   36.8500   27.9170   35.1670 H   0  0  0  0  0  0  0  0  0  0  0  0
   37.9000   25.7750   35.9650 H   0  0  0  0  0  0  0  0  0  0  0  0
   39.5530   25.9090   37.8590 H   0  0  0  0  0  0  0  0  0  0  0  0
   36.7090   30.1200   39.5480 S   0  0  0  0  0  0  0  0  0  0  0  0
   37.8810   28.0250   40.6330 N   0  0  0  0  0  0  0  0  0  0  0  0
   36.9400   29.0690   41.0090 C   0  0  1  0  0  0  0  0  0  0  0  0
   37.5400   29.9820   42.0800 C   0  0  0  0  0  0  0  0  0  0  0  0
   38.2050   29.3010   43.0780 O   0  0  0  0  0  0  0  0  0  0  0  0
   38.0180   27.9380   43.0850 C   0  0  0  0  0  0  0  0  0  0  0  0
   38.4590   27.3650   41.7650 C   0  0  1  0  0  0  0  0  0  0  0  0
   38.6140   28.4470   39.9880 H   0  0  0  0  0  0  0  0  0  0  0  0
   36.0120   28.6100   41.3750 H   0  0  0  0  0  0  0  0  0  0  0  0
   36.7460   30.5190   42.5920 H   0  0  0  0  0  0  0  0  0  0  0  0
   38.2250   30.7200   41.6120 H   0  0  0  0  0  0  0  0  0  0  0  0
   38.6100   27.5060   43.8860 H   0  0  0  0  0  0  0  0  0  0  0  0
   36.9310   27.7450   43.1790 H   0  0  0  0  0  0  0  0  0  0  0  0
   39.5710   27.4280   41.6510 H   0  0  0  0  0  0  0  0  0  0  0  0
   38.1220   25.9100   41.7840 C   0  0  0  0  0  0  0  0  0  0  0  0
   37.0470   25.3550   41.1550 N   0  0  0  0  0  0  0  0  0  0  0  0
   37.0880   24.0150   41.4070 C   0  0  0  0  0  0  0  0  0  0  0  0
   36.3410   23.3480   41.0180 H   0  0  0  0  0  0  0  0  0  0  0  0
   38.1610   23.7450   42.1730 N   0  0  0  0  0  0  0  0  0  0  0  0
   38.4390   22.7930   42.5200 H   0  0  0  0  0  0  0  0  0  0  0  0
   38.7810   24.9160   42.3930 N   0  0  0  0  0  0  0  0  0  0  0  0
  1  2  2  0  0  0  0
  1  9  1  0  0  0  0
  2  3  1  0  0  0  0
  3 23  1  0  0  0  0
  3  4  2  0  0  0  0
  4  5  1  0  0  0  0
  5  6  1  0  0  0  0
  5 11  1  0  0  0  0
  6 12  1  0  0  0  0
  7  6  2  0  0  0  0
  8  4  1  0  0  0  0
  8  7  1  0  0  0  0
  9  8  2  0  0  0  0
 10  1  1  0  0  0  0
 13  9  1  0  0  0  0
 14 15  2  0  0  0  0
 14 19  1  0  0  0  0
 15 16  1  0  0  0  0
 16 22  1  0  0  0  0
 16 17  2  0  0  0  0
 18 17  1  0  0  0  0
 18  2  1  0  0  0  0
 19 18  2  0  0  0  0
 20 14  1  0  0  0  0
 21 15  1  0  0  0  0
 23 25  1  0  0  0  0
 24 25  1  0  0  0  0
 24 29  1  0  0  0  0
 25 31  1  1  0  0  0
 25 26  1  0  0  0  0
 26 32  1  0  0  0  0
 26 27  1  0  0  0  0
 27 28  1  0  0  0  0
 28 35  1  0  0  0  0
 28 34  1  0  0  0  0
 29 36  1  6  0  0  0
 29 37  1  0  0  0  0
 29 28  1  0  0  0  0
 30 24  1  0  0  0  0
 33 26  1  0  0  0  0
 37 43  2  0  0  0  0
 38 39  2  0  0  0  0
 38 37  1  0  0  0  0
 39 41  1  0  0  0  0
 40 39  1  0  0  0  0
 41 43  1  0  0  0  0
 41 42  1  0  0  0  0
M  END
>  <minimizedAffinity>
-5.58364344

$$$$

 OpenBabel03252509153D

 43 47  0  0  1  0  0  0  0  0999 V2000
   36.6620   25.3430   38.4270 C   0  0  0  0  0  0  0  0  0  0  0  0
   36.9610   26.1090   39.5500 C   0  0  0  0  0  0  0  0  0  0  0  0
   36.3770   27.3440   39.7920 C   0  0  0  0  0  0  0  0  0  0  0  0
   35.4440   27.8540   38.8720 C   0  0  0  0  0  0  0  0  0  0  0  0
   34.7030   28.9740   38.7770 N   0  0  0  0  0  0  0  0  0  0  0  0
   33.9660   28.9320   37.6540 C   0  0  0  0  0  0  0  0  0  0  0  0
   34.2640   27.7700   37.0580 N   0  0  0  0  0  0  0  0  0  0  0  0
   35.1720   27.0750   37.7760 C   0  0  0  0  0  0  0  0  0  0  0  0
   35.7350   25.8400   37.5050 C   0  0  0  0  0  0  0  0  0  0  0  0
   37.1520   24.3910   38.3010 H   0  0  0  0  0  0  0  0  0  0  0  0
   34.7100   29.7500   39.4800 H   0  0  0  0  0  0  0  0  0  0  0  0
   33.2620   29.6720   37.2780 H   0  0  0  0  0  0  0  0  0  0  0  0
   35.4900   25.2650   36.6320 H   0  0  0  0  0  0  0  0  0  0  0  0
   40.1310   25.4180   41.2410 C   0  0  0  0  0  0  0  0  0  0  0  0
   39.7520   24.6390   42.3320 C   0  0  0  0  0  0  0  0  0  0  0  0
   38.3890   24.3540   42.4760 C   0  0  0  0  0  0  0  0  0  0  0  0
   37.4900   24.8440   41.5550 N   0  0  0  0  0  0  0  0  0  0  0  0
   37.9290   25.5960   40.5190 C   0  0  0  0  0  0  0  0  0  0  0  0
   39.2410   25.9070   40.3240 N   0  0  0  0  0  0  0  0  0  0  0  0
   41.1570   25.7060   41.0220 H   0  0  0  0  0  0  0  0  0  0  0  0
   40.5060   24.2960   43.0010 H   0  0  0  0  0  0  0  0  0  0  0  0
   38.0670   23.7550   43.3070 H   0  0  0  0  0  0  0  0  0  0  0  0
   36.7680   28.3040   41.2230 S   0  0  0  0  0  0  0  0  0  0  0  0
   37.8790   30.4830   40.2470 N   0  0  0  0  0  0  0  0  0  0  0  0
   38.2590   29.3200   41.0340 C   0  0  1  0  0  0  0  0  0  0  0  0
   38.6570   29.7320   42.4530 C   0  0  0  0  0  0  0  0  0  0  0  0
   39.4590   30.8520   42.5000 O   0  0  0  0  0  0  0  0  0  0  0  0
   39.9630   31.2650   41.2880 C   0  0  0  0  0  0  0  0  0  0  0  0
   38.8260   31.5540   40.3450 C   0  0  1  0  0  0  0  0  0  0  0  0
   36.8980   30.7780   40.5310 H   0  0  0  0  0  0  0  0  0  0  0  0
   39.0900   28.7990   40.5410 H   0  0  0  0  0  0  0  0  0  0  0  0
   39.2520   28.9460   42.9110 H   0  0  0  0  0  0  0  0  0  0  0  0
   37.7490   29.8980   43.0710 H   0  0  0  0  0  0  0  0  0  0  0  0
   40.5480   32.1670   41.4400 H   0  0  0  0  0  0  0  0  0  0  0  0
   40.5410   30.4250   40.8560 H   0  0  0  0  0  0  0  0  0  0  0  0
   38.2600   32.4650   40.6640 H   0  0  0  0  0  0  0  0  0  0  0  0
   39.4280   31.8780   39.0180 C   0  0  0  0  0  0  0  0  0  0  0  0
   40.7130   32.2940   38.8290 N   0  0  0  0  0  0  0  0  0  0  0  0
   40.8760   32.4830   37.4880 C   0  0  0  0  0  0  0  0  0  0  0  0
   41.8120   32.8140   37.0770 H   0  0  0  0  0  0  0  0  0  0  0  0
   39.7220   32.1900   36.8600 N   0  0  0  0  0  0  0  0  0  0  0  0
   39.5600   32.2470   35.8230 H   0  0  0  0  0  0  0  0  0  0  0  0
   38.8490   31.8220   37.8110 N   0  0  0  0  0  0  0  0  0  0  0  0
  1  2  1  0  0  0  0
  2  3  2  0  0  0  0
  2 18  1  0  0  0  0
  3 23  1  0  0  0  0
  4  3  1  0  0  0  0
  5  4  1  0  0  0  0
  5 11  1  0  0  0  0
  6  5  1  0  0  0  0
  7  6  2  0  0  0  0
  7  8  1  0  0  0  0
  8  4  2  0  0  0  0
  9  8  1  0  0  0  0
  9  1  2  0  0  0  0
 10  1  1  0  0  0  0
 12  6  1  0  0  0  0
 13  9  1  0  0  0  0
 14 15  1  0  0  0  0
 15 16  2  0  0  0  0
 15 21  1  0  0  0  0
 16 22  1  0  0  0  0
 17 16  1  0  0  0  0
 18 17  2  0  0  0  0
 19 18  1  0  0  0  0
 19 14  2  0  0  0  0
 20 14  1  0  0  0  0
 24 29  1  0  0  0  0
 24 30  1  0  0  0  0
 24 25  1  0  0  0  0
 25 31  1  6  0  0  0
 25 23  1  0  0  0  0
 25 26  1  0  0  0  0
 26 27  1  0  0  0  0
 26 32  1  0  0  0  0
 26 33  1  0  0  0  0
 28 34  1  0  0  0  0
 28 27  1  0  0  0  0
 29 36  1  1  0  0  0
 29 28  1  0  0  0  0
 35 28  1  0  0  0  0
 37 29  1  0  0  0  0
 38 37  1  0  0  0  0
 39 38  2  0  0  0  0
 40 39  1  0  0  0  0
 41 39  1  0  0  0  0
 41 43  1  0  0  0  0
 42 41  1  0  0  0  0
 43 37  2  0  0  0  0
M  END
>  <minimizedAffinity>
-5.55819988

$$$$

 OpenBabel03252509153D

 43 47  0  0  1  0  0  0  0  0999 V2000
   35.0760   28.8930   39.1950 C   0  0  0  0  0  0  0  0  0  0  0  0
   36.4450   28.8350   39.4400 C   0  0  0  0  0  0  0  0  0  0  0  0
   37.3900   28.8640   38.4240 C   0  0  0  0  0  0  0  0  0  0  0  0
   36.9600   28.9550   37.0890 C   0  0  0  0  0  0  0  0  0  0  0  0
   37.5640   29.0040   35.8870 N   0  0  0  0  0  0  0  0  0  0  0  0
   36.6360   29.0890   34.9190 C   0  0  0  0  0  0  0  0  0  0  0  0
   35.4500   29.0910   35.5430 N   0  0  0  0  0  0  0  0  0  0  0  0
   35.6050   29.0090   36.8820 C   0  0  0  0  0  0  0  0  0  0  0  0
   34.6370   28.9830   37.8690 C   0  0  0  0  0  0  0  0  0  0  0  0
   34.3950   28.8660   40.0310 H   0  0  0  0  0  0  0  0  0  0  0  0
   38.6020   28.9800   35.7440 H   0  0  0  0  0  0  0  0  0  0  0  0
   36.7830   29.1470   33.8430 H   0  0  0  0  0  0  0  0  0  0  0  0
   33.5840   29.0280   37.6580 H   0  0  0  0  0  0  0  0  0  0  0  0
   38.0650   29.6780   42.6110 C   0  0  0  0  0  0  0  0  0  0  0  0
   37.7920   28.5740   43.4160 C   0  0  0  0  0  0  0  0  0  0  0  0
   37.0420   27.5360   42.8500 C   0  0  0  0  0  0  0  0  0  0  0  0
   36.6100   27.6390   41.5470 N   0  0  0  0  0  0  0  0  0  0  0  0
   36.9120   28.7410   40.8220 C   0  0  0  0  0  0  0  0  0  0  0  0
   37.6370   29.7840   41.3150 N   0  0  0  0  0  0  0  0  0  0  0  0
   38.6370   30.5450   42.9340 H   0  0  0  0  0  0  0  0  0  0  0  0
   38.1610   28.5670   44.4140 H   0  0  0  0  0  0  0  0  0  0  0  0
   36.8160   26.6710   43.4470 H   0  0  0  0  0  0  0  0  0  0  0  0
   39.1250   28.7910   38.7540 S   0  0  0  0  0  0  0  0  0  0  0  0
   39.8550   27.1460   40.6770 N   0  0  0  0  0  0  0  0  0  0  0  0
   39.7060   27.1390   39.2300 C   0  0  1  0  0  0  0  0  0  0  0  0
   38.5980   26.1750   38.8020 C   0  0  0  0  0  0  0  0  0  0  0  0
   38.6260   24.9690   39.4700 O   0  0  0  0  0  0  0  0  0  0  0  0
   39.7600   24.7350   40.2130 C   0  0  0  0  0  0  0  0  0  0  0  0
   39.9230   25.8280   41.2350 C   0  0  1  0  0  0  0  0  0  0  0  0
   39.0680   27.7260   41.0950 H   0  0  0  0  0  0  0  0  0  0  0  0
   40.6590   26.8550   38.7650 H   0  0  0  0  0  0  0  0  0  0  0  0
   38.7200   25.9150   37.7550 H   0  0  0  0  0  0  0  0  0  0  0  0
   37.6040   26.6530   38.9380 H   0  0  0  0  0  0  0  0  0  0  0  0
   39.6580   23.7780   40.7170 H   0  0  0  0  0  0  0  0  0  0  0  0
   40.6300   24.7900   39.5320 H   0  0  0  0  0  0  0  0  0  0  0  0
   39.1310   25.7640   42.0240 H   0  0  0  0  0  0  0  0  0  0  0  0
   41.2250   25.5910   41.9260 C   0  0  0  0  0  0  0  0  0  0  0  0
   42.4250   26.0890   41.5130 N   0  0  0  0  0  0  0  0  0  0  0  0
   43.3630   25.6530   42.4020 C   0  0  0  0  0  0  0  0  0  0  0  0
   44.4000   25.9120   42.2960 H   0  0  0  0  0  0  0  0  0  0  0  0
   42.7600   24.9030   43.3440 N   0  0  0  0  0  0  0  0  0  0  0  0
   43.2420   24.4390   44.1540 H   0  0  0  0  0  0  0  0  0  0  0  0
   41.4540   24.8770   43.0370 N   0  0  0  0  0  0  0  0  0  0  0  0
  1  2  1  0  0  0  0
  1 10  1  0  0  0  0
  2 18  1  0  0  0  0
  3 23  1  0  0  0  0
  3  2  2  0  0  0  0
  4  3  1  0  0  0  0
  5  4  1  0  0  0  0
  6  7  2  0  0  0  0
  6  5  1  0  0  0  0
  7  8  1  0  0  0  0
  8  4  2  0  0  0  0
  8  9  1  0  0  0  0
  9  1  2  0  0  0  0
 11  5  1  0  0  0  0
 12  6  1  0  0  0  0
 13  9  1  0  0  0  0
 14 20  1  0  0  0  0
 14 15  1  0  0  0  0
 15 21  1  0  0  0  0
 16 15  2  0  0  0  0
 16 22  1  0  0  0  0
 17 16  1  0  0  0  0
 18 19  1  0  0  0  0
 18 17  2  0  0  0  0
 19 14  2  0  0  0  0
 23 25  1  0  0  0  0
 24 30  1  0  0  0  0
 24 29  1  0  0  0  0
 25 31  1  6  0  0  0
 25 24  1  0  0  0  0
 26 33  1  0  0  0  0
 26 25  1  0  0  0  0
 26 27  1  0  0  0  0
 27 28  1  0  0  0  0
 28 34  1  0  0  0  0
 28 29  1  0  0  0  0
 29 37  1  0  0  0  0
 29 36  1  1  0  0  0
 32 26  1  0  0  0  0
 35 28  1  0  0  0  0
 37 43  2  0  0  0  0
 38 37  1  0  0  0  0
 38 39  2  0  0  0  0
 39 41  1  0  0  0  0
 40 39  1  0  0  0  0
 41 42  1  0  0  0  0
 43 41  1  0  0  0  0
M  END
>  <minimizedAffinity>
-5.5136652

$$$$

 OpenBabel03252509153D

 43 47  0  0  1  0  0  0  0  0999 V2000
   37.9930   25.5790   40.3350 C   0  0  0  0  0  0  0  0  0  0  0  0
   37.0890   26.4330   39.7100 C   0  0  0  0  0  0  0  0  0  0  0  0
   36.6040   27.5840   40.3160 C   0  0  0  0  0  0  0  0  0  0  0  0
   37.0360   27.9120   41.6120 C   0  0  0  0  0  0  0  0  0  0  0  0
   36.7900   28.9090   42.4830 N   0  0  0  0  0  0  0  0  0  0  0  0
   37.4980   28.7090   43.6080 C   0  0  0  0  0  0  0  0  0  0  0  0
   38.1830   27.5730   43.4170 N   0  0  0  0  0  0  0  0  0  0  0  0
   37.9270   27.0490   42.2000 C   0  0  0  0  0  0  0  0  0  0  0  0
   38.4300   25.8960   41.6260 C   0  0  0  0  0  0  0  0  0  0  0  0
   38.3300   24.7010   39.8070 H   0  0  0  0  0  0  0  0  0  0  0  0
   36.1440   29.7120   42.2970 H   0  0  0  0  0  0  0  0  0  0  0  0
   37.5310   29.3220   44.5050 H   0  0  0  0  0  0  0  0  0  0  0  0
   39.1280   25.2490   42.1260 H   0  0  0  0  0  0  0  0  0  0  0  0
   36.9690   26.1780   36.0620 C   0  0  0  0  0  0  0  0  0  0  0  0
   35.7710   25.5070   35.8250 C   0  0  0  0  0  0  0  0  0  0  0  0
   35.0060   25.1450   36.9400 C   0  0  0  0  0  0  0  0  0  0  0  0
   35.4530   25.4560   38.2040 N   0  0  0  0  0  0  0  0  0  0  0  0
   36.6280   26.1100   38.3610 C   0  0  0  0  0  0  0  0  0  0  0  0
   37.4170   26.4910   37.3170 N   0  0  0  0  0  0  0  0  0  0  0  0
   37.6480   26.5120   35.2800 H   0  0  0  0  0  0  0  0  0  0  0  0
   35.4920   25.3020   34.8190 H   0  0  0  0  0  0  0  0  0  0  0  0
   34.0770   24.6260   36.7880 H   0  0  0  0  0  0  0  0  0  0  0  0
   35.4560   28.6580   39.5070 S   0  0  0  0  0  0  0  0  0  0  0  0
   37.5520   30.2420   39.3270 N   0  0  0  0  0  0  0  0  0  0  0  0
   36.2330   30.1020   38.7310 C   0  0  1  0  0  0  0  0  0  0  0  0
   36.3410   29.7600   37.2440 C   0  0  0  0  0  0  0  0  0  0  0  0
   37.2930   30.4980   36.5740 O   0  0  0  0  0  0  0  0  0  0  0  0
   37.8070   31.5660   37.2720 C   0  0  0  0  0  0  0  0  0  0  0  0
   38.4250   31.0760   38.5540 C   0  0  1  0  0  0  0  0  0  0  0  0
   37.9550   29.2710   39.4890 H   0  0  0  0  0  0  0  0  0  0  0  0
   35.6690   31.0340   38.8680 H   0  0  0  0  0  0  0  0  0  0  0  0
   35.4060   29.9940   36.7430 H   0  0  0  0  0  0  0  0  0  0  0  0
   36.5520   28.6760   37.1170 H   0  0  0  0  0  0  0  0  0  0  0  0
   38.5660   32.0510   36.6650 H   0  0  0  0  0  0  0  0  0  0  0  0
   36.9640   32.2300   37.5470 H   0  0  0  0  0  0  0  0  0  0  0  0
   39.3540   30.4840   38.3530 H   0  0  0  0  0  0  0  0  0  0  0  0
   38.8540   32.2820   39.3230 C   0  0  0  0  0  0  0  0  0  0  0  0
   38.1340   32.8600   40.3260 N   0  0  0  0  0  0  0  0  0  0  0  0
   38.8580   33.9260   40.7720 C   0  0  0  0  0  0  0  0  0  0  0  0
   38.5020   34.5530   41.5680 H   0  0  0  0  0  0  0  0  0  0  0  0
   40.0000   34.0080   40.0640 N   0  0  0  0  0  0  0  0  0  0  0  0
   40.7480   34.7350   40.1940 H   0  0  0  0  0  0  0  0  0  0  0  0
   39.9800   32.9950   39.1830 N   0  0  0  0  0  0  0  0  0  0  0  0
  1  9  1  0  0  0  0
  2  3  1  0  0  0  0
  2  1  2  0  0  0  0
  3  4  2  0  0  0  0
  4  8  1  0  0  0  0
  4  5  1  0  0  0  0
  5  6  1  0  0  0  0
  6 12  1  0  0  0  0
  7  6  2  0  0  0  0
  8  7  1  0  0  0  0
  9 13  1  0  0  0  0
  9  8  2  0  0  0  0
 10  1  1  0  0  0  0
 11  5  1  0  0  0  0
 14 19  1  0  0  0  0
 15 14  2  0  0  0  0
 15 16  1  0  0  0  0
 16 17  2  0  0  0  0
 17 18  1  0  0  0  0
 18  2  1  0  0  0  0
 19 18  2  0  0  0  0
 20 14  1  0  0  0  0
 21 15  1  0  0  0  0
 22 16  1  0  0  0  0
 23  3  1  0  0  0  0
 24 30  1  0  0  0  0
 25 31  1  1  0  0  0
 25 24  1  0  0  0  0
 25 23  1  0  0  0  0
 26 25  1  0  0  0  0
 27 26  1  0  0  0  0
 27 28  1  0  0  0  0
 28 35  1  0  0  0  0
 28 29  1  0  0  0  0
 29 36  1  6  0  0  0
 29 37  1  0  0  0  0
 29 24  1  0  0  0  0
 32 26  1  0  0  0  0
 33 26  1  0  0  0  0
 34 28  1  0  0  0  0
 37 38  1  0  0  0  0
 38 39  2  0  0  0  0
 39 40  1  0  0  0  0
 41 42  1  0  0  0  0
 41 39  1  0  0  0  0
 43 37  2  0  0  0  0
 43 41  1  0  0  0  0
M  END
>  <minimizedAffinity>
-5.4556036

$$$$

 OpenBabel03252509153D

 43 47  0  0  1  0  0  0  0  0999 V2000
   36.9620   26.8000   39.8390 C   0  0  0  0  0  0  0  0  0  0  0  0
   37.6120   27.8060   40.5480 C   0  0  0  0  0  0  0  0  0  0  0  0
   38.4730   27.5420   41.6030 C   0  0  0  0  0  0  0  0  0  0  0  0
   38.7080   26.2090   41.9810 C   0  0  0  0  0  0  0  0  0  0  0  0
   39.4510   25.5930   42.9200 N   0  0  0  0  0  0  0  0  0  0  0  0
   39.2900   24.2620   42.8210 C   0  0  0  0  0  0  0  0  0  0  0  0
   38.4350   24.0670   41.8080 N   0  0  0  0  0  0  0  0  0  0  0  0
   38.0520   25.2410   41.2630 C   0  0  0  0  0  0  0  0  0  0  0  0
   37.1880   25.4690   40.2070 C   0  0  0  0  0  0  0  0  0  0  0  0
   36.3040   27.0740   39.0300 H   0  0  0  0  0  0  0  0  0  0  0  0
   40.0590   26.0900   43.6140 H   0  0  0  0  0  0  0  0  0  0  0  0
   39.7450   23.4790   43.4230 H   0  0  0  0  0  0  0  0  0  0  0  0
   36.6960   24.6770   39.6720 H   0  0  0  0  0  0  0  0  0  0  0  0
   36.4120   31.2610   40.6330 C   0  0  0  0  0  0  0  0  0  0  0  0
   36.9430   31.8160   39.4700 C   0  0  0  0  0  0  0  0  0  0  0  0
   37.7190   30.9810   38.6570 C   0  0  0  0  0  0  0  0  0  0  0  0
   37.9270   29.6720   39.0250 N   0  0  0  0  0  0  0  0  0  0  0  0
   37.3810   29.1990   40.1700 C   0  0  0  0  0  0  0  0  0  0  0  0
   36.6160   29.9600   41.0030 N   0  0  0  0  0  0  0  0  0  0  0  0
   35.7940   31.8060   41.3440 H   0  0  0  0  0  0  0  0  0  0  0  0
   36.7380   32.8370   39.2520 H   0  0  0  0  0  0  0  0  0  0  0  0
   38.1410   31.3810   37.7530 H   0  0  0  0  0  0  0  0  0  0  0  0
   39.2910   28.8320   42.4930 S   0  0  0  0  0  0  0  0  0  0  0  0
   40.2500   30.8400   41.0830 N   0  0  0  0  0  0  0  0  0  0  0  0
   40.6960   29.5550   41.6000 C   0  0  1  0  0  0  0  0  0  0  0  0
   41.7950   29.7420   42.6480 C   0  0  0  0  0  0  0  0  0  0  0  0
   42.7440   30.6770   42.2930 O   0  0  0  0  0  0  0  0  0  0  0  0
   42.6910   31.1010   40.9850 C   0  0  0  0  0  0  0  0  0  0  0  0
   41.3370   31.6940   40.7050 C   0  0  1  0  0  0  0  0  0  0  0  0
   39.6090   31.2900   41.8040 H   0  0  0  0  0  0  0  0  0  0  0  0
   41.0600   28.9340   40.7720 H   0  0  0  0  0  0  0  0  0  0  0  0
   42.3490   28.8150   42.7690 H   0  0  0  0  0  0  0  0  0  0  0  0
   41.3460   30.0190   43.6260 H   0  0  0  0  0  0  0  0  0  0  0  0
   43.4580   31.8540   40.8290 H   0  0  0  0  0  0  0  0  0  0  0  0
   42.8010   30.2110   40.3350 H   0  0  0  0  0  0  0  0  0  0  0  0
   41.2000   32.6620   41.2500 H   0  0  0  0  0  0  0  0  0  0  0  0
   41.2950   32.0220   39.2490 C   0  0  0  0  0  0  0  0  0  0  0  0
   41.8930   31.2860   38.2690 N   0  0  0  0  0  0  0  0  0  0  0  0
   41.6250   31.9080   37.0850 C   0  0  0  0  0  0  0  0  0  0  0  0
   41.9890   31.5210   36.1520 H   0  0  0  0  0  0  0  0  0  0  0  0
   40.8790   33.0040   37.3240 N   0  0  0  0  0  0  0  0  0  0  0  0
   40.5270   33.6730   36.5950 H   0  0  0  0  0  0  0  0  0  0  0  0
   40.6870   33.0570   38.6520 N   0  0  0  0  0  0  0  0  0  0  0  0
  1  9  2  0  0  0  0
  1  2  1  0  0  0  0
  2  3  2  0  0  0  0
  3  4  1  0  0  0  0
  3 23  1  0  0  0  0
  4  5  1  0  0  0  0
  5 11  1  0  0  0  0
  6  5  1  0  0  0  0
  6 12  1  0  0  0  0
  7  6  2  0  0  0  0
  8  7  1  0  0  0  0
  8  4  2  0  0  0  0
  9  8  1  0  0  0  0
 10  1  1  0  0  0  0
 13  9  1  0  0  0  0
 14 19  1  0  0  0  0
 14 20  1  0  0  0  0
 15 14  2  0  0  0  0
 16 17  2  0  0  0  0
 16 15  1  0  0  0  0
 17 18  1  0  0  0  0
 18  2  1  0  0  0  0
 18 19  2  0  0  0  0
 21 15  1  0  0  0  0
 22 16  1  0  0  0  0
 24 25  1  0  0  0  0
 24 30  1  0  0  0  0
 25 31  1  6  0  0  0
 25 23  1  0  0  0  0
 25 26  1  0  0  0  0
 26 32  1  0  0  0  0
 26 33  1  0  0  0  0
 27 26  1  0  0  0  0
 28 27  1  0  0  0  0
 29 28  1  0  0  0  0
 29 24  1  0  0  0  0
 29 36  1  1  0  0  0
 34 28  1  0  0  0  0
 35 28  1  0  0  0  0
 37 29  1  0  0  0  0
 38 37  1  0  0  0  0
 39 41  1  0  0  0  0
 39 38  2  0  0  0  0
 40 39  1  0  0  0  0
 41 43  1  0  0  0  0
 42 41  1  0  0  0  0
 43 37  2  0  0  0  0
M  END
>  <minimizedAffinity>
-5.39605379

$$$$
