
 OpenBabel03252507363D

 30 33  0  0  0  0  0  0  0  0999 V2000
   48.3110   33.7340   42.4390 C   0  0  0  0  0  0  0  0  0  0  0  0
   47.9490   33.7070   41.0690 C   0  0  0  0  0  0  0  0  0  0  0  0
   48.7630   32.9690   40.2110 C   0  0  0  0  0  0  0  0  0  0  0  0
   49.8260   32.3330   40.7160 N   0  0  0  0  0  0  0  0  0  0  0  0
   50.1520   32.3720   42.0290 C   0  0  0  0  0  0  0  0  0  0  0  0
   49.3900   33.0710   42.8710 N   0  0  0  0  0  0  0  0  0  0  0  0
   47.1000   34.2140   40.6630 H   0  0  0  0  0  0  0  0  0  0  0  0
   51.0120   31.8480   42.3920 H   0  0  0  0  0  0  0  0  0  0  0  0
   48.3410   34.0210   38.0700 C   0  0  0  0  0  0  0  0  0  0  0  0
   48.5190   32.8480   38.7760 C   0  0  0  0  0  0  0  0  0  0  0  0
   48.4570   31.6520   38.0960 C   0  0  0  0  0  0  0  0  0  0  0  0
   48.2240   31.5880   36.7420 C   0  0  0  0  0  0  0  0  0  0  0  0
   48.1190   30.5530   35.8710 N   0  0  0  0  0  0  0  0  0  0  0  0
   47.8780   31.0630   34.6280 C   0  0  0  0  0  0  0  0  0  0  0  0
   47.8380   32.4030   34.7490 N   0  0  0  0  0  0  0  0  0  0  0  0
   48.0460   32.7560   36.0320 C   0  0  0  0  0  0  0  0  0  0  0  0
   48.1050   33.9590   36.6930 C   0  0  0  0  0  0  0  0  0  0  0  0
   48.3680   35.0200   38.4950 H   0  0  0  0  0  0  0  0  0  0  0  0
   48.6020   30.7780   38.6960 H   0  0  0  0  0  0  0  0  0  0  0  0
   48.2240   29.5630   36.2050 H   0  0  0  0  0  0  0  0  0  0  0  0
   47.7740   30.3380   33.8320 H   0  0  0  0  0  0  0  0  0  0  0  0
   47.9590   34.8510   36.1010 H   0  0  0  0  0  0  0  0  0  0  0  0
   47.4900   34.4770   43.2930 O   0  0  0  0  0  0  0  0  0  0  0  0
   46.1280   34.5100   43.1800 C   0  0  0  0  0  0  0  0  0  0  0  0
   45.5850   35.7240   42.8860 N   0  0  0  0  0  0  0  0  0  0  0  0
   44.2390   35.5720   42.8130 C   0  0  0  0  0  0  0  0  0  0  0  0
   43.5300   36.3840   42.5900 H   0  0  0  0  0  0  0  0  0  0  0  0
   43.9630   34.2800   43.0610 N   0  0  0  0  0  0  0  0  0  0  0  0
   43.0090   33.8580   43.0740 H   0  0  0  0  0  0  0  0  0  0  0  0
   45.1050   33.6470   43.2800 N   0  0  0  0  0  0  0  0  0  0  0  0
  1  6  1  0  0  0  0
  1 23  1  0  0  0  0
  2  1  2  0  0  0  0
  3  4  2  0  0  0  0
  3  2  1  0  0  0  0
  4  5  1  0  0  0  0
  5  8  1  0  0  0  0
  5  6  2  0  0  0  0
  7  2  1  0  0  0  0
  9 18  1  0  0  0  0
  9 10  1  0  0  0  0
 10  3  1  0  0  0  0
 11 19  1  0  0  0  0
 11 10  2  0  0  0  0
 12 11  1  0  0  0  0
 13 20  1  0  0  0  0
 13 12  1  0  0  0  0
 14 15  2  0  0  0  0
 14 13  1  0  0  0  0
 15 16  1  0  0  0  0
 16 17  1  0  0  0  0
 16 12  2  0  0  0  0
 17  9  2  0  0  0  0
 21 14  1  0  0  0  0
 22 17  1  0  0  0  0
 24 30  2  0  0  0  0
 24 23  1  0  0  0  0
 25 24  1  0  0  0  0
 26 25  2  0  0  0  0
 26 28  1  0  0  0  0
 27 26  1  0  0  0  0
 28 29  1  0  0  0  0
 28 30  1  0  0  0  0
M  END
>  <minimizedAffinity>
-4.42472219

>  <minimizedRMSD>
4.61575651

$$$$
