
 OpenBabel03242514233D

 32 35  0  0  0  0  0  0  0  0999 V2000
   44.7840   33.1550   41.0920 Cl  0  0  0  0  0  0  0  0  0  0  0  0
   46.3230   33.9640   40.8810 C   0  0  0  0  0  0  0  0  0  0  0  0
   46.8360   34.7140   41.9050 C   0  0  0  0  0  0  0  0  0  0  0  0
   48.0620   35.3690   41.7630 C   0  0  0  0  0  0  0  0  0  0  0  0
   48.6980   35.2110   40.5520 C   0  0  0  0  0  0  0  0  0  0  0  0
   48.1670   34.4500   39.5290 C   0  0  0  0  0  0  0  0  0  0  0  0
   46.9720   33.8230   39.6940 C   0  0  0  0  0  0  0  0  0  0  0  0
   48.4810   35.9660   42.5640 H   0  0  0  0  0  0  0  0  0  0  0  0
   49.6560   35.7260   40.4520 H   0  0  0  0  0  0  0  0  0  0  0  0
   48.7040   34.3540   38.5920 H   0  0  0  0  0  0  0  0  0  0  0  0
   46.3870   33.0140   38.6290 C   0  0  0  0  0  0  0  0  0  0  0  0
   45.4100   33.3650   37.7910 N   0  0  0  0  0  0  0  0  0  0  0  0
   45.1570   32.3410   36.9600 C   0  0  0  0  0  0  0  0  0  0  0  0
   45.9860   31.3320   37.2800 N   0  0  0  0  0  0  0  0  0  0  0  0
   46.7240   31.7570   38.2930 N   0  0  0  0  0  0  0  0  0  0  0  0
   44.4070   32.3300   36.1610 H   0  0  0  0  0  0  0  0  0  0  0  0
   46.0380   30.0640   36.6330 C   0  0  0  0  0  0  0  0  0  0  0  0
   45.3390   28.9730   36.9940 N   0  0  0  0  0  0  0  0  0  0  0  0
   45.6330   27.9450   36.1580 C   0  0  0  0  0  0  0  0  0  0  0  0
   45.3350   26.9110   36.0520 H   0  0  0  0  0  0  0  0  0  0  0  0
   46.5300   28.4220   35.2700 N   0  0  0  0  0  0  0  0  0  0  0  0
   47.0760   28.0900   34.4420 H   0  0  0  0  0  0  0  0  0  0  0  0
   46.7720   29.7100   35.5630 N   0  0  0  0  0  0  0  0  0  0  0  0
   45.6100   34.0300   45.3080 C   0  0  0  0  0  0  0  0  0  0  0  0
   44.7210   35.0960   45.5280 C   0  0  0  0  0  0  0  0  0  0  0  0
   44.5530   36.0340   44.5100 C   0  0  0  0  0  0  0  0  0  0  0  0
   45.2540   35.8690   43.3670 N   0  0  0  0  0  0  0  0  0  0  0  0
   46.1030   34.8400   43.1680 C   0  0  0  0  0  0  0  0  0  0  0  0
   46.2790   33.9220   44.1410 N   0  0  0  0  0  0  0  0  0  0  0  0
   45.7280   33.3100   46.1080 H   0  0  0  0  0  0  0  0  0  0  0  0
   44.1590   35.2370   46.4330 H   0  0  0  0  0  0  0  0  0  0  0  0
   43.9160   36.8810   44.5510 H   0  0  0  0  0  0  0  0  0  0  0  0
  2  1  1  0  0  0  0
  2  3  1  0  0  0  0
  3 28  1  0  0  0  0
  4  3  2  0  0  0  0
  4  8  1  0  0  0  0
  5  4  1  0  0  0  0
  6  7  1  0  0  0  0
  6  5  2  0  0  0  0
  7  2  2  0  0  0  0
  9  5  1  0  0  0  0
 10  6  1  0  0  0  0
 11  7  1  0  0  0  0
 12 11  1  0  0  0  0
 13 14  1  0  0  0  0
 13 12  2  0  0  0  0
 14 15  1  0  0  0  0
 15 11  2  0  0  0  0
 16 13  1  0  0  0  0
 17 18  1  0  0  0  0
 17 14  1  0  0  0  0
 19 18  2  0  0  0  0
 20 19  1  0  0  0  0
 21 23  1  0  0  0  0
 21 19  1  0  0  0  0
 22 21  1  0  0  0  0
 23 17  2  0  0  0  0
 24 25  1  0  0  0  0
 24 30  1  0  0  0  0
 25 31  1  0  0  0  0
 26 32  1  0  0  0  0
 26 25  2  0  0  0  0
 27 26  1  0  0  0  0
 28 27  2  0  0  0  0
 28 29  1  0  0  0  0
 29 24  2  0  0  0  0
M  END
>  <minimizedAffinity>
-5.66594458

>  <minimizedRMSD>
0.262775987

$$$$
