
 OpenBabel03252500353D

 44 47  0  0  1  0  0  0  0  0999 V2000
   46.5760   33.0560   44.2990 C   0  0  0  0  0  0  0  0  0  0  0  0
   46.3590   32.6830   43.2770 H   0  0  0  0  0  0  0  0  0  0  0  0
   47.6800   33.0960   44.3950 H   0  0  0  0  0  0  0  0  0  0  0  0
   46.0410   32.2300   45.3200 N   0  0  0  0  0  0  0  0  0  0  0  0
   45.9330   32.7560   46.6100 C   0  0  0  0  0  0  0  0  0  0  0  0
   47.2000   32.4780   47.4460 C   0  0  0  0  0  0  0  0  0  0  0  0
   47.2420   30.9890   47.6690 C   0  0  0  0  0  0  0  0  0  0  0  0
   47.3240   30.3480   46.3010 C   0  0  0  0  0  0  0  0  0  0  0  0
   46.3180   30.8560   45.3090 C   0  0  2  0  0  0  0  0  0  0  0  0
   45.5370   33.7610   46.7560 H   0  0  0  0  0  0  0  0  0  0  0  0
   45.1640   32.1070   47.1330 H   0  0  0  0  0  0  0  0  0  0  0  0
   48.0470   32.7120   46.7600 H   0  0  0  0  0  0  0  0  0  0  0  0
   47.1900   33.0620   48.3730 H   0  0  0  0  0  0  0  0  0  0  0  0
   48.2220   30.7540   48.1590 H   0  0  0  0  0  0  0  0  0  0  0  0
   46.4080   30.6080   48.2770 H   0  0  0  0  0  0  0  0  0  0  0  0
   48.3400   30.4130   45.8950 H   0  0  0  0  0  0  0  0  0  0  0  0
   47.1330   29.2640   46.4680 H   0  0  0  0  0  0  0  0  0  0  0  0
   45.3600   30.3030   45.5090 H   0  0  0  0  0  0  0  0  0  0  0  0
   46.7760   30.3800   43.9380 C   0  0  0  0  0  0  0  0  0  0  0  0
   46.9100   29.2860   43.9140 H   0  0  0  0  0  0  0  0  0  0  0  0
   47.7600   30.9060   43.7790 H   0  0  0  0  0  0  0  0  0  0  0  0
   46.0600   30.7320   43.1550 H   0  0  0  0  0  0  0  0  0  0  0  0
   45.8450   35.3520   43.2650 C   0  0  1  0  0  0  0  0  0  0  0  0
   44.7320   34.7940   43.8970 C   0  0  0  0  0  0  0  0  0  0  0  0
   46.0240   34.4180   44.4970 C   0  0  1  0  0  0  0  0  0  0  0  0
   46.1380   36.4250   43.4450 H   0  0  0  0  0  0  0  0  0  0  0  0
   44.0340   35.4690   44.4750 H   0  0  0  0  0  0  0  0  0  0  0  0
   44.1330   33.9500   43.4450 H   0  0  0  0  0  0  0  0  0  0  0  0
   46.4890   34.9710   45.3280 H   0  0  0  0  0  0  0  0  0  0  0  0
   45.6390   34.1800   41.0670 C   0  0  0  0  0  0  0  0  0  0  0  0
   46.4730   34.8900   41.9880 C   0  0  0  0  0  0  0  0  0  0  0  0
   47.7770   35.1160   41.6830 C   0  0  0  0  0  0  0  0  0  0  0  0
   48.2410   34.6450   40.4890 N   0  0  0  0  0  0  0  0  0  0  0  0
   47.4390   33.9720   39.6260 C   0  0  0  0  0  0  0  0  0  0  0  0
   46.1120   33.7170   39.8870 N   0  0  0  0  0  0  0  0  0  0  0  0
   44.5950   34.0120   41.3400 H   0  0  0  0  0  0  0  0  0  0  0  0
   48.4200   35.6510   42.3680 H   0  0  0  0  0  0  0  0  0  0  0  0
   48.1180   33.5500   38.4040 C   0  0  0  0  0  0  0  0  0  0  0  0
   48.8920   32.4900   38.1020 N   0  0  0  0  0  0  0  0  0  0  0  0
   49.2760   32.5770   36.7950 C   0  0  0  0  0  0  0  0  0  0  0  0
   49.9100   31.8300   36.3170 H   0  0  0  0  0  0  0  0  0  0  0  0
   48.7120   33.7190   36.3110 N   0  0  0  0  0  0  0  0  0  0  0  0
   48.8440   34.0340   35.3210 H   0  0  0  0  0  0  0  0  0  0  0  0
   48.0140   34.3080   37.2730 N   0  0  0  0  0  0  0  0  0  0  0  0
  1  3  1  0  0  0  0
  1 25  1  0  0  0  0
  1  4  1  0  0  0  0
  2  1  1  0  0  0  0
  4  5  1  0  0  0  0
  5 10  1  0  0  0  0
  5 11  1  0  0  0  0
  5  6  1  0  0  0  0
  6  7  1  0  0  0  0
  6 13  1  0  0  0  0
  7 14  1  0  0  0  0
  7 15  1  0  0  0  0
  8 17  1  0  0  0  0
  8  7  1  0  0  0  0
  9  4  1  0  0  0  0
  9 18  1  1  0  0  0
  9  8  1  0  0  0  0
 12  6  1  0  0  0  0
 16  8  1  0  0  0  0
 19  9  1  0  0  0  0
 20 19  1  0  0  0  0
 21 19  1  0  0  0  0
 22 19  1  0  0  0  0
 23 26  1  1  0  0  0
 23 24  1  0  0  0  0
 23 25  1  0  0  0  0
 24 27  1  0  0  0  0
 24 25  1  0  0  0  0
 25 29  1  1  0  0  0
 28 24  1  0  0  0  0
 30 36  1  0  0  0  0
 30 31  1  0  0  0  0
 31 23  1  0  0  0  0
 32 31  2  0  0  0  0
 32 37  1  0  0  0  0
 33 32  1  0  0  0  0
 34 35  1  0  0  0  0
 34 33  2  0  0  0  0
 35 30  2  0  0  0  0
 38 34  1  0  0  0  0
 39 38  1  0  0  0  0
 40 39  2  0  0  0  0
 41 40  1  0  0  0  0
 42 40  1  0  0  0  0
 42 44  1  0  0  0  0
 43 42  1  0  0  0  0
 44 38  2  0  0  0  0
M  END
>  <minimizedAffinity>
-5.0641284

>  <minimizedRMSD>
2.76097226

$$$$
