
 OpenBabel03252509123D

 30 33  0  0  0  0  0  0  0  0999 V2000
   47.7260   30.8520   44.7190 C   0  0  0  0  0  0  0  0  0  0  0  0
   47.4530   32.0030   43.9830 C   0  0  0  0  0  0  0  0  0  0  0  0
   46.6710   33.0210   44.4540 C   0  0  0  0  0  0  0  0  0  0  0  0
   46.1110   32.9130   45.7380 C   0  0  0  0  0  0  0  0  0  0  0  0
   45.3120   33.7030   46.5070 N   0  0  0  0  0  0  0  0  0  0  0  0
   45.0880   33.0800   47.6810 C   0  0  0  0  0  0  0  0  0  0  0  0
   45.7580   31.9040   47.6180 N   0  0  0  0  0  0  0  0  0  0  0  0
   46.3880   31.7790   46.4440 C   0  0  0  0  0  0  0  0  0  0  0  0
   47.1720   30.7390   45.9970 C   0  0  0  0  0  0  0  0  0  0  0  0
   48.3410   30.0380   44.3670 H   0  0  0  0  0  0  0  0  0  0  0  0
   44.9670   34.6340   46.1670 H   0  0  0  0  0  0  0  0  0  0  0  0
   44.4670   33.5760   48.4130 H   0  0  0  0  0  0  0  0  0  0  0  0
   47.3630   29.8670   46.5870 H   0  0  0  0  0  0  0  0  0  0  0  0
   47.8550   31.8430   40.3320 C   0  0  0  0  0  0  0  0  0  0  0  0
   49.1270   32.3760   40.1390 C   0  0  0  0  0  0  0  0  0  0  0  0
   49.8390   32.7880   41.2650 C   0  0  0  0  0  0  0  0  0  0  0  0
   49.2680   32.6550   42.5030 N   0  0  0  0  0  0  0  0  0  0  0  0
   48.0320   32.1320   42.6480 C   0  0  0  0  0  0  0  0  0  0  0  0
   47.3270   31.7270   41.5700 N   0  0  0  0  0  0  0  0  0  0  0  0
   47.2710   31.5110   39.4830 H   0  0  0  0  0  0  0  0  0  0  0  0
   49.5570   32.4720   39.1650 H   0  0  0  0  0  0  0  0  0  0  0  0
   50.8250   33.2080   41.1780 H   0  0  0  0  0  0  0  0  0  0  0  0
   46.3310   34.4890   43.5110 S   0  0  0  0  0  0  0  0  0  0  0  0
   44.7440   34.4450   42.7070 C   0  0  0  0  0  0  0  0  0  0  0  0
   44.2690   33.4110   41.9520 N   0  0  0  0  0  0  0  0  0  0  0  0
   43.0310   33.7540   41.5210 C   0  0  0  0  0  0  0  0  0  0  0  0
   42.4690   33.0720   40.9010 H   0  0  0  0  0  0  0  0  0  0  0  0
   42.7250   34.9900   41.9950 N   0  0  0  0  0  0  0  0  0  0  0  0
   41.8240   35.4840   41.8030 H   0  0  0  0  0  0  0  0  0  0  0  0
   43.7610   35.3680   42.6930 N   0  0  0  0  0  0  0  0  0  0  0  0
  1  9  1  0  0  0  0
  2  3  1  0  0  0  0
  2  1  2  0  0  0  0
  3  4  2  0  0  0  0
  4  8  1  0  0  0  0
  4  5  1  0  0  0  0
  5  6  1  0  0  0  0
  6 12  1  0  0  0  0
  7  6  2  0  0  0  0
  8  7  1  0  0  0  0
  9  8  2  0  0  0  0
  9 13  1  0  0  0  0
 10  1  1  0  0  0  0
 11  5  1  0  0  0  0
 14 19  1  0  0  0  0
 15 14  2  0  0  0  0
 15 16  1  0  0  0  0
 16 17  2  0  0  0  0
 17 18  1  0  0  0  0
 18  2  1  0  0  0  0
 19 18  2  0  0  0  0
 20 14  1  0  0  0  0
 21 15  1  0  0  0  0
 22 16  1  0  0  0  0
 23  3  1  0  0  0  0
 24 23  1  0  0  0  0
 25 24  1  0  0  0  0
 26 25  2  0  0  0  0
 26 28  1  0  0  0  0
 27 26  1  0  0  0  0
 28 30  1  0  0  0  0
 29 28  1  0  0  0  0
 30 24  2  0  0  0  0
M  END
>  <minimizedAffinity>
-4.75550604

>  <minimizedRMSD>
1.82327104

$$$$
