
 OpenBabel03252508383D

 39 42  0  0  0  0  0  0  0  0999 V2000
   45.1360   33.9610   40.7090 C   0  0  0  0  0  0  0  0  0  0  0  0
   44.0900   33.6360   39.8900 C   0  0  0  0  0  0  0  0  0  0  0  0
   44.3890   33.1330   38.6620 C   0  0  0  0  0  0  0  0  0  0  0  0
   45.6740   32.9350   38.2040 C   0  0  0  0  0  0  0  0  0  0  0  0
   46.7010   33.2700   39.0500 C   0  0  0  0  0  0  0  0  0  0  0  0
   46.4500   33.7840   40.3030 C   0  0  0  0  0  0  0  0  0  0  0  0
   43.5660   32.8720   38.0050 H   0  0  0  0  0  0  0  0  0  0  0  0
   45.8960   32.5290   37.2140 H   0  0  0  0  0  0  0  0  0  0  0  0
   47.7080   33.1130   38.6870 H   0  0  0  0  0  0  0  0  0  0  0  0
   40.8090   35.2760   40.7940 C   0  0  0  0  0  0  0  0  0  0  0  0
   42.1040   35.0970   40.2800 C   0  0  0  0  0  0  0  0  0  0  0  0
   42.7560   33.8590   40.4060 C   0  0  0  0  0  0  0  0  0  0  0  0
   42.0380   32.9020   41.0460 N   0  0  0  0  0  0  0  0  0  0  0  0
   40.8080   33.0850   41.5290 C   0  0  0  0  0  0  0  0  0  0  0  0
   40.1980   34.2740   41.4000 N   0  0  0  0  0  0  0  0  0  0  0  0
   40.2040   36.5360   40.6380 N   0  0  0  0  0  0  0  0  0  0  0  0
   42.6760   35.8630   39.7690 H   0  0  0  0  0  0  0  0  0  0  0  0
   40.3770   32.2150   42.0120 H   0  0  0  0  0  0  0  0  0  0  0  0
   40.7390   37.2710   41.1500 H   0  0  0  0  0  0  0  0  0  0  0  0
   39.3270   36.7030   40.0750 H   0  0  0  0  0  0  0  0  0  0  0  0
   47.6160   34.1090   41.1260 C   0  0  0  0  0  0  0  0  0  0  0  0
   48.1380   35.3610   40.9430 C   0  0  0  0  0  0  0  0  0  0  0  0
   49.2450   35.8350   41.6420 C   0  0  0  0  0  0  0  0  0  0  0  0
   49.8320   34.9780   42.5650 C   0  0  0  0  0  0  0  0  0  0  0  0
   49.3210   33.7200   42.7610 C   0  0  0  0  0  0  0  0  0  0  0  0
   48.2200   33.2760   42.0510 C   0  0  0  0  0  0  0  0  0  0  0  0
   47.7400   36.0870   40.2460 H   0  0  0  0  0  0  0  0  0  0  0  0
   49.6570   36.8060   41.5070 H   0  0  0  0  0  0  0  0  0  0  0  0
   50.6960   35.2580   43.1560 H   0  0  0  0  0  0  0  0  0  0  0  0
   49.7370   33.0110   43.4650 H   0  0  0  0  0  0  0  0  0  0  0  0
   47.6200   31.9430   42.2090 C   0  0  0  0  0  0  0  0  0  0  0  0
   46.6480   31.5360   43.0550 N   0  0  0  0  0  0  0  0  0  0  0  0
   46.4220   30.2120   42.8360 C   0  0  0  0  0  0  0  0  0  0  0  0
   45.6420   29.8400   43.5010 H   0  0  0  0  0  0  0  0  0  0  0  0
   47.2680   29.8410   41.8560 N   0  0  0  0  0  0  0  0  0  0  0  0
   47.1780   28.8210   41.6020 H   0  0  0  0  0  0  0  0  0  0  0  0
   47.9860   30.8600   41.4730 N   0  0  0  0  0  0  0  0  0  0  0  0
   44.7280   34.9240   43.0970 N   0  0  0  0  0  0  0  0  0  0  0  0
   44.9140   34.4980   42.0190 C   0  0  0  0  0  0  0  0  0  0  0  0
  1 39  1  0  0  0  0
  2 12  1  0  0  0  0
  2  1  2  0  0  0  0
  3  2  1  0  0  0  0
  4  3  2  0  0  0  0
  4  5  1  0  0  0  0
  5  6  2  0  0  0  0
  6  1  1  0  0  0  0
  6 21  1  0  0  0  0
  7  3  1  0  0  0  0
  8  4  1  0  0  0  0
  9  5  1  0  0  0  0
 10 15  1  0  0  0  0
 11 12  1  0  0  0  0
 11 10  2  0  0  0  0
 12 13  2  0  0  0  0
 13 14  1  0  0  0  0
 14 18  1  0  0  0  0
 15 14  2  0  0  0  0
 16 10  1  0  0  0  0
 16 19  1  0  0  0  0
 17 11  1  0  0  0  0
 20 16  1  0  0  0  0
 21 26  1  0  0  0  0
 22 21  2  0  0  0  0
 22 23  1  0  0  0  0
 23 24  2  0  0  0  0
 24 25  1  0  0  0  0
 24 29  1  0  0  0  0
 25 30  1  0  0  0  0
 26 31  1  0  0  0  0
 26 25  2  0  0  0  0
 27 22  1  0  0  0  0
 28 23  1  0  0  0  0
 31 32  1  0  0  0  0
 33 32  2  0  0  0  0
 33 34  1  0  0  0  0
 35 33  1  0  0  0  0
 36 35  1  0  0  0  0
 37 35  1  0  0  0  0
 37 31  2  0  0  0  0
 39 38  3  0  0  0  0
M  END
>  <minimizedAffinity>
-5.91933537

>  <minimizedRMSD>
0.272786885

$$$$
