
 OpenBabel03252507413D

 23 24  0  0  0  0  0  0  0  0999 V2000
   36.9490   27.5160   42.6620 C   0  0  0  0  0  0  0  0  0  0  0  0
   37.8950   27.7910   43.1710 H   0  0  0  0  0  0  0  0  0  0  0  0
   36.2040   27.4020   43.4720 H   0  0  0  0  0  0  0  0  0  0  0  0
   36.6320   28.6310   41.7490 C   0  0  0  0  0  0  0  0  0  0  0  0
   37.5180   29.7000   41.7780 C   0  0  0  0  0  0  0  0  0  0  0  0
   37.2740   30.7830   40.9390 C   0  0  0  0  0  0  0  0  0  0  0  0
   36.1700   30.7550   40.1170 N   0  0  0  0  0  0  0  0  0  0  0  0
   35.3380   29.6950   40.1240 C   0  0  0  0  0  0  0  0  0  0  0  0
   35.5540   28.6360   40.9270 N   0  0  0  0  0  0  0  0  0  0  0  0
   37.9380   31.6340   40.9300 H   0  0  0  0  0  0  0  0  0  0  0  0
   34.4790   29.6530   39.4960 H   0  0  0  0  0  0  0  0  0  0  0  0
   38.9390   29.7170   42.8470 S   0  0  0  0  0  0  0  0  0  0  0  0
   40.0490   30.0780   42.0350 H   0  0  0  0  0  0  0  0  0  0  0  0
   37.1880   26.2100   41.9490 C   0  0  0  0  0  0  0  0  0  0  0  0
   36.2560   25.5890   42.0180 H   0  0  0  0  0  0  0  0  0  0  0  0
   37.3070   26.4430   40.8580 H   0  0  0  0  0  0  0  0  0  0  0  0
   38.3610   25.5170   42.4970 C   0  0  0  0  0  0  0  0  0  0  0  0
   39.4360   26.0730   43.0790 N   0  0  0  0  0  0  0  0  0  0  0  0
   40.2790   25.0900   43.4400 C   0  0  0  0  0  0  0  0  0  0  0  0
   41.2380   24.9430   43.9170 H   0  0  0  0  0  0  0  0  0  0  0  0
   39.7150   23.9060   43.0750 N   0  0  0  0  0  0  0  0  0  0  0  0
   39.9470   22.8730   43.1240 H   0  0  0  0  0  0  0  0  0  0  0  0
   38.5390   24.1660   42.4960 N   0  0  0  0  0  0  0  0  0  0  0  0
  1  2  1  0  0  0  0
  1  3  1  0  0  0  0
  4  5  1  0  0  0  0
  4  1  1  0  0  0  0
  5 12  1  0  0  0  0
  6  5  2  0  0  0  0
  7  8  2  0  0  0  0
  7  6  1  0  0  0  0
  8  9  1  0  0  0  0
  9  4  2  0  0  0  0
 10  6  1  0  0  0  0
 11  8  1  0  0  0  0
 13 12  1  0  0  0  0
 14 15  1  0  0  0  0
 14 17  1  0  0  0  0
 14  1  1  0  0  0  0
 16 14  1  0  0  0  0
 17 18  1  0  0  0  0
 18 19  2  0  0  0  0
 19 20  1  0  0  0  0
 21 22  1  0  0  0  0
 21 19  1  0  0  0  0
 23 17  2  0  0  0  0
 23 21  1  0  0  0  0
M  END
>  <minimizedAffinity>
-4.1728487

$$$$

 OpenBabel03252507413D

 23 24  0  0  0  0  0  0  0  0999 V2000
   39.4380   30.5010   42.5230 C   0  0  0  0  0  0  0  0  0  0  0  0
   38.7990   31.2860   42.9770 H   0  0  0  0  0  0  0  0  0  0  0  0
   40.3790   30.5160   43.1070 H   0  0  0  0  0  0  0  0  0  0  0  0
   38.6980   29.2320   42.6670 C   0  0  0  0  0  0  0  0  0  0  0  0
   39.4760   28.1100   42.9210 C   0  0  0  0  0  0  0  0  0  0  0  0
   38.8370   26.8830   43.0660 C   0  0  0  0  0  0  0  0  0  0  0  0
   37.4660   26.8260   42.9530 N   0  0  0  0  0  0  0  0  0  0  0  0
   36.7540   27.9420   42.7050 C   0  0  0  0  0  0  0  0  0  0  0  0
   37.3500   29.1410   42.5600 N   0  0  0  0  0  0  0  0  0  0  0  0
   39.4050   25.9860   43.2650 H   0  0  0  0  0  0  0  0  0  0  0  0
   35.6920   27.9210   42.6130 H   0  0  0  0  0  0  0  0  0  0  0  0
   41.2470   28.2040   43.0640 S   0  0  0  0  0  0  0  0  0  0  0  0
   41.5900   27.5140   44.2590 H   0  0  0  0  0  0  0  0  0  0  0  0
   39.6770   30.8940   41.0880 C   0  0  0  0  0  0  0  0  0  0  0  0
   40.7760   31.0620   40.9410 H   0  0  0  0  0  0  0  0  0  0  0  0
   39.4270   30.0030   40.4530 H   0  0  0  0  0  0  0  0  0  0  0  0
   38.8790   32.0720   40.7240 C   0  0  0  0  0  0  0  0  0  0  0  0
   39.3250   33.3190   40.5020 N   0  0  0  0  0  0  0  0  0  0  0  0
   38.2740   34.0980   40.1950 C   0  0  0  0  0  0  0  0  0  0  0  0
   38.0360   35.1200   39.9370 H   0  0  0  0  0  0  0  0  0  0  0  0
   37.1580   33.3180   40.2280 N   0  0  0  0  0  0  0  0  0  0  0  0
   36.1150   33.4260   40.0720 H   0  0  0  0  0  0  0  0  0  0  0  0
   37.5270   32.0760   40.5520 N   0  0  0  0  0  0  0  0  0  0  0  0
  1  4  1  0  0  0  0
  1  2  1  0  0  0  0
  1  3  1  0  0  0  0
  4  5  1  0  0  0  0
  5 12  1  0  0  0  0
  5  6  2  0  0  0  0
  6 10  1  0  0  0  0
  7  6  1  0  0  0  0
  8  7  2  0  0  0  0
  9  4  2  0  0  0  0
  9  8  1  0  0  0  0
 11  8  1  0  0  0  0
 12 13  1  0  0  0  0
 14  1  1  0  0  0  0
 15 14  1  0  0  0  0
 16 14  1  0  0  0  0
 17 14  1  0  0  0  0
 18 17  1  0  0  0  0
 19 21  1  0  0  0  0
 19 18  2  0  0  0  0
 20 19  1  0  0  0  0
 21 23  1  0  0  0  0
 22 21  1  0  0  0  0
 23 17  2  0  0  0  0
M  END
>  <minimizedAffinity>
-4.16878939

$$$$

 OpenBabel03252507413D

 23 24  0  0  0  0  0  0  0  0999 V2000
   36.9390   26.6140   41.4600 C   0  0  0  0  0  0  0  0  0  0  0  0
   36.5730   25.6580   41.0320 H   0  0  0  0  0  0  0  0  0  0  0  0
   36.1070   26.9920   42.0850 H   0  0  0  0  0  0  0  0  0  0  0  0
   38.1400   26.2820   42.2490 C   0  0  0  0  0  0  0  0  0  0  0  0
   38.5450   24.9540   42.1950 C   0  0  0  0  0  0  0  0  0  0  0  0
   39.6710   24.5760   42.9180 C   0  0  0  0  0  0  0  0  0  0  0  0
   40.3390   25.5270   43.6570 N   0  0  0  0  0  0  0  0  0  0  0  0
   39.9090   26.8030   43.6800 C   0  0  0  0  0  0  0  0  0  0  0  0
   38.8210   27.1920   42.9880 N   0  0  0  0  0  0  0  0  0  0  0  0
   40.0200   23.5550   42.9020 H   0  0  0  0  0  0  0  0  0  0  0  0
   40.4110   27.5540   44.2450 H   0  0  0  0  0  0  0  0  0  0  0  0
   37.6680   23.7410   41.2330 S   0  0  0  0  0  0  0  0  0  0  0  0
   38.6460   23.0570   40.4610 H   0  0  0  0  0  0  0  0  0  0  0  0
   37.2220   27.5410   40.3050 C   0  0  0  0  0  0  0  0  0  0  0  0
   38.3150   27.4860   40.0600 H   0  0  0  0  0  0  0  0  0  0  0  0
   36.6960   27.1230   39.4070 H   0  0  0  0  0  0  0  0  0  0  0  0
   36.7890   28.9110   40.6100 C   0  0  0  0  0  0  0  0  0  0  0  0
   37.5680   29.9910   40.7850 N   0  0  0  0  0  0  0  0  0  0  0  0
   36.7790   31.0470   41.0480 C   0  0  0  0  0  0  0  0  0  0  0  0
   36.8390   32.1050   41.2600 H   0  0  0  0  0  0  0  0  0  0  0  0
   35.4890   30.6120   41.0340 N   0  0  0  0  0  0  0  0  0  0  0  0
   34.5180   31.0150   41.1730 H   0  0  0  0  0  0  0  0  0  0  0  0
   35.4930   29.3030   40.7670 N   0  0  0  0  0  0  0  0  0  0  0  0
  1  3  1  0  0  0  0
  1  4  1  0  0  0  0
  2  1  1  0  0  0  0
  4  9  1  0  0  0  0
  5  4  2  0  0  0  0
  5  6  1  0  0  0  0
  6  7  2  0  0  0  0
  7  8  1  0  0  0  0
  8 11  1  0  0  0  0
  9  8  2  0  0  0  0
 10  6  1  0  0  0  0
 12  5  1  0  0  0  0
 13 12  1  0  0  0  0
 14 17  1  0  0  0  0
 14  1  1  0  0  0  0
 15 14  1  0  0  0  0
 16 14  1  0  0  0  0
 17 23  2  0  0  0  0
 17 18  1  0  0  0  0
 18 19  2  0  0  0  0
 19 20  1  0  0  0  0
 21 19  1  0  0  0  0
 21 22  1  0  0  0  0
 23 21  1  0  0  0  0
M  END
>  <minimizedAffinity>
-4.16262865

$$$$

 OpenBabel03252507413D

 23 24  0  0  0  0  0  0  0  0999 V2000
   36.2010   27.8270   40.1760 C   0  0  0  0  0  0  0  0  0  0  0  0
   36.8810   27.9690   39.3110 H   0  0  0  0  0  0  0  0  0  0  0  0
   35.6710   26.8760   39.9780 H   0  0  0  0  0  0  0  0  0  0  0  0
   37.0610   27.7640   41.3720 C   0  0  0  0  0  0  0  0  0  0  0  0
   38.4250   27.6730   41.1260 C   0  0  0  0  0  0  0  0  0  0  0  0
   39.2900   27.6100   42.2130 C   0  0  0  0  0  0  0  0  0  0  0  0
   38.7660   27.6380   43.4860 N   0  0  0  0  0  0  0  0  0  0  0  0
   37.4350   27.7270   43.6750 C   0  0  0  0  0  0  0  0  0  0  0  0
   36.5790   27.7890   42.6390 N   0  0  0  0  0  0  0  0  0  0  0  0
   40.3570   27.5390   42.0660 H   0  0  0  0  0  0  0  0  0  0  0  0
   37.0080   27.7500   44.6510 H   0  0  0  0  0  0  0  0  0  0  0  0
   39.0830   27.6370   39.4730 S   0  0  0  0  0  0  0  0  0  0  0  0
   40.1280   28.6020   39.4360 H   0  0  0  0  0  0  0  0  0  0  0  0
   35.2460   28.9930   40.1890 C   0  0  0  0  0  0  0  0  0  0  0  0
   34.4890   28.8450   39.3740 H   0  0  0  0  0  0  0  0  0  0  0  0
   34.6640   28.9360   41.1460 H   0  0  0  0  0  0  0  0  0  0  0  0
   35.9650   30.2670   40.0540 C   0  0  0  0  0  0  0  0  0  0  0  0
   36.5400   30.7630   38.9470 N   0  0  0  0  0  0  0  0  0  0  0  0
   37.0930   31.9500   39.2510 C   0  0  0  0  0  0  0  0  0  0  0  0
   37.6510   32.7550   38.7950 H   0  0  0  0  0  0  0  0  0  0  0  0
   36.8530   32.1920   40.5690 N   0  0  0  0  0  0  0  0  0  0  0  0
   37.0590   32.9490   41.2830 H   0  0  0  0  0  0  0  0  0  0  0  0
   36.1630   31.1610   41.0630 N   0  0  0  0  0  0  0  0  0  0  0  0
  1 14  1  0  0  0  0
  1  4  1  0  0  0  0
  2  1  1  0  0  0  0
  3  1  1  0  0  0  0
  4  9  1  0  0  0  0
  5  4  2  0  0  0  0
  5  6  1  0  0  0  0
  6  7  2  0  0  0  0
  7  8  1  0  0  0  0
  8 11  1  0  0  0  0
  9  8  2  0  0  0  0
 10  6  1  0  0  0  0
 12  5  1  0  0  0  0
 13 12  1  0  0  0  0
 14 16  1  0  0  0  0
 15 14  1  0  0  0  0
 17 14  1  0  0  0  0
 17 23  2  0  0  0  0
 18 19  2  0  0  0  0
 18 17  1  0  0  0  0
 19 21  1  0  0  0  0
 20 19  1  0  0  0  0
 21 23  1  0  0  0  0
 21 22  1  0  0  0  0
M  END
>  <minimizedAffinity>
-4.10885859

$$$$

 OpenBabel03252507413D

 23 24  0  0  0  0  0  0  0  0999 V2000
   36.9140   27.7380   42.6890 C   0  0  0  0  0  0  0  0  0  0  0  0
   37.3000   27.4320   43.6840 H   0  0  0  0  0  0  0  0  0  0  0  0
   35.8320   27.9150   42.8380 H   0  0  0  0  0  0  0  0  0  0  0  0
   37.6480   28.9640   42.3220 C   0  0  0  0  0  0  0  0  0  0  0  0
   37.0520   29.7500   41.3440 C   0  0  0  0  0  0  0  0  0  0  0  0
   37.6950   30.9200   40.9530 C   0  0  0  0  0  0  0  0  0  0  0  0
   38.8910   31.2540   41.5470 N   0  0  0  0  0  0  0  0  0  0  0  0
   39.4320   30.4600   42.4910 C   0  0  0  0  0  0  0  0  0  0  0  0
   38.8280   29.3230   42.8850 N   0  0  0  0  0  0  0  0  0  0  0  0
   37.2650   31.5590   40.1970 H   0  0  0  0  0  0  0  0  0  0  0  0
   40.3560   30.6990   42.9630 H   0  0  0  0  0  0  0  0  0  0  0  0
   35.5050   29.3010   40.5890 S   0  0  0  0  0  0  0  0  0  0  0  0
   34.6790   30.4580   40.6450 H   0  0  0  0  0  0  0  0  0  0  0  0
   37.1570   26.5910   41.7430 C   0  0  0  0  0  0  0  0  0  0  0  0
   36.1730   26.1120   41.5010 H   0  0  0  0  0  0  0  0  0  0  0  0
   37.5180   27.0290   40.7750 H   0  0  0  0  0  0  0  0  0  0  0  0
   38.1180   25.6350   42.3080 C   0  0  0  0  0  0  0  0  0  0  0  0
   39.2680   25.9150   42.9420 N   0  0  0  0  0  0  0  0  0  0  0  0
   39.8480   24.7570   43.3010 C   0  0  0  0  0  0  0  0  0  0  0  0
   40.7290   24.3830   43.8050 H   0  0  0  0  0  0  0  0  0  0  0  0
   39.0420   23.7440   42.8830 N   0  0  0  0  0  0  0  0  0  0  0  0
   39.0290   22.6840   42.9080 H   0  0  0  0  0  0  0  0  0  0  0  0
   37.9810   24.2790   42.2730 N   0  0  0  0  0  0  0  0  0  0  0  0
  1  3  1  0  0  0  0
  1  2  1  0  0  0  0
  4  1  1  0  0  0  0
  4  9  1  0  0  0  0
  5  4  2  0  0  0  0
  6  5  1  0  0  0  0
  6  7  2  0  0  0  0
  7  8  1  0  0  0  0
  8  9  2  0  0  0  0
  8 11  1  0  0  0  0
 10  6  1  0  0  0  0
 12 13  1  0  0  0  0
 12  5  1  0  0  0  0
 14 17  1  0  0  0  0
 14  1  1  0  0  0  0
 15 14  1  0  0  0  0
 16 14  1  0  0  0  0
 17 18  1  0  0  0  0
 18 19  2  0  0  0  0
 19 20  1  0  0  0  0
 21 22  1  0  0  0  0
 21 19  1  0  0  0  0
 23 17  2  0  0  0  0
 23 21  1  0  0  0  0
M  END
>  <minimizedAffinity>
-4.09328651

$$$$

 OpenBabel03252507413D

 23 24  0  0  0  0  0  0  0  0999 V2000
   36.7700   28.1040   42.2830 C   0  0  0  0  0  0  0  0  0  0  0  0
   35.9610   27.9900   43.0340 H   0  0  0  0  0  0  0  0  0  0  0  0
   37.3770   28.9600   42.6350 H   0  0  0  0  0  0  0  0  0  0  0  0
   37.5190   26.8340   42.2850 C   0  0  0  0  0  0  0  0  0  0  0  0
   38.8890   26.9450   42.4860 C   0  0  0  0  0  0  0  0  0  0  0  0
   39.6530   25.7820   42.4990 C   0  0  0  0  0  0  0  0  0  0  0  0
   39.0260   24.5710   42.3140 N   0  0  0  0  0  0  0  0  0  0  0  0
   37.6930   24.5120   42.1220 C   0  0  0  0  0  0  0  0  0  0  0  0
   36.9350   25.6240   42.1060 N   0  0  0  0  0  0  0  0  0  0  0  0
   40.7200   25.8250   42.6520 H   0  0  0  0  0  0  0  0  0  0  0  0
   37.1880   23.5850   41.9770 H   0  0  0  0  0  0  0  0  0  0  0  0
   39.6810   28.5210   42.7240 S   0  0  0  0  0  0  0  0  0  0  0  0
   40.5060   28.3860   43.8740 H   0  0  0  0  0  0  0  0  0  0  0  0
   36.1130   28.4070   40.9610 C   0  0  0  0  0  0  0  0  0  0  0  0
   36.4630   27.6540   40.2060 H   0  0  0  0  0  0  0  0  0  0  0  0
   35.0150   28.2130   41.0830 H   0  0  0  0  0  0  0  0  0  0  0  0
   36.3860   29.7870   40.5390 C   0  0  0  0  0  0  0  0  0  0  0  0
   36.8720   30.1940   39.3550 N   0  0  0  0  0  0  0  0  0  0  0  0
   36.9740   31.5340   39.3760 C   0  0  0  0  0  0  0  0  0  0  0  0
   37.2810   32.3610   38.7510 H   0  0  0  0  0  0  0  0  0  0  0  0
   36.5420   31.9620   40.5940 N   0  0  0  0  0  0  0  0  0  0  0  0
   36.4190   32.8800   41.1100 H   0  0  0  0  0  0  0  0  0  0  0  0
   36.1820   30.8920   41.3080 N   0  0  0  0  0  0  0  0  0  0  0  0
  1  4  1  0  0  0  0
  1  3  1  0  0  0  0
  1  2  1  0  0  0  0
  4  5  1  0  0  0  0
  5  6  2  0  0  0  0
  5 12  1  0  0  0  0
  6 10  1  0  0  0  0
  7  6  1  0  0  0  0
  8  7  2  0  0  0  0
  9  8  1  0  0  0  0
  9  4  2  0  0  0  0
 11  8  1  0  0  0  0
 12 13  1  0  0  0  0
 14 16  1  0  0  0  0
 14  1  1  0  0  0  0
 15 14  1  0  0  0  0
 17 14  1  0  0  0  0
 17 23  2  0  0  0  0
 18 19  2  0  0  0  0
 18 17  1  0  0  0  0
 19 21  1  0  0  0  0
 20 19  1  0  0  0  0
 21 22  1  0  0  0  0
 21 23  1  0  0  0  0
M  END
>  <minimizedAffinity>
-4.03718996

$$$$

 OpenBabel03252507413D

 23 24  0  0  0  0  0  0  0  0999 V2000
   36.6960   31.3090   40.9570 C   0  0  0  0  0  0  0  0  0  0  0  0
   36.0950   31.0780   40.0530 H   0  0  0  0  0  0  0  0  0  0  0  0
   36.0240   31.8970   41.6110 H   0  0  0  0  0  0  0  0  0  0  0  0
   37.0730   30.0100   41.5450 C   0  0  0  0  0  0  0  0  0  0  0  0
   36.3320   28.9180   41.1140 C   0  0  0  0  0  0  0  0  0  0  0  0
   36.6400   27.6640   41.6320 C   0  0  0  0  0  0  0  0  0  0  0  0
   37.6610   27.5530   42.5490 N   0  0  0  0  0  0  0  0  0  0  0  0
   38.3510   28.6420   42.9380 C   0  0  0  0  0  0  0  0  0  0  0  0
   38.0720   29.8650   42.4500 N   0  0  0  0  0  0  0  0  0  0  0  0
   36.0880   26.7890   41.3220 H   0  0  0  0  0  0  0  0  0  0  0  0
   39.1450   28.5780   43.6470 H   0  0  0  0  0  0  0  0  0  0  0  0
   35.0160   29.0820   39.9270 S   0  0  0  0  0  0  0  0  0  0  0  0
   35.2430   28.0880   38.9360 H   0  0  0  0  0  0  0  0  0  0  0  0
   37.8790   32.1280   40.5090 C   0  0  0  0  0  0  0  0  0  0  0  0
   37.7110   33.1950   40.8120 H   0  0  0  0  0  0  0  0  0  0  0  0
   38.7650   31.7870   41.1070 H   0  0  0  0  0  0  0  0  0  0  0  0
   38.1010   31.9880   39.0640 C   0  0  0  0  0  0  0  0  0  0  0  0
   37.2080   31.6070   38.1370 N   0  0  0  0  0  0  0  0  0  0  0  0
   37.8140   31.6090   36.9370 C   0  0  0  0  0  0  0  0  0  0  0  0
   37.6090   31.4050   35.8950 H   0  0  0  0  0  0  0  0  0  0  0  0
   39.1040   31.9990   37.1260 N   0  0  0  0  0  0  0  0  0  0  0  0
   39.9730   32.1620   36.5410 H   0  0  0  0  0  0  0  0  0  0  0  0
   39.2820   32.2310   38.4290 N   0  0  0  0  0  0  0  0  0  0  0  0
  1  4  1  0  0  0  0
  1  3  1  0  0  0  0
  2  1  1  0  0  0  0
  4  9  1  0  0  0  0
  5  4  2  0  0  0  0
  5  6  1  0  0  0  0
  6  7  2  0  0  0  0
  7  8  1  0  0  0  0
  8 11  1  0  0  0  0
  9  8  2  0  0  0  0
 10  6  1  0  0  0  0
 12  5  1  0  0  0  0
 13 12  1  0  0  0  0
 14 15  1  0  0  0  0
 14  1  1  0  0  0  0
 14 16  1  0  0  0  0
 17 14  1  0  0  0  0
 18 17  1  0  0  0  0
 19 21  1  0  0  0  0
 19 18  2  0  0  0  0
 20 19  1  0  0  0  0
 21 23  1  0  0  0  0
 22 21  1  0  0  0  0
 23 17  2  0  0  0  0
M  END
>  <minimizedAffinity>
-3.96382356

$$$$

 OpenBabel03252507413D

 23 24  0  0  0  0  0  0  0  0999 V2000
   37.9970   26.7900   41.8520 C   0  0  0  0  0  0  0  0  0  0  0  0
   38.7210   26.5060   42.6440 H   0  0  0  0  0  0  0  0  0  0  0  0
   38.5470   27.4860   41.1900 H   0  0  0  0  0  0  0  0  0  0  0  0
   37.6160   25.5370   41.1730 C   0  0  0  0  0  0  0  0  0  0  0  0
   38.3110   24.4030   41.5710 C   0  0  0  0  0  0  0  0  0  0  0  0
   37.9970   23.1890   40.9680 C   0  0  0  0  0  0  0  0  0  0  0  0
   37.0150   23.1580   40.0030 N   0  0  0  0  0  0  0  0  0  0  0  0
   36.3680   24.2860   39.6490 C   0  0  0  0  0  0  0  0  0  0  0  0
   36.6540   25.4710   40.2190 N   0  0  0  0  0  0  0  0  0  0  0  0
   38.5130   22.2840   41.2490 H   0  0  0  0  0  0  0  0  0  0  0  0
   35.6050   24.2840   38.9050 H   0  0  0  0  0  0  0  0  0  0  0  0
   39.5760   24.4640   42.8200 S   0  0  0  0  0  0  0  0  0  0  0  0
   39.2830   23.4210   43.7410 H   0  0  0  0  0  0  0  0  0  0  0  0
   36.8400   27.4780   42.5310 C   0  0  0  0  0  0  0  0  0  0  0  0
   35.9920   26.7490   42.6190 H   0  0  0  0  0  0  0  0  0  0  0  0
   37.1550   27.6950   43.5850 H   0  0  0  0  0  0  0  0  0  0  0  0
   36.4530   28.6960   41.8080 C   0  0  0  0  0  0  0  0  0  0  0  0
   37.0230   29.9090   41.8950 N   0  0  0  0  0  0  0  0  0  0  0  0
   36.3690   30.7460   41.0710 C   0  0  0  0  0  0  0  0  0  0  0  0
   36.3780   31.7760   40.7440 H   0  0  0  0  0  0  0  0  0  0  0  0
   35.3780   30.0370   40.4640 N   0  0  0  0  0  0  0  0  0  0  0  0
   34.6070   30.2050   39.7560 H   0  0  0  0  0  0  0  0  0  0  0  0
   35.4280   28.7800   40.9140 N   0  0  0  0  0  0  0  0  0  0  0  0
  1 14  1  0  0  0  0
  1  2  1  0  0  0  0
  3  1  1  0  0  0  0
  4  5  1  0  0  0  0
  4  1  1  0  0  0  0
  5 12  1  0  0  0  0
  6 10  1  0  0  0  0
  6  5  2  0  0  0  0
  7  6  1  0  0  0  0
  8  7  2  0  0  0  0
  8  9  1  0  0  0  0
  9  4  2  0  0  0  0
 11  8  1  0  0  0  0
 12 13  1  0  0  0  0
 14 15  1  0  0  0  0
 14 16  1  0  0  0  0
 17 18  1  0  0  0  0
 17 14  1  0  0  0  0
 19 18  2  0  0  0  0
 20 19  1  0  0  0  0
 21 23  1  0  0  0  0
 21 19  1  0  0  0  0
 22 21  1  0  0  0  0
 23 17  2  0  0  0  0
M  END
>  <minimizedAffinity>
-3.9232862

$$$$

 OpenBabel03252507413D

 23 24  0  0  0  0  0  0  0  0999 V2000
   37.3280   29.1800   39.2840 C   0  0  0  0  0  0  0  0  0  0  0  0
   38.3230   28.9530   38.8480 H   0  0  0  0  0  0  0  0  0  0  0  0
   36.6090   28.5730   38.7020 H   0  0  0  0  0  0  0  0  0  0  0  0
   37.3980   28.7810   40.7020 C   0  0  0  0  0  0  0  0  0  0  0  0
   37.0990   27.4510   40.9660 C   0  0  0  0  0  0  0  0  0  0  0  0
   37.1470   27.0110   42.2850 C   0  0  0  0  0  0  0  0  0  0  0  0
   37.4850   27.9060   43.2750 N   0  0  0  0  0  0  0  0  0  0  0  0
   37.7660   29.1880   42.9700 C   0  0  0  0  0  0  0  0  0  0  0  0
   37.7270   29.6360   41.7020 N   0  0  0  0  0  0  0  0  0  0  0  0
   36.9220   25.9850   42.5330 H   0  0  0  0  0  0  0  0  0  0  0  0
   38.0310   29.8970   43.7210 H   0  0  0  0  0  0  0  0  0  0  0  0
   36.6640   26.3090   39.6730 S   0  0  0  0  0  0  0  0  0  0  0  0
   37.4710   25.1550   39.8670 H   0  0  0  0  0  0  0  0  0  0  0  0
   37.0830   30.6550   39.0910 C   0  0  0  0  0  0  0  0  0  0  0  0
   36.0720   30.7910   38.6240 H   0  0  0  0  0  0  0  0  0  0  0  0
   37.0010   31.1150   40.1100 H   0  0  0  0  0  0  0  0  0  0  0  0
   38.1520   31.2680   38.2920 C   0  0  0  0  0  0  0  0  0  0  0  0
   39.4400   31.4220   38.6390 N   0  0  0  0  0  0  0  0  0  0  0  0
   40.0830   32.0280   37.6260 C   0  0  0  0  0  0  0  0  0  0  0  0
   41.0660   32.3860   37.3530 H   0  0  0  0  0  0  0  0  0  0  0  0
   39.1760   32.2520   36.6360 N   0  0  0  0  0  0  0  0  0  0  0  0
   39.1560   32.6790   35.6660 H   0  0  0  0  0  0  0  0  0  0  0  0
   37.9920   31.7870   37.0420 N   0  0  0  0  0  0  0  0  0  0  0  0
  1  4  1  0  0  0  0
  2  1  1  0  0  0  0
  3  1  1  0  0  0  0
  4  5  2  0  0  0  0
  4  9  1  0  0  0  0
  5  6  1  0  0  0  0
  6 10  1  0  0  0  0
  6  7  2  0  0  0  0
  8  7  1  0  0  0  0
  8 11  1  0  0  0  0
  9  8  2  0  0  0  0
 12 13  1  0  0  0  0
 12  5  1  0  0  0  0
 14  1  1  0  0  0  0
 14 16  1  0  0  0  0
 15 14  1  0  0  0  0
 17 18  1  0  0  0  0
 17 14  1  0  0  0  0
 19 18  2  0  0  0  0
 20 19  1  0  0  0  0
 21 23  1  0  0  0  0
 21 19  1  0  0  0  0
 22 21  1  0  0  0  0
 23 17  2  0  0  0  0
M  END
>  <minimizedAffinity>
-3.85837197

$$$$
