
 OpenBabel03252508073D

 42 45  0  0  0  0  0  0  0  0999 V2000
   45.2730   35.9230   42.8580 C   0  0  0  0  0  0  0  0  0  0  0  0
   45.5190   34.5600   42.8800 C   0  0  0  0  0  0  0  0  0  0  0  0
   45.3010   33.8380   44.0280 C   0  0  0  0  0  0  0  0  0  0  0  0
   44.8340   34.5380   45.1240 N   0  0  0  0  0  0  0  0  0  0  0  0
   44.6000   35.8480   45.0970 C   0  0  0  0  0  0  0  0  0  0  0  0
   44.8250   36.5290   43.9540 N   0  0  0  0  0  0  0  0  0  0  0  0
   45.4330   36.5350   41.9680 H   0  0  0  0  0  0  0  0  0  0  0  0
   44.2380   36.3760   45.9560 H   0  0  0  0  0  0  0  0  0  0  0  0
   45.5010   32.4520   44.2130 C   0  0  0  0  0  0  0  0  0  0  0  0
   45.0400   31.4690   43.3320 C   0  0  0  0  0  0  0  0  0  0  0  0
   45.1770   30.1210   43.5410 C   0  0  0  0  0  0  0  0  0  0  0  0
   45.8040   29.6670   44.6810 C   0  0  0  0  0  0  0  0  0  0  0  0
   46.2840   30.6550   45.5930 C   0  0  0  0  0  0  0  0  0  0  0  0
   46.9060   30.2120   46.7290 C   0  0  0  0  0  0  0  0  0  0  0  0
   47.3960   31.1120   47.6520 C   0  0  0  0  0  0  0  0  0  0  0  0
   47.2510   32.4870   47.4160 C   0  0  0  0  0  0  0  0  0  0  0  0
   46.6030   32.8900   46.2340 C   0  0  0  0  0  0  0  0  0  0  0  0
   46.1240   31.9750   45.3380 C   0  0  0  0  0  0  0  0  0  0  0  0
   44.5440   31.7970   42.4290 H   0  0  0  0  0  0  0  0  0  0  0  0
   44.8070   29.3930   42.8350 H   0  0  0  0  0  0  0  0  0  0  0  0
   45.9400   28.6190   44.9030 H   0  0  0  0  0  0  0  0  0  0  0  0
   47.0240   29.1560   46.9200 H   0  0  0  0  0  0  0  0  0  0  0  0
   47.8800   30.7110   48.5360 H   0  0  0  0  0  0  0  0  0  0  0  0
   47.6630   33.1000   48.1880 H   0  0  0  0  0  0  0  0  0  0  0  0
   46.6120   33.9590   46.2270 H   0  0  0  0  0  0  0  0  0  0  0  0
   45.9750   33.9880   41.7230 O   0  0  0  0  0  0  0  0  0  0  0  0
   47.9700   32.3770   41.1890 O   0  0  0  0  0  0  0  0  0  0  0  0
   47.6080   33.8150   41.3150 P   0  0  1  0  0  0  0  0  0  0  0  0
   47.9370   34.5390   39.8190 O   0  0  0  0  0  0  0  0  0  0  0  0
   47.5820   33.8450   38.6690 C   0  0  0  0  0  0  0  0  0  0  0  0
   48.3990   33.7080   37.5930 N   0  0  0  0  0  0  0  0  0  0  0  0
   47.7770   32.9880   36.6410 C   0  0  0  0  0  0  0  0  0  0  0  0
   48.1570   32.7020   35.6630 H   0  0  0  0  0  0  0  0  0  0  0  0
   46.5590   32.6690   37.1190 N   0  0  0  0  0  0  0  0  0  0  0  0
   45.7990   32.1060   36.6350 H   0  0  0  0  0  0  0  0  0  0  0  0
   46.4620   33.1880   38.3290 N   0  0  0  0  0  0  0  0  0  0  0  0
   48.5300   34.5740   42.4950 O   0  0  0  0  0  0  0  0  0  0  0  0
   49.7300   35.2390   42.3080 C   0  0  0  0  0  0  0  0  0  0  0  0
   49.4090   36.3490   41.8420 O   0  0  0  0  0  0  0  0  0  0  0  0
   50.8440   34.4170   42.7140 N   0  0  0  0  0  0  0  0  0  0  0  0
   50.9110   34.1730   43.7380 H   0  0  0  0  0  0  0  0  0  0  0  0
   51.6140   34.0160   42.1330 H   0  0  0  0  0  0  0  0  0  0  0  0
  1  2  2  0  0  0  0
  1  6  1  0  0  0  0
  2  3  1  0  0  0  0
  3  9  1  0  0  0  0
  3  4  2  0  0  0  0
  5  4  1  0  0  0  0
  5  8  1  0  0  0  0
  6  5  2  0  0  0  0
  7  1  1  0  0  0  0
  9 18  1  0  0  0  0
 10 11  1  0  0  0  0
 10  9  2  0  0  0  0
 11 12  2  0  0  0  0
 12 21  1  0  0  0  0
 12 13  1  0  0  0  0
 13 14  1  0  0  0  0
 14 22  1  0  0  0  0
 14 15  2  0  0  0  0
 15 23  1  0  0  0  0
 16 15  1  0  0  0  0
 16 24  1  0  0  0  0
 17 16  2  0  0  0  0
 18 13  2  0  0  0  0
 18 17  1  0  0  0  0
 19 10  1  0  0  0  0
 20 11  1  0  0  0  0
 25 17  1  0  0  0  0
 26  2  1  0  0  0  0
 28 27  2  6  0  0  0
 28 26  1  0  0  0  0
 28 37  1  0  0  0  0
 29 28  1  0  0  0  0
 30 29  1  0  0  0  0
 31 30  1  0  0  0  0
 32 34  1  0  0  0  0
 32 31  2  0  0  0  0
 33 32  1  0  0  0  0
 34 36  1  0  0  0  0
 35 34  1  0  0  0  0
 36 30  2  0  0  0  0
 38 37  1  0  0  0  0
 38 40  1  0  0  0  0
 39 38  2  0  0  0  0
 40 41  1  0  0  0  0
 42 40  1  0  0  0  0
M  END
>  <minimizedAffinity>
-5.99481058

>  <minimizedRMSD>
0.677064061

$$$$
