
 OpenBabel03252509143D

 43 47  0  0  1  0  0  0  0  0999 V2000
   47.2750   32.9490   43.2160 C   0  0  0  0  0  0  0  0  0  0  0  0
   46.4890   33.6430   42.3000 C   0  0  0  0  0  0  0  0  0  0  0  0
   45.4300   34.4540   42.6850 C   0  0  0  0  0  0  0  0  0  0  0  0
   45.1290   34.5890   44.0510 C   0  0  0  0  0  0  0  0  0  0  0  0
   44.2110   35.2610   44.7710 N   0  0  0  0  0  0  0  0  0  0  0  0
   44.3960   35.0150   46.0790 C   0  0  0  0  0  0  0  0  0  0  0  0
   45.4410   34.1800   46.1540 N   0  0  0  0  0  0  0  0  0  0  0  0
   45.9220   33.8910   44.9270 C   0  0  0  0  0  0  0  0  0  0  0  0
   46.9840   33.0760   44.5780 C   0  0  0  0  0  0  0  0  0  0  0  0
   48.0820   32.3360   42.8490 H   0  0  0  0  0  0  0  0  0  0  0  0
   43.4730   35.8800   44.3590 H   0  0  0  0  0  0  0  0  0  0  0  0
   43.8320   35.3990   46.9260 H   0  0  0  0  0  0  0  0  0  0  0  0
   47.5780   32.5480   45.3020 H   0  0  0  0  0  0  0  0  0  0  0  0
   46.4250   32.4400   38.8460 C   0  0  0  0  0  0  0  0  0  0  0  0
   47.3360   33.2710   38.1970 C   0  0  0  0  0  0  0  0  0  0  0  0
   47.9730   34.2520   38.9680 C   0  0  0  0  0  0  0  0  0  0  0  0
   47.6830   34.3580   40.3100 N   0  0  0  0  0  0  0  0  0  0  0  0
   46.7860   33.5160   40.8740 C   0  0  0  0  0  0  0  0  0  0  0  0
   46.1350   32.5420   40.1790 N   0  0  0  0  0  0  0  0  0  0  0  0
   45.8690   31.6430   38.3570 H   0  0  0  0  0  0  0  0  0  0  0  0
   47.5080   33.1280   37.1570 H   0  0  0  0  0  0  0  0  0  0  0  0
   48.6800   34.9080   38.4960 H   0  0  0  0  0  0  0  0  0  0  0  0
   44.4430   35.3290   41.5080 S   0  0  0  0  0  0  0  0  0  0  0  0
   42.3300   33.7780   41.7730 N   0  0  0  0  0  0  0  0  0  0  0  0
   43.1770   34.3010   40.7120 C   0  0  1  0  0  0  0  0  0  0  0  0
   42.3900   35.2490   39.8060 C   0  0  0  0  0  0  0  0  0  0  0  0
   41.1320   34.7870   39.4800 O   0  0  0  0  0  0  0  0  0  0  0  0
   40.8860   33.4740   39.8090 C   0  0  0  0  0  0  0  0  0  0  0  0
   41.0750   33.2840   41.2900 C   0  0  1  0  0  0  0  0  0  0  0  0
   42.2130   34.5320   42.5150 H   0  0  0  0  0  0  0  0  0  0  0  0
   43.5880   33.4670   40.1280 H   0  0  0  0  0  0  0  0  0  0  0  0
   42.9010   35.3560   38.8530 H   0  0  0  0  0  0  0  0  0  0  0  0
   42.3070   36.2500   40.2810 H   0  0  0  0  0  0  0  0  0  0  0  0
   39.8620   33.2300   39.5390 H   0  0  0  0  0  0  0  0  0  0  0  0
   41.6440   32.8480   39.2990 H   0  0  0  0  0  0  0  0  0  0  0  0
   40.2710   33.8050   41.8690 H   0  0  0  0  0  0  0  0  0  0  0  0
   40.9160   31.8260   41.5690 C   0  0  0  0  0  0  0  0  0  0  0  0
   40.4290   31.3080   42.7340 N   0  0  0  0  0  0  0  0  0  0  0  0
   40.4390   29.9490   42.5980 C   0  0  0  0  0  0  0  0  0  0  0  0
   40.1000   29.3050   43.3880 H   0  0  0  0  0  0  0  0  0  0  0  0
   40.9200   29.6330   41.3800 N   0  0  0  0  0  0  0  0  0  0  0  0
   41.0400   28.6590   41.0060 H   0  0  0  0  0  0  0  0  0  0  0  0
   41.2050   30.7930   40.7670 N   0  0  0  0  0  0  0  0  0  0  0  0
  1  9  1  0  0  0  0
  2  3  1  0  0  0  0
  2  1  2  0  0  0  0
  3  4  2  0  0  0  0
  4  5  1  0  0  0  0
  4  8  1  0  0  0  0
  5  6  1  0  0  0  0
  6  7  2  0  0  0  0
  6 12  1  0  0  0  0
  8  7  1  0  0  0  0
  9  8  2  0  0  0  0
  9 13  1  0  0  0  0
 10  1  1  0  0  0  0
 11  5  1  0  0  0  0
 14 19  1  0  0  0  0
 15 14  2  0  0  0  0
 15 16  1  0  0  0  0
 16 17  2  0  0  0  0
 17 18  1  0  0  0  0
 18  2  1  0  0  0  0
 19 18  2  0  0  0  0
 20 14  1  0  0  0  0
 21 15  1  0  0  0  0
 22 16  1  0  0  0  0
 23  3  1  0  0  0  0
 24 30  1  0  0  0  0
 25 31  1  6  0  0  0
 25 23  1  0  0  0  0
 25 24  1  0  0  0  0
 26 33  1  0  0  0  0
 26 25  1  0  0  0  0
 27 26  1  0  0  0  0
 27 28  1  0  0  0  0
 28 29  1  0  0  0  0
 29 37  1  0  0  0  0
 29 24  1  0  0  0  0
 29 36  1  1  0  0  0
 32 26  1  0  0  0  0
 34 28  1  0  0  0  0
 35 28  1  0  0  0  0
 37 38  1  0  0  0  0
 39 38  2  0  0  0  0
 39 40  1  0  0  0  0
 41 39  1  0  0  0  0
 42 41  1  0  0  0  0
 43 41  1  0  0  0  0
 43 37  2  0  0  0  0
M  END
>  <minimizedAffinity>
-5.70980883

>  <minimizedRMSD>
2.32504416

$$$$
