REMARK  Name = 
REMARK  4 active torsions:
REMARK  status: ('A' for Active; 'I' for Inactive)
REMARK    1  A    between atoms: C_1  and  C_21
REMARK    2  A    between atoms: C_2  and  C_9
REMARK    3  A    between atoms: C_6  and  C_14
REMARK    4  A    between atoms: C_19  and  C_33
REMARK                            x       y       z     vdW  Elec       q    Type
REMARK                         _______ _______ _______ _____ _____    ______ ____
ROOT
ATOM      1  C   UNL     1      45.127  33.947  40.697  0.00  0.00    +0.000 A 
ATOM      2  C   UNL     1      44.082  33.637  39.872  0.00  0.00    +0.000 A 
ATOM      3  C   UNL     1      44.381  33.156  38.635  0.00  0.00    +0.000 A 
ATOM      4  C   UNL     1      45.666  32.966  38.174  0.00  0.00    +0.000 A 
ATOM      5  C   UNL     1      46.693  33.286  39.026  0.00  0.00    +0.000 A 
ATOM      6  C   UNL     1      46.441  33.777  40.288  0.00  0.00    +0.000 A 
ATOM      7  H   UNL     1      43.558  32.907  37.973  0.00  0.00    +0.000 HD
ATOM      8  H   UNL     1      45.888  32.578  37.177  0.00  0.00    +0.000 HD
ATOM      9  H   UNL     1      47.700  33.136  38.661  0.00  0.00    +0.000 HD
ENDROOT
BRANCH   2  12
ATOM     10  C   UNL     1      40.795  35.256  40.793  0.00  0.00    +0.000 A 
ATOM     11  C   UNL     1      42.090  35.086  40.276  0.00  0.00    +0.000 A 
ATOM     12  C   UNL     1      42.747  33.850  40.392  0.00  0.00    +0.000 A 
ATOM     13  N   UNL     1      42.034  32.885  41.026  0.00  0.00    +0.000 NA
ATOM     14  C   UNL     1      40.804  33.060  41.512  0.00  0.00    +0.000 A 
ATOM     15  N   UNL     1      40.189  34.247  41.393  0.00  0.00    +0.000 NA
ATOM     16  N   UNL     1      40.185  36.515  40.648  0.00  0.00    +0.000 N 
ATOM     17  H   UNL     1      42.658  35.859  39.770  0.00  0.00    +0.000 HD
ATOM     18  H   UNL     1      40.378  32.184  41.989  0.00  0.00    +0.000 HD
ATOM     19  H   UNL     1      40.717  37.248  41.164  0.00  0.00    +0.000 HD
ATOM     20  H   UNL     1      39.306  36.682  40.087  0.00  0.00    +0.000 HD
ENDBRANCH   2  12
BRANCH   6  21
ATOM     21  C   UNL     1      47.607  34.087  41.117  0.00  0.00    +0.000 A 
ATOM     22  C   UNL     1      48.143  35.334  40.941  0.00  0.00    +0.000 A 
ATOM     23  C   UNL     1      49.252  35.794  41.646  0.00  0.00    +0.000 A 
ATOM     24  C   UNL     1      49.826  34.928  42.569  0.00  0.00    +0.000 A 
ATOM     25  C   UNL     1      49.301  33.675  42.758  0.00  0.00    +0.000 A 
ATOM     26  C   UNL     1      48.198  33.245  42.042  0.00  0.00    +0.000 A 
ATOM     27  H   UNL     1      47.756  36.066  40.244  0.00  0.00    +0.000 HD
ATOM     28  H   UNL     1      49.675  36.761  41.516  0.00  0.00    +0.000 HD
ATOM     29  H   UNL     1      50.690  35.197  43.164  0.00  0.00    +0.000 HD
ATOM     30  H   UNL     1      49.706  32.959  43.462  0.00  0.00    +0.000 HD
BRANCH  26  31
ATOM     31  C   UNL     1      47.584  31.918  42.193  0.00  0.00    +0.000 A 
ATOM     32  N   UNL     1      48.175  30.705  42.267  0.00  0.00    +0.000 NA
ATOM     33  C   UNL     1      47.199  29.765  42.403  0.00  0.00    +0.000 A 
ATOM     34  H   UNL     1      47.632  28.767  42.466  0.00  0.00    +0.000 HD
ATOM     35  N   UNL     1      46.030  30.432  42.409  0.00  0.00    +0.000 N 
ATOM     36  H   UNL     1      45.194  29.796  42.511  0.00  0.00    +0.000 HD
ATOM     37  N   UNL     1      46.243  31.713  42.285  0.00  0.00    +0.000 NA
ENDBRANCH  26  31
ENDBRANCH   6  21
BRANCH   1  39
ATOM     38  N   UNL     1      44.719  34.866  43.102  0.00  0.00    +0.000 NA
ATOM     39  C   UNL     1      44.905  34.460  42.017  0.00  0.00    +0.000 C 
ENDBRANCH   1  39
TORSDOF 4
