
 OpenBabel03242516303D

 44 48  0  0  0  0  0  0  0  0999 V2000
   37.0790   27.0170   41.2280 C   0  0  0  0  0  0  0  0  0  0  0  0
   36.5740   26.1820   40.2720 N   0  0  0  0  0  0  0  0  0  0  0  0
   36.9860   24.9320   40.0900 C   0  0  0  0  0  0  0  0  0  0  0  0
   37.9490   24.4770   40.8950 N   0  0  0  0  0  0  0  0  0  0  0  0
   38.4990   25.2250   41.8540 C   0  0  0  0  0  0  0  0  0  0  0  0
   39.4940   24.7590   42.7050 C   0  0  0  0  0  0  0  0  0  0  0  0
   40.0290   25.5340   43.6790 C   0  0  0  0  0  0  0  0  0  0  0  0
   39.5960   26.8100   43.8470 C   0  0  0  0  0  0  0  0  0  0  0  0
   38.5970   27.3370   43.0200 C   0  0  0  0  0  0  0  0  0  0  0  0
   38.0660   26.5440   42.0450 C   0  0  0  0  0  0  0  0  0  0  0  0
   36.5370   24.3330   39.3120 H   0  0  0  0  0  0  0  0  0  0  0  0
   39.7930   23.7400   42.5200 H   0  0  0  0  0  0  0  0  0  0  0  0
   40.8070   25.1130   44.3180 H   0  0  0  0  0  0  0  0  0  0  0  0
   40.0640   27.3830   44.6430 H   0  0  0  0  0  0  0  0  0  0  0  0
   38.2320   28.7490   43.2680 C   0  0  0  0  0  0  0  0  0  0  0  0
   37.4510   29.1560   42.6240 H   0  0  0  0  0  0  0  0  0  0  0  0
   38.2190   29.0400   44.3370 H   0  0  0  0  0  0  0  0  0  0  0  0
   39.3660   29.6600   42.8120 C   0  0  0  0  0  0  0  0  0  0  0  0
   40.4300   29.3650   42.0060 N   0  0  0  0  0  0  0  0  0  0  0  0
   41.2100   30.4410   41.8470 C   0  0  0  0  0  0  0  0  0  0  0  0
   42.1090   30.4240   41.2450 H   0  0  0  0  0  0  0  0  0  0  0  0
   40.6520   31.4390   42.5490 N   0  0  0  0  0  0  0  0  0  0  0  0
   41.0210   32.4110   42.6280 H   0  0  0  0  0  0  0  0  0  0  0  0
   39.5740   30.9730   43.1110 N   0  0  0  0  0  0  0  0  0  0  0  0
   36.4710   28.6130   41.4500 S   0  0  0  0  0  0  0  0  0  0  0  0
   37.9210   31.6580   39.2980 C   0  0  0  0  0  0  0  0  0  0  0  0
   37.6210   30.7810   40.3320 C   0  0  0  0  0  0  0  0  0  0  0  0
   36.8420   29.6750   40.1080 C   0  0  0  0  0  0  0  0  0  0  0  0
   36.3440   29.4170   38.8520 C   0  0  0  0  0  0  0  0  0  0  0  0
   36.6120   30.2490   37.8070 C   0  0  0  0  0  0  0  0  0  0  0  0
   37.3990   31.3580   38.0540 C   0  0  0  0  0  0  0  0  0  0  0  0
   38.0310   31.0200   41.3000 H   0  0  0  0  0  0  0  0  0  0  0  0
   35.7380   28.5400   38.7160 H   0  0  0  0  0  0  0  0  0  0  0  0
   36.2170   30.0380   36.8210 H   0  0  0  0  0  0  0  0  0  0  0  0
   37.6110   32.0130   37.2360 H   0  0  0  0  0  0  0  0  0  0  0  0
   38.8260   35.0610   40.2680 C   0  0  0  0  0  0  0  0  0  0  0  0
   40.2290   35.0990   40.0710 C   0  0  0  0  0  0  0  0  0  0  0  0
   40.8610   33.9500   39.6030 C   0  0  0  0  0  0  0  0  0  0  0  0
   40.1270   32.8220   39.3460 N   0  0  0  0  0  0  0  0  0  0  0  0
   38.7580   32.8390   39.5560 C   0  0  0  0  0  0  0  0  0  0  0  0
   38.1160   33.9450   40.0100 N   0  0  0  0  0  0  0  0  0  0  0  0
   38.2780   35.9180   40.6280 H   0  0  0  0  0  0  0  0  0  0  0  0
   40.7700   36.0100   40.2860 H   0  0  0  0  0  0  0  0  0  0  0  0
   41.9300   33.9370   39.4400 H   0  0  0  0  0  0  0  0  0  0  0  0
  1 25  1  0  0  0  0
  1 10  1  0  0  0  0
  2  1  2  0  0  0  0
  3  2  1  0  0  0  0
  3  4  2  0  0  0  0
  4  5  1  0  0  0  0
  5 10  2  0  0  0  0
  5  6  1  0  0  0  0
  6  7  2  0  0  0  0
  7  8  1  0  0  0  0
  7 13  1  0  0  0  0
  8 14  1  0  0  0  0
  9 15  1  0  0  0  0
  9  8  2  0  0  0  0
 10  9  1  0  0  0  0
 11  3  1  0  0  0  0
 12  6  1  0  0  0  0
 15 17  1  0  0  0  0
 16 15  1  0  0  0  0
 18 24  2  0  0  0  0
 18 15  1  0  0  0  0
 19 18  1  0  0  0  0
 20 19  2  0  0  0  0
 20 22  1  0  0  0  0
 21 20  1  0  0  0  0
 22 23  1  0  0  0  0
 22 24  1  0  0  0  0
 26 40  1  0  0  0  0
 26 27  1  0  0  0  0
 27 32  1  0  0  0  0
 28 27  2  0  0  0  0
 28 25  1  0  0  0  0
 29 28  1  0  0  0  0
 30 31  1  0  0  0  0
 30 29  2  0  0  0  0
 31 26  2  0  0  0  0
 33 29  1  0  0  0  0
 34 30  1  0  0  0  0
 35 31  1  0  0  0  0
 36 42  1  0  0  0  0
 37 36  1  0  0  0  0
 37 43  1  0  0  0  0
 38 37  2  0  0  0  0
 39 40  2  0  0  0  0
 39 38  1  0  0  0  0
 40 41  1  0  0  0  0
 41 36  2  0  0  0  0
 44 38  1  0  0  0  0
M  END
>  <minimizedAffinity>
-6.96964264

$$$$

 OpenBabel03242516303D

 44 48  0  0  0  0  0  0  0  0999 V2000
   36.6560   28.3000   40.3360 C   0  0  0  0  0  0  0  0  0  0  0  0
   36.2780   28.6260   39.0650 N   0  0  0  0  0  0  0  0  0  0  0  0
   36.0100   27.7290   38.1210 C   0  0  0  0  0  0  0  0  0  0  0  0
   36.1200   26.4400   38.4470 N   0  0  0  0  0  0  0  0  0  0  0  0
   36.4850   26.0340   39.6650 C   0  0  0  0  0  0  0  0  0  0  0  0
   36.5920   24.6940   40.0190 C   0  0  0  0  0  0  0  0  0  0  0  0
   36.9540   24.3060   41.2660 C   0  0  0  0  0  0  0  0  0  0  0  0
   37.2270   25.2370   42.2150 C   0  0  0  0  0  0  0  0  0  0  0  0
   37.1370   26.6020   41.9190 C   0  0  0  0  0  0  0  0  0  0  0  0
   36.7690   26.9780   40.6600 C   0  0  0  0  0  0  0  0  0  0  0  0
   35.7160   28.0670   37.1380 H   0  0  0  0  0  0  0  0  0  0  0  0
   36.3630   24.0060   39.2210 H   0  0  0  0  0  0  0  0  0  0  0  0
   37.0200   23.2380   41.4850 H   0  0  0  0  0  0  0  0  0  0  0  0
   37.5120   24.8650   43.1950 H   0  0  0  0  0  0  0  0  0  0  0  0
   37.4940   27.5260   43.0180 C   0  0  0  0  0  0  0  0  0  0  0  0
   37.5330   28.5840   42.7530 H   0  0  0  0  0  0  0  0  0  0  0  0
   37.0610   27.2590   44.0020 H   0  0  0  0  0  0  0  0  0  0  0  0
   38.9650   27.3520   43.3760 C   0  0  0  0  0  0  0  0  0  0  0  0
   40.0560   27.9880   42.8510 N   0  0  0  0  0  0  0  0  0  0  0  0
   41.1790   27.5490   43.4330 C   0  0  0  0  0  0  0  0  0  0  0  0
   42.1580   27.9230   43.1630 H   0  0  0  0  0  0  0  0  0  0  0  0
   40.8190   26.6290   44.3390 N   0  0  0  0  0  0  0  0  0  0  0  0
   41.4660   26.0970   44.9610 H   0  0  0  0  0  0  0  0  0  0  0  0
   39.5220   26.5190   44.2990 N   0  0  0  0  0  0  0  0  0  0  0  0
   36.9430   29.5050   41.5340 S   0  0  0  0  0  0  0  0  0  0  0  0
   39.4640   32.4890   40.6680 C   0  0  0  0  0  0  0  0  0  0  0  0
   38.9060   31.3170   41.1610 C   0  0  0  0  0  0  0  0  0  0  0  0
   37.6090   30.9820   40.8670 C   0  0  0  0  0  0  0  0  0  0  0  0
   36.8390   31.8030   40.0760 C   0  0  0  0  0  0  0  0  0  0  0  0
   37.3440   32.9630   39.5700 C   0  0  0  0  0  0  0  0  0  0  0  0
   38.6520   33.2830   39.8790 C   0  0  0  0  0  0  0  0  0  0  0  0
   39.5430   30.7020   41.7760 H   0  0  0  0  0  0  0  0  0  0  0  0
   35.8280   31.5050   39.8680 H   0  0  0  0  0  0  0  0  0  0  0  0
   36.7310   33.6040   38.9490 H   0  0  0  0  0  0  0  0  0  0  0  0
   39.0510   34.1920   39.4830 H   0  0  0  0  0  0  0  0  0  0  0  0
   42.8360   32.1650   42.0320 C   0  0  0  0  0  0  0  0  0  0  0  0
   43.4640   33.3770   41.6510 C   0  0  0  0  0  0  0  0  0  0  0  0
   42.7240   34.3040   40.9240 C   0  0  0  0  0  0  0  0  0  0  0  0
   41.4210   34.0330   40.5950 N   0  0  0  0  0  0  0  0  0  0  0  0
   40.8560   32.8340   40.9930 C   0  0  0  0  0  0  0  0  0  0  0  0
   41.5540   31.9120   41.7030 N   0  0  0  0  0  0  0  0  0  0  0  0
   43.3560   31.4060   42.5970 H   0  0  0  0  0  0  0  0  0  0  0  0
   44.4940   33.5510   41.9310 H   0  0  0  0  0  0  0  0  0  0  0  0
   43.1670   35.2400   40.6130 H   0  0  0  0  0  0  0  0  0  0  0  0
  1 10  1  0  0  0  0
  1 25  1  0  0  0  0
  2  1  2  0  0  0  0
  3  4  2  0  0  0  0
  3  2  1  0  0  0  0
  4  5  1  0  0  0  0
  5  6  2  0  0  0  0
  5 10  1  0  0  0  0
  6  7  1  0  0  0  0
  7 13  1  0  0  0  0
  7  8  2  0  0  0  0
  8 14  1  0  0  0  0
  9  8  1  0  0  0  0
  9 15  1  0  0  0  0
 10  9  2  0  0  0  0
 11  3  1  0  0  0  0
 12  6  1  0  0  0  0
 15 18  1  0  0  0  0
 15 17  1  0  0  0  0
 16 15  1  0  0  0  0
 18 24  2  0  0  0  0
 19 18  1  0  0  0  0
 19 20  2  0  0  0  0
 20 22  1  0  0  0  0
 21 20  1  0  0  0  0
 22 23  1  0  0  0  0
 24 22  1  0  0  0  0
 26 40  1  0  0  0  0
 26 27  1  0  0  0  0
 27 32  1  0  0  0  0
 28 27  2  0  0  0  0
 28 25  1  0  0  0  0
 29 28  1  0  0  0  0
 30 31  1  0  0  0  0
 30 29  2  0  0  0  0
 31 26  2  0  0  0  0
 33 29  1  0  0  0  0
 34 30  1  0  0  0  0
 35 31  1  0  0  0  0
 36 42  1  0  0  0  0
 37 43  1  0  0  0  0
 37 36  2  0  0  0  0
 38 37  1  0  0  0  0
 39 38  2  0  0  0  0
 39 40  1  0  0  0  0
 40 41  2  0  0  0  0
 41 36  1  0  0  0  0
 44 38  1  0  0  0  0
M  END
>  <minimizedAffinity>
-6.74227142

$$$$

 OpenBabel03242516303D

 44 48  0  0  0  0  0  0  0  0999 V2000
   38.8910   30.1320   42.2450 C   0  0  0  0  0  0  0  0  0  0  0  0
   40.1630   30.3060   42.7120 N   0  0  0  0  0  0  0  0  0  0  0  0
   41.0140   31.2000   42.2210 C   0  0  0  0  0  0  0  0  0  0  0  0
   40.5900   31.9670   41.2150 N   0  0  0  0  0  0  0  0  0  0  0  0
   39.3640   31.8640   40.6980 C   0  0  0  0  0  0  0  0  0  0  0  0
   38.9070   32.6650   39.6580 C   0  0  0  0  0  0  0  0  0  0  0  0
   37.6540   32.5480   39.1560 C   0  0  0  0  0  0  0  0  0  0  0  0
   36.8000   31.6250   39.6690 C   0  0  0  0  0  0  0  0  0  0  0  0
   37.2020   30.7890   40.7170 C   0  0  0  0  0  0  0  0  0  0  0  0
   38.4660   30.9200   41.2140 C   0  0  0  0  0  0  0  0  0  0  0  0
   42.0040   31.2770   42.6450 H   0  0  0  0  0  0  0  0  0  0  0  0
   39.6320   33.3760   39.2950 H   0  0  0  0  0  0  0  0  0  0  0  0
   37.3510   33.2060   38.3400 H   0  0  0  0  0  0  0  0  0  0  0  0
   35.8090   31.5790   39.2260 H   0  0  0  0  0  0  0  0  0  0  0  0
   36.2030   29.7960   41.1700 C   0  0  0  0  0  0  0  0  0  0  0  0
   36.6020   28.9390   41.7150 H   0  0  0  0  0  0  0  0  0  0  0  0
   35.2490   30.2330   41.5270 H   0  0  0  0  0  0  0  0  0  0  0  0
   35.6540   29.0360   39.9680 C   0  0  0  0  0  0  0  0  0  0  0  0
   36.2680   28.0850   39.2030 N   0  0  0  0  0  0  0  0  0  0  0  0
   35.4480   27.6620   38.2330 C   0  0  0  0  0  0  0  0  0  0  0  0
   35.7390   26.9080   37.5130 H   0  0  0  0  0  0  0  0  0  0  0  0
   34.2980   28.3370   38.3680 N   0  0  0  0  0  0  0  0  0  0  0  0
   33.4540   28.2360   37.7630 H   0  0  0  0  0  0  0  0  0  0  0  0
   34.4270   29.1400   39.3860 N   0  0  0  0  0  0  0  0  0  0  0  0
   37.8140   28.9890   42.9530 S   0  0  0  0  0  0  0  0  0  0  0  0
   38.2870   25.1420   41.9600 C   0  0  0  0  0  0  0  0  0  0  0  0
   37.8440   26.4570   42.0250 C   0  0  0  0  0  0  0  0  0  0  0  0
   38.4250   27.3480   42.8900 C   0  0  0  0  0  0  0  0  0  0  0  0
   39.4580   26.9540   43.7080 C   0  0  0  0  0  0  0  0  0  0  0  0
   39.9250   25.6750   43.6790 C   0  0  0  0  0  0  0  0  0  0  0  0
   39.3260   24.7920   42.8010 C   0  0  0  0  0  0  0  0  0  0  0  0
   37.0330   26.7250   41.3670 H   0  0  0  0  0  0  0  0  0  0  0  0
   39.8870   27.6820   44.3710 H   0  0  0  0  0  0  0  0  0  0  0  0
   40.7380   25.3720   44.3260 H   0  0  0  0  0  0  0  0  0  0  0  0
   39.6910   23.7870   42.7750 H   0  0  0  0  0  0  0  0  0  0  0  0
   35.8920   23.8130   39.5430 C   0  0  0  0  0  0  0  0  0  0  0  0
   36.3910   22.5160   39.2630 C   0  0  0  0  0  0  0  0  0  0  0  0
   37.5530   22.1020   39.9090 C   0  0  0  0  0  0  0  0  0  0  0  0
   38.1830   22.9430   40.7890 N   0  0  0  0  0  0  0  0  0  0  0  0
   37.6530   24.1990   41.0270 C   0  0  0  0  0  0  0  0  0  0  0  0
   36.5210   24.6280   40.4120 N   0  0  0  0  0  0  0  0  0  0  0  0
   34.9970   24.1930   39.0760 H   0  0  0  0  0  0  0  0  0  0  0  0
   35.8630   21.8850   38.5620 H   0  0  0  0  0  0  0  0  0  0  0  0
   37.9660   21.1210   39.7220 H   0  0  0  0  0  0  0  0  0  0  0  0
  1  2  1  0  0  0  0
  1 25  1  0  0  0  0
  3 11  1  0  0  0  0
  3  2  2  0  0  0  0
  4  3  1  0  0  0  0
  5 10  1  0  0  0  0
  5  4  2  0  0  0  0
  6  5  1  0  0  0  0
  7  6  2  0  0  0  0
  7  8  1  0  0  0  0
  8  9  2  0  0  0  0
  9 15  1  0  0  0  0
  9 10  1  0  0  0  0
 10  1  2  0  0  0  0
 12  6  1  0  0  0  0
 13  7  1  0  0  0  0
 14  8  1  0  0  0  0
 15 17  1  0  0  0  0
 15 16  1  0  0  0  0
 18 15  1  0  0  0  0
 19 18  1  0  0  0  0
 20 22  1  0  0  0  0
 20 19  2  0  0  0  0
 21 20  1  0  0  0  0
 22 24  1  0  0  0  0
 23 22  1  0  0  0  0
 24 18  2  0  0  0  0
 26 27  2  0  0  0  0
 26 31  1  0  0  0  0
 27 28  1  0  0  0  0
 28 25  1  0  0  0  0
 28 29  2  0  0  0  0
 29 33  1  0  0  0  0
 30 29  1  0  0  0  0
 30 34  1  0  0  0  0
 31 30  2  0  0  0  0
 32 27  1  0  0  0  0
 35 31  1  0  0  0  0
 36 41  1  0  0  0  0
 37 36  2  0  0  0  0
 37 38  1  0  0  0  0
 38 39  2  0  0  0  0
 39 40  1  0  0  0  0
 40 26  1  0  0  0  0
 41 40  2  0  0  0  0
 42 36  1  0  0  0  0
 43 37  1  0  0  0  0
 44 38  1  0  0  0  0
M  END
>  <minimizedAffinity>
-6.36752701

$$$$

 OpenBabel03242516303D

 44 48  0  0  0  0  0  0  0  0999 V2000
   36.3850   29.5930   40.3280 C   0  0  0  0  0  0  0  0  0  0  0  0
   35.1980   28.9290   40.1970 N   0  0  0  0  0  0  0  0  0  0  0  0
   34.5440   28.8040   39.0470 C   0  0  0  0  0  0  0  0  0  0  0  0
   35.0890   29.3640   37.9640 N   0  0  0  0  0  0  0  0  0  0  0  0
   36.2440   30.0310   38.0030 C   0  0  0  0  0  0  0  0  0  0  0  0
   36.8260   30.6080   36.8800 C   0  0  0  0  0  0  0  0  0  0  0  0
   38.0060   31.2720   36.9420 C   0  0  0  0  0  0  0  0  0  0  0  0
   38.6570   31.3910   38.1280 C   0  0  0  0  0  0  0  0  0  0  0  0
   38.1200   30.8320   39.2930 C   0  0  0  0  0  0  0  0  0  0  0  0
   36.9330   30.1640   39.2150 C   0  0  0  0  0  0  0  0  0  0  0  0
   33.6100   28.2630   39.0240 H   0  0  0  0  0  0  0  0  0  0  0  0
   36.2600   30.4790   35.9720 H   0  0  0  0  0  0  0  0  0  0  0  0
   38.4140   31.7040   36.0270 H   0  0  0  0  0  0  0  0  0  0  0  0
   39.5980   31.9350   38.1150 H   0  0  0  0  0  0  0  0  0  0  0  0
   38.8960   31.0570   40.5330 C   0  0  0  0  0  0  0  0  0  0  0  0
   38.3340   30.9700   41.4650 H   0  0  0  0  0  0  0  0  0  0  0  0
   39.9240   30.6450   40.5140 H   0  0  0  0  0  0  0  0  0  0  0  0
   39.2580   32.5330   40.6510 C   0  0  0  0  0  0  0  0  0  0  0  0
   38.4280   33.6180   40.6860 N   0  0  0  0  0  0  0  0  0  0  0  0
   39.1380   34.7480   40.7910 C   0  0  0  0  0  0  0  0  0  0  0  0
   38.6740   35.7250   40.8340 H   0  0  0  0  0  0  0  0  0  0  0  0
   40.4320   34.3980   40.8250 N   0  0  0  0  0  0  0  0  0  0  0  0
   41.2410   35.0520   40.9030 H   0  0  0  0  0  0  0  0  0  0  0  0
   40.4940   33.1000   40.7430 N   0  0  0  0  0  0  0  0  0  0  0  0
   37.2130   29.6800   41.8350 S   0  0  0  0  0  0  0  0  0  0  0  0
   38.1910   25.8020   41.9350 C   0  0  0  0  0  0  0  0  0  0  0  0
   37.6360   27.0280   41.5930 C   0  0  0  0  0  0  0  0  0  0  0  0
   37.9610   28.1630   42.2900 C   0  0  0  0  0  0  0  0  0  0  0  0
   38.8450   28.1040   43.3420 C   0  0  0  0  0  0  0  0  0  0  0  0
   39.4150   26.9250   43.7140 C   0  0  0  0  0  0  0  0  0  0  0  0
   39.0740   25.7930   42.9990 C   0  0  0  0  0  0  0  0  0  0  0  0
   36.9480   27.0290   40.7620 H   0  0  0  0  0  0  0  0  0  0  0  0
   39.0750   29.0150   43.8630 H   0  0  0  0  0  0  0  0  0  0  0  0
   40.1100   26.8870   44.5430 H   0  0  0  0  0  0  0  0  0  0  0  0
   39.5200   24.8650   43.2880 H   0  0  0  0  0  0  0  0  0  0  0  0
   36.1950   23.4940   39.9270 C   0  0  0  0  0  0  0  0  0  0  0  0
   37.0600   22.3880   39.7390 C   0  0  0  0  0  0  0  0  0  0  0  0
   38.3310   22.4390   40.3040 C   0  0  0  0  0  0  0  0  0  0  0  0
   38.7160   23.5410   41.0220 N   0  0  0  0  0  0  0  0  0  0  0  0
   37.8320   24.5950   41.1760 C   0  0  0  0  0  0  0  0  0  0  0  0
   36.5870   24.5710   40.6360 N   0  0  0  0  0  0  0  0  0  0  0  0
   35.1980   23.5160   39.5150 H   0  0  0  0  0  0  0  0  0  0  0  0
   36.7170   21.5380   39.1650 H   0  0  0  0  0  0  0  0  0  0  0  0
   39.0210   21.6160   40.1830 H   0  0  0  0  0  0  0  0  0  0  0  0
  1 25  1  0  0  0  0
  2  1  1  0  0  0  0
  3  2  2  0  0  0  0
  4  5  2  0  0  0  0
  4  3  1  0  0  0  0
  5 10  1  0  0  0  0
  6  7  2  0  0  0  0
  6  5  1  0  0  0  0
  7  8  1  0  0  0  0
  8  9  2  0  0  0  0
  9 15  1  0  0  0  0
 10  9  1  0  0  0  0
 10  1  2  0  0  0  0
 11  3  1  0  0  0  0
 12  6  1  0  0  0  0
 13  7  1  0  0  0  0
 14  8  1  0  0  0  0
 15 18  1  0  0  0  0
 15 16  1  0  0  0  0
 17 15  1  0  0  0  0
 18 19  1  0  0  0  0
 18 24  2  0  0  0  0
 19 20  2  0  0  0  0
 20 22  1  0  0  0  0
 20 21  1  0  0  0  0
 22 23  1  0  0  0  0
 24 22  1  0  0  0  0
 25 28  1  0  0  0  0
 26 31  1  0  0  0  0
 27 26  2  0  0  0  0
 27 28  1  0  0  0  0
 28 29  2  0  0  0  0
 29 30  1  0  0  0  0
 29 33  1  0  0  0  0
 30 34  1  0  0  0  0
 31 35  1  0  0  0  0
 31 30  2  0  0  0  0
 32 27  1  0  0  0  0
 36 41  1  0  0  0  0
 37 36  2  0  0  0  0
 37 38  1  0  0  0  0
 38 39  2  0  0  0  0
 39 40  1  0  0  0  0
 40 26  1  0  0  0  0
 41 40  2  0  0  0  0
 42 36  1  0  0  0  0
 43 37  1  0  0  0  0
 44 38  1  0  0  0  0
M  END
>  <minimizedAffinity>
-6.33924294

$$$$

 OpenBabel03242516303D

 44 48  0  0  0  0  0  0  0  0999 V2000
   37.5790   28.6380   40.9380 C   0  0  0  0  0  0  0  0  0  0  0  0
   37.7870   29.2640   42.1340 N   0  0  0  0  0  0  0  0  0  0  0  0
   37.7280   28.6490   43.3100 C   0  0  0  0  0  0  0  0  0  0  0  0
   37.4480   27.3440   43.3100 N   0  0  0  0  0  0  0  0  0  0  0  0
   37.2300   26.6550   42.1880 C   0  0  0  0  0  0  0  0  0  0  0  0
   36.9490   25.2940   42.1740 C   0  0  0  0  0  0  0  0  0  0  0  0
   36.7410   24.6130   41.0210 C   0  0  0  0  0  0  0  0  0  0  0  0
   36.8030   25.2610   39.8300 C   0  0  0  0  0  0  0  0  0  0  0  0
   37.0810   26.6310   39.7780 C   0  0  0  0  0  0  0  0  0  0  0  0
   37.2910   27.3030   40.9470 C   0  0  0  0  0  0  0  0  0  0  0  0
   37.9050   29.2140   44.2130 H   0  0  0  0  0  0  0  0  0  0  0  0
   36.9130   24.8390   43.1520 H   0  0  0  0  0  0  0  0  0  0  0  0
   36.5250   23.5440   41.0730 H   0  0  0  0  0  0  0  0  0  0  0  0
   36.6280   24.6620   38.9400 H   0  0  0  0  0  0  0  0  0  0  0  0
   37.0860   27.2390   38.4290 C   0  0  0  0  0  0  0  0  0  0  0  0
   37.1630   28.3280   38.4010 H   0  0  0  0  0  0  0  0  0  0  0  0
   37.6500   26.6650   37.6680 H   0  0  0  0  0  0  0  0  0  0  0  0
   35.7000   27.1170   37.8070 C   0  0  0  0  0  0  0  0  0  0  0  0
   35.2610   26.2340   36.8600 N   0  0  0  0  0  0  0  0  0  0  0  0
   33.9720   26.4570   36.5740 C   0  0  0  0  0  0  0  0  0  0  0  0
   33.4280   25.8680   35.8470 H   0  0  0  0  0  0  0  0  0  0  0  0
   33.5720   27.4850   37.3360 N   0  0  0  0  0  0  0  0  0  0  0  0
   32.6160   27.9030   37.3470 H   0  0  0  0  0  0  0  0  0  0  0  0
   34.5890   27.8660   38.0540 N   0  0  0  0  0  0  0  0  0  0  0  0
   37.7180   29.4760   39.4390 S   0  0  0  0  0  0  0  0  0  0  0  0
   39.5610   32.9270   40.2760 C   0  0  0  0  0  0  0  0  0  0  0  0
   39.2750   31.5820   40.0820 C   0  0  0  0  0  0  0  0  0  0  0  0
   38.0380   31.1860   39.6430 C   0  0  0  0  0  0  0  0  0  0  0  0
   37.0590   32.1180   39.3860 C   0  0  0  0  0  0  0  0  0  0  0  0
   37.2940   33.4480   39.5610 C   0  0  0  0  0  0  0  0  0  0  0  0
   38.5460   33.8260   40.0040 C   0  0  0  0  0  0  0  0  0  0  0  0
   40.0700   30.8850   40.2960 H   0  0  0  0  0  0  0  0  0  0  0  0
   36.1030   31.7680   39.0420 H   0  0  0  0  0  0  0  0  0  0  0  0
   36.5180   34.1750   39.3560 H   0  0  0  0  0  0  0  0  0  0  0  0
   38.7350   34.8690   40.1430 H   0  0  0  0  0  0  0  0  0  0  0  0
   42.3840   35.0980   41.0870 C   0  0  0  0  0  0  0  0  0  0  0  0
   43.3520   34.2020   41.6030 C   0  0  0  0  0  0  0  0  0  0  0  0
   43.0300   32.8490   41.6710 C   0  0  0  0  0  0  0  0  0  0  0  0
   41.8020   32.4160   41.2440 N   0  0  0  0  0  0  0  0  0  0  0  0
   40.8930   33.3340   40.7470 C   0  0  0  0  0  0  0  0  0  0  0  0
   41.1810   34.6590   40.6690 N   0  0  0  0  0  0  0  0  0  0  0  0
   42.5730   36.1580   41.0070 H   0  0  0  0  0  0  0  0  0  0  0  0
   44.3090   34.5850   41.9290 H   0  0  0  0  0  0  0  0  0  0  0  0
   43.7410   32.1330   42.0600 H   0  0  0  0  0  0  0  0  0  0  0  0
  1 10  2  0  0  0  0
  1  2  1  0  0  0  0
  2  3  2  0  0  0  0
  3 11  1  0  0  0  0
  4  3  1  0  0  0  0
  5  4  2  0  0  0  0
  6  5  1  0  0  0  0
  6 12  1  0  0  0  0
  7 13  1  0  0  0  0
  7  6  2  0  0  0  0
  8  7  1  0  0  0  0
  9  8  2  0  0  0  0
  9 10  1  0  0  0  0
 10  5  1  0  0  0  0
 14  8  1  0  0  0  0
 15  9  1  0  0  0  0
 16 15  1  0  0  0  0
 17 15  1  0  0  0  0
 18 24  2  0  0  0  0
 18 15  1  0  0  0  0
 19 18  1  0  0  0  0
 20 19  2  0  0  0  0
 20 22  1  0  0  0  0
 21 20  1  0  0  0  0
 22 23  1  0  0  0  0
 22 24  1  0  0  0  0
 25 28  1  0  0  0  0
 25  1  1  0  0  0  0
 26 40  1  0  0  0  0
 27 26  1  0  0  0  0
 27 32  1  0  0  0  0
 28 27  2  0  0  0  0
 29 30  2  0  0  0  0
 29 28  1  0  0  0  0
 30 31  1  0  0  0  0
 31 35  1  0  0  0  0
 31 26  2  0  0  0  0
 33 29  1  0  0  0  0
 34 30  1  0  0  0  0
 36 37  1  0  0  0  0
 37 38  2  0  0  0  0
 37 43  1  0  0  0  0
 38 44  1  0  0  0  0
 39 38  1  0  0  0  0
 40 39  2  0  0  0  0
 41 40  1  0  0  0  0
 41 36  2  0  0  0  0
 42 36  1  0  0  0  0
M  END
>  <minimizedAffinity>
-6.32095146

$$$$

 OpenBabel03242516303D

 44 48  0  0  0  0  0  0  0  0999 V2000
   37.5900   25.9680   41.7550 C   0  0  0  0  0  0  0  0  0  0  0  0
   38.0490   24.6810   41.7510 N   0  0  0  0  0  0  0  0  0  0  0  0
   37.9040   23.8490   40.7250 C   0  0  0  0  0  0  0  0  0  0  0  0
   37.2730   24.3090   39.6430 N   0  0  0  0  0  0  0  0  0  0  0  0
   36.7930   25.5520   39.5630 C   0  0  0  0  0  0  0  0  0  0  0  0
   36.1440   26.0460   38.4370 C   0  0  0  0  0  0  0  0  0  0  0  0
   35.6740   27.3150   38.3760 C   0  0  0  0  0  0  0  0  0  0  0  0
   35.8290   28.1490   39.4360 C   0  0  0  0  0  0  0  0  0  0  0  0
   36.4730   27.7090   40.5980 C   0  0  0  0  0  0  0  0  0  0  0  0
   36.9440   26.4300   40.6450 C   0  0  0  0  0  0  0  0  0  0  0  0
   38.2950   22.8450   40.7980 H   0  0  0  0  0  0  0  0  0  0  0  0
   36.0520   25.3350   37.6320 H   0  0  0  0  0  0  0  0  0  0  0  0
   35.1740   27.6470   37.4640 H   0  0  0  0  0  0  0  0  0  0  0  0
   35.4310   29.1540   39.3280 H   0  0  0  0  0  0  0  0  0  0  0  0
   36.5520   28.6910   41.7030 C   0  0  0  0  0  0  0  0  0  0  0  0
   35.5990   28.9650   42.1600 H   0  0  0  0  0  0  0  0  0  0  0  0
   37.4240   28.5610   42.3730 H   0  0  0  0  0  0  0  0  0  0  0  0
   36.9120   30.0630   41.1450 C   0  0  0  0  0  0  0  0  0  0  0  0
   38.0990   30.4880   40.6170 N   0  0  0  0  0  0  0  0  0  0  0  0
   38.0120   31.7700   40.2410 C   0  0  0  0  0  0  0  0  0  0  0  0
   38.8430   32.3030   39.7970 H   0  0  0  0  0  0  0  0  0  0  0  0
   36.7670   32.1800   40.5240 N   0  0  0  0  0  0  0  0  0  0  0  0
   36.3830   33.1340   40.3510 H   0  0  0  0  0  0  0  0  0  0  0  0
   36.1300   31.1740   41.0530 N   0  0  0  0  0  0  0  0  0  0  0  0
   37.8510   27.0180   43.0960 S   0  0  0  0  0  0  0  0  0  0  0  0
   41.3800   28.9000   42.9870 C   0  0  0  0  0  0  0  0  0  0  0  0
   40.0400   28.5700   42.8300 C   0  0  0  0  0  0  0  0  0  0  0  0
   39.5420   27.4000   43.3430 C   0  0  0  0  0  0  0  0  0  0  0  0
   40.3640   26.5330   44.0240 C   0  0  0  0  0  0  0  0  0  0  0  0
   41.6850   26.8140   44.2030 C   0  0  0  0  0  0  0  0  0  0  0  0
   42.1670   27.9970   43.6780 C   0  0  0  0  0  0  0  0  0  0  0  0
   39.4300   29.2780   42.2900 H   0  0  0  0  0  0  0  0  0  0  0  0
   39.9360   25.6270   44.4120 H   0  0  0  0  0  0  0  0  0  0  0  0
   42.3250   26.1260   44.7410 H   0  0  0  0  0  0  0  0  0  0  0  0
   43.2030   28.2210   43.8170 H   0  0  0  0  0  0  0  0  0  0  0  0
   42.0780   31.5280   40.5480 C   0  0  0  0  0  0  0  0  0  0  0  0
   42.8170   32.4800   41.2920 C   0  0  0  0  0  0  0  0  0  0  0  0
   43.0740   32.2160   42.6340 C   0  0  0  0  0  0  0  0  0  0  0  0
   42.6150   31.0560   43.2030 N   0  0  0  0  0  0  0  0  0  0  0  0
   41.8970   30.1580   42.4310 C   0  0  0  0  0  0  0  0  0  0  0  0
   41.6330   30.3910   41.1200 N   0  0  0  0  0  0  0  0  0  0  0  0
   41.8460   31.6740   39.5040 H   0  0  0  0  0  0  0  0  0  0  0  0
   43.1610   33.3820   40.8050 H   0  0  0  0  0  0  0  0  0  0  0  0
   43.6330   32.9170   43.2370 H   0  0  0  0  0  0  0  0  0  0  0  0
  1 25  1  0  0  0  0
  2  1  1  0  0  0  0
  3 11  1  0  0  0  0
  3  2  2  0  0  0  0
  4  3  1  0  0  0  0
  5  4  2  0  0  0  0
  5 10  1  0  0  0  0
  6  5  1  0  0  0  0
  7  6  2  0  0  0  0
  7  8  1  0  0  0  0
  8  9  2  0  0  0  0
  9 10  1  0  0  0  0
  9 15  1  0  0  0  0
 10  1  2  0  0  0  0
 12  6  1  0  0  0  0
 13  7  1  0  0  0  0
 14  8  1  0  0  0  0
 15 16  1  0  0  0  0
 15 17  1  0  0  0  0
 18 15  1  0  0  0  0
 19 18  1  0  0  0  0
 20 22  1  0  0  0  0
 20 19  2  0  0  0  0
 21 20  1  0  0  0  0
 22 24  1  0  0  0  0
 23 22  1  0  0  0  0
 24 18  2  0  0  0  0
 25 28  1  0  0  0  0
 26 31  1  0  0  0  0
 27 26  2  0  0  0  0
 27 28  1  0  0  0  0
 28 29  2  0  0  0  0
 29 30  1  0  0  0  0
 29 33  1  0  0  0  0
 30 34  1  0  0  0  0
 31 35  1  0  0  0  0
 31 30  2  0  0  0  0
 32 27  1  0  0  0  0
 36 41  2  0  0  0  0
 36 37  1  0  0  0  0
 37 38  2  0  0  0  0
 38 39  1  0  0  0  0
 38 44  1  0  0  0  0
 40 26  1  0  0  0  0
 40 39  2  0  0  0  0
 41 40  1  0  0  0  0
 42 36  1  0  0  0  0
 43 37  1  0  0  0  0
M  END
>  <minimizedAffinity>
-6.32045555

$$$$

 OpenBabel03242516303D

 44 48  0  0  0  0  0  0  0  0999 V2000
   36.6700   29.0620   41.5800 C   0  0  0  0  0  0  0  0  0  0  0  0
   37.1050   29.1260   42.8740 N   0  0  0  0  0  0  0  0  0  0  0  0
   37.5510   28.0770   43.5560 C   0  0  0  0  0  0  0  0  0  0  0  0
   37.5690   26.8980   42.9310 N   0  0  0  0  0  0  0  0  0  0  0  0
   37.1620   26.7460   41.6690 C   0  0  0  0  0  0  0  0  0  0  0  0
   37.1880   25.5260   41.0040 C   0  0  0  0  0  0  0  0  0  0  0  0
   36.7780   25.3980   39.7180 C   0  0  0  0  0  0  0  0  0  0  0  0
   36.3240   26.4820   39.0390 C   0  0  0  0  0  0  0  0  0  0  0  0
   36.2730   27.7380   39.6560 C   0  0  0  0  0  0  0  0  0  0  0  0
   36.6910   27.8520   40.9490 C   0  0  0  0  0  0  0  0  0  0  0  0
   37.8780   28.2090   44.5770 H   0  0  0  0  0  0  0  0  0  0  0  0
   37.5580   24.7060   41.5980 H   0  0  0  0  0  0  0  0  0  0  0  0
   36.8230   24.4140   39.2480 H   0  0  0  0  0  0  0  0  0  0  0  0
   36.0090   26.3170   38.0120 H   0  0  0  0  0  0  0  0  0  0  0  0
   35.7240   28.8380   38.8330 C   0  0  0  0  0  0  0  0  0  0  0  0
   34.7020   28.6990   38.4770 H   0  0  0  0  0  0  0  0  0  0  0  0
   36.0170   29.8530   39.1670 H   0  0  0  0  0  0  0  0  0  0  0  0
   36.4120   28.8540   37.4730 C   0  0  0  0  0  0  0  0  0  0  0  0
   35.8660   28.6620   36.2340 N   0  0  0  0  0  0  0  0  0  0  0  0
   36.8090   28.7480   35.2880 C   0  0  0  0  0  0  0  0  0  0  0  0
   36.5900   28.6270   34.2350 H   0  0  0  0  0  0  0  0  0  0  0  0
   37.9700   28.9980   35.9110 N   0  0  0  0  0  0  0  0  0  0  0  0
   38.8980   29.1200   35.4500 H   0  0  0  0  0  0  0  0  0  0  0  0
   37.7290   29.0580   37.1900 N   0  0  0  0  0  0  0  0  0  0  0  0
   36.1490   30.4660   40.7280 S   0  0  0  0  0  0  0  0  0  0  0  0
   39.6640   32.3560   41.0140 C   0  0  0  0  0  0  0  0  0  0  0  0
   38.6380   31.4270   41.1230 C   0  0  0  0  0  0  0  0  0  0  0  0
   37.4190   31.6580   40.5400 C   0  0  0  0  0  0  0  0  0  0  0  0
   37.1940   32.8170   39.8340 C   0  0  0  0  0  0  0  0  0  0  0  0
   38.1700   33.7570   39.6990 C   0  0  0  0  0  0  0  0  0  0  0  0
   39.3910   33.5050   40.2950 C   0  0  0  0  0  0  0  0  0  0  0  0
   38.8560   30.5320   41.6850 H   0  0  0  0  0  0  0  0  0  0  0  0
   36.2260   32.9610   39.3900 H   0  0  0  0  0  0  0  0  0  0  0  0
   37.9840   34.6660   39.1420 H   0  0  0  0  0  0  0  0  0  0  0  0
   40.1590   34.2410   40.1920 H   0  0  0  0  0  0  0  0  0  0  0  0
   43.2220   32.6750   41.7760 C   0  0  0  0  0  0  0  0  0  0  0  0
   43.4380   31.6830   42.7650 C   0  0  0  0  0  0  0  0  0  0  0  0
   42.3560   30.9050   43.1670 C   0  0  0  0  0  0  0  0  0  0  0  0
   41.1210   31.1090   42.6080 N   0  0  0  0  0  0  0  0  0  0  0  0
   40.9650   32.0920   41.6460 C   0  0  0  0  0  0  0  0  0  0  0  0
   42.0030   32.8650   41.2350 N   0  0  0  0  0  0  0  0  0  0  0  0
   44.0190   33.3100   41.4210 H   0  0  0  0  0  0  0  0  0  0  0  0
   44.4280   31.5550   43.1790 H   0  0  0  0  0  0  0  0  0  0  0  0
   42.4790   30.1380   43.9190 H   0  0  0  0  0  0  0  0  0  0  0  0
  1  2  1  0  0  0  0
  2  3  2  0  0  0  0
  3 11  1  0  0  0  0
  4  3  1  0  0  0  0
  5  4  2  0  0  0  0
  6 12  1  0  0  0  0
  6  5  1  0  0  0  0
  7  6  2  0  0  0  0
  8  9  2  0  0  0  0
  8  7  1  0  0  0  0
  9 10  1  0  0  0  0
 10  1  2  0  0  0  0
 10  5  1  0  0  0  0
 13  7  1  0  0  0  0
 14  8  1  0  0  0  0
 15 17  1  0  0  0  0
 15  9  1  0  0  0  0
 16 15  1  0  0  0  0
 18 15  1  0  0  0  0
 19 18  1  0  0  0  0
 20 22  1  0  0  0  0
 20 19  2  0  0  0  0
 21 20  1  0  0  0  0
 22 24  1  0  0  0  0
 23 22  1  0  0  0  0
 24 18  2  0  0  0  0
 25  1  1  0  0  0  0
 26 27  1  0  0  0  0
 26 40  1  0  0  0  0
 27 32  1  0  0  0  0
 28 25  1  0  0  0  0
 28 27  2  0  0  0  0
 29 28  1  0  0  0  0
 30 29  2  0  0  0  0
 30 31  1  0  0  0  0
 31 26  2  0  0  0  0
 33 29  1  0  0  0  0
 34 30  1  0  0  0  0
 35 31  1  0  0  0  0
 36 37  1  0  0  0  0
 37 38  2  0  0  0  0
 37 43  1  0  0  0  0
 38 44  1  0  0  0  0
 39 38  1  0  0  0  0
 40 39  2  0  0  0  0
 41 40  1  0  0  0  0
 41 36  2  0  0  0  0
 42 36  1  0  0  0  0
M  END
>  <minimizedAffinity>
-6.27752542

$$$$

 OpenBabel03242516303D

 44 48  0  0  0  0  0  0  0  0999 V2000
   36.3440   27.5640   40.0770 C   0  0  0  0  0  0  0  0  0  0  0  0
   35.8190   27.7010   38.8230 N   0  0  0  0  0  0  0  0  0  0  0  0
   35.6170   26.6840   37.9920 C   0  0  0  0  0  0  0  0  0  0  0  0
   35.9520   25.4640   38.4170 N   0  0  0  0  0  0  0  0  0  0  0  0
   36.4720   25.2410   39.6260 C   0  0  0  0  0  0  0  0  0  0  0  0
   36.8130   23.9740   40.0840 C   0  0  0  0  0  0  0  0  0  0  0  0
   37.3300   23.7700   41.3200 C   0  0  0  0  0  0  0  0  0  0  0  0
   37.5310   24.8230   42.1540 C   0  0  0  0  0  0  0  0  0  0  0  0
   37.2080   26.1230   41.7490 C   0  0  0  0  0  0  0  0  0  0  0  0
   36.6860   26.3120   40.5030 C   0  0  0  0  0  0  0  0  0  0  0  0
   35.1970   26.8740   37.0150 H   0  0  0  0  0  0  0  0  0  0  0  0
   36.6300   23.1820   39.3750 H   0  0  0  0  0  0  0  0  0  0  0  0
   37.5780   22.7520   41.6250 H   0  0  0  0  0  0  0  0  0  0  0  0
   37.9480   24.5970   43.1320 H   0  0  0  0  0  0  0  0  0  0  0  0
   37.5050   27.1950   42.7250 C   0  0  0  0  0  0  0  0  0  0  0  0
   37.4230   28.2150   42.3450 H   0  0  0  0  0  0  0  0  0  0  0  0
   37.1370   26.9980   43.7510 H   0  0  0  0  0  0  0  0  0  0  0  0
   38.9980   27.2110   43.0300 C   0  0  0  0  0  0  0  0  0  0  0  0
   39.6640   26.6400   44.0780 N   0  0  0  0  0  0  0  0  0  0  0  0
   40.9770   26.8860   43.9900 C   0  0  0  0  0  0  0  0  0  0  0  0
   41.6870   26.5230   44.7210 H   0  0  0  0  0  0  0  0  0  0  0  0
   41.1660   27.6170   42.8820 N   0  0  0  0  0  0  0  0  0  0  0  0
   42.0820   27.9730   42.5330 H   0  0  0  0  0  0  0  0  0  0  0  0
   40.0030   27.8040   42.3260 N   0  0  0  0  0  0  0  0  0  0  0  0
   36.5370   28.9120   41.1310 S   0  0  0  0  0  0  0  0  0  0  0  0
   39.0350   31.1570   38.9560 C   0  0  0  0  0  0  0  0  0  0  0  0
   38.4020   30.0890   39.5790 C   0  0  0  0  0  0  0  0  0  0  0  0
   37.2840   30.2890   40.3460 C   0  0  0  0  0  0  0  0  0  0  0  0
   36.7690   31.5540   40.5100 C   0  0  0  0  0  0  0  0  0  0  0  0
   37.3550   32.6310   39.9190 C   0  0  0  0  0  0  0  0  0  0  0  0
   38.4820   32.4090   39.1510 C   0  0  0  0  0  0  0  0  0  0  0  0
   38.8380   29.1140   39.4240 H   0  0  0  0  0  0  0  0  0  0  0  0
   35.8900   31.6690   41.1180 H   0  0  0  0  0  0  0  0  0  0  0  0
   36.9430   33.6230   40.0530 H   0  0  0  0  0  0  0  0  0  0  0  0
   38.9440   33.2520   38.6850 H   0  0  0  0  0  0  0  0  0  0  0  0
   42.0590   31.8820   37.0400 C   0  0  0  0  0  0  0  0  0  0  0  0
   42.4920   30.6020   36.6100 C   0  0  0  0  0  0  0  0  0  0  0  0
   41.7400   29.4910   36.9820 C   0  0  0  0  0  0  0  0  0  0  0  0
   40.6130   29.6520   37.7450 N   0  0  0  0  0  0  0  0  0  0  0  0
   40.2340   30.9250   38.1380 C   0  0  0  0  0  0  0  0  0  0  0  0
   40.9470   32.0250   37.7880 N   0  0  0  0  0  0  0  0  0  0  0  0
   42.5970   32.7820   36.7850 H   0  0  0  0  0  0  0  0  0  0  0  0
   43.3870   30.5200   36.0100 H   0  0  0  0  0  0  0  0  0  0  0  0
   42.0370   28.4980   36.6760 H   0  0  0  0  0  0  0  0  0  0  0  0
  1 10  1  0  0  0  0
  1 25  1  0  0  0  0
  2  1  2  0  0  0  0
  3  4  2  0  0  0  0
  3  2  1  0  0  0  0
  4  5  1  0  0  0  0
  5  6  2  0  0  0  0
  5 10  1  0  0  0  0
  6  7  1  0  0  0  0
  7 13  1  0  0  0  0
  7  8  2  0  0  0  0
  8 14  1  0  0  0  0
  9  8  1  0  0  0  0
  9 15  1  0  0  0  0
 10  9  2  0  0  0  0
 11  3  1  0  0  0  0
 12  6  1  0  0  0  0
 15 18  1  0  0  0  0
 15 17  1  0  0  0  0
 16 15  1  0  0  0  0
 18 19  1  0  0  0  0
 20 19  2  0  0  0  0
 20 21  1  0  0  0  0
 22 20  1  0  0  0  0
 23 22  1  0  0  0  0
 24 22  1  0  0  0  0
 24 18  2  0  0  0  0
 26 31  2  0  0  0  0
 26 27  1  0  0  0  0
 27 28  2  0  0  0  0
 28 29  1  0  0  0  0
 28 25  1  0  0  0  0
 29 33  1  0  0  0  0
 30 34  1  0  0  0  0
 30 29  2  0  0  0  0
 31 30  1  0  0  0  0
 32 27  1  0  0  0  0
 35 31  1  0  0  0  0
 36 41  1  0  0  0  0
 37 38  1  0  0  0  0
 37 36  2  0  0  0  0
 38 39  2  0  0  0  0
 39 40  1  0  0  0  0
 40 26  1  0  0  0  0
 41 40  2  0  0  0  0
 42 36  1  0  0  0  0
 43 37  1  0  0  0  0
 44 38  1  0  0  0  0
M  END
>  <minimizedAffinity>
-6.27311611

$$$$

 OpenBabel03242516303D

 44 48  0  0  0  0  0  0  0  0999 V2000
   37.0500   29.4870   41.4400 C   0  0  0  0  0  0  0  0  0  0  0  0
   37.6370   29.4680   42.6730 N   0  0  0  0  0  0  0  0  0  0  0  0
   38.0220   28.3570   43.2910 C   0  0  0  0  0  0  0  0  0  0  0  0
   37.8170   27.1980   42.6610 N   0  0  0  0  0  0  0  0  0  0  0  0
   37.2500   27.1250   41.4560 C   0  0  0  0  0  0  0  0  0  0  0  0
   37.0420   25.9260   40.7840 C   0  0  0  0  0  0  0  0  0  0  0  0
   36.4730   25.8780   39.5550 C   0  0  0  0  0  0  0  0  0  0  0  0
   36.0840   27.0250   38.9410 C   0  0  0  0  0  0  0  0  0  0  0  0
   36.2660   28.2630   39.5670 C   0  0  0  0  0  0  0  0  0  0  0  0
   36.8420   28.2970   40.8030 C   0  0  0  0  0  0  0  0  0  0  0  0
   38.4790   28.4250   44.2670 H   0  0  0  0  0  0  0  0  0  0  0  0
   37.3720   25.0540   41.3250 H   0  0  0  0  0  0  0  0  0  0  0  0
   36.3370   24.9060   39.0770 H   0  0  0  0  0  0  0  0  0  0  0  0
   35.6340   26.9230   37.9570 H   0  0  0  0  0  0  0  0  0  0  0  0
   35.7700   29.4420   38.8220 C   0  0  0  0  0  0  0  0  0  0  0  0
   34.6880   29.4960   38.6890 H   0  0  0  0  0  0  0  0  0  0  0  0
   36.3080   30.3850   39.0410 H   0  0  0  0  0  0  0  0  0  0  0  0
   36.1500   29.3150   37.3510 C   0  0  0  0  0  0  0  0  0  0  0  0
   35.3350   29.1440   36.2670 N   0  0  0  0  0  0  0  0  0  0  0  0
   36.0580   29.0720   35.1430 C   0  0  0  0  0  0  0  0  0  0  0  0
   35.6070   28.9370   34.1690 H   0  0  0  0  0  0  0  0  0  0  0  0
   37.3460   29.1980   35.4950 N   0  0  0  0  0  0  0  0  0  0  0  0
   38.1620   29.1830   34.8460 H   0  0  0  0  0  0  0  0  0  0  0  0
   37.3910   29.3390   36.7890 N   0  0  0  0  0  0  0  0  0  0  0  0
   36.6160   30.9630   40.6640 S   0  0  0  0  0  0  0  0  0  0  0  0
   40.0320   31.9180   38.8110 C   0  0  0  0  0  0  0  0  0  0  0  0
   38.9070   31.2440   39.2690 C   0  0  0  0  0  0  0  0  0  0  0  0
   38.0050   31.8650   40.0940 C   0  0  0  0  0  0  0  0  0  0  0  0
   38.2000   33.1700   40.4810 C   0  0  0  0  0  0  0  0  0  0  0  0
   39.2880   33.8720   40.0580 C   0  0  0  0  0  0  0  0  0  0  0  0
   40.1850   33.2280   39.2280 C   0  0  0  0  0  0  0  0  0  0  0  0
   38.7920   30.2220   38.9410 H   0  0  0  0  0  0  0  0  0  0  0  0
   37.4710   33.6220   41.1280 H   0  0  0  0  0  0  0  0  0  0  0  0
   39.4340   34.8990   40.3670 H   0  0  0  0  0  0  0  0  0  0  0  0
   41.0400   33.7760   38.8930 H   0  0  0  0  0  0  0  0  0  0  0  0
   41.5920   29.2390   36.8800 C   0  0  0  0  0  0  0  0  0  0  0  0
   42.7140   29.8700   36.2880 C   0  0  0  0  0  0  0  0  0  0  0  0
   42.9320   31.2190   36.5550 C   0  0  0  0  0  0  0  0  0  0  0  0
   42.0700   31.9010   37.3740 N   0  0  0  0  0  0  0  0  0  0  0  0
   40.9880   31.2370   37.9270 C   0  0  0  0  0  0  0  0  0  0  0  0
   40.7530   29.9220   37.6840 N   0  0  0  0  0  0  0  0  0  0  0  0
   41.3690   28.1970   36.7120 H   0  0  0  0  0  0  0  0  0  0  0  0
   43.3690   29.2950   35.6480 H   0  0  0  0  0  0  0  0  0  0  0  0
   43.7760   31.7370   36.1230 H   0  0  0  0  0  0  0  0  0  0  0  0
  1  2  1  0  0  0  0
  2  3  2  0  0  0  0
  3 11  1  0  0  0  0
  4  3  1  0  0  0  0
  5  4  2  0  0  0  0
  6 12  1  0  0  0  0
  6  5  1  0  0  0  0
  7  6  2  0  0  0  0
  8  7  1  0  0  0  0
  8  9  2  0  0  0  0
  9 10  1  0  0  0  0
 10  1  2  0  0  0  0
 10  5  1  0  0  0  0
 13  7  1  0  0  0  0
 14  8  1  0  0  0  0
 15 17  1  0  0  0  0
 15  9  1  0  0  0  0
 16 15  1  0  0  0  0
 18 15  1  0  0  0  0
 19 18  1  0  0  0  0
 20 22  1  0  0  0  0
 20 19  2  0  0  0  0
 21 20  1  0  0  0  0
 22 24  1  0  0  0  0
 23 22  1  0  0  0  0
 24 18  2  0  0  0  0
 25  1  1  0  0  0  0
 26 31  2  0  0  0  0
 26 27  1  0  0  0  0
 27 28  2  0  0  0  0
 28 29  1  0  0  0  0
 28 25  1  0  0  0  0
 29 33  1  0  0  0  0
 30 34  1  0  0  0  0
 30 29  2  0  0  0  0
 31 30  1  0  0  0  0
 32 27  1  0  0  0  0
 35 31  1  0  0  0  0
 36 41  1  0  0  0  0
 37 38  1  0  0  0  0
 37 36  2  0  0  0  0
 38 39  2  0  0  0  0
 39 40  1  0  0  0  0
 40 26  1  0  0  0  0
 41 40  2  0  0  0  0
 42 36  1  0  0  0  0
 43 37  1  0  0  0  0
 44 38  1  0  0  0  0
M  END
>  <minimizedAffinity>
-6.24440002

$$$$
