REMARK  Name = 
REMARK  6 active torsions:
REMARK  status: ('A' for Active; 'I' for Inactive)
REMARK    1  A    between atoms: C_1  and  C_2
REMARK    2  A    between atoms: C_1  and  O_12
REMARK    3  A    between atoms: C_6  and  C_8
REMARK    4  A    between atoms: O_12  and  C_17
REMARK    5  A    between atoms: C_14  and  C_19
REMARK    6  A    between atoms: C_15  and  C_28
REMARK                            x       y       z     vdW  Elec       q    Type
REMARK                         _______ _______ _______ _____ _____    ______ ____
ROOT
ATOM      1  C   UNL     1      44.898  34.987  45.079  0.00  0.00    +0.000 A 
ATOM      2  C   UNL     1      45.766  34.687  44.023  0.00  0.00    +0.000 A 
ATOM      3  C   UNL     1      46.679  33.655  44.246  0.00  0.00    +0.000 A 
ATOM      4  N   UNL     1      46.712  33.001  45.404  0.00  0.00    +0.000 NA
ATOM      5  C   UNL     1      45.851  33.325  46.402  0.00  0.00    +0.000 A 
ATOM      6  N   UNL     1      44.953  34.310  46.239  0.00  0.00    +0.000 NA
ATOM      7  H   UNL     1      44.169  35.778  44.963  0.00  0.00    +0.000 HD
ENDROOT
BRANCH   3   8
ATOM      8  C   UNL     1      47.600  33.312  43.167  0.00  0.00    +0.000 A 
ATOM      9  N   UNL     1      48.571  33.894  42.426  0.00  0.00    +0.000 NA
ATOM     10  C   UNL     1      49.022  32.936  41.566  0.00  0.00    +0.000 A 
ATOM     11  H   UNL     1      49.810  33.089  40.830  0.00  0.00    +0.000 HD
ATOM     12  N   UNL     1      48.347  31.784  41.768  0.00  0.00    +0.000 N 
ATOM     13  H   UNL     1      48.527  30.910  41.220  0.00  0.00    +0.000 HD
ATOM     14  N   UNL     1      47.479  32.025  42.751  0.00  0.00    +0.000 NA
ENDBRANCH   3   8
BRANCH   2  15
ATOM     15  C   UNL     1      45.678  35.458  42.749  0.00  0.00    +0.000 C 
ATOM     16  F   UNL     1      45.301  36.726  43.153  0.00  0.00    +0.000 F 
ATOM     17  F   UNL     1      44.632  34.888  42.025  0.00  0.00    +0.000 F 
ATOM     18  F   UNL     1      46.866  35.432  42.111  0.00  0.00    +0.000 F 
ENDBRANCH   2  15
BRANCH   5  19
ATOM     19  O   UNL     1      45.839  32.678  47.630  0.00  0.00    +0.000 OA
BRANCH  19  20
ATOM     20  C   UNL     1      45.402  31.341  47.740  0.00  0.00    +0.000 C 
ATOM     21  H   UNL     1      44.874  31.075  46.800  0.00  0.00    +0.000 HD
ATOM     22  H   UNL     1      44.728  31.193  48.605  0.00  0.00    +0.000 HD
BRANCH  20  23
ATOM     23  C   UNL     1      46.587  30.490  47.861  0.00  0.00    +0.000 A 
ATOM     24  C   UNL     1      46.828  29.212  47.366  0.00  0.00    +0.000 A 
ATOM     25  C   UNL     1      48.040  28.645  47.633  0.00  0.00    +0.000 A 
ATOM     26  N   UNL     1      48.983  29.264  48.340  0.00  0.00    +0.000 NA
ATOM     27  C   UNL     1      48.741  30.497  48.812  0.00  0.00    +0.000 A 
ATOM     28  N   UNL     1      47.547  31.128  48.584  0.00  0.00    +0.000 NA
ATOM     29  H   UNL     1      45.974  28.854  46.822  0.00  0.00    +0.000 HD
ATOM     30  H   UNL     1      48.148  27.645  47.211  0.00  0.00    +0.000 HD
BRANCH  27  31
ATOM     31  C   UNL     1      49.850  31.103  49.585  0.00  0.00    +0.000 C 
ATOM     32  F   UNL     1      49.833  32.475  49.490  0.00  0.00    +0.000 F 
ATOM     33  F   UNL     1      51.091  30.645  49.109  0.00  0.00    +0.000 F 
ATOM     34  F   UNL     1      49.784  30.775  50.924  0.00  0.00    +0.000 F 
ENDBRANCH  27  31
ENDBRANCH  20  23
ENDBRANCH  19  20
ENDBRANCH   5  19
TORSDOF 6
