
 OpenBabel03252508143D

 35 38  0  0  1  0  0  0  0  0999 V2000
   46.1170   30.8830   46.8850 C   0  0  0  0  0  0  0  0  0  0  0  0
   47.0790   30.3580   46.8300 H   0  0  0  0  0  0  0  0  0  0  0  0
   45.3060   30.1530   46.6600 H   0  0  0  0  0  0  0  0  0  0  0  0
   45.9330   31.5520   48.2200 C   0  0  1  0  0  0  0  0  0  0  0  0
   45.7030   30.6520   49.3820 C   0  0  0  0  0  0  0  0  0  0  0  0
   46.9580   31.3720   49.2750 C   0  0  1  0  0  0  0  0  0  0  0  0
   45.4400   32.5400   48.2080 H   0  0  0  0  0  0  0  0  0  0  0  0
   45.6200   29.5510   49.1700 H   0  0  0  0  0  0  0  0  0  0  0  0
   44.9140   30.9640   50.1070 H   0  0  0  0  0  0  0  0  0  0  0  0
   47.0760   32.2150   50.0220 H   0  0  0  0  0  0  0  0  0  0  0  0
   48.2500   30.7610   48.8890 C   0  0  0  0  0  0  0  0  0  0  0  0
   49.1920   30.4300   50.0740 C   0  0  0  0  0  0  0  0  0  0  0  0
   49.5150   31.5950   49.2060 C   0  0  0  0  0  0  0  0  0  0  0  0
   48.3030   30.0810   48.0170 H   0  0  0  0  0  0  0  0  0  0  0  0
   48.8040   30.6110   51.0870 H   0  0  0  0  0  0  0  0  0  0  0  0
   49.8030   29.5040   49.9160 H   0  0  0  0  0  0  0  0  0  0  0  0
   50.3330   31.4660   48.4390 H   0  0  0  0  0  0  0  0  0  0  0  0
   49.3280   32.6040   49.5770 H   0  0  0  0  0  0  0  0  0  0  0  0
   45.7090   33.0890   46.1480 C   0  0  0  0  0  3  0  0  0  0  0  0
   46.0060   31.9060   45.7690 C   0  0  0  0  0  3  0  0  0  0  0  0
   44.6220   36.1260   44.3710 C   0  0  0  0  0  0  0  0  0  0  0  0
   45.2700   36.0290   43.1490 C   0  0  0  0  0  0  0  0  0  0  0  0
   46.0700   34.9400   42.9700 C   0  0  0  0  0  0  0  0  0  0  0  0
   46.1980   34.0200   43.9640 N   0  0  0  0  0  0  0  0  0  0  0  0
   45.5550   34.1360   45.1410 C   0  0  0  0  0  0  0  0  0  0  0  0
   44.7710   35.2060   45.3170 N   0  0  0  0  0  0  0  0  0  0  0  0
   43.9570   36.9250   44.6620 H   0  0  0  0  0  0  0  0  0  0  0  0
   45.1150   36.7920   42.4280 H   0  0  0  0  0  0  0  0  0  0  0  0
   46.7840   34.7750   41.7070 C   0  0  0  0  0  0  0  0  0  0  0  0
   48.0580   35.1950   41.5060 N   0  0  0  0  0  0  0  0  0  0  0  0
   48.4040   34.8820   40.2260 C   0  0  0  0  0  0  0  0  0  0  0  0
   49.3570   35.0800   39.7430 H   0  0  0  0  0  0  0  0  0  0  0  0
   47.3460   34.2700   39.6440 N   0  0  0  0  0  0  0  0  0  0  0  0
   47.2780   33.9000   38.6570 H   0  0  0  0  0  0  0  0  0  0  0  0
   46.3670   34.2130   40.5590 N   0  0  0  0  0  0  0  0  0  0  0  0
  1  4  1  0  0  0  0
  2  1  1  0  0  0  0
  3  1  1  0  0  0  0
  4  7  1  1  0  0  0
  4  6  1  0  0  0  0
  4  5  1  0  0  0  0
  5  9  1  0  0  0  0
  6  5  1  0  0  0  0
  6 10  1  1  0  0  0
  8  5  1  0  0  0  0
 11 13  1  0  0  0  0
 11  6  1  0  0  0  0
 11 12  1  0  0  0  0
 12 15  1  0  0  0  0
 13 18  1  0  0  0  0
 13 12  1  0  0  0  0
 14 11  1  0  0  0  0
 16 12  1  0  0  0  0
 17 13  1  0  0  0  0
 20 19  2  0  0  0  0
 20  1  1  0  0  0  0
 21 27  1  0  0  0  0
 21 26  1  0  0  0  0
 22 21  2  0  0  0  0
 23 22  1  0  0  0  0
 23 24  2  0  0  0  0
 24 25  1  0  0  0  0
 25 26  2  0  0  0  0
 25 19  1  0  0  0  0
 28 22  1  0  0  0  0
 29 23  1  0  0  0  0
 30 29  1  0  0  0  0
 31 30  2  0  0  0  0
 32 31  1  0  0  0  0
 33 31  1  0  0  0  0
 33 35  1  0  0  0  0
 34 33  1  0  0  0  0
 35 29  2  0  0  0  0
M  END
>  <minimizedAffinity>
-5.618186

>  <minimizedRMSD>
0.600893974

$$$$
