
 OpenBabel03252501173D

 33 36  0  0  1  0  0  0  0  0999 V2000
   37.9910   31.5920   39.8280 C   0  0  1  0  0  0  0  0  0  0  0  0
   37.0790   32.6330   39.3040 C   0  0  0  0  0  0  0  0  0  0  0  0
   38.0890   32.8910   40.4890 C   0  0  2  0  0  0  0  0  0  0  0  0
   38.8420   31.3050   39.1410 H   0  0  0  0  0  0  0  0  0  0  0  0
   36.0210   32.6690   39.6070 H   0  0  0  0  0  0  0  0  0  0  0  0
   37.2930   33.1560   38.3650 H   0  0  0  0  0  0  0  0  0  0  0  0
   37.6070   33.0420   41.4540 H   0  0  0  0  0  0  0  0  0  0  0  0
   37.1720   28.8070   42.2150 C   0  0  0  0  0  0  0  0  0  0  0  0
   37.8760   29.8540   41.6450 C   0  0  0  0  0  0  0  0  0  0  0  0
   37.3160   30.4560   40.5320 C   0  0  0  0  0  0  0  0  0  0  0  0
   36.1320   30.0120   40.0530 N   0  0  0  0  0  0  0  0  0  0  0  0
   35.4750   28.9800   40.6430 C   0  0  0  0  0  0  0  0  0  0  0  0
   36.0060   28.3800   41.7310 N   0  0  0  0  0  0  0  0  0  0  0  0
   38.8100   30.1970   42.0310 H   0  0  0  0  0  0  0  0  0  0  0  0
   34.5300   28.6320   40.2530 H   0  0  0  0  0  0  0  0  0  0  0  0
   37.7570   28.1500   43.4290 C   0  0  0  0  0  0  0  0  0  0  0  0
   37.5330   26.7980   43.3120 F   0  0  0  0  0  0  0  0  0  0  0  0
   37.0470   28.6070   44.5200 F   0  0  0  0  0  0  0  0  0  0  0  0
   39.0960   28.3930   43.5310 F   0  0  0  0  0  0  0  0  0  0  0  0
   39.2260   33.7560   40.0830 C   0  0  0  0  0  0  0  0  0  0  0  0
   39.3700   35.1200   40.3180 C   0  0  0  0  0  0  0  0  0  0  0  0
   40.5820   35.4170   39.7480 C   0  0  0  0  0  0  0  0  0  0  0  0
   41.1410   34.2480   39.1900 C   0  0  0  0  0  0  0  0  0  0  0  0
   40.2620   33.3180   39.4400 O   0  0  0  0  0  0  0  0  0  0  0  0
   38.6890   35.7850   40.8250 H   0  0  0  0  0  0  0  0  0  0  0  0
   41.0520   36.3910   39.7210 H   0  0  0  0  0  0  0  0  0  0  0  0
   42.4270   34.1970   38.5020 C   0  0  0  0  0  0  0  0  0  0  0  0
   43.5230   34.0770   39.2980 N   0  0  0  0  0  0  0  0  0  0  0  0
   44.6190   34.0440   38.4850 C   0  0  0  0  0  0  0  0  0  0  0  0
   45.6720   33.9590   38.7190 H   0  0  0  0  0  0  0  0  0  0  0  0
   44.1630   34.1460   37.2150 N   0  0  0  0  0  0  0  0  0  0  0  0
   44.7390   34.1550   36.3220 H   0  0  0  0  0  0  0  0  0  0  0  0
   42.8260   34.2400   37.1990 N   0  0  0  0  0  0  0  0  0  0  0  0
  1  4  1  6  0  0  0
  1  3  1  0  0  0  0
  1 10  1  0  0  0  0
  2  5  1  0  0  0  0
  2  1  1  0  0  0  0
  2  3  1  0  0  0  0
  3  7  1  1  0  0  0
  6  2  1  0  0  0  0
  8 16  1  0  0  0  0
  9 14  1  0  0  0  0
  9  8  2  0  0  0  0
 10  9  1  0  0  0  0
 11 10  2  0  0  0  0
 11 12  1  0  0  0  0
 12 13  2  0  0  0  0
 13  8  1  0  0  0  0
 15 12  1  0  0  0  0
 16 19  1  0  0  0  0
 16 18  1  0  0  0  0
 17 16  1  0  0  0  0
 20 21  2  0  0  0  0
 20  3  1  0  0  0  0
 21 25  1  0  0  0  0
 22 21  1  0  0  0  0
 23 24  1  0  0  0  0
 23 22  2  0  0  0  0
 24 20  1  0  0  0  0
 26 22  1  0  0  0  0
 27 23  1  0  0  0  0
 27 28  1  0  0  0  0
 29 30  1  0  0  0  0
 29 28  2  0  0  0  0
 31 29  1  0  0  0  0
 32 31  1  0  0  0  0
 33 31  1  0  0  0  0
 33 27  2  0  0  0  0
M  END
>  <minimizedAffinity>
-6.64195395

$$$$

 OpenBabel03252501173D

 33 36  0  0  1  0  0  0  0  0999 V2000
   38.3430   30.2890   40.6060 C   0  0  1  0  0  0  0  0  0  0  0  0
   37.2220   30.9050   39.8630 C   0  0  0  0  0  0  0  0  0  0  0  0
   38.0240   31.6600   40.9940 C   0  0  2  0  0  0  0  0  0  0  0  0
   39.2920   30.1360   40.0100 H   0  0  0  0  0  0  0  0  0  0  0  0
   36.1750   30.6900   40.1300 H   0  0  0  0  0  0  0  0  0  0  0  0
   37.3550   31.2820   38.8430 H   0  0  0  0  0  0  0  0  0  0  0  0
   37.4440   31.8430   41.8980 H   0  0  0  0  0  0  0  0  0  0  0  0
   37.3920   26.9090   41.9470 C   0  0  0  0  0  0  0  0  0  0  0  0
   37.7500   27.8790   41.0260 C   0  0  0  0  0  0  0  0  0  0  0  0
   37.9590   29.1590   41.5100 C   0  0  0  0  0  0  0  0  0  0  0  0
   37.8090   29.4100   42.8300 N   0  0  0  0  0  0  0  0  0  0  0  0
   37.4540   28.4280   43.6990 C   0  0  0  0  0  0  0  0  0  0  0  0
   37.2460   27.1720   43.2440 N   0  0  0  0  0  0  0  0  0  0  0  0
   37.8660   27.6700   39.9850 H   0  0  0  0  0  0  0  0  0  0  0  0
   37.3360   28.6390   44.7520 H   0  0  0  0  0  0  0  0  0  0  0  0
   37.1730   25.5140   41.4430 C   0  0  0  0  0  0  0  0  0  0  0  0
   36.5210   24.8170   42.4340 F   0  0  0  0  0  0  0  0  0  0  0  0
   38.4170   24.9450   41.2700 F   0  0  0  0  0  0  0  0  0  0  0  0
   36.4260   25.5070   40.3010 F   0  0  0  0  0  0  0  0  0  0  0  0
   38.9030   32.7250   40.4470 C   0  0  0  0  0  0  0  0  0  0  0  0
   38.8090   34.0940   40.6780 C   0  0  0  0  0  0  0  0  0  0  0  0
   39.8490   34.6140   39.9500 C   0  0  0  0  0  0  0  0  0  0  0  0
   40.5420   33.5690   39.3040 C   0  0  0  0  0  0  0  0  0  0  0  0
   39.9050   32.4890   39.6610 O   0  0  0  0  0  0  0  0  0  0  0  0
   38.0890   34.6200   41.2850 H   0  0  0  0  0  0  0  0  0  0  0  0
   40.1120   35.6610   39.8730 H   0  0  0  0  0  0  0  0  0  0  0  0
   41.7060   33.7610   38.4440 C   0  0  0  0  0  0  0  0  0  0  0  0
   42.4850   32.6640   38.2440 N   0  0  0  0  0  0  0  0  0  0  0  0
   43.5100   33.0340   37.4240 C   0  0  0  0  0  0  0  0  0  0  0  0
   44.3400   32.4640   37.0270 H   0  0  0  0  0  0  0  0  0  0  0  0
   43.3320   34.3460   37.1450 N   0  0  0  0  0  0  0  0  0  0  0  0
   43.9420   34.9640   36.5340 H   0  0  0  0  0  0  0  0  0  0  0  0
   42.2340   34.8140   37.7580 N   0  0  0  0  0  0  0  0  0  0  0  0
  1  4  1  6  0  0  0
  1  3  1  0  0  0  0
  1 10  1  0  0  0  0
  2  5  1  0  0  0  0
  2  1  1  0  0  0  0
  2  3  1  0  0  0  0
  3  7  1  1  0  0  0
  6  2  1  0  0  0  0
  8 13  1  0  0  0  0
  9 10  1  0  0  0  0
  9  8  2  0  0  0  0
 10 11  2  0  0  0  0
 11 12  1  0  0  0  0
 12 15  1  0  0  0  0
 13 12  2  0  0  0  0
 14  9  1  0  0  0  0
 16  8  1  0  0  0  0
 16 17  1  0  0  0  0
 18 16  1  0  0  0  0
 19 16  1  0  0  0  0
 20 21  2  0  0  0  0
 20  3  1  0  0  0  0
 21 25  1  0  0  0  0
 22 21  1  0  0  0  0
 23 24  1  0  0  0  0
 23 22  2  0  0  0  0
 24 20  1  0  0  0  0
 26 22  1  0  0  0  0
 27 23  1  0  0  0  0
 28 27  1  0  0  0  0
 29 28  2  0  0  0  0
 30 29  1  0  0  0  0
 31 29  1  0  0  0  0
 31 33  1  0  0  0  0
 32 31  1  0  0  0  0
 33 27  2  0  0  0  0
M  END
>  <minimizedAffinity>
-5.99950409

$$$$

 OpenBabel03252501173D

 33 36  0  0  1  0  0  0  0  0999 V2000
   35.4330   28.7510   39.3970 C   0  0  1  0  0  0  0  0  0  0  0  0
   36.1840   29.2420   38.2200 C   0  0  0  0  0  0  0  0  0  0  0  0
   35.0230   28.1770   38.1180 C   0  0  2  0  0  0  0  0  0  0  0  0
   34.7280   29.5010   39.8670 H   0  0  0  0  0  0  0  0  0  0  0  0
   37.1780   28.8380   37.9700 H   0  0  0  0  0  0  0  0  0  0  0  0
   35.9770   30.2240   37.7820 H   0  0  0  0  0  0  0  0  0  0  0  0
   35.3630   27.1790   37.8430 H   0  0  0  0  0  0  0  0  0  0  0  0
   37.1950   27.4840   42.4650 C   0  0  0  0  0  0  0  0  0  0  0  0
   36.4380   28.3230   41.6640 C   0  0  0  0  0  0  0  0  0  0  0  0
   36.2290   27.9230   40.3560 C   0  0  0  0  0  0  0  0  0  0  0  0
   36.7580   26.7580   39.9170 N   0  0  0  0  0  0  0  0  0  0  0  0
   37.4970   25.9660   40.7380 C   0  0  0  0  0  0  0  0  0  0  0  0
   37.7110   26.3400   42.0190 N   0  0  0  0  0  0  0  0  0  0  0  0
   36.0250   29.2400   42.0200 H   0  0  0  0  0  0  0  0  0  0  0  0
   37.9160   25.0370   40.3780 H   0  0  0  0  0  0  0  0  0  0  0  0
   37.4220   27.8950   43.8890 C   0  0  0  0  0  0  0  0  0  0  0  0
   38.4780   27.1550   44.3670 F   0  0  0  0  0  0  0  0  0  0  0  0
   36.2950   27.5380   44.5990 F   0  0  0  0  0  0  0  0  0  0  0  0
   37.7060   29.2260   43.9850 F   0  0  0  0  0  0  0  0  0  0  0  0
   33.7930   28.7400   37.5030 C   0  0  0  0  0  0  0  0  0  0  0  0
   33.4950   28.8230   36.1470 C   0  0  0  0  0  0  0  0  0  0  0  0
   32.2560   29.4120   36.1260 C   0  0  0  0  0  0  0  0  0  0  0  0
   31.8340   29.6690   37.4480 C   0  0  0  0  0  0  0  0  0  0  0  0
   32.8140   29.2350   38.1910 O   0  0  0  0  0  0  0  0  0  0  0  0
   34.0960   28.5020   35.3100 H   0  0  0  0  0  0  0  0  0  0  0  0
   31.6770   29.6500   35.2440 H   0  0  0  0  0  0  0  0  0  0  0  0
   30.5610   30.2890   37.8010 C   0  0  0  0  0  0  0  0  0  0  0  0
   30.0270   31.1240   36.8690 N   0  0  0  0  0  0  0  0  0  0  0  0
   28.8520   31.6020   37.3720 C   0  0  0  0  0  0  0  0  0  0  0  0
   28.1280   32.2860   36.9500 H   0  0  0  0  0  0  0  0  0  0  0  0
   28.6990   31.0480   38.5970 N   0  0  0  0  0  0  0  0  0  0  0  0
   27.8960   31.1960   39.2760 H   0  0  0  0  0  0  0  0  0  0  0  0
   29.7320   30.2410   38.8820 N   0  0  0  0  0  0  0  0  0  0  0  0
  1  4  1  1  0  0  0
  1 10  1  0  0  0  0
  2  1  1  0  0  0  0
  3  7  1  6  0  0  0
  3  2  1  0  0  0  0
  3  1  1  0  0  0  0
  5  2  1  0  0  0  0
  6  2  1  0  0  0  0
  8 16  1  0  0  0  0
  9 14  1  0  0  0  0
  9  8  2  0  0  0  0
 10  9  1  0  0  0  0
 11 10  2  0  0  0  0
 11 12  1  0  0  0  0
 12 13  2  0  0  0  0
 13  8  1  0  0  0  0
 15 12  1  0  0  0  0
 16 19  1  0  0  0  0
 16 17  1  0  0  0  0
 16 18  1  0  0  0  0
 20  3  1  0  0  0  0
 20 24  1  0  0  0  0
 21 20  2  0  0  0  0
 22 21  1  0  0  0  0
 22 23  2  0  0  0  0
 23 27  1  0  0  0  0
 23 24  1  0  0  0  0
 25 21  1  0  0  0  0
 26 22  1  0  0  0  0
 27 33  2  0  0  0  0
 28 29  2  0  0  0  0
 28 27  1  0  0  0  0
 29 31  1  0  0  0  0
 30 29  1  0  0  0  0
 31 33  1  0  0  0  0
 31 32  1  0  0  0  0
M  END
>  <minimizedAffinity>
-5.93213701

$$$$

 OpenBabel03252501173D

 33 36  0  0  1  0  0  0  0  0999 V2000
   38.0010   29.9030   39.2570 C   0  0  1  0  0  0  0  0  0  0  0  0
   37.3600   30.5020   38.0650 C   0  0  0  0  0  0  0  0  0  0  0  0
   37.1560   31.0630   39.5260 C   0  0  2  0  0  0  0  0  0  0  0  0
   39.1190   30.0590   39.3340 H   0  0  0  0  0  0  0  0  0  0  0  0
   36.4490   30.0630   37.6270 H   0  0  0  0  0  0  0  0  0  0  0  0
   37.9240   31.1410   37.3770 H   0  0  0  0  0  0  0  0  0  0  0  0
   36.1500   30.9170   39.9180 H   0  0  0  0  0  0  0  0  0  0  0  0
   37.0570   26.7950   41.1480 C   0  0  0  0  0  0  0  0  0  0  0  0
   37.5260   28.0790   40.9250 C   0  0  0  0  0  0  0  0  0  0  0  0
   37.5120   28.5350   39.6180 C   0  0  0  0  0  0  0  0  0  0  0  0
   37.0540   27.7320   38.6320 N   0  0  0  0  0  0  0  0  0  0  0  0
   36.6040   26.4770   38.8950 C   0  0  0  0  0  0  0  0  0  0  0  0
   36.6100   26.0150   40.1650 N   0  0  0  0  0  0  0  0  0  0  0  0
   37.8860   28.7050   41.7110 H   0  0  0  0  0  0  0  0  0  0  0  0
   36.2400   25.8430   38.1000 H   0  0  0  0  0  0  0  0  0  0  0  0
   37.0530   26.2880   42.5590 C   0  0  0  0  0  0  0  0  0  0  0  0
   38.3530   26.3140   43.0080 F   0  0  0  0  0  0  0  0  0  0  0  0
   36.6440   24.9720   42.5160 F   0  0  0  0  0  0  0  0  0  0  0  0
   36.2670   27.0590   43.3640 F   0  0  0  0  0  0  0  0  0  0  0  0
   37.8540   32.3580   39.7360 C   0  0  0  0  0  0  0  0  0  0  0  0
   37.3030   33.6320   39.6560 C   0  0  0  0  0  0  0  0  0  0  0  0
   38.3630   34.4580   39.9370 C   0  0  0  0  0  0  0  0  0  0  0  0
   39.5150   33.6810   40.1790 C   0  0  0  0  0  0  0  0  0  0  0  0
   39.1110   32.4490   40.0360 O   0  0  0  0  0  0  0  0  0  0  0  0
   36.2860   33.9060   39.4270 H   0  0  0  0  0  0  0  0  0  0  0  0
   38.3380   35.5380   39.9720 H   0  0  0  0  0  0  0  0  0  0  0  0
   40.8260   34.2310   40.5080 C   0  0  0  0  0  0  0  0  0  0  0  0
   41.7390   33.3460   40.9910 N   0  0  0  0  0  0  0  0  0  0  0  0
   42.8900   34.0370   41.2380 C   0  0  0  0  0  0  0  0  0  0  0  0
   43.8450   33.7070   41.6240 H   0  0  0  0  0  0  0  0  0  0  0  0
   42.6490   35.3250   40.9000 N   0  0  0  0  0  0  0  0  0  0  0  0
   43.3230   36.1440   40.9620 H   0  0  0  0  0  0  0  0  0  0  0  0
   41.3940   35.4700   40.4510 N   0  0  0  0  0  0  0  0  0  0  0  0
  1  4  1  1  0  0  0
  1  3  1  0  0  0  0
  1 10  1  0  0  0  0
  2  1  1  0  0  0  0
  2  3  1  0  0  0  0
  3 20  1  0  0  0  0
  3  7  1  1  0  0  0
  5  2  1  0  0  0  0
  6  2  1  0  0  0  0
  8 16  1  0  0  0  0
  9  8  1  0  0  0  0
  9 14  1  0  0  0  0
 10  9  2  0  0  0  0
 11 12  2  0  0  0  0
 11 10  1  0  0  0  0
 12 13  1  0  0  0  0
 13  8  2  0  0  0  0
 15 12  1  0  0  0  0
 16 17  1  0  0  0  0
 16 19  1  0  0  0  0
 18 16  1  0  0  0  0
 20 24  1  0  0  0  0
 21 20  2  0  0  0  0
 21 22  1  0  0  0  0
 22 26  1  0  0  0  0
 22 23  2  0  0  0  0
 23 27  1  0  0  0  0
 24 23  1  0  0  0  0
 25 21  1  0  0  0  0
 27 28  1  0  0  0  0
 28 29  2  0  0  0  0
 29 30  1  0  0  0  0
 31 32  1  0  0  0  0
 31 29  1  0  0  0  0
 33 27  2  0  0  0  0
 33 31  1  0  0  0  0
M  END
>  <minimizedAffinity>
-5.86010075

$$$$

 OpenBabel03252501173D

 33 36  0  0  1  0  0  0  0  0999 V2000
   39.3660   30.4630   41.4150 C   0  0  1  0  0  0  0  0  0  0  0  0
   40.3550   30.1360   42.4650 C   0  0  0  0  0  0  0  0  0  0  0  0
   38.8020   30.2120   42.7380 C   0  0  2  0  0  0  0  0  0  0  0  0
   39.2070   29.6610   40.6330 H   0  0  0  0  0  0  0  0  0  0  0  0
   40.9320   30.9260   42.9700 H   0  0  0  0  0  0  0  0  0  0  0  0
   40.8080   29.1410   42.5300 H   0  0  0  0  0  0  0  0  0  0  0  0
   38.5050   31.0520   43.3650 H   0  0  0  0  0  0  0  0  0  0  0  0
   40.5920   33.8060   40.2110 C   0  0  0  0  0  0  0  0  0  0  0  0
   40.6430   32.5060   40.6870 C   0  0  0  0  0  0  0  0  0  0  0  0
   39.4340   31.8660   40.8970 C   0  0  0  0  0  0  0  0  0  0  0  0
   38.2760   32.5150   40.6370 N   0  0  0  0  0  0  0  0  0  0  0  0
   38.2720   33.7920   40.1720 C   0  0  0  0  0  0  0  0  0  0  0  0
   39.4430   34.4330   39.9610 N   0  0  0  0  0  0  0  0  0  0  0  0
   41.5620   32.0030   40.8890 H   0  0  0  0  0  0  0  0  0  0  0  0
   37.3420   34.3010   39.9680 H   0  0  0  0  0  0  0  0  0  0  0  0
   41.8910   34.5120   39.9670 C   0  0  0  0  0  0  0  0  0  0  0  0
   41.7350   35.2800   38.8360 F   0  0  0  0  0  0  0  0  0  0  0  0
   42.8350   33.5440   39.6960 F   0  0  0  0  0  0  0  0  0  0  0  0
   42.2350   35.3040   41.0230 F   0  0  0  0  0  0  0  0  0  0  0  0
   38.2010   28.8710   42.9580 C   0  0  0  0  0  0  0  0  0  0  0  0
   37.2820   28.5130   43.9390 C   0  0  0  0  0  0  0  0  0  0  0  0
   37.0580   27.1810   43.6980 C   0  0  0  0  0  0  0  0  0  0  0  0
   37.8310   26.7650   42.5940 C   0  0  0  0  0  0  0  0  0  0  0  0
   38.4740   27.8380   42.2260 O   0  0  0  0  0  0  0  0  0  0  0  0
   36.8500   29.1340   44.7070 H   0  0  0  0  0  0  0  0  0  0  0  0
   36.3950   26.5340   44.2570 H   0  0  0  0  0  0  0  0  0  0  0  0
   37.8400   25.4070   42.0590 C   0  0  0  0  0  0  0  0  0  0  0  0
   36.9680   25.1610   41.0450 N   0  0  0  0  0  0  0  0  0  0  0  0
   37.1210   23.8550   40.6810 C   0  0  0  0  0  0  0  0  0  0  0  0
   36.6200   23.2680   39.9220 H   0  0  0  0  0  0  0  0  0  0  0  0
   38.0820   23.3380   41.4810 N   0  0  0  0  0  0  0  0  0  0  0  0
   38.4590   22.3450   41.4760 H   0  0  0  0  0  0  0  0  0  0  0  0
   38.5380   24.2680   42.3330 N   0  0  0  0  0  0  0  0  0  0  0  0
  1  4  1  6  0  0  0
  1  2  1  0  0  0  0
  1  3  1  0  0  0  0
  2  6  1  0  0  0  0
  2  3  1  0  0  0  0
  2  5  1  0  0  0  0
  3 20  1  0  0  0  0
  3  7  1  1  0  0  0
  8  9  1  0  0  0  0
  9 14  1  0  0  0  0
  9 10  2  0  0  0  0
 10  1  1  0  0  0  0
 11 10  1  0  0  0  0
 12 11  2  0  0  0  0
 13 12  1  0  0  0  0
 13  8  2  0  0  0  0
 15 12  1  0  0  0  0
 16  8  1  0  0  0  0
 16 19  1  0  0  0  0
 17 16  1  0  0  0  0
 18 16  1  0  0  0  0
 20 21  2  0  0  0  0
 21 25  1  0  0  0  0
 22 21  1  0  0  0  0
 22 26  1  0  0  0  0
 23 22  2  0  0  0  0
 24 23  1  0  0  0  0
 24 20  1  0  0  0  0
 27 33  2  0  0  0  0
 27 23  1  0  0  0  0
 28 27  1  0  0  0  0
 29 28  2  0  0  0  0
 29 31  1  0  0  0  0
 30 29  1  0  0  0  0
 31 33  1  0  0  0  0
 32 31  1  0  0  0  0
M  END
>  <minimizedAffinity>
-5.83593178

$$$$

 OpenBabel03252501173D

 33 36  0  0  1  0  0  0  0  0999 V2000
   40.2600   30.1680   41.1870 C   0  0  1  0  0  0  0  0  0  0  0  0
   39.2990   30.5440   40.1280 C   0  0  0  0  0  0  0  0  0  0  0  0
   39.6610   31.4910   41.3380 C   0  0  2  0  0  0  0  0  0  0  0  0
   41.3450   30.1330   40.8660 H   0  0  0  0  0  0  0  0  0  0  0  0
   38.2600   30.1800   40.1450 H   0  0  0  0  0  0  0  0  0  0  0  0
   39.6410   30.8720   39.1400 H   0  0  0  0  0  0  0  0  0  0  0  0
   38.8450   31.6340   42.0450 H   0  0  0  0  0  0  0  0  0  0  0  0
   38.1740   27.6750   43.0740 C   0  0  0  0  0  0  0  0  0  0  0  0
   38.4780   28.7210   42.2190 C   0  0  0  0  0  0  0  0  0  0  0  0
   39.8150   29.0500   42.0780 C   0  0  0  0  0  0  0  0  0  0  0  0
   40.7530   28.3560   42.7610 N   0  0  0  0  0  0  0  0  0  0  0  0
   40.4100   27.3360   43.5910 C   0  0  0  0  0  0  0  0  0  0  0  0
   39.1100   27.0000   43.7410 N   0  0  0  0  0  0  0  0  0  0  0  0
   37.7290   29.2630   41.6840 H   0  0  0  0  0  0  0  0  0  0  0  0
   41.1670   26.7880   44.1320 H   0  0  0  0  0  0  0  0  0  0  0  0
   36.7320   27.2960   43.2310 C   0  0  0  0  0  0  0  0  0  0  0  0
   36.0060   28.0750   42.3610 F   0  0  0  0  0  0  0  0  0  0  0  0
   36.3620   27.6340   44.5160 F   0  0  0  0  0  0  0  0  0  0  0  0
   36.5300   25.9760   42.9530 F   0  0  0  0  0  0  0  0  0  0  0  0
   40.4950   32.6470   40.9210 C   0  0  0  0  0  0  0  0  0  0  0  0
   40.0520   33.8550   40.3910 C   0  0  0  0  0  0  0  0  0  0  0  0
   41.2110   34.5600   40.1880 C   0  0  0  0  0  0  0  0  0  0  0  0
   42.3150   33.7810   40.5920 C   0  0  0  0  0  0  0  0  0  0  0  0
   41.7870   32.6640   41.0110 O   0  0  0  0  0  0  0  0  0  0  0  0
   39.0390   34.1620   40.1880 H   0  0  0  0  0  0  0  0  0  0  0  0
   41.2860   35.5600   39.7820 H   0  0  0  0  0  0  0  0  0  0  0  0
   43.7050   34.2180   40.5160 C   0  0  0  0  0  0  0  0  0  0  0  0
   44.3480   33.9600   39.3460 N   0  0  0  0  0  0  0  0  0  0  0  0
   45.6210   34.4370   39.4630 C   0  0  0  0  0  0  0  0  0  0  0  0
   46.4460   34.4310   38.7640 H   0  0  0  0  0  0  0  0  0  0  0  0
   45.7230   34.9740   40.7010 N   0  0  0  0  0  0  0  0  0  0  0  0
   46.5740   35.4380   41.1340 H   0  0  0  0  0  0  0  0  0  0  0  0
   44.5640   34.8530   41.3650 N   0  0  0  0  0  0  0  0  0  0  0  0
  1  4  1  6  0  0  0
  1  3  1  0  0  0  0
  1 10  1  0  0  0  0
  2  5  1  0  0  0  0
  2  1  1  0  0  0  0
  2  3  1  0  0  0  0
  3  7  1  1  0  0  0
  6  2  1  0  0  0  0
  8 16  1  0  0  0  0
  8 13  1  0  0  0  0
  9  8  2  0  0  0  0
 10  9  1  0  0  0  0
 10 11  2  0  0  0  0
 11 12  1  0  0  0  0
 12 13  2  0  0  0  0
 12 15  1  0  0  0  0
 14  9  1  0  0  0  0
 16 18  1  0  0  0  0
 17 16  1  0  0  0  0
 19 16  1  0  0  0  0
 20 24  1  0  0  0  0
 20  3  1  0  0  0  0
 21 20  2  0  0  0  0
 22 21  1  0  0  0  0
 22 23  2  0  0  0  0
 23 24  1  0  0  0  0
 25 21  1  0  0  0  0
 26 22  1  0  0  0  0
 27 23  1  0  0  0  0
 27 33  2  0  0  0  0
 28 29  2  0  0  0  0
 28 27  1  0  0  0  0
 29 31  1  0  0  0  0
 30 29  1  0  0  0  0
 31 32  1  0  0  0  0
 31 33  1  0  0  0  0
M  END
>  <minimizedAffinity>
-5.78708029

$$$$

 OpenBabel03252501173D

 33 36  0  0  1  0  0  0  0  0999 V2000
   36.1050   28.6060   40.2150 C   0  0  1  0  0  0  0  0  0  0  0  0
   35.9050   30.0720   40.2130 C   0  0  0  0  0  0  0  0  0  0  0  0
   36.8100   29.3250   39.1570 C   0  0  2  0  0  0  0  0  0  0  0  0
   35.2050   27.9950   39.9030 H   0  0  0  0  0  0  0  0  0  0  0  0
   36.4690   30.7250   40.8980 H   0  0  0  0  0  0  0  0  0  0  0  0
   34.9820   30.5190   39.8270 H   0  0  0  0  0  0  0  0  0  0  0  0
   37.8740   29.5310   39.2640 H   0  0  0  0  0  0  0  0  0  0  0  0
   38.1210   26.4130   42.5070 C   0  0  0  0  0  0  0  0  0  0  0  0
   37.4360   26.8090   41.3700 C   0  0  0  0  0  0  0  0  0  0  0  0
   36.8740   28.0740   41.3840 C   0  0  0  0  0  0  0  0  0  0  0  0
   37.0090   28.8570   42.4780 N   0  0  0  0  0  0  0  0  0  0  0  0
   37.6900   28.4270   43.5730 C   0  0  0  0  0  0  0  0  0  0  0  0
   38.2460   27.1950   43.5780 N   0  0  0  0  0  0  0  0  0  0  0  0
   37.3350   26.1830   40.5120 H   0  0  0  0  0  0  0  0  0  0  0  0
   37.7920   29.0610   44.4420 H   0  0  0  0  0  0  0  0  0  0  0  0
   38.7470   25.0510   42.5060 C   0  0  0  0  0  0  0  0  0  0  0  0
   39.5430   24.9640   43.6250 F   0  0  0  0  0  0  0  0  0  0  0  0
   39.5640   24.9790   41.3970 F   0  0  0  0  0  0  0  0  0  0  0  0
   37.8020   24.0670   42.5300 F   0  0  0  0  0  0  0  0  0  0  0  0
   36.1910   29.2910   37.8070 C   0  0  0  0  0  0  0  0  0  0  0  0
   34.9240   28.8240   37.4750 C   0  0  0  0  0  0  0  0  0  0  0  0
   34.8550   29.0210   36.1190 C   0  0  0  0  0  0  0  0  0  0  0  0
   36.0600   29.5950   35.6630 C   0  0  0  0  0  0  0  0  0  0  0  0
   36.7890   29.7150   36.7390 O   0  0  0  0  0  0  0  0  0  0  0  0
   34.1750   28.4060   38.1280 H   0  0  0  0  0  0  0  0  0  0  0  0
   34.0140   28.7810   35.4820 H   0  0  0  0  0  0  0  0  0  0  0  0
   36.3350   29.9400   34.2720 C   0  0  0  0  0  0  0  0  0  0  0  0
   36.3600   31.2680   33.9820 N   0  0  0  0  0  0  0  0  0  0  0  0
   36.6290   31.3910   32.6490 C   0  0  0  0  0  0  0  0  0  0  0  0
   36.7340   32.2700   32.0270 H   0  0  0  0  0  0  0  0  0  0  0  0
   36.7610   30.1360   32.1610 N   0  0  0  0  0  0  0  0  0  0  0  0
   36.9730   29.8530   31.1600 H   0  0  0  0  0  0  0  0  0  0  0  0
   36.5850   29.2300   33.1340 N   0  0  0  0  0  0  0  0  0  0  0  0
  1  4  1  6  0  0  0
  1 10  1  0  0  0  0
  2  1  1  0  0  0  0
  2  5  1  0  0  0  0
  3  7  1  1  0  0  0
  3  2  1  0  0  0  0
  3  1  1  0  0  0  0
  6  2  1  0  0  0  0
  8 13  1  0  0  0  0
  9 10  1  0  0  0  0
  9  8  2  0  0  0  0
 10 11  2  0  0  0  0
 11 12  1  0  0  0  0
 12 13  2  0  0  0  0
 12 15  1  0  0  0  0
 14  9  1  0  0  0  0
 16  8  1  0  0  0  0
 16 19  1  0  0  0  0
 16 17  1  0  0  0  0
 18 16  1  0  0  0  0
 20  3  1  0  0  0  0
 21 20  2  0  0  0  0
 21 25  1  0  0  0  0
 22 21  1  0  0  0  0
 23 22  2  0  0  0  0
 23 24  1  0  0  0  0
 24 20  1  0  0  0  0
 26 22  1  0  0  0  0
 27 23  1  0  0  0  0
 28 27  1  0  0  0  0
 29 28  2  0  0  0  0
 30 29  1  0  0  0  0
 31 29  1  0  0  0  0
 31 33  1  0  0  0  0
 32 31  1  0  0  0  0
 33 27  2  0  0  0  0
M  END
>  <minimizedAffinity>
-5.75648642

$$$$

 OpenBabel03252501173D

 33 36  0  0  1  0  0  0  0  0999 V2000
   38.4780   30.4120   40.5790 C   0  0  1  0  0  0  0  0  0  0  0  0
   37.2740   31.1440   40.1260 C   0  0  0  0  0  0  0  0  0  0  0  0
   38.3150   31.7470   41.1490 C   0  0  2  0  0  0  0  0  0  0  0  0
   39.2880   30.2870   39.7990 H   0  0  0  0  0  0  0  0  0  0  0  0
   36.2850   30.9420   40.5680 H   0  0  0  0  0  0  0  0  0  0  0  0
   37.2340   31.6200   39.1410 H   0  0  0  0  0  0  0  0  0  0  0  0
   37.9260   31.8560   42.1610 H   0  0  0  0  0  0  0  0  0  0  0  0
   38.8650   27.3080   42.6610 C   0  0  0  0  0  0  0  0  0  0  0  0
   39.2280   28.3980   41.8880 C   0  0  0  0  0  0  0  0  0  0  0  0
   38.2060   29.2100   41.4270 C   0  0  0  0  0  0  0  0  0  0  0  0
   36.9230   28.9160   41.7390 N   0  0  0  0  0  0  0  0  0  0  0  0
   36.6120   27.8340   42.5000 C   0  0  0  0  0  0  0  0  0  0  0  0
   37.5970   27.0310   42.9590 N   0  0  0  0  0  0  0  0  0  0  0  0
   40.2440   28.6210   41.6480 H   0  0  0  0  0  0  0  0  0  0  0  0
   35.5840   27.6080   42.7430 H   0  0  0  0  0  0  0  0  0  0  0  0
   39.9600   26.4240   43.1800 C   0  0  0  0  0  0  0  0  0  0  0  0
   39.3850   25.2270   43.5410 F   0  0  0  0  0  0  0  0  0  0  0  0
   40.4560   27.0190   44.3200 F   0  0  0  0  0  0  0  0  0  0  0  0
   40.9200   26.2120   42.2340 F   0  0  0  0  0  0  0  0  0  0  0  0
   39.1350   32.8290   40.5470 C   0  0  0  0  0  0  0  0  0  0  0  0
   38.9280   34.2000   40.6560 C   0  0  0  0  0  0  0  0  0  0  0  0
   39.9580   34.7390   39.9270 C   0  0  0  0  0  0  0  0  0  0  0  0
   40.7560   33.7030   39.3990 C   0  0  0  0  0  0  0  0  0  0  0  0
   40.1860   32.6080   39.8220 O   0  0  0  0  0  0  0  0  0  0  0  0
   38.1440   34.7160   41.1870 H   0  0  0  0  0  0  0  0  0  0  0  0
   40.1450   35.7930   39.7700 H   0  0  0  0  0  0  0  0  0  0  0  0
   41.9390   33.9130   38.5720 C   0  0  0  0  0  0  0  0  0  0  0  0
   43.1340   33.8820   39.2210 N   0  0  0  0  0  0  0  0  0  0  0  0
   44.1110   34.0960   38.2930 C   0  0  0  0  0  0  0  0  0  0  0  0
   45.1870   34.1470   38.3970 H   0  0  0  0  0  0  0  0  0  0  0  0
   43.4880   34.2520   37.1020 N   0  0  0  0  0  0  0  0  0  0  0  0
   43.9400   34.4350   36.1580 H   0  0  0  0  0  0  0  0  0  0  0  0
   42.1590   34.1440   37.2460 N   0  0  0  0  0  0  0  0  0  0  0  0
  1  4  1  6  0  0  0
  1  3  1  0  0  0  0
  1 10  1  0  0  0  0
  2  5  1  0  0  0  0
  2  1  1  0  0  0  0
  2  3  1  0  0  0  0
  3  7  1  1  0  0  0
  6  2  1  0  0  0  0
  8 13  1  0  0  0  0
  8 16  1  0  0  0  0
  9  8  2  0  0  0  0
 10 11  2  0  0  0  0
 10  9  1  0  0  0  0
 11 12  1  0  0  0  0
 12 15  1  0  0  0  0
 12 13  2  0  0  0  0
 14  9  1  0  0  0  0
 16 17  1  0  0  0  0
 16 18  1  0  0  0  0
 19 16  1  0  0  0  0
 20 21  2  0  0  0  0
 20  3  1  0  0  0  0
 21 25  1  0  0  0  0
 22 21  1  0  0  0  0
 23 24  1  0  0  0  0
 23 22  2  0  0  0  0
 24 20  1  0  0  0  0
 26 22  1  0  0  0  0
 27 28  1  0  0  0  0
 27 23  1  0  0  0  0
 29 30  1  0  0  0  0
 29 28  2  0  0  0  0
 31 33  1  0  0  0  0
 31 29  1  0  0  0  0
 32 31  1  0  0  0  0
 33 27  2  0  0  0  0
M  END
>  <minimizedAffinity>
-5.66540813

$$$$

 OpenBabel03252501173D

 33 36  0  0  1  0  0  0  0  0999 V2000
   37.6610   32.4880   39.0590 C   0  0  1  0  0  0  0  0  0  0  0  0
   37.0170   33.7720   39.4130 C   0  0  0  0  0  0  0  0  0  0  0  0
   38.2520   33.1830   40.2000 C   0  0  2  0  0  0  0  0  0  0  0  0
   38.2550   32.4950   38.0970 H   0  0  0  0  0  0  0  0  0  0  0  0
   36.0870   33.7990   40.0030 H   0  0  0  0  0  0  0  0  0  0  0  0
   37.2040   34.6820   38.8330 H   0  0  0  0  0  0  0  0  0  0  0  0
   38.0140   32.8550   41.2120 H   0  0  0  0  0  0  0  0  0  0  0  0
   35.6520   29.3490   38.5750 C   0  0  0  0  0  0  0  0  0  0  0  0
   36.4360   30.4440   38.2510 C   0  0  0  0  0  0  0  0  0  0  0  0
   36.8200   31.2720   39.2910 C   0  0  0  0  0  0  0  0  0  0  0  0
   36.4250   30.9920   40.5540 N   0  0  0  0  0  0  0  0  0  0  0  0
   35.6540   29.9060   40.8270 C   0  0  0  0  0  0  0  0  0  0  0  0
   35.2710   29.0860   39.8240 N   0  0  0  0  0  0  0  0  0  0  0  0
   36.7420   30.6560   37.2510 H   0  0  0  0  0  0  0  0  0  0  0  0
   35.3440   29.6910   41.8390 H   0  0  0  0  0  0  0  0  0  0  0  0
   35.2370   28.4330   37.4630 C   0  0  0  0  0  0  0  0  0  0  0  0
   36.3800   28.0310   36.8140 F   0  0  0  0  0  0  0  0  0  0  0  0
   34.4860   29.1810   36.5810 F   0  0  0  0  0  0  0  0  0  0  0  0
   34.5640   27.3450   37.9380 F   0  0  0  0  0  0  0  0  0  0  0  0
   39.5020   33.9420   39.9400 C   0  0  0  0  0  0  0  0  0  0  0  0
   39.8130   35.2240   40.3790 C   0  0  0  0  0  0  0  0  0  0  0  0
   41.0690   35.4420   39.8710 C   0  0  0  0  0  0  0  0  0  0  0  0
   41.4880   34.3060   39.1470 C   0  0  0  0  0  0  0  0  0  0  0  0
   40.4890   33.4720   39.2460 O   0  0  0  0  0  0  0  0  0  0  0  0
   39.2100   35.8900   40.9770 H   0  0  0  0  0  0  0  0  0  0  0  0
   41.6610   36.3380   39.9960 H   0  0  0  0  0  0  0  0  0  0  0  0
   42.7750   34.1890   38.4690 C   0  0  0  0  0  0  0  0  0  0  0  0
   43.8690   34.1320   39.2750 N   0  0  0  0  0  0  0  0  0  0  0  0
   44.9660   34.0250   38.4710 C   0  0  0  0  0  0  0  0  0  0  0  0
   46.0180   33.9540   38.7140 H   0  0  0  0  0  0  0  0  0  0  0  0
   44.5140   34.0190   37.1950 N   0  0  0  0  0  0  0  0  0  0  0  0
   45.0920   33.9480   36.3070 H   0  0  0  0  0  0  0  0  0  0  0  0
   43.1770   34.1180   37.1680 N   0  0  0  0  0  0  0  0  0  0  0  0
  1  4  1  6  0  0  0
  1 10  1  0  0  0  0
  1  2  1  0  0  0  0
  1  3  1  0  0  0  0
  2  5  1  0  0  0  0
  2  3  1  0  0  0  0
  3  7  1  1  0  0  0
  6  2  1  0  0  0  0
  8 13  1  0  0  0  0
  9  8  2  0  0  0  0
  9 10  1  0  0  0  0
 10 11  2  0  0  0  0
 11 12  1  0  0  0  0
 12 15  1  0  0  0  0
 13 12  2  0  0  0  0
 14  9  1  0  0  0  0
 16 19  1  0  0  0  0
 16  8  1  0  0  0  0
 17 16  1  0  0  0  0
 18 16  1  0  0  0  0
 20  3  1  0  0  0  0
 20 21  2  0  0  0  0
 21 25  1  0  0  0  0
 22 26  1  0  0  0  0
 22 21  1  0  0  0  0
 23 24  1  0  0  0  0
 23 22  2  0  0  0  0
 24 20  1  0  0  0  0
 27 23  1  0  0  0  0
 27 28  1  0  0  0  0
 29 30  1  0  0  0  0
 29 28  2  0  0  0  0
 31 29  1  0  0  0  0
 32 31  1  0  0  0  0
 33 31  1  0  0  0  0
 33 27  2  0  0  0  0
M  END
>  <minimizedAffinity>
-5.65307856

$$$$
