
 OpenBabel03252509033D

 46 48  0  0  1  0  0  0  0  0999 V2000
   47.1940   34.1570   43.0750 N   0  0  0  0  0  0  0  0  0  0  0  0
   46.7070   35.3670   42.5220 C   0  0  0  0  0  0  0  0  0  0  0  0
   45.2390   35.6190   42.7520 C   0  0  0  0  0  0  0  0  0  0  0  0
   44.7050   35.0880   44.0620 C   0  0  0  0  0  0  0  0  0  0  0  0
   45.8120   34.4910   44.9020 C   0  0  0  0  0  0  0  0  0  0  0  0
   46.4350   33.4070   43.9520 C   0  0  2  0  0  0  0  0  0  0  0  0
   47.2280   36.2060   43.0650 H   0  0  0  0  0  0  0  0  0  0  0  0
   46.9080   35.5390   41.4640 H   0  0  0  0  0  0  0  0  0  0  0  0
   45.0270   36.7050   42.6290 H   0  0  0  0  0  0  0  0  0  0  0  0
   44.7020   35.1100   41.9140 H   0  0  0  0  0  0  0  0  0  0  0  0
   44.2550   35.9570   44.6200 H   0  0  0  0  0  0  0  0  0  0  0  0
   43.9170   34.3500   43.9260 H   0  0  0  0  0  0  0  0  0  0  0  0
   46.6000   35.2090   45.1460 H   0  0  0  0  0  0  0  0  0  0  0  0
   45.3540   33.9700   45.7620 H   0  0  0  0  0  0  0  0  0  0  0  0
   45.5610   32.8500   43.5580 H   0  0  0  0  0  0  0  0  0  0  0  0
   48.1580   33.4790   42.2450 C   0  0  0  0  0  0  0  0  0  0  0  0
   48.8930   34.1970   41.8410 H   0  0  0  0  0  0  0  0  0  0  0  0
   48.7180   32.7950   42.9440 H   0  0  0  0  0  0  0  0  0  0  0  0
   47.4440   32.6720   41.2270 C   0  0  0  0  0  0  0  0  0  0  0  0
   47.4920   31.5960   41.4430 H   0  0  0  0  0  0  0  0  0  0  0  0
   46.3420   32.9060   41.1880 H   0  0  0  0  0  0  0  0  0  0  0  0
   49.3420   32.2860   38.0080 C   0  0  0  0  0  0  0  0  0  0  0  0
   48.8100   32.0310   39.2860 C   0  0  0  0  0  0  0  0  0  0  0  0
   47.9980   32.9540   39.8800 C   0  0  0  0  0  0  0  0  0  0  0  0
   47.7420   34.0810   39.2020 N   0  0  0  0  0  0  0  0  0  0  0  0
   48.2480   34.3270   37.9820 C   0  0  0  0  0  0  0  0  0  0  0  0
   49.0480   33.4410   37.3720 N   0  0  0  0  0  0  0  0  0  0  0  0
   49.9790   31.4700   37.6340 H   0  0  0  0  0  0  0  0  0  0  0  0
   49.0300   31.1100   39.8180 H   0  0  0  0  0  0  0  0  0  0  0  0
   48.0470   35.2440   37.4200 H   0  0  0  0  0  0  0  0  0  0  0  0
   47.2140   32.6840   44.8410 O   0  0  0  0  0  0  0  0  0  0  0  0
   46.1300   30.4900   43.8130 O   0  0  0  0  0  0  0  0  0  0  0  0
   46.6220   31.1250   45.1100 P   0  0  2  0  0  0  0  0  0  0  0  0
   45.2500   31.2940   46.1030 O   0  0  0  0  0  0  0  0  0  0  0  0
   44.4960   31.7000   45.6260 H   0  0  0  0  0  0  0  0  0  0  0  0
   47.7270   30.1520   45.8970 O   0  0  0  0  0  0  0  0  0  0  0  0
   47.5040   28.8290   45.5770 C   0  0  0  0  0  0  0  0  0  0  0  0
   48.4350   28.2690   45.6980 H   0  0  0  0  0  0  0  0  0  0  0  0
   47.3000   28.8120   44.4660 H   0  0  0  0  0  0  0  0  0  0  0  0
   46.3540   28.2140   46.2720 C   0  0  0  0  0  0  0  0  0  0  0  0
   46.0790   28.5360   47.5580 N   0  0  0  0  0  0  0  0  0  0  0  0
   44.9900   27.8540   47.9810 C   0  0  0  0  0  0  0  0  0  0  0  0
   44.5960   27.9700   48.9980 H   0  0  0  0  0  0  0  0  0  0  0  0
   44.5890   27.0950   46.9310 N   0  0  0  0  0  0  0  0  0  0  0  0
   43.7620   26.4600   46.9810 H   0  0  0  0  0  0  0  0  0  0  0  0
   45.4090   27.3240   45.9340 N   0  0  0  0  0  0  0  0  0  0  0  0
  1  6  1  0  0  0  0
  2  3  1  0  0  0  0
  2  7  1  0  0  0  0
  2  1  1  0  0  0  0
  3  4  1  0  0  0  0
  4 11  1  0  0  0  0
  4  5  1  0  0  0  0
  5 13  1  0  0  0  0
  5 14  1  0  0  0  0
  6 15  1  6  0  0  0
  6 31  1  0  0  0  0
  6  5  1  0  0  0  0
  8  2  1  0  0  0  0
  9  3  1  0  0  0  0
 10  3  1  0  0  0  0
 12  4  1  0  0  0  0
 16 18  1  0  0  0  0
 16  1  1  0  0  0  0
 17 16  1  0  0  0  0
 19 20  1  0  0  0  0
 19 16  1  0  0  0  0
 21 19  1  0  0  0  0
 22 23  1  0  0  0  0
 23 29  1  0  0  0  0
 23 24  2  0  0  0  0
 24 19  1  0  0  0  0
 25 24  1  0  0  0  0
 26 25  2  0  0  0  0
 27 26  1  0  0  0  0
 27 22  2  0  0  0  0
 28 22  1  0  0  0  0
 30 26  1  0  0  0  0
 31 33  1  0  0  0  0
 33 32  2  6  0  0  0
 33 36  1  0  0  0  0
 33 34  1  0  0  0  0
 35 34  1  0  0  0  0
 37 38  1  0  0  0  0
 37 36  1  0  0  0  0
 37 40  1  0  0  0  0
 39 37  1  0  0  0  0
 40 41  1  0  0  0  0
 41 42  2  0  0  0  0
 42 43  1  0  0  0  0
 44 45  1  0  0  0  0
 44 42  1  0  0  0  0
 46 40  2  0  0  0  0
 46 44  1  0  0  0  0
M  END
>  <minimizedAffinity>
-3.94072485

>  <minimizedRMSD>
0.582258284

$$$$
