REMARK  Name = 
REMARK  6 active torsions:
REMARK  status: ('A' for Active; 'I' for Inactive)
REMARK    1  A    between atoms: C_1  and  C_4
REMARK    2  A    between atoms: C_1  and  C_10
REMARK    3  A    between atoms: C_8  and  O_9
REMARK    4  A    between atoms: C_10  and  C_11
REMARK    5  A    between atoms: C_15  and  C_17
REMARK    6  A    between atoms: C_19  and  C_34
REMARK                            x       y       z     vdW  Elec       q    Type
REMARK                         _______ _______ _______ _____ _____    ______ ____
ROOT
ATOM      1  C   UNL     1      48.333  34.217  40.923  0.00  0.00    +0.000 A 
ATOM      2  C   UNL     1      47.847  34.330  39.640  0.00  0.00    +0.000 A 
ATOM      3  C   UNL     1      48.215  33.462  38.601  0.00  0.00    +0.000 A 
ATOM      4  N   UNL     1      49.099  32.484  38.949  0.00  0.00    +0.000 NA
ATOM      5  C   UNL     1      49.566  32.383  40.201  0.00  0.00    +0.000 A 
ATOM      6  N   UNL     1      49.191  33.232  41.164  0.00  0.00    +0.000 NA
ATOM      7  H   UNL     1      47.148  35.133  39.446  0.00  0.00    +0.000 HD
ATOM      8  H   UNL     1      47.813  33.581  37.608  0.00  0.00    +0.000 HD
ENDROOT
BRANCH   5   9
ATOM      9  C   UNL     1      50.517  31.292  40.594  0.00  0.00    +0.000 C 
ATOM     10  C   UNL     1      51.137  31.339  41.955  0.00  0.00    +0.000 C 
ATOM     11  C   UNL     1      51.954  31.669  40.693  0.00  0.00    +0.000 C 
ATOM     12  H   UNL     1      50.302  30.344  40.061  0.00  0.00    +0.000 HD
ATOM     13  H   UNL     1      50.831  32.193  42.601  0.00  0.00    +0.000 HD
ATOM     14  H   UNL     1      51.296  30.377  42.458  0.00  0.00    +0.000 HD
ATOM     15  H   UNL     1      52.264  32.724  40.627  0.00  0.00    +0.000 HD
BRANCH  11  16
ATOM     16  C   UNL     1      53.008  30.655  40.422  0.00  0.00    +0.000 A 
ATOM     17  N   UNL     1      54.158  30.469  41.071  0.00  0.00    +0.000 NA
ATOM     18  C   UNL     1      54.863  29.438  40.526  0.00  0.00    +0.000 A 
ATOM     19  H   UNL     1      55.809  29.237  41.011  0.00  0.00    +0.000 HD
ATOM     20  N   UNL     1      54.097  28.991  39.507  0.00  0.00    +0.000 N 
ATOM     21  H   UNL     1      54.489  28.185  38.964  0.00  0.00    +0.000 HD
ATOM     22  N   UNL     1      52.990  29.723  39.451  0.00  0.00    +0.000 NA
ENDBRANCH  11  16
ENDBRANCH   5   9
BRANCH   1  23
ATOM     23  C   UNL     1      47.930  35.116  41.974  0.00  0.00    +0.000 C 
ATOM     24  H   UNL     1      48.062  36.172  41.595  0.00  0.00    +0.000 HD
ATOM     25  H   UNL     1      48.580  35.061  42.870  0.00  0.00    +0.000 HD
BRANCH  23  26
ATOM     26  C   UNL     1      46.502  34.953  42.304  0.00  0.00    +0.000 C 
ATOM     27  H   UNL     1      45.998  34.243  41.589  0.00  0.00    +0.000 HD
ATOM     28  H   UNL     1      45.889  35.887  42.223  0.00  0.00    +0.000 HD
BRANCH  26  31
ATOM     29 CL   UNL     1      44.560  36.408  44.025  0.00  0.00    +0.000 Cl
ATOM     30  C   UNL     1      45.390  34.965  44.548  0.00  0.00    +0.000 A 
ATOM     31  C   UNL     1      46.263  34.383  43.667  0.00  0.00    +0.000 A 
ATOM     32  C   UNL     1      46.920  33.243  44.077  0.00  0.00    +0.000 A 
ATOM     33  C   UNL     1      46.707  32.708  45.331  0.00  0.00    +0.000 A 
ATOM     34  C   UNL     1      45.812  33.317  46.216  0.00  0.00    +0.000 A 
ATOM     35  C   UNL     1      45.156  34.463  45.793  0.00  0.00    +0.000 A 
ATOM     36  H   UNL     1      47.623  32.733  43.431  0.00  0.00    +0.000 HD
ATOM     37  H   UNL     1      47.176  31.835  45.713  0.00  0.00    +0.000 HD
ATOM     38  H   UNL     1      45.628  32.917  47.203  0.00  0.00    +0.000 HD
BRANCH  35  39
ATOM     39  O   UNL     1      44.242  35.143  46.609  0.00  0.00    +0.000 OA
ATOM     40  H   UNL     1      43.443  34.625  46.959  0.00  0.00    +0.000 HD
ENDBRANCH  35  39
ENDBRANCH  26  31
ENDBRANCH  23  26
ENDBRANCH   1  23
TORSDOF 6
