
 OpenBabel03242521463D

 45 48  0  0  1  0  0  0  0  0999 V2000
   45.2240   36.8930   42.8680 C   0  0  0  0  0  0  0  0  0  0  0  0
   46.1360   37.2040   42.3260 H   0  0  0  0  0  0  0  0  0  0  0  0
   44.3890   36.6810   42.1990 H   0  0  0  0  0  0  0  0  0  0  0  0
   45.5770   35.6630   43.6750 C   0  0  0  0  0  0  0  0  0  0  0  0
   46.6110   34.8380   43.2020 C   0  0  0  0  0  0  0  0  0  0  0  0
   46.9680   33.6930   43.9360 C   0  0  0  0  0  0  0  0  0  0  0  0
   46.3010   33.4510   45.0490 N   0  0  0  0  0  0  0  0  0  0  0  0
   45.3060   34.2560   45.4940 C   0  0  0  0  0  0  0  0  0  0  0  0
   44.9390   35.3690   44.8050 N   0  0  0  0  0  0  0  0  0  0  0  0
   47.0730   35.1510   42.2780 H   0  0  0  0  0  0  0  0  0  0  0  0
   44.7770   34.0350   46.4060 H   0  0  0  0  0  0  0  0  0  0  0  0
   49.0600   33.6250   42.5910 C   0  0  2  0  0  0  0  0  0  0  0  0
   48.0430   32.9000   43.3710 C   0  0  2  0  0  0  0  0  0  0  0  0
   47.6030   31.9100   42.4210 O   0  0  0  0  0  0  0  0  0  0  0  0
   48.8160   31.3750   42.0180 C   0  0  0  0  0  0  0  0  0  0  0  0
   49.8910   32.4100   42.1160 C   0  0  1  0  0  0  0  0  0  0  0  0
   48.6100   34.0080   41.6460 H   0  0  0  0  0  0  0  0  0  0  0  0
   48.5360   32.2910   44.1810 H   0  0  0  0  0  0  0  0  0  0  0  0
   48.7050   30.9290   41.0150 H   0  0  0  0  0  0  0  0  0  0  0  0
   49.0540   30.5410   42.7040 H   0  0  0  0  0  0  0  0  0  0  0  0
   50.6880   32.2010   42.8330 H   0  0  0  0  0  0  0  0  0  0  0  0
   49.7700   34.5580   43.2600 O   0  0  0  0  0  0  0  0  0  0  0  0
   49.8370   34.3030   44.2340 H   0  0  0  0  0  0  0  0  0  0  0  0
   50.4840   32.7300   40.8900 O   0  0  0  0  0  0  0  0  0  0  0  0
   51.2940   32.2260   40.7050 H   0  0  0  0  0  0  0  0  0  0  0  0
   45.3970   39.2650   43.8980 C   0  0  0  0  0  0  0  0  0  0  0  0
   46.1660   39.6010   42.9620 O   0  0  0  0  0  0  0  0  0  0  0  0
   44.9000   37.9330   43.8390 N   0  0  0  0  0  0  0  0  0  0  0  0
   44.2120   37.6570   44.5860 H   0  0  0  0  0  0  0  0  0  0  0  0
   45.0030   40.1410   45.0010 C   0  0  0  0  0  0  0  0  0  0  0  0
   45.5430   39.9600   46.2310 C   0  0  0  0  0  0  0  0  0  0  0  0
   45.1100   40.8420   47.2250 C   0  0  0  0  0  0  0  0  0  0  0  0
   44.1890   41.8570   47.0170 C   0  0  0  0  0  0  0  0  0  0  0  0
   43.7030   41.9610   45.7480 C   0  0  0  0  0  0  0  0  0  0  0  0
   44.0910   41.1340   44.7600 N   0  0  0  0  0  0  0  0  0  0  0  0
   46.2640   39.1920   46.4640 H   0  0  0  0  0  0  0  0  0  0  0  0
   45.5250   40.7210   48.2220 H   0  0  0  0  0  0  0  0  0  0  0  0
   43.8810   42.5140   47.8020 H   0  0  0  0  0  0  0  0  0  0  0  0
   42.7270   42.9780   45.3720 C   0  0  0  0  0  0  0  0  0  0  0  0
   41.4590   42.8520   45.7860 N   0  0  0  0  0  0  0  0  0  0  0  0
   40.7220   43.9020   45.3260 C   0  0  0  0  0  0  0  0  0  0  0  0
   39.6520   44.0780   45.5000 H   0  0  0  0  0  0  0  0  0  0  0  0
   41.5810   44.6810   44.6120 N   0  0  0  0  0  0  0  0  0  0  0  0
   41.3380   45.5770   44.1180 H   0  0  0  0  0  0  0  0  0  0  0  0
   42.7960   44.1210   44.6410 N   0  0  0  0  0  0  0  0  0  0  0  0
  1  4  1  0  0  0  0
  1 28  1  0  0  0  0
  2  1  1  0  0  0  0
  3  1  1  0  0  0  0
  4  9  1  0  0  0  0
  5  4  2  0  0  0  0
  5  6  1  0  0  0  0
  6  7  2  0  0  0  0
  7  8  1  0  0  0  0
  8 11  1  0  0  0  0
  9  8  2  0  0  0  0
 10  5  1  0  0  0  0
 12 17  1  6  0  0  0
 12 22  1  0  0  0  0
 12 13  1  0  0  0  0
 13  6  1  0  0  0  0
 13 18  1  1  0  0  0
 14 13  1  0  0  0  0
 15 16  1  0  0  0  0
 15 14  1  0  0  0  0
 15 20  1  0  0  0  0
 16 12  1  0  0  0  0
 16 21  1  1  0  0  0
 19 15  1  0  0  0  0
 22 23  1  0  0  0  0
 24 16  1  0  0  0  0
 25 24  1  0  0  0  0
 26 30  1  0  0  0  0
 27 26  2  0  0  0  0
 28 26  1  0  0  0  0
 28 29  1  0  0  0  0
 30 31  1  0  0  0  0
 31 36  1  0  0  0  0
 31 32  2  0  0  0  0
 32 37  1  0  0  0  0
 33 32  1  0  0  0  0
 33 38  1  0  0  0  0
 34 33  2  0  0  0  0
 35 30  2  0  0  0  0
 35 34  1  0  0  0  0
 39 34  1  0  0  0  0
 39 40  1  0  0  0  0
 41 42  1  0  0  0  0
 41 40  2  0  0  0  0
 43 45  1  0  0  0  0
 43 41  1  0  0  0  0
 44 43  1  0  0  0  0
 45 39  2  0  0  0  0
M  END
>  <minimizedAffinity>
-4.21269035

>  <minimizedRMSD>
0.850664079

$$$$
