
 OpenBabel03242517093D

 32 34  0  0  1  0  0  0  0  0999 V2000
   36.9220   27.1800   41.2800 C   0  0  2  0  0  0  0  0  0  0  0  0
   37.9590   28.1740   40.9150 C   0  0  2  0  0  0  0  0  0  0  0  0
   39.0750   28.2600   41.9170 C   0  0  0  0  0  0  0  0  0  0  0  0
   38.5470   28.5710   43.3040 C   0  0  0  0  0  0  0  0  0  0  0  0
   37.3390   27.7690   43.6790 C   0  0  0  0  0  0  0  0  0  0  0  0
   37.0590   26.6510   42.7030 C   0  0  0  0  0  0  0  0  0  0  0  0
   35.8770   27.6070   41.2100 H   0  0  0  0  0  0  0  0  0  0  0  0
   38.4120   27.9950   39.9100 H   0  0  0  0  0  0  0  0  0  0  0  0
   39.7430   29.0980   41.6340 H   0  0  0  0  0  0  0  0  0  0  0  0
   39.6590   27.3260   42.0440 H   0  0  0  0  0  0  0  0  0  0  0  0
   38.2700   29.6430   43.3140 H   0  0  0  0  0  0  0  0  0  0  0  0
   39.3640   28.4680   44.0470 H   0  0  0  0  0  0  0  0  0  0  0  0
   36.4480   28.3600   43.9050 H   0  0  0  0  0  0  0  0  0  0  0  0
   37.5840   27.2470   44.6520 H   0  0  0  0  0  0  0  0  0  0  0  0
   36.0680   26.2320   42.9750 H   0  0  0  0  0  0  0  0  0  0  0  0
   37.7860   25.8380   42.7530 H   0  0  0  0  0  0  0  0  0  0  0  0
   36.9230   26.0120   40.3770 C   0  0  0  0  0  0  0  0  0  0  0  0
   36.9010   24.7500   41.0000 C   0  0  0  0  0  0  0  0  0  0  0  0
   36.8920   23.5920   40.2130 C   0  0  0  0  0  0  0  0  0  0  0  0
   36.9030   23.7830   38.8460 N   0  0  0  0  0  0  0  0  0  0  0  0
   36.9250   25.0020   38.2770 C   0  0  0  0  0  0  0  0  0  0  0  0
   36.9340   26.1120   39.0370 N   0  0  0  0  0  0  0  0  0  0  0  0
   36.8930   24.5050   42.0300 H   0  0  0  0  0  0  0  0  0  0  0  0
   36.8760   22.5870   40.5880 H   0  0  0  0  0  0  0  0  0  0  0  0
   36.9320   25.0260   37.1840 H   0  0  0  0  0  0  0  0  0  0  0  0
   37.3340   29.5210   40.8200 C   0  0  0  0  0  0  0  0  0  0  0  0
   37.9330   30.6670   40.4570 N   0  0  0  0  0  0  0  0  0  0  0  0
   37.0780   31.6810   40.4810 C   0  0  0  0  0  0  0  0  0  0  0  0
   37.4600   32.6490   40.2050 H   0  0  0  0  0  0  0  0  0  0  0  0
   35.9050   31.1680   40.8680 N   0  0  0  0  0  0  0  0  0  0  0  0
   35.0630   31.7960   40.9600 H   0  0  0  0  0  0  0  0  0  0  0  0
   36.0460   29.8720   41.0750 N   0  0  0  0  0  0  0  0  0  0  0  0
  1  7  1  6  0  0  0
  1  6  1  0  0  0  0
  2  8  1  6  0  0  0
  2  1  1  0  0  0  0
  2  3  1  0  0  0  0
  3 10  1  0  0  0  0
  3  4  1  0  0  0  0
  4 11  1  0  0  0  0
  4  5  1  0  0  0  0
  4 12  1  0  0  0  0
  5 13  1  0  0  0  0
  5 14  1  0  0  0  0
  6 16  1  0  0  0  0
  6 15  1  0  0  0  0
  6  5  1  0  0  0  0
  9  3  1  0  0  0  0
 17 18  1  0  0  0  0
 17  1  1  0  0  0  0
 18 23  1  0  0  0  0
 19 24  1  0  0  0  0
 19 18  2  0  0  0  0
 20 19  1  0  0  0  0
 21 20  2  0  0  0  0
 21 22  1  0  0  0  0
 22 17  2  0  0  0  0
 25 21  1  0  0  0  0
 26  2  1  0  0  0  0
 26 32  2  0  0  0  0
 27 28  2  0  0  0  0
 27 26  1  0  0  0  0
 28 30  1  0  0  0  0
 29 28  1  0  0  0  0
 30 31  1  0  0  0  0
 30 32  1  0  0  0  0
M  END
>  <minimizedAffinity>
-5.05358458

$$$$

 OpenBabel03242517093D

 32 34  0  0  1  0  0  0  0  0999 V2000
   38.6550   31.1490   40.2710 C   0  0  2  0  0  0  0  0  0  0  0  0
   39.6930   32.2030   40.3570 C   0  0  2  0  0  0  0  0  0  0  0  0
   39.1510   33.5320   40.8000 C   0  0  0  0  0  0  0  0  0  0  0  0
   38.0330   34.0010   39.8890 C   0  0  0  0  0  0  0  0  0  0  0  0
   37.0450   32.9280   39.5530 C   0  0  0  0  0  0  0  0  0  0  0  0
   37.2320   31.6840   40.3870 C   0  0  0  0  0  0  0  0  0  0  0  0
   38.6940   30.5900   39.2890 H   0  0  0  0  0  0  0  0  0  0  0  0
   40.5430   31.9360   41.0310 H   0  0  0  0  0  0  0  0  0  0  0  0
   39.9600   34.2880   40.7280 H   0  0  0  0  0  0  0  0  0  0  0  0
   38.7050   33.5380   41.8150 H   0  0  0  0  0  0  0  0  0  0  0  0
   38.5020   34.3500   38.9500 H   0  0  0  0  0  0  0  0  0  0  0  0
   37.5450   34.8960   40.3270 H   0  0  0  0  0  0  0  0  0  0  0  0
   36.9540   32.7060   38.4860 H   0  0  0  0  0  0  0  0  0  0  0  0
   36.0250   33.3200   39.8450 H   0  0  0  0  0  0  0  0  0  0  0  0
   36.5720   30.9060   39.9520 H   0  0  0  0  0  0  0  0  0  0  0  0
   36.9440   31.8140   41.4320 H   0  0  0  0  0  0  0  0  0  0  0  0
   38.8190   30.1140   41.3120 C   0  0  0  0  0  0  0  0  0  0  0  0
   37.6780   29.8280   42.0840 C   0  0  0  0  0  0  0  0  0  0  0  0
   37.7490   28.8530   43.0860 C   0  0  0  0  0  0  0  0  0  0  0  0
   38.9700   28.2270   43.2430 N   0  0  0  0  0  0  0  0  0  0  0  0
   40.0450   28.5210   42.4900 C   0  0  0  0  0  0  0  0  0  0  0  0
   39.9730   29.4590   41.5290 N   0  0  0  0  0  0  0  0  0  0  0  0
   36.7090   30.2520   42.0400 H   0  0  0  0  0  0  0  0  0  0  0  0
   36.9400   28.5610   43.7270 H   0  0  0  0  0  0  0  0  0  0  0  0
   40.9570   27.9570   42.7080 H   0  0  0  0  0  0  0  0  0  0  0  0
   40.3110   32.3920   39.0160 C   0  0  0  0  0  0  0  0  0  0  0  0
   41.3410   33.1960   38.7070 N   0  0  0  0  0  0  0  0  0  0  0  0
   41.6350   33.1190   37.4150 C   0  0  0  0  0  0  0  0  0  0  0  0
   42.4500   33.7270   37.0620 H   0  0  0  0  0  0  0  0  0  0  0  0
   40.7710   32.2430   36.8900 N   0  0  0  0  0  0  0  0  0  0  0  0
   40.8140   32.0170   35.8610 H   0  0  0  0  0  0  0  0  0  0  0  0
   39.9710   31.8000   37.8420 N   0  0  0  0  0  0  0  0  0  0  0  0
  1  7  1  6  0  0  0
  1  2  1  0  0  0  0
  1  6  1  0  0  0  0
  1 17  1  0  0  0  0
  2  3  1  0  0  0  0
  2  8  1  1  0  0  0
  3 10  1  0  0  0  0
  4 12  1  0  0  0  0
  4  3  1  0  0  0  0
  5 14  1  0  0  0  0
  5  4  1  0  0  0  0
  5  6  1  0  0  0  0
  6 16  1  0  0  0  0
  9  3  1  0  0  0  0
 11  4  1  0  0  0  0
 13  5  1  0  0  0  0
 15  6  1  0  0  0  0
 17 22  2  0  0  0  0
 17 18  1  0  0  0  0
 18 19  2  0  0  0  0
 19 20  1  0  0  0  0
 19 24  1  0  0  0  0
 21 25  1  0  0  0  0
 21 20  2  0  0  0  0
 22 21  1  0  0  0  0
 23 18  1  0  0  0  0
 26  2  1  0  0  0  0
 27 26  1  0  0  0  0
 28 27  2  0  0  0  0
 29 28  1  0  0  0  0
 30 28  1  0  0  0  0
 30 32  1  0  0  0  0
 31 30  1  0  0  0  0
 32 26  2  0  0  0  0
M  END
>  <minimizedAffinity>
-4.86089134

$$$$

 OpenBabel03242517093D

 32 34  0  0  1  0  0  0  0  0999 V2000
   37.8160   27.9700   40.7390 C   0  0  2  0  0  0  0  0  0  0  0  0
   36.9390   27.0360   41.4830 C   0  0  2  0  0  0  0  0  0  0  0  0
   36.5740   27.5320   42.8530 C   0  0  0  0  0  0  0  0  0  0  0  0
   37.8100   27.8260   43.6800 C   0  0  0  0  0  0  0  0  0  0  0  0
   38.8670   28.5770   42.9300 C   0  0  0  0  0  0  0  0  0  0  0  0
   38.3770   29.0960   41.5990 C   0  0  0  0  0  0  0  0  0  0  0  0
   38.7150   27.4470   40.2920 H   0  0  0  0  0  0  0  0  0  0  0  0
   35.9930   26.7890   40.9430 H   0  0  0  0  0  0  0  0  0  0  0  0
   36.0170   26.7330   43.3840 H   0  0  0  0  0  0  0  0  0  0  0  0
   35.9970   28.4800   42.8660 H   0  0  0  0  0  0  0  0  0  0  0  0
   38.2310   26.8520   43.9940 H   0  0  0  0  0  0  0  0  0  0  0  0
   37.5180   28.3410   44.6190 H   0  0  0  0  0  0  0  0  0  0  0  0
   39.8270   28.0600   42.8490 H   0  0  0  0  0  0  0  0  0  0  0  0
   39.0980   29.5050   43.5330 H   0  0  0  0  0  0  0  0  0  0  0  0
   39.2670   29.4830   41.0620 H   0  0  0  0  0  0  0  0  0  0  0  0
   37.6630   29.9160   41.6900 H   0  0  0  0  0  0  0  0  0  0  0  0
   37.1250   28.5960   39.5950 C   0  0  0  0  0  0  0  0  0  0  0  0
   35.8350   28.1100   39.3110 C   0  0  0  0  0  0  0  0  0  0  0  0
   35.1090   28.6580   38.2470 C   0  0  0  0  0  0  0  0  0  0  0  0
   35.7320   29.6650   37.5370 N   0  0  0  0  0  0  0  0  0  0  0  0
   36.9670   30.1110   37.8310 C   0  0  0  0  0  0  0  0  0  0  0  0
   37.6620   29.5810   38.8540 N   0  0  0  0  0  0  0  0  0  0  0  0
   35.2800   27.3470   39.7910 H   0  0  0  0  0  0  0  0  0  0  0  0
   34.1230   28.3590   37.9490 H   0  0  0  0  0  0  0  0  0  0  0  0
   37.3560   30.9130   37.1970 H   0  0  0  0  0  0  0  0  0  0  0  0
   37.6380   25.7320   41.6480 C   0  0  0  0  0  0  0  0  0  0  0  0
   38.8950   25.4370   41.2790 N   0  0  0  0  0  0  0  0  0  0  0  0
   39.1960   24.1790   41.5760 C   0  0  0  0  0  0  0  0  0  0  0  0
   40.1850   23.8400   41.3200 H   0  0  0  0  0  0  0  0  0  0  0  0
   38.1040   23.6620   42.1490 N   0  0  0  0  0  0  0  0  0  0  0  0
   38.1080   22.6590   42.4740 H   0  0  0  0  0  0  0  0  0  0  0  0
   37.1610   24.5850   42.1980 N   0  0  0  0  0  0  0  0  0  0  0  0
  1  7  1  6  0  0  0
  1  2  1  0  0  0  0
  1  6  1  0  0  0  0
  2  8  1  6  0  0  0
  2 26  1  0  0  0  0
  2  3  1  0  0  0  0
  3 10  1  0  0  0  0
  3  9  1  0  0  0  0
  3  4  1  0  0  0  0
  4 11  1  0  0  0  0
  4 12  1  0  0  0  0
  5 14  1  0  0  0  0
  5  4  1  0  0  0  0
  6 16  1  0  0  0  0
  6  5  1  0  0  0  0
 13  5  1  0  0  0  0
 15  6  1  0  0  0  0
 17  1  1  0  0  0  0
 18 17  1  0  0  0  0
 18 23  1  0  0  0  0
 19 18  2  0  0  0  0
 20 21  2  0  0  0  0
 20 19  1  0  0  0  0
 21 22  1  0  0  0  0
 22 17  2  0  0  0  0
 24 19  1  0  0  0  0
 25 21  1  0  0  0  0
 26 32  2  0  0  0  0
 27 28  2  0  0  0  0
 27 26  1  0  0  0  0
 28 30  1  0  0  0  0
 29 28  1  0  0  0  0
 30 32  1  0  0  0  0
 30 31  1  0  0  0  0
M  END
>  <minimizedAffinity>
-4.73423052

$$$$

 OpenBabel03242517093D

 32 34  0  0  1  0  0  0  0  0999 V2000
   38.4060   30.0660   40.5090 C   0  0  2  0  0  0  0  0  0  0  0  0
   37.9340   31.4450   40.7800 C   0  0  2  0  0  0  0  0  0  0  0  0
   36.9480   31.9430   39.7620 C   0  0  0  0  0  0  0  0  0  0  0  0
   37.5210   31.8740   38.3610 C   0  0  0  0  0  0  0  0  0  0  0  0
   38.2300   30.5880   38.0660 C   0  0  0  0  0  0  0  0  0  0  0  0
   38.0070   29.5440   39.1340 C   0  0  0  0  0  0  0  0  0  0  0  0
   39.5330   29.9830   40.5540 H   0  0  0  0  0  0  0  0  0  0  0  0
   37.4780   31.5670   41.7920 H   0  0  0  0  0  0  0  0  0  0  0  0
   36.7340   33.0110   39.9680 H   0  0  0  0  0  0  0  0  0  0  0  0
   36.0040   31.3630   39.7070 H   0  0  0  0  0  0  0  0  0  0  0  0
   38.2480   32.7030   38.2650 H   0  0  0  0  0  0  0  0  0  0  0  0
   36.7240   32.0910   37.6200 H   0  0  0  0  0  0  0  0  0  0  0  0
   39.2850   30.6970   37.8010 H   0  0  0  0  0  0  0  0  0  0  0  0
   37.7510   30.1570   37.1370 H   0  0  0  0  0  0  0  0  0  0  0  0
   38.6970   28.7060   38.9080 H   0  0  0  0  0  0  0  0  0  0  0  0
   36.9920   29.1430   39.1430 H   0  0  0  0  0  0  0  0  0  0  0  0
   37.9070   29.0970   41.5060 C   0  0  0  0  0  0  0  0  0  0  0  0
   37.4310   27.8760   40.9950 C   0  0  0  0  0  0  0  0  0  0  0  0
   36.9490   26.9000   41.8760 C   0  0  0  0  0  0  0  0  0  0  0  0
   36.9800   27.2210   43.2190 N   0  0  0  0  0  0  0  0  0  0  0  0
   37.4410   28.3980   43.6790 C   0  0  0  0  0  0  0  0  0  0  0  0
   37.9030   29.3330   42.8300 N   0  0  0  0  0  0  0  0  0  0  0  0
   37.3660   27.5420   39.9930 H   0  0  0  0  0  0  0  0  0  0  0  0
   36.5650   25.9400   41.5900 H   0  0  0  0  0  0  0  0  0  0  0  0
   37.4150   28.5360   44.7640 H   0  0  0  0  0  0  0  0  0  0  0  0
   39.0990   32.3710   40.7700 C   0  0  0  0  0  0  0  0  0  0  0  0
   40.3910   32.0450   40.6000 N   0  0  0  0  0  0  0  0  0  0  0  0
   41.1650   33.1220   40.6480 C   0  0  0  0  0  0  0  0  0  0  0  0
   42.2230   32.9690   40.5220 H   0  0  0  0  0  0  0  0  0  0  0  0
   40.3460   34.1590   40.8510 N   0  0  0  0  0  0  0  0  0  0  0  0
   40.7410   35.1340   40.9240 H   0  0  0  0  0  0  0  0  0  0  0  0
   39.1020   33.7210   40.9260 N   0  0  0  0  0  0  0  0  0  0  0  0
  1  7  1  1  0  0  0
  1  2  1  0  0  0  0
  1 17  1  0  0  0  0
  2  8  1  1  0  0  0
  3  9  1  0  0  0  0
  3  2  1  0  0  0  0
  4  3  1  0  0  0  0
  5  4  1  0  0  0  0
  5  6  1  0  0  0  0
  6 16  1  0  0  0  0
  6  1  1  0  0  0  0
 10  3  1  0  0  0  0
 11  4  1  0  0  0  0
 12  4  1  0  0  0  0
 13  5  1  0  0  0  0
 14  5  1  0  0  0  0
 15  6  1  0  0  0  0
 17 22  1  0  0  0  0
 18 17  2  0  0  0  0
 18 19  1  0  0  0  0
 19 20  2  0  0  0  0
 20 21  1  0  0  0  0
 21 25  1  0  0  0  0
 22 21  2  0  0  0  0
 23 18  1  0  0  0  0
 24 19  1  0  0  0  0
 26  2  1  0  0  0  0
 26 32  2  0  0  0  0
 27 28  2  0  0  0  0
 27 26  1  0  0  0  0
 28 30  1  0  0  0  0
 29 28  1  0  0  0  0
 30 31  1  0  0  0  0
 30 32  1  0  0  0  0
M  END
>  <minimizedAffinity>
-4.73421764

$$$$

 OpenBabel03242517093D

 32 34  0  0  1  0  0  0  0  0999 V2000
   37.3320   30.3510   41.0810 C   0  0  2  0  0  0  0  0  0  0  0  0
   38.1660   29.2270   40.5920 C   0  0  2  0  0  0  0  0  0  0  0  0
   37.5180   28.4500   39.4820 C   0  0  0  0  0  0  0  0  0  0  0  0
   36.1590   27.9230   39.8990 C   0  0  0  0  0  0  0  0  0  0  0  0
   35.3200   28.9340   40.6180 C   0  0  0  0  0  0  0  0  0  0  0  0
   35.9030   30.3250   40.5520 C   0  0  0  0  0  0  0  0  0  0  0  0
   37.2430   30.3580   42.2090 H   0  0  0  0  0  0  0  0  0  0  0  0
   39.1790   29.5430   40.2460 H   0  0  0  0  0  0  0  0  0  0  0  0
   38.1470   27.5650   39.2530 H   0  0  0  0  0  0  0  0  0  0  0  0
   37.3200   29.0330   38.5600 H   0  0  0  0  0  0  0  0  0  0  0  0
   36.3350   27.0690   40.5800 H   0  0  0  0  0  0  0  0  0  0  0  0
   35.6360   27.4970   39.0180 H   0  0  0  0  0  0  0  0  0  0  0  0
   35.0290   28.6500   41.6330 H   0  0  0  0  0  0  0  0  0  0  0  0
   34.3410   29.0050   40.0560 H   0  0  0  0  0  0  0  0  0  0  0  0
   35.3050   30.9540   41.2440 H   0  0  0  0  0  0  0  0  0  0  0  0
   35.8420   30.7750   39.5600 H   0  0  0  0  0  0  0  0  0  0  0  0
   37.9050   31.6660   40.7310 C   0  0  0  0  0  0  0  0  0  0  0  0
   37.0770   32.5180   39.9760 C   0  0  0  0  0  0  0  0  0  0  0  0
   37.5430   33.7870   39.6110 C   0  0  0  0  0  0  0  0  0  0  0  0
   38.8160   34.1150   40.0330 N   0  0  0  0  0  0  0  0  0  0  0  0
   39.5860   33.2800   40.7540 C   0  0  0  0  0  0  0  0  0  0  0  0
   39.1350   32.0610   41.1020 N   0  0  0  0  0  0  0  0  0  0  0  0
   36.0980   32.3570   39.6080 H   0  0  0  0  0  0  0  0  0  0  0  0
   36.9930   34.5100   39.0390 H   0  0  0  0  0  0  0  0  0  0  0  0
   40.5760   33.6520   41.0300 H   0  0  0  0  0  0  0  0  0  0  0  0
   38.4210   28.2830   41.7140 C   0  0  0  0  0  0  0  0  0  0  0  0
   39.1090   27.1300   41.6600 N   0  0  0  0  0  0  0  0  0  0  0  0
   39.1410   26.5380   42.8480 C   0  0  0  0  0  0  0  0  0  0  0  0
   39.6700   25.6030   42.9130 H   0  0  0  0  0  0  0  0  0  0  0  0
   38.4590   27.3350   43.6770 N   0  0  0  0  0  0  0  0  0  0  0  0
   38.3500   27.0660   44.6910 H   0  0  0  0  0  0  0  0  0  0  0  0
   38.0210   28.3860   43.0090 N   0  0  0  0  0  0  0  0  0  0  0  0
  1  7  1  1  0  0  0
  2  8  1  6  0  0  0
  2  1  1  0  0  0  0
  2 26  1  0  0  0  0
  3  4  1  0  0  0  0
  3  2  1  0  0  0  0
  4 11  1  0  0  0  0
  4  5  1  0  0  0  0
  5 13  1  0  0  0  0
  6  5  1  0  0  0  0
  6  1  1  0  0  0  0
  6 15  1  0  0  0  0
  9  3  1  0  0  0  0
 10  3  1  0  0  0  0
 12  4  1  0  0  0  0
 14  5  1  0  0  0  0
 16  6  1  0  0  0  0
 17  1  1  0  0  0  0
 17 22  1  0  0  0  0
 18 17  2  0  0  0  0
 19 18  1  0  0  0  0
 19 20  2  0  0  0  0
 20 21  1  0  0  0  0
 21 25  1  0  0  0  0
 21 22  2  0  0  0  0
 23 18  1  0  0  0  0
 24 19  1  0  0  0  0
 26 32  2  0  0  0  0
 27 26  1  0  0  0  0
 27 28  2  0  0  0  0
 28 29  1  0  0  0  0
 28 30  1  0  0  0  0
 30 31  1  0  0  0  0
 32 30  1  0  0  0  0
M  END
>  <minimizedAffinity>
-4.71552277

$$$$

 OpenBabel03242517093D

 32 34  0  0  1  0  0  0  0  0999 V2000
   37.0010   27.8520   39.9590 C   0  0  2  0  0  0  0  0  0  0  0  0
   36.1600   28.8380   40.6770 C   0  0  2  0  0  0  0  0  0  0  0  0
   34.7360   28.8620   40.1990 C   0  0  0  0  0  0  0  0  0  0  0  0
   34.6600   29.1280   38.7090 C   0  0  0  0  0  0  0  0  0  0  0  0
   35.6470   28.3360   37.9080 C   0  0  0  0  0  0  0  0  0  0  0  0
   36.3290   27.2630   38.7230 C   0  0  0  0  0  0  0  0  0  0  0  0
   37.9730   28.3020   39.5950 H   0  0  0  0  0  0  0  0  0  0  0  0
   36.1500   28.6910   41.7840 H   0  0  0  0  0  0  0  0  0  0  0  0
   34.2070   29.6980   40.7010 H   0  0  0  0  0  0  0  0  0  0  0  0
   34.1830   27.9120   40.3420 H   0  0  0  0  0  0  0  0  0  0  0  0
   34.8740   30.2040   38.5580 H   0  0  0  0  0  0  0  0  0  0  0  0
   33.6190   28.9790   38.3550 H   0  0  0  0  0  0  0  0  0  0  0  0
   36.3550   28.9350   37.3290 H   0  0  0  0  0  0  0  0  0  0  0  0
   35.0550   27.7700   37.1280 H   0  0  0  0  0  0  0  0  0  0  0  0
   37.1440   26.8540   38.0920 H   0  0  0  0  0  0  0  0  0  0  0  0
   35.6700   26.4350   38.9900 H   0  0  0  0  0  0  0  0  0  0  0  0
   37.3980   26.7210   40.8210 C   0  0  0  0  0  0  0  0  0  0  0  0
   36.8130   25.4770   40.5170 C   0  0  0  0  0  0  0  0  0  0  0  0
   37.1450   24.3530   41.2820 C   0  0  0  0  0  0  0  0  0  0  0  0
   38.0490   24.5560   42.3060 N   0  0  0  0  0  0  0  0  0  0  0  0
   38.5920   25.7570   42.5750 C   0  0  0  0  0  0  0  0  0  0  0  0
   38.2710   26.8350   41.8370 N   0  0  0  0  0  0  0  0  0  0  0  0
   36.1160   25.2260   39.7610 H   0  0  0  0  0  0  0  0  0  0  0  0
   36.7560   23.3640   41.1330 H   0  0  0  0  0  0  0  0  0  0  0  0
   39.2960   25.7930   43.4110 H   0  0  0  0  0  0  0  0  0  0  0  0
   36.7260   30.2010   40.4770 C   0  0  0  0  0  0  0  0  0  0  0  0
   37.8440   30.5220   39.8070 N   0  0  0  0  0  0  0  0  0  0  0  0
   38.0530   31.8330   39.8270 C   0  0  0  0  0  0  0  0  0  0  0  0
   38.9270   32.1960   39.3160 H   0  0  0  0  0  0  0  0  0  0  0  0
   37.0410   32.3580   40.5260 N   0  0  0  0  0  0  0  0  0  0  0  0
   36.9920   33.4010   40.6760 H   0  0  0  0  0  0  0  0  0  0  0  0
   36.2370   31.3880   40.9220 N   0  0  0  0  0  0  0  0  0  0  0  0
  1  7  1  6  0  0  0
  1  2  1  0  0  0  0
  1 17  1  0  0  0  0
  2  8  1  1  0  0  0
  3 10  1  0  0  0  0
  3  2  1  0  0  0  0
  3  9  1  0  0  0  0
  4  3  1  0  0  0  0
  5  4  1  0  0  0  0
  5  6  1  0  0  0  0
  6 16  1  0  0  0  0
  6  1  1  0  0  0  0
 11  4  1  0  0  0  0
 12  4  1  0  0  0  0
 13  5  1  0  0  0  0
 14  5  1  0  0  0  0
 15  6  1  0  0  0  0
 17 22  1  0  0  0  0
 18 17  2  0  0  0  0
 18 19  1  0  0  0  0
 19 20  2  0  0  0  0
 20 21  1  0  0  0  0
 21 25  1  0  0  0  0
 22 21  2  0  0  0  0
 23 18  1  0  0  0  0
 24 19  1  0  0  0  0
 26  2  1  0  0  0  0
 26 32  2  0  0  0  0
 27 28  2  0  0  0  0
 27 26  1  0  0  0  0
 28 30  1  0  0  0  0
 29 28  1  0  0  0  0
 30 31  1  0  0  0  0
 30 32  1  0  0  0  0
M  END
>  <minimizedAffinity>
-4.59246635

$$$$

 OpenBabel03242517093D

 32 34  0  0  1  0  0  0  0  0999 V2000
   37.7750   28.1320   40.4840 C   0  0  2  0  0  0  0  0  0  0  0  0
   36.8130   29.0660   41.1150 C   0  0  2  0  0  0  0  0  0  0  0  0
   35.3850   28.7830   40.7450 C   0  0  0  0  0  0  0  0  0  0  0  0
   35.1910   28.8030   39.2410 C   0  0  0  0  0  0  0  0  0  0  0  0
   36.2600   28.0700   38.4910 C   0  0  0  0  0  0  0  0  0  0  0  0
   37.1550   27.2600   39.3980 C   0  0  0  0  0  0  0  0  0  0  0  0
   38.6350   28.6740   39.9890 H   0  0  0  0  0  0  0  0  0  0  0  0
   36.8820   29.0890   42.2290 H   0  0  0  0  0  0  0  0  0  0  0  0
   34.7440   29.5880   41.1600 H   0  0  0  0  0  0  0  0  0  0  0  0
   35.0110   27.7880   41.0620 H   0  0  0  0  0  0  0  0  0  0  0  0
   35.2080   29.8630   38.9240 H   0  0  0  0  0  0  0  0  0  0  0  0
   34.1760   28.4340   38.9900 H   0  0  0  0  0  0  0  0  0  0  0  0
   36.8250   28.6810   37.7820 H   0  0  0  0  0  0  0  0  0  0  0  0
   35.7370   27.3030   37.8450 H   0  0  0  0  0  0  0  0  0  0  0  0
   37.9980   26.8980   38.7730 H   0  0  0  0  0  0  0  0  0  0  0  0
   36.6630   26.3860   39.8270 H   0  0  0  0  0  0  0  0  0  0  0  0
   38.4030   27.2260   41.4670 C   0  0  0  0  0  0  0  0  0  0  0  0
   38.7790   27.8090   42.6910 C   0  0  0  0  0  0  0  0  0  0  0  0
   39.3720   27.0150   43.6800 C   0  0  0  0  0  0  0  0  0  0  0  0
   39.5470   25.6810   43.3690 N   0  0  0  0  0  0  0  0  0  0  0  0
   39.1780   25.1500   42.1890 C   0  0  0  0  0  0  0  0  0  0  0  0
   38.6080   25.9170   41.2420 N   0  0  0  0  0  0  0  0  0  0  0  0
   38.6890   28.8110   43.0180 H   0  0  0  0  0  0  0  0  0  0  0  0
   39.6950   27.3600   44.6430 H   0  0  0  0  0  0  0  0  0  0  0  0
   39.3660   24.0810   42.0590 H   0  0  0  0  0  0  0  0  0  0  0  0
   37.1240   30.4560   40.6830 C   0  0  0  0  0  0  0  0  0  0  0  0
   38.2040   30.8670   39.9980 N   0  0  0  0  0  0  0  0  0  0  0  0
   38.1600   32.1760   39.7800 C   0  0  0  0  0  0  0  0  0  0  0  0
   38.9830   32.6080   39.2370 H   0  0  0  0  0  0  0  0  0  0  0  0
   37.0250   32.6070   40.3390 N   0  0  0  0  0  0  0  0  0  0  0  0
   36.7720   33.6300   40.2910 H   0  0  0  0  0  0  0  0  0  0  0  0
   36.3930   31.5840   40.8840 N   0  0  0  0  0  0  0  0  0  0  0  0
  1  7  1  6  0  0  0
  1  2  1  0  0  0  0
  1 17  1  0  0  0  0
  2  8  1  1  0  0  0
  3 10  1  0  0  0  0
  3  2  1  0  0  0  0
  3  9  1  0  0  0  0
  4  3  1  0  0  0  0
  5  4  1  0  0  0  0
  5  6  1  0  0  0  0
  6 16  1  0  0  0  0
  6  1  1  0  0  0  0
 11  4  1  0  0  0  0
 12  4  1  0  0  0  0
 13  5  1  0  0  0  0
 14  5  1  0  0  0  0
 15  6  1  0  0  0  0
 17 18  1  0  0  0  0
 18 23  1  0  0  0  0
 18 19  2  0  0  0  0
 19 24  1  0  0  0  0
 20 19  1  0  0  0  0
 21 20  2  0  0  0  0
 22 17  2  0  0  0  0
 22 21  1  0  0  0  0
 25 21  1  0  0  0  0
 26 32  2  0  0  0  0
 26  2  1  0  0  0  0
 27 26  1  0  0  0  0
 28 27  2  0  0  0  0
 28 30  1  0  0  0  0
 29 28  1  0  0  0  0
 30 32  1  0  0  0  0
 31 30  1  0  0  0  0
M  END
>  <minimizedAffinity>
-4.58925295

$$$$

 OpenBabel03242517093D

 32 34  0  0  1  0  0  0  0  0999 V2000
   38.1770   31.0620   39.3620 C   0  0  2  0  0  0  0  0  0  0  0  0
   38.6440   29.7120   39.7560 C   0  0  2  0  0  0  0  0  0  0  0  0
   38.2610   28.6430   38.7730 C   0  0  0  0  0  0  0  0  0  0  0  0
   36.7610   28.6110   38.5530 C   0  0  0  0  0  0  0  0  0  0  0  0
   36.1530   29.9670   38.3730 C   0  0  0  0  0  0  0  0  0  0  0  0
   37.1900   31.0500   38.2000 C   0  0  0  0  0  0  0  0  0  0  0  0
   37.6490   31.5950   40.2080 H   0  0  0  0  0  0  0  0  0  0  0  0
   39.7480   29.6530   39.9160 H   0  0  0  0  0  0  0  0  0  0  0  0
   38.5430   27.6560   39.1930 H   0  0  0  0  0  0  0  0  0  0  0  0
   38.6890   28.7690   37.7580 H   0  0  0  0  0  0  0  0  0  0  0  0
   36.3100   28.1420   39.4490 H   0  0  0  0  0  0  0  0  0  0  0  0
   36.5220   27.9300   37.7100 H   0  0  0  0  0  0  0  0  0  0  0  0
   35.3930   30.2310   39.1130 H   0  0  0  0  0  0  0  0  0  0  0  0
   35.5920   29.9460   37.3910 H   0  0  0  0  0  0  0  0  0  0  0  0
   36.6500   32.0180   38.2420 H   0  0  0  0  0  0  0  0  0  0  0  0
   37.7110   31.0030   37.2410 H   0  0  0  0  0  0  0  0  0  0  0  0
   39.2920   31.9520   38.9800 C   0  0  0  0  0  0  0  0  0  0  0  0
   39.9530   31.6320   37.7790 C   0  0  0  0  0  0  0  0  0  0  0  0
   41.0150   32.4320   37.3430 C   0  0  0  0  0  0  0  0  0  0  0  0
   41.3420   33.5070   38.1470 N   0  0  0  0  0  0  0  0  0  0  0  0
   40.6920   33.7880   39.2910 C   0  0  0  0  0  0  0  0  0  0  0  0
   39.6720   33.0170   39.7070 N   0  0  0  0  0  0  0  0  0  0  0  0
   39.7790   30.8370   37.1030 H   0  0  0  0  0  0  0  0  0  0  0  0
   41.5830   32.2760   36.4460 H   0  0  0  0  0  0  0  0  0  0  0  0
   41.0410   34.6660   39.8420 H   0  0  0  0  0  0  0  0  0  0  0  0
   38.0470   29.3510   41.0710 C   0  0  0  0  0  0  0  0  0  0  0  0
   38.2710   28.2350   41.7820 N   0  0  0  0  0  0  0  0  0  0  0  0
   37.5720   28.2390   42.9100 C   0  0  0  0  0  0  0  0  0  0  0  0
   37.6820   27.3850   43.5560 H   0  0  0  0  0  0  0  0  0  0  0  0
   36.8880   29.3880   42.9170 N   0  0  0  0  0  0  0  0  0  0  0  0
   36.2540   29.6150   43.7290 H   0  0  0  0  0  0  0  0  0  0  0  0
   37.1640   30.0650   41.8180 N   0  0  0  0  0  0  0  0  0  0  0  0
  1  2  1  0  0  0  0
  1  7  1  1  0  0  0
  2  8  1  1  0  0  0
  2 26  1  0  0  0  0
  3  9  1  0  0  0  0
  3  2  1  0  0  0  0
  4  3  1  0  0  0  0
  4 11  1  0  0  0  0
  5  4  1  0  0  0  0
  5 13  1  0  0  0  0
  6 15  1  0  0  0  0
  6  5  1  0  0  0  0
  6  1  1  0  0  0  0
 10  3  1  0  0  0  0
 12  4  1  0  0  0  0
 14  5  1  0  0  0  0
 16  6  1  0  0  0  0
 17  1  1  0  0  0  0
 17 22  1  0  0  0  0
 18 17  2  0  0  0  0
 19 18  1  0  0  0  0
 19 20  2  0  0  0  0
 20 21  1  0  0  0  0
 21 22  2  0  0  0  0
 21 25  1  0  0  0  0
 23 18  1  0  0  0  0
 24 19  1  0  0  0  0
 26 27  1  0  0  0  0
 26 32  2  0  0  0  0
 27 28  2  0  0  0  0
 28 30  1  0  0  0  0
 28 29  1  0  0  0  0
 30 31  1  0  0  0  0
 32 30  1  0  0  0  0
M  END
>  <minimizedAffinity>
-4.57149363

$$$$

 OpenBabel03242517093D

 32 34  0  0  1  0  0  0  0  0999 V2000
   38.3090   29.3790   41.3900 C   0  0  2  0  0  0  0  0  0  0  0  0
   37.2100   28.5480   40.8440 C   0  0  2  0  0  0  0  0  0  0  0  0
   36.2110   28.1300   41.8850 C   0  0  0  0  0  0  0  0  0  0  0  0
   36.8810   27.3890   43.0240 C   0  0  0  0  0  0  0  0  0  0  0  0
   38.1460   28.0360   43.4980 C   0  0  0  0  0  0  0  0  0  0  0  0
   38.3470   29.4140   42.9130 C   0  0  0  0  0  0  0  0  0  0  0  0
   39.3270   29.0070   41.0660 H   0  0  0  0  0  0  0  0  0  0  0  0
   36.6530   29.0400   40.0100 H   0  0  0  0  0  0  0  0  0  0  0  0
   35.4910   27.4230   41.4230 H   0  0  0  0  0  0  0  0  0  0  0  0
   35.6720   28.9660   42.3740 H   0  0  0  0  0  0  0  0  0  0  0  0
   37.1270   26.3750   42.6540 H   0  0  0  0  0  0  0  0  0  0  0  0
   36.1550   27.2350   43.8490 H   0  0  0  0  0  0  0  0  0  0  0  0
   39.0390   27.4130   43.4160 H   0  0  0  0  0  0  0  0  0  0  0  0
   38.0260   28.2100   44.6090 H   0  0  0  0  0  0  0  0  0  0  0  0
   39.3730   29.7300   43.1910 H   0  0  0  0  0  0  0  0  0  0  0  0
   37.6530   30.1580   43.3080 H   0  0  0  0  0  0  0  0  0  0  0  0
   38.2400   30.7770   40.9220 C   0  0  0  0  0  0  0  0  0  0  0  0
   37.2630   31.0550   39.9480 C   0  0  0  0  0  0  0  0  0  0  0  0
   37.1270   32.3590   39.4590 C   0  0  0  0  0  0  0  0  0  0  0  0
   37.9870   33.3020   39.9860 N   0  0  0  0  0  0  0  0  0  0  0  0
   38.9130   33.0080   40.9170 C   0  0  0  0  0  0  0  0  0  0  0  0
   39.0400   31.7530   41.3840 N   0  0  0  0  0  0  0  0  0  0  0  0
   36.5660   30.4060   39.4860 H   0  0  0  0  0  0  0  0  0  0  0  0
   36.4170   32.6750   38.7180 H   0  0  0  0  0  0  0  0  0  0  0  0
   39.5360   33.8390   41.2590 H   0  0  0  0  0  0  0  0  0  0  0  0
   37.7820   27.3110   40.2450 C   0  0  0  0  0  0  0  0  0  0  0  0
   39.0810   26.9850   40.1500 N   0  0  0  0  0  0  0  0  0  0  0  0
   39.2350   25.8070   39.5580 C   0  0  0  0  0  0  0  0  0  0  0  0
   40.2430   25.4510   39.4320 H   0  0  0  0  0  0  0  0  0  0  0  0
   38.0030   25.3730   39.2700 N   0  0  0  0  0  0  0  0  0  0  0  0
   37.8730   24.4430   38.7900 H   0  0  0  0  0  0  0  0  0  0  0  0
   37.1210   26.2680   39.6770 N   0  0  0  0  0  0  0  0  0  0  0  0
  1  7  1  6  0  0  0
  1  6  1  0  0  0  0
  2  8  1  6  0  0  0
  2  1  1  0  0  0  0
  2  3  1  0  0  0  0
  3 10  1  0  0  0  0
  3  4  1  0  0  0  0
  4  5  1  0  0  0  0
  4 12  1  0  0  0  0
  5 14  1  0  0  0  0
  6 15  1  0  0  0  0
  6 16  1  0  0  0  0
  6  5  1  0  0  0  0
  9  3  1  0  0  0  0
 11  4  1  0  0  0  0
 13  5  1  0  0  0  0
 17 22  1  0  0  0  0
 17  1  1  0  0  0  0
 18 17  2  0  0  0  0
 19 18  1  0  0  0  0
 19 20  2  0  0  0  0
 20 21  1  0  0  0  0
 21 25  1  0  0  0  0
 21 22  2  0  0  0  0
 23 18  1  0  0  0  0
 24 19  1  0  0  0  0
 26  2  1  0  0  0  0
 27 26  1  0  0  0  0
 28 27  2  0  0  0  0
 29 28  1  0  0  0  0
 30 28  1  0  0  0  0
 30 32  1  0  0  0  0
 31 30  1  0  0  0  0
 32 26  2  0  0  0  0
M  END
>  <minimizedAffinity>
-4.55543089

$$$$
