REMARK  Name = 
REMARK  4 active torsions:
REMARK  status: ('A' for Active; 'I' for Inactive)
REMARK    1  A    between atoms: C_1  and  C_11
REMARK    2  A    between atoms: C_5  and  C_14
REMARK    3  A    between atoms: C_15  and  C_16
REMARK    4  A    between atoms: C_16  and  C_28
REMARK                            x       y       z     vdW  Elec       q    Type
REMARK                         _______ _______ _______ _____ _____    ______ ____
ROOT
ATOM      1  C   UNL     1      46.169  32.556  47.008  0.00  0.00    +0.000 A 
ATOM      2  C   UNL     1      45.240  32.577  47.999  0.00  0.00    +0.000 A 
ATOM      3  C   UNL     1      45.434  31.767  49.103  0.00  0.00    +0.000 A 
ATOM      4  C   UNL     1      46.552  30.953  49.193  0.00  0.00    +0.000 A 
ATOM      5  C   UNL     1      47.486  30.964  48.144  0.00  0.00    +0.000 A 
ATOM      6  N   UNL     1      47.264  31.746  47.116  0.00  0.00    +0.000 NA
ATOM      7  H   UNL     1      44.380  33.225  47.894  0.00  0.00    +0.000 HD
ATOM      8  H   UNL     1      44.712  31.760  49.911  0.00  0.00    +0.000 HD
ATOM      9  H   UNL     1      46.724  30.311  50.047  0.00  0.00    +0.000 HD
ENDROOT
BRANCH   1  14
ATOM     10  C   UNL     1      44.961  34.981  44.569  0.00  0.00    +0.000 A 
ATOM     11  C   UNL     1      45.928  34.852  43.544  0.00  0.00    +0.000 A 
ATOM     12  C   UNL     1      46.989  33.943  43.678  0.00  0.00    +0.000 A 
ATOM     13  N   UNL     1      46.981  33.247  44.830  0.00  0.00    +0.000 NA
ATOM     14  C   UNL     1      46.077  33.371  45.785  0.00  0.00    +0.000 A 
ATOM     15  N   UNL     1      45.077  34.230  45.655  0.00  0.00    +0.000 NA
ATOM     16  N   UNL     1      43.906  35.921  44.365  0.00  0.00    +0.000 N 
ATOM     17  H   UNL     1      45.873  35.438  42.652  0.00  0.00    +0.000 HD
ATOM     18  H   UNL     1      47.728  33.829  42.919  0.00  0.00    +0.000 HD
ATOM     19  H   UNL     1      43.690  36.263  43.405  0.00  0.00    +0.000 HD
ATOM     20  H   UNL     1      43.379  36.233  45.233  0.00  0.00    +0.000 HD
ENDBRANCH   1  14
BRANCH   5  21
ATOM     21  C   UNL     1      48.673  30.125  48.197  0.00  0.00    +0.000 C 
ATOM     22  C   UNL     1      49.775  30.472  48.844  0.00  0.00    +0.000 C 
BRANCH  22  23
ATOM     23  C   UNL     1      49.892  31.765  49.582  0.00  0.00    +0.000 C 
ATOM     24  H   UNL     1      50.110  31.546  50.634  0.00  0.00    +0.000 HD
ATOM     25  H   UNL     1      48.998  32.383  49.442  0.00  0.00    +0.000 HD
BRANCH  23  26
ATOM     26  C   UNL     1      51.040  32.483  48.925  0.00  0.00    +0.000 A 
ATOM     27  N   UNL     1      52.165  32.871  49.539  0.00  0.00    +0.000 NA
ATOM     28  C   UNL     1      52.936  33.471  48.628  0.00  0.00    +0.000 A 
ATOM     29  H   UNL     1      53.904  33.894  48.798  0.00  0.00    +0.000 HD
ATOM     30  N   UNL     1      52.266  33.442  47.455  0.00  0.00    +0.000 N 
ATOM     31  H   UNL     1      52.550  33.812  46.524  0.00  0.00    +0.000 HD
ATOM     32  N   UNL     1      51.092  32.833  47.629  0.00  0.00    +0.000 NA
ENDBRANCH  23  26
ENDBRANCH  22  23
ENDBRANCH   5  21
TORSDOF 4
