REMARK  Name = 
REMARK  4 active torsions:
REMARK  status: ('A' for Active; 'I' for Inactive)
REMARK    1  A    between atoms: C_1  and  C_14
REMARK    2  A    between atoms: C_5  and  C_9
REMARK    3  A    between atoms: C_15  and  C_16
REMARK    4  A    between atoms: C_16  and  C_27
REMARK                            x       y       z     vdW  Elec       q    Type
REMARK                         _______ _______ _______ _____ _____    ______ ____
ROOT
ATOM      1  C   UNL     1      45.226  36.123  43.022  0.00  0.00    +0.000 A 
ATOM      2  C   UNL     1      44.215  35.790  42.089  0.00  0.00    +0.000 A 
ATOM      3  C   UNL     1      44.472  34.699  41.229  0.00  0.00    +0.000 A 
ATOM      4  N   UNL     1      45.651  34.043  41.343  0.00  0.00    +0.000 NA
ATOM      5  C   UNL     1      46.582  34.403  42.252  0.00  0.00    +0.000 A 
ATOM      6  N   UNL     1      46.375  35.439  43.093  0.00  0.00    +0.000 NA
ATOM      7  H   UNL     1      43.283  36.288  41.980  0.00  0.00    +0.000 HD
ATOM      8  H   UNL     1      43.786  34.351  40.481  0.00  0.00    +0.000 HD
ENDROOT
BRANCH   5  11
ATOM      9 CL   UNL     1      49.056  35.925  41.378  0.00  0.00    +0.000 Cl
ATOM     10  C   UNL     1      49.011  34.275  41.908  0.00  0.00    +0.000 A 
ATOM     11  C   UNL     1      47.828  33.631  42.299  0.00  0.00    +0.000 A 
ATOM     12  C   UNL     1      47.768  32.330  42.720  0.00  0.00    +0.000 A 
ATOM     13  C   UNL     1      48.953  31.639  42.751  0.00  0.00    +0.000 A 
ATOM     14  C   UNL     1      50.183  32.172  42.387  0.00  0.00    +0.000 A 
ATOM     15  C   UNL     1      50.148  33.498  41.973  0.00  0.00    +0.000 A 
ATOM     16  H   UNL     1      46.836  31.874  43.012  0.00  0.00    +0.000 HD
ATOM     17  H   UNL     1      48.948  30.613  43.076  0.00  0.00    +0.000 HD
ATOM     18  H   UNL     1      51.110  31.624  42.413  0.00  0.00    +0.000 HD
ATOM     19  H   UNL     1      51.081  33.959  41.679  0.00  0.00    +0.000 HD
ENDBRANCH   5  11
BRANCH   1  20
ATOM     20  C   UNL     1      44.940  37.258  43.906  0.00  0.00    +0.000 C 
ATOM     21  C   UNL     1      45.516  38.404  43.638  0.00  0.00    +0.000 C 
BRANCH  21  22
ATOM     22  C   UNL     1      45.280  39.607  44.486  0.00  0.00    +0.000 C 
ATOM     23  H   UNL     1      44.838  40.422  43.887  0.00  0.00    +0.000 HD
ATOM     24  H   UNL     1      46.251  39.948  44.920  0.00  0.00    +0.000 HD
BRANCH  22  25
ATOM     25  C   UNL     1      44.342  39.197  45.566  0.00  0.00    +0.000 A 
ATOM     26  N   UNL     1      43.412  39.890  46.247  0.00  0.00    +0.000 NA
ATOM     27  C   UNL     1      42.794  39.089  47.146  0.00  0.00    +0.000 A 
ATOM     28  H   UNL     1      42.006  39.427  47.812  0.00  0.00    +0.000 HD
ATOM     29  N   UNL     1      43.367  37.861  47.010  0.00  0.00    +0.000 N 
ATOM     30  H   UNL     1      43.080  37.030  47.590  0.00  0.00    +0.000 HD
ATOM     31  N   UNL     1      44.291  37.929  46.066  0.00  0.00    +0.000 NA
ENDBRANCH  22  25
ENDBRANCH  21  22
ENDBRANCH   1  20
TORSDOF 4
