
 OpenBabel03252507023D

 36 38  0  0  0  0  0  0  0  0999 V2000
   45.4640   33.2600   38.5580 C   0  0  0  0  0  0  0  0  0  0  0  0
   44.7370   33.1110   37.7260 H   0  0  0  0  0  0  0  0  0  0  0  0
   45.3350   34.3750   38.7570 H   0  0  0  0  0  0  0  0  0  0  0  0
   46.6670   32.8020   38.2240 N   0  0  0  0  0  0  0  0  0  0  0  0
   46.9920   31.6150   37.5210 C   0  0  0  0  0  0  0  0  0  0  0  0
   47.3120   32.2350   36.1410 C   0  0  0  0  0  0  0  0  0  0  0  0
   48.4220   33.1900   36.1760 C   0  0  0  0  0  0  0  0  0  0  0  0
   48.7540   33.8370   37.4460 C   0  0  0  0  0  0  0  0  0  0  0  0
   47.7970   33.6590   38.5920 C   0  0  0  0  0  0  0  0  0  0  0  0
   46.0610   31.0180   37.3280 H   0  0  0  0  0  0  0  0  0  0  0  0
   47.7800   30.9740   37.8680 H   0  0  0  0  0  0  0  0  0  0  0  0
   46.3510   32.6500   35.7260 H   0  0  0  0  0  0  0  0  0  0  0  0
   47.5650   31.3700   35.4930 H   0  0  0  0  0  0  0  0  0  0  0  0
   48.2030   34.0110   35.4410 H   0  0  0  0  0  0  0  0  0  0  0  0
   49.3780   32.7190   35.8150 H   0  0  0  0  0  0  0  0  0  0  0  0
   49.5940   34.4450   37.6560 H   0  0  0  0  0  0  0  0  0  0  0  0
   48.0500   34.4580   40.1410 S   0  0  0  0  0  0  0  0  0  0  0  0
   47.0300   35.3960   40.3630 H   0  0  0  0  0  0  0  0  0  0  0  0
   44.8730   32.5680   39.7500 C   0  0  0  0  0  0  0  0  0  0  0  0
   44.2580   31.6970   39.3910 H   0  0  0  0  0  0  0  0  0  0  0  0
   45.5840   32.2130   40.4960 H   0  0  0  0  0  0  0  0  0  0  0  0
   43.9290   33.5290   40.3830 C   0  0  0  0  0  0  0  0  0  0  0  0
   44.3710   34.6280   41.0950 C   0  0  0  0  0  0  0  0  0  0  0  0
   43.4150   35.4640   41.6630 C   0  0  0  0  0  0  0  0  0  0  0  0
   42.0880   35.1660   41.4910 N   0  0  0  0  0  0  0  0  0  0  0  0
   41.7210   34.0890   40.7910 C   0  0  0  0  0  0  0  0  0  0  0  0
   42.6310   33.2940   40.2510 N   0  0  0  0  0  0  0  0  0  0  0  0
   45.4310   34.8210   41.2020 H   0  0  0  0  0  0  0  0  0  0  0  0
   43.7470   36.3310   42.2270 H   0  0  0  0  0  0  0  0  0  0  0  0
   40.2960   33.7830   40.6160 C   0  0  0  0  0  0  0  0  0  0  0  0
   39.4600   34.1680   39.6350 N   0  0  0  0  0  0  0  0  0  0  0  0
   38.2300   33.6470   39.8850 C   0  0  0  0  0  0  0  0  0  0  0  0
   37.3050   33.7330   39.3260 H   0  0  0  0  0  0  0  0  0  0  0  0
   38.3090   32.9450   41.0110 N   0  0  0  0  0  0  0  0  0  0  0  0
   37.6400   32.3850   41.5760 H   0  0  0  0  0  0  0  0  0  0  0  0
   39.5390   33.0270   41.4450 N   0  0  0  0  0  0  0  0  0  0  0  0
  1  3  1  0  0  0  0
  1 19  1  0  0  0  0
  2  1  1  0  0  0  0
  4  1  1  0  0  0  0
  4  9  1  0  0  0  0
  5 11  1  0  0  0  0
  5  4  1  0  0  0  0
  6  7  1  0  0  0  0
  6  5  1  0  0  0  0
  7  8  1  0  0  0  0
  8 16  1  0  0  0  0
  8  9  2  0  0  0  0
  9 17  1  0  0  0  0
 10  5  1  0  0  0  0
 12  6  1  0  0  0  0
 13  6  1  0  0  0  0
 14  7  1  0  0  0  0
 15  7  1  0  0  0  0
 17 18  1  0  0  0  0
 19 22  1  0  0  0  0
 19 21  1  0  0  0  0
 20 19  1  0  0  0  0
 22 23  1  0  0  0  0
 23 28  1  0  0  0  0
 23 24  2  0  0  0  0
 24 29  1  0  0  0  0
 25 24  1  0  0  0  0
 26 25  2  0  0  0  0
 27 22  2  0  0  0  0
 27 26  1  0  0  0  0
 30 26  1  0  0  0  0
 30 36  2  0  0  0  0
 31 32  2  0  0  0  0
 31 30  1  0  0  0  0
 32 34  1  0  0  0  0
 33 32  1  0  0  0  0
 34 36  1  0  0  0  0
 34 35  1  0  0  0  0
M  END
>  <minimizedAffinity>
-4.68938208

>  <minimizedRMSD>
4.00272369

$$$$
