
 OpenBabel03252509043D

 46 48  0  0  1  0  0  0  0  0999 V2000
   47.1930   34.1570   43.0750 N   0  0  0  0  0  0  0  0  0  0  0  0
   46.7060   35.3670   42.5230 C   0  0  0  0  0  0  0  0  0  0  0  0
   45.2390   35.6190   42.7520 C   0  0  0  0  0  0  0  0  0  0  0  0
   44.7050   35.0880   44.0630 C   0  0  0  0  0  0  0  0  0  0  0  0
   45.8120   34.4920   44.9030 C   0  0  0  0  0  0  0  0  0  0  0  0
   46.4340   33.4070   43.9530 C   0  0  2  0  0  0  0  0  0  0  0  0
   47.2280   36.2060   43.0650 H   0  0  0  0  0  0  0  0  0  0  0  0
   46.9070   35.5380   41.4640 H   0  0  0  0  0  0  0  0  0  0  0  0
   45.0270   36.7050   42.6290 H   0  0  0  0  0  0  0  0  0  0  0  0
   44.7010   35.1100   41.9150 H   0  0  0  0  0  0  0  0  0  0  0  0
   44.2560   35.9580   44.6210 H   0  0  0  0  0  0  0  0  0  0  0  0
   43.9160   34.3510   43.9270 H   0  0  0  0  0  0  0  0  0  0  0  0
   46.6010   35.2090   45.1460 H   0  0  0  0  0  0  0  0  0  0  0  0
   45.3550   33.9710   45.7630 H   0  0  0  0  0  0  0  0  0  0  0  0
   45.5600   32.8510   43.5590 H   0  0  0  0  0  0  0  0  0  0  0  0
   48.1560   33.4780   42.2450 C   0  0  0  0  0  0  0  0  0  0  0  0
   48.8930   34.1950   41.8420 H   0  0  0  0  0  0  0  0  0  0  0  0
   48.7160   32.7930   42.9440 H   0  0  0  0  0  0  0  0  0  0  0  0
   47.4420   32.6720   41.2270 C   0  0  0  0  0  0  0  0  0  0  0  0
   47.4890   31.5960   41.4420 H   0  0  0  0  0  0  0  0  0  0  0  0
   46.3410   32.9080   41.1880 H   0  0  0  0  0  0  0  0  0  0  0  0
   49.3410   32.2860   38.0090 C   0  0  0  0  0  0  0  0  0  0  0  0
   48.8090   32.0300   39.2860 C   0  0  0  0  0  0  0  0  0  0  0  0
   47.9970   32.9540   39.8800 C   0  0  0  0  0  0  0  0  0  0  0  0
   47.7420   34.0810   39.2020 N   0  0  0  0  0  0  0  0  0  0  0  0
   48.2480   34.3270   37.9830 C   0  0  0  0  0  0  0  0  0  0  0  0
   49.0480   33.4410   37.3730 N   0  0  0  0  0  0  0  0  0  0  0  0
   49.9780   31.4700   37.6350 H   0  0  0  0  0  0  0  0  0  0  0  0
   49.0280   31.1100   39.8180 H   0  0  0  0  0  0  0  0  0  0  0  0
   48.0480   35.2440   37.4200 H   0  0  0  0  0  0  0  0  0  0  0  0
   47.2130   32.6840   44.8420 O   0  0  0  0  0  0  0  0  0  0  0  0
   46.1300   30.4900   43.8130 O   0  0  0  0  0  0  0  0  0  0  0  0
   46.6210   31.1250   45.1100 P   0  0  2  0  0  0  0  0  0  0  0  0
   45.2500   31.2930   46.1030 O   0  0  0  0  0  0  0  0  0  0  0  0
   44.4950   31.6990   45.6260 H   0  0  0  0  0  0  0  0  0  0  0  0
   47.7270   30.1520   45.8970 O   0  0  0  0  0  0  0  0  0  0  0  0
   47.5040   28.8290   45.5770 C   0  0  0  0  0  0  0  0  0  0  0  0
   48.4350   28.2690   45.6990 H   0  0  0  0  0  0  0  0  0  0  0  0
   47.3010   28.8120   44.4660 H   0  0  0  0  0  0  0  0  0  0  0  0
   46.3540   28.2140   46.2710 C   0  0  0  0  0  0  0  0  0  0  0  0
   46.0790   28.5350   47.5570 N   0  0  0  0  0  0  0  0  0  0  0  0
   44.9900   27.8530   47.9800 C   0  0  0  0  0  0  0  0  0  0  0  0
   44.5950   27.9680   48.9980 H   0  0  0  0  0  0  0  0  0  0  0  0
   44.5890   27.0950   46.9280 N   0  0  0  0  0  0  0  0  0  0  0  0
   43.7600   26.4620   46.9780 H   0  0  0  0  0  0  0  0  0  0  0  0
   45.4090   27.3250   45.9320 N   0  0  0  0  0  0  0  0  0  0  0  0
  1  6  1  0  0  0  0
  2  3  1  0  0  0  0
  2  7  1  0  0  0  0
  2  1  1  0  0  0  0
  3  4  1  0  0  0  0
  4 11  1  0  0  0  0
  4  5  1  0  0  0  0
  5 13  1  0  0  0  0
  5 14  1  0  0  0  0
  6 15  1  6  0  0  0
  6 31  1  0  0  0  0
  6  5  1  0  0  0  0
  8  2  1  0  0  0  0
  9  3  1  0  0  0  0
 10  3  1  0  0  0  0
 12  4  1  0  0  0  0
 16 18  1  0  0  0  0
 16  1  1  0  0  0  0
 17 16  1  0  0  0  0
 19 20  1  0  0  0  0
 19 16  1  0  0  0  0
 21 19  1  0  0  0  0
 22 23  1  0  0  0  0
 23 29  1  0  0  0  0
 23 24  2  0  0  0  0
 24 19  1  0  0  0  0
 25 24  1  0  0  0  0
 26 25  2  0  0  0  0
 27 26  1  0  0  0  0
 27 22  2  0  0  0  0
 28 22  1  0  0  0  0
 30 26  1  0  0  0  0
 31 33  1  0  0  0  0
 33 32  2  6  0  0  0
 33 36  1  0  0  0  0
 33 34  1  0  0  0  0
 35 34  1  0  0  0  0
 37 38  1  0  0  0  0
 37 36  1  0  0  0  0
 37 40  1  0  0  0  0
 39 37  1  0  0  0  0
 40 41  1  0  0  0  0
 41 42  2  0  0  0  0
 42 43  1  0  0  0  0
 44 45  1  0  0  0  0
 44 42  1  0  0  0  0
 46 40  2  0  0  0  0
 46 44  1  0  0  0  0
M  END
>  <minimizedAffinity>
-3.94070792

>  <minimizedRMSD>
0.566967547

$$$$
