
 OpenBabel03252508383D

 39 42  0  0  0  0  0  0  0  0999 V2000
   45.1370   33.9630   40.7090 C   0  0  0  0  0  0  0  0  0  0  0  0
   44.0920   33.6370   39.8910 C   0  0  0  0  0  0  0  0  0  0  0  0
   44.3910   33.1330   38.6630 C   0  0  0  0  0  0  0  0  0  0  0  0
   45.6760   32.9340   38.2050 C   0  0  0  0  0  0  0  0  0  0  0  0
   46.7030   33.2710   39.0510 C   0  0  0  0  0  0  0  0  0  0  0  0
   46.4510   33.7860   40.3030 C   0  0  0  0  0  0  0  0  0  0  0  0
   43.5680   32.8710   38.0060 H   0  0  0  0  0  0  0  0  0  0  0  0
   45.8980   32.5280   37.2160 H   0  0  0  0  0  0  0  0  0  0  0  0
   47.7100   33.1140   38.6890 H   0  0  0  0  0  0  0  0  0  0  0  0
   40.8100   35.2760   40.7940 C   0  0  0  0  0  0  0  0  0  0  0  0
   42.1050   35.0970   40.2800 C   0  0  0  0  0  0  0  0  0  0  0  0
   42.7570   33.8590   40.4070 C   0  0  0  0  0  0  0  0  0  0  0  0
   42.0400   32.9020   41.0480 N   0  0  0  0  0  0  0  0  0  0  0  0
   40.8100   33.0860   41.5300 C   0  0  0  0  0  0  0  0  0  0  0  0
   40.1990   34.2740   41.4010 N   0  0  0  0  0  0  0  0  0  0  0  0
   40.2050   36.5360   40.6380 N   0  0  0  0  0  0  0  0  0  0  0  0
   42.6770   35.8640   39.7690 H   0  0  0  0  0  0  0  0  0  0  0  0
   40.3790   32.2150   42.0140 H   0  0  0  0  0  0  0  0  0  0  0  0
   40.7390   37.2710   41.1490 H   0  0  0  0  0  0  0  0  0  0  0  0
   39.3280   36.7020   40.0740 H   0  0  0  0  0  0  0  0  0  0  0  0
   47.6170   34.1120   41.1260 C   0  0  0  0  0  0  0  0  0  0  0  0
   48.1390   35.3640   40.9430 C   0  0  0  0  0  0  0  0  0  0  0  0
   49.2460   35.8390   41.6410 C   0  0  0  0  0  0  0  0  0  0  0  0
   49.8330   34.9830   42.5650 C   0  0  0  0  0  0  0  0  0  0  0  0
   49.3230   33.7250   42.7610 C   0  0  0  0  0  0  0  0  0  0  0  0
   48.2220   33.2800   42.0520 C   0  0  0  0  0  0  0  0  0  0  0  0
   47.7410   36.0890   40.2440 H   0  0  0  0  0  0  0  0  0  0  0  0
   49.6580   36.8100   41.5050 H   0  0  0  0  0  0  0  0  0  0  0  0
   50.6970   35.2640   43.1550 H   0  0  0  0  0  0  0  0  0  0  0  0
   49.7390   33.0160   43.4660 H   0  0  0  0  0  0  0  0  0  0  0  0
   47.6230   31.9470   42.2110 C   0  0  0  0  0  0  0  0  0  0  0  0
   46.6510   31.5410   43.0580 N   0  0  0  0  0  0  0  0  0  0  0  0
   46.4240   30.2170   42.8420 C   0  0  0  0  0  0  0  0  0  0  0  0
   45.6450   29.8460   43.5060 H   0  0  0  0  0  0  0  0  0  0  0  0
   47.2690   29.8440   41.8610 N   0  0  0  0  0  0  0  0  0  0  0  0
   47.1790   28.8250   41.6070 H   0  0  0  0  0  0  0  0  0  0  0  0
   47.9860   30.8630   41.4760 N   0  0  0  0  0  0  0  0  0  0  0  0
   44.7300   34.9270   43.0970 N   0  0  0  0  0  0  0  0  0  0  0  0
   44.9150   34.5010   42.0200 C   0  0  0  0  0  0  0  0  0  0  0  0
  1 39  1  0  0  0  0
  2 12  1  0  0  0  0
  2  1  2  0  0  0  0
  3  2  1  0  0  0  0
  4  3  2  0  0  0  0
  4  5  1  0  0  0  0
  5  6  2  0  0  0  0
  6  1  1  0  0  0  0
  6 21  1  0  0  0  0
  7  3  1  0  0  0  0
  8  4  1  0  0  0  0
  9  5  1  0  0  0  0
 10 15  1  0  0  0  0
 11 12  1  0  0  0  0
 11 10  2  0  0  0  0
 12 13  2  0  0  0  0
 13 14  1  0  0  0  0
 14 18  1  0  0  0  0
 15 14  2  0  0  0  0
 16 10  1  0  0  0  0
 16 19  1  0  0  0  0
 17 11  1  0  0  0  0
 20 16  1  0  0  0  0
 21 26  1  0  0  0  0
 22 21  2  0  0  0  0
 22 23  1  0  0  0  0
 23 24  2  0  0  0  0
 24 25  1  0  0  0  0
 24 29  1  0  0  0  0
 25 30  1  0  0  0  0
 26 31  1  0  0  0  0
 26 25  2  0  0  0  0
 27 22  1  0  0  0  0
 28 23  1  0  0  0  0
 31 32  1  0  0  0  0
 33 32  2  0  0  0  0
 33 34  1  0  0  0  0
 35 33  1  0  0  0  0
 36 35  1  0  0  0  0
 37 35  1  0  0  0  0
 37 31  2  0  0  0  0
 39 38  3  0  0  0  0
M  END
>  <minimizedAffinity>
-5.91840553

>  <minimizedRMSD>
0.1052588

$$$$
