
 OpenBabel03252508383D

 39 42  0  0  0  0  0  0  0  0999 V2000
   45.1600   33.9570   40.6950 C   0  0  0  0  0  0  0  0  0  0  0  0
   44.1140   33.6380   39.8740 C   0  0  0  0  0  0  0  0  0  0  0  0
   44.4120   33.1460   38.6410 C   0  0  0  0  0  0  0  0  0  0  0  0
   45.6970   32.9530   38.1800 C   0  0  0  0  0  0  0  0  0  0  0  0
   46.7250   33.2830   39.0280 C   0  0  0  0  0  0  0  0  0  0  0  0
   46.4740   33.7860   40.2850 C   0  0  0  0  0  0  0  0  0  0  0  0
   43.5890   32.8890   37.9830 H   0  0  0  0  0  0  0  0  0  0  0  0
   45.9180   32.5570   37.1870 H   0  0  0  0  0  0  0  0  0  0  0  0
   47.7310   33.1310   38.6630 H   0  0  0  0  0  0  0  0  0  0  0  0
   40.8270   35.2600   40.7860 C   0  0  0  0  0  0  0  0  0  0  0  0
   42.1210   35.0880   40.2690 C   0  0  0  0  0  0  0  0  0  0  0  0
   42.7800   33.8530   40.3940 C   0  0  0  0  0  0  0  0  0  0  0  0
   42.0680   32.8930   41.0360 N   0  0  0  0  0  0  0  0  0  0  0  0
   40.8390   33.0700   41.5220 C   0  0  0  0  0  0  0  0  0  0  0  0
   40.2220   34.2550   41.3950 N   0  0  0  0  0  0  0  0  0  0  0  0
   40.2150   36.5180   40.6320 N   0  0  0  0  0  0  0  0  0  0  0  0
   42.6880   35.8570   39.7570 H   0  0  0  0  0  0  0  0  0  0  0  0
   40.4140   32.1970   42.0070 H   0  0  0  0  0  0  0  0  0  0  0  0
   40.7470   37.2550   41.1420 H   0  0  0  0  0  0  0  0  0  0  0  0
   39.3350   36.6790   40.0710 H   0  0  0  0  0  0  0  0  0  0  0  0
   47.6400   34.1050   41.1100 C   0  0  0  0  0  0  0  0  0  0  0  0
   48.1460   35.3670   40.9540 C   0  0  0  0  0  0  0  0  0  0  0  0
   49.2520   35.8380   41.6580 C   0  0  0  0  0  0  0  0  0  0  0  0
   49.8540   34.9670   42.5580 C   0  0  0  0  0  0  0  0  0  0  0  0
   49.3590   33.6990   42.7270 C   0  0  0  0  0  0  0  0  0  0  0  0
   48.2590   33.2590   42.0120 C   0  0  0  0  0  0  0  0  0  0  0  0
   47.7360   36.1040   40.2760 H   0  0  0  0  0  0  0  0  0  0  0  0
   49.6510   36.8170   41.5440 H   0  0  0  0  0  0  0  0  0  0  0  0
   50.7170   35.2440   43.1510 H   0  0  0  0  0  0  0  0  0  0  0  0
   49.7870   32.9780   43.4120 H   0  0  0  0  0  0  0  0  0  0  0  0
   47.6760   31.9150   42.1420 C   0  0  0  0  0  0  0  0  0  0  0  0
   47.9160   30.8040   41.4110 N   0  0  0  0  0  0  0  0  0  0  0  0
   47.1410   29.7990   41.9000 C   0  0  0  0  0  0  0  0  0  0  0  0
   47.3030   28.8790   41.3380 H   0  0  0  0  0  0  0  0  0  0  0  0
   46.4420   30.3230   42.9240 N   0  0  0  0  0  0  0  0  0  0  0  0
   45.7990   29.6250   43.3850 H   0  0  0  0  0  0  0  0  0  0  0  0
   46.7500   31.5810   43.0800 N   0  0  0  0  0  0  0  0  0  0  0  0
   44.7540   34.8980   43.0920 N   0  0  0  0  0  0  0  0  0  0  0  0
   44.9390   34.4820   42.0100 C   0  0  0  0  0  0  0  0  0  0  0  0
  1 39  1  0  0  0  0
  2 12  1  0  0  0  0
  2  1  2  0  0  0  0
  3  2  1  0  0  0  0
  4  3  2  0  0  0  0
  4  5  1  0  0  0  0
  5  6  2  0  0  0  0
  6  1  1  0  0  0  0
  6 21  1  0  0  0  0
  7  3  1  0  0  0  0
  8  4  1  0  0  0  0
  9  5  1  0  0  0  0
 10 15  1  0  0  0  0
 11 12  1  0  0  0  0
 11 10  2  0  0  0  0
 12 13  2  0  0  0  0
 13 14  1  0  0  0  0
 14 18  1  0  0  0  0
 15 14  2  0  0  0  0
 16 10  1  0  0  0  0
 16 19  1  0  0  0  0
 17 11  1  0  0  0  0
 20 16  1  0  0  0  0
 21 26  1  0  0  0  0
 22 21  2  0  0  0  0
 22 23  1  0  0  0  0
 23 24  2  0  0  0  0
 24 25  1  0  0  0  0
 24 29  1  0  0  0  0
 25 30  1  0  0  0  0
 26 31  1  0  0  0  0
 26 25  2  0  0  0  0
 27 22  1  0  0  0  0
 28 23  1  0  0  0  0
 31 37  2  0  0  0  0
 32 33  2  0  0  0  0
 32 31  1  0  0  0  0
 33 35  1  0  0  0  0
 34 33  1  0  0  0  0
 35 37  1  0  0  0  0
 35 36  1  0  0  0  0
 39 38  3  0  0  0  0
M  END
>  <minimizedAffinity>
-5.9122963

>  <minimizedRMSD>
0.142465129

$$$$
