
 OpenBabel03242523313D

 20 21  0  0  0  0  0  0  0  0999 V2000
   38.1600   28.4750   43.2780 C   0  0  0  0  0  0  0  0  0  0  0  0
   37.5530   28.5030   44.2290 H   0  0  0  0  0  0  0  0  0  0  0  0
   38.9340   29.2570   43.2720 H   0  0  0  0  0  0  0  0  0  0  0  0
   40.4080   25.5340   43.5640 C   0  0  0  0  0  0  0  0  0  0  0  0
   39.6580   24.5610   42.8950 C   0  0  0  0  0  0  0  0  0  0  0  0
   38.4070   24.9220   42.3600 C   0  0  0  0  0  0  0  0  0  0  0  0
   37.9460   26.1950   42.4980 N   0  0  0  0  0  0  0  0  0  0  0  0
   38.7200   27.1140   43.1640 C   0  0  0  0  0  0  0  0  0  0  0  0
   39.9160   26.7750   43.6770 N   0  0  0  0  0  0  0  0  0  0  0  0
   41.3350   25.1730   43.9320 H   0  0  0  0  0  0  0  0  0  0  0  0
   40.0120   23.5360   42.7750 H   0  0  0  0  0  0  0  0  0  0  0  0
   37.7790   24.2040   41.8280 H   0  0  0  0  0  0  0  0  0  0  0  0
   36.9510   28.6780   41.9440 S   0  0  0  0  0  0  0  0  0  0  0  0
   37.1730   30.3330   41.2990 C   0  0  0  0  0  0  0  0  0  0  0  0
   38.3260   30.9980   41.1100 N   0  0  0  0  0  0  0  0  0  0  0  0
   38.0730   32.2210   40.6060 C   0  0  0  0  0  0  0  0  0  0  0  0
   38.9590   32.8330   40.4210 H   0  0  0  0  0  0  0  0  0  0  0  0
   36.7330   32.3140   40.4810 N   0  0  0  0  0  0  0  0  0  0  0  0
   36.3570   33.2080   40.1000 H   0  0  0  0  0  0  0  0  0  0  0  0
   36.1910   31.1820   40.8960 N   0  0  0  0  0  0  0  0  0  0  0  0
  1  2  1  0  0  0  0
  3  1  1  0  0  0  0
  4  9  1  0  0  0  0
  4 10  1  0  0  0  0
  5  4  2  0  0  0  0
  6  7  2  0  0  0  0
  6  5  1  0  0  0  0
  7  8  1  0  0  0  0
  8  1  1  0  0  0  0
  8  9  2  0  0  0  0
 11  5  1  0  0  0  0
 12  6  1  0  0  0  0
 13  1  1  0  0  0  0
 14 13  1  0  0  0  0
 15 14  1  0  0  0  0
 16 15  2  0  0  0  0
 17 16  1  0  0  0  0
 18 16  1  0  0  0  0
 18 20  1  0  0  0  0
 19 18  1  0  0  0  0
 20 14  2  0  0  0  0
M  END
>  <minimizedAffinity>
-4.06223249

$$$$

 OpenBabel03242523313D

 20 21  0  0  0  0  0  0  0  0999 V2000
   38.9070   30.8850   41.5000 C   0  0  0  0  0  0  0  0  0  0  0  0
   38.9850   31.6010   42.3690 H   0  0  0  0  0  0  0  0  0  0  0  0
   39.9020   30.5750   41.1450 H   0  0  0  0  0  0  0  0  0  0  0  0
   36.3620   28.1840   41.6130 C   0  0  0  0  0  0  0  0  0  0  0  0
   36.6050   27.6440   42.8810 C   0  0  0  0  0  0  0  0  0  0  0  0
   37.6250   28.2080   43.6710 C   0  0  0  0  0  0  0  0  0  0  0  0
   38.3540   29.2560   43.2000 N   0  0  0  0  0  0  0  0  0  0  0  0
   38.0780   29.7500   41.9490 C   0  0  0  0  0  0  0  0  0  0  0  0
   37.1040   29.2160   41.1890 N   0  0  0  0  0  0  0  0  0  0  0  0
   35.5780   27.6990   41.0910 H   0  0  0  0  0  0  0  0  0  0  0  0
   36.0300   26.8050   43.2740 H   0  0  0  0  0  0  0  0  0  0  0  0
   37.8580   27.8280   44.6680 H   0  0  0  0  0  0  0  0  0  0  0  0
   37.9640   31.7810   40.2390 S   0  0  0  0  0  0  0  0  0  0  0  0
   39.0840   32.0740   38.8740 C   0  0  0  0  0  0  0  0  0  0  0  0
   40.3450   32.5370   38.9240 N   0  0  0  0  0  0  0  0  0  0  0  0
   40.8540   32.6170   37.6800 C   0  0  0  0  0  0  0  0  0  0  0  0
   41.8800   32.9870   37.6270 H   0  0  0  0  0  0  0  0  0  0  0  0
   39.8860   32.1950   36.8420 N   0  0  0  0  0  0  0  0  0  0  0  0
   40.1120   32.1910   35.8250 H   0  0  0  0  0  0  0  0  0  0  0  0
   38.8220   31.8680   37.5560 N   0  0  0  0  0  0  0  0  0  0  0  0
  1  8  1  0  0  0  0
  1  2  1  0  0  0  0
  3  1  1  0  0  0  0
  4  5  1  0  0  0  0
  5 11  1  0  0  0  0
  5  6  2  0  0  0  0
  6 12  1  0  0  0  0
  7  6  1  0  0  0  0
  8  7  2  0  0  0  0
  9  4  2  0  0  0  0
  9  8  1  0  0  0  0
 10  4  1  0  0  0  0
 13  1  1  0  0  0  0
 14 15  1  0  0  0  0
 14 13  1  0  0  0  0
 16 15  2  0  0  0  0
 17 16  1  0  0  0  0
 18 20  1  0  0  0  0
 18 16  1  0  0  0  0
 19 18  1  0  0  0  0
 20 14  2  0  0  0  0
M  END
>  <minimizedAffinity>
-4.04203749

$$$$

 OpenBabel03242523313D

 20 21  0  0  0  0  0  0  0  0999 V2000
   36.4740   30.9370   40.7530 C   0  0  0  0  0  0  0  0  0  0  0  0
   35.3790   31.0310   41.0070 H   0  0  0  0  0  0  0  0  0  0  0  0
   37.0020   31.8940   40.8870 H   0  0  0  0  0  0  0  0  0  0  0  0
   38.6570   28.9900   43.0400 C   0  0  0  0  0  0  0  0  0  0  0  0
   37.9400   27.7920   43.1350 C   0  0  0  0  0  0  0  0  0  0  0  0
   36.7330   27.6690   42.4210 C   0  0  0  0  0  0  0  0  0  0  0  0
   36.2820   28.7020   41.6580 N   0  0  0  0  0  0  0  0  0  0  0  0
   37.0210   29.8570   41.5980 C   0  0  0  0  0  0  0  0  0  0  0  0
   38.1760   29.9810   42.2780 N   0  0  0  0  0  0  0  0  0  0  0  0
   39.5510   28.9920   43.6100 H   0  0  0  0  0  0  0  0  0  0  0  0
   38.2870   26.9540   43.7410 H   0  0  0  0  0  0  0  0  0  0  0  0
   36.1330   26.7580   42.4570 H   0  0  0  0  0  0  0  0  0  0  0  0
   36.5100   30.3550   39.0380 S   0  0  0  0  0  0  0  0  0  0  0  0
   37.9000   31.1630   38.2520 C   0  0  0  0  0  0  0  0  0  0  0  0
   39.1360   31.3490   38.7470 N   0  0  0  0  0  0  0  0  0  0  0  0
   39.8970   32.0000   37.8470 C   0  0  0  0  0  0  0  0  0  0  0  0
   40.9220   32.1950   38.1700 H   0  0  0  0  0  0  0  0  0  0  0  0
   39.1150   32.2210   36.7710 N   0  0  0  0  0  0  0  0  0  0  0  0
   39.5500   32.7220   35.9680 H   0  0  0  0  0  0  0  0  0  0  0  0
   37.9160   31.7190   37.0110 N   0  0  0  0  0  0  0  0  0  0  0  0
  1  3  1  0  0  0  0
  1  2  1  0  0  0  0
  1  8  1  0  0  0  0
  4  5  1  0  0  0  0
  4 10  1  0  0  0  0
  5 11  1  0  0  0  0
  6 12  1  0  0  0  0
  6  5  2  0  0  0  0
  7  6  1  0  0  0  0
  8  7  2  0  0  0  0
  8  9  1  0  0  0  0
  9  4  2  0  0  0  0
 13  1  1  0  0  0  0
 14 15  1  0  0  0  0
 14 13  1  0  0  0  0
 16 17  1  0  0  0  0
 16 15  2  0  0  0  0
 18 20  1  0  0  0  0
 18 16  1  0  0  0  0
 19 18  1  0  0  0  0
 20 14  2  0  0  0  0
M  END
>  <minimizedAffinity>
-4.00125933

$$$$

 OpenBabel03242523313D

 20 21  0  0  0  0  0  0  0  0999 V2000
   39.6290   29.6340   41.0420 C   0  0  0  0  0  0  0  0  0  0  0  0
   40.6180   29.1310   41.2470 H   0  0  0  0  0  0  0  0  0  0  0  0
   39.4510   29.7470   39.9620 H   0  0  0  0  0  0  0  0  0  0  0  0
   37.0160   27.0880   41.7350 C   0  0  0  0  0  0  0  0  0  0  0  0
   36.6770   27.4090   43.0530 C   0  0  0  0  0  0  0  0  0  0  0  0
   37.3390   28.4820   43.6800 C   0  0  0  0  0  0  0  0  0  0  0  0
   38.2900   29.1850   43.0060 N   0  0  0  0  0  0  0  0  0  0  0  0
   38.5880   28.8310   41.7130 C   0  0  0  0  0  0  0  0  0  0  0  0
   37.9590   27.8070   41.1090 N   0  0  0  0  0  0  0  0  0  0  0  0
   36.4680   26.2690   41.3450 H   0  0  0  0  0  0  0  0  0  0  0  0
   35.9170   26.8570   43.6080 H   0  0  0  0  0  0  0  0  0  0  0  0
   37.1140   28.7780   44.7060 H   0  0  0  0  0  0  0  0  0  0  0  0
   39.7260   31.2260   41.9040 S   0  0  0  0  0  0  0  0  0  0  0  0
   38.6810   32.3620   40.9980 C   0  0  0  0  0  0  0  0  0  0  0  0
   38.9770   33.6070   40.5850 N   0  0  0  0  0  0  0  0  0  0  0  0
   37.9230   34.1370   39.9350 C   0  0  0  0  0  0  0  0  0  0  0  0
   38.0770   35.1530   39.5640 H   0  0  0  0  0  0  0  0  0  0  0  0
   36.9540   33.1990   39.9460 N   0  0  0  0  0  0  0  0  0  0  0  0
   36.0550   33.4450   39.4800 H   0  0  0  0  0  0  0  0  0  0  0  0
   37.4060   32.1330   40.5840 N   0  0  0  0  0  0  0  0  0  0  0  0
  1  2  1  0  0  0  0
  1  8  1  0  0  0  0
  1 13  1  0  0  0  0
  3  1  1  0  0  0  0
  4  5  1  0  0  0  0
  5 11  1  0  0  0  0
  5  6  2  0  0  0  0
  6 12  1  0  0  0  0
  7  6  1  0  0  0  0
  8  7  2  0  0  0  0
  9  8  1  0  0  0  0
  9  4  2  0  0  0  0
 10  4  1  0  0  0  0
 14 13  1  0  0  0  0
 15 14  1  0  0  0  0
 16 18  1  0  0  0  0
 16 15  2  0  0  0  0
 17 16  1  0  0  0  0
 18 20  1  0  0  0  0
 19 18  1  0  0  0  0
 20 14  2  0  0  0  0
M  END
>  <minimizedAffinity>
-3.99038959

$$$$

 OpenBabel03242523313D

 20 21  0  0  0  0  0  0  0  0999 V2000
   38.3730   27.9390   43.4470 C   0  0  0  0  0  0  0  0  0  0  0  0
   37.3290   28.3480   43.5690 H   0  0  0  0  0  0  0  0  0  0  0  0
   38.9300   27.9700   44.3960 H   0  0  0  0  0  0  0  0  0  0  0  0
   37.0250   24.8960   41.8010 C   0  0  0  0  0  0  0  0  0  0  0  0
   38.1100   24.0220   41.9310 C   0  0  0  0  0  0  0  0  0  0  0  0
   39.2740   24.4820   42.5750 C   0  0  0  0  0  0  0  0  0  0  0  0
   39.3330   25.7530   43.0560 N   0  0  0  0  0  0  0  0  0  0  0  0
   38.2420   26.5730   42.9030 C   0  0  0  0  0  0  0  0  0  0  0  0
   37.1260   26.1400   42.2890 N   0  0  0  0  0  0  0  0  0  0  0  0
   36.1930   24.4650   41.3050 H   0  0  0  0  0  0  0  0  0  0  0  0
   38.0800   23.0000   41.5520 H   0  0  0  0  0  0  0  0  0  0  0  0
   40.1500   23.8430   42.7050 H   0  0  0  0  0  0  0  0  0  0  0  0
   39.1300   28.9660   42.1590 S   0  0  0  0  0  0  0  0  0  0  0  0
   37.8450   30.0540   41.5520 C   0  0  0  0  0  0  0  0  0  0  0  0
   37.9780   31.1160   40.7390 N   0  0  0  0  0  0  0  0  0  0  0  0
   36.7730   31.6750   40.5140 C   0  0  0  0  0  0  0  0  0  0  0  0
   36.7880   32.5500   39.8600 H   0  0  0  0  0  0  0  0  0  0  0  0
   35.8760   30.9420   41.2030 N   0  0  0  0  0  0  0  0  0  0  0  0
   34.8780   31.2380   41.1410 H   0  0  0  0  0  0  0  0  0  0  0  0
   36.5160   29.9680   41.8270 N   0  0  0  0  0  0  0  0  0  0  0  0
  1  2  1  0  0  0  0
  1  3  1  0  0  0  0
  4  5  2  0  0  0  0
  4  9  1  0  0  0  0
  5  6  1  0  0  0  0
  6 12  1  0  0  0  0
  6  7  2  0  0  0  0
  8  7  1  0  0  0  0
  8  1  1  0  0  0  0
  9  8  2  0  0  0  0
 10  4  1  0  0  0  0
 11  5  1  0  0  0  0
 13  1  1  0  0  0  0
 14 20  2  0  0  0  0
 14 13  1  0  0  0  0
 15 14  1  0  0  0  0
 16 15  2  0  0  0  0
 16 18  1  0  0  0  0
 17 16  1  0  0  0  0
 18 20  1  0  0  0  0
 19 18  1  0  0  0  0
M  END
>  <minimizedAffinity>
-3.9638803

$$$$

 OpenBabel03242523313D

 20 21  0  0  0  0  0  0  0  0999 V2000
   37.6260   28.7030   43.2990 C   0  0  0  0  0  0  0  0  0  0  0  0
   37.8240   29.1880   44.2980 H   0  0  0  0  0  0  0  0  0  0  0  0
   36.6780   28.1420   43.3050 H   0  0  0  0  0  0  0  0  0  0  0  0
   36.6070   31.0910   40.6440 C   0  0  0  0  0  0  0  0  0  0  0  0
   37.8060   31.7820   40.4350 C   0  0  0  0  0  0  0  0  0  0  0  0
   38.9340   31.4230   41.1980 C   0  0  0  0  0  0  0  0  0  0  0  0
   38.8480   30.4240   42.1170 N   0  0  0  0  0  0  0  0  0  0  0  0
   37.6490   29.7760   42.2850 C   0  0  0  0  0  0  0  0  0  0  0  0
   36.5670   30.1130   41.5590 N   0  0  0  0  0  0  0  0  0  0  0  0
   35.8140   31.4270   40.0270 H   0  0  0  0  0  0  0  0  0  0  0  0
   37.8920   32.5850   39.7030 H   0  0  0  0  0  0  0  0  0  0  0  0
   39.8950   31.9280   41.0760 H   0  0  0  0  0  0  0  0  0  0  0  0
   39.0640   27.6420   43.0000 S   0  0  0  0  0  0  0  0  0  0  0  0
   38.4270   26.0200   42.5900 C   0  0  0  0  0  0  0  0  0  0  0  0
   37.2370   25.7130   42.0460 N   0  0  0  0  0  0  0  0  0  0  0  0
   37.1340   24.3790   41.8920 C   0  0  0  0  0  0  0  0  0  0  0  0
   36.1920   24.0390   41.4550 H   0  0  0  0  0  0  0  0  0  0  0  0
   38.2870   23.8500   42.3510 N   0  0  0  0  0  0  0  0  0  0  0  0
   38.3790   22.8130   42.3060 H   0  0  0  0  0  0  0  0  0  0  0  0
   39.0650   24.8330   42.7690 N   0  0  0  0  0  0  0  0  0  0  0  0
  1  3  1  0  0  0  0
  1  2  1  0  0  0  0
  4  9  1  0  0  0  0
  5  4  2  0  0  0  0
  5  6  1  0  0  0  0
  6  7  2  0  0  0  0
  7  8  1  0  0  0  0
  8  1  1  0  0  0  0
  9  8  2  0  0  0  0
 10  4  1  0  0  0  0
 11  5  1  0  0  0  0
 12  6  1  0  0  0  0
 13  1  1  0  0  0  0
 14 20  2  0  0  0  0
 14 13  1  0  0  0  0
 15 14  1  0  0  0  0
 16 15  2  0  0  0  0
 16 18  1  0  0  0  0
 17 16  1  0  0  0  0
 18 20  1  0  0  0  0
 19 18  1  0  0  0  0
M  END
>  <minimizedAffinity>
-3.75922918

$$$$

 OpenBabel03242523313D

 20 21  0  0  0  0  0  0  0  0999 V2000
   38.4160   27.3110   39.4780 C   0  0  0  0  0  0  0  0  0  0  0  0
   39.3130   27.9530   39.2410 H   0  0  0  0  0  0  0  0  0  0  0  0
   38.5400   26.2880   39.0890 H   0  0  0  0  0  0  0  0  0  0  0  0
   37.0330   26.8210   42.8890 C   0  0  0  0  0  0  0  0  0  0  0  0
   37.9940   27.4810   43.6620 C   0  0  0  0  0  0  0  0  0  0  0  0
   39.0900   28.0790   43.0110 C   0  0  0  0  0  0  0  0  0  0  0  0
   39.2020   28.0090   41.6570 N   0  0  0  0  0  0  0  0  0  0  0  0
   38.2320   27.3490   40.9420 C   0  0  0  0  0  0  0  0  0  0  0  0
   37.1820   26.7770   41.5580 N   0  0  0  0  0  0  0  0  0  0  0  0
   36.2450   26.4030   43.4620 H   0  0  0  0  0  0  0  0  0  0  0  0
   37.9200   27.5470   44.7480 H   0  0  0  0  0  0  0  0  0  0  0  0
   39.8690   28.6080   43.5630 H   0  0  0  0  0  0  0  0  0  0  0  0
   37.0100   28.1760   38.7320 S   0  0  0  0  0  0  0  0  0  0  0  0
   36.7040   29.6220   39.7420 C   0  0  0  0  0  0  0  0  0  0  0  0
   37.4840   30.7060   39.8910 N   0  0  0  0  0  0  0  0  0  0  0  0
   36.9020   31.5770   40.7390 C   0  0  0  0  0  0  0  0  0  0  0  0
   37.4720   32.4910   40.9190 H   0  0  0  0  0  0  0  0  0  0  0  0
   35.7370   31.0170   41.1230 N   0  0  0  0  0  0  0  0  0  0  0  0
   35.1500   31.5630   41.7890 H   0  0  0  0  0  0  0  0  0  0  0  0
   35.6150   29.8440   40.5260 N   0  0  0  0  0  0  0  0  0  0  0  0
  1  8  1  0  0  0  0
  2  1  1  0  0  0  0
  3  1  1  0  0  0  0
  4 10  1  0  0  0  0
  4  5  1  0  0  0  0
  5 11  1  0  0  0  0
  6 12  1  0  0  0  0
  6  5  2  0  0  0  0
  7  6  1  0  0  0  0
  8  9  1  0  0  0  0
  8  7  2  0  0  0  0
  9  4  2  0  0  0  0
 13  1  1  0  0  0  0
 13 14  1  0  0  0  0
 14 15  1  0  0  0  0
 14 20  2  0  0  0  0
 15 16  2  0  0  0  0
 16 17  1  0  0  0  0
 16 18  1  0  0  0  0
 18 19  1  0  0  0  0
 20 18  1  0  0  0  0
M  END
>  <minimizedAffinity>
-3.70447612

$$$$

 OpenBabel03242523313D

 20 21  0  0  0  0  0  0  0  0999 V2000
   38.3040   29.2310   39.2040 C   0  0  0  0  0  0  0  0  0  0  0  0
   38.2800   29.0740   38.0870 H   0  0  0  0  0  0  0  0  0  0  0  0
   39.1980   28.7710   39.6550 H   0  0  0  0  0  0  0  0  0  0  0  0
   37.1670   32.7650   39.1950 C   0  0  0  0  0  0  0  0  0  0  0  0
   38.1870   33.3730   39.9350 C   0  0  0  0  0  0  0  0  0  0  0  0
   39.2400   32.5740   40.4190 C   0  0  0  0  0  0  0  0  0  0  0  0
   39.2530   31.2360   40.1680 N   0  0  0  0  0  0  0  0  0  0  0  0
   38.2280   30.6860   39.4380 C   0  0  0  0  0  0  0  0  0  0  0  0
   37.2200   31.4450   38.9720 N   0  0  0  0  0  0  0  0  0  0  0  0
   36.4190   33.4430   38.8720 H   0  0  0  0  0  0  0  0  0  0  0  0
   38.1930   34.4440   40.1440 H   0  0  0  0  0  0  0  0  0  0  0  0
   40.0630   32.9950   41.0000 H   0  0  0  0  0  0  0  0  0  0  0  0
   36.7610   28.5010   39.8120 S   0  0  0  0  0  0  0  0  0  0  0  0
   36.8960   28.4330   41.5960 C   0  0  0  0  0  0  0  0  0  0  0  0
   36.7880   27.3550   42.3920 N   0  0  0  0  0  0  0  0  0  0  0  0
   36.9520   27.7170   43.6790 C   0  0  0  0  0  0  0  0  0  0  0  0
   36.8780   26.8990   44.3990 H   0  0  0  0  0  0  0  0  0  0  0  0
   37.1650   29.0490   43.6780 N   0  0  0  0  0  0  0  0  0  0  0  0
   37.3130   29.5020   44.6050 H   0  0  0  0  0  0  0  0  0  0  0  0
   37.1320   29.4810   42.4290 N   0  0  0  0  0  0  0  0  0  0  0  0
  1  8  1  0  0  0  0
  1  3  1  0  0  0  0
  1 13  1  0  0  0  0
  2  1  1  0  0  0  0
  4  5  1  0  0  0  0
  5 11  1  0  0  0  0
  5  6  2  0  0  0  0
  6 12  1  0  0  0  0
  7  6  1  0  0  0  0
  8  7  2  0  0  0  0
  9  4  2  0  0  0  0
  9  8  1  0  0  0  0
 10  4  1  0  0  0  0
 13 14  1  0  0  0  0
 14 15  1  0  0  0  0
 14 20  2  0  0  0  0
 15 16  2  0  0  0  0
 16 17  1  0  0  0  0
 18 16  1  0  0  0  0
 18 19  1  0  0  0  0
 20 18  1  0  0  0  0
M  END
>  <minimizedAffinity>
-3.66606355

$$$$

 OpenBabel03242523313D

 20 21  0  0  0  0  0  0  0  0999 V2000
   37.9680   28.5610   39.5710 C   0  0  0  0  0  0  0  0  0  0  0  0
   38.4180   27.6670   39.0500 H   0  0  0  0  0  0  0  0  0  0  0  0
   36.9680   28.7960   39.1750 H   0  0  0  0  0  0  0  0  0  0  0  0
   38.9950   28.1760   43.1190 C   0  0  0  0  0  0  0  0  0  0  0  0
   37.8210   27.6600   43.6790 C   0  0  0  0  0  0  0  0  0  0  0  0
   36.7070   27.4530   42.8440 C   0  0  0  0  0  0  0  0  0  0  0  0
   36.7820   27.7530   41.5180 N   0  0  0  0  0  0  0  0  0  0  0  0
   37.9560   28.2570   41.0160 C   0  0  0  0  0  0  0  0  0  0  0  0
   39.0240   28.4570   41.8090 N   0  0  0  0  0  0  0  0  0  0  0  0
   39.7790   28.2980   43.8210 H   0  0  0  0  0  0  0  0  0  0  0  0
   37.7440   27.4140   44.7390 H   0  0  0  0  0  0  0  0  0  0  0  0
   35.7670   27.0520   43.2270 H   0  0  0  0  0  0  0  0  0  0  0  0
   39.1560   29.9040   39.3090 S   0  0  0  0  0  0  0  0  0  0  0  0
   38.2550   31.4350   39.5290 C   0  0  0  0  0  0  0  0  0  0  0  0
   37.7340   32.2310   38.5790 N   0  0  0  0  0  0  0  0  0  0  0  0
   37.1300   33.2910   39.1500 C   0  0  0  0  0  0  0  0  0  0  0  0
   36.6780   33.9940   38.4470 H   0  0  0  0  0  0  0  0  0  0  0  0
   37.2810   33.1460   40.4820 N   0  0  0  0  0  0  0  0  0  0  0  0
   36.8680   33.8890   41.0860 H   0  0  0  0  0  0  0  0  0  0  0  0
   37.9550   32.0330   40.7120 N   0  0  0  0  0  0  0  0  0  0  0  0
  1  8  1  0  0  0  0
  2  1  1  0  0  0  0
  3  1  1  0  0  0  0
  4  5  1  0  0  0  0
  4 10  1  0  0  0  0
  5 11  1  0  0  0  0
  6 12  1  0  0  0  0
  6  5  2  0  0  0  0
  7  6  1  0  0  0  0
  8  7  2  0  0  0  0
  8  9  1  0  0  0  0
  9  4  2  0  0  0  0
 13 14  1  0  0  0  0
 13  1  1  0  0  0  0
 14 20  2  0  0  0  0
 15 16  2  0  0  0  0
 15 14  1  0  0  0  0
 16 18  1  0  0  0  0
 17 16  1  0  0  0  0
 18 20  1  0  0  0  0
 18 19  1  0  0  0  0
M  END
>  <minimizedAffinity>
-3.63669825

$$$$
