
 OpenBabel03252509033D

 46 48  0  0  1  0  0  0  0  0999 V2000
   46.9720   34.3560   43.3430 N   0  0  0  0  0  0  0  0  0  0  0  0
   46.5040   35.5260   42.6950 C   0  0  0  0  0  0  0  0  0  0  0  0
   45.0220   35.7650   42.8170 C   0  0  0  0  0  0  0  0  0  0  0  0
   44.4140   35.2970   44.1200 C   0  0  0  0  0  0  0  0  0  0  0  0
   45.4730   34.7660   45.0590 C   0  0  0  0  0  0  0  0  0  0  0  0
   46.1690   33.6420   44.2120 C   0  0  2  0  0  0  0  0  0  0  0  0
   46.9790   36.4020   43.2210 H   0  0  0  0  0  0  0  0  0  0  0  0
   46.7700   35.6420   41.6430 H   0  0  0  0  0  0  0  0  0  0  0  0
   44.8040   36.8380   42.6210 H   0  0  0  0  0  0  0  0  0  0  0  0
   44.5460   35.2010   41.9780 H   0  0  0  0  0  0  0  0  0  0  0  0
   43.9170   36.1870   44.5990 H   0  0  0  0  0  0  0  0  0  0  0  0
   43.6450   34.5390   43.9760 H   0  0  0  0  0  0  0  0  0  0  0  0
   46.2340   35.5090   45.3110 H   0  0  0  0  0  0  0  0  0  0  0  0
   44.9690   34.2850   45.9160 H   0  0  0  0  0  0  0  0  0  0  0  0
   45.3290   33.0500   43.7950 H   0  0  0  0  0  0  0  0  0  0  0  0
   47.9950   33.6500   42.6140 C   0  0  0  0  0  0  0  0  0  0  0  0
   48.7040   34.3610   42.1560 H   0  0  0  0  0  0  0  0  0  0  0  0
   48.5700   33.0740   43.3960 H   0  0  0  0  0  0  0  0  0  0  0  0
   47.3580   32.7030   41.6700 C   0  0  0  0  0  0  0  0  0  0  0  0
   47.4860   31.6570   41.9800 H   0  0  0  0  0  0  0  0  0  0  0  0
   46.2410   32.8460   41.6060 H   0  0  0  0  0  0  0  0  0  0  0  0
   49.2720   32.1550   38.4840 C   0  0  0  0  0  0  0  0  0  0  0  0
   48.7480   31.9730   39.7780 C   0  0  0  0  0  0  0  0  0  0  0  0
   47.9020   32.9060   40.3050 C   0  0  0  0  0  0  0  0  0  0  0  0
   47.6060   33.9710   39.5480 N   0  0  0  0  0  0  0  0  0  0  0  0
   48.1040   34.1470   38.3130 C   0  0  0  0  0  0  0  0  0  0  0  0
   48.9360   33.2500   37.7670 N   0  0  0  0  0  0  0  0  0  0  0  0
   49.9390   31.3380   38.1690 H   0  0  0  0  0  0  0  0  0  0  0  0
   49.0010   31.1020   40.3750 H   0  0  0  0  0  0  0  0  0  0  0  0
   47.8690   35.0130   37.6850 H   0  0  0  0  0  0  0  0  0  0  0  0
   46.9000   32.9820   45.1870 O   0  0  0  0  0  0  0  0  0  0  0  0
   45.4480   30.8950   44.4250 O   0  0  0  0  0  0  0  0  0  0  0  0
   46.2440   31.4790   45.5880 P   0  0  2  0  0  0  0  0  0  0  0  0
   45.1210   31.7580   46.8350 O   0  0  0  0  0  0  0  0  0  0  0  0
   44.3230   32.2300   46.5160 H   0  0  0  0  0  0  0  0  0  0  0  0
   47.4000   30.4100   46.1480 O   0  0  0  0  0  0  0  0  0  0  0  0
   47.0350   29.1160   45.8390 C   0  0  0  0  0  0  0  0  0  0  0  0
   47.9230   28.5560   45.5370 H   0  0  0  0  0  0  0  0  0  0  0  0
   46.4080   29.1890   44.9010 H   0  0  0  0  0  0  0  0  0  0  0  0
   46.2380   28.4360   46.8810 C   0  0  0  0  0  0  0  0  0  0  0  0
   46.1930   27.0840   46.9340 N   0  0  0  0  0  0  0  0  0  0  0  0
   45.4080   26.6890   47.9630 C   0  0  0  0  0  0  0  0  0  0  0  0
   45.2360   25.6280   48.1840 H   0  0  0  0  0  0  0  0  0  0  0  0
   44.9610   27.8260   48.5530 N   0  0  0  0  0  0  0  0  0  0  0  0
   44.3290   27.8140   49.3830 H   0  0  0  0  0  0  0  0  0  0  0  0
   45.4650   28.8430   47.8980 N   0  0  0  0  0  0  0  0  0  0  0  0
  1  6  1  0  0  0  0
  2  3  1  0  0  0  0
  2  7  1  0  0  0  0
  2  1  1  0  0  0  0
  3  4  1  0  0  0  0
  4 11  1  0  0  0  0
  4  5  1  0  0  0  0
  5 13  1  0  0  0  0
  5 14  1  0  0  0  0
  6 15  1  6  0  0  0
  6  5  1  0  0  0  0
  6 31  1  0  0  0  0
  8  2  1  0  0  0  0
  9  3  1  0  0  0  0
 10  3  1  0  0  0  0
 12  4  1  0  0  0  0
 16  1  1  0  0  0  0
 16 18  1  0  0  0  0
 17 16  1  0  0  0  0
 19 20  1  0  0  0  0
 19 16  1  0  0  0  0
 21 19  1  0  0  0  0
 22 23  1  0  0  0  0
 23 24  2  0  0  0  0
 23 29  1  0  0  0  0
 24 19  1  0  0  0  0
 25 24  1  0  0  0  0
 26 25  2  0  0  0  0
 27 26  1  0  0  0  0
 27 22  2  0  0  0  0
 28 22  1  0  0  0  0
 30 26  1  0  0  0  0
 31 33  1  0  0  0  0
 33 32  2  6  0  0  0
 33 36  1  0  0  0  0
 33 34  1  0  0  0  0
 35 34  1  0  0  0  0
 37 36  1  0  0  0  0
 37 40  1  0  0  0  0
 38 37  1  0  0  0  0
 39 37  1  0  0  0  0
 40 41  1  0  0  0  0
 40 46  2  0  0  0  0
 41 42  2  0  0  0  0
 42 43  1  0  0  0  0
 42 44  1  0  0  0  0
 44 45  1  0  0  0  0
 46 44  1  0  0  0  0
M  END
>  <minimizedAffinity>
-4.23356342

>  <minimizedRMSD>
1.06886053

$$$$
