
 OpenBabel03252509313D

 25 26  0  0  0  0  0  0  0  0999 V2000
   48.2930   33.3310   43.4560 O   0  0  0  0  0  0  0  0  0  0  0  0
   46.9830   33.3690   43.0050 C   0  0  0  0  0  0  0  0  0  0  0  0
   46.6760   32.3280   42.7970 H   0  0  0  0  0  0  0  0  0  0  0  0
   46.8740   33.8920   42.0200 H   0  0  0  0  0  0  0  0  0  0  0  0
   45.0870   34.2990   46.0730 C   0  0  0  0  0  0  0  0  0  0  0  0
   45.9300   33.5820   45.2010 C   0  0  0  0  0  0  0  0  0  0  0  0
   46.1130   34.0970   43.9270 C   0  0  0  0  0  0  0  0  0  0  0  0
   45.4740   35.2600   43.5900 N   0  0  0  0  0  0  0  0  0  0  0  0
   44.6740   35.9180   44.4560 C   0  0  0  0  0  0  0  0  0  0  0  0
   44.4890   35.4330   45.6830 N   0  0  0  0  0  0  0  0  0  0  0  0
   44.8840   33.9810   47.0790 H   0  0  0  0  0  0  0  0  0  0  0  0
   46.3910   32.6820   45.5430 H   0  0  0  0  0  0  0  0  0  0  0  0
   44.2630   36.8150   43.9980 H   0  0  0  0  0  0  0  0  0  0  0  0
   50.0380   33.0610   41.5300 O   0  0  0  0  0  0  0  0  0  0  0  0
   49.2480   34.0960   42.2740 P   0  0  2  0  0  0  0  0  0  0  0  0
   50.2050   35.2320   43.0740 O   0  0  0  0  0  0  0  0  0  0  0  0
   50.1870   36.1270   42.6680 H   0  0  0  0  0  0  0  0  0  0  0  0
   48.2180   34.8710   41.1980 O   0  0  0  0  0  0  0  0  0  0  0  0
   48.0620   34.5780   39.8520 C   0  0  0  0  0  0  0  0  0  0  0  0
   48.7470   34.9090   38.7430 N   0  0  0  0  0  0  0  0  0  0  0  0
   48.1750   34.3610   37.6580 C   0  0  0  0  0  0  0  0  0  0  0  0
   48.4710   34.4290   36.6200 H   0  0  0  0  0  0  0  0  0  0  0  0
   47.1210   33.6880   38.1550 N   0  0  0  0  0  0  0  0  0  0  0  0
   46.4550   33.1390   37.5500 H   0  0  0  0  0  0  0  0  0  0  0  0
   47.0150   33.7910   39.4700 N   0  0  0  0  0  0  0  0  0  0  0  0
  2  1  1  0  0  0  0
  2  7  1  0  0  0  0
  3  2  1  0  0  0  0
  4  2  1  0  0  0  0
  5 11  1  0  0  0  0
  6 12  1  0  0  0  0
  6  5  2  0  0  0  0
  7  6  1  0  0  0  0
  8  7  2  0  0  0  0
  8  9  1  0  0  0  0
  9 10  2  0  0  0  0
 10  5  1  0  0  0  0
 13  9  1  0  0  0  0
 15 14  2  6  0  0  0
 15 16  1  0  0  0  0
 15  1  1  0  0  0  0
 17 16  1  0  0  0  0
 18 15  1  0  0  0  0
 19 18  1  0  0  0  0
 20 19  1  0  0  0  0
 21 23  1  0  0  0  0
 21 20  2  0  0  0  0
 22 21  1  0  0  0  0
 23 25  1  0  0  0  0
 24 23  1  0  0  0  0
 25 19  2  0  0  0  0
M  END
>  <minimizedAffinity>
-4.87669563

>  <minimizedRMSD>
1.35666025

$$$$
