
 OpenBabel03242516283D

 44 48  0  0  0  0  0  0  0  0999 V2000
   49.7980   30.2590   49.5890 C   0  0  0  0  0  0  0  0  0  0  0  0
   50.0140   31.5020   50.1140 N   0  0  0  0  0  0  0  0  0  0  0  0
   50.7340   31.7270   51.2070 C   0  0  0  0  0  0  0  0  0  0  0  0
   51.2730   30.6700   51.8190 N   0  0  0  0  0  0  0  0  0  0  0  0
   51.1120   29.4220   51.3750 C   0  0  0  0  0  0  0  0  0  0  0  0
   51.6780   28.3150   51.9970 C   0  0  0  0  0  0  0  0  0  0  0  0
   51.5090   27.0580   51.5220 C   0  0  0  0  0  0  0  0  0  0  0  0
   50.7670   26.8480   50.4040 C   0  0  0  0  0  0  0  0  0  0  0  0
   50.1710   27.9220   49.7340 C   0  0  0  0  0  0  0  0  0  0  0  0
   50.3510   29.1830   50.2230 C   0  0  0  0  0  0  0  0  0  0  0  0
   50.8590   32.7400   51.5600 H   0  0  0  0  0  0  0  0  0  0  0  0
   52.2540   28.5490   52.8780 H   0  0  0  0  0  0  0  0  0  0  0  0
   51.9790   26.2280   52.0520 H   0  0  0  0  0  0  0  0  0  0  0  0
   50.6670   25.8180   50.0710 H   0  0  0  0  0  0  0  0  0  0  0  0
   49.3530   27.5720   48.5510 C   0  0  0  0  0  0  0  0  0  0  0  0
   48.3130   27.9000   48.5820 H   0  0  0  0  0  0  0  0  0  0  0  0
   49.8880   27.6490   47.5840 H   0  0  0  0  0  0  0  0  0  0  0  0
   49.0940   26.0700   48.5350 C   0  0  0  0  0  0  0  0  0  0  0  0
   49.8270   25.0790   47.9430 N   0  0  0  0  0  0  0  0  0  0  0  0
   49.2610   23.8860   48.1560 C   0  0  0  0  0  0  0  0  0  0  0  0
   49.6820   22.9660   47.7710 H   0  0  0  0  0  0  0  0  0  0  0  0
   48.1560   24.0990   48.8860 N   0  0  0  0  0  0  0  0  0  0  0  0
   47.4920   23.3670   49.2180 H   0  0  0  0  0  0  0  0  0  0  0  0
   48.0660   25.3800   49.1050 N   0  0  0  0  0  0  0  0  0  0  0  0
   48.8960   30.0310   48.1390 S   0  0  0  0  0  0  0  0  0  0  0  0
   46.1130   32.6450   46.9440 C   0  0  0  0  0  0  0  0  0  0  0  0
   47.2440   31.8420   47.0160 C   0  0  0  0  0  0  0  0  0  0  0  0
   47.4410   31.0040   48.0830 C   0  0  0  0  0  0  0  0  0  0  0  0
   46.5180   30.9440   49.1010 C   0  0  0  0  0  0  0  0  0  0  0  0
   45.3940   31.7130   49.0740 C   0  0  0  0  0  0  0  0  0  0  0  0
   45.2150   32.5510   47.9900 C   0  0  0  0  0  0  0  0  0  0  0  0
   47.9430   31.9190   46.1970 H   0  0  0  0  0  0  0  0  0  0  0  0
   46.7070   30.2750   49.9200 H   0  0  0  0  0  0  0  0  0  0  0  0
   44.6720   31.6600   49.8790 H   0  0  0  0  0  0  0  0  0  0  0  0
   44.3330   33.1560   47.9650 H   0  0  0  0  0  0  0  0  0  0  0  0
   44.7250   35.3370   44.9020 C   0  0  0  0  0  0  0  0  0  0  0  0
   45.4740   35.2590   43.7010 C   0  0  0  0  0  0  0  0  0  0  0  0
   46.4560   34.2790   43.5970 C   0  0  0  0  0  0  0  0  0  0  0  0
   46.6780   33.4190   44.6420 N   0  0  0  0  0  0  0  0  0  0  0  0
   45.9180   33.5380   45.7920 C   0  0  0  0  0  0  0  0  0  0  0  0
   44.9530   34.4840   45.9210 N   0  0  0  0  0  0  0  0  0  0  0  0
   43.9500   36.0730   45.0450 H   0  0  0  0  0  0  0  0  0  0  0  0
   45.2660   35.9570   42.9010 H   0  0  0  0  0  0  0  0  0  0  0  0
   47.0500   34.1870   42.6980 H   0  0  0  0  0  0  0  0  0  0  0  0
  1  2  2  0  0  0  0
  1 10  1  0  0  0  0
  2  3  1  0  0  0  0
  3 11  1  0  0  0  0
  3  4  2  0  0  0  0
  5  4  1  0  0  0  0
  5  6  1  0  0  0  0
  6 12  1  0  0  0  0
  7  6  2  0  0  0  0
  7 13  1  0  0  0  0
  8  7  1  0  0  0  0
  9 10  1  0  0  0  0
  9  8  2  0  0  0  0
 10  5  2  0  0  0  0
 14  8  1  0  0  0  0
 15 16  1  0  0  0  0
 15  9  1  0  0  0  0
 17 15  1  0  0  0  0
 18 15  1  0  0  0  0
 18 24  2  0  0  0  0
 19 20  2  0  0  0  0
 19 18  1  0  0  0  0
 20 22  1  0  0  0  0
 21 20  1  0  0  0  0
 22 24  1  0  0  0  0
 22 23  1  0  0  0  0
 25  1  1  0  0  0  0
 26 27  2  0  0  0  0
 26 31  1  0  0  0  0
 27 28  1  0  0  0  0
 28 25  1  0  0  0  0
 28 29  2  0  0  0  0
 29 33  1  0  0  0  0
 30 29  1  0  0  0  0
 30 34  1  0  0  0  0
 31 30  2  0  0  0  0
 32 27  1  0  0  0  0
 35 31  1  0  0  0  0
 36 42  1  0  0  0  0
 36 41  1  0  0  0  0
 37 36  2  0  0  0  0
 38 37  1  0  0  0  0
 38 39  2  0  0  0  0
 39 40  1  0  0  0  0
 40 41  2  0  0  0  0
 40 26  1  0  0  0  0
 43 37  1  0  0  0  0
 44 38  1  0  0  0  0
M  END
>  <minimizedAffinity>
-6.5903573

>  <minimizedRMSD>
0.392508239

$$$$
