
     RDKit          3D

 40 43  0  0  0  0  0  0  0  0999 V2000
   46.5015   34.9530   42.3044 C   0  0  0  0  0  0  0  0  0  0  0  0
   44.5601   36.4080   44.0245 Cl  0  0  0  0  0  0  0  0  0  0  0  0
   45.3903   34.9649   44.5484 C   0  0  0  0  0  0  0  0  0  0  0  0
   46.2629   34.3828   43.6669 C   0  0  0  0  0  0  0  0  0  0  0  0
   46.9201   33.2433   44.0772 C   0  0  0  0  0  0  0  0  0  0  0  0
   46.7069   32.7081   45.3306 C   0  0  0  0  0  0  0  0  0  0  0  0
   45.8122   33.3171   46.2158 C   0  0  0  0  0  0  0  0  0  0  0  0
   45.1564   34.4630   45.7926 C   0  0  0  0  0  0  0  0  0  0  0  0
   44.2419   35.1426   46.6091 O   0  0  0  0  0  0  0  0  0  0  0  0
   47.9299   35.1156   41.9743 C   0  0  0  0  0  0  0  0  0  0  0  0
   48.3332   34.2170   40.9233 C   0  0  0  0  0  0  0  0  0  0  0  0
   47.8466   34.3299   39.6402 C   0  0  0  0  0  0  0  0  0  0  0  0
   48.2146   33.4618   38.6008 C   0  0  0  0  0  0  0  0  0  0  0  0
   49.0987   32.4839   38.9490 N   0  0  0  0  0  0  0  0  0  0  0  0
   49.5661   32.3833   40.2006 C   0  0  0  0  0  0  0  0  0  0  0  0
   49.1910   33.2317   41.1645 N   0  0  0  0  0  0  0  0  0  0  0  0
   50.5173   31.2918   40.5942 C   0  0  2  0  0  0  0  0  0  0  0  0
   51.1369   31.3386   41.9550 C   0  0  0  0  0  0  0  0  0  0  0  0
   51.9536   31.6685   40.6934 C   0  0  1  0  0  0  0  0  0  0  0  0
   45.9975   34.2426   41.5893 H   0  0  0  0  0  0  0  0  0  0  0  0
   45.8893   35.8872   42.2233 H   0  0  0  0  0  0  0  0  0  0  0  0
   47.6229   32.7331   43.4306 H   0  0  0  0  0  0  0  0  0  0  0  0
   47.1765   31.8354   45.7134 H   0  0  0  0  0  0  0  0  0  0  0  0
   45.6282   32.9167   47.2032 H   0  0  0  0  0  0  0  0  0  0  0  0
   43.4432   34.6247   46.9585 H   0  0  0  0  0  0  0  0  0  0  0  0
   48.0616   36.1718   41.5952 H   0  0  0  0  0  0  0  0  0  0  0  0
   48.5801   35.0609   42.8695 H   0  0  0  0  0  0  0  0  0  0  0  0
   47.1483   35.1333   39.4457 H   0  0  0  0  0  0  0  0  0  0  0  0
   47.8132   33.5808   37.6082 H   0  0  0  0  0  0  0  0  0  0  0  0
   50.3024   30.3438   40.0609 H   0  0  0  0  0  0  0  0  0  0  0  0
   50.8311   32.1934   42.6008 H   0  0  0  0  0  0  0  0  0  0  0  0
   51.2964   30.3765   42.4584 H   0  0  0  0  0  0  0  0  0  0  0  0
   52.2638   32.7240   40.6271 H   0  0  0  0  0  0  0  0  0  0  0  0
   53.0078   30.6550   40.4218 C   0  0  0  0  0  0  0  0  0  0  0  0
   52.9205   29.5586   39.6679 N   0  0  0  0  0  0  0  0  0  0  0  0
   54.1011   28.8769   39.6619 C   0  0  0  0  0  0  0  0  0  0  0  0
   54.0934   27.9742   39.0654 H   0  0  0  0  0  0  0  0  0  0  0  0
   54.9268   29.6020   40.4483 N   0  0  0  0  0  0  0  0  0  0  0  0
   55.8966   29.2210   40.5611 H   0  0  0  0  0  0  0  0  0  0  0  0
   54.2660   30.6626   40.8983 N   0  0  0  0  0  0  0  0  0  0  0  0
  1  4  1  0
  2  3  1  0
  3  8  2  0
  4  5  2  0
  4  3  1  0
  5  6  1  0
  6  7  2  0
  8  7  1  0
  8  9  1  0
 10  1  1  0
 11 16  1  0
 11 10  1  0
 12 11  2  0
 13 14  2  0
 13 12  1  0
 14 15  1  0
 15 17  1  0
 15 16  2  0
 17 19  1  0
 17 18  1  0
 19 18  1  0
  1 20  1  0
  1 21  1  0
  5 22  1  0
  6 23  1  0
  7 24  1  0
  9 25  1  0
 10 26  1  0
 10 27  1  0
 12 28  1  0
 13 29  1  0
 17 30  1  6
 18 31  1  0
 18 32  1  0
 19 33  1  1
 34 35  1  0
 35 36  2  0
 36 37  1  0
 36 38  1  0
 38 39  1  0
 38 40  1  0
 40 34  2  0
 19 34  1  0
M  ISO  8  20   8  21   8  22  14  23  14  24  14  25   3  26   8  27   8
M  ISO  8  28  14  29  14  30  13  31  13  32  13  33  13  37  14  39   9
M  END
>  <DihAtoms>  (1) 
16,18,33,34

>  <DihDeg>  (1) 
-19.86958512529888

$$$$
