
 OpenBabel03242519453D

 30 32  0  0  1  0  0  0  0  0999 V2000
   38.3430   29.0160   43.0130 C   0  0  2  0  0  0  0  0  0  0  0  0
   39.0550   29.4320   41.7700 C   0  0  1  0  0  0  0  0  0  0  0  0
   38.9790   28.2590   40.9230 O   0  0  0  0  0  0  0  0  0  0  0  0
   39.5540   27.3480   41.8620 C   0  0  0  0  0  0  0  0  0  0  0  0
   38.5590   27.4880   43.0000 C   0  0  2  0  0  0  0  0  0  0  0  0
   38.7720   29.4580   43.9310 H   0  0  0  0  0  0  0  0  0  0  0  0
   40.1450   29.5770   41.9430 H   0  0  0  0  0  0  0  0  0  0  0  0
   39.5780   26.3240   41.4540 H   0  0  0  0  0  0  0  0  0  0  0  0
   40.5230   27.7650   42.1460 H   0  0  0  0  0  0  0  0  0  0  0  0
   38.9760   27.1770   43.9700 H   0  0  0  0  0  0  0  0  0  0  0  0
   38.4430   32.9310   40.8810 C   0  0  0  0  0  0  0  0  0  0  0  0
   37.4680   32.8490   39.8770 C   0  0  0  0  0  0  0  0  0  0  0  0
   36.9930   31.5570   39.4910 C   0  0  0  0  0  0  0  0  0  0  0  0
   37.5130   30.4630   40.1200 N   0  0  0  0  0  0  0  0  0  0  0  0
   38.4560   30.5850   41.0880 C   0  0  0  0  0  0  0  0  0  0  0  0
   38.9180   31.7960   41.4660 N   0  0  0  0  0  0  0  0  0  0  0  0
   37.0920   33.7510   39.4130 H   0  0  0  0  0  0  0  0  0  0  0  0
   36.2440   31.4810   38.7220 H   0  0  0  0  0  0  0  0  0  0  0  0
   38.9420   34.1610   41.2950 O   0  0  0  0  0  0  0  0  0  0  0  0
   38.8470   34.5010   42.2410 H   0  0  0  0  0  0  0  0  0  0  0  0
   36.9560   29.2940   42.9020 O   0  0  0  0  0  0  0  0  0  0  0  0
   36.6870   29.9440   43.5800 H   0  0  0  0  0  0  0  0  0  0  0  0
   37.3950   26.8510   42.6070 O   0  0  0  0  0  0  0  0  0  0  0  0
   37.3450   25.6670   41.8820 C   0  0  0  0  0  0  0  0  0  0  0  0
   36.9150   25.1850   40.6910 N   0  0  0  0  0  0  0  0  0  0  0  0
   37.2060   23.8610   40.6410 C   0  0  0  0  0  0  0  0  0  0  0  0
   36.9520   23.2750   39.7780 H   0  0  0  0  0  0  0  0  0  0  0  0
   37.8110   23.5310   41.7940 N   0  0  0  0  0  0  0  0  0  0  0  0
   38.1220   22.5540   41.9680 H   0  0  0  0  0  0  0  0  0  0  0  0
   37.8950   24.6140   42.5410 N   0  0  0  0  0  0  0  0  0  0  0  0
  1  6  1  1  0  0  0
  2  7  1  1  0  0  0
  2  1  1  0  0  0  0
  3  2  1  0  0  0  0
  3  4  1  0  0  0  0
  4  9  1  0  0  0  0
  4  5  1  0  0  0  0
  5  1  1  0  0  0  0
  5 10  1  1  0  0  0
  8  4  1  0  0  0  0
 11 19  1  0  0  0  0
 11 16  1  0  0  0  0
 12 11  2  0  0  0  0
 13 12  1  0  0  0  0
 13 14  2  0  0  0  0
 14 15  1  0  0  0  0
 15 16  2  0  0  0  0
 15  2  1  0  0  0  0
 17 12  1  0  0  0  0
 18 13  1  0  0  0  0
 19 20  1  0  0  0  0
 21  1  1  0  0  0  0
 21 22  1  0  0  0  0
 23  5  1  0  0  0  0
 24 30  2  0  0  0  0
 24 23  1  0  0  0  0
 25 24  1  0  0  0  0
 26 25  2  0  0  0  0
 26 28  1  0  0  0  0
 27 26  1  0  0  0  0
 28 29  1  0  0  0  0
 28 30  1  0  0  0  0
M  END
>  <minimizedAffinity>
-5.34873533

$$$$

 OpenBabel03242519453D

 30 32  0  0  1  0  0  0  0  0999 V2000
   36.9080   29.0080   40.5350 C   0  0  2  0  0  0  0  0  0  0  0  0
   37.1510   30.0580   41.5660 C   0  0  1  0  0  0  0  0  0  0  0  0
   37.9640   29.3830   42.5580 O   0  0  0  0  0  0  0  0  0  0  0  0
   37.0690   28.2910   42.7780 C   0  0  0  0  0  0  0  0  0  0  0  0
   37.0100   27.7170   41.3740 C   0  0  2  0  0  0  0  0  0  0  0  0
   35.9110   29.0830   40.0620 H   0  0  0  0  0  0  0  0  0  0  0  0
   36.2200   30.3300   42.1120 H   0  0  0  0  0  0  0  0  0  0  0  0
   37.4920   27.5750   43.5030 H   0  0  0  0  0  0  0  0  0  0  0  0
   36.1070   28.7280   43.0550 H   0  0  0  0  0  0  0  0  0  0  0  0
   36.1110   27.1060   41.2020 H   0  0  0  0  0  0  0  0  0  0  0  0
   37.6460   33.2710   39.8810 C   0  0  0  0  0  0  0  0  0  0  0  0
   39.0040   33.5470   40.0920 C   0  0  0  0  0  0  0  0  0  0  0  0
   39.7860   32.6030   40.8280 C   0  0  0  0  0  0  0  0  0  0  0  0
   39.1710   31.4750   41.2910 N   0  0  0  0  0  0  0  0  0  0  0  0
   37.8520   31.2460   41.0650 C   0  0  0  0  0  0  0  0  0  0  0  0
   37.0970   32.1250   40.3730 N   0  0  0  0  0  0  0  0  0  0  0  0
   39.4390   34.4580   39.7020 H   0  0  0  0  0  0  0  0  0  0  0  0
   40.8300   32.8030   40.9960 H   0  0  0  0  0  0  0  0  0  0  0  0
   36.8380   34.1540   39.1740 O   0  0  0  0  0  0  0  0  0  0  0  0
   36.3710   33.9020   38.3150 H   0  0  0  0  0  0  0  0  0  0  0  0
   37.9440   29.0210   39.5660 O   0  0  0  0  0  0  0  0  0  0  0  0
   37.5810   29.2420   38.6870 H   0  0  0  0  0  0  0  0  0  0  0  0
   38.2230   27.0940   41.1350 O   0  0  0  0  0  0  0  0  0  0  0  0
   38.7320   26.0370   41.8780 C   0  0  0  0  0  0  0  0  0  0  0  0
   39.7700   25.7360   42.6940 N   0  0  0  0  0  0  0  0  0  0  0  0
   39.6350   24.4450   43.0910 C   0  0  0  0  0  0  0  0  0  0  0  0
   40.3550   23.9940   43.7480 H   0  0  0  0  0  0  0  0  0  0  0  0
   38.5200   23.9570   42.5230 N   0  0  0  0  0  0  0  0  0  0  0  0
   38.2240   22.9760   42.6950 H   0  0  0  0  0  0  0  0  0  0  0  0
   37.9760   24.9120   41.7940 N   0  0  0  0  0  0  0  0  0  0  0  0
  1  6  1  6  0  0  0
  1  5  1  0  0  0  0
  1  2  1  0  0  0  0
  2  7  1  1  0  0  0
  2  3  1  0  0  0  0
  3  4  1  0  0  0  0
  4  9  1  0  0  0  0
  4  8  1  0  0  0  0
  5 10  1  6  0  0  0
  5  4  1  0  0  0  0
 11 12  2  0  0  0  0
 11 16  1  0  0  0  0
 12 13  1  0  0  0  0
 13 18  1  0  0  0  0
 13 14  2  0  0  0  0
 15 14  1  0  0  0  0
 15  2  1  0  0  0  0
 16 15  2  0  0  0  0
 17 12  1  0  0  0  0
 19 11  1  0  0  0  0
 20 19  1  0  0  0  0
 21  1  1  0  0  0  0
 22 21  1  0  0  0  0
 23  5  1  0  0  0  0
 23 24  1  0  0  0  0
 24 25  1  0  0  0  0
 25 26  2  0  0  0  0
 26 27  1  0  0  0  0
 28 29  1  0  0  0  0
 28 26  1  0  0  0  0
 30 24  2  0  0  0  0
 30 28  1  0  0  0  0
M  END
>  <minimizedAffinity>
-5.18735313

$$$$

 OpenBabel03242519453D

 30 32  0  0  1  0  0  0  0  0999 V2000
   39.0620   31.0180   39.0320 C   0  0  2  0  0  0  0  0  0  0  0  0
   39.1620   32.4420   39.4640 C   0  0  1  0  0  0  0  0  0  0  0  0
   38.7320   32.4120   40.8480 O   0  0  0  0  0  0  0  0  0  0  0  0
   37.4770   31.7730   40.6090 C   0  0  0  0  0  0  0  0  0  0  0  0
   37.9590   30.4840   39.9690 C   0  0  2  0  0  0  0  0  0  0  0  0
   38.7600   30.9020   37.9750 H   0  0  0  0  0  0  0  0  0  0  0  0
   38.4080   33.0850   38.9560 H   0  0  0  0  0  0  0  0  0  0  0  0
   36.9400   31.5930   41.5560 H   0  0  0  0  0  0  0  0  0  0  0  0
   36.9480   32.3900   39.8790 H   0  0  0  0  0  0  0  0  0  0  0  0
   37.1820   29.9930   39.3640 H   0  0  0  0  0  0  0  0  0  0  0  0
   42.1670   33.8600   37.9250 C   0  0  0  0  0  0  0  0  0  0  0  0
   43.0030   34.1210   39.0190 C   0  0  0  0  0  0  0  0  0  0  0  0
   42.5350   33.7970   40.3300 C   0  0  0  0  0  0  0  0  0  0  0  0
   41.2910   33.2480   40.4540 N   0  0  0  0  0  0  0  0  0  0  0  0
   40.5120   33.0100   39.3680 C   0  0  0  0  0  0  0  0  0  0  0  0
   40.9360   33.3090   38.1230 N   0  0  0  0  0  0  0  0  0  0  0  0
   43.9810   34.5590   38.8600 H   0  0  0  0  0  0  0  0  0  0  0  0
   43.1690   33.9920   41.1770 H   0  0  0  0  0  0  0  0  0  0  0  0
   42.5700   34.1550   36.6280 O   0  0  0  0  0  0  0  0  0  0  0  0
   42.6710   33.4510   35.9110 H   0  0  0  0  0  0  0  0  0  0  0  0
   40.2770   30.3360   39.3020 O   0  0  0  0  0  0  0  0  0  0  0  0
   40.6810   30.0250   38.4690 H   0  0  0  0  0  0  0  0  0  0  0  0
   38.5240   29.7160   40.9730 O   0  0  0  0  0  0  0  0  0  0  0  0
   37.8340   28.7900   41.7460 C   0  0  0  0  0  0  0  0  0  0  0  0
   37.2990   27.5490   41.6640 N   0  0  0  0  0  0  0  0  0  0  0  0
   36.7440   27.2470   42.8640 C   0  0  0  0  0  0  0  0  0  0  0  0
   36.2590   26.3020   43.0240 H   0  0  0  0  0  0  0  0  0  0  0  0
   36.9380   28.2980   43.6800 N   0  0  0  0  0  0  0  0  0  0  0  0
   36.5890   28.2790   44.6590 H   0  0  0  0  0  0  0  0  0  0  0  0
   37.5920   29.2250   43.0100 N   0  0  0  0  0  0  0  0  0  0  0  0
  1  6  1  6  0  0  0
  1 21  1  0  0  0  0
  1  2  1  0  0  0  0
  1  5  1  0  0  0  0
  2  7  1  6  0  0  0
  2  3  1  0  0  0  0
  4  3  1  0  0  0  0
  4  8  1  0  0  0  0
  5 10  1  6  0  0  0
  5  4  1  0  0  0  0
  5 23  1  0  0  0  0
  9  4  1  0  0  0  0
 11 16  2  0  0  0  0
 11 12  1  0  0  0  0
 12 13  2  0  0  0  0
 13 14  1  0  0  0  0
 13 18  1  0  0  0  0
 15  2  1  0  0  0  0
 15 14  2  0  0  0  0
 16 15  1  0  0  0  0
 17 12  1  0  0  0  0
 19 11  1  0  0  0  0
 20 19  1  0  0  0  0
 22 21  1  0  0  0  0
 23 24  1  0  0  0  0
 24 30  2  0  0  0  0
 25 24  1  0  0  0  0
 25 26  2  0  0  0  0
 26 27  1  0  0  0  0
 26 28  1  0  0  0  0
 28 29  1  0  0  0  0
 30 28  1  0  0  0  0
M  END
>  <minimizedAffinity>
-5.16564131

$$$$

 OpenBabel03242519453D

 30 32  0  0  1  0  0  0  0  0999 V2000
   36.6970   28.7810   41.2150 C   0  0  2  0  0  0  0  0  0  0  0  0
   37.9220   28.0660   40.7560 C   0  0  1  0  0  0  0  0  0  0  0  0
   38.7990   29.1340   40.3190 O   0  0  0  0  0  0  0  0  0  0  0  0
   37.8770   29.7320   39.4060 C   0  0  0  0  0  0  0  0  0  0  0  0
   36.7450   30.0650   40.3600 C   0  0  2  0  0  0  0  0  0  0  0  0
   35.7640   28.2210   41.0170 H   0  0  0  0  0  0  0  0  0  0  0  0
   37.7350   27.4690   39.8340 H   0  0  0  0  0  0  0  0  0  0  0  0
   38.3090   30.6340   38.9420 H   0  0  0  0  0  0  0  0  0  0  0  0
   37.5740   28.9450   38.7100 H   0  0  0  0  0  0  0  0  0  0  0  0
   35.7790   30.1910   39.8490 H   0  0  0  0  0  0  0  0  0  0  0  0
   38.9330   25.1030   42.6540 C   0  0  0  0  0  0  0  0  0  0  0  0
   39.7760   25.6210   43.6460 C   0  0  0  0  0  0  0  0  0  0  0  0
   40.0060   27.0310   43.6800 C   0  0  0  0  0  0  0  0  0  0  0  0
   39.3910   27.8080   42.7400 N   0  0  0  0  0  0  0  0  0  0  0  0
   38.5810   27.2670   41.7950 C   0  0  0  0  0  0  0  0  0  0  0  0
   38.3520   25.9380   41.7470 N   0  0  0  0  0  0  0  0  0  0  0  0
   40.2370   24.9560   44.3660 H   0  0  0  0  0  0  0  0  0  0  0  0
   40.6510   27.4410   44.4370 H   0  0  0  0  0  0  0  0  0  0  0  0
   38.6750   23.7390   42.5730 O   0  0  0  0  0  0  0  0  0  0  0  0
   37.7490   23.3490   42.6730 H   0  0  0  0  0  0  0  0  0  0  0  0
   36.8140   29.1260   42.5870 O   0  0  0  0  0  0  0  0  0  0  0  0
   36.1230   28.6730   43.1080 H   0  0  0  0  0  0  0  0  0  0  0  0
   37.1650   31.1320   41.1370 O   0  0  0  0  0  0  0  0  0  0  0  0
   37.7980   32.2670   40.6470 C   0  0  0  0  0  0  0  0  0  0  0  0
   39.0000   32.8900   40.6770 N   0  0  0  0  0  0  0  0  0  0  0  0
   38.9080   34.0230   39.9370 C   0  0  0  0  0  0  0  0  0  0  0  0
   39.7530   34.6750   39.8230 H   0  0  0  0  0  0  0  0  0  0  0  0
   37.6560   34.0960   39.4550 N   0  0  0  0  0  0  0  0  0  0  0  0
   37.3660   34.8930   38.8540 H   0  0  0  0  0  0  0  0  0  0  0  0
   36.9880   33.0420   39.8800 N   0  0  0  0  0  0  0  0  0  0  0  0
  1  6  1  6  0  0  0
  1 21  1  0  0  0  0
  2  7  1  6  0  0  0
  2  1  1  0  0  0  0
  2 15  1  0  0  0  0
  3  2  1  0  0  0  0
  4  3  1  0  0  0  0
  4  5  1  0  0  0  0
  5 10  1  6  0  0  0
  5 23  1  0  0  0  0
  5  1  1  0  0  0  0
  8  4  1  0  0  0  0
  9  4  1  0  0  0  0
 11 12  1  0  0  0  0
 12 13  2  0  0  0  0
 12 17  1  0  0  0  0
 13 18  1  0  0  0  0
 14 13  1  0  0  0  0
 15 14  2  0  0  0  0
 16 15  1  0  0  0  0
 16 11  2  0  0  0  0
 19 11  1  0  0  0  0
 19 20  1  0  0  0  0
 21 22  1  0  0  0  0
 24 25  1  0  0  0  0
 24 23  1  0  0  0  0
 26 25  2  0  0  0  0
 27 26  1  0  0  0  0
 28 30  1  0  0  0  0
 28 26  1  0  0  0  0
 29 28  1  0  0  0  0
 30 24  2  0  0  0  0
M  END
>  <minimizedAffinity>
-5.04277039

$$$$

 OpenBabel03242519453D

 30 32  0  0  1  0  0  0  0  0999 V2000
   37.7290   28.6220   42.2760 C   0  0  2  0  0  0  0  0  0  0  0  0
   36.9500   27.5210   41.6420 C   0  0  1  0  0  0  0  0  0  0  0  0
   36.4390   28.1190   40.4240 O   0  0  0  0  0  0  0  0  0  0  0  0
   35.8070   29.2370   41.0520 C   0  0  0  0  0  0  0  0  0  0  0  0
   37.0100   29.8710   41.7230 C   0  0  2  0  0  0  0  0  0  0  0  0
   37.6850   28.6090   43.3800 H   0  0  0  0  0  0  0  0  0  0  0  0
   36.0380   27.2640   42.2270 H   0  0  0  0  0  0  0  0  0  0  0  0
   35.3490   29.9030   40.3010 H   0  0  0  0  0  0  0  0  0  0  0  0
   35.1220   28.8280   41.7980 H   0  0  0  0  0  0  0  0  0  0  0  0
   36.7330   30.5260   42.5630 H   0  0  0  0  0  0  0  0  0  0  0  0
   38.8890   24.4630   42.1900 C   0  0  0  0  0  0  0  0  0  0  0  0
   39.2020   24.0360   40.8930 C   0  0  0  0  0  0  0  0  0  0  0  0
   38.7460   24.8190   39.7870 C   0  0  0  0  0  0  0  0  0  0  0  0
   38.0240   25.9480   40.0490 N   0  0  0  0  0  0  0  0  0  0  0  0
   37.7420   26.3270   41.3210 C   0  0  0  0  0  0  0  0  0  0  0  0
   38.1640   25.6020   42.3780 N   0  0  0  0  0  0  0  0  0  0  0  0
   39.7780   23.1310   40.7450 H   0  0  0  0  0  0  0  0  0  0  0  0
   38.9810   24.5010   38.7860 H   0  0  0  0  0  0  0  0  0  0  0  0
   39.3060   23.7410   43.3030 O   0  0  0  0  0  0  0  0  0  0  0  0
   39.9210   24.1240   44.0060 H   0  0  0  0  0  0  0  0  0  0  0  0
   39.0700   28.6090   41.8100 O   0  0  0  0  0  0  0  0  0  0  0  0
   39.6820   28.4410   42.5520 H   0  0  0  0  0  0  0  0  0  0  0  0
   37.7760   30.4530   40.7270 O   0  0  0  0  0  0  0  0  0  0  0  0
   38.0250   31.8150   40.6120 C   0  0  0  0  0  0  0  0  0  0  0  0
   38.9710   32.7360   40.9140 N   0  0  0  0  0  0  0  0  0  0  0  0
   38.5330   33.9470   40.4890 C   0  0  0  0  0  0  0  0  0  0  0  0
   39.1320   34.8280   40.6280 H   0  0  0  0  0  0  0  0  0  0  0  0
   37.3250   33.7720   39.9290 N   0  0  0  0  0  0  0  0  0  0  0  0
   36.8030   34.5790   39.5330 H   0  0  0  0  0  0  0  0  0  0  0  0
   37.0180   32.4930   40.0020 N   0  0  0  0  0  0  0  0  0  0  0  0
  1  6  1  1  0  0  0
  2  7  1  1  0  0  0
  2  1  1  0  0  0  0
  3  4  1  0  0  0  0
  3  2  1  0  0  0  0
  4  5  1  0  0  0  0
  4  9  1  0  0  0  0
  5  1  1  0  0  0  0
  5 10  1  1  0  0  0
  8  4  1  0  0  0  0
 11 16  1  0  0  0  0
 11 19  1  0  0  0  0
 12 11  2  0  0  0  0
 13 14  2  0  0  0  0
 13 12  1  0  0  0  0
 14 15  1  0  0  0  0
 15  2  1  0  0  0  0
 15 16  2  0  0  0  0
 17 12  1  0  0  0  0
 18 13  1  0  0  0  0
 19 20  1  0  0  0  0
 21  1  1  0  0  0  0
 21 22  1  0  0  0  0
 23  5  1  0  0  0  0
 24 23  1  0  0  0  0
 24 25  1  0  0  0  0
 26 27  1  0  0  0  0
 26 25  2  0  0  0  0
 28 30  1  0  0  0  0
 28 26  1  0  0  0  0
 29 28  1  0  0  0  0
 30 24  2  0  0  0  0
M  END
>  <minimizedAffinity>
-5.02998352

$$$$

 OpenBabel03242519453D

 30 32  0  0  1  0  0  0  0  0999 V2000
   36.7150   28.7340   40.5370 C   0  0  2  0  0  0  0  0  0  0  0  0
   36.8370   29.8570   41.5100 C   0  0  1  0  0  0  0  0  0  0  0  0
   37.7000   29.3210   42.5440 O   0  0  0  0  0  0  0  0  0  0  0  0
   36.9170   28.1580   42.8170 C   0  0  0  0  0  0  0  0  0  0  0  0
   36.9350   27.5070   41.4460 C   0  0  2  0  0  0  0  0  0  0  0  0
   35.7230   28.6820   40.0520 H   0  0  0  0  0  0  0  0  0  0  0  0
   35.8760   30.0620   42.0330 H   0  0  0  0  0  0  0  0  0  0  0  0
   37.3990   27.5280   43.5830 H   0  0  0  0  0  0  0  0  0  0  0  0
   35.9120   28.5100   43.0610 H   0  0  0  0  0  0  0  0  0  0  0  0
   36.1050   26.7990   41.3000 H   0  0  0  0  0  0  0  0  0  0  0  0
   39.3050   32.4930   40.9070 C   0  0  0  0  0  0  0  0  0  0  0  0
   38.6770   33.3220   39.9670 C   0  0  0  0  0  0  0  0  0  0  0  0
   37.3620   32.9790   39.5260 C   0  0  0  0  0  0  0  0  0  0  0  0
   36.7790   31.8570   40.0410 N   0  0  0  0  0  0  0  0  0  0  0  0
   37.4220   31.0810   40.9500 C   0  0  0  0  0  0  0  0  0  0  0  0
   38.6640   31.3880   41.3800 N   0  0  0  0  0  0  0  0  0  0  0  0
   39.1880   34.2000   39.5930 H   0  0  0  0  0  0  0  0  0  0  0  0
   36.8690   33.6080   38.8050 H   0  0  0  0  0  0  0  0  0  0  0  0
   40.5850   32.7780   41.3720 O   0  0  0  0  0  0  0  0  0  0  0  0
   40.7860   32.9660   42.3430 H   0  0  0  0  0  0  0  0  0  0  0  0
   37.7580   28.7990   39.5770 O   0  0  0  0  0  0  0  0  0  0  0  0
   37.3860   28.9340   38.6840 H   0  0  0  0  0  0  0  0  0  0  0  0
   38.2080   26.9980   41.2510 O   0  0  0  0  0  0  0  0  0  0  0  0
   38.7560   25.9390   41.9640 C   0  0  0  0  0  0  0  0  0  0  0  0
   39.8010   25.6540   42.7760 N   0  0  0  0  0  0  0  0  0  0  0  0
   39.7180   24.3470   43.1300 C   0  0  0  0  0  0  0  0  0  0  0  0
   40.4520   23.9040   43.7780 H   0  0  0  0  0  0  0  0  0  0  0  0
   38.6270   23.8320   42.5380 N   0  0  0  0  0  0  0  0  0  0  0  0
   38.3710   22.8340   42.6770 H   0  0  0  0  0  0  0  0  0  0  0  0
   38.0480   24.7860   41.8380 N   0  0  0  0  0  0  0  0  0  0  0  0
  1  6  1  6  0  0  0
  1  5  1  0  0  0  0
  1  2  1  0  0  0  0
  2  7  1  1  0  0  0
  2  3  1  0  0  0  0
  3  4  1  0  0  0  0
  4  9  1  0  0  0  0
  4  8  1  0  0  0  0
  5 10  1  6  0  0  0
  5  4  1  0  0  0  0
 11 19  1  0  0  0  0
 11 16  1  0  0  0  0
 12 11  2  0  0  0  0
 13 12  1  0  0  0  0
 13 14  2  0  0  0  0
 14 15  1  0  0  0  0
 15 16  2  0  0  0  0
 15  2  1  0  0  0  0
 17 12  1  0  0  0  0
 18 13  1  0  0  0  0
 19 20  1  0  0  0  0
 21  1  1  0  0  0  0
 22 21  1  0  0  0  0
 23  5  1  0  0  0  0
 23 24  1  0  0  0  0
 24 25  1  0  0  0  0
 25 26  2  0  0  0  0
 26 27  1  0  0  0  0
 28 29  1  0  0  0  0
 28 26  1  0  0  0  0
 30 24  2  0  0  0  0
 30 28  1  0  0  0  0
M  END
>  <minimizedAffinity>
-5.00267172

$$$$

 OpenBabel03242519453D

 30 32  0  0  1  0  0  0  0  0999 V2000
   40.6550   31.2100   39.3700 C   0  0  2  0  0  0  0  0  0  0  0  0
   39.4730   31.9120   38.7940 C   0  0  1  0  0  0  0  0  0  0  0  0
   39.8160   32.0680   37.3940 O   0  0  0  0  0  0  0  0  0  0  0  0
   41.0650   32.7280   37.6090 C   0  0  0  0  0  0  0  0  0  0  0  0
   41.7830   31.6650   38.4200 C   0  0  2  0  0  0  0  0  0  0  0  0
   40.8810   31.5140   40.4090 H   0  0  0  0  0  0  0  0  0  0  0  0
   39.3820   32.9560   39.1720 H   0  0  0  0  0  0  0  0  0  0  0  0
   41.5720   32.9350   36.6520 H   0  0  0  0  0  0  0  0  0  0  0  0
   40.8510   33.6030   38.2280 H   0  0  0  0  0  0  0  0  0  0  0  0
   42.6120   32.0730   39.0170 H   0  0  0  0  0  0  0  0  0  0  0  0
   36.3270   30.7700   40.2770 C   0  0  0  0  0  0  0  0  0  0  0  0
   35.8010   29.9060   39.3070 C   0  0  0  0  0  0  0  0  0  0  0  0
   36.5450   29.6950   38.1050 C   0  0  0  0  0  0  0  0  0  0  0  0
   37.7350   30.3480   37.9590 N   0  0  0  0  0  0  0  0  0  0  0  0
   38.2100   31.1770   38.9240 C   0  0  0  0  0  0  0  0  0  0  0  0
   37.5220   31.3890   40.0650 N   0  0  0  0  0  0  0  0  0  0  0  0
   34.8510   29.4160   39.4770 H   0  0  0  0  0  0  0  0  0  0  0  0
   36.1520   29.0340   37.3530 H   0  0  0  0  0  0  0  0  0  0  0  0
   35.6450   31.0130   41.4650 O   0  0  0  0  0  0  0  0  0  0  0  0
   36.0260   30.7860   42.3720 H   0  0  0  0  0  0  0  0  0  0  0  0
   40.4920   29.8040   39.2650 O   0  0  0  0  0  0  0  0  0  0  0  0
   40.4640   29.4010   40.1540 H   0  0  0  0  0  0  0  0  0  0  0  0
   42.1090   30.6380   37.5500 O   0  0  0  0  0  0  0  0  0  0  0  0
   43.2080   30.6370   36.7010 C   0  0  0  0  0  0  0  0  0  0  0  0
   44.4490   31.1700   36.5940 N   0  0  0  0  0  0  0  0  0  0  0  0
   45.0060   30.7170   35.4440 C   0  0  0  0  0  0  0  0  0  0  0  0
   45.9970   31.0170   35.1570 H   0  0  0  0  0  0  0  0  0  0  0  0
   44.1130   29.9090   34.8470 N   0  0  0  0  0  0  0  0  0  0  0  0
   44.3380   29.4490   33.9420 H   0  0  0  0  0  0  0  0  0  0  0  0
   43.0340   29.8600   35.6010 N   0  0  0  0  0  0  0  0  0  0  0  0
  1  6  1  1  0  0  0
  2 15  1  0  0  0  0
  2  7  1  1  0  0  0
  2  1  1  0  0  0  0
  3  4  1  0  0  0  0
  3  2  1  0  0  0  0
  4  9  1  0  0  0  0
  4  5  1  0  0  0  0
  5 10  1  1  0  0  0
  5  1  1  0  0  0  0
  8  4  1  0  0  0  0
 11 19  1  0  0  0  0
 12 17  1  0  0  0  0
 12 11  2  0  0  0  0
 13 12  1  0  0  0  0
 14 13  2  0  0  0  0
 14 15  1  0  0  0  0
 15 16  2  0  0  0  0
 16 11  1  0  0  0  0
 18 13  1  0  0  0  0
 19 20  1  0  0  0  0
 21  1  1  0  0  0  0
 21 22  1  0  0  0  0
 23  5  1  0  0  0  0
 24 23  1  0  0  0  0
 25 24  1  0  0  0  0
 26 25  2  0  0  0  0
 27 26  1  0  0  0  0
 28 26  1  0  0  0  0
 28 30  1  0  0  0  0
 29 28  1  0  0  0  0
 30 24  2  0  0  0  0
M  END
>  <minimizedAffinity>
-4.82605743

$$$$

 OpenBabel03242519453D

 30 32  0  0  1  0  0  0  0  0999 V2000
   40.2750   29.1620   38.8240 C   0  0  2  0  0  0  0  0  0  0  0  0
   39.8720   29.0920   40.2580 C   0  0  1  0  0  0  0  0  0  0  0  0
   40.2790   30.3770   40.7920 O   0  0  0  0  0  0  0  0  0  0  0  0
   41.6440   30.2950   40.3780 C   0  0  0  0  0  0  0  0  0  0  0  0
   41.4520   30.1580   38.8780 C   0  0  2  0  0  0  0  0  0  0  0  0
   40.6100   28.1910   38.4160 H   0  0  0  0  0  0  0  0  0  0  0  0
   40.4820   28.3530   40.8260 H   0  0  0  0  0  0  0  0  0  0  0  0
   42.1930   31.2130   40.6450 H   0  0  0  0  0  0  0  0  0  0  0  0
   42.0420   29.3690   40.8000 H   0  0  0  0  0  0  0  0  0  0  0  0
   42.3230   29.7100   38.3770 H   0  0  0  0  0  0  0  0  0  0  0  0
   36.3850   29.9150   41.0110 C   0  0  0  0  0  0  0  0  0  0  0  0
   35.7210   28.6890   40.8730 C   0  0  0  0  0  0  0  0  0  0  0  0
   36.4860   27.5340   40.5190 C   0  0  0  0  0  0  0  0  0  0  0  0
   37.8300   27.6830   40.3310 N   0  0  0  0  0  0  0  0  0  0  0  0
   38.4350   28.8890   40.4740 C   0  0  0  0  0  0  0  0  0  0  0  0
   37.7300   29.9900   40.8070 N   0  0  0  0  0  0  0  0  0  0  0  0
   34.6520   28.6310   41.0340 H   0  0  0  0  0  0  0  0  0  0  0  0
   35.9870   26.5860   40.4120 H   0  0  0  0  0  0  0  0  0  0  0  0
   35.6910   31.0710   41.3520 O   0  0  0  0  0  0  0  0  0  0  0  0
   35.8800   31.5950   42.1940 H   0  0  0  0  0  0  0  0  0  0  0  0
   39.2260   29.7180   38.0460 O   0  0  0  0  0  0  0  0  0  0  0  0
   38.9080   29.0640   37.3930 H   0  0  0  0  0  0  0  0  0  0  0  0
   41.0460   31.3930   38.4030 O   0  0  0  0  0  0  0  0  0  0  0  0
   41.8920   32.4700   38.1700 C   0  0  0  0  0  0  0  0  0  0  0  0
   42.9670   33.0930   38.7110 N   0  0  0  0  0  0  0  0  0  0  0  0
   43.2940   34.1400   37.9130 C   0  0  0  0  0  0  0  0  0  0  0  0
   44.1240   34.7770   38.1550 H   0  0  0  0  0  0  0  0  0  0  0  0
   42.4260   34.1610   36.8880 N   0  0  0  0  0  0  0  0  0  0  0  0
   42.4960   34.8890   36.1500 H   0  0  0  0  0  0  0  0  0  0  0  0
   41.5840   33.1590   37.0410 N   0  0  0  0  0  0  0  0  0  0  0  0
  1  6  1  6  0  0  0
  1  5  1  0  0  0  0
  1  2  1  0  0  0  0
  2 15  1  0  0  0  0
  2  3  1  0  0  0  0
  2  7  1  1  0  0  0
  4  8  1  0  0  0  0
  4  3  1  0  0  0  0
  4  9  1  0  0  0  0
  5 10  1  6  0  0  0
  5  4  1  0  0  0  0
 11 19  1  0  0  0  0
 12 11  1  0  0  0  0
 12 17  1  0  0  0  0
 13 12  2  0  0  0  0
 14 15  2  0  0  0  0
 14 13  1  0  0  0  0
 15 16  1  0  0  0  0
 16 11  2  0  0  0  0
 18 13  1  0  0  0  0
 19 20  1  0  0  0  0
 21  1  1  0  0  0  0
 22 21  1  0  0  0  0
 23  5  1  0  0  0  0
 24 23  1  0  0  0  0
 24 25  1  0  0  0  0
 26 27  1  0  0  0  0
 26 25  2  0  0  0  0
 28 30  1  0  0  0  0
 28 26  1  0  0  0  0
 29 28  1  0  0  0  0
 30 24  2  0  0  0  0
M  END
>  <minimizedAffinity>
-4.75513458

$$$$

 OpenBabel03242519453D

 30 32  0  0  1  0  0  0  0  0999 V2000
   39.3100   29.8930   42.4430 C   0  0  2  0  0  0  0  0  0  0  0  0
   39.8580   29.9940   41.0600 C   0  0  1  0  0  0  0  0  0  0  0  0
   40.0510   28.6120   40.6670 O   0  0  0  0  0  0  0  0  0  0  0  0
   40.8620   28.2420   41.7840 C   0  0  0  0  0  0  0  0  0  0  0  0
   39.8990   28.5480   42.9160 C   0  0  2  0  0  0  0  0  0  0  0  0
   39.6420   30.7130   43.1060 H   0  0  0  0  0  0  0  0  0  0  0  0
   40.8820   30.4290   41.0490 H   0  0  0  0  0  0  0  0  0  0  0  0
   41.1280   27.1730   41.7410 H   0  0  0  0  0  0  0  0  0  0  0  0
   41.7050   28.9370   41.7990 H   0  0  0  0  0  0  0  0  0  0  0  0
   40.4080   28.6980   43.8790 H   0  0  0  0  0  0  0  0  0  0  0  0
   37.6390   32.5680   39.6970 C   0  0  0  0  0  0  0  0  0  0  0  0
   37.3230   32.0850   38.4190 C   0  0  0  0  0  0  0  0  0  0  0  0
   37.8760   30.8340   38.0060 C   0  0  0  0  0  0  0  0  0  0  0  0
   38.6890   30.1670   38.8770 N   0  0  0  0  0  0  0  0  0  0  0  0
   38.9710   30.6700   40.1060 C   0  0  0  0  0  0  0  0  0  0  0  0
   38.4580   31.8490   40.5150 N   0  0  0  0  0  0  0  0  0  0  0  0
   36.6720   32.6570   37.7700 H   0  0  0  0  0  0  0  0  0  0  0  0
   37.6400   30.4520   37.0280 H   0  0  0  0  0  0  0  0  0  0  0  0
   37.1300   33.7790   40.1510 O   0  0  0  0  0  0  0  0  0  0  0  0
   36.5330   33.8540   40.9630 H   0  0  0  0  0  0  0  0  0  0  0  0
   37.8940   29.7980   42.4060 O   0  0  0  0  0  0  0  0  0  0  0  0
   37.4930   30.5680   42.8540 H   0  0  0  0  0  0  0  0  0  0  0  0
   38.9180   27.5710   42.8940 O   0  0  0  0  0  0  0  0  0  0  0  0
   39.1570   26.2050   42.9880 C   0  0  0  0  0  0  0  0  0  0  0  0
   39.9830   25.3270   43.6040 N   0  0  0  0  0  0  0  0  0  0  0  0
   39.6330   24.0740   43.2200 C   0  0  0  0  0  0  0  0  0  0  0  0
   40.1610   23.2170   43.5920 H   0  0  0  0  0  0  0  0  0  0  0  0
   38.5960   24.1820   42.3710 N   0  0  0  0  0  0  0  0  0  0  0  0
   38.1660   23.3340   41.9510 H   0  0  0  0  0  0  0  0  0  0  0  0
   38.3090   25.4610   42.2310 N   0  0  0  0  0  0  0  0  0  0  0  0
  1  5  1  0  0  0  0
  1  6  1  1  0  0  0
  2  7  1  1  0  0  0
  2  1  1  0  0  0  0
  3  2  1  0  0  0  0
  3  4  1  0  0  0  0
  4  9  1  0  0  0  0
  4  5  1  0  0  0  0
  5 10  1  1  0  0  0
  8  4  1  0  0  0  0
 11 19  1  0  0  0  0
 11 16  1  0  0  0  0
 12 11  2  0  0  0  0
 13 12  1  0  0  0  0
 13 14  2  0  0  0  0
 14 15  1  0  0  0  0
 15 16  2  0  0  0  0
 15  2  1  0  0  0  0
 17 12  1  0  0  0  0
 18 13  1  0  0  0  0
 19 20  1  0  0  0  0
 21  1  1  0  0  0  0
 21 22  1  0  0  0  0
 23  5  1  0  0  0  0
 23 24  1  0  0  0  0
 24 25  1  0  0  0  0
 26 27  1  0  0  0  0
 26 25  2  0  0  0  0
 28 26  1  0  0  0  0
 29 28  1  0  0  0  0
 30 28  1  0  0  0  0
 30 24  2  0  0  0  0
M  END
>  <minimizedAffinity>
-4.7059207

$$$$
