
     RDKit          3D

 23 24  0  0  0  0  0  0  0  0999 V2000
   47.7436   34.8451   42.0967 C   0  0  0  0  0  0  0  0  0  0  0  0
   48.3130   33.8092   42.8262 C   0  0  0  0  0  0  0  0  0  0  0  0
   47.6038   33.2934   43.9055 C   0  0  0  0  0  0  0  0  0  0  0  0
   46.3708   33.8251   44.2097 N   0  0  0  0  0  0  0  0  0  0  0  0
   45.8594   34.8297   43.4728 C   0  0  0  0  0  0  0  0  0  0  0  0
   46.5268   35.3448   42.4244 N   0  0  0  0  0  0  0  0  0  0  0  0
   49.9083   33.1352   42.4173 S   0  0  0  0  0  0  0  0  0  0  0  0
   48.5477   35.3449   40.9663 C   0  0  0  0  0  0  0  0  0  0  0  0
   48.1916   34.7016   39.6501 C   0  0  0  0  0  0  0  0  0  0  0  0
   48.0110   32.4877   44.4987 H   0  0  0  0  0  0  0  0  0  0  0  0
   44.9066   35.2560   43.6910 H   0  0  0  0  0  0  0  0  0  0  0  0
   50.6510   33.0967   43.6291 H   0  0  0  0  0  0  0  0  0  0  0  0
   48.3194   36.4269   40.8759 H   0  0  0  0  0  0  0  0  0  0  0  0
   49.6373   35.2916   41.1576 H   0  0  0  0  0  0  0  0  0  0  0  0
   48.2931   33.5905   39.7561 H   0  0  0  0  0  0  0  0  0  0  0  0
   47.0991   34.8843   39.4757 H   0  0  0  0  0  0  0  0  0  0  0  0
   49.0209   35.2349   38.5612 C   0  0  0  0  0  0  0  0  0  0  0  0
   50.3474   35.4406   38.5745 N   0  0  0  0  0  0  0  0  0  0  0  0
   50.7131   35.9392   37.3802 C   0  0  0  0  0  0  0  0  0  0  0  0
   51.5905   36.2754   36.8462 H   0  0  0  0  0  0  0  0  0  0  0  0
   49.5918   36.0428   36.6166 N   0  0  0  0  0  0  0  0  0  0  0  0
   49.3284   36.3615   35.6394 H   0  0  0  0  0  0  0  0  0  0  0  0
   48.5533   35.6119   37.3378 N   0  0  0  0  0  0  0  0  0  0  0  0
  1  6  1  0
  1  2  2  0
  2  3  1  0
  3  4  2  0
  5  4  1  0
  6  5  2  0
  7  2  1  0
  8  1  1  0
  9  8  1  0
  3 10  1  0
  5 11  1  0
  7 12  1  0
  8 13  1  0
  8 14  1  0
  9 15  1  0
  9 16  1  0
 17 18  1  0
 18 19  2  0
 19 20  1  0
 19 21  1  0
 21 22  1  0
 21 23  1  0
 23 17  2  0
  9 17  1  0
M  ISO  8  10  14  11  14  12  11  13   8  14   8  15   8  16   8  20  14
M  ISO  1  22   9
M  END
>  <DihAtoms>  (1) 
7,8,16,17

>  <DihDeg>  (1) 
-179.99990971214308

$$$$
