
 OpenBabel03252503243D

 45 50  0  0  1  0  0  0  0  0999 V2000
   46.7720   33.3700   43.2090 C   0  0  1  0  0  0  0  0  0  0  0  0
   47.0400   34.7430   42.7970 C   0  0  0  0  0  0  0  0  0  0  0  0
   48.1700   33.7840   42.7830 C   0  0  2  0  0  0  0  0  0  0  0  0
   46.2620   32.6580   42.5340 H   0  0  0  0  0  0  0  0  0  0  0  0
   47.1240   35.5170   43.6270 H   0  0  0  0  0  0  0  0  0  0  0  0
   46.4930   35.1220   41.9500 H   0  0  0  0  0  0  0  0  0  0  0  0
   48.9550   33.7240   43.5430 H   0  0  0  0  0  0  0  0  0  0  0  0
   48.5860   33.2470   41.4600 C   0  0  0  0  0  0  0  0  0  0  0  0
   49.4010   32.1480   41.2820 C   0  0  0  0  0  0  0  0  0  0  0  0
   49.7460   31.7100   40.0130 C   0  0  0  0  0  0  0  0  0  0  0  0
   49.2820   32.3640   38.9030 C   0  0  0  0  0  0  0  0  0  0  0  0
   49.6020   31.9560   37.6560 N   0  0  0  0  0  0  0  0  0  0  0  0
   49.1300   32.6230   36.5660 C   0  0  0  0  0  0  0  0  0  0  0  0
   48.2910   33.7610   36.6460 C   0  0  0  0  0  0  0  0  0  0  0  0
   47.9620   34.1770   37.9230 C   0  0  0  0  0  0  0  0  0  0  0  0
   48.4520   33.4860   39.0230 C   0  0  0  0  0  0  0  0  0  0  0  0
   48.1340   33.8870   40.3040 C   0  0  0  0  0  0  0  0  0  0  0  0
   49.7500   31.6550   42.1890 H   0  0  0  0  0  0  0  0  0  0  0  0
   50.3910   30.8370   39.9290 H   0  0  0  0  0  0  0  0  0  0  0  0
   49.4060   32.2700   35.5830 H   0  0  0  0  0  0  0  0  0  0  0  0
   47.9620   34.2290   35.7300 H   0  0  0  0  0  0  0  0  0  0  0  0
   47.3270   35.0370   38.0310 H   0  0  0  0  0  0  0  0  0  0  0  0
   47.4980   34.7610   40.3170 H   0  0  0  0  0  0  0  0  0  0  0  0
   45.5590   33.7000   45.3890 C   0  0  0  0  0  0  0  0  0  0  0  0
   46.5920   33.0290   44.6510 C   0  0  0  0  0  0  0  0  0  0  0  0
   47.3650   32.1100   45.3140 C   0  0  0  0  0  0  0  0  0  0  0  0
   47.1030   31.8930   46.6320 N   0  0  0  0  0  0  0  0  0  0  0  0
   46.1220   32.5360   47.3120 C   0  0  0  0  0  0  0  0  0  0  0  0
   45.3510   33.4400   46.6900 N   0  0  0  0  0  0  0  0  0  0  0  0
   44.9410   34.4330   44.8650 H   0  0  0  0  0  0  0  0  0  0  0  0
   48.1400   31.5960   44.7900 H   0  0  0  0  0  0  0  0  0  0  0  0
   45.9320   32.1990   48.7450 C   0  0  2  0  0  0  0  0  0  0  0  0
   46.6780   31.1370   49.3940 C   0  0  0  0  0  0  0  0  0  0  0  0
   45.2580   30.8180   48.9860 C   0  0  2  0  0  0  0  0  0  0  0  0
   45.3840   32.9910   49.3160 H   0  0  0  0  0  0  0  0  0  0  0  0
   46.8130   31.2370   50.5000 H   0  0  0  0  0  0  0  0  0  0  0  0
   47.5350   30.6570   48.9040 H   0  0  0  0  0  0  0  0  0  0  0  0
   44.4840   30.7700   49.7890 H   0  0  0  0  0  0  0  0  0  0  0  0
   45.1660   29.8830   47.8370 C   0  0  0  0  0  0  0  0  0  0  0  0
   44.3370   29.7130   46.7930 N   0  0  0  0  0  0  0  0  0  0  0  0
   44.7000   28.6900   46.0120 C   0  0  0  0  0  0  0  0  0  0  0  0
   44.1100   28.4510   45.1360 H   0  0  0  0  0  0  0  0  0  0  0  0
   45.8060   28.1920   46.5880 N   0  0  0  0  0  0  0  0  0  0  0  0
   46.3010   27.3650   46.1670 H   0  0  0  0  0  0  0  0  0  0  0  0
   46.0840   28.8940   47.6670 N   0  0  0  0  0  0  0  0  0  0  0  0
  1  4  1  6  0  0  0
  1 25  1  0  0  0  0
  2  1  1  0  0  0  0
  2  5  1  0  0  0  0
  3  2  1  0  0  0  0
  3  1  1  0  0  0  0
  3  7  1  1  0  0  0
  6  2  1  0  0  0  0
  8  3  1  0  0  0  0
  9  8  1  0  0  0  0
  9 18  1  0  0  0  0
 10  9  2  0  0  0  0
 11 16  1  0  0  0  0
 11 10  1  0  0  0  0
 12 11  2  0  0  0  0
 13 14  2  0  0  0  0
 13 12  1  0  0  0  0
 14 15  1  0  0  0  0
 15 22  1  0  0  0  0
 15 16  2  0  0  0  0
 16 17  1  0  0  0  0
 17 23  1  0  0  0  0
 17  8  2  0  0  0  0
 19 10  1  0  0  0  0
 20 13  1  0  0  0  0
 21 14  1  0  0  0  0
 24 29  1  0  0  0  0
 25 26  1  0  0  0  0
 25 24  2  0  0  0  0
 26 27  2  0  0  0  0
 27 28  1  0  0  0  0
 28 32  1  0  0  0  0
 29 28  2  0  0  0  0
 30 24  1  0  0  0  0
 31 26  1  0  0  0  0
 32 34  1  0  0  0  0
 32 35  1  1  0  0  0
 32 33  1  0  0  0  0
 33 36  1  0  0  0  0
 34 33  1  0  0  0  0
 34 38  1  1  0  0  0
 37 33  1  0  0  0  0
 39 34  1  0  0  0  0
 40 39  1  0  0  0  0
 41 43  1  0  0  0  0
 41 40  2  0  0  0  0
 42 41  1  0  0  0  0
 43 45  1  0  0  0  0
 44 43  1  0  0  0  0
 45 39  2  0  0  0  0
M  END
>  <minimizedAffinity>
-5.88042116

>  <minimizedRMSD>
0.578794539

$$$$
