
 OpenBabel03252503303D

 35 37  0  0  1  0  0  0  0  0999 V2000
   39.4080   27.3400   41.0490 C   0  0  0  0  0  0  0  0  0  0  0  0
   38.3030   26.4530   40.9280 C   0  0  0  0  0  0  0  0  0  0  0  0
   38.3140   25.3130   41.7310 C   0  0  0  0  0  0  0  0  0  0  0  0
   39.3680   25.1400   42.5610 N   0  0  0  0  0  0  0  0  0  0  0  0
   40.3980   26.0000   42.6520 C   0  0  0  0  0  0  0  0  0  0  0  0
   40.4100   27.1100   41.8840 N   0  0  0  0  0  0  0  0  0  0  0  0
   38.5900   29.5190   40.7670 C   0  0  0  0  0  0  0  0  0  0  0  0
   37.8790   29.2490   41.7590 O   0  0  0  0  0  0  0  0  0  0  0  0
   39.4760   28.5270   40.2680 N   0  0  0  0  0  0  0  0  0  0  0  0
   38.4460   30.8280   40.2110 N   0  0  0  0  0  0  0  0  0  0  0  0
   37.3350   31.6790   40.5730 C   0  0  0  0  0  0  0  0  0  0  0  0
   37.1000   32.4370   39.2750 C   0  0  0  0  0  0  0  0  0  0  0  0
   38.2270   32.0930   38.3360 C   0  0  0  0  0  0  0  0  0  0  0  0
   39.2880   31.5370   39.2580 C   0  0  1  0  0  0  0  0  0  0  0  0
   37.5060   26.7090   40.2130 H   0  0  0  0  0  0  0  0  0  0  0  0
   41.2110   25.7870   43.3470 H   0  0  0  0  0  0  0  0  0  0  0  0
   40.0470   28.7610   39.4340 H   0  0  0  0  0  0  0  0  0  0  0  0
   36.4330   31.1200   40.8820 H   0  0  0  0  0  0  0  0  0  0  0  0
   37.5790   32.4230   41.3540 H   0  0  0  0  0  0  0  0  0  0  0  0
   36.1670   32.0500   38.8450 H   0  0  0  0  0  0  0  0  0  0  0  0
   36.9720   33.5240   39.4370 H   0  0  0  0  0  0  0  0  0  0  0  0
   38.5230   32.9960   37.7930 H   0  0  0  0  0  0  0  0  0  0  0  0
   37.9260   31.3070   37.6130 H   0  0  0  0  0  0  0  0  0  0  0  0
   39.8430   30.7770   38.7050 H   0  0  0  0  0  0  0  0  0  0  0  0
   40.1440   32.5570   39.8590 C   0  0  0  0  0  0  0  0  0  0  0  0
   40.3740   33.8020   39.4450 N   0  0  0  0  0  0  0  0  0  0  0  0
   41.2420   34.3490   40.3450 C   0  0  0  0  0  0  0  0  0  0  0  0
   41.7250   35.3150   40.4530 H   0  0  0  0  0  0  0  0  0  0  0  0
   41.5340   33.4530   41.2920 N   0  0  0  0  0  0  0  0  0  0  0  0
   42.1390   33.4660   42.1410 H   0  0  0  0  0  0  0  0  0  0  0  0
   40.8600   32.3440   41.0020 N   0  0  0  0  0  0  0  0  0  0  0  0
   37.1710   24.4300   41.5790 C   0  0  0  0  0  0  0  0  0  0  0  0
   36.4220   24.8200   40.4750 F   0  0  0  0  0  0  0  0  0  0  0  0
   36.3290   24.6530   42.6730 F   0  0  0  0  0  0  0  0  0  0  0  0
   37.5180   23.1160   41.4090 F   0  0  0  0  0  0  0  0  0  0  0  0
  1  6  1  0  0  0  0
  2  1  2  0  0  0  0
  2  3  1  0  0  0  0
  3  4  2  0  0  0  0
  4  5  1  0  0  0  0
  5 16  1  0  0  0  0
  6  5  2  0  0  0  0
  7  8  2  0  0  0  0
  9  7  1  0  0  0  0
  9  1  1  0  0  0  0
 10 11  1  0  0  0  0
 10  7  1  0  0  0  0
 11 18  1  0  0  0  0
 11 19  1  0  0  0  0
 12 21  1  0  0  0  0
 12 11  1  0  0  0  0
 13 14  1  0  0  0  0
 13 12  1  0  0  0  0
 14 24  1  6  0  0  0
 14 25  1  0  0  0  0
 14 10  1  0  0  0  0
 15  2  1  0  0  0  0
 17  9  1  0  0  0  0
 20 12  1  0  0  0  0
 22 13  1  0  0  0  0
 23 13  1  0  0  0  0
 25 31  2  0  0  0  0
 26 25  1  0  0  0  0
 26 27  2  0  0  0  0
 27 28  1  0  0  0  0
 27 29  1  0  0  0  0
 29 30  1  0  0  0  0
 31 29  1  0  0  0  0
 32  3  1  0  0  0  0
 32 34  1  0  0  0  0
 33 32  1  0  0  0  0
 35 32  1  0  0  0  0
M  END
>  <minimizedAffinity>
-5.71887255

$$$$

 OpenBabel03252503303D

 35 37  0  0  1  0  0  0  0  0999 V2000
   38.0360   29.7960   40.7060 C   0  0  0  0  0  0  0  0  0  0  0  0
   37.9130   28.9420   41.8360 C   0  0  0  0  0  0  0  0  0  0  0  0
   37.0490   27.8540   41.7180 C   0  0  0  0  0  0  0  0  0  0  0  0
   36.3990   27.6940   40.5430 N   0  0  0  0  0  0  0  0  0  0  0  0
   36.5380   28.5210   39.4910 C   0  0  0  0  0  0  0  0  0  0  0  0
   37.3680   29.5810   39.5820 N   0  0  0  0  0  0  0  0  0  0  0  0
   40.2570   30.5400   40.6280 C   0  0  0  0  0  0  0  0  0  0  0  0
   40.5330   29.3240   40.5390 O   0  0  0  0  0  0  0  0  0  0  0  0
   38.8960   30.9290   40.7400 N   0  0  0  0  0  0  0  0  0  0  0  0
   41.3600   31.4500   40.6080 N   0  0  0  0  0  0  0  0  0  0  0  0
   42.7170   30.9880   40.7870 C   0  0  0  0  0  0  0  0  0  0  0  0
   43.3440   32.1660   41.5180 C   0  0  0  0  0  0  0  0  0  0  0  0
   42.3360   33.2860   41.5250 C   0  0  0  0  0  0  0  0  0  0  0  0
   41.3760   32.8940   40.4240 C   0  0  1  0  0  0  0  0  0  0  0  0
   38.4990   29.1830   42.7360 H   0  0  0  0  0  0  0  0  0  0  0  0
   35.9770   28.3210   38.5780 H   0  0  0  0  0  0  0  0  0  0  0  0
   38.6860   31.9410   40.8300 H   0  0  0  0  0  0  0  0  0  0  0  0
   42.7940   30.0590   41.3790 H   0  0  0  0  0  0  0  0  0  0  0  0
   43.2710   30.8530   39.8380 H   0  0  0  0  0  0  0  0  0  0  0  0
   43.5060   31.8470   42.5560 H   0  0  0  0  0  0  0  0  0  0  0  0
   44.3260   32.4520   41.0960 H   0  0  0  0  0  0  0  0  0  0  0  0
   42.8590   34.2330   41.3570 H   0  0  0  0  0  0  0  0  0  0  0  0
   41.7860   33.3310   42.4870 H   0  0  0  0  0  0  0  0  0  0  0  0
   40.3860   33.2570   40.7050 H   0  0  0  0  0  0  0  0  0  0  0  0
   41.7960   33.3230   39.0920 C   0  0  0  0  0  0  0  0  0  0  0  0
   42.6400   34.2970   38.7570 N   0  0  0  0  0  0  0  0  0  0  0  0
   42.6970   34.2990   37.3930 C   0  0  0  0  0  0  0  0  0  0  0  0
   43.2280   34.8860   36.6510 H   0  0  0  0  0  0  0  0  0  0  0  0
   41.9030   33.3410   36.9060 N   0  0  0  0  0  0  0  0  0  0  0  0
   41.6650   33.0150   35.9460 H   0  0  0  0  0  0  0  0  0  0  0  0
   41.3420   32.7320   37.9470 N   0  0  0  0  0  0  0  0  0  0  0  0
   36.9480   27.0060   42.8920 C   0  0  0  0  0  0  0  0  0  0  0  0
   35.8770   27.4170   43.6750 F   0  0  0  0  0  0  0  0  0  0  0  0
   38.0760   27.2550   43.6800 F   0  0  0  0  0  0  0  0  0  0  0  0
   36.7660   25.6810   42.5920 F   0  0  0  0  0  0  0  0  0  0  0  0
  1  9  1  0  0  0  0
  1  2  1  0  0  0  0
  2 15  1  0  0  0  0
  3  2  2  0  0  0  0
  3 32  1  0  0  0  0
  4  3  1  0  0  0  0
  5  6  1  0  0  0  0
  5  4  2  0  0  0  0
  6  1  2  0  0  0  0
  7  9  1  0  0  0  0
  8  7  2  0  0  0  0
  9 17  1  0  0  0  0
 10  7  1  0  0  0  0
 10 11  1  0  0  0  0
 11 18  1  0  0  0  0
 11 12  1  0  0  0  0
 12 13  1  0  0  0  0
 12 20  1  0  0  0  0
 13 23  1  0  0  0  0
 14 10  1  0  0  0  0
 14 24  1  1  0  0  0
 14 13  1  0  0  0  0
 16  5  1  0  0  0  0
 19 11  1  0  0  0  0
 21 12  1  0  0  0  0
 22 13  1  0  0  0  0
 25 14  1  0  0  0  0
 26 25  1  0  0  0  0
 27 26  2  0  0  0  0
 28 27  1  0  0  0  0
 29 27  1  0  0  0  0
 29 31  1  0  0  0  0
 30 29  1  0  0  0  0
 31 25  2  0  0  0  0
 32 33  1  0  0  0  0
 32 34  1  0  0  0  0
 35 32  1  0  0  0  0
M  END
>  <minimizedAffinity>
-5.63980436

$$$$

 OpenBabel03252503303D

 35 37  0  0  1  0  0  0  0  0999 V2000
   39.9970   28.2990   41.9380 C   0  0  0  0  0  0  0  0  0  0  0  0
   38.6800   27.7750   41.8220 C   0  0  0  0  0  0  0  0  0  0  0  0
   38.3240   26.7550   42.7020 C   0  0  0  0  0  0  0  0  0  0  0  0
   39.2530   26.3440   43.5950 N   0  0  0  0  0  0  0  0  0  0  0  0
   40.4920   26.8610   43.6790 C   0  0  0  0  0  0  0  0  0  0  0  0
   40.8590   27.8510   42.8370 N   0  0  0  0  0  0  0  0  0  0  0  0
   39.8830   30.5920   41.4610 C   0  0  0  0  0  0  0  0  0  0  0  0
   39.0960   30.6290   42.4320 O   0  0  0  0  0  0  0  0  0  0  0  0
   40.4420   29.3430   41.0800 N   0  0  0  0  0  0  0  0  0  0  0  0
   40.1560   31.8340   40.8090 N   0  0  0  0  0  0  0  0  0  0  0  0
   39.3440   33.0040   41.0520 C   0  0  0  0  0  0  0  0  0  0  0  0
   39.3850   33.6890   39.6940 C   0  0  0  0  0  0  0  0  0  0  0  0
   40.3810   32.9470   38.8410 C   0  0  0  0  0  0  0  0  0  0  0  0
   41.1990   32.1780   39.8530 C   0  0  1  0  0  0  0  0  0  0  0  0
   38.0180   28.1980   41.0500 H   0  0  0  0  0  0  0  0  0  0  0  0
   41.1830   26.4730   44.4280 H   0  0  0  0  0  0  0  0  0  0  0  0
   41.0810   29.3270   40.2620 H   0  0  0  0  0  0  0  0  0  0  0  0
   38.3070   32.7670   41.3530 H   0  0  0  0  0  0  0  0  0  0  0  0
   39.7790   33.7040   41.7910 H   0  0  0  0  0  0  0  0  0  0  0  0
   38.3910   33.5640   39.2440 H   0  0  0  0  0  0  0  0  0  0  0  0
   39.5860   34.7740   39.7730 H   0  0  0  0  0  0  0  0  0  0  0  0
   40.9510   33.6730   38.2520 H   0  0  0  0  0  0  0  0  0  0  0  0
   39.8780   32.2300   38.1600 H   0  0  0  0  0  0  0  0  0  0  0  0
   41.5140   31.2450   39.3830 H   0  0  0  0  0  0  0  0  0  0  0  0
   42.3060   32.9420   40.4250 C   0  0  0  0  0  0  0  0  0  0  0  0
   42.7620   32.9390   41.6760 N   0  0  0  0  0  0  0  0  0  0  0  0
   43.8060   33.8190   41.7030 C   0  0  0  0  0  0  0  0  0  0  0  0
   44.4940   34.1650   42.4660 H   0  0  0  0  0  0  0  0  0  0  0  0
   43.9820   34.3480   40.4890 N   0  0  0  0  0  0  0  0  0  0  0  0
   44.6500   35.0400   40.0900 H   0  0  0  0  0  0  0  0  0  0  0  0
   43.0620   33.8120   39.6920 N   0  0  0  0  0  0  0  0  0  0  0  0
   36.9730   26.2440   42.5540 C   0  0  0  0  0  0  0  0  0  0  0  0
   36.4310   26.6970   41.3580 F   0  0  0  0  0  0  0  0  0  0  0  0
   36.1920   26.8470   43.5450 F   0  0  0  0  0  0  0  0  0  0  0  0
   36.9060   24.8750   42.5550 F   0  0  0  0  0  0  0  0  0  0  0  0
  1  6  1  0  0  0  0
  2  1  2  0  0  0  0
  2  3  1  0  0  0  0
  3  4  2  0  0  0  0
  4  5  1  0  0  0  0
  5 16  1  0  0  0  0
  6  5  2  0  0  0  0
  7  8  2  0  0  0  0
  9  7  1  0  0  0  0
  9  1  1  0  0  0  0
 10 11  1  0  0  0  0
 10  7  1  0  0  0  0
 11 18  1  0  0  0  0
 11 19  1  0  0  0  0
 12 21  1  0  0  0  0
 12 11  1  0  0  0  0
 13 12  1  0  0  0  0
 13 14  1  0  0  0  0
 14 24  1  6  0  0  0
 14 25  1  0  0  0  0
 14 10  1  0  0  0  0
 15  2  1  0  0  0  0
 17  9  1  0  0  0  0
 20 12  1  0  0  0  0
 22 13  1  0  0  0  0
 23 13  1  0  0  0  0
 25 26  1  0  0  0  0
 26 27  2  0  0  0  0
 27 28  1  0  0  0  0
 29 27  1  0  0  0  0
 30 29  1  0  0  0  0
 31 25  2  0  0  0  0
 31 29  1  0  0  0  0
 32 35  1  0  0  0  0
 32  3  1  0  0  0  0
 32 34  1  0  0  0  0
 33 32  1  0  0  0  0
M  END
>  <minimizedAffinity>
-5.52554226

$$$$

 OpenBabel03252503303D

 35 37  0  0  1  0  0  0  0  0999 V2000
   38.4040   27.2710   40.8980 C   0  0  0  0  0  0  0  0  0  0  0  0
   37.8010   26.1940   40.1920 C   0  0  0  0  0  0  0  0  0  0  0  0
   37.3160   25.1310   40.9520 C   0  0  0  0  0  0  0  0  0  0  0  0
   37.4540   25.2050   42.2950 N   0  0  0  0  0  0  0  0  0  0  0  0
   38.0300   26.2400   42.9330 C   0  0  0  0  0  0  0  0  0  0  0  0
   38.5070   27.2810   42.2190 N   0  0  0  0  0  0  0  0  0  0  0  0
   37.8790   29.2450   39.7470 C   0  0  0  0  0  0  0  0  0  0  0  0
   36.6940   28.9180   39.9760 O   0  0  0  0  0  0  0  0  0  0  0  0
   38.9240   28.3970   40.2010 N   0  0  0  0  0  0  0  0  0  0  0  0
   38.0800   30.4670   39.0340 N   0  0  0  0  0  0  0  0  0  0  0  0
   36.9900   31.1260   38.3510 C   0  0  0  0  0  0  0  0  0  0  0  0
   37.7080   31.7430   37.1600 C   0  0  0  0  0  0  0  0  0  0  0  0
   39.1870   31.5450   37.3680 C   0  0  0  0  0  0  0  0  0  0  0  0
   39.2930   31.2510   38.8470 C   0  0  1  0  0  0  0  0  0  0  0  0
   37.7500   26.2560   39.0940 H   0  0  0  0  0  0  0  0  0  0  0  0
   38.1020   26.2220   44.0210 H   0  0  0  0  0  0  0  0  0  0  0  0
   39.9010   28.6740   39.9880 H   0  0  0  0  0  0  0  0  0  0  0  0
   36.1900   30.4370   38.0270 H   0  0  0  0  0  0  0  0  0  0  0  0
   36.5360   31.9530   38.9310 H   0  0  0  0  0  0  0  0  0  0  0  0
   37.4070   31.1670   36.2750 H   0  0  0  0  0  0  0  0  0  0  0  0
   37.4190   32.7980   36.9920 H   0  0  0  0  0  0  0  0  0  0  0  0
   39.7130   32.4490   37.0450 H   0  0  0  0  0  0  0  0  0  0  0  0
   39.5640   30.6720   36.7960 H   0  0  0  0  0  0  0  0  0  0  0  0
   40.1320   30.5680   38.9890 H   0  0  0  0  0  0  0  0  0  0  0  0
   39.3680   32.4460   39.6850 C   0  0  0  0  0  0  0  0  0  0  0  0
   40.1570   33.5100   39.5480 N   0  0  0  0  0  0  0  0  0  0  0  0
   39.8460   34.3480   40.5800 C   0  0  0  0  0  0  0  0  0  0  0  0
   40.1970   35.3220   40.9070 H   0  0  0  0  0  0  0  0  0  0  0  0
   38.8840   33.8040   41.3310 N   0  0  0  0  0  0  0  0  0  0  0  0
   38.3740   34.1060   42.1880 H   0  0  0  0  0  0  0  0  0  0  0  0
   38.5810   32.6290   40.7850 N   0  0  0  0  0  0  0  0  0  0  0  0
   36.7080   24.0490   40.1980 C   0  0  0  0  0  0  0  0  0  0  0  0
   35.5080   23.6800   40.7930 F   0  0  0  0  0  0  0  0  0  0  0  0
   37.5330   22.9290   40.3450 F   0  0  0  0  0  0  0  0  0  0  0  0
   36.4480   24.3740   38.8930 F   0  0  0  0  0  0  0  0  0  0  0  0
  1  6  1  0  0  0  0
  2  1  2  0  0  0  0
  2  3  1  0  0  0  0
  3  4  2  0  0  0  0
  4  5  1  0  0  0  0
  5 16  1  0  0  0  0
  6  5  2  0  0  0  0
  7  8  2  0  0  0  0
  7  9  1  0  0  0  0
  9  1  1  0  0  0  0
 10  7  1  0  0  0  0
 11 19  1  0  0  0  0
 11 10  1  0  0  0  0
 12 13  1  0  0  0  0
 12 11  1  0  0  0  0
 13 14  1  0  0  0  0
 14 24  1  1  0  0  0
 14 10  1  0  0  0  0
 14 25  1  0  0  0  0
 15  2  1  0  0  0  0
 17  9  1  0  0  0  0
 18 11  1  0  0  0  0
 20 12  1  0  0  0  0
 21 12  1  0  0  0  0
 22 13  1  0  0  0  0
 23 13  1  0  0  0  0
 25 31  2  0  0  0  0
 26 25  1  0  0  0  0
 26 27  2  0  0  0  0
 27 28  1  0  0  0  0
 27 29  1  0  0  0  0
 29 30  1  0  0  0  0
 31 29  1  0  0  0  0
 32 34  1  0  0  0  0
 32 33  1  0  0  0  0
 32  3  1  0  0  0  0
 35 32  1  0  0  0  0
M  END
>  <minimizedAffinity>
-5.42442608

$$$$

 OpenBabel03252503303D

 35 37  0  0  1  0  0  0  0  0999 V2000
   38.9170   29.9900   39.5120 C   0  0  0  0  0  0  0  0  0  0  0  0
   39.5120   31.1580   40.0640 C   0  0  0  0  0  0  0  0  0  0  0  0
   39.0250   32.3870   39.6240 C   0  0  0  0  0  0  0  0  0  0  0  0
   38.0270   32.3760   38.7110 N   0  0  0  0  0  0  0  0  0  0  0  0
   37.4850   31.2530   38.2070 C   0  0  0  0  0  0  0  0  0  0  0  0
   37.9400   30.0510   38.6190 N   0  0  0  0  0  0  0  0  0  0  0  0
   38.8670   28.3630   41.1990 C   0  0  0  0  0  0  0  0  0  0  0  0
   38.1720   29.2000   41.8150 O   0  0  0  0  0  0  0  0  0  0  0  0
   39.3530   28.6950   39.9060 N   0  0  0  0  0  0  0  0  0  0  0  0
   39.1140   27.1220   41.8620 N   0  0  0  0  0  0  0  0  0  0  0  0
   38.8460   26.9580   43.2730 C   0  0  0  0  0  0  0  0  0  0  0  0
   39.9430   25.9870   43.6800 C   0  0  0  0  0  0  0  0  0  0  0  0
   40.6310   25.5250   42.4210 C   0  0  0  0  0  0  0  0  0  0  0  0
   39.6360   25.8680   41.3370 C   0  0  1  0  0  0  0  0  0  0  0  0
   40.3190   31.0300   40.8030 H   0  0  0  0  0  0  0  0  0  0  0  0
   36.6830   31.3300   37.4730 H   0  0  0  0  0  0  0  0  0  0  0  0
   39.9420   27.9960   39.4150 H   0  0  0  0  0  0  0  0  0  0  0  0
   38.9080   27.9010   43.8470 H   0  0  0  0  0  0  0  0  0  0  0  0
   37.8750   26.4730   43.4890 H   0  0  0  0  0  0  0  0  0  0  0  0
   40.6690   26.5570   44.2750 H   0  0  0  0  0  0  0  0  0  0  0  0
   39.5650   25.1600   44.3090 H   0  0  0  0  0  0  0  0  0  0  0  0
   40.8550   24.4570   42.5120 H   0  0  0  0  0  0  0  0  0  0  0  0
   41.5710   26.0870   42.2430 H   0  0  0  0  0  0  0  0  0  0  0  0
   40.2000   26.1170   40.4360 H   0  0  0  0  0  0  0  0  0  0  0  0
   38.6190   24.8420   41.1190 C   0  0  0  0  0  0  0  0  0  0  0  0
   37.3430   24.9940   40.7680 N   0  0  0  0  0  0  0  0  0  0  0  0
   36.8170   23.7370   40.6930 C   0  0  0  0  0  0  0  0  0  0  0  0
   35.8400   23.3300   40.4520 H   0  0  0  0  0  0  0  0  0  0  0  0
   37.7560   22.8350   40.9920 N   0  0  0  0  0  0  0  0  0  0  0  0
   37.7700   21.7950   41.0500 H   0  0  0  0  0  0  0  0  0  0  0  0
   38.8730   23.5070   41.2550 N   0  0  0  0  0  0  0  0  0  0  0  0
   39.6570   33.5560   40.2090 C   0  0  0  0  0  0  0  0  0  0  0  0
   40.2240   34.3320   39.2050 F   0  0  0  0  0  0  0  0  0  0  0  0
   40.7460   33.1040   40.9610 F   0  0  0  0  0  0  0  0  0  0  0  0
   38.7900   34.3490   40.9140 F   0  0  0  0  0  0  0  0  0  0  0  0
  1  9  1  0  0  0  0
  1  2  1  0  0  0  0
  2 15  1  0  0  0  0
  3  2  2  0  0  0  0
  3 32  1  0  0  0  0
  4  3  1  0  0  0  0
  5  6  1  0  0  0  0
  5  4  2  0  0  0  0
  6  1  2  0  0  0  0
  7  8  2  0  0  0  0
  7 10  1  0  0  0  0
  9  7  1  0  0  0  0
 10 11  1  0  0  0  0
 11 19  1  0  0  0  0
 11 12  1  0  0  0  0
 11 18  1  0  0  0  0
 12 20  1  0  0  0  0
 12 21  1  0  0  0  0
 13 22  1  0  0  0  0
 13 12  1  0  0  0  0
 14 24  1  6  0  0  0
 14 10  1  0  0  0  0
 14 13  1  0  0  0  0
 16  5  1  0  0  0  0
 17  9  1  0  0  0  0
 23 13  1  0  0  0  0
 25 31  2  0  0  0  0
 25 14  1  0  0  0  0
 26 25  1  0  0  0  0
 27 26  2  0  0  0  0
 27 29  1  0  0  0  0
 28 27  1  0  0  0  0
 29 30  1  0  0  0  0
 29 31  1  0  0  0  0
 32 35  1  0  0  0  0
 32 34  1  0  0  0  0
 33 32  1  0  0  0  0
M  END
>  <minimizedAffinity>
-5.37584829

$$$$

 OpenBabel03252503303D

 35 37  0  0  1  0  0  0  0  0999 V2000
   36.7080   29.0800   36.6410 C   0  0  0  0  0  0  0  0  0  0  0  0
   36.9070   30.1020   35.6710 C   0  0  0  0  0  0  0  0  0  0  0  0
   36.0070   30.1510   34.6090 C   0  0  0  0  0  0  0  0  0  0  0  0
   35.0170   29.2290   34.5810 N   0  0  0  0  0  0  0  0  0  0  0  0
   34.8560   28.2750   35.5160 C   0  0  0  0  0  0  0  0  0  0  0  0
   35.7160   28.2080   36.5540 N   0  0  0  0  0  0  0  0  0  0  0  0
   37.3160   29.9650   38.7250 C   0  0  0  0  0  0  0  0  0  0  0  0
   36.4190   30.8040   38.4920 O   0  0  0  0  0  0  0  0  0  0  0  0
   37.5810   28.9580   37.7580 N   0  0  0  0  0  0  0  0  0  0  0  0
   38.0090   30.0950   39.9680 N   0  0  0  0  0  0  0  0  0  0  0  0
   37.8990   31.2940   40.7670 C   0  0  0  0  0  0  0  0  0  0  0  0
   39.2830   31.3690   41.3930 C   0  0  0  0  0  0  0  0  0  0  0  0
   40.0070   30.0930   41.0490 C   0  0  0  0  0  0  0  0  0  0  0  0
   38.8890   29.1570   40.6500 C   0  0  1  0  0  0  0  0  0  0  0  0
   37.7540   30.7920   35.8090 H   0  0  0  0  0  0  0  0  0  0  0  0
   34.0310   27.5690   35.4200 H   0  0  0  0  0  0  0  0  0  0  0  0
   38.3400   28.2800   37.9590 H   0  0  0  0  0  0  0  0  0  0  0  0
   37.6750   32.2000   40.1750 H   0  0  0  0  0  0  0  0  0  0  0  0
   37.1650   31.2160   41.5910 H   0  0  0  0  0  0  0  0  0  0  0  0
   39.8090   32.2010   40.9070 H   0  0  0  0  0  0  0  0  0  0  0  0
   39.2460   31.5810   42.4780 H   0  0  0  0  0  0  0  0  0  0  0  0
   40.5840   29.7680   41.9210 H   0  0  0  0  0  0  0  0  0  0  0  0
   40.6890   30.2340   40.1850 H   0  0  0  0  0  0  0  0  0  0  0  0
   39.2800   28.4820   39.8860 H   0  0  0  0  0  0  0  0  0  0  0  0
   38.2680   28.4630   41.7750 C   0  0  0  0  0  0  0  0  0  0  0  0
   38.7470   28.2710   43.0030 N   0  0  0  0  0  0  0  0  0  0  0  0
   37.7910   27.5690   43.6790 C   0  0  0  0  0  0  0  0  0  0  0  0
   37.7000   27.1760   44.6860 H   0  0  0  0  0  0  0  0  0  0  0  0
   36.7470   27.3390   42.8770 N   0  0  0  0  0  0  0  0  0  0  0  0
   35.8340   26.8520   42.9970 H   0  0  0  0  0  0  0  0  0  0  0  0
   37.0320   27.8880   41.7000 N   0  0  0  0  0  0  0  0  0  0  0  0
   36.2420   31.2050   33.6380 C   0  0  0  0  0  0  0  0  0  0  0  0
   36.9030   30.6840   32.5320 F   0  0  0  0  0  0  0  0  0  0  0  0
   37.1580   32.0950   34.2080 F   0  0  0  0  0  0  0  0  0  0  0  0
   35.0920   31.8050   33.1960 F   0  0  0  0  0  0  0  0  0  0  0  0
  1  9  1  0  0  0  0
  2 15  1  0  0  0  0
  2  1  2  0  0  0  0
  3  2  1  0  0  0  0
  4  3  2  0  0  0  0
  4  5  1  0  0  0  0
  5  6  2  0  0  0  0
  6  1  1  0  0  0  0
  7 10  1  0  0  0  0
  8  7  2  0  0  0  0
  9 17  1  0  0  0  0
  9  7  1  0  0  0  0
 10 14  1  0  0  0  0
 10 11  1  0  0  0  0
 11 12  1  0  0  0  0
 11 19  1  0  0  0  0
 12 21  1  0  0  0  0
 13 12  1  0  0  0  0
 13 22  1  0  0  0  0
 14 24  1  6  0  0  0
 14 13  1  0  0  0  0
 14 25  1  0  0  0  0
 16  5  1  0  0  0  0
 18 11  1  0  0  0  0
 20 12  1  0  0  0  0
 23 13  1  0  0  0  0
 25 26  1  0  0  0  0
 26 27  2  0  0  0  0
 27 28  1  0  0  0  0
 29 30  1  0  0  0  0
 29 27  1  0  0  0  0
 31 25  2  0  0  0  0
 31 29  1  0  0  0  0
 32 34  1  0  0  0  0
 32  3  1  0  0  0  0
 33 32  1  0  0  0  0
 35 32  1  0  0  0  0
M  END
>  <minimizedAffinity>
-5.30703878

$$$$

 OpenBabel03252503303D

 35 37  0  0  1  0  0  0  0  0999 V2000
   38.0430   29.3290   37.7970 C   0  0  0  0  0  0  0  0  0  0  0  0
   37.1600   29.7290   38.8370 C   0  0  0  0  0  0  0  0  0  0  0  0
   36.1550   28.8310   39.1960 C   0  0  0  0  0  0  0  0  0  0  0  0
   36.0980   27.6550   38.5310 N   0  0  0  0  0  0  0  0  0  0  0  0
   36.9500   27.3070   37.5500 C   0  0  0  0  0  0  0  0  0  0  0  0
   37.9310   28.1600   37.1860 N   0  0  0  0  0  0  0  0  0  0  0  0
   40.1630   30.1900   38.3070 C   0  0  0  0  0  0  0  0  0  0  0  0
   40.0550   29.5050   39.3480 O   0  0  0  0  0  0  0  0  0  0  0  0
   39.0970   30.1840   37.3690 N   0  0  0  0  0  0  0  0  0  0  0  0
   41.3740   30.9320   38.1520 N   0  0  0  0  0  0  0  0  0  0  0  0
   42.2820   31.1290   39.2590 C   0  0  0  0  0  0  0  0  0  0  0  0
   42.8380   32.5110   38.9540 C   0  0  0  0  0  0  0  0  0  0  0  0
   42.3420   32.9090   37.5880 C   0  0  0  0  0  0  0  0  0  0  0  0
   41.9210   31.5930   36.9750 C   0  0  1  0  0  0  0  0  0  0  0  0
   37.3140   30.7160   39.3000 H   0  0  0  0  0  0  0  0  0  0  0  0
   36.8360   26.3380   37.0630 H   0  0  0  0  0  0  0  0  0  0  0  0
   39.1950   30.7710   36.5190 H   0  0  0  0  0  0  0  0  0  0  0  0
   41.7870   31.1020   40.2460 H   0  0  0  0  0  0  0  0  0  0  0  0
   43.1340   30.4220   39.2670 H   0  0  0  0  0  0  0  0  0  0  0  0
   42.4010   33.2000   39.6890 H   0  0  0  0  0  0  0  0  0  0  0  0
   43.9380   32.5580   39.0590 H   0  0  0  0  0  0  0  0  0  0  0  0
   43.1490   33.4220   37.0540 H   0  0  0  0  0  0  0  0  0  0  0  0
   41.4590   33.5780   37.6550 H   0  0  0  0  0  0  0  0  0  0  0  0
   41.0790   31.7930   36.3090 H   0  0  0  0  0  0  0  0  0  0  0  0
   43.0100   30.8630   36.3310 C   0  0  0  0  0  0  0  0  0  0  0  0
   44.2840   31.2260   36.1850 N   0  0  0  0  0  0  0  0  0  0  0  0
   44.8960   30.2030   35.5180 C   0  0  0  0  0  0  0  0  0  0  0  0
   45.9050   30.0160   35.1660 H   0  0  0  0  0  0  0  0  0  0  0  0
   44.0110   29.2350   35.2650 N   0  0  0  0  0  0  0  0  0  0  0  0
   44.0650   28.3090   34.7900 H   0  0  0  0  0  0  0  0  0  0  0  0
   42.8440   29.6330   35.7630 N   0  0  0  0  0  0  0  0  0  0  0  0
   35.2730   29.2730   40.2610 C   0  0  0  0  0  0  0  0  0  0  0  0
   33.9530   29.2170   39.8270 F   0  0  0  0  0  0  0  0  0  0  0  0
   35.5190   30.6350   40.4630 F   0  0  0  0  0  0  0  0  0  0  0  0
   35.3730   28.5200   41.4000 F   0  0  0  0  0  0  0  0  0  0  0  0
  1  2  1  0  0  0  0
  2  3  2  0  0  0  0
  2 15  1  0  0  0  0
  3 32  1  0  0  0  0
  4  3  1  0  0  0  0
  5  4  2  0  0  0  0
  6  5  1  0  0  0  0
  6  1  2  0  0  0  0
  7  8  2  0  0  0  0
  9  1  1  0  0  0  0
  9  7  1  0  0  0  0
 10  7  1  0  0  0  0
 10 11  1  0  0  0  0
 11 19  1  0  0  0  0
 11 18  1  0  0  0  0
 12 21  1  0  0  0  0
 12 11  1  0  0  0  0
 12 20  1  0  0  0  0
 13 23  1  0  0  0  0
 13 12  1  0  0  0  0
 14 24  1  6  0  0  0
 14 13  1  0  0  0  0
 14 10  1  0  0  0  0
 16  5  1  0  0  0  0
 17  9  1  0  0  0  0
 22 13  1  0  0  0  0
 25 14  1  0  0  0  0
 26 25  1  0  0  0  0
 27 26  2  0  0  0  0
 28 27  1  0  0  0  0
 29 27  1  0  0  0  0
 29 31  1  0  0  0  0
 30 29  1  0  0  0  0
 31 25  2  0  0  0  0
 32 34  1  0  0  0  0
 32 35  1  0  0  0  0
 33 32  1  0  0  0  0
M  END
>  <minimizedAffinity>
-5.20789385

$$$$

 OpenBabel03252503303D

 35 37  0  0  1  0  0  0  0  0999 V2000
   39.1780   28.3570   42.0370 C   0  0  0  0  0  0  0  0  0  0  0  0
   38.7040   27.1050   41.5570 C   0  0  0  0  0  0  0  0  0  0  0  0
   37.6060   26.5500   42.2120 C   0  0  0  0  0  0  0  0  0  0  0  0
   37.0770   27.2410   43.2480 N   0  0  0  0  0  0  0  0  0  0  0  0
   37.5500   28.4250   43.6770 C   0  0  0  0  0  0  0  0  0  0  0  0
   38.6120   28.9820   43.0580 N   0  0  0  0  0  0  0  0  0  0  0  0
   39.9300   29.5780   40.1820 C   0  0  0  0  0  0  0  0  0  0  0  0
   38.7520   29.4560   39.7790 O   0  0  0  0  0  0  0  0  0  0  0  0
   40.2930   28.9950   41.4250 N   0  0  0  0  0  0  0  0  0  0  0  0
   40.8230   30.3090   39.3390 N   0  0  0  0  0  0  0  0  0  0  0  0
   40.4780   30.6210   37.9710 C   0  0  0  0  0  0  0  0  0  0  0  0
   41.8400   30.5680   37.2960 C   0  0  0  0  0  0  0  0  0  0  0  0
   42.8780   30.4190   38.3770 C   0  0  0  0  0  0  0  0  0  0  0  0
   42.1430   30.8520   39.6250 C   0  0  1  0  0  0  0  0  0  0  0  0
   39.2240   26.6440   40.7030 H   0  0  0  0  0  0  0  0  0  0  0  0
   37.0670   28.9180   44.5200 H   0  0  0  0  0  0  0  0  0  0  0  0
   41.2780   29.0910   41.7370 H   0  0  0  0  0  0  0  0  0  0  0  0
   39.7740   29.9000   37.5170 H   0  0  0  0  0  0  0  0  0  0  0  0
   40.0780   31.6440   37.8340 H   0  0  0  0  0  0  0  0  0  0  0  0
   41.8550   29.6580   36.6810 H   0  0  0  0  0  0  0  0  0  0  0  0
   42.0140   31.4310   36.6260 H   0  0  0  0  0  0  0  0  0  0  0  0
   43.7450   31.0380   38.1220 H   0  0  0  0  0  0  0  0  0  0  0  0
   43.1970   29.3630   38.4910 H   0  0  0  0  0  0  0  0  0  0  0  0
   42.5440   30.2770   40.4610 H   0  0  0  0  0  0  0  0  0  0  0  0
   42.1600   32.2960   39.8520 C   0  0  0  0  0  0  0  0  0  0  0  0
   41.2390   33.0570   40.4400 N   0  0  0  0  0  0  0  0  0  0  0  0
   41.7220   34.3330   40.4060 C   0  0  0  0  0  0  0  0  0  0  0  0
   41.3600   35.2980   40.7470 H   0  0  0  0  0  0  0  0  0  0  0  0
   42.9170   34.3480   39.8090 N   0  0  0  0  0  0  0  0  0  0  0  0
   43.6070   35.0970   39.5860 H   0  0  0  0  0  0  0  0  0  0  0  0
   43.1970   33.0940   39.4640 N   0  0  0  0  0  0  0  0  0  0  0  0
   37.1500   25.2710   41.6970 C   0  0  0  0  0  0  0  0  0  0  0  0
   38.2450   24.4600   41.4230 F   0  0  0  0  0  0  0  0  0  0  0  0
   36.5710   25.5120   40.4470 F   0  0  0  0  0  0  0  0  0  0  0  0
   36.3320   24.5950   42.5630 F   0  0  0  0  0  0  0  0  0  0  0  0
  1  6  1  0  0  0  0
  2  1  2  0  0  0  0
  2  3  1  0  0  0  0
  3  4  2  0  0  0  0
  4  5  1  0  0  0  0
  5 16  1  0  0  0  0
  6  5  2  0  0  0  0
  7  9  1  0  0  0  0
  8  7  2  0  0  0  0
  9 17  1  0  0  0  0
  9  1  1  0  0  0  0
 10 14  1  0  0  0  0
 10  7  1  0  0  0  0
 11 10  1  0  0  0  0
 12 11  1  0  0  0  0
 12 13  1  0  0  0  0
 13 23  1  0  0  0  0
 13 14  1  0  0  0  0
 14 25  1  0  0  0  0
 14 24  1  1  0  0  0
 15  2  1  0  0  0  0
 18 11  1  0  0  0  0
 19 11  1  0  0  0  0
 20 12  1  0  0  0  0
 21 12  1  0  0  0  0
 22 13  1  0  0  0  0
 25 26  1  0  0  0  0
 27 26  2  0  0  0  0
 27 28  1  0  0  0  0
 29 27  1  0  0  0  0
 30 29  1  0  0  0  0
 31 29  1  0  0  0  0
 31 25  2  0  0  0  0
 32  3  1  0  0  0  0
 32 35  1  0  0  0  0
 33 32  1  0  0  0  0
 34 32  1  0  0  0  0
M  END
>  <minimizedAffinity>
-5.15246248

$$$$

 OpenBabel03252503303D

 35 37  0  0  1  0  0  0  0  0999 V2000
   40.9060   29.9680   39.3700 C   0  0  0  0  0  0  0  0  0  0  0  0
   40.9040   31.3590   39.6630 C   0  0  0  0  0  0  0  0  0  0  0  0
   41.2110   32.2280   38.6170 C   0  0  0  0  0  0  0  0  0  0  0  0
   41.4850   31.6840   37.4090 N   0  0  0  0  0  0  0  0  0  0  0  0
   41.4790   30.3610   37.1640 C   0  0  0  0  0  0  0  0  0  0  0  0
   41.1840   29.5010   38.1620 N   0  0  0  0  0  0  0  0  0  0  0  0
   39.2090   28.9790   40.6490 C   0  0  0  0  0  0  0  0  0  0  0  0
   38.4550   29.7590   40.0270 O   0  0  0  0  0  0  0  0  0  0  0  0
   40.6030   29.0110   40.3790 N   0  0  0  0  0  0  0  0  0  0  0  0
   38.5890   28.1070   41.5970 N   0  0  0  0  0  0  0  0  0  0  0  0
   37.2280   28.3200   42.0350 C   0  0  0  0  0  0  0  0  0  0  0  0
   37.2940   27.8330   43.4750 C   0  0  0  0  0  0  0  0  0  0  0  0
   38.6460   27.2000   43.6790 C   0  0  0  0  0  0  0  0  0  0  0  0
   39.1180   26.9290   42.2690 C   0  0  1  0  0  0  0  0  0  0  0  0
   40.6630   31.6740   40.6900 H   0  0  0  0  0  0  0  0  0  0  0  0
   41.7120   30.0030   36.1620 H   0  0  0  0  0  0  0  0  0  0  0  0
   41.2170   28.3700   40.9160 H   0  0  0  0  0  0  0  0  0  0  0  0
   36.9070   29.3760   41.9810 H   0  0  0  0  0  0  0  0  0  0  0  0
   36.4860   27.6940   41.5050 H   0  0  0  0  0  0  0  0  0  0  0  0
   37.2340   28.7240   44.1150 H   0  0  0  0  0  0  0  0  0  0  0  0
   36.4480   27.1710   43.7370 H   0  0  0  0  0  0  0  0  0  0  0  0
   38.5260   26.3050   44.2990 H   0  0  0  0  0  0  0  0  0  0  0  0
   39.3520   27.9000   44.1710 H   0  0  0  0  0  0  0  0  0  0  0  0
   40.2050   27.0260   42.2600 H   0  0  0  0  0  0  0  0  0  0  0  0
   38.6430   25.6620   41.7180 C   0  0  0  0  0  0  0  0  0  0  0  0
   38.4480   25.3280   40.4430 N   0  0  0  0  0  0  0  0  0  0  0  0
   38.0010   24.0380   40.4520 C   0  0  0  0  0  0  0  0  0  0  0  0
   37.7070   23.3260   39.6880 H   0  0  0  0  0  0  0  0  0  0  0  0
   37.9270   23.5940   41.7090 N   0  0  0  0  0  0  0  0  0  0  0  0
   37.6420   22.6910   42.1440 H   0  0  0  0  0  0  0  0  0  0  0  0
   38.3220   24.5890   42.4990 N   0  0  0  0  0  0  0  0  0  0  0  0
   41.2000   33.6400   38.9530 C   0  0  0  0  0  0  0  0  0  0  0  0
   39.9000   34.0460   39.2270 F   0  0  0  0  0  0  0  0  0  0  0  0
   41.5520   34.3430   37.7960 F   0  0  0  0  0  0  0  0  0  0  0  0
   41.9740   33.9470   40.0410 F   0  0  0  0  0  0  0  0  0  0  0  0
  1  2  1  0  0  0  0
  1  9  1  0  0  0  0
  2 15  1  0  0  0  0
  3 32  1  0  0  0  0
  3  2  2  0  0  0  0
  4  3  1  0  0  0  0
  5  4  2  0  0  0  0
  5  6  1  0  0  0  0
  6  1  2  0  0  0  0
  7 10  1  0  0  0  0
  8  7  2  0  0  0  0
  9  7  1  0  0  0  0
  9 17  1  0  0  0  0
 10 11  1  0  0  0  0
 10 14  1  0  0  0  0
 11 12  1  0  0  0  0
 12 13  1  0  0  0  0
 12 21  1  0  0  0  0
 12 20  1  0  0  0  0
 13 23  1  0  0  0  0
 13 22  1  0  0  0  0
 14 24  1  6  0  0  0
 14 13  1  0  0  0  0
 16  5  1  0  0  0  0
 18 11  1  0  0  0  0
 19 11  1  0  0  0  0
 25 14  1  0  0  0  0
 25 31  2  0  0  0  0
 26 27  2  0  0  0  0
 26 25  1  0  0  0  0
 27 29  1  0  0  0  0
 28 27  1  0  0  0  0
 29 30  1  0  0  0  0
 29 31  1  0  0  0  0
 32 33  1  0  0  0  0
 32 35  1  0  0  0  0
 34 32  1  0  0  0  0
M  END
>  <minimizedAffinity>
-5.08799028

$$$$
