
 OpenBabel03252509033D

 46 48  0  0  1  0  0  0  0  0999 V2000
   46.8310   34.3920   43.4930 N   0  0  0  0  0  0  0  0  0  0  0  0
   46.3900   35.5400   42.7900 C   0  0  0  0  0  0  0  0  0  0  0  0
   44.9080   35.7960   42.8690 C   0  0  0  0  0  0  0  0  0  0  0  0
   44.2660   35.3840   44.1750 C   0  0  0  0  0  0  0  0  0  0  0  0
   45.2990   34.8810   45.1580 C   0  0  0  0  0  0  0  0  0  0  0  0
   46.0030   33.7190   44.3700 C   0  0  2  0  0  0  0  0  0  0  0  0
   46.8610   36.4310   43.2930 H   0  0  0  0  0  0  0  0  0  0  0  0
   46.6800   35.6130   41.7400 H   0  0  0  0  0  0  0  0  0  0  0  0
   44.7040   36.8640   42.6270 H   0  0  0  0  0  0  0  0  0  0  0  0
   44.4450   35.2050   42.0420 H   0  0  0  0  0  0  0  0  0  0  0  0
   43.7680   36.2970   44.6080 H   0  0  0  0  0  0  0  0  0  0  0  0
   43.4930   34.6280   44.0420 H   0  0  0  0  0  0  0  0  0  0  0  0
   46.0610   35.6260   45.3980 H   0  0  0  0  0  0  0  0  0  0  0  0
   44.7710   34.4380   46.0210 H   0  0  0  0  0  0  0  0  0  0  0  0
   45.1670   33.1190   43.9580 H   0  0  0  0  0  0  0  0  0  0  0  0
   47.8640   33.6490   42.8160 C   0  0  0  0  0  0  0  0  0  0  0  0
   48.6050   34.3360   42.3700 H   0  0  0  0  0  0  0  0  0  0  0  0
   48.3970   33.0770   43.6280 H   0  0  0  0  0  0  0  0  0  0  0  0
   47.2390   32.6980   41.8660 C   0  0  0  0  0  0  0  0  0  0  0  0
   47.3560   31.6540   42.1870 H   0  0  0  0  0  0  0  0  0  0  0  0
   46.1260   32.8470   41.7800 H   0  0  0  0  0  0  0  0  0  0  0  0
   49.2050   32.1110   38.7200 C   0  0  0  0  0  0  0  0  0  0  0  0
   48.6560   31.9420   40.0040 C   0  0  0  0  0  0  0  0  0  0  0  0
   47.8110   32.8880   40.5110 C   0  0  0  0  0  0  0  0  0  0  0  0
   47.5420   33.9520   39.7420 N   0  0  0  0  0  0  0  0  0  0  0  0
   48.0640   34.1160   38.5160 C   0  0  0  0  0  0  0  0  0  0  0  0
   48.8960   33.2060   37.9900 N   0  0  0  0  0  0  0  0  0  0  0  0
   49.8690   31.2850   38.4210 H   0  0  0  0  0  0  0  0  0  0  0  0
   48.8880   31.0720   40.6100 H   0  0  0  0  0  0  0  0  0  0  0  0
   47.8520   34.9800   37.8800 H   0  0  0  0  0  0  0  0  0  0  0  0
   46.7050   33.0910   45.3860 O   0  0  0  0  0  0  0  0  0  0  0  0
   45.4430   30.9580   44.4360 O   0  0  0  0  0  0  0  0  0  0  0  0
   46.1950   31.5030   45.6470 P   0  0  2  0  0  0  0  0  0  0  0  0
   45.0640   31.5610   46.9170 O   0  0  0  0  0  0  0  0  0  0  0  0
   44.2220   31.9840   46.6440 H   0  0  0  0  0  0  0  0  0  0  0  0
   47.4490   30.4980   46.1030 O   0  0  0  0  0  0  0  0  0  0  0  0
   47.2050   29.2120   45.6680 C   0  0  0  0  0  0  0  0  0  0  0  0
   48.1160   28.8080   45.2180 H   0  0  0  0  0  0  0  0  0  0  0  0
   46.4800   29.3110   44.8070 H   0  0  0  0  0  0  0  0  0  0  0  0
   46.6070   28.3220   46.6840 C   0  0  0  0  0  0  0  0  0  0  0  0
   45.2870   28.4030   46.9740 N   0  0  0  0  0  0  0  0  0  0  0  0
   44.9680   27.4980   47.9280 C   0  0  0  0  0  0  0  0  0  0  0  0
   43.9440   27.3970   48.3080 H   0  0  0  0  0  0  0  0  0  0  0  0
   46.1190   26.8480   48.2300 N   0  0  0  0  0  0  0  0  0  0  0  0
   46.1640   26.0870   48.9440 H   0  0  0  0  0  0  0  0  0  0  0  0
   47.0720   27.3510   47.4830 N   0  0  0  0  0  0  0  0  0  0  0  0
  1  6  1  0  0  0  0
  2  3  1  0  0  0  0
  2  7  1  0  0  0  0
  2  1  1  0  0  0  0
  3  4  1  0  0  0  0
  4 11  1  0  0  0  0
  4  5  1  0  0  0  0
  5 13  1  0  0  0  0
  5 14  1  0  0  0  0
  6 15  1  6  0  0  0
  6  5  1  0  0  0  0
  6 31  1  0  0  0  0
  8  2  1  0  0  0  0
  9  3  1  0  0  0  0
 10  3  1  0  0  0  0
 12  4  1  0  0  0  0
 16  1  1  0  0  0  0
 16 18  1  0  0  0  0
 17 16  1  0  0  0  0
 19 20  1  0  0  0  0
 19 16  1  0  0  0  0
 21 19  1  0  0  0  0
 22 23  1  0  0  0  0
 23 24  2  0  0  0  0
 23 29  1  0  0  0  0
 24 19  1  0  0  0  0
 25 24  1  0  0  0  0
 26 25  2  0  0  0  0
 27 26  1  0  0  0  0
 27 22  2  0  0  0  0
 28 22  1  0  0  0  0
 30 26  1  0  0  0  0
 31 33  1  0  0  0  0
 33 32  2  6  0  0  0
 33 36  1  0  0  0  0
 33 34  1  0  0  0  0
 35 34  1  0  0  0  0
 37 36  1  0  0  0  0
 37 40  1  0  0  0  0
 38 37  1  0  0  0  0
 39 37  1  0  0  0  0
 40 41  1  0  0  0  0
 40 46  2  0  0  0  0
 41 42  2  0  0  0  0
 42 44  1  0  0  0  0
 42 43  1  0  0  0  0
 44 45  1  0  0  0  0
 46 44  1  0  0  0  0
M  END
>  <minimizedAffinity>
-4.21311522

>  <minimizedRMSD>
1.11599243

$$$$
