
 OpenBabel03242519163D

 40 43  0  0  1  0  0  0  0  0999 V2000
   48.4040   34.1370   40.9560 C   0  0  0  0  0  0  0  0  0  0  0  0
   47.8140   34.3370   39.7290 C   0  0  0  0  0  0  0  0  0  0  0  0
   48.0930   33.5440   38.6050 C   0  0  0  0  0  0  0  0  0  0  0  0
   49.0000   32.5480   38.8100 N   0  0  0  0  0  0  0  0  0  0  0  0
   49.5690   32.3620   40.0100 C   0  0  0  0  0  0  0  0  0  0  0  0
   49.2770   33.1410   41.0570 N   0  0  0  0  0  0  0  0  0  0  0  0
   47.1030   35.1490   39.6490 H   0  0  0  0  0  0  0  0  0  0  0  0
   47.6110   33.7300   37.6590 H   0  0  0  0  0  0  0  0  0  0  0  0
   50.5460   31.2490   40.2460 C   0  0  2  0  0  0  0  0  0  0  0  0
   50.9460   30.9360   41.6540 C   0  0  0  0  0  0  0  0  0  0  0  0
   51.9110   31.6490   40.6890 C   0  0  1  0  0  0  0  0  0  0  0  0
   50.5030   30.4830   39.4460 H   0  0  0  0  0  0  0  0  0  0  0  0
   50.4690   31.5550   42.4460 H   0  0  0  0  0  0  0  0  0  0  0  0
   51.1160   29.8790   41.8940 H   0  0  0  0  0  0  0  0  0  0  0  0
   52.1280   32.6920   40.9670 H   0  0  0  0  0  0  0  0  0  0  0  0
   53.0830   30.8040   40.3360 C   0  0  0  0  0  0  0  0  0  0  0  0
   53.8460   30.0730   41.1490 N   0  0  0  0  0  0  0  0  0  0  0  0
   54.8280   29.4340   40.4520 C   0  0  0  0  0  0  0  0  0  0  0  0
   55.4830   28.8240   41.0590 H   0  0  0  0  0  0  0  0  0  0  0  0
   54.6390   29.8040   39.1660 N   0  0  0  0  0  0  0  0  0  0  0  0
   55.3160   29.4010   38.4730 H   0  0  0  0  0  0  0  0  0  0  0  0
   53.5950   30.6210   39.1040 N   0  0  0  0  0  0  0  0  0  0  0  0
   48.0910   34.9600   42.0960 C   0  0  0  0  0  0  0  0  0  0  0  0
   48.3190   36.0320   41.8220 H   0  0  0  0  0  0  0  0  0  0  0  0
   48.7380   34.7570   42.9730 H   0  0  0  0  0  0  0  0  0  0  0  0
   46.6560   34.8960   42.4290 C   0  0  0  0  0  0  0  0  0  0  0  0
   46.0970   34.2490   41.6960 H   0  0  0  0  0  0  0  0  0  0  0  0
   46.1160   35.8760   42.3800 H   0  0  0  0  0  0  0  0  0  0  0  0
   44.6740   36.3310   44.1220 Cl  0  0  0  0  0  0  0  0  0  0  0  0
   45.4850   34.8760   44.6430 C   0  0  0  0  0  0  0  0  0  0  0  0
   46.3790   34.3050   43.7760 C   0  0  0  0  0  0  0  0  0  0  0  0
   47.0200   33.1550   44.1840 C   0  0  0  0  0  0  0  0  0  0  0  0
   46.7720   32.6010   45.4230 C   0  0  0  0  0  0  0  0  0  0  0  0
   45.8560   33.1990   46.2940 C   0  0  0  0  0  0  0  0  0  0  0  0
   45.2150   34.3540   45.8720 C   0  0  0  0  0  0  0  0  0  0  0  0
   47.7380   32.6530   43.5480 H   0  0  0  0  0  0  0  0  0  0  0  0
   47.2270   31.7190   45.8020 H   0  0  0  0  0  0  0  0  0  0  0  0
   45.6440   32.7830   47.2680 H   0  0  0  0  0  0  0  0  0  0  0  0
   44.2830   35.0240   46.6750 O   0  0  0  0  0  0  0  0  0  0  0  0
   43.4730   34.5040   46.9950 H   0  0  0  0  0  0  0  0  0  0  0  0
  1  6  1  0  0  0  0
  1 23  1  0  0  0  0
  2  1  2  0  0  0  0
  3  4  2  0  0  0  0
  3  2  1  0  0  0  0
  4  5  1  0  0  0  0
  5  9  1  0  0  0  0
  5  6  2  0  0  0  0
  7  2  1  0  0  0  0
  8  3  1  0  0  0  0
  9 12  1  6  0  0  0
  9 11  1  0  0  0  0
  9 10  1  0  0  0  0
 10 14  1  0  0  0  0
 10 13  1  0  0  0  0
 11 15  1  1  0  0  0
 11 10  1  0  0  0  0
 16 11  1  0  0  0  0
 16 17  1  0  0  0  0
 18 19  1  0  0  0  0
 18 17  2  0  0  0  0
 20 18  1  0  0  0  0
 21 20  1  0  0  0  0
 22 20  1  0  0  0  0
 22 16  2  0  0  0  0
 23 26  1  0  0  0  0
 23 25  1  0  0  0  0
 24 23  1  0  0  0  0
 26 31  1  0  0  0  0
 27 26  1  0  0  0  0
 28 26  1  0  0  0  0
 29 30  1  0  0  0  0
 30 35  1  0  0  0  0
 31 32  1  0  0  0  0
 31 30  2  0  0  0  0
 32 33  2  0  0  0  0
 33 37  1  0  0  0  0
 33 34  1  0  0  0  0
 34 38  1  0  0  0  0
 35 34  2  0  0  0  0
 35 39  1  0  0  0  0
 36 32  1  0  0  0  0
 39 40  1  0  0  0  0
M  END
>  <minimizedAffinity>
-5.80315781

>  <minimizedRMSD>
0.258787155

$$$$
