
 OpenBabel03252501293D

 36 38  0  0  0  0  0  0  0  0999 V2000
   46.3820   30.0190   44.6620 C   0  0  0  0  0  0  0  0  0  0  0  0
   47.3720   29.2460   44.0900 C   0  0  0  0  0  0  0  0  0  0  0  0
   48.4180   29.7620   43.3860 C   0  0  0  0  0  0  0  0  0  0  0  0
   48.4960   31.1240   43.2340 C   0  0  0  0  0  0  0  0  0  0  0  0
   47.5170   31.9070   43.7980 C   0  0  0  0  0  0  0  0  0  0  0  0
   46.4600   31.3710   44.5110 C   0  0  0  0  0  0  0  0  0  0  0  0
   47.2380   28.1650   44.2570 H   0  0  0  0  0  0  0  0  0  0  0  0
   49.1210   29.0460   42.9940 H   0  0  0  0  0  0  0  0  0  0  0  0
   47.7450   32.9590   43.5720 H   0  0  0  0  0  0  0  0  0  0  0  0
   49.6610   31.5840   42.4590 C   0  0  0  0  0  0  0  0  0  0  0  0
   50.4850   31.0900   41.5560 N   0  0  0  0  0  0  0  0  0  0  0  0
   51.3560   32.0860   41.2590 C   0  0  0  0  0  0  0  0  0  0  0  0
   52.1880   32.1020   40.5700 H   0  0  0  0  0  0  0  0  0  0  0  0
   51.0560   33.1810   41.9850 N   0  0  0  0  0  0  0  0  0  0  0  0
   51.5540   34.1150   41.9730 H   0  0  0  0  0  0  0  0  0  0  0  0
   49.9950   32.8680   42.7360 N   0  0  0  0  0  0  0  0  0  0  0  0
   46.0670   33.0520   46.2030 C   0  0  0  0  0  0  0  0  0  0  0  0
   46.9340   32.8790   47.1380 O   0  0  0  0  0  0  0  0  0  0  0  0
   45.6730   32.4800   44.9510 N   0  0  0  0  0  0  0  0  0  0  0  0
   45.6300   33.9120   46.7140 H   0  0  0  0  0  0  0  0  0  0  0  0
   44.8700   32.9590   44.5460 H   0  0  0  0  0  0  0  0  0  0  0  0
   45.2130   29.5970   45.4290 C   0  0  0  0  0  0  0  0  0  0  0  0
   44.8320   30.4430   46.0730 H   0  0  0  0  0  0  0  0  0  0  0  0
   45.5520   28.8240   46.1480 H   0  0  0  0  0  0  0  0  0  0  0  0
   44.1160   29.1010   44.5240 C   0  0  0  0  0  0  0  0  0  0  0  0
   44.5820   28.5990   43.6510 H   0  0  0  0  0  0  0  0  0  0  0  0
   43.4820   29.9350   44.1640 H   0  0  0  0  0  0  0  0  0  0  0  0
   43.2360   26.3120   46.7320 C   0  0  0  0  0  0  0  0  0  0  0  0
   41.8450   26.1740   46.5170 C   0  0  0  0  0  0  0  0  0  0  0  0
   41.2650   27.0590   45.6110 C   0  0  0  0  0  0  0  0  0  0  0  0
   42.0180   27.9790   44.9950 N   0  0  0  0  0  0  0  0  0  0  0  0
   43.3450   28.0620   45.2430 C   0  0  0  0  0  0  0  0  0  0  0  0
   43.9480   27.2630   46.0800 N   0  0  0  0  0  0  0  0  0  0  0  0
   43.7090   25.6330   47.4330 H   0  0  0  0  0  0  0  0  0  0  0  0
   41.3010   25.4090   47.0480 H   0  0  0  0  0  0  0  0  0  0  0  0
   40.1840   26.9730   45.4260 H   0  0  0  0  0  0  0  0  0  0  0  0
  1 22  1  0  0  0  0
  2  7  1  0  0  0  0
  2  1  2  0  0  0  0
  3  2  1  0  0  0  0
  4  3  2  0  0  0  0
  4  5  1  0  0  0  0
  5  6  2  0  0  0  0
  6  1  1  0  0  0  0
  6 19  1  0  0  0  0
  8  3  1  0  0  0  0
  9  5  1  0  0  0  0
 10 16  2  0  0  0  0
 10  4  1  0  0  0  0
 11 10  1  0  0  0  0
 12 11  2  0  0  0  0
 12 14  1  0  0  0  0
 13 12  1  0  0  0  0
 14 16  1  0  0  0  0
 15 14  1  0  0  0  0
 17 20  1  0  0  0  0
 17 18  2  0  0  0  0
 19 17  1  0  0  0  0
 21 19  1  0  0  0  0
 22 23  1  0  0  0  0
 22 24  1  0  0  0  0
 25 32  1  0  0  0  0
 25 22  1  0  0  0  0
 26 25  1  0  0  0  0
 27 25  1  0  0  0  0
 28 34  1  0  0  0  0
 29 28  1  0  0  0  0
 29 35  1  0  0  0  0
 30 29  2  0  0  0  0
 31 32  2  0  0  0  0
 31 30  1  0  0  0  0
 32 33  1  0  0  0  0
 33 28  2  0  0  0  0
 36 30  1  0  0  0  0
M  END
>  <minimizedAffinity>
-3.7312994

>  <minimizedRMSD>
8.01928329

$$$$
