
 OpenBabel03252501303D

 36 38  0  0  0  0  0  0  0  0999 V2000
   46.4190   30.9320   46.6510 C   0  0  0  0  0  0  0  0  0  0  0  0
   45.2360   30.7710   47.3420 C   0  0  0  0  0  0  0  0  0  0  0  0
   44.6660   29.5580   47.5890 C   0  0  0  0  0  0  0  0  0  0  0  0
   45.2980   28.4320   47.1250 C   0  0  0  0  0  0  0  0  0  0  0  0
   46.4780   28.5760   46.4340 C   0  0  0  0  0  0  0  0  0  0  0  0
   47.0470   29.8130   46.1910 C   0  0  0  0  0  0  0  0  0  0  0  0
   44.7910   31.7220   47.6800 H   0  0  0  0  0  0  0  0  0  0  0  0
   43.7410   29.5760   48.1420 H   0  0  0  0  0  0  0  0  0  0  0  0
   46.8320   27.5750   46.1460 H   0  0  0  0  0  0  0  0  0  0  0  0
   44.6050   27.1720   47.4410 C   0  0  0  0  0  0  0  0  0  0  0  0
   44.0080   26.1990   46.7820 N   0  0  0  0  0  0  0  0  0  0  0  0
   43.5750   25.3210   47.7210 C   0  0  0  0  0  0  0  0  0  0  0  0
   43.0380   24.3890   47.6100 H   0  0  0  0  0  0  0  0  0  0  0  0
   43.9110   25.7670   48.9460 N   0  0  0  0  0  0  0  0  0  0  0  0
   43.7110   25.3010   49.8770 H   0  0  0  0  0  0  0  0  0  0  0  0
   44.5560   26.9250   48.7730 N   0  0  0  0  0  0  0  0  0  0  0  0
   49.4010   29.2700   46.2860 C   0  0  0  0  0  0  0  0  0  0  0  0
   49.7330   29.1760   47.5250 O   0  0  0  0  0  0  0  0  0  0  0  0
   48.2570   29.5600   45.4740 N   0  0  0  0  0  0  0  0  0  0  0  0
   50.4110   29.0250   45.9550 H   0  0  0  0  0  0  0  0  0  0  0  0
   48.4780   29.5440   44.4800 H   0  0  0  0  0  0  0  0  0  0  0  0
   47.1300   32.1630   46.3150 C   0  0  0  0  0  0  0  0  0  0  0  0
   48.2230   32.0790   46.5850 H   0  0  0  0  0  0  0  0  0  0  0  0
   46.7350   32.9610   46.9750 H   0  0  0  0  0  0  0  0  0  0  0  0
   46.9810   32.4970   44.8530 C   0  0  0  0  0  0  0  0  0  0  0  0
   46.4200   31.6760   44.3610 H   0  0  0  0  0  0  0  0  0  0  0  0
   47.9680   32.6040   44.3620 H   0  0  0  0  0  0  0  0  0  0  0  0
   44.6400   35.2120   45.6140 C   0  0  0  0  0  0  0  0  0  0  0  0
   44.6260   35.9550   44.4100 C   0  0  0  0  0  0  0  0  0  0  0  0
   45.4350   35.4830   43.3790 C   0  0  0  0  0  0  0  0  0  0  0  0
   46.1730   34.3790   43.5550 N   0  0  0  0  0  0  0  0  0  0  0  0
   46.1430   33.7110   44.7310 C   0  0  0  0  0  0  0  0  0  0  0  0
   45.4070   34.1010   45.7350 N   0  0  0  0  0  0  0  0  0  0  0  0
   44.0180   35.5610   46.4310 H   0  0  0  0  0  0  0  0  0  0  0  0
   44.0070   36.8350   44.3390 H   0  0  0  0  0  0  0  0  0  0  0  0
   45.4430   36.0430   42.4320 H   0  0  0  0  0  0  0  0  0  0  0  0
  1  2  1  0  0  0  0
  2  3  2  0  0  0  0
  2  7  1  0  0  0  0
  3  8  1  0  0  0  0
  4 10  1  0  0  0  0
  4  3  1  0  0  0  0
  5  4  2  0  0  0  0
  6  5  1  0  0  0  0
  6  1  2  0  0  0  0
  9  5  1  0  0  0  0
 10 16  2  0  0  0  0
 11 10  1  0  0  0  0
 11 12  2  0  0  0  0
 12 14  1  0  0  0  0
 13 12  1  0  0  0  0
 14 15  1  0  0  0  0
 16 14  1  0  0  0  0
 17 18  2  0  0  0  0
 19  6  1  0  0  0  0
 19 17  1  0  0  0  0
 20 17  1  0  0  0  0
 21 19  1  0  0  0  0
 22 23  1  0  0  0  0
 22  1  1  0  0  0  0
 22 24  1  0  0  0  0
 25 22  1  0  0  0  0
 26 25  1  0  0  0  0
 27 25  1  0  0  0  0
 28 33  1  0  0  0  0
 28 34  1  0  0  0  0
 29 28  2  0  0  0  0
 30 31  2  0  0  0  0
 30 29  1  0  0  0  0
 31 32  1  0  0  0  0
 32 25  1  0  0  0  0
 32 33  2  0  0  0  0
 35 29  1  0  0  0  0
 36 30  1  0  0  0  0
M  END
>  <minimizedAffinity>
-4.696702

>  <minimizedRMSD>
2.32438707

$$$$
