
 OpenBabel03242523533D

 43 46  0  0  1  0  0  0  0  0999 V2000
   42.8150   34.5190   38.7400 C   0  0  1  0  0  0  0  0  0  0  0  0
   42.9590   35.1740   40.1040 C   0  0  1  0  0  0  0  0  0  0  0  0
   41.6700   35.3910   40.6270 O   0  0  0  0  0  0  0  0  0  0  0  0
   40.7400   35.7370   39.6420 C   0  0  0  0  0  0  0  0  0  0  0  0
   40.4360   34.5730   38.7190 C   0  0  2  0  0  0  0  0  0  0  0  0
   41.6510   33.5880   38.8430 C   0  0  1  0  0  0  0  0  0  0  0  0
   43.7440   33.9480   38.5470 H   0  0  0  0  0  0  0  0  0  0  0  0
   43.5470   36.1050   40.0800 H   0  0  0  0  0  0  0  0  0  0  0  0
   39.8120   35.9670   40.1980 H   0  0  0  0  0  0  0  0  0  0  0  0
   41.0340   36.6590   39.1020 H   0  0  0  0  0  0  0  0  0  0  0  0
   39.5090   34.0320   38.9940 H   0  0  0  0  0  0  0  0  0  0  0  0
   41.4450   33.3160   39.9250 H   0  0  0  0  0  0  0  0  0  0  0  0
   42.5960   35.4870   37.7470 O   0  0  0  0  0  0  0  0  0  0  0  0
   43.0940   35.2960   36.9060 H   0  0  0  0  0  0  0  0  0  0  0  0
   40.4450   35.0030   37.4020 O   0  0  0  0  0  0  0  0  0  0  0  0
   40.7180   34.3430   36.7420 H   0  0  0  0  0  0  0  0  0  0  0  0
   43.4930   34.1760   40.9400 O   0  0  0  0  0  0  0  0  0  0  0  0
   44.5970   34.3100   41.6860 C   0  0  0  0  0  0  0  0  0  0  0  0
   45.8590   34.4330   41.0890 C   0  0  0  0  0  0  0  0  0  0  0  0
   46.9700   34.5710   41.9010 C   0  0  0  0  0  0  0  0  0  0  0  0
   46.8040   34.5830   43.2770 N   0  0  0  0  0  0  0  0  0  0  0  0
   45.5700   34.4610   43.8130 C   0  0  0  0  0  0  0  0  0  0  0  0
   44.4740   34.3250   43.0220 N   0  0  0  0  0  0  0  0  0  0  0  0
   45.9820   34.4230   40.0330 H   0  0  0  0  0  0  0  0  0  0  0  0
   45.4200   34.4690   44.8900 H   0  0  0  0  0  0  0  0  0  0  0  0
   48.3530   34.6790   41.3290 C   0  0  0  0  0  0  0  0  0  0  0  0
   49.0640   36.0180   41.5190 C   0  0  0  0  0  0  0  0  0  0  0  0
   49.4930   34.7010   42.1910 C   0  0  0  0  0  0  0  0  0  0  0  0
   48.4030   34.2220   40.3270 H   0  0  0  0  0  0  0  0  0  0  0  0
   48.5330   36.7640   42.1250 H   0  0  0  0  0  0  0  0  0  0  0  0
   49.6420   36.3270   40.6350 H   0  0  0  0  0  0  0  0  0  0  0  0
   50.4550   34.3170   41.8470 H   0  0  0  0  0  0  0  0  0  0  0  0
   49.4050   34.7560   43.3070 H   0  0  0  0  0  0  0  0  0  0  0  0
   41.5160   32.6580   37.8820 O   0  0  0  0  0  0  0  0  0  0  0  0
   40.8690   31.4870   37.8730 C   0  0  0  0  0  0  0  0  0  0  0  0
   39.5970   31.4010   37.4880 O   0  0  0  0  0  0  0  0  0  0  0  0
   41.2850   30.0780   38.2280 C   0  0  0  0  0  0  0  0  0  0  0  0
   40.7560   29.0120   37.6140 N   0  0  0  0  0  0  0  0  0  0  0  0
   41.3040   27.8830   38.1090 C   0  0  0  0  0  0  0  0  0  0  0  0
   41.0360   26.9100   37.7700 H   0  0  0  0  0  0  0  0  0  0  0  0
   42.1860   28.2570   39.0430 N   0  0  0  0  0  0  0  0  0  0  0  0
   42.7930   27.6490   39.6300 H   0  0  0  0  0  0  0  0  0  0  0  0
   42.1660   29.5660   39.1030 N   0  0  0  0  0  0  0  0  0  0  0  0
  1  7  1  6  0  0  0
  1  6  1  0  0  0  0
  1  2  1  0  0  0  0
  2  8  1  6  0  0  0
  2  3  1  0  0  0  0
  2 17  1  0  0  0  0
  4  9  1  0  0  0  0
  4  3  1  0  0  0  0
  5  6  1  0  0  0  0
  5 11  1  1  0  0  0
  5  4  1  0  0  0  0
  6 12  1  1  0  0  0
 10  4  1  0  0  0  0
 13  1  1  0  0  0  0
 14 13  1  0  0  0  0
 15  5  1  0  0  0  0
 16 15  1  0  0  0  0
 17 18  1  0  0  0  0
 18 23  1  0  0  0  0
 19 18  2  0  0  0  0
 19 20  1  0  0  0  0
 20 21  2  0  0  0  0
 21 22  1  0  0  0  0
 22 25  1  0  0  0  0
 23 22  2  0  0  0  0
 24 19  1  0  0  0  0
 26 27  1  0  0  0  0
 26 20  1  0  0  0  0
 26 28  1  0  0  0  0
 27 30  1  0  0  0  0
 27 28  1  0  0  0  0
 28 33  1  0  0  0  0
 29 26  1  0  0  0  0
 31 27  1  0  0  0  0
 32 28  1  0  0  0  0
 34  6  1  0  0  0  0
 35 34  1  0  0  0  0
 35 37  1  0  0  0  0
 36 35  2  0  0  0  0
 37 43  2  0  0  0  0
 38 39  2  0  0  0  0
 38 37  1  0  0  0  0
 39 41  1  0  0  0  0
 40 39  1  0  0  0  0
 41 43  1  0  0  0  0
 41 42  1  0  0  0  0
M  END
>  <minimizedAffinity>
-5.58125019

>  <minimizedRMSD>
0.107292585

$$$$
