
 OpenBabel03242523543D

 43 46  0  0  1  0  0  0  0  0999 V2000
   42.8140   34.5240   38.7400 C   0  0  1  0  0  0  0  0  0  0  0  0
   42.9580   35.1810   40.1030 C   0  0  1  0  0  0  0  0  0  0  0  0
   41.6680   35.3990   40.6250 O   0  0  0  0  0  0  0  0  0  0  0  0
   40.7380   35.7420   39.6390 C   0  0  0  0  0  0  0  0  0  0  0  0
   40.4350   34.5760   38.7180 C   0  0  2  0  0  0  0  0  0  0  0  0
   41.6510   33.5930   38.8440 C   0  0  1  0  0  0  0  0  0  0  0  0
   43.7450   33.9540   38.5480 H   0  0  0  0  0  0  0  0  0  0  0  0
   43.5450   36.1140   40.0780 H   0  0  0  0  0  0  0  0  0  0  0  0
   39.8100   35.9730   40.1940 H   0  0  0  0  0  0  0  0  0  0  0  0
   41.0310   36.6640   39.0980 H   0  0  0  0  0  0  0  0  0  0  0  0
   39.5090   34.0360   38.9930 H   0  0  0  0  0  0  0  0  0  0  0  0
   41.4450   33.3220   39.9260 H   0  0  0  0  0  0  0  0  0  0  0  0
   42.5960   35.4910   37.7450 O   0  0  0  0  0  0  0  0  0  0  0  0
   43.0940   35.2990   36.9050 H   0  0  0  0  0  0  0  0  0  0  0  0
   40.4450   35.0050   37.4010 O   0  0  0  0  0  0  0  0  0  0  0  0
   40.7190   34.3440   36.7420 H   0  0  0  0  0  0  0  0  0  0  0  0
   43.4920   34.1860   40.9410 O   0  0  0  0  0  0  0  0  0  0  0  0
   44.5950   34.3210   41.6870 C   0  0  0  0  0  0  0  0  0  0  0  0
   45.8590   34.4380   41.0900 C   0  0  0  0  0  0  0  0  0  0  0  0
   46.9690   34.5780   41.9020 C   0  0  0  0  0  0  0  0  0  0  0  0
   46.8010   34.5990   43.2780 N   0  0  0  0  0  0  0  0  0  0  0  0
   45.5670   34.4840   43.8140 C   0  0  0  0  0  0  0  0  0  0  0  0
   44.4720   34.3460   43.0230 N   0  0  0  0  0  0  0  0  0  0  0  0
   45.9820   34.4210   40.0340 H   0  0  0  0  0  0  0  0  0  0  0  0
   45.4160   34.4990   44.8910 H   0  0  0  0  0  0  0  0  0  0  0  0
   48.3530   34.6780   41.3310 C   0  0  0  0  0  0  0  0  0  0  0  0
   49.0660   36.0170   41.5110 C   0  0  0  0  0  0  0  0  0  0  0  0
   49.4920   34.7060   42.1940 C   0  0  0  0  0  0  0  0  0  0  0  0
   48.4030   34.2130   40.3330 H   0  0  0  0  0  0  0  0  0  0  0  0
   48.5360   36.7700   42.1090 H   0  0  0  0  0  0  0  0  0  0  0  0
   49.6450   36.3190   40.6240 H   0  0  0  0  0  0  0  0  0  0  0  0
   50.4530   34.3170   41.8540 H   0  0  0  0  0  0  0  0  0  0  0  0
   49.4030   34.7710   43.3090 H   0  0  0  0  0  0  0  0  0  0  0  0
   41.5170   32.6610   37.8850 O   0  0  0  0  0  0  0  0  0  0  0  0
   40.8730   31.4890   37.8780 C   0  0  0  0  0  0  0  0  0  0  0  0
   39.6000   31.4010   37.4960 O   0  0  0  0  0  0  0  0  0  0  0  0
   41.2920   30.0810   38.2330 C   0  0  0  0  0  0  0  0  0  0  0  0
   42.5820   29.7400   38.3520 N   0  0  0  0  0  0  0  0  0  0  0  0
   42.6790   28.4360   38.6820 C   0  0  0  0  0  0  0  0  0  0  0  0
   43.6100   27.9430   38.8310 H   0  0  0  0  0  0  0  0  0  0  0  0
   41.4310   27.9630   38.7680 N   0  0  0  0  0  0  0  0  0  0  0  0
   41.1270   26.9950   39.0040 H   0  0  0  0  0  0  0  0  0  0  0  0
   40.6150   28.9520   38.4980 N   0  0  0  0  0  0  0  0  0  0  0  0
  1  7  1  6  0  0  0
  1  6  1  0  0  0  0
  1  2  1  0  0  0  0
  2  8  1  6  0  0  0
  2  3  1  0  0  0  0
  2 17  1  0  0  0  0
  4  9  1  0  0  0  0
  4  3  1  0  0  0  0
  5  6  1  0  0  0  0
  5 11  1  1  0  0  0
  5  4  1  0  0  0  0
  6 12  1  1  0  0  0
 10  4  1  0  0  0  0
 13  1  1  0  0  0  0
 14 13  1  0  0  0  0
 15  5  1  0  0  0  0
 16 15  1  0  0  0  0
 17 18  1  0  0  0  0
 18 23  1  0  0  0  0
 19 18  2  0  0  0  0
 19 20  1  0  0  0  0
 20 21  2  0  0  0  0
 21 22  1  0  0  0  0
 22 25  1  0  0  0  0
 23 22  2  0  0  0  0
 24 19  1  0  0  0  0
 26 27  1  0  0  0  0
 26 20  1  0  0  0  0
 26 28  1  0  0  0  0
 27 30  1  0  0  0  0
 27 28  1  0  0  0  0
 28 33  1  0  0  0  0
 29 26  1  0  0  0  0
 31 27  1  0  0  0  0
 32 28  1  0  0  0  0
 34  6  1  0  0  0  0
 35 34  1  0  0  0  0
 35 37  1  0  0  0  0
 36 35  2  0  0  0  0
 37 38  1  0  0  0  0
 37 43  2  0  0  0  0
 38 39  2  0  0  0  0
 39 41  1  0  0  0  0
 39 40  1  0  0  0  0
 41 42  1  0  0  0  0
 43 41  1  0  0  0  0
M  END
>  <minimizedAffinity>
-5.57790184

>  <minimizedRMSD>
0.101570442

$$$$
