
 OpenBabel03242523533D

 43 46  0  0  1  0  0  0  0  0999 V2000
   42.8140   34.5100   38.7450 C   0  0  1  0  0  0  0  0  0  0  0  0
   42.9570   35.1750   40.1050 C   0  0  1  0  0  0  0  0  0  0  0  0
   41.6670   35.3950   40.6260 O   0  0  0  0  0  0  0  0  0  0  0  0
   40.7370   35.7320   39.6380 C   0  0  0  0  0  0  0  0  0  0  0  0
   40.4350   34.5610   38.7240 C   0  0  2  0  0  0  0  0  0  0  0  0
   41.6510   33.5790   38.8550 C   0  0  1  0  0  0  0  0  0  0  0  0
   43.7440   33.9390   38.5560 H   0  0  0  0  0  0  0  0  0  0  0  0
   43.5440   36.1070   40.0740 H   0  0  0  0  0  0  0  0  0  0  0  0
   39.8090   35.9650   40.1930 H   0  0  0  0  0  0  0  0  0  0  0  0
   41.0300   36.6510   39.0930 H   0  0  0  0  0  0  0  0  0  0  0  0
   39.5090   34.0210   39.0030 H   0  0  0  0  0  0  0  0  0  0  0  0
   41.4460   33.3140   39.9390 H   0  0  0  0  0  0  0  0  0  0  0  0
   42.5940   35.4710   37.7460 O   0  0  0  0  0  0  0  0  0  0  0  0
   43.0920   35.2750   36.9060 H   0  0  0  0  0  0  0  0  0  0  0  0
   40.4430   34.9820   37.4050 O   0  0  0  0  0  0  0  0  0  0  0  0
   40.7170   34.3180   36.7490 H   0  0  0  0  0  0  0  0  0  0  0  0
   43.4920   34.1840   40.9480 O   0  0  0  0  0  0  0  0  0  0  0  0
   44.5970   34.3240   41.6920 C   0  0  0  0  0  0  0  0  0  0  0  0
   45.8590   34.4390   41.0920 C   0  0  0  0  0  0  0  0  0  0  0  0
   46.9710   34.5830   41.9020 C   0  0  0  0  0  0  0  0  0  0  0  0
   46.8060   34.6110   43.2780 N   0  0  0  0  0  0  0  0  0  0  0  0
   45.5730   34.4970   43.8160 C   0  0  0  0  0  0  0  0  0  0  0  0
   44.4760   34.3540   43.0280 N   0  0  0  0  0  0  0  0  0  0  0  0
   45.9810   34.4170   40.0360 H   0  0  0  0  0  0  0  0  0  0  0  0
   45.4230   34.5160   44.8930 H   0  0  0  0  0  0  0  0  0  0  0  0
   48.3530   34.6830   41.3270 C   0  0  0  0  0  0  0  0  0  0  0  0
   49.0710   36.0190   41.5120 C   0  0  0  0  0  0  0  0  0  0  0  0
   49.4950   34.7030   42.1880 C   0  0  0  0  0  0  0  0  0  0  0  0
   48.4000   34.2220   40.3270 H   0  0  0  0  0  0  0  0  0  0  0  0
   48.5450   36.7700   42.1160 H   0  0  0  0  0  0  0  0  0  0  0  0
   49.6490   36.3230   40.6260 H   0  0  0  0  0  0  0  0  0  0  0  0
   50.4540   34.3130   41.8440 H   0  0  0  0  0  0  0  0  0  0  0  0
   49.4080   34.7620   43.3040 H   0  0  0  0  0  0  0  0  0  0  0  0
   41.5170   32.6420   37.9010 O   0  0  0  0  0  0  0  0  0  0  0  0
   40.8640   31.4740   37.8970 C   0  0  0  0  0  0  0  0  0  0  0  0
   39.6070   31.3860   37.4660 O   0  0  0  0  0  0  0  0  0  0  0  0
   41.2570   30.0730   38.3030 C   0  0  0  0  0  0  0  0  0  0  0  0
   41.4690   29.1110   37.3950 N   0  0  0  0  0  0  0  0  0  0  0  0
   41.8150   27.9660   38.0180 C   0  0  0  0  0  0  0  0  0  0  0  0
   42.0310   27.0630   37.4970 H   0  0  0  0  0  0  0  0  0  0  0  0
   41.8170   28.2240   39.3300 N   0  0  0  0  0  0  0  0  0  0  0  0
   42.0380   27.5710   40.1120 H   0  0  0  0  0  0  0  0  0  0  0  0
   41.4840   29.4810   39.4870 N   0  0  0  0  0  0  0  0  0  0  0  0
  1  7  1  6  0  0  0
  1  6  1  0  0  0  0
  1  2  1  0  0  0  0
  2  8  1  6  0  0  0
  2  3  1  0  0  0  0
  2 17  1  0  0  0  0
  4  9  1  0  0  0  0
  4  3  1  0  0  0  0
  5  6  1  0  0  0  0
  5 11  1  1  0  0  0
  5  4  1  0  0  0  0
  6 12  1  1  0  0  0
 10  4  1  0  0  0  0
 13  1  1  0  0  0  0
 14 13  1  0  0  0  0
 15  5  1  0  0  0  0
 16 15  1  0  0  0  0
 17 18  1  0  0  0  0
 18 23  1  0  0  0  0
 19 18  2  0  0  0  0
 19 20  1  0  0  0  0
 20 21  2  0  0  0  0
 21 22  1  0  0  0  0
 22 25  1  0  0  0  0
 23 22  2  0  0  0  0
 24 19  1  0  0  0  0
 26 27  1  0  0  0  0
 26 20  1  0  0  0  0
 26 28  1  0  0  0  0
 27 30  1  0  0  0  0
 27 28  1  0  0  0  0
 28 33  1  0  0  0  0
 29 26  1  0  0  0  0
 31 27  1  0  0  0  0
 32 28  1  0  0  0  0
 34  6  1  0  0  0  0
 35 34  1  0  0  0  0
 35 37  1  0  0  0  0
 36 35  2  0  0  0  0
 37 43  2  0  0  0  0
 38 39  2  0  0  0  0
 38 37  1  0  0  0  0
 39 41  1  0  0  0  0
 40 39  1  0  0  0  0
 41 43  1  0  0  0  0
 41 42  1  0  0  0  0
M  END
>  <minimizedAffinity>
-5.59211826

>  <minimizedRMSD>
0.107746579

$$$$
