
 OpenBabel03242523533D

 43 46  0  0  1  0  0  0  0  0999 V2000
   42.8180   34.3000   39.0170 C   0  0  1  0  0  0  0  0  0  0  0  0
   43.0520   35.1730   40.2400 C   0  0  1  0  0  0  0  0  0  0  0  0
   41.8040   35.6550   40.6820 O   0  0  0  0  0  0  0  0  0  0  0  0
   40.9290   35.9310   39.6280 C   0  0  0  0  0  0  0  0  0  0  0  0
   40.4680   34.6660   38.9300 C   0  0  2  0  0  0  0  0  0  0  0  0
   41.5390   33.5690   39.2630 C   0  0  1  0  0  0  0  0  0  0  0  0
   43.6610   33.5840   38.9560 H   0  0  0  0  0  0  0  0  0  0  0  0
   43.7600   35.9970   40.0580 H   0  0  0  0  0  0  0  0  0  0  0  0
   40.0410   36.3830   40.1100 H   0  0  0  0  0  0  0  0  0  0  0  0
   41.3440   36.6890   38.9350 H   0  0  0  0  0  0  0  0  0  0  0  0
   39.4770   34.3150   39.2790 H   0  0  0  0  0  0  0  0  0  0  0  0
   41.2990   33.5330   40.3720 H   0  0  0  0  0  0  0  0  0  0  0  0
   42.7310   35.0860   37.8570 O   0  0  0  0  0  0  0  0  0  0  0  0
   43.1970   34.6770   37.0790 H   0  0  0  0  0  0  0  0  0  0  0  0
   40.5340   34.8380   37.5570 O   0  0  0  0  0  0  0  0  0  0  0  0
   40.7140   34.0360   37.0380 H   0  0  0  0  0  0  0  0  0  0  0  0
   43.4460   34.2870   41.2590 O   0  0  0  0  0  0  0  0  0  0  0  0
   44.6020   34.3570   41.9310 C   0  0  0  0  0  0  0  0  0  0  0  0
   45.8210   34.5080   41.2540 C   0  0  0  0  0  0  0  0  0  0  0  0
   46.9890   34.5770   41.9920 C   0  0  0  0  0  0  0  0  0  0  0  0
   46.9210   34.4950   43.3740 N   0  0  0  0  0  0  0  0  0  0  0  0
   45.7270   34.3480   43.9880 C   0  0  0  0  0  0  0  0  0  0  0  0
   44.5760   34.2800   43.2700 N   0  0  0  0  0  0  0  0  0  0  0  0
   45.8680   34.5710   40.1940 H   0  0  0  0  0  0  0  0  0  0  0  0
   45.6540   34.2820   45.0710 H   0  0  0  0  0  0  0  0  0  0  0  0
   48.3290   34.7100   41.3300 C   0  0  0  0  0  0  0  0  0  0  0  0
   49.0610   36.0340   41.5410 C   0  0  0  0  0  0  0  0  0  0  0  0
   49.5270   34.6820   42.1100 C   0  0  0  0  0  0  0  0  0  0  0  0
   48.3050   34.3070   40.3050 H   0  0  0  0  0  0  0  0  0  0  0  0
   48.5800   36.7500   42.2200 H   0  0  0  0  0  0  0  0  0  0  0  0
   49.5780   36.3890   40.6350 H   0  0  0  0  0  0  0  0  0  0  0  0
   50.4590   34.3140   41.6800 H   0  0  0  0  0  0  0  0  0  0  0  0
   49.5170   34.6780   43.2310 H   0  0  0  0  0  0  0  0  0  0  0  0
   41.2770   32.5020   38.4890 O   0  0  0  0  0  0  0  0  0  0  0  0
   40.3260   31.5650   38.5700 C   0  0  0  0  0  0  0  0  0  0  0  0
   39.9360   30.8800   37.4960 O   0  0  0  0  0  0  0  0  0  0  0  0
   39.4990   31.0330   39.7180 C   0  0  0  0  0  0  0  0  0  0  0  0
   38.3430   31.6050   40.0770 N   0  0  0  0  0  0  0  0  0  0  0  0
   37.8060   30.9330   41.1160 C   0  0  0  0  0  0  0  0  0  0  0  0
   36.8850   31.2070   41.5710 H   0  0  0  0  0  0  0  0  0  0  0  0
   38.6430   29.9300   41.4030 N   0  0  0  0  0  0  0  0  0  0  0  0
   38.5470   29.2090   42.1490 H   0  0  0  0  0  0  0  0  0  0  0  0
   39.6470   30.0010   40.5640 N   0  0  0  0  0  0  0  0  0  0  0  0
  1  7  1  6  0  0  0
  1  6  1  0  0  0  0
  1  2  1  0  0  0  0
  2  8  1  6  0  0  0
  2  3  1  0  0  0  0
  2 17  1  0  0  0  0
  4  9  1  0  0  0  0
  4  3  1  0  0  0  0
  5  6  1  0  0  0  0
  5 11  1  1  0  0  0
  5  4  1  0  0  0  0
  6 12  1  1  0  0  0
 10  4  1  0  0  0  0
 13  1  1  0  0  0  0
 14 13  1  0  0  0  0
 15  5  1  0  0  0  0
 16 15  1  0  0  0  0
 17 18  1  0  0  0  0
 18 23  1  0  0  0  0
 19 18  2  0  0  0  0
 19 20  1  0  0  0  0
 20 21  2  0  0  0  0
 21 22  1  0  0  0  0
 22 25  1  0  0  0  0
 23 22  2  0  0  0  0
 24 19  1  0  0  0  0
 26 27  1  0  0  0  0
 26 20  1  0  0  0  0
 26 28  1  0  0  0  0
 27 28  1  0  0  0  0
 27 30  1  0  0  0  0
 28 33  1  0  0  0  0
 29 26  1  0  0  0  0
 31 27  1  0  0  0  0
 32 28  1  0  0  0  0
 34 35  1  0  0  0  0
 34  6  1  0  0  0  0
 35 37  1  0  0  0  0
 36 35  2  0  0  0  0
 37 38  1  0  0  0  0
 37 43  2  0  0  0  0
 38 39  2  0  0  0  0
 39 41  1  0  0  0  0
 39 40  1  0  0  0  0
 41 42  1  0  0  0  0
 43 41  1  0  0  0  0
M  END
>  <minimizedAffinity>
-6.09143209

>  <minimizedRMSD>
1.81971502

$$$$
