REMARK  Name = 
REMARK  8 active torsions:
REMARK  status: ('A' for Active; 'I' for Inactive)
REMARK    1  A    between atoms: C_1  and  O_7
REMARK    2  A    between atoms: C_2  and  O_9
REMARK    3  A    between atoms: C_5  and  O_8
REMARK    4  A    between atoms: C_6  and  O_19
REMARK    5  A    between atoms: O_9  and  C_10
REMARK    6  A    between atoms: C_12  and  C_16
REMARK    7  A    between atoms: O_19  and  C_20
REMARK    8  A    between atoms: C_20  and  C_37
REMARK                            x       y       z     vdW  Elec       q    Type
REMARK                         _______ _______ _______ _____ _____    ______ ____
ROOT
ATOM      1  C   UNL     1      42.826  34.491  38.780  0.00  0.00    +0.000 C 
ATOM      2  C   UNL     1      42.950  35.169  40.135  0.00  0.00    +0.000 C 
ATOM      3  O   UNL     1      41.653  35.380  40.642  0.00  0.00    +0.000 OA
ATOM      4  C   UNL     1      40.729  35.699  39.643  0.00  0.00    +0.000 C 
ATOM      5  C   UNL     1      40.447  34.517  38.736  0.00  0.00    +0.000 C 
ATOM      6  C   UNL     1      41.672  33.549  38.887  0.00  0.00    +0.000 C 
ATOM      7  H   UNL     1      43.764  33.928  38.605  0.00  0.00    +0.000 HD
ATOM      8  H   UNL     1      43.527  36.107  40.102  0.00  0.00    +0.000 HD
ATOM      9  H   UNL     1      39.793  35.927  40.187  0.00  0.00    +0.000 HD
ATOM     10  H   UNL     1      41.017  36.616  39.092  0.00  0.00    +0.000 HD
ATOM     11  H   UNL     1      39.524  33.970  39.011  0.00  0.00    +0.000 HD
ATOM     12  H   UNL     1      41.459  33.291  39.971  0.00  0.00    +0.000 HD
ENDROOT
BRANCH   1  13
ATOM     13  O   UNL     1      42.606  35.441  37.770  0.00  0.00    +0.000 OA
ATOM     14  H   UNL     1      43.114  35.243  36.937  0.00  0.00    +0.000 HD
ENDBRANCH   1  13
BRANCH   5  15
ATOM     15  O   UNL     1      40.464  34.927  37.413  0.00  0.00    +0.000 OA
ATOM     16  H   UNL     1      40.751  34.260  36.766  0.00  0.00    +0.000 HD
ENDBRANCH   5  15
BRANCH   2  17
ATOM     17  O   UNL     1      43.487  34.191  40.992  0.00  0.00    +0.000 OA
BRANCH  17  18
ATOM     18  C   UNL     1      44.598  34.339  41.724  0.00  0.00    +0.000 A 
ATOM     19  C   UNL     1      45.855  34.449  41.112  0.00  0.00    +0.000 A 
ATOM     20  C   UNL     1      46.974  34.602  41.910  0.00  0.00    +0.000 A 
ATOM     21  N   UNL     1      46.821  34.643  43.287  0.00  0.00    +0.000 NA
ATOM     22  C   UNL     1      45.593  34.533  43.838  0.00  0.00    +0.000 A 
ATOM     23  N   UNL     1      44.489  34.382  43.061  0.00  0.00    +0.000 NA
ATOM     24  H   UNL     1      45.967  34.417  40.055  0.00  0.00    +0.000 HD
ATOM     25  H   UNL     1      45.453  34.563  44.916  0.00  0.00    +0.000 HD
BRANCH  20  26
ATOM     26  C   UNL     1      48.351  34.697  41.322  0.00  0.00    +0.000 C 
ATOM     27  C   UNL     1      49.073  36.032  41.496  0.00  0.00    +0.000 C 
ATOM     28  C   UNL     1      49.501  34.717  42.172  0.00  0.00    +0.000 C 
ATOM     29  H   UNL     1      48.387  34.233  40.323  0.00  0.00    +0.000 HD
ATOM     30  H   UNL     1      48.554  36.786  42.102  0.00  0.00    +0.000 HD
ATOM     31  H   UNL     1      49.643  36.332  40.603  0.00  0.00    +0.000 HD
ATOM     32  H   UNL     1      50.456  34.324  41.820  0.00  0.00    +0.000 HD
ATOM     33  H   UNL     1      49.425  34.780  43.288  0.00  0.00    +0.000 HD
ENDBRANCH  20  26
ENDBRANCH  17  18
ENDBRANCH   2  17
BRANCH   6  34
ATOM     34  O   UNL     1      41.557  32.602  37.940  0.00  0.00    +0.000 OA
BRANCH  34  35
ATOM     35  C   UNL     1      40.946  31.412  37.952  0.00  0.00    +0.000 C 
ATOM     36  O   UNL     1      39.674  31.283  37.579  0.00  0.00    +0.000 OA
BRANCH  35  37
ATOM     37  C   UNL     1      41.407  30.021  38.323  0.00  0.00    +0.000 A 
ATOM     38  N   UNL     1      42.118  29.788  39.433  0.00  0.00    +0.000 NA
ATOM     39  C   UNL     1      42.391  28.471  39.531  0.00  0.00    +0.000 A 
ATOM     40  H   UNL     1      42.947  28.051  40.335  0.00  0.00    +0.000 HD
ATOM     41  N   UNL     1      41.840  27.880  38.465  0.00  0.00    +0.000 N 
ATOM     42  H   UNL     1      41.852  26.869  38.215  0.00  0.00    +0.000 HD
ATOM     43  N   UNL     1      41.258  28.814  37.754  0.00  0.00    +0.000 NA
ENDBRANCH  35  37
ENDBRANCH  34  35
ENDBRANCH   6  34
TORSDOF 8
