
 OpenBabel03242516553D

 43 46  0  0  1  0  0  0  0  0999 V2000
   38.9430   24.8540   40.9060 C   0  0  1  0  0  0  0  0  0  0  0  0
   38.2890   23.7440   41.6000 C   0  0  0  0  0  0  0  0  0  0  0  0
   37.3680   23.0870   40.5720 C   0  0  0  0  0  0  0  0  0  0  0  0
   36.2390   24.0540   40.3370 C   0  0  0  0  0  0  0  0  0  0  0  0
   36.6860   25.4280   39.9220 C   0  0  0  0  0  0  0  0  0  0  0  0
   37.9440   25.9380   40.4890 C   0  0  1  0  0  0  0  0  0  0  0  0
   39.3160   24.4750   39.9050 H   0  0  0  0  0  0  0  0  0  0  0  0
   39.0450   22.9730   41.8490 H   0  0  0  0  0  0  0  0  0  0  0  0
   37.7020   24.0310   42.4870 H   0  0  0  0  0  0  0  0  0  0  0  0
   36.9340   22.1900   41.0560 H   0  0  0  0  0  0  0  0  0  0  0  0
   37.9530   22.8490   39.6780 H   0  0  0  0  0  0  0  0  0  0  0  0
   35.5890   23.6260   39.5640 H   0  0  0  0  0  0  0  0  0  0  0  0
   35.6720   24.1230   41.2830 H   0  0  0  0  0  0  0  0  0  0  0  0
   36.6870   25.4530   38.8090 H   0  0  0  0  0  0  0  0  0  0  0  0
   35.8650   26.1340   40.2180 H   0  0  0  0  0  0  0  0  0  0  0  0
   38.4820   26.5190   39.6880 H   0  0  0  0  0  0  0  0  0  0  0  0
   41.3370   25.8590   43.6470 C   0  0  0  0  0  0  0  0  0  0  0  0
   40.2750   25.2930   42.9400 C   0  0  0  0  0  0  0  0  0  0  0  0
   40.0720   25.4700   41.5700 C   0  0  0  0  0  0  0  0  0  0  0  0
   40.9740   26.2330   40.9500 N   0  0  0  0  0  0  0  0  0  0  0  0
   42.0120   26.7900   41.6270 C   0  0  0  0  0  0  0  0  0  0  0  0
   42.1970   26.6140   42.9370 N   0  0  0  0  0  0  0  0  0  0  0  0
   41.4100   25.6670   44.6940 H   0  0  0  0  0  0  0  0  0  0  0  0
   39.5670   24.6810   43.4880 H   0  0  0  0  0  0  0  0  0  0  0  0
   42.7160   27.4010   41.0740 H   0  0  0  0  0  0  0  0  0  0  0  0
   37.7200   26.9070   41.5640 C   0  0  0  0  0  0  0  0  0  0  0  0
   37.0140   26.6620   42.7540 C   0  0  0  0  0  0  0  0  0  0  0  0
   36.9410   27.7370   43.6440 C   0  0  0  0  0  0  0  0  0  0  0  0
   37.5590   28.9310   43.2830 C   0  0  0  0  0  0  0  0  0  0  0  0
   38.2490   29.1470   42.1020 C   0  0  0  0  0  0  0  0  0  0  0  0
   38.3110   28.0890   41.2470 N   0  0  0  0  0  0  0  0  0  0  0  0
   36.6030   25.6960   42.8770 H   0  0  0  0  0  0  0  0  0  0  0  0
   36.4150   27.5780   44.5490 H   0  0  0  0  0  0  0  0  0  0  0  0
   37.4740   29.7380   44.0100 H   0  0  0  0  0  0  0  0  0  0  0  0
   38.8610   30.4390   41.8290 C   0  0  0  0  0  0  0  0  0  0  0  0
   40.0460   30.6270   42.2400 O   0  0  0  0  0  0  0  0  0  0  0  0
   38.2300   31.5470   41.1200 C   0  0  0  0  0  0  0  0  0  0  0  0
   38.9030   32.6680   40.8210 N   0  0  0  0  0  0  0  0  0  0  0  0
   38.0790   33.5340   40.1640 C   0  0  0  0  0  0  0  0  0  0  0  0
   38.3760   34.5180   39.8090 H   0  0  0  0  0  0  0  0  0  0  0  0
   36.8960   32.9040   40.0750 N   0  0  0  0  0  0  0  0  0  0  0  0
   36.0440   33.3100   39.6190 H   0  0  0  0  0  0  0  0  0  0  0  0
   36.9900   31.7340   40.6400 N   0  0  0  0  0  0  0  0  0  0  0  0
  1  7  1  6  0  0  0
  1 19  1  0  0  0  0
  1  2  1  0  0  0  0
  2  8  1  0  0  0  0
  2  9  1  0  0  0  0
  3 10  1  0  0  0  0
  3  2  1  0  0  0  0
  4  3  1  0  0  0  0
  4 13  1  0  0  0  0
  5 15  1  0  0  0  0
  5  4  1  0  0  0  0
  5  6  1  0  0  0  0
  6 16  1  6  0  0  0
  6  1  1  0  0  0  0
  6 26  1  0  0  0  0
 11  3  1  0  0  0  0
 12  4  1  0  0  0  0
 14  5  1  0  0  0  0
 17 23  1  0  0  0  0
 18 24  1  0  0  0  0
 18 17  1  0  0  0  0
 19 18  2  0  0  0  0
 20 19  1  0  0  0  0
 20 21  2  0  0  0  0
 21 22  1  0  0  0  0
 22 17  2  0  0  0  0
 25 21  1  0  0  0  0
 26 27  1  0  0  0  0
 27 32  1  0  0  0  0
 27 28  2  0  0  0  0
 28 33  1  0  0  0  0
 29 28  1  0  0  0  0
 29 34  1  0  0  0  0
 30 29  2  0  0  0  0
 31 26  2  0  0  0  0
 31 30  1  0  0  0  0
 35 30  1  0  0  0  0
 35 36  2  0  0  0  0
 37 35  1  0  0  0  0
 38 37  1  0  0  0  0
 39 38  2  0  0  0  0
 40 39  1  0  0  0  0
 41 39  1  0  0  0  0
 41 43  1  0  0  0  0
 42 41  1  0  0  0  0
 43 37  2  0  0  0  0
M  END
>  <minimizedAffinity>
-6.31557083

$$$$

 OpenBabel03242516553D

 43 46  0  0  1  0  0  0  0  0999 V2000
   36.9860   28.5680   39.3080 C   0  0  1  0  0  0  0  0  0  0  0  0
   35.5320   28.7210   39.3810 C   0  0  0  0  0  0  0  0  0  0  0  0
   34.9910   28.2610   38.0280 C   0  0  0  0  0  0  0  0  0  0  0  0
   35.3940   29.3150   37.0310 C   0  0  0  0  0  0  0  0  0  0  0  0
   36.8710   29.5960   37.0010 C   0  0  0  0  0  0  0  0  0  0  0  0
   37.6100   29.5070   38.2690 C   0  0  1  0  0  0  0  0  0  0  0  0
   37.2140   27.5470   38.8730 H   0  0  0  0  0  0  0  0  0  0  0  0
   35.1260   27.9990   40.1180 H   0  0  0  0  0  0  0  0  0  0  0  0
   35.1820   29.7440   39.5870 H   0  0  0  0  0  0  0  0  0  0  0  0
   33.8860   28.2850   38.0980 H   0  0  0  0  0  0  0  0  0  0  0  0
   35.3840   27.2620   37.8130 H   0  0  0  0  0  0  0  0  0  0  0  0
   35.0590   28.9820   36.0410 H   0  0  0  0  0  0  0  0  0  0  0  0
   34.8500   30.2380   37.3010 H   0  0  0  0  0  0  0  0  0  0  0  0
   37.3140   28.9500   36.2100 H   0  0  0  0  0  0  0  0  0  0  0  0
   36.9890   30.6410   36.6070 H   0  0  0  0  0  0  0  0  0  0  0  0
   38.6200   29.0560   38.0580 H   0  0  0  0  0  0  0  0  0  0  0  0
   37.7570   29.3100   42.9290 C   0  0  0  0  0  0  0  0  0  0  0  0
   37.1100   29.1780   41.6990 C   0  0  0  0  0  0  0  0  0  0  0  0
   37.7210   28.6700   40.5510 C   0  0  0  0  0  0  0  0  0  0  0  0
   38.9960   28.3040   40.6930 N   0  0  0  0  0  0  0  0  0  0  0  0
   39.6370   28.4280   41.8850 C   0  0  0  0  0  0  0  0  0  0  0  0
   39.0430   28.9140   42.9770 N   0  0  0  0  0  0  0  0  0  0  0  0
   37.2070   29.7100   43.7510 H   0  0  0  0  0  0  0  0  0  0  0  0
   36.0730   29.4900   41.6320 H   0  0  0  0  0  0  0  0  0  0  0  0
   40.6730   28.1150   41.9450 H   0  0  0  0  0  0  0  0  0  0  0  0
   37.9030   30.8230   38.8400 C   0  0  0  0  0  0  0  0  0  0  0  0
   36.9480   31.7640   39.2600 C   0  0  0  0  0  0  0  0  0  0  0  0
   37.4630   32.9520   39.7870 C   0  0  0  0  0  0  0  0  0  0  0  0
   38.8460   33.0960   39.8500 C   0  0  0  0  0  0  0  0  0  0  0  0
   39.7660   32.1520   39.4270 C   0  0  0  0  0  0  0  0  0  0  0  0
   39.2480   31.0010   38.9170 N   0  0  0  0  0  0  0  0  0  0  0  0
   35.9310   31.5000   39.1440 H   0  0  0  0  0  0  0  0  0  0  0  0
   36.7640   33.6780   40.1110 H   0  0  0  0  0  0  0  0  0  0  0  0
   39.1980   34.0380   40.2690 H   0  0  0  0  0  0  0  0  0  0  0  0
   41.1950   32.4090   39.5440 C   0  0  0  0  0  0  0  0  0  0  0  0
   41.7770   32.0230   40.6020 O   0  0  0  0  0  0  0  0  0  0  0  0
   42.0240   33.0740   38.5450 C   0  0  0  0  0  0  0  0  0  0  0  0
   43.3610   33.1190   38.6530 N   0  0  0  0  0  0  0  0  0  0  0  0
   43.8820   33.8000   37.5920 C   0  0  0  0  0  0  0  0  0  0  0  0
   44.9430   33.9800   37.4380 H   0  0  0  0  0  0  0  0  0  0  0  0
   42.8260   34.1610   36.8450 N   0  0  0  0  0  0  0  0  0  0  0  0
   42.8940   34.7040   35.9510 H   0  0  0  0  0  0  0  0  0  0  0  0
   41.7330   33.7310   37.4110 N   0  0  0  0  0  0  0  0  0  0  0  0
  1  7  1  6  0  0  0
  1  2  1  0  0  0  0
  1 19  1  0  0  0  0
  2  9  1  0  0  0  0
  2  8  1  0  0  0  0
  3 10  1  0  0  0  0
  3  2  1  0  0  0  0
  4 13  1  0  0  0  0
  4  3  1  0  0  0  0
  5  4  1  0  0  0  0
  5  6  1  0  0  0  0
  6 16  1  6  0  0  0
  6 26  1  0  0  0  0
  6  1  1  0  0  0  0
 11  3  1  0  0  0  0
 12  4  1  0  0  0  0
 14  5  1  0  0  0  0
 15  5  1  0  0  0  0
 17 22  1  0  0  0  0
 17 23  1  0  0  0  0
 18 17  2  0  0  0  0
 19 20  2  0  0  0  0
 19 18  1  0  0  0  0
 20 21  1  0  0  0  0
 21 25  1  0  0  0  0
 21 22  2  0  0  0  0
 24 18  1  0  0  0  0
 26 31  2  0  0  0  0
 26 27  1  0  0  0  0
 27 28  2  0  0  0  0
 28 29  1  0  0  0  0
 28 33  1  0  0  0  0
 29 34  1  0  0  0  0
 30 35  1  0  0  0  0
 30 29  2  0  0  0  0
 31 30  1  0  0  0  0
 32 27  1  0  0  0  0
 35 36  2  0  0  0  0
 37 38  1  0  0  0  0
 37 35  1  0  0  0  0
 39 38  2  0  0  0  0
 40 39  1  0  0  0  0
 41 43  1  0  0  0  0
 41 39  1  0  0  0  0
 42 41  1  0  0  0  0
 43 37  2  0  0  0  0
M  END
>  <minimizedAffinity>
-5.89230537

$$$$

 OpenBabel03242516553D

 43 46  0  0  1  0  0  0  0  0999 V2000
   36.5400   30.7520   38.9110 C   0  0  1  0  0  0  0  0  0  0  0  0
   36.7200   29.8150   37.8010 C   0  0  0  0  0  0  0  0  0  0  0  0
   35.3210   29.3290   37.4270 C   0  0  0  0  0  0  0  0  0  0  0  0
   34.8670   28.4400   38.5530 C   0  0  0  0  0  0  0  0  0  0  0  0
   34.9120   29.0930   39.9060 C   0  0  0  0  0  0  0  0  0  0  0  0
   35.9900   30.0600   40.1630 C   0  0  1  0  0  0  0  0  0  0  0  0
   35.6970   31.4610   38.6430 H   0  0  0  0  0  0  0  0  0  0  0  0
   37.0850   30.3680   36.9130 H   0  0  0  0  0  0  0  0  0  0  0  0
   37.3610   28.9470   38.0250 H   0  0  0  0  0  0  0  0  0  0  0  0
   35.4320   28.6890   36.5300 H   0  0  0  0  0  0  0  0  0  0  0  0
   34.6810   30.2010   37.2530 H   0  0  0  0  0  0  0  0  0  0  0  0
   33.8420   28.1170   38.3310 H   0  0  0  0  0  0  0  0  0  0  0  0
   35.5280   27.5540   38.5510 H   0  0  0  0  0  0  0  0  0  0  0  0
   33.9050   29.5280   40.0960 H   0  0  0  0  0  0  0  0  0  0  0  0
   35.0060   28.2650   40.6580 H   0  0  0  0  0  0  0  0  0  0  0  0
   35.5710   30.9000   40.7850 H   0  0  0  0  0  0  0  0  0  0  0  0
   38.5460   33.6410   40.2820 C   0  0  0  0  0  0  0  0  0  0  0  0
   37.4980   32.7990   39.9090 C   0  0  0  0  0  0  0  0  0  0  0  0
   37.6780   31.5690   39.2740 C   0  0  0  0  0  0  0  0  0  0  0  0
   38.9450   31.2280   39.0330 N   0  0  0  0  0  0  0  0  0  0  0  0
   39.9750   32.0390   39.3920 C   0  0  0  0  0  0  0  0  0  0  0  0
   39.7910   33.2120   40.0000 N   0  0  0  0  0  0  0  0  0  0  0  0
   38.3100   34.5640   40.7650 H   0  0  0  0  0  0  0  0  0  0  0  0
   36.4840   33.1200   40.1240 H   0  0  0  0  0  0  0  0  0  0  0  0
   40.9850   31.7130   39.1730 H   0  0  0  0  0  0  0  0  0  0  0  0
   37.0650   29.4930   40.9810 C   0  0  0  0  0  0  0  0  0  0  0  0
   37.5440   30.0280   42.1890 C   0  0  0  0  0  0  0  0  0  0  0  0
   38.5700   29.3050   42.8040 C   0  0  0  0  0  0  0  0  0  0  0  0
   39.0180   28.1440   42.1810 C   0  0  0  0  0  0  0  0  0  0  0  0
   38.5290   27.6380   40.9880 C   0  0  0  0  0  0  0  0  0  0  0  0
   37.5300   28.3540   40.4030 N   0  0  0  0  0  0  0  0  0  0  0  0
   37.0940   30.9220   42.5290 H   0  0  0  0  0  0  0  0  0  0  0  0
   38.9480   29.6870   43.7160 H   0  0  0  0  0  0  0  0  0  0  0  0
   39.8180   27.6160   42.6990 H   0  0  0  0  0  0  0  0  0  0  0  0
   39.0720   26.4090   40.4280 C   0  0  0  0  0  0  0  0  0  0  0  0
   40.0680   26.5080   39.6490 O   0  0  0  0  0  0  0  0  0  0  0  0
   38.5720   25.0630   40.6840 C   0  0  0  0  0  0  0  0  0  0  0  0
   37.4570   24.6020   40.0970 N   0  0  0  0  0  0  0  0  0  0  0  0
   37.2190   23.3240   40.5120 C   0  0  0  0  0  0  0  0  0  0  0  0
   36.3760   22.7180   40.1870 H   0  0  0  0  0  0  0  0  0  0  0  0
   38.2180   23.0310   41.3600 N   0  0  0  0  0  0  0  0  0  0  0  0
   38.3210   22.1130   41.8550 H   0  0  0  0  0  0  0  0  0  0  0  0
   39.0120   24.0590   41.4580 N   0  0  0  0  0  0  0  0  0  0  0  0
  1  7  1  6  0  0  0
  1 19  1  0  0  0  0
  1  6  1  0  0  0  0
  2  9  1  0  0  0  0
  2  1  1  0  0  0  0
  3  2  1  0  0  0  0
  3  4  1  0  0  0  0
  4  5  1  0  0  0  0
  5 14  1  0  0  0  0
  5  6  1  0  0  0  0
  5 15  1  0  0  0  0
  6 16  1  1  0  0  0
  6 26  1  0  0  0  0
  8  2  1  0  0  0  0
 10  3  1  0  0  0  0
 11  3  1  0  0  0  0
 12  4  1  0  0  0  0
 13  4  1  0  0  0  0
 17 23  1  0  0  0  0
 18 24  1  0  0  0  0
 18 17  2  0  0  0  0
 19 18  1  0  0  0  0
 20 19  2  0  0  0  0
 20 21  1  0  0  0  0
 21 22  2  0  0  0  0
 22 17  1  0  0  0  0
 25 21  1  0  0  0  0
 26 27  1  0  0  0  0
 27 32  1  0  0  0  0
 27 28  2  0  0  0  0
 28 33  1  0  0  0  0
 29 34  1  0  0  0  0
 29 28  1  0  0  0  0
 30 29  2  0  0  0  0
 31 26  2  0  0  0  0
 31 30  1  0  0  0  0
 35 37  1  0  0  0  0
 35 30  1  0  0  0  0
 36 35  2  0  0  0  0
 37 43  2  0  0  0  0
 38 39  2  0  0  0  0
 38 37  1  0  0  0  0
 39 41  1  0  0  0  0
 40 39  1  0  0  0  0
 41 43  1  0  0  0  0
 41 42  1  0  0  0  0
M  END
>  <minimizedAffinity>
-5.8899622

$$$$

 OpenBabel03242516553D

 43 46  0  0  1  0  0  0  0  0999 V2000
   36.4860   26.4030   39.9180 C   0  0  1  0  0  0  0  0  0  0  0  0
   36.9270   25.0780   39.4790 C   0  0  0  0  0  0  0  0  0  0  0  0
   36.3660   24.0870   40.4990 C   0  0  0  0  0  0  0  0  0  0  0  0
   37.1460   24.3030   41.7690 C   0  0  0  0  0  0  0  0  0  0  0  0
   37.1290   25.7210   42.2650 C   0  0  0  0  0  0  0  0  0  0  0  0
   37.1050   26.7970   41.2630 C   0  0  1  0  0  0  0  0  0  0  0  0
   35.3830   26.3440   40.1710 H   0  0  0  0  0  0  0  0  0  0  0  0
   36.4260   24.8260   38.5220 H   0  0  0  0  0  0  0  0  0  0  0  0
   38.0180   24.9510   39.4060 H   0  0  0  0  0  0  0  0  0  0  0  0
   36.6140   23.0730   40.1320 H   0  0  0  0  0  0  0  0  0  0  0  0
   35.2890   24.2550   40.5970 H   0  0  0  0  0  0  0  0  0  0  0  0
   36.7280   23.6360   42.5330 H   0  0  0  0  0  0  0  0  0  0  0  0
   38.1880   23.9990   41.5620 H   0  0  0  0  0  0  0  0  0  0  0  0
   36.2890   25.8060   42.9920 H   0  0  0  0  0  0  0  0  0  0  0  0
   38.0520   25.8520   42.8890 H   0  0  0  0  0  0  0  0  0  0  0  0
   36.4400   27.6210   41.6450 H   0  0  0  0  0  0  0  0  0  0  0  0
   35.9340   29.7170   38.1950 C   0  0  0  0  0  0  0  0  0  0  0  0
   35.8420   28.6320   39.0680 C   0  0  0  0  0  0  0  0  0  0  0  0
   36.6450   27.4930   38.9780 C   0  0  0  0  0  0  0  0  0  0  0  0
   37.5330   27.4940   37.9830 N   0  0  0  0  0  0  0  0  0  0  0  0
   37.6330   28.5450   37.1270 C   0  0  0  0  0  0  0  0  0  0  0  0
   36.8610   29.6290   37.2230 N   0  0  0  0  0  0  0  0  0  0  0  0
   35.2770   30.5450   38.3430 H   0  0  0  0  0  0  0  0  0  0  0  0
   35.1030   28.6760   39.8610 H   0  0  0  0  0  0  0  0  0  0  0  0
   38.3730   28.4940   36.3370 H   0  0  0  0  0  0  0  0  0  0  0  0
   38.4160   27.4270   41.0900 C   0  0  0  0  0  0  0  0  0  0  0  0
   39.5820   26.7830   40.6450 C   0  0  0  0  0  0  0  0  0  0  0  0
   40.7170   27.5930   40.5420 C   0  0  0  0  0  0  0  0  0  0  0  0
   40.5960   28.9370   40.8830 C   0  0  0  0  0  0  0  0  0  0  0  0
   39.4330   29.5480   41.3200 C   0  0  0  0  0  0  0  0  0  0  0  0
   38.3370   28.7450   41.4130 N   0  0  0  0  0  0  0  0  0  0  0  0
   39.5070   25.7520   40.4260 H   0  0  0  0  0  0  0  0  0  0  0  0
   41.6100   27.1310   40.2090 H   0  0  0  0  0  0  0  0  0  0  0  0
   41.5070   29.5260   40.7870 H   0  0  0  0  0  0  0  0  0  0  0  0
   39.4210   30.9670   41.6470 C   0  0  0  0  0  0  0  0  0  0  0  0
   40.1860   31.3630   42.5770 O   0  0  0  0  0  0  0  0  0  0  0  0
   38.6010   31.9830   40.9960 C   0  0  0  0  0  0  0  0  0  0  0  0
   39.1030   33.1770   40.6470 N   0  0  0  0  0  0  0  0  0  0  0  0
   38.1260   33.9290   40.0630 C   0  0  0  0  0  0  0  0  0  0  0  0
   38.2680   34.9400   39.6890 H   0  0  0  0  0  0  0  0  0  0  0  0
   37.0270   33.1560   40.0690 N   0  0  0  0  0  0  0  0  0  0  0  0
   36.0970   33.4500   39.6850 H   0  0  0  0  0  0  0  0  0  0  0  0
   37.3130   32.0100   40.6200 N   0  0  0  0  0  0  0  0  0  0  0  0
  1  7  1  1  0  0  0
  1  6  1  0  0  0  0
  2  1  1  0  0  0  0
  2  3  1  0  0  0  0
  3 11  1  0  0  0  0
  3  4  1  0  0  0  0
  4  5  1  0  0  0  0
  4 12  1  0  0  0  0
  5 15  1  0  0  0  0
  5 14  1  0  0  0  0
  6 16  1  1  0  0  0
  6  5  1  0  0  0  0
  8  2  1  0  0  0  0
  9  2  1  0  0  0  0
 10  3  1  0  0  0  0
 13  4  1  0  0  0  0
 17 23  1  0  0  0  0
 17 18  1  0  0  0  0
 18 24  1  0  0  0  0
 19 18  2  0  0  0  0
 19  1  1  0  0  0  0
 20 19  1  0  0  0  0
 21 22  1  0  0  0  0
 21 20  2  0  0  0  0
 22 17  2  0  0  0  0
 25 21  1  0  0  0  0
 26  6  1  0  0  0  0
 26 31  1  0  0  0  0
 27 26  2  0  0  0  0
 28 27  1  0  0  0  0
 28 29  2  0  0  0  0
 29 30  1  0  0  0  0
 30 31  2  0  0  0  0
 30 35  1  0  0  0  0
 32 27  1  0  0  0  0
 33 28  1  0  0  0  0
 34 29  1  0  0  0  0
 35 36  2  0  0  0  0
 37 35  1  0  0  0  0
 38 37  1  0  0  0  0
 39 41  1  0  0  0  0
 39 38  2  0  0  0  0
 40 39  1  0  0  0  0
 41 43  1  0  0  0  0
 42 41  1  0  0  0  0
 43 37  2  0  0  0  0
M  END
>  <minimizedAffinity>
-5.79692316

$$$$

 OpenBabel03242516553D

 43 46  0  0  1  0  0  0  0  0999 V2000
   37.8340   25.8770   40.1690 C   0  0  1  0  0  0  0  0  0  0  0  0
   36.6550   25.0830   40.5170 C   0  0  0  0  0  0  0  0  0  0  0  0
   36.3220   24.2560   39.2750 C   0  0  0  0  0  0  0  0  0  0  0  0
   35.7910   25.2250   38.2530 C   0  0  0  0  0  0  0  0  0  0  0  0
   36.7170   26.3720   37.9570 C   0  0  0  0  0  0  0  0  0  0  0  0
   37.5360   26.8930   39.0610 C   0  0  1  0  0  0  0  0  0  0  0  0
   38.5880   25.1940   39.6690 H   0  0  0  0  0  0  0  0  0  0  0  0
   36.9310   24.3430   41.2950 H   0  0  0  0  0  0  0  0  0  0  0  0
   35.7710   25.6680   40.8150 H   0  0  0  0  0  0  0  0  0  0  0  0
   35.4880   23.5830   39.5520 H   0  0  0  0  0  0  0  0  0  0  0  0
   37.2210   23.7150   38.9610 H   0  0  0  0  0  0  0  0  0  0  0  0
   35.5910   24.6610   37.3330 H   0  0  0  0  0  0  0  0  0  0  0  0
   34.8360   25.6160   38.6460 H   0  0  0  0  0  0  0  0  0  0  0  0
   37.3340   26.0780   37.0780 H   0  0  0  0  0  0  0  0  0  0  0  0
   36.0740   27.2110   37.5790 H   0  0  0  0  0  0  0  0  0  0  0  0
   38.5490   27.1650   38.6520 H   0  0  0  0  0  0  0  0  0  0  0  0
   38.4700   27.4270   43.5530 C   0  0  0  0  0  0  0  0  0  0  0  0
   37.8720   26.7890   42.4650 C   0  0  0  0  0  0  0  0  0  0  0  0
   38.5240   26.5400   41.2560 C   0  0  0  0  0  0  0  0  0  0  0  0
   39.7890   26.9570   41.1900 N   0  0  0  0  0  0  0  0  0  0  0  0
   40.3840   27.5790   42.2420 C   0  0  0  0  0  0  0  0  0  0  0  0
   39.7510   27.8110   43.3940 N   0  0  0  0  0  0  0  0  0  0  0  0
   37.8920   27.5730   44.4380 H   0  0  0  0  0  0  0  0  0  0  0  0
   36.8400   26.4700   42.5660 H   0  0  0  0  0  0  0  0  0  0  0  0
   41.4140   27.8960   42.1340 H   0  0  0  0  0  0  0  0  0  0  0  0
   37.0070   28.1450   39.6060 C   0  0  0  0  0  0  0  0  0  0  0  0
   35.7130   28.3330   40.1190 C   0  0  0  0  0  0  0  0  0  0  0  0
   35.4350   29.6160   40.6000 C   0  0  0  0  0  0  0  0  0  0  0  0
   36.4420   30.5750   40.5290 C   0  0  0  0  0  0  0  0  0  0  0  0
   37.7100   30.3630   40.0170 C   0  0  0  0  0  0  0  0  0  0  0  0
   37.9640   29.1080   39.5540 N   0  0  0  0  0  0  0  0  0  0  0  0
   35.0640   27.4990   40.1010 H   0  0  0  0  0  0  0  0  0  0  0  0
   34.4660   29.7840   40.9920 H   0  0  0  0  0  0  0  0  0  0  0  0
   36.1770   31.5580   40.9160 H   0  0  0  0  0  0  0  0  0  0  0  0
   38.6880   31.4420   39.9960 C   0  0  0  0  0  0  0  0  0  0  0  0
   38.9120   32.0540   41.0840 O   0  0  0  0  0  0  0  0  0  0  0  0
   39.4410   31.8860   38.8280 C   0  0  0  0  0  0  0  0  0  0  0  0
   40.6430   32.4710   38.9430 N   0  0  0  0  0  0  0  0  0  0  0  0
   41.1180   32.7850   37.7040 C   0  0  0  0  0  0  0  0  0  0  0  0
   42.0730   33.2700   37.5150 H   0  0  0  0  0  0  0  0  0  0  0  0
   40.1730   32.3730   36.8430 N   0  0  0  0  0  0  0  0  0  0  0  0
   40.2400   32.4720   35.8010 H   0  0  0  0  0  0  0  0  0  0  0  0
   39.1870   31.8430   37.5100 N   0  0  0  0  0  0  0  0  0  0  0  0
  1  7  1  6  0  0  0
  1  2  1  0  0  0  0
  1 19  1  0  0  0  0
  2  9  1  0  0  0  0
  2  8  1  0  0  0  0
  3 10  1  0  0  0  0
  3  2  1  0  0  0  0
  4 13  1  0  0  0  0
  4  3  1  0  0  0  0
  5  4  1  0  0  0  0
  5  6  1  0  0  0  0
  6 16  1  6  0  0  0
  6 26  1  0  0  0  0
  6  1  1  0  0  0  0
 11  3  1  0  0  0  0
 12  4  1  0  0  0  0
 14  5  1  0  0  0  0
 15  5  1  0  0  0  0
 17 23  1  0  0  0  0
 18 24  1  0  0  0  0
 18 17  2  0  0  0  0
 19 18  1  0  0  0  0
 20 19  2  0  0  0  0
 20 21  1  0  0  0  0
 21 22  2  0  0  0  0
 22 17  1  0  0  0  0
 25 21  1  0  0  0  0
 26 27  1  0  0  0  0
 27 28  2  0  0  0  0
 28 33  1  0  0  0  0
 29 28  1  0  0  0  0
 29 34  1  0  0  0  0
 30 29  2  0  0  0  0
 31 26  2  0  0  0  0
 31 30  1  0  0  0  0
 32 27  1  0  0  0  0
 35 30  1  0  0  0  0
 35 36  2  0  0  0  0
 37 38  1  0  0  0  0
 37 35  1  0  0  0  0
 39 38  2  0  0  0  0
 40 39  1  0  0  0  0
 41 43  1  0  0  0  0
 41 39  1  0  0  0  0
 42 41  1  0  0  0  0
 43 37  2  0  0  0  0
M  END
>  <minimizedAffinity>
-5.77177

$$$$

 OpenBabel03242516553D

 43 46  0  0  1  0  0  0  0  0999 V2000
   37.0980   29.7210   41.3270 C   0  0  1  0  0  0  0  0  0  0  0  0
   36.7370   28.3220   41.0880 C   0  0  0  0  0  0  0  0  0  0  0  0
   36.4490   27.7190   42.4620 C   0  0  0  0  0  0  0  0  0  0  0  0
   37.7760   27.6130   43.1640 C   0  0  0  0  0  0  0  0  0  0  0  0
   38.5320   28.9100   43.2450 C   0  0  0  0  0  0  0  0  0  0  0  0
   38.4030   29.8480   42.1200 C   0  0  1  0  0  0  0  0  0  0  0  0
   36.3400   30.1650   42.0440 H   0  0  0  0  0  0  0  0  0  0  0  0
   35.7720   28.2830   40.5430 H   0  0  0  0  0  0  0  0  0  0  0  0
   37.5090   27.7230   40.5800 H   0  0  0  0  0  0  0  0  0  0  0  0
   36.0870   26.6870   42.2900 H   0  0  0  0  0  0  0  0  0  0  0  0
   35.7150   28.3500   42.9760 H   0  0  0  0  0  0  0  0  0  0  0  0
   37.5890   27.2280   44.1740 H   0  0  0  0  0  0  0  0  0  0  0  0
   38.3770   26.8730   42.6050 H   0  0  0  0  0  0  0  0  0  0  0  0
   38.2700   29.3830   44.2190 H   0  0  0  0  0  0  0  0  0  0  0  0
   39.6170   28.6420   43.3470 H   0  0  0  0  0  0  0  0  0  0  0  0
   38.3760   30.8950   42.5340 H   0  0  0  0  0  0  0  0  0  0  0  0
   37.2940   30.8430   37.7280 C   0  0  0  0  0  0  0  0  0  0  0  0
   37.2360   30.0640   38.8840 C   0  0  0  0  0  0  0  0  0  0  0  0
   37.1490   30.5930   40.1740 C   0  0  0  0  0  0  0  0  0  0  0  0
   37.1230   31.9250   40.2460 N   0  0  0  0  0  0  0  0  0  0  0  0
   37.1790   32.6950   39.1280 C   0  0  0  0  0  0  0  0  0  0  0  0
   37.2610   32.1780   37.9000 N   0  0  0  0  0  0  0  0  0  0  0  0
   37.3600   30.3480   36.7850 H   0  0  0  0  0  0  0  0  0  0  0  0
   37.2620   28.9850   38.7740 H   0  0  0  0  0  0  0  0  0  0  0  0
   37.1530   33.7710   39.2440 H   0  0  0  0  0  0  0  0  0  0  0  0
   39.5730   29.8280   41.2390 C   0  0  0  0  0  0  0  0  0  0  0  0
   40.0870   28.6950   40.5860 C   0  0  0  0  0  0  0  0  0  0  0  0
   41.2080   28.9190   39.7820 C   0  0  0  0  0  0  0  0  0  0  0  0
   41.7070   30.2160   39.6990 C   0  0  0  0  0  0  0  0  0  0  0  0
   41.1810   31.3160   40.3540 C   0  0  0  0  0  0  0  0  0  0  0  0
   40.0890   31.0800   41.1330 N   0  0  0  0  0  0  0  0  0  0  0  0
   39.5900   27.7770   40.7550 H   0  0  0  0  0  0  0  0  0  0  0  0
   41.6150   28.0810   39.2780 H   0  0  0  0  0  0  0  0  0  0  0  0
   42.5800   30.3390   39.0590 H   0  0  0  0  0  0  0  0  0  0  0  0
   41.7840   32.6310   40.1910 C   0  0  0  0  0  0  0  0  0  0  0  0
   41.9240   33.3470   41.2290 O   0  0  0  0  0  0  0  0  0  0  0  0
   42.2450   33.2060   38.9320 C   0  0  0  0  0  0  0  0  0  0  0  0
   43.5440   33.2200   38.5970 N   0  0  0  0  0  0  0  0  0  0  0  0
   43.6940   33.8140   37.3780 C   0  0  0  0  0  0  0  0  0  0  0  0
   44.6480   33.9540   36.8740 H   0  0  0  0  0  0  0  0  0  0  0  0
   42.4540   34.1560   36.9910 N   0  0  0  0  0  0  0  0  0  0  0  0
   42.2290   34.6370   36.0870 H   0  0  0  0  0  0  0  0  0  0  0  0
   41.6040   33.7960   37.9110 N   0  0  0  0  0  0  0  0  0  0  0  0
  1  7  1  1  0  0  0
  1  6  1  0  0  0  0
  2  1  1  0  0  0  0
  2  3  1  0  0  0  0
  3 11  1  0  0  0  0
  3  4  1  0  0  0  0
  4  5  1  0  0  0  0
  4 12  1  0  0  0  0
  5 15  1  0  0  0  0
  5 14  1  0  0  0  0
  6 16  1  1  0  0  0
  6  5  1  0  0  0  0
  8  2  1  0  0  0  0
  9  2  1  0  0  0  0
 10  3  1  0  0  0  0
 13  4  1  0  0  0  0
 17 22  2  0  0  0  0
 17 18  1  0  0  0  0
 18 19  2  0  0  0  0
 19 20  1  0  0  0  0
 19  1  1  0  0  0  0
 21 25  1  0  0  0  0
 21 20  2  0  0  0  0
 22 21  1  0  0  0  0
 23 17  1  0  0  0  0
 24 18  1  0  0  0  0
 26  6  1  0  0  0  0
 27 32  1  0  0  0  0
 27 26  2  0  0  0  0
 28 27  1  0  0  0  0
 29 28  2  0  0  0  0
 29 30  1  0  0  0  0
 30 31  2  0  0  0  0
 31 26  1  0  0  0  0
 33 28  1  0  0  0  0
 34 29  1  0  0  0  0
 35 30  1  0  0  0  0
 35 36  2  0  0  0  0
 37 35  1  0  0  0  0
 38 37  1  0  0  0  0
 39 38  2  0  0  0  0
 40 39  1  0  0  0  0
 41 39  1  0  0  0  0
 41 43  1  0  0  0  0
 42 41  1  0  0  0  0
 43 37  2  0  0  0  0
M  END
>  <minimizedAffinity>
-5.77160168

$$$$

 OpenBabel03242516553D

 43 46  0  0  1  0  0  0  0  0999 V2000
   36.5890   30.5550   39.1480 C   0  0  1  0  0  0  0  0  0  0  0  0
   36.7420   29.6500   38.0080 C   0  0  0  0  0  0  0  0  0  0  0  0
   35.3330   29.4170   37.4620 C   0  0  0  0  0  0  0  0  0  0  0  0
   34.6220   28.5660   38.4800 C   0  0  0  0  0  0  0  0  0  0  0  0
   34.6190   29.1440   39.8670 C   0  0  0  0  0  0  0  0  0  0  0  0
   35.8010   29.9080   40.2920 C   0  0  1  0  0  0  0  0  0  0  0  0
   35.9050   31.4040   38.8380 H   0  0  0  0  0  0  0  0  0  0  0  0
   37.2860   30.1740   37.1970 H   0  0  0  0  0  0  0  0  0  0  0  0
   37.2080   28.6800   38.2430 H   0  0  0  0  0  0  0  0  0  0  0  0
   35.4410   28.8060   36.5450 H   0  0  0  0  0  0  0  0  0  0  0  0
   34.8630   30.3880   37.2770 H   0  0  0  0  0  0  0  0  0  0  0  0
   33.5900   28.4260   38.1330 H   0  0  0  0  0  0  0  0  0  0  0  0
   35.1300   27.5850   38.4910 H   0  0  0  0  0  0  0  0  0  0  0  0
   33.6780   29.7290   39.9790 H   0  0  0  0  0  0  0  0  0  0  0  0
   34.4960   28.2790   40.5730 H   0  0  0  0  0  0  0  0  0  0  0  0
   35.4530   30.7780   40.9170 H   0  0  0  0  0  0  0  0  0  0  0  0
   38.8650   33.0240   40.8740 C   0  0  0  0  0  0  0  0  0  0  0  0
   37.7440   32.3810   40.3460 C   0  0  0  0  0  0  0  0  0  0  0  0
   37.7950   31.1580   39.6750 C   0  0  0  0  0  0  0  0  0  0  0  0
   39.0090   30.6160   39.5610 N   0  0  0  0  0  0  0  0  0  0  0  0
   40.1070   31.2310   40.0720 C   0  0  0  0  0  0  0  0  0  0  0  0
   40.0470   32.4000   40.7120 N   0  0  0  0  0  0  0  0  0  0  0  0
   38.7270   33.9580   41.3720 H   0  0  0  0  0  0  0  0  0  0  0  0
   36.7790   32.8620   40.4620 H   0  0  0  0  0  0  0  0  0  0  0  0
   41.0690   30.7460   39.9520 H   0  0  0  0  0  0  0  0  0  0  0  0
   36.6740   29.1380   41.1800 C   0  0  0  0  0  0  0  0  0  0  0  0
   37.2500   29.6090   42.3720 C   0  0  0  0  0  0  0  0  0  0  0  0
   38.0400   28.6870   43.0650 C   0  0  0  0  0  0  0  0  0  0  0  0
   38.1850   27.4120   42.5270 C   0  0  0  0  0  0  0  0  0  0  0  0
   37.6060   26.9730   41.3480 C   0  0  0  0  0  0  0  0  0  0  0  0
   36.8400   27.8830   40.6870 N   0  0  0  0  0  0  0  0  0  0  0  0
   37.0410   30.6090   42.6440 H   0  0  0  0  0  0  0  0  0  0  0  0
   38.4860   29.0170   43.9670 H   0  0  0  0  0  0  0  0  0  0  0  0
   38.8100   26.7300   43.1040 H   0  0  0  0  0  0  0  0  0  0  0  0
   37.8230   25.6120   40.8800 C   0  0  0  0  0  0  0  0  0  0  0  0
   38.9040   25.0390   41.2160 O   0  0  0  0  0  0  0  0  0  0  0  0
   36.9030   24.8390   40.0520 C   0  0  0  0  0  0  0  0  0  0  0  0
   36.1120   23.8900   40.5740 N   0  0  0  0  0  0  0  0  0  0  0  0
   35.3600   23.3270   39.5840 C   0  0  0  0  0  0  0  0  0  0  0  0
   34.6360   22.5310   39.7380 H   0  0  0  0  0  0  0  0  0  0  0  0
   35.7200   23.9640   38.4570 N   0  0  0  0  0  0  0  0  0  0  0  0
   35.3180   23.7590   37.5110 H   0  0  0  0  0  0  0  0  0  0  0  0
   36.6290   24.8530   38.7380 N   0  0  0  0  0  0  0  0  0  0  0  0
  1  7  1  6  0  0  0
  1 19  1  0  0  0  0
  1  6  1  0  0  0  0
  2  9  1  0  0  0  0
  2  1  1  0  0  0  0
  3  2  1  0  0  0  0
  3  4  1  0  0  0  0
  4 13  1  0  0  0  0
  4  5  1  0  0  0  0
  5 14  1  0  0  0  0
  5  6  1  0  0  0  0
  5 15  1  0  0  0  0
  6 16  1  1  0  0  0
  6 26  1  0  0  0  0
  8  2  1  0  0  0  0
 10  3  1  0  0  0  0
 11  3  1  0  0  0  0
 12  4  1  0  0  0  0
 17 23  1  0  0  0  0
 18 24  1  0  0  0  0
 18 17  2  0  0  0  0
 19 18  1  0  0  0  0
 20 19  2  0  0  0  0
 20 21  1  0  0  0  0
 21 22  2  0  0  0  0
 22 17  1  0  0  0  0
 25 21  1  0  0  0  0
 26 27  1  0  0  0  0
 27 32  1  0  0  0  0
 27 28  2  0  0  0  0
 28 33  1  0  0  0  0
 29 28  1  0  0  0  0
 29 34  1  0  0  0  0
 30 29  2  0  0  0  0
 31 26  2  0  0  0  0
 31 30  1  0  0  0  0
 35 36  2  0  0  0  0
 35 30  1  0  0  0  0
 37 38  1  0  0  0  0
 37 35  1  0  0  0  0
 39 40  1  0  0  0  0
 39 38  2  0  0  0  0
 41 43  1  0  0  0  0
 41 39  1  0  0  0  0
 42 41  1  0  0  0  0
 43 37  2  0  0  0  0
M  END
>  <minimizedAffinity>
-5.75340509

$$$$

 OpenBabel03242516553D

 43 46  0  0  1  0  0  0  0  0999 V2000
   37.9220   26.2650   41.3050 C   0  0  1  0  0  0  0  0  0  0  0  0
   39.3380   26.6060   41.4490 C   0  0  0  0  0  0  0  0  0  0  0  0
   39.6630   26.4450   42.9330 C   0  0  0  0  0  0  0  0  0  0  0  0
   38.9670   27.5750   43.6430 C   0  0  0  0  0  0  0  0  0  0  0  0
   37.4890   27.6480   43.3770 C   0  0  0  0  0  0  0  0  0  0  0  0
   37.0160   27.2580   42.0400 C   0  0  1  0  0  0  0  0  0  0  0  0
   37.7300   25.3030   41.8720 H   0  0  0  0  0  0  0  0  0  0  0  0
   39.9520   25.8420   40.9310 H   0  0  0  0  0  0  0  0  0  0  0  0
   39.6070   27.6240   41.1240 H   0  0  0  0  0  0  0  0  0  0  0  0
   40.7520   26.6110   43.0440 H   0  0  0  0  0  0  0  0  0  0  0  0
   39.3490   25.4460   43.2550 H   0  0  0  0  0  0  0  0  0  0  0  0
   39.1450   27.4510   44.7190 H   0  0  0  0  0  0  0  0  0  0  0  0
   39.4480   28.5110   43.3070 H   0  0  0  0  0  0  0  0  0  0  0  0
   36.9800   27.0780   44.1860 H   0  0  0  0  0  0  0  0  0  0  0  0
   37.1860   28.7150   43.5520 H   0  0  0  0  0  0  0  0  0  0  0  0
   36.0390   26.7100   42.1580 H   0  0  0  0  0  0  0  0  0  0  0  0
   37.7020   26.4340   37.5400 C   0  0  0  0  0  0  0  0  0  0  0  0
   38.1220   26.5810   38.8630 C   0  0  0  0  0  0  0  0  0  0  0  0
   37.4270   26.0670   39.9600 C   0  0  0  0  0  0  0  0  0  0  0  0
   36.3050   25.4060   39.6700 N   0  0  0  0  0  0  0  0  0  0  0  0
   35.8850   25.2560   38.3860 C   0  0  0  0  0  0  0  0  0  0  0  0
   36.5580   25.7500   37.3450 N   0  0  0  0  0  0  0  0  0  0  0  0
   38.3000   26.8610   36.7670 H   0  0  0  0  0  0  0  0  0  0  0  0
   39.0400   27.1270   39.0490 H   0  0  0  0  0  0  0  0  0  0  0  0
   34.9670   24.7100   38.2070 H   0  0  0  0  0  0  0  0  0  0  0  0
   36.6930   28.4150   41.2030 C   0  0  0  0  0  0  0  0  0  0  0  0
   35.4470   28.6730   40.6060 C   0  0  0  0  0  0  0  0  0  0  0  0
   35.3690   29.8520   39.8590 C   0  0  0  0  0  0  0  0  0  0  0  0
   36.5050   30.6500   39.7720 C   0  0  0  0  0  0  0  0  0  0  0  0
   37.7230   30.3720   40.3690 C   0  0  0  0  0  0  0  0  0  0  0  0
   37.7820   29.2220   41.0940 N   0  0  0  0  0  0  0  0  0  0  0  0
   34.6810   27.9630   40.7700 H   0  0  0  0  0  0  0  0  0  0  0  0
   34.4390   30.0690   39.3990 H   0  0  0  0  0  0  0  0  0  0  0  0
   36.3930   31.5570   39.1790 H   0  0  0  0  0  0  0  0  0  0  0  0
   38.8470   31.2840   40.2140 C   0  0  0  0  0  0  0  0  0  0  0  0
   39.3190   31.8200   41.2620 O   0  0  0  0  0  0  0  0  0  0  0  0
   39.4860   31.6400   38.9510 C   0  0  0  0  0  0  0  0  0  0  0  0
   40.8200   31.6300   38.8080 N   0  0  0  0  0  0  0  0  0  0  0  0
   41.1450   32.0040   37.5370 C   0  0  0  0  0  0  0  0  0  0  0  0
   42.1610   32.0790   37.1580 H   0  0  0  0  0  0  0  0  0  0  0  0
   39.9730   32.2370   36.9220 N   0  0  0  0  0  0  0  0  0  0  0  0
   39.8820   32.5440   35.9240 H   0  0  0  0  0  0  0  0  0  0  0  0
   38.9990   32.0210   37.7600 N   0  0  0  0  0  0  0  0  0  0  0  0
  1  2  1  0  0  0  0
  1  7  1  1  0  0  0
  1  6  1  0  0  0  0
  2  3  1  0  0  0  0
  3 10  1  0  0  0  0
  3 11  1  0  0  0  0
  3  4  1  0  0  0  0
  4 12  1  0  0  0  0
  5 15  1  0  0  0  0
  5  4  1  0  0  0  0
  5 14  1  0  0  0  0
  6 16  1  1  0  0  0
  6  5  1  0  0  0  0
  8  2  1  0  0  0  0
  9  2  1  0  0  0  0
 13  4  1  0  0  0  0
 17 18  1  0  0  0  0
 18 24  1  0  0  0  0
 18 19  2  0  0  0  0
 19  1  1  0  0  0  0
 20 19  1  0  0  0  0
 21 20  2  0  0  0  0
 22 17  2  0  0  0  0
 22 21  1  0  0  0  0
 23 17  1  0  0  0  0
 25 21  1  0  0  0  0
 26  6  1  0  0  0  0
 27 32  1  0  0  0  0
 27 26  2  0  0  0  0
 28 27  1  0  0  0  0
 29 28  2  0  0  0  0
 29 30  1  0  0  0  0
 30 31  2  0  0  0  0
 31 26  1  0  0  0  0
 33 28  1  0  0  0  0
 34 29  1  0  0  0  0
 35 30  1  0  0  0  0
 35 36  2  0  0  0  0
 37 35  1  0  0  0  0
 38 37  1  0  0  0  0
 39 38  2  0  0  0  0
 40 39  1  0  0  0  0
 41 39  1  0  0  0  0
 41 43  1  0  0  0  0
 42 41  1  0  0  0  0
 43 37  2  0  0  0  0
M  END
>  <minimizedAffinity>
-5.74609184

$$$$

 OpenBabel03242516553D

 43 46  0  0  1  0  0  0  0  0999 V2000
   37.9920   25.5630   40.9540 C   0  0  1  0  0  0  0  0  0  0  0  0
   36.8710   24.6380   41.1250 C   0  0  0  0  0  0  0  0  0  0  0  0
   37.2420   23.3760   40.3460 C   0  0  0  0  0  0  0  0  0  0  0  0
   37.1630   23.7420   38.8870 C   0  0  0  0  0  0  0  0  0  0  0  0
   38.0050   24.9290   38.5070 C   0  0  0  0  0  0  0  0  0  0  0  0
   38.1540   26.0070   39.4960 C   0  0  1  0  0  0  0  0  0  0  0  0
   38.9540   24.9920   41.1370 H   0  0  0  0  0  0  0  0  0  0  0  0
   36.8180   24.3210   42.1860 H   0  0  0  0  0  0  0  0  0  0  0  0
   35.8990   25.0150   40.7700 H   0  0  0  0  0  0  0  0  0  0  0  0
   36.4440   22.6330   40.5390 H   0  0  0  0  0  0  0  0  0  0  0  0
   38.2300   23.0390   40.6740 H   0  0  0  0  0  0  0  0  0  0  0  0
   37.4750   22.8650   38.3070 H   0  0  0  0  0  0  0  0  0  0  0  0
   36.1030   23.9590   38.6670 H   0  0  0  0  0  0  0  0  0  0  0  0
   38.9880   24.5380   38.1600 H   0  0  0  0  0  0  0  0  0  0  0  0
   37.5380   25.3690   37.5860 H   0  0  0  0  0  0  0  0  0  0  0  0
   39.2090   26.3960   39.4380 H   0  0  0  0  0  0  0  0  0  0  0  0
   36.8690   28.1690   43.4440 C   0  0  0  0  0  0  0  0  0  0  0  0
   36.9130   27.0620   42.5950 C   0  0  0  0  0  0  0  0  0  0  0  0
   38.0230   26.7250   41.8170 C   0  0  0  0  0  0  0  0  0  0  0  0
   39.0720   27.5410   41.9290 N   0  0  0  0  0  0  0  0  0  0  0  0
   39.0410   28.6220   42.7520 C   0  0  0  0  0  0  0  0  0  0  0  0
   37.9760   28.9340   43.4930 N   0  0  0  0  0  0  0  0  0  0  0  0
   35.9760   28.3470   44.0010 H   0  0  0  0  0  0  0  0  0  0  0  0
   36.0350   26.4290   42.5360 H   0  0  0  0  0  0  0  0  0  0  0  0
   39.9220   29.2510   42.8060 H   0  0  0  0  0  0  0  0  0  0  0  0
   37.3130   27.1660   39.1900 C   0  0  0  0  0  0  0  0  0  0  0  0
   35.9110   27.1610   39.1000 C   0  0  0  0  0  0  0  0  0  0  0  0
   35.3210   28.3940   38.8090 C   0  0  0  0  0  0  0  0  0  0  0  0
   36.1540   29.4950   38.6360 C   0  0  0  0  0  0  0  0  0  0  0  0
   37.5350   29.4730   38.7280 C   0  0  0  0  0  0  0  0  0  0  0  0
   38.0940   28.2650   39.0140 N   0  0  0  0  0  0  0  0  0  0  0  0
   35.4240   26.2370   39.2600 H   0  0  0  0  0  0  0  0  0  0  0  0
   34.2650   28.4170   38.7360 H   0  0  0  0  0  0  0  0  0  0  0  0
   35.6470   30.4330   38.4100 H   0  0  0  0  0  0  0  0  0  0  0  0
   38.3090   30.6910   38.5310 C   0  0  0  0  0  0  0  0  0  0  0  0
   39.2340   30.6650   37.6640 O   0  0  0  0  0  0  0  0  0  0  0  0
   38.1160   31.9470   39.2460 C   0  0  0  0  0  0  0  0  0  0  0  0
   39.0250   32.4110   40.1170 N   0  0  0  0  0  0  0  0  0  0  0  0
   38.5940   33.5950   40.6390 C   0  0  0  0  0  0  0  0  0  0  0  0
   39.1440   34.1820   41.3710 H   0  0  0  0  0  0  0  0  0  0  0  0
   37.4050   33.8300   40.0610 N   0  0  0  0  0  0  0  0  0  0  0  0
   36.8100   34.6710   40.2540 H   0  0  0  0  0  0  0  0  0  0  0  0
   37.1280   32.8560   39.2400 N   0  0  0  0  0  0  0  0  0  0  0  0
  1  2  1  0  0  0  0
  1  7  1  1  0  0  0
  1 19  1  0  0  0  0
  2  8  1  0  0  0  0
  3 10  1  0  0  0  0
  3 11  1  0  0  0  0
  3  2  1  0  0  0  0
  4  3  1  0  0  0  0
  5  4  1  0  0  0  0
  5  6  1  0  0  0  0
  6 16  1  6  0  0  0
  6  1  1  0  0  0  0
  9  2  1  0  0  0  0
 12  4  1  0  0  0  0
 13  4  1  0  0  0  0
 14  5  1  0  0  0  0
 15  5  1  0  0  0  0
 17 22  1  0  0  0  0
 17 23  1  0  0  0  0
 18 17  2  0  0  0  0
 19 20  2  0  0  0  0
 19 18  1  0  0  0  0
 20 21  1  0  0  0  0
 21 25  1  0  0  0  0
 21 22  2  0  0  0  0
 24 18  1  0  0  0  0
 26  6  1  0  0  0  0
 27 26  1  0  0  0  0
 27 32  1  0  0  0  0
 28 27  2  0  0  0  0
 29 30  2  0  0  0  0
 29 28  1  0  0  0  0
 30 31  1  0  0  0  0
 31 26  2  0  0  0  0
 33 28  1  0  0  0  0
 34 29  1  0  0  0  0
 35 30  1  0  0  0  0
 35 37  1  0  0  0  0
 36 35  2  0  0  0  0
 37 38  1  0  0  0  0
 38 39  2  0  0  0  0
 39 40  1  0  0  0  0
 41 42  1  0  0  0  0
 41 39  1  0  0  0  0
 43 37  2  0  0  0  0
 43 41  1  0  0  0  0
M  END
>  <minimizedAffinity>
-5.71735096

$$$$
