
 OpenBabel03242522503D

 24 25  0  0  0  0  0  0  0  0999 V2000
   45.4290   30.7810   47.5790 O   0  0  0  0  0  0  0  0  0  0  0  0
   45.8140   32.0470   48.3870 P   0  0  2  0  0  0  0  0  0  0  0  0
   45.1860   31.7930   49.9260 O   0  0  0  0  0  0  0  0  0  0  0  0
   45.8380   32.0080   50.6410 H   0  0  0  0  0  0  0  0  0  0  0  0
   45.0630   33.3700   47.6560 O   0  0  0  0  0  0  0  0  0  0  0  0
   46.7840   33.4240   44.4530 C   0  0  0  0  0  0  0  0  0  0  0  0
   46.4050   33.0640   45.7650 C   0  0  0  0  0  0  0  0  0  0  0  0
   45.3900   33.7600   46.3760 C   0  0  0  0  0  0  0  0  0  0  0  0
   44.7920   34.7660   45.6890 N   0  0  0  0  0  0  0  0  0  0  0  0
   45.1590   35.0980   44.4470 C   0  0  0  0  0  0  0  0  0  0  0  0
   46.1530   34.4330   43.8220 N   0  0  0  0  0  0  0  0  0  0  0  0
   47.5690   32.9400   43.8890 H   0  0  0  0  0  0  0  0  0  0  0  0
   46.9970   32.2520   46.1140 H   0  0  0  0  0  0  0  0  0  0  0  0
   44.5550   35.9230   44.0900 H   0  0  0  0  0  0  0  0  0  0  0  0
   47.4610   32.1990   48.3930 O   0  0  0  0  0  0  0  0  0  0  0  0
   48.4630   31.3670   48.7330 C   0  0  0  0  0  0  0  0  0  0  0  0
   49.4610   32.0010   49.3170 O   0  0  0  0  0  0  0  0  0  0  0  0
   48.9690   29.9760   48.7380 C   0  0  0  0  0  0  0  0  0  0  0  0
   49.8370   29.5030   49.6020 N   0  0  0  0  0  0  0  0  0  0  0  0
   50.0940   28.1870   49.3100 C   0  0  0  0  0  0  0  0  0  0  0  0
   50.8030   27.7280   49.9810 H   0  0  0  0  0  0  0  0  0  0  0  0
   49.3610   27.8570   48.2440 N   0  0  0  0  0  0  0  0  0  0  0  0
   49.4150   26.8920   47.8640 H   0  0  0  0  0  0  0  0  0  0  0  0
   48.6980   28.9210   47.9130 N   0  0  0  0  0  0  0  0  0  0  0  0
  2  1  2  6  0  0  0
  2 15  1  0  0  0  0
  2  3  1  0  0  0  0
  3  4  1  0  0  0  0
  5  2  1  0  0  0  0
  6  7  1  0  0  0  0
  7 13  1  0  0  0  0
  7  8  2  0  0  0  0
  8  5  1  0  0  0  0
  9  8  1  0  0  0  0
 10  9  2  0  0  0  0
 11 10  1  0  0  0  0
 11  6  2  0  0  0  0
 12  6  1  0  0  0  0
 14 10  1  0  0  0  0
 15 16  1  0  0  0  0
 16 18  1  0  0  0  0
 16 17  2  0  0  0  0
 18 19  1  0  0  0  0
 20 19  2  0  0  0  0
 20 21  1  0  0  0  0
 22 20  1  0  0  0  0
 23 22  1  0  0  0  0
 24 22  1  0  0  0  0
 24 18  2  0  0  0  0
M  END
>  <minimizedAffinity>
-4.5883069

>  <minimizedRMSD>
0.613454223

$$$$
