
 OpenBabel03242521453D

 36 38  0  0  1  0  0  0  0  0999 V2000
   38.5910   32.4850   39.2510 C   0  0  0  0  0  0  0  0  0  0  0  0
   39.9430   32.3370   38.9180 C   0  0  0  0  0  0  0  0  0  0  0  0
   40.8460   33.3520   39.2670 C   0  0  0  0  0  0  0  0  0  0  0  0
   40.3590   34.4150   39.9040 N   0  0  0  0  0  0  0  0  0  0  0  0
   39.0430   34.5360   40.2160 C   0  0  0  0  0  0  0  0  0  0  0  0
   38.1580   33.5730   39.8900 N   0  0  0  0  0  0  0  0  0  0  0  0
   40.2230   31.4500   38.4110 H   0  0  0  0  0  0  0  0  0  0  0  0
   38.7260   35.4390   40.7390 H   0  0  0  0  0  0  0  0  0  0  0  0
   42.4960   33.0380   37.4330 C   0  0  2  0  0  0  0  0  0  0  0  0
   42.2370   33.1400   38.8950 C   0  0  2  0  0  0  0  0  0  0  0  0
   42.7770   31.9010   39.3520 O   0  0  0  0  0  0  0  0  0  0  0  0
   44.0270   31.8950   38.7830 C   0  0  0  0  0  0  0  0  0  0  0  0
   43.9980   32.6920   37.5010 C   0  0  1  0  0  0  0  0  0  0  0  0
   42.0320   32.1550   36.9560 H   0  0  0  0  0  0  0  0  0  0  0  0
   42.8690   33.9370   39.3350 H   0  0  0  0  0  0  0  0  0  0  0  0
   44.8330   32.2330   39.4790 H   0  0  0  0  0  0  0  0  0  0  0  0
   44.2760   30.8480   38.5110 H   0  0  0  0  0  0  0  0  0  0  0  0
   44.6110   33.6020   37.5880 H   0  0  0  0  0  0  0  0  0  0  0  0
   42.2210   34.1640   36.7190 O   0  0  0  0  0  0  0  0  0  0  0  0
   41.3830   34.5470   37.0420 H   0  0  0  0  0  0  0  0  0  0  0  0
   44.3340   31.9540   36.3700 O   0  0  0  0  0  0  0  0  0  0  0  0
   45.2910   32.0020   36.1510 H   0  0  0  0  0  0  0  0  0  0  0  0
   37.6370   31.3870   38.8590 C   0  0  0  0  0  0  0  0  0  0  0  0
   36.6180   31.7800   38.8330 H   0  0  0  0  0  0  0  0  0  0  0  0
   37.9590   30.9320   37.9020 H   0  0  0  0  0  0  0  0  0  0  0  0
   36.9480   30.2510   41.0600 C   0  0  0  0  0  0  0  0  0  0  0  0
   36.0850   31.1520   41.2500 O   0  0  0  0  0  0  0  0  0  0  0  0
   37.7370   30.3670   39.8970 N   0  0  0  0  0  0  0  0  0  0  0  0
   38.4790   29.6300   39.7730 H   0  0  0  0  0  0  0  0  0  0  0  0
   37.1230   29.1500   41.9910 C   0  0  0  0  0  0  0  0  0  0  0  0
   36.5740   27.9260   41.8960 N   0  0  0  0  0  0  0  0  0  0  0  0
   36.9820   27.1860   42.9610 C   0  0  0  0  0  0  0  0  0  0  0  0
   36.7050   26.1510   43.1650 H   0  0  0  0  0  0  0  0  0  0  0  0
   37.7840   27.9920   43.6950 N   0  0  0  0  0  0  0  0  0  0  0  0
   38.2740   27.7360   44.5930 H   0  0  0  0  0  0  0  0  0  0  0  0
   37.8680   29.1890   43.1010 N   0  0  0  0  0  0  0  0  0  0  0  0
  1  6  1  0  0  0  0
  2  1  2  0  0  0  0
  2  3  1  0  0  0  0
  3  4  2  0  0  0  0
  4  5  1  0  0  0  0
  5  8  1  0  0  0  0
  6  5  2  0  0  0  0
  7  2  1  0  0  0  0
  9 14  1  6  0  0  0
  9 13  1  0  0  0  0
  9 10  1  0  0  0  0
 10  3  1  0  0  0  0
 10 15  1  1  0  0  0
 10 11  1  0  0  0  0
 12 11  1  0  0  0  0
 12 16  1  0  0  0  0
 13 18  1  1  0  0  0
 13 12  1  0  0  0  0
 17 12  1  0  0  0  0
 19 20  1  0  0  0  0
 19  9  1  0  0  0  0
 21 13  1  0  0  0  0
 22 21  1  0  0  0  0
 23  1  1  0  0  0  0
 23 28  1  0  0  0  0
 24 23  1  0  0  0  0
 25 23  1  0  0  0  0
 26 27  2  0  0  0  0
 26 30  1  0  0  0  0
 28 26  1  0  0  0  0
 29 28  1  0  0  0  0
 30 36  2  0  0  0  0
 31 30  1  0  0  0  0
 31 32  2  0  0  0  0
 32 33  1  0  0  0  0
 32 34  1  0  0  0  0
 34 35  1  0  0  0  0
 36 34  1  0  0  0  0
M  END
>  <minimizedAffinity>
-5.88729286

$$$$

 OpenBabel03242521453D

 36 38  0  0  1  0  0  0  0  0999 V2000
   38.4780   30.7220   41.4150 C   0  0  0  0  0  0  0  0  0  0  0  0
   39.4800   31.4670   40.7810 C   0  0  0  0  0  0  0  0  0  0  0  0
   39.1550   32.2150   39.6400 C   0  0  0  0  0  0  0  0  0  0  0  0
   37.8940   32.1730   39.2170 N   0  0  0  0  0  0  0  0  0  0  0  0
   36.9390   31.4420   39.8480 C   0  0  0  0  0  0  0  0  0  0  0  0
   37.2290   30.7160   40.9460 N   0  0  0  0  0  0  0  0  0  0  0  0
   40.4520   31.4300   41.2030 H   0  0  0  0  0  0  0  0  0  0  0  0
   35.9300   31.4620   39.4360 H   0  0  0  0  0  0  0  0  0  0  0  0
   40.7460   32.4230   37.7390 C   0  0  2  0  0  0  0  0  0  0  0  0
   40.2400   32.9700   39.0280 C   0  0  2  0  0  0  0  0  0  0  0  0
   41.4380   32.9940   39.8010 O   0  0  0  0  0  0  0  0  0  0  0  0
   42.3130   33.6490   38.9700 C   0  0  0  0  0  0  0  0  0  0  0  0
   41.9200   33.4030   37.5330 C   0  0  1  0  0  0  0  0  0  0  0  0
   41.2280   31.4330   37.8310 H   0  0  0  0  0  0  0  0  0  0  0  0
   39.9330   34.0260   38.8950 H   0  0  0  0  0  0  0  0  0  0  0  0
   42.4190   34.7360   39.2050 H   0  0  0  0  0  0  0  0  0  0  0  0
   43.3210   33.2050   39.1130 H   0  0  0  0  0  0  0  0  0  0  0  0
   41.5800   34.3330   37.0530 H   0  0  0  0  0  0  0  0  0  0  0  0
   39.8440   32.4210   36.7200 O   0  0  0  0  0  0  0  0  0  0  0  0
   38.9760   32.1340   37.0660 H   0  0  0  0  0  0  0  0  0  0  0  0
   42.9010   32.7660   36.7800 O   0  0  0  0  0  0  0  0  0  0  0  0
   43.4910   33.3960   36.3090 H   0  0  0  0  0  0  0  0  0  0  0  0
   38.8510   29.9190   42.6340 C   0  0  0  0  0  0  0  0  0  0  0  0
   39.9370   29.9290   42.7600 H   0  0  0  0  0  0  0  0  0  0  0  0
   38.3000   30.2970   43.5160 H   0  0  0  0  0  0  0  0  0  0  0  0
   38.9880   27.3610   42.8530 C   0  0  0  0  0  0  0  0  0  0  0  0
   40.0370   27.4800   43.5450 O   0  0  0  0  0  0  0  0  0  0  0  0
   38.4060   28.5530   42.3770 N   0  0  0  0  0  0  0  0  0  0  0  0
   37.5540   28.4350   41.7690 H   0  0  0  0  0  0  0  0  0  0  0  0
   38.4090   26.0620   42.5610 C   0  0  0  0  0  0  0  0  0  0  0  0
   37.1760   25.8250   42.0790 N   0  0  0  0  0  0  0  0  0  0  0  0
   37.0160   24.4810   41.9420 C   0  0  0  0  0  0  0  0  0  0  0  0
   36.1220   23.9770   41.5740 H   0  0  0  0  0  0  0  0  0  0  0  0
   38.1780   23.9200   42.3520 N   0  0  0  0  0  0  0  0  0  0  0  0
   38.3990   22.8890   42.3780 H   0  0  0  0  0  0  0  0  0  0  0  0
   39.0250   24.8860   42.7290 N   0  0  0  0  0  0  0  0  0  0  0  0
  1 23  1  0  0  0  0
  2  7  1  0  0  0  0
  2  1  2  0  0  0  0
  3  2  1  0  0  0  0
  4  3  2  0  0  0  0
  4  5  1  0  0  0  0
  5  6  2  0  0  0  0
  6  1  1  0  0  0  0
  8  5  1  0  0  0  0
  9 14  1  1  0  0  0
  9 10  1  0  0  0  0
 10 15  1  6  0  0  0
 10  3  1  0  0  0  0
 10 11  1  0  0  0  0
 12 17  1  0  0  0  0
 12 16  1  0  0  0  0
 12 11  1  0  0  0  0
 13 18  1  6  0  0  0
 13  9  1  0  0  0  0
 13 12  1  0  0  0  0
 19 20  1  0  0  0  0
 19  9  1  0  0  0  0
 21 13  1  0  0  0  0
 22 21  1  0  0  0  0
 23 24  1  0  0  0  0
 23 25  1  0  0  0  0
 26 27  2  0  0  0  0
 28 23  1  0  0  0  0
 28 26  1  0  0  0  0
 29 28  1  0  0  0  0
 30 36  2  0  0  0  0
 30 26  1  0  0  0  0
 31 30  1  0  0  0  0
 32 31  2  0  0  0  0
 32 34  1  0  0  0  0
 33 32  1  0  0  0  0
 34 35  1  0  0  0  0
 34 36  1  0  0  0  0
M  END
>  <minimizedAffinity>
-5.84878111

$$$$

 OpenBabel03242521453D

 36 38  0  0  1  0  0  0  0  0999 V2000
   36.9780   29.4630   41.5420 C   0  0  0  0  0  0  0  0  0  0  0  0
   36.8840   28.2250   40.8940 C   0  0  0  0  0  0  0  0  0  0  0  0
   37.4210   27.0870   41.5140 C   0  0  0  0  0  0  0  0  0  0  0  0
   37.9990   27.2510   42.7010 N   0  0  0  0  0  0  0  0  0  0  0  0
   38.0780   28.4620   43.3110 C   0  0  0  0  0  0  0  0  0  0  0  0
   37.5690   29.5680   42.7340 N   0  0  0  0  0  0  0  0  0  0  0  0
   36.4030   28.2080   39.9490 H   0  0  0  0  0  0  0  0  0  0  0  0
   38.5680   28.5080   44.2840 H   0  0  0  0  0  0  0  0  0  0  0  0
   37.3690   24.6030   41.6260 C   0  0  2  0  0  0  0  0  0  0  0  0
   37.2910   25.8310   40.7890 C   0  0  2  0  0  0  0  0  0  0  0  0
   38.3410   25.5900   39.8550 O   0  0  0  0  0  0  0  0  0  0  0  0
   38.0530   24.3240   39.4070 C   0  0  0  0  0  0  0  0  0  0  0  0
   37.3280   23.5610   40.4900 C   0  0  1  0  0  0  0  0  0  0  0  0
   38.3540   24.4490   42.1040 H   0  0  0  0  0  0  0  0  0  0  0  0
   36.3480   25.8310   40.2070 H   0  0  0  0  0  0  0  0  0  0  0  0
   37.5030   24.3120   38.4340 H   0  0  0  0  0  0  0  0  0  0  0  0
   39.0120   23.7970   39.2230 H   0  0  0  0  0  0  0  0  0  0  0  0
   36.2910   23.3410   40.1910 H   0  0  0  0  0  0  0  0  0  0  0  0
   36.3700   24.4640   42.5400 O   0  0  0  0  0  0  0  0  0  0  0  0
   36.1990   25.3300   42.9570 H   0  0  0  0  0  0  0  0  0  0  0  0
   37.9920   22.4150   40.9150 O   0  0  0  0  0  0  0  0  0  0  0  0
   37.7140   21.6070   40.4280 H   0  0  0  0  0  0  0  0  0  0  0  0
   36.4030   30.6730   40.8540 C   0  0  0  0  0  0  0  0  0  0  0  0
   35.4490   30.4100   40.3900 H   0  0  0  0  0  0  0  0  0  0  0  0
   36.3280   31.5130   41.5710 H   0  0  0  0  0  0  0  0  0  0  0  0
   38.4250   31.9650   39.9320 C   0  0  0  0  0  0  0  0  0  0  0  0
   38.5440   32.5600   41.0380 O   0  0  0  0  0  0  0  0  0  0  0  0
   37.3590   31.0490   39.8180 N   0  0  0  0  0  0  0  0  0  0  0  0
   37.2490   30.5900   38.8770 H   0  0  0  0  0  0  0  0  0  0  0  0
   39.3380   32.2090   38.8290 C   0  0  0  0  0  0  0  0  0  0  0  0
   40.5410   32.8070   38.9020 N   0  0  0  0  0  0  0  0  0  0  0  0
   41.0820   32.8430   37.6550 C   0  0  0  0  0  0  0  0  0  0  0  0
   42.0510   33.2670   37.3900 H   0  0  0  0  0  0  0  0  0  0  0  0
   40.1790   32.2540   36.8360 N   0  0  0  0  0  0  0  0  0  0  0  0
   40.2790   32.1120   35.7950 H   0  0  0  0  0  0  0  0  0  0  0  0
   39.1170   31.8690   37.5540 N   0  0  0  0  0  0  0  0  0  0  0  0
  1  6  1  0  0  0  0
  2  3  1  0  0  0  0
  2  1  2  0  0  0  0
  3  4  2  0  0  0  0
  4  5  1  0  0  0  0
  5  8  1  0  0  0  0
  6  5  2  0  0  0  0
  7  2  1  0  0  0  0
  9 14  1  1  0  0  0
  9 19  1  0  0  0  0
 10 15  1  6  0  0  0
 10  3  1  0  0  0  0
 10  9  1  0  0  0  0
 11 10  1  0  0  0  0
 12 11  1  0  0  0  0
 12 13  1  0  0  0  0
 13 18  1  6  0  0  0
 13 21  1  0  0  0  0
 13  9  1  0  0  0  0
 16 12  1  0  0  0  0
 17 12  1  0  0  0  0
 19 20  1  0  0  0  0
 22 21  1  0  0  0  0
 23  1  1  0  0  0  0
 23 25  1  0  0  0  0
 24 23  1  0  0  0  0
 26 27  2  0  0  0  0
 28 26  1  0  0  0  0
 28 23  1  0  0  0  0
 29 28  1  0  0  0  0
 30 31  1  0  0  0  0
 30 26  1  0  0  0  0
 32 31  2  0  0  0  0
 33 32  1  0  0  0  0
 34 36  1  0  0  0  0
 34 32  1  0  0  0  0
 35 34  1  0  0  0  0
 36 30  2  0  0  0  0
M  END
>  <minimizedAffinity>
-5.65917063

$$$$

 OpenBabel03242521453D

 36 38  0  0  1  0  0  0  0  0999 V2000
   36.2990   29.6450   39.6090 C   0  0  0  0  0  0  0  0  0  0  0  0
   37.2900   30.6200   39.7760 C   0  0  0  0  0  0  0  0  0  0  0  0
   37.8780   31.1970   38.6410 C   0  0  0  0  0  0  0  0  0  0  0  0
   37.4540   30.7780   37.4510 N   0  0  0  0  0  0  0  0  0  0  0  0
   36.4910   29.8310   37.3130 C   0  0  0  0  0  0  0  0  0  0  0  0
   35.9130   29.2630   38.3900 N   0  0  0  0  0  0  0  0  0  0  0  0
   37.5520   30.8800   40.7700 H   0  0  0  0  0  0  0  0  0  0  0  0
   36.2020   29.5450   36.3010 H   0  0  0  0  0  0  0  0  0  0  0  0
   40.0870   32.1340   37.9830 C   0  0  2  0  0  0  0  0  0  0  0  0
   38.9010   32.2050   38.8800 C   0  0  2  0  0  0  0  0  0  0  0  0
   39.5230   32.1060   40.1600 O   0  0  0  0  0  0  0  0  0  0  0  0
   40.5020   33.0670   40.0880 C   0  0  0  0  0  0  0  0  0  0  0  0
   40.9310   33.2380   38.6500 C   0  0  1  0  0  0  0  0  0  0  0  0
   40.6880   31.2150   38.1080 H   0  0  0  0  0  0  0  0  0  0  0  0
   38.4500   33.2160   38.8290 H   0  0  0  0  0  0  0  0  0  0  0  0
   40.2110   34.0340   40.5660 H   0  0  0  0  0  0  0  0  0  0  0  0
   41.3860   32.7010   40.6510 H   0  0  0  0  0  0  0  0  0  0  0  0
   40.6530   34.2340   38.2720 H   0  0  0  0  0  0  0  0  0  0  0  0
   39.8270   32.3570   36.6660 O   0  0  0  0  0  0  0  0  0  0  0  0
   39.0010   31.8950   36.4230 H   0  0  0  0  0  0  0  0  0  0  0  0
   42.2770   32.9630   38.4260 O   0  0  0  0  0  0  0  0  0  0  0  0
   42.8470   33.7620   38.4900 H   0  0  0  0  0  0  0  0  0  0  0  0
   35.6880   29.0320   40.8420 C   0  0  0  0  0  0  0  0  0  0  0  0
   35.8410   29.6980   41.6950 H   0  0  0  0  0  0  0  0  0  0  0  0
   34.6240   28.7920   40.6540 H   0  0  0  0  0  0  0  0  0  0  0  0
   37.0890   27.3900   42.2380 C   0  0  0  0  0  0  0  0  0  0  0  0
   37.1370   28.2330   43.1750 O   0  0  0  0  0  0  0  0  0  0  0  0
   36.3980   27.7780   41.0720 N   0  0  0  0  0  0  0  0  0  0  0  0
   36.4000   27.0790   40.2840 H   0  0  0  0  0  0  0  0  0  0  0  0
   37.7130   26.0830   42.3510 C   0  0  0  0  0  0  0  0  0  0  0  0
   38.9880   25.8310   42.6980 N   0  0  0  0  0  0  0  0  0  0  0  0
   39.1800   24.4850   42.6890 C   0  0  0  0  0  0  0  0  0  0  0  0
   40.1120   23.9700   42.9270 H   0  0  0  0  0  0  0  0  0  0  0  0
   37.9950   23.9380   42.3310 N   0  0  0  0  0  0  0  0  0  0  0  0
   37.7890   22.9080   42.2250 H   0  0  0  0  0  0  0  0  0  0  0  0
   37.1030   24.9140   42.1250 N   0  0  0  0  0  0  0  0  0  0  0  0
  1  2  1  0  0  0  0
  1 23  1  0  0  0  0
  2  7  1  0  0  0  0
  3 10  1  0  0  0  0
  3  2  2  0  0  0  0
  4  3  1  0  0  0  0
  5  4  2  0  0  0  0
  5  6  1  0  0  0  0
  6  1  2  0  0  0  0
  8  5  1  0  0  0  0
  9 14  1  1  0  0  0
  9 13  1  0  0  0  0
  9 10  1  0  0  0  0
 10 15  1  6  0  0  0
 10 11  1  0  0  0  0
 12 11  1  0  0  0  0
 12 16  1  0  0  0  0
 12 17  1  0  0  0  0
 13 18  1  6  0  0  0
 13 12  1  0  0  0  0
 19  9  1  0  0  0  0
 20 19  1  0  0  0  0
 21 22  1  0  0  0  0
 21 13  1  0  0  0  0
 23 28  1  0  0  0  0
 23 24  1  0  0  0  0
 25 23  1  0  0  0  0
 26 30  1  0  0  0  0
 26 27  2  0  0  0  0
 28 26  1  0  0  0  0
 29 28  1  0  0  0  0
 30 31  1  0  0  0  0
 32 31  2  0  0  0  0
 32 33  1  0  0  0  0
 34 32  1  0  0  0  0
 35 34  1  0  0  0  0
 36 34  1  0  0  0  0
 36 30  2  0  0  0  0
M  END
>  <minimizedAffinity>
-5.51622343

$$$$

 OpenBabel03242521453D

 36 38  0  0  1  0  0  0  0  0999 V2000
   37.9250   26.9310   43.2990 C   0  0  0  0  0  0  0  0  0  0  0  0
   37.1660   26.1250   42.4420 C   0  0  0  0  0  0  0  0  0  0  0  0
   37.7470   24.9700   41.8990 C   0  0  0  0  0  0  0  0  0  0  0  0
   39.0070   24.7020   42.2340 N   0  0  0  0  0  0  0  0  0  0  0  0
   39.7240   25.4990   43.0680 C   0  0  0  0  0  0  0  0  0  0  0  0
   39.1850   26.6130   43.6010 N   0  0  0  0  0  0  0  0  0  0  0  0
   36.1710   26.4320   42.2430 H   0  0  0  0  0  0  0  0  0  0  0  0
   40.7500   25.2070   43.2910 H   0  0  0  0  0  0  0  0  0  0  0  0
   37.6160   23.1150   40.2480 C   0  0  2  0  0  0  0  0  0  0  0  0
   36.9070   24.1740   41.0160 C   0  0  2  0  0  0  0  0  0  0  0  0
   36.3080   24.9200   39.9580 O   0  0  0  0  0  0  0  0  0  0  0  0
   35.6820   23.9420   39.2240 C   0  0  0  0  0  0  0  0  0  0  0  0
   36.4290   22.6400   39.3840 C   0  0  1  0  0  0  0  0  0  0  0  0
   38.3480   23.5040   39.5170 H   0  0  0  0  0  0  0  0  0  0  0  0
   36.0750   23.7270   41.5940 H   0  0  0  0  0  0  0  0  0  0  0  0
   34.5930   23.8420   39.4540 H   0  0  0  0  0  0  0  0  0  0  0  0
   35.7440   24.2240   38.1520 H   0  0  0  0  0  0  0  0  0  0  0  0
   35.8190   21.8990   39.9230 H   0  0  0  0  0  0  0  0  0  0  0  0
   38.1770   22.1320   41.0040 O   0  0  0  0  0  0  0  0  0  0  0  0
   38.6000   22.5360   41.7860 H   0  0  0  0  0  0  0  0  0  0  0  0
   36.9270   22.1240   38.1920 O   0  0  0  0  0  0  0  0  0  0  0  0
   36.3090   21.4930   37.7590 H   0  0  0  0  0  0  0  0  0  0  0  0
   37.2830   28.1720   43.8650 C   0  0  0  0  0  0  0  0  0  0  0  0
   36.3040   27.9200   44.2790 H   0  0  0  0  0  0  0  0  0  0  0  0
   37.9640   28.6470   44.5970 H   0  0  0  0  0  0  0  0  0  0  0  0
   38.0670   29.9920   42.2280 C   0  0  0  0  0  0  0  0  0  0  0  0
   39.1790   30.0420   42.8220 O   0  0  0  0  0  0  0  0  0  0  0  0
   37.1130   29.0920   42.7450 N   0  0  0  0  0  0  0  0  0  0  0  0
   36.1770   29.0900   42.2630 H   0  0  0  0  0  0  0  0  0  0  0  0
   37.7810   30.8200   41.0690 C   0  0  0  0  0  0  0  0  0  0  0  0
   38.6470   31.1740   40.1030 N   0  0  0  0  0  0  0  0  0  0  0  0
   37.9930   31.9500   39.1980 C   0  0  0  0  0  0  0  0  0  0  0  0
   38.4270   32.3910   38.3010 H   0  0  0  0  0  0  0  0  0  0  0  0
   36.7180   32.0520   39.6420 N   0  0  0  0  0  0  0  0  0  0  0  0
   35.9350   32.5860   39.1780 H   0  0  0  0  0  0  0  0  0  0  0  0
   36.5920   31.3630   40.7830 N   0  0  0  0  0  0  0  0  0  0  0  0
  1  6  1  0  0  0  0
  1 23  1  0  0  0  0
  2  1  2  0  0  0  0
  3  4  2  0  0  0  0
  3  2  1  0  0  0  0
  4  5  1  0  0  0  0
  5  8  1  0  0  0  0
  5  6  2  0  0  0  0
  7  2  1  0  0  0  0
  9 14  1  6  0  0  0
  9 19  1  0  0  0  0
  9 10  1  0  0  0  0
 10 15  1  1  0  0  0
 10  3  1  0  0  0  0
 11 10  1  0  0  0  0
 12 13  1  0  0  0  0
 12 16  1  0  0  0  0
 12 11  1  0  0  0  0
 13 18  1  1  0  0  0
 13  9  1  0  0  0  0
 17 12  1  0  0  0  0
 19 20  1  0  0  0  0
 21 13  1  0  0  0  0
 22 21  1  0  0  0  0
 23 24  1  0  0  0  0
 23 25  1  0  0  0  0
 26 28  1  0  0  0  0
 26 27  2  0  0  0  0
 28 23  1  0  0  0  0
 29 28  1  0  0  0  0
 30 26  1  0  0  0  0
 31 30  1  0  0  0  0
 32 34  1  0  0  0  0
 32 31  2  0  0  0  0
 33 32  1  0  0  0  0
 34 36  1  0  0  0  0
 35 34  1  0  0  0  0
 36 30  2  0  0  0  0
M  END
>  <minimizedAffinity>
-5.43488884

$$$$

 OpenBabel03242521453D

 36 38  0  0  1  0  0  0  0  0999 V2000
   37.4730   30.7340   37.5630 C   0  0  0  0  0  0  0  0  0  0  0  0
   37.7020   30.3640   38.8940 C   0  0  0  0  0  0  0  0  0  0  0  0
   37.2690   29.1050   39.3360 C   0  0  0  0  0  0  0  0  0  0  0  0
   36.6540   28.3230   38.4530 N   0  0  0  0  0  0  0  0  0  0  0  0
   36.4420   28.7040   37.1670 C   0  0  0  0  0  0  0  0  0  0  0  0
   36.8510   29.9080   36.7200 N   0  0  0  0  0  0  0  0  0  0  0  0
   38.2020   31.0640   39.5130 H   0  0  0  0  0  0  0  0  0  0  0  0
   35.9310   28.0020   36.5070 H   0  0  0  0  0  0  0  0  0  0  0  0
   36.6130   27.7850   41.3400 C   0  0  2  0  0  0  0  0  0  0  0  0
   37.5370   28.7790   40.7300 C   0  0  2  0  0  0  0  0  0  0  0  0
   37.3790   29.8800   41.6240 O   0  0  0  0  0  0  0  0  0  0  0  0
   37.5680   29.2930   42.8510 C   0  0  0  0  0  0  0  0  0  0  0  0
   37.1510   27.8440   42.7840 C   0  0  1  0  0  0  0  0  0  0  0  0
   35.5680   28.1350   41.4220 H   0  0  0  0  0  0  0  0  0  0  0  0
   38.5850   28.4360   40.8390 H   0  0  0  0  0  0  0  0  0  0  0  0
   38.6040   29.4230   43.2500 H   0  0  0  0  0  0  0  0  0  0  0  0
   36.8950   29.7930   43.5790 H   0  0  0  0  0  0  0  0  0  0  0  0
   38.0180   27.1780   42.9110 H   0  0  0  0  0  0  0  0  0  0  0  0
   36.6550   26.5430   40.7850 O   0  0  0  0  0  0  0  0  0  0  0  0
   36.7070   26.6310   39.8140 H   0  0  0  0  0  0  0  0  0  0  0  0
   36.1180   27.5120   43.6560 O   0  0  0  0  0  0  0  0  0  0  0  0
   36.4400   27.1790   44.5230 H   0  0  0  0  0  0  0  0  0  0  0  0
   37.9400   32.0940   37.1120 C   0  0  0  0  0  0  0  0  0  0  0  0
   37.3920   32.3880   36.2130 H   0  0  0  0  0  0  0  0  0  0  0  0
   37.8470   32.8180   37.9430 H   0  0  0  0  0  0  0  0  0  0  0  0
   40.4540   32.3220   37.5990 C   0  0  0  0  0  0  0  0  0  0  0  0
   40.1860   32.8700   38.7040 O   0  0  0  0  0  0  0  0  0  0  0  0
   39.3570   31.9550   36.7930 N   0  0  0  0  0  0  0  0  0  0  0  0
   39.5970   31.5350   35.8570 H   0  0  0  0  0  0  0  0  0  0  0  0
   41.8220   32.0800   37.1770 C   0  0  0  0  0  0  0  0  0  0  0  0
   42.3110   30.9400   36.6580 N   0  0  0  0  0  0  0  0  0  0  0  0
   43.6330   31.1180   36.3930 C   0  0  0  0  0  0  0  0  0  0  0  0
   44.3060   30.3730   35.9670 H   0  0  0  0  0  0  0  0  0  0  0  0
   43.9240   32.3860   36.7640 N   0  0  0  0  0  0  0  0  0  0  0  0
   44.8660   32.8570   36.6950 H   0  0  0  0  0  0  0  0  0  0  0  0
   42.8180   32.9710   37.2420 N   0  0  0  0  0  0  0  0  0  0  0  0
  1  2  1  0  0  0  0
  2  3  2  0  0  0  0
  2  7  1  0  0  0  0
  3 10  1  0  0  0  0
  4  3  1  0  0  0  0
  5  4  2  0  0  0  0
  6  5  1  0  0  0  0
  6  1  2  0  0  0  0
  8  5  1  0  0  0  0
  9 14  1  6  0  0  0
  9 13  1  0  0  0  0
 10 15  1  1  0  0  0
 10  9  1  0  0  0  0
 10 11  1  0  0  0  0
 11 12  1  0  0  0  0
 12 16  1  0  0  0  0
 12 17  1  0  0  0  0
 13 12  1  0  0  0  0
 13 18  1  1  0  0  0
 13 21  1  0  0  0  0
 19  9  1  0  0  0  0
 20 19  1  0  0  0  0
 21 22  1  0  0  0  0
 23  1  1  0  0  0  0
 23 25  1  0  0  0  0
 24 23  1  0  0  0  0
 26 27  2  0  0  0  0
 28 23  1  0  0  0  0
 28 26  1  0  0  0  0
 29 28  1  0  0  0  0
 30 36  2  0  0  0  0
 30 26  1  0  0  0  0
 31 30  1  0  0  0  0
 32 31  2  0  0  0  0
 32 34  1  0  0  0  0
 33 32  1  0  0  0  0
 34 36  1  0  0  0  0
 35 34  1  0  0  0  0
M  END
>  <minimizedAffinity>
-5.37378311

$$$$

 OpenBabel03242521453D

 36 38  0  0  1  0  0  0  0  0999 V2000
   37.2540   27.1570   41.1940 C   0  0  0  0  0  0  0  0  0  0  0  0
   37.5400   28.4830   40.8480 C   0  0  0  0  0  0  0  0  0  0  0  0
   37.8370   29.4050   41.8620 C   0  0  0  0  0  0  0  0  0  0  0  0
   37.8300   28.9600   43.1170 N   0  0  0  0  0  0  0  0  0  0  0  0
   37.5490   27.6690   43.4290 C   0  0  0  0  0  0  0  0  0  0  0  0
   37.2610   26.7660   42.4700 N   0  0  0  0  0  0  0  0  0  0  0  0
   37.5180   28.7300   39.8170 H   0  0  0  0  0  0  0  0  0  0  0  0
   37.5650   27.3870   44.4820 H   0  0  0  0  0  0  0  0  0  0  0  0
   37.0970   31.3930   40.5630 C   0  0  2  0  0  0  0  0  0  0  0  0
   38.1260   30.7670   41.4380 C   0  0  2  0  0  0  0  0  0  0  0  0
   39.2870   30.8850   40.6170 O   0  0  0  0  0  0  0  0  0  0  0  0
   39.2680   32.2130   40.2660 C   0  0  0  0  0  0  0  0  0  0  0  0
   37.8420   32.7080   40.2570 C   0  0  1  0  0  0  0  0  0  0  0  0
   36.9880   30.9030   39.5780 H   0  0  0  0  0  0  0  0  0  0  0  0
   38.3050   31.4060   42.3250 H   0  0  0  0  0  0  0  0  0  0  0  0
   39.9380   32.8480   40.8960 H   0  0  0  0  0  0  0  0  0  0  0  0
   39.6510   32.3000   39.2280 H   0  0  0  0  0  0  0  0  0  0  0  0
   37.6770   33.4510   41.0520 H   0  0  0  0  0  0  0  0  0  0  0  0
   35.8790   31.5700   41.1430 O   0  0  0  0  0  0  0  0  0  0  0  0
   35.6580   30.7760   41.6670 H   0  0  0  0  0  0  0  0  0  0  0  0
   37.4170   33.1800   39.0190 O   0  0  0  0  0  0  0  0  0  0  0  0
   37.5510   34.1490   38.9110 H   0  0  0  0  0  0  0  0  0  0  0  0
   36.9280   26.1860   40.0890 C   0  0  0  0  0  0  0  0  0  0  0  0
   37.6450   25.3610   40.1050 H   0  0  0  0  0  0  0  0  0  0  0  0
   35.8750   25.8580   40.1750 H   0  0  0  0  0  0  0  0  0  0  0  0
   36.2810   26.7960   37.6770 C   0  0  0  0  0  0  0  0  0  0  0  0
   35.3790   25.9130   37.7000 O   0  0  0  0  0  0  0  0  0  0  0  0
   37.0680   26.9260   38.8390 N   0  0  0  0  0  0  0  0  0  0  0  0
   37.8410   27.6390   38.7910 H   0  0  0  0  0  0  0  0  0  0  0  0
   36.4980   27.6370   36.5130 C   0  0  0  0  0  0  0  0  0  0  0  0
   35.5800   28.3970   35.8910 N   0  0  0  0  0  0  0  0  0  0  0  0
   36.1790   29.0310   34.8470 C   0  0  0  0  0  0  0  0  0  0  0  0
   35.6940   29.7170   34.1520 H   0  0  0  0  0  0  0  0  0  0  0  0
   37.4730   28.6350   34.8590 N   0  0  0  0  0  0  0  0  0  0  0  0
   38.2260   28.9370   34.1840 H   0  0  0  0  0  0  0  0  0  0  0  0
   37.6650   27.7850   35.8760 N   0  0  0  0  0  0  0  0  0  0  0  0
  1  6  1  0  0  0  0
  2  1  2  0  0  0  0
  2  3  1  0  0  0  0
  3  4  2  0  0  0  0
  4  5  1  0  0  0  0
  5  8  1  0  0  0  0
  6  5  2  0  0  0  0
  7  2  1  0  0  0  0
  9 14  1  6  0  0  0
  9 19  1  0  0  0  0
  9 10  1  0  0  0  0
 10  3  1  0  0  0  0
 10 15  1  1  0  0  0
 11 10  1  0  0  0  0
 12 11  1  0  0  0  0
 12 16  1  0  0  0  0
 13 12  1  0  0  0  0
 13  9  1  0  0  0  0
 13 18  1  1  0  0  0
 17 12  1  0  0  0  0
 19 20  1  0  0  0  0
 21 13  1  0  0  0  0
 22 21  1  0  0  0  0
 23 24  1  0  0  0  0
 23 25  1  0  0  0  0
 23  1  1  0  0  0  0
 26 27  2  0  0  0  0
 26 28  1  0  0  0  0
 28 23  1  0  0  0  0
 29 28  1  0  0  0  0
 30 26  1  0  0  0  0
 31 30  1  0  0  0  0
 32 34  1  0  0  0  0
 32 31  2  0  0  0  0
 33 32  1  0  0  0  0
 34 36  1  0  0  0  0
 35 34  1  0  0  0  0
 36 30  2  0  0  0  0
M  END
>  <minimizedAffinity>
-5.33175945

$$$$

 OpenBabel03242521453D

 36 38  0  0  1  0  0  0  0  0999 V2000
   36.9310   28.9250   42.0170 C   0  0  0  0  0  0  0  0  0  0  0  0
   37.9250   29.9090   41.9640 C   0  0  0  0  0  0  0  0  0  0  0  0
   37.8120   30.9440   41.0240 C   0  0  0  0  0  0  0  0  0  0  0  0
   36.7490   30.9300   40.2220 N   0  0  0  0  0  0  0  0  0  0  0  0
   35.7970   29.9650   40.2920 C   0  0  0  0  0  0  0  0  0  0  0  0
   35.8860   28.9620   41.1880 N   0  0  0  0  0  0  0  0  0  0  0  0
   38.7290   29.8230   42.6490 H   0  0  0  0  0  0  0  0  0  0  0  0
   34.9580   30.0280   39.5980 H   0  0  0  0  0  0  0  0  0  0  0  0
   38.6880   33.0670   40.0700 C   0  0  2  0  0  0  0  0  0  0  0  0
   38.8770   31.9360   41.0190 C   0  0  2  0  0  0  0  0  0  0  0  0
   40.1390   31.4300   40.5900 O   0  0  0  0  0  0  0  0  0  0  0  0
   40.9180   32.5610   40.5640 C   0  0  0  0  0  0  0  0  0  0  0  0
   40.0470   33.7630   40.2870 C   0  0  1  0  0  0  0  0  0  0  0  0
   38.7000   32.7670   39.0060 H   0  0  0  0  0  0  0  0  0  0  0  0
   39.0290   32.3270   42.0440 H   0  0  0  0  0  0  0  0  0  0  0  0
   41.5460   32.6890   41.4790 H   0  0  0  0  0  0  0  0  0  0  0  0
   41.6280   32.4710   39.7150 H   0  0  0  0  0  0  0  0  0  0  0  0
   40.0140   34.4350   41.1590 H   0  0  0  0  0  0  0  0  0  0  0  0
   37.6130   33.8620   40.3270 O   0  0  0  0  0  0  0  0  0  0  0  0
   36.8550   33.2990   40.5740 H   0  0  0  0  0  0  0  0  0  0  0  0
   40.3850   34.4490   39.1240 O   0  0  0  0  0  0  0  0  0  0  0  0
   41.0170   35.1850   39.2830 H   0  0  0  0  0  0  0  0  0  0  0  0
   37.0770   27.8180   43.0280 C   0  0  0  0  0  0  0  0  0  0  0  0
   38.0540   27.8930   43.5130 H   0  0  0  0  0  0  0  0  0  0  0  0
   36.2290   27.8430   43.7380 H   0  0  0  0  0  0  0  0  0  0  0  0
   38.0750   25.7520   41.8680 C   0  0  0  0  0  0  0  0  0  0  0  0
   39.2360   26.1680   42.1350 O   0  0  0  0  0  0  0  0  0  0  0  0
   37.0010   26.5670   42.2810 N   0  0  0  0  0  0  0  0  0  0  0  0
   36.0410   26.2260   42.0160 H   0  0  0  0  0  0  0  0  0  0  0  0
   37.8540   24.4980   41.1690 C   0  0  0  0  0  0  0  0  0  0  0  0
   38.7610   23.5280   40.9570 N   0  0  0  0  0  0  0  0  0  0  0  0
   38.1610   22.5200   40.2690 C   0  0  0  0  0  0  0  0  0  0  0  0
   38.6380   21.5930   39.9480 H   0  0  0  0  0  0  0  0  0  0  0  0
   36.8790   22.9060   40.0740 N   0  0  0  0  0  0  0  0  0  0  0  0
   36.1300   22.3590   39.5720 H   0  0  0  0  0  0  0  0  0  0  0  0
   36.6940   24.1130   40.6240 N   0  0  0  0  0  0  0  0  0  0  0  0
  1 23  1  0  0  0  0
  2  1  1  0  0  0  0
  2  7  1  0  0  0  0
  3  2  2  0  0  0  0
  4  5  2  0  0  0  0
  4  3  1  0  0  0  0
  5  6  1  0  0  0  0
  6  1  2  0  0  0  0
  8  5  1  0  0  0  0
  9 14  1  6  0  0  0
  9 13  1  0  0  0  0
  9 19  1  0  0  0  0
  9 10  1  0  0  0  0
 10  3  1  0  0  0  0
 10 15  1  1  0  0  0
 11 10  1  0  0  0  0
 12 11  1  0  0  0  0
 12 16  1  0  0  0  0
 13 12  1  0  0  0  0
 13 18  1  1  0  0  0
 17 12  1  0  0  0  0
 19 20  1  0  0  0  0
 21 22  1  0  0  0  0
 21 13  1  0  0  0  0
 23 24  1  0  0  0  0
 23 25  1  0  0  0  0
 26 27  2  0  0  0  0
 26 28  1  0  0  0  0
 28 23  1  0  0  0  0
 29 28  1  0  0  0  0
 30 26  1  0  0  0  0
 31 30  1  0  0  0  0
 32 31  2  0  0  0  0
 33 32  1  0  0  0  0
 34 32  1  0  0  0  0
 34 36  1  0  0  0  0
 35 34  1  0  0  0  0
 36 30  2  0  0  0  0
M  END
>  <minimizedAffinity>
-5.31794786

$$$$

 OpenBabel03242521453D

 36 38  0  0  1  0  0  0  0  0999 V2000
   36.6680   30.8720   39.5950 C   0  0  0  0  0  0  0  0  0  0  0  0
   36.2020   29.8710   38.7350 C   0  0  0  0  0  0  0  0  0  0  0  0
   36.5410   29.9280   37.3750 C   0  0  0  0  0  0  0  0  0  0  0  0
   37.2970   30.9460   36.9730 N   0  0  0  0  0  0  0  0  0  0  0  0
   37.7380   31.9060   37.8270 C   0  0  0  0  0  0  0  0  0  0  0  0
   37.4250   31.8710   39.1370 N   0  0  0  0  0  0  0  0  0  0  0  0
   35.6060   29.1040   39.1610 H   0  0  0  0  0  0  0  0  0  0  0  0
   38.3540   32.7070   37.4150 H   0  0  0  0  0  0  0  0  0  0  0  0
   36.6880   28.7180   35.2060 C   0  0  2  0  0  0  0  0  0  0  0  0
   36.0270   28.8570   36.5330 C   0  0  2  0  0  0  0  0  0  0  0  0
   34.6660   29.0310   36.1400 O   0  0  0  0  0  0  0  0  0  0  0  0
   34.4700   27.9780   35.2800 C   0  0  0  0  0  0  0  0  0  0  0  0
   35.7800   27.6150   34.6250 C   0  0  1  0  0  0  0  0  0  0  0  0
   36.5330   29.5820   34.5350 H   0  0  0  0  0  0  0  0  0  0  0  0
   36.0730   27.8950   37.0800 H   0  0  0  0  0  0  0  0  0  0  0  0
   33.9720   27.1000   35.7600 H   0  0  0  0  0  0  0  0  0  0  0  0
   33.7840   28.3160   34.4750 H   0  0  0  0  0  0  0  0  0  0  0  0
   36.1170   26.6160   34.9440 H   0  0  0  0  0  0  0  0  0  0  0  0
   38.0060   28.3820   35.2520 O   0  0  0  0  0  0  0  0  0  0  0  0
   38.4390   28.8920   35.9630 H   0  0  0  0  0  0  0  0  0  0  0  0
   35.7710   27.7330   33.2390 O   0  0  0  0  0  0  0  0  0  0  0  0
   35.5320   26.8950   32.7840 H   0  0  0  0  0  0  0  0  0  0  0  0
   36.2850   30.7960   41.0510 C   0  0  0  0  0  0  0  0  0  0  0  0
   36.2270   31.8050   41.4660 H   0  0  0  0  0  0  0  0  0  0  0  0
   35.3480   30.2170   41.1630 H   0  0  0  0  0  0  0  0  0  0  0  0
   37.3180   28.7210   42.1610 C   0  0  0  0  0  0  0  0  0  0  0  0
   36.2300   28.1000   42.0050 O   0  0  0  0  0  0  0  0  0  0  0  0
   37.3530   30.0580   41.7170 N   0  0  0  0  0  0  0  0  0  0  0  0
   38.2540   30.5750   41.8900 H   0  0  0  0  0  0  0  0  0  0  0  0
   38.4780   28.0910   42.7680 C   0  0  0  0  0  0  0  0  0  0  0  0
   39.7450   28.5390   42.7300 N   0  0  0  0  0  0  0  0  0  0  0  0
   40.5320   27.6690   43.4170 C   0  0  0  0  0  0  0  0  0  0  0  0
   41.6090   27.7590   43.5640 H   0  0  0  0  0  0  0  0  0  0  0  0
   39.7100   26.6920   43.8660 N   0  0  0  0  0  0  0  0  0  0  0  0
   39.9930   25.8520   44.4390 H   0  0  0  0  0  0  0  0  0  0  0  0
   38.4580   26.9510   43.4690 N   0  0  0  0  0  0  0  0  0  0  0  0
  1 23  1  0  0  0  0
  2  7  1  0  0  0  0
  2  1  2  0  0  0  0
  3  2  1  0  0  0  0
  4  3  2  0  0  0  0
  4  5  1  0  0  0  0
  5  6  2  0  0  0  0
  6  1  1  0  0  0  0
  8  5  1  0  0  0  0
  9 14  1  6  0  0  0
  9 19  1  0  0  0  0
  9 10  1  0  0  0  0
 10 15  1  1  0  0  0
 10  3  1  0  0  0  0
 11 10  1  0  0  0  0
 12 16  1  0  0  0  0
 12 11  1  0  0  0  0
 13 18  1  1  0  0  0
 13  9  1  0  0  0  0
 13 12  1  0  0  0  0
 17 12  1  0  0  0  0
 19 20  1  0  0  0  0
 21 13  1  0  0  0  0
 22 21  1  0  0  0  0
 23 25  1  0  0  0  0
 23 24  1  0  0  0  0
 23 28  1  0  0  0  0
 26 30  1  0  0  0  0
 27 26  2  0  0  0  0
 28 29  1  0  0  0  0
 28 26  1  0  0  0  0
 30 36  2  0  0  0  0
 31 30  1  0  0  0  0
 31 32  2  0  0  0  0
 32 33  1  0  0  0  0
 32 34  1  0  0  0  0
 34 35  1  0  0  0  0
 36 34  1  0  0  0  0
M  END
>  <minimizedAffinity>
-5.29273558

$$$$
