
 OpenBabel03252509193D

 41 44  0  0  1  0  0  0  0  0999 V2000
   46.7980   30.9240   47.0630 C   0  0  1  0  0  0  0  0  0  0  0  0
   46.9720   32.0610   48.0290 C   0  0  0  0  0  0  0  0  0  0  0  0
   45.8080   32.2630   48.9670 C   0  0  0  0  0  0  0  0  0  0  0  0
   45.2730   30.9640   49.5340 C   0  0  0  0  0  0  0  0  0  0  0  0
   45.1650   29.8710   48.4990 C   0  0  0  0  0  0  0  0  0  0  0  0
   45.3430   30.5030   47.1030 C   0  0  2  0  0  0  0  0  0  0  0  0
   47.3950   30.0790   47.4240 H   0  0  0  0  0  0  0  0  0  0  0  0
   47.1240   32.9860   47.4630 H   0  0  0  0  0  0  0  0  0  0  0  0
   47.8770   31.9120   48.6570 H   0  0  0  0  0  0  0  0  0  0  0  0
   45.0130   32.8400   48.4520 H   0  0  0  0  0  0  0  0  0  0  0  0
   46.1640   32.8630   49.7940 H   0  0  0  0  0  0  0  0  0  0  0  0
   44.2420   31.1790   49.8940 H   0  0  0  0  0  0  0  0  0  0  0  0
   45.8530   30.6500   50.4310 H   0  0  0  0  0  0  0  0  0  0  0  0
   44.2530   29.2640   48.5660 H   0  0  0  0  0  0  0  0  0  0  0  0
   46.0750   29.2280   48.6310 H   0  0  0  0  0  0  0  0  0  0  0  0
   44.6760   31.4100   47.0360 H   0  0  0  0  0  0  0  0  0  0  0  0
   47.7250   32.5120   43.3920 C   0  0  0  0  0  0  0  0  0  0  0  0
   48.1980   31.2020   43.5630 C   0  0  0  0  0  0  0  0  0  0  0  0
   47.9440   30.5980   44.7270 C   0  0  0  0  0  0  0  0  0  0  0  0
   47.2290   31.2500   45.7380 C   0  0  0  0  0  0  0  0  0  0  0  0
   46.8750   32.8760   44.9940 S   0  0  0  0  0  0  0  0  0  0  0  0
   48.7460   30.7210   42.7650 H   0  0  0  0  0  0  0  0  0  0  0  0
   48.2400   29.6000   45.0070 H   0  0  0  0  0  0  0  0  0  0  0  0
   47.7970   33.8690   39.9300 C   0  0  0  0  0  0  0  0  0  0  0  0
   48.4060   35.1010   40.1570 C   0  0  0  0  0  0  0  0  0  0  0  0
   48.7720   35.4340   41.4880 C   0  0  0  0  0  0  0  0  0  0  0  0
   48.5020   34.5160   42.4740 N   0  0  0  0  0  0  0  0  0  0  0  0
   47.9130   33.3450   42.1840 C   0  0  0  0  0  0  0  0  0  0  0  0
   47.5570   33.0120   40.9200 N   0  0  0  0  0  0  0  0  0  0  0  0
   47.5140   33.6020   38.9250 H   0  0  0  0  0  0  0  0  0  0  0  0
   48.6150   35.8120   39.3840 H   0  0  0  0  0  0  0  0  0  0  0  0
   49.2480   36.3670   41.7530 H   0  0  0  0  0  0  0  0  0  0  0  0
   45.0270   29.5140   46.0810 C   0  0  0  0  0  0  0  0  0  0  0  0
   45.3500   28.3650   46.1390 O   0  0  0  0  0  0  0  0  0  0  0  0
   44.3560   29.2750   44.8100 C   0  0  0  0  0  0  0  0  0  0  0  0
   43.2690   28.5030   44.7190 N   0  0  0  0  0  0  0  0  0  0  0  0
   42.8460   28.5340   43.4150 C   0  0  0  0  0  0  0  0  0  0  0  0
   41.9640   27.9400   43.2180 H   0  0  0  0  0  0  0  0  0  0  0  0
   43.6670   29.3130   42.7300 N   0  0  0  0  0  0  0  0  0  0  0  0
   43.5210   29.4730   41.7100 H   0  0  0  0  0  0  0  0  0  0  0  0
   44.5230   29.7170   43.5860 N   0  0  0  0  0  0  0  0  0  0  0  0
  1  6  1  0  0  0  0
  1  7  1  1  0  0  0
  1  2  1  0  0  0  0
  2  9  1  0  0  0  0
  2  3  1  0  0  0  0
  3  4  1  0  0  0  0
  3 11  1  0  0  0  0
  4 12  1  0  0  0  0
  4 13  1  0  0  0  0
  5 14  1  0  0  0  0
  5 15  1  0  0  0  0
  5  4  1  0  0  0  0
  6 16  1  6  0  0  0
  6  5  1  0  0  0  0
  8  2  1  0  0  0  0
 10  3  1  0  0  0  0
 17 18  2  0  0  0  0
 17 21  1  0  0  0  0
 18 19  1  0  0  0  0
 19 23  1  0  0  0  0
 19 20  2  0  0  0  0
 20  1  1  0  0  0  0
 21 20  1  0  0  0  0
 22 18  1  0  0  0  0
 24 25  2  0  0  0  0
 24 29  1  0  0  0  0
 25 26  1  0  0  0  0
 26 32  1  0  0  0  0
 26 27  2  0  0  0  0
 28 27  1  0  0  0  0
 28 17  1  0  0  0  0
 29 28  2  0  0  0  0
 30 24  1  0  0  0  0
 31 25  1  0  0  0  0
 33 34  2  0  0  0  0
 33  6  1  0  0  0  0
 35 33  1  0  0  0  0
 36 35  1  0  0  0  0
 37 36  2  0  0  0  0
 38 37  1  0  0  0  0
 39 37  1  0  0  0  0
 39 41  1  0  0  0  0
 40 39  1  0  0  0  0
 41 35  2  0  0  0  0
M  END
>  <minimizedAffinity>
-5.017138

>  <minimizedRMSD>
5.75200415

$$$$
