
 OpenBabel03242510573D

 34 36  0  0  0  0  0  0  0  0999 V2000
   45.6330   31.6250   47.1230 C   0  0  0  0  0  0  0  0  0  0  0  0
   45.6100   32.0860   48.4560 C   0  0  0  0  0  0  0  0  0  0  0  0
   45.3870   31.2520   49.5400 C   0  0  0  0  0  0  0  0  0  0  0  0
   45.1810   29.9120   49.2820 C   0  0  0  0  0  0  0  0  0  0  0  0
   45.2060   29.4720   47.9670 C   0  0  0  0  0  0  0  0  0  0  0  0
   45.4250   30.3200   46.9660 N   0  0  0  0  0  0  0  0  0  0  0  0
   45.7780   33.1520   48.6040 H   0  0  0  0  0  0  0  0  0  0  0  0
   45.3910   31.7150   50.5180 H   0  0  0  0  0  0  0  0  0  0  0  0
   45.0080   29.2810   50.1530 H   0  0  0  0  0  0  0  0  0  0  0  0
   44.7800   36.6010   43.8160 C   0  0  0  0  0  0  0  0  0  0  0  0
   45.6830   36.3050   42.7940 C   0  0  0  0  0  0  0  0  0  0  0  0
   46.3390   35.0720   42.8340 C   0  0  0  0  0  0  0  0  0  0  0  0
   46.0730   34.2130   43.8630 N   0  0  0  0  0  0  0  0  0  0  0  0
   45.1880   34.5430   44.8350 C   0  0  0  0  0  0  0  0  0  0  0  0
   44.5330   35.7450   44.8160 N   0  0  0  0  0  0  0  0  0  0  0  0
   45.8740   32.5710   46.0500 C   0  0  0  0  0  0  0  0  0  0  0  0
   46.8980   32.4010   45.3270 O   0  0  0  0  0  0  0  0  0  0  0  0
   44.9340   33.6300   45.8900 N   0  0  0  0  0  0  0  0  0  0  0  0
   44.2130   37.5240   43.8900 H   0  0  0  0  0  0  0  0  0  0  0  0
   45.8320   37.0360   42.0230 H   0  0  0  0  0  0  0  0  0  0  0  0
   47.0430   34.8250   42.0510 H   0  0  0  0  0  0  0  0  0  0  0  0
   44.0840   33.7590   46.5000 H   0  0  0  0  0  0  0  0  0  0  0  0
   44.9870   28.0580   47.7170 C   0  0  0  0  0  3  0  0  0  0  0  0
   44.6990   27.2310   48.7250 C   0  0  0  0  0  3  0  0  0  0  0  0
   44.4560   25.7670   48.5790 C   0  0  0  0  0  0  0  0  0  0  0  0
   43.5930   25.4520   49.1710 H   0  0  0  0  0  0  0  0  0  0  0  0
   44.3840   25.4850   47.5040 H   0  0  0  0  0  0  0  0  0  0  0  0
   45.6640   25.0990   49.1370 C   0  0  0  0  0  0  0  0  0  0  0  0
   45.7130   24.2070   50.1420 N   0  0  0  0  0  0  0  0  0  0  0  0
   46.9900   23.8550   50.3300 C   0  0  0  0  0  0  0  0  0  0  0  0
   47.5860   23.2030   50.9700 H   0  0  0  0  0  0  0  0  0  0  0  0
   47.7160   24.5430   49.4280 N   0  0  0  0  0  0  0  0  0  0  0  0
   48.7470   24.6100   49.1810 H   0  0  0  0  0  0  0  0  0  0  0  0
   46.9130   25.2880   48.7170 N   0  0  0  0  0  0  0  0  0  0  0  0
  1  2  1  0  0  0  0
  2  7  1  0  0  0  0
  2  3  2  0  0  0  0
  3  8  1  0  0  0  0
  4  3  1  0  0  0  0
  4  9  1  0  0  0  0
  5  4  2  0  0  0  0
  6  1  2  0  0  0  0
  6  5  1  0  0  0  0
 10 19  1  0  0  0  0
 10 15  1  0  0  0  0
 11 12  1  0  0  0  0
 11 10  2  0  0  0  0
 12 13  2  0  0  0  0
 13 14  1  0  0  0  0
 14 18  1  0  0  0  0
 15 14  2  0  0  0  0
 16  1  1  0  0  0  0
 17 16  2  0  0  0  0
 18 16  1  0  0  0  0
 18 22  1  0  0  0  0
 20 11  1  0  0  0  0
 21 12  1  0  0  0  0
 23  5  1  0  0  0  0
 23 24  2  0  0  0  0
 25 24  1  0  0  0  0
 25 28  1  0  0  0  0
 25 26  1  0  0  0  0
 27 25  1  0  0  0  0
 28 29  1  0  0  0  0
 29 30  2  0  0  0  0
 30 31  1  0  0  0  0
 32 30  1  0  0  0  0
 33 32  1  0  0  0  0
 34 28  2  0  0  0  0
 34 32  1  0  0  0  0
M  END
>  <minimizedAffinity>
-5.58637238

>  <minimizedRMSD>
1.68627083

$$$$
