REMARK  Name = 
REMARK  4 active torsions:
REMARK  status: ('A' for Active; 'I' for Inactive)
REMARK    1  A    between atoms: C_1  and  C_10
REMARK    2  A    between atoms: C_6  and  C_18
REMARK    3  A    between atoms: C_7  and  C_16
REMARK    4  A    between atoms: C_18  and  C_35
REMARK                            x       y       z     vdW  Elec       q    Type
REMARK                         _______ _______ _______ _____ _____    ______ ____
ROOT
ATOM      1  C   UNL     1      47.554  29.974  48.267  0.00  0.00    +0.000 C 
ATOM      2  C   UNL     1      47.453  28.781  47.360  0.00  0.00    +0.000 C 
ATOM      3  C   UNL     1      48.749  28.034  47.168  0.00  0.00    +0.000 C 
ATOM      4  C   UNL     1      49.520  27.845  48.458  0.00  0.00    +0.000 C 
ATOM      5  C   UNL     1      49.539  29.085  49.319  0.00  0.00    +0.000 C 
ATOM      6  C   UNL     1      49.026  30.270  48.476  0.00  0.00    +0.000 C 
ATOM      7  H   UNL     1      47.133  29.697  49.239  0.00  0.00    +0.000 HD
ATOM      8  H   UNL     1      47.096  29.111  46.379  0.00  0.00    +0.000 HD
ATOM      9  H   UNL     1      46.709  28.051  47.748  0.00  0.00    +0.000 HD
ATOM     10  H   UNL     1      49.362  28.549  46.400  0.00  0.00    +0.000 HD
ATOM     11  H   UNL     1      48.500  27.054  46.784  0.00  0.00    +0.000 HD
ATOM     12  H   UNL     1      50.573  27.630  48.167  0.00  0.00    +0.000 HD
ATOM     13  H   UNL     1      49.163  26.945  49.009  0.00  0.00    +0.000 HD
ATOM     14  H   UNL     1      50.506  29.300  49.792  0.00  0.00    +0.000 HD
ATOM     15  H   UNL     1      48.746  28.933  50.098  0.00  0.00    +0.000 HD
ATOM     16  H   UNL     1      49.566  30.263  47.487  0.00  0.00    +0.000 HD
ENDROOT
BRANCH   1  20
ATOM     17  C   UNL     1      45.925  33.155  46.246  0.00  0.00    +0.000 A 
ATOM     18  C   UNL     1      45.339  32.940  47.503  0.00  0.00    +0.000 A 
ATOM     19  C   UNL     1      45.804  31.926  48.238  0.00  0.00    +0.000 A 
ATOM     20  C   UNL     1      46.840  31.111  47.770  0.00  0.00    +0.000 A 
ATOM     21  S   UNL     1      47.206  31.826  46.134  0.00  0.00    +0.000 S 
ATOM     22  H   UNL     1      44.541  33.586  47.841  0.00  0.00    +0.000 HD
ATOM     23  H   UNL     1      45.458  31.636  49.217  0.00  0.00    +0.000 HD
BRANCH  17  28
ATOM     24  C   UNL     1      44.410  36.095  44.545  0.00  0.00    +0.000 A 
ATOM     25  C   UNL     1      45.041  36.019  43.305  0.00  0.00    +0.000 A 
ATOM     26  C   UNL     1      45.968  34.966  43.087  0.00  0.00    +0.000 A 
ATOM     27  N   UNL     1      46.187  34.083  44.117  0.00  0.00    +0.000 NA
ATOM     28  C   UNL     1      45.543  34.215  45.288  0.00  0.00    +0.000 A 
ATOM     29  N   UNL     1      44.655  35.214  45.512  0.00  0.00    +0.000 NA
ATOM     30  H   UNL     1      43.704  36.889  44.725  0.00  0.00    +0.000 HD
ATOM     31  H   UNL     1      44.866  36.710  42.506  0.00  0.00    +0.000 HD
ATOM     32  H   UNL     1      46.501  34.833  42.157  0.00  0.00    +0.000 HD
ENDBRANCH  17  28
ENDBRANCH   1  20
BRANCH   6  33
ATOM     33  C   UNL     1      49.239  31.512  49.208  0.00  0.00    +0.000 C 
ATOM     34  O   UNL     1      49.962  31.615  50.154  0.00  0.00    +0.000 OA
BRANCH  33  35
ATOM     35  C   UNL     1      48.911  32.929  49.287  0.00  0.00    +0.000 A 
ATOM     36  N   UNL     1      49.631  33.858  48.651  0.00  0.00    +0.000 NA
ATOM     37  C   UNL     1      49.030  35.071  48.871  0.00  0.00    +0.000 A 
ATOM     38  H   UNL     1      49.529  35.907  48.400  0.00  0.00    +0.000 HD
ATOM     39  N   UNL     1      47.964  34.876  49.629  0.00  0.00    +0.000 N 
ATOM     40  H   UNL     1      47.361  35.677  49.915  0.00  0.00    +0.000 HD
ATOM     41  N   UNL     1      47.941  33.618  49.841  0.00  0.00    +0.000 NA
ENDBRANCH  33  35
ENDBRANCH   6  33
TORSDOF 4
