
     RDKit          3D

 29 31  0  0  0  0  0  0  0  0999 V2000
   43.9499   34.6628   41.4459 C   0  0  0  0  0  0  0  0  0  0  0  0
   42.7431   35.3063   41.1066 C   0  0  0  0  0  0  0  0  0  0  0  0
   42.1791   35.0302   39.8644 C   0  0  0  0  0  0  0  0  0  0  0  0
   42.8385   34.1415   39.0396 N   0  0  0  0  0  0  0  0  0  0  0  0
   43.9960   33.5578   39.4277 C   0  0  0  0  0  0  0  0  0  0  0  0
   44.5463   33.8083   40.6050 N   0  0  0  0  0  0  0  0  0  0  0  0
   44.5394   34.9708   42.7767 C   0  0  0  0  0  0  0  0  0  0  0  0
   46.0515   35.3039   42.7052 C   0  0  0  0  0  0  0  0  0  0  0  0
   45.0225   36.2729   43.1369 C   0  0  0  0  0  0  0  0  0  0  0  0
   40.9027   35.6797   39.4651 C   0  0  0  0  0  0  0  0  0  0  0  0
   40.2190   36.3358   40.6510 C   0  0  0  0  0  0  0  0  0  0  0  0
   42.2939   35.9895   41.8135 H   0  0  0  0  0  0  0  0  0  0  0  0
   44.4547   32.8713   38.7253 H   0  0  0  0  0  0  0  0  0  0  0  0
   44.2643   34.1790   43.5197 H   0  0  0  0  0  0  0  0  0  0  0  0
   46.6442   34.8344   43.5141 H   0  0  0  0  0  0  0  0  0  0  0  0
   46.5153   35.3706   41.7049 H   0  0  0  0  0  0  0  0  0  0  0  0
   44.9537   36.5775   44.2072 H   0  0  0  0  0  0  0  0  0  0  0  0
   44.8437   37.1439   42.4726 H   0  0  0  0  0  0  0  0  0  0  0  0
   41.0078   36.3886   38.6469 H   0  0  0  0  0  0  0  0  0  0  0  0
   40.2313   34.8578   39.1361 H   0  0  0  0  0  0  0  0  0  0  0  0
   39.2514   36.7328   40.2837 H   0  0  0  0  0  0  0  0  0  0  0  0
   40.7660   37.1762   41.0838 H   0  0  0  0  0  0  0  0  0  0  0  0
   39.9508   35.2478   41.6433 C   0  0  0  0  0  0  0  0  0  0  0  0
   40.0212   33.9605   41.3022 N   0  0  0  0  0  0  0  0  0  0  0  0
   39.7449   33.1465   42.3405 C   0  0  0  0  0  0  0  0  0  0  0  0
   39.7336   32.0616   42.3290 H   0  0  0  0  0  0  0  0  0  0  0  0
   39.4952   33.9915   43.3597 N   0  0  0  0  0  0  0  0  0  0  0  0
   39.2448   33.6671   44.3216 H   0  0  0  0  0  0  0  0  0  0  0  0
   39.6135   35.2443   42.9617 N   0  0  0  0  0  0  0  0  0  0  0  0
  1  7  1  0
  2  1  2  0
  3  2  1  0
  4  5  1  0
  4  3  2  0
  5  6  2  0
  6  1  1  0
  7  9  1  0
  8  7  1  0
  8  9  1  0
 10  3  1  0
 10 11  1  0
  2 12  1  0
  5 13  1  0
  7 14  1  0
  8 15  1  0
  8 16  1  0
  9 17  1  0
  9 18  1  0
 10 19  1  0
 10 20  1  0
 11 21  1  0
 11 22  1  0
 23 24  1  0
 24 25  2  0
 25 26  1  0
 25 27  1  0
 27 28  1  0
 27 29  1  0
 29 23  2  0
 11 23  1  0
M  ISO  8  12  14  13  14  14  13  15  13  16  13  17  13  18  13  19   8
M  ISO  5  20   8  21   8  22   8  26  14  28   9
M  END
>  <DihAtoms>  (1) 
9,10,22,23

>  <DihDeg>  (1) 
179.99895786274294

$$$$
