REMARK  Name = 
REMARK  4 active torsions:
REMARK  status: ('A' for Active; 'I' for Inactive)
REMARK    1  A    between atoms: C_1  and  C_7
REMARK    2  A    between atoms: C_3  and  C_10
REMARK    3  A    between atoms: C_10  and  C_11
REMARK    4  A    between atoms: C_11  and  C_23
REMARK                            x       y       z     vdW  Elec       q    Type
REMARK                         _______ _______ _______ _____ _____    ______ ____
ROOT
ATOM      1  C   UNL     1      43.950  34.663  41.446  0.00  0.00    +0.000 A 
ATOM      2  C   UNL     1      42.743  35.306  41.107  0.00  0.00    +0.000 A 
ATOM      3  C   UNL     1      42.179  35.030  39.864  0.00  0.00    +0.000 A 
ATOM      4  N   UNL     1      42.839  34.142  39.040  0.00  0.00    +0.000 NA
ATOM      5  C   UNL     1      43.996  33.558  39.428  0.00  0.00    +0.000 A 
ATOM      6  N   UNL     1      44.546  33.808  40.605  0.00  0.00    +0.000 NA
ATOM      7  H   UNL     1      42.294  35.989  41.813  0.00  0.00    +0.000 HD
ATOM      8  H   UNL     1      44.455  32.871  38.725  0.00  0.00    +0.000 HD
ENDROOT
BRANCH   1   9
ATOM      9  C   UNL     1      44.539  34.971  42.777  0.00  0.00    +0.000 C 
ATOM     10  C   UNL     1      46.051  35.304  42.705  0.00  0.00    +0.000 C 
ATOM     11  C   UNL     1      45.023  36.273  43.137  0.00  0.00    +0.000 C 
ATOM     12  H   UNL     1      44.264  34.179  43.520  0.00  0.00    +0.000 HD
ATOM     13  H   UNL     1      46.644  34.834  43.514  0.00  0.00    +0.000 HD
ATOM     14  H   UNL     1      46.515  35.371  41.705  0.00  0.00    +0.000 HD
ATOM     15  H   UNL     1      44.954  36.578  44.207  0.00  0.00    +0.000 HD
ATOM     16  H   UNL     1      44.844  37.144  42.473  0.00  0.00    +0.000 HD
ENDBRANCH   1   9
BRANCH   3  17
ATOM     17  C   UNL     1      40.903  35.680  39.465  0.00  0.00    +0.000 C 
ATOM     18  H   UNL     1      41.008  36.389  38.647  0.00  0.00    +0.000 HD
ATOM     19  H   UNL     1      40.231  34.858  39.136  0.00  0.00    +0.000 HD
BRANCH  17  20
ATOM     20  C   UNL     1      40.219  36.336  40.651  0.00  0.00    +0.000 C 
ATOM     21  H   UNL     1      39.251  36.733  40.284  0.00  0.00    +0.000 HD
ATOM     22  H   UNL     1      40.766  37.176  41.084  0.00  0.00    +0.000 HD
BRANCH  20  23
ATOM     23  C   UNL     1      39.951  35.248  41.643  0.00  0.00    +0.000 A 
ATOM     24  N   UNL     1      39.106  35.425  42.660  0.00  0.00    +0.000 NA
ATOM     25  C   UNL     1      39.008  34.325  43.433  0.00  0.00    +0.000 A 
ATOM     26  H   UNL     1      38.393  34.207  44.319  0.00  0.00    +0.000 HD
ATOM     27  N   UNL     1      39.840  33.440  42.848  0.00  0.00    +0.000 N 
ATOM     28  H   UNL     1      39.992  32.472  43.213  0.00  0.00    +0.000 HD
ATOM     29  N   UNL     1      40.408  33.974  41.783  0.00  0.00    +0.000 NA
ENDBRANCH  20  23
ENDBRANCH  17  20
ENDBRANCH   3  17
TORSDOF 4
