
 OpenBabel03242510573D

 34 36  0  0  0  0  0  0  0  0999 V2000
   45.6510   31.6080   47.1090 C   0  0  0  0  0  0  0  0  0  0  0  0
   45.5100   32.0780   48.4310 C   0  0  0  0  0  0  0  0  0  0  0  0
   45.2870   31.2390   49.5110 C   0  0  0  0  0  0  0  0  0  0  0  0
   45.2040   29.8850   49.2610 C   0  0  0  0  0  0  0  0  0  0  0  0
   45.3450   29.4350   47.9560 C   0  0  0  0  0  0  0  0  0  0  0  0
   45.5580   30.2880   46.9580 N   0  0  0  0  0  0  0  0  0  0  0  0
   45.5830   33.1550   48.5730 H   0  0  0  0  0  0  0  0  0  0  0  0
   45.1930   31.7100   50.4810 H   0  0  0  0  0  0  0  0  0  0  0  0
   45.0280   29.2500   50.1290 H   0  0  0  0  0  0  0  0  0  0  0  0
   44.7700   36.6030   43.8390 C   0  0  0  0  0  0  0  0  0  0  0  0
   45.6630   36.3130   42.8060 C   0  0  0  0  0  0  0  0  0  0  0  0
   46.3190   35.0790   42.8320 C   0  0  0  0  0  0  0  0  0  0  0  0
   46.0620   34.2130   43.8590 N   0  0  0  0  0  0  0  0  0  0  0  0
   45.1870   34.5390   44.8420 C   0  0  0  0  0  0  0  0  0  0  0  0
   44.5330   35.7420   44.8360 N   0  0  0  0  0  0  0  0  0  0  0  0
   45.8830   32.5590   46.0390 C   0  0  0  0  0  0  0  0  0  0  0  0
   46.9000   32.3930   45.3040 O   0  0  0  0  0  0  0  0  0  0  0  0
   44.9420   33.6200   45.8940 N   0  0  0  0  0  0  0  0  0  0  0  0
   44.2050   37.5260   43.9240 H   0  0  0  0  0  0  0  0  0  0  0  0
   45.8060   37.0470   42.0380 H   0  0  0  0  0  0  0  0  0  0  0  0
   47.0140   34.8350   42.0410 H   0  0  0  0  0  0  0  0  0  0  0  0
   44.0990   33.7460   46.5130 H   0  0  0  0  0  0  0  0  0  0  0  0
   45.2550   28.0060   47.7140 C   0  0  0  0  0  3  0  0  0  0  0  0
   44.5210   27.2310   48.5160 C   0  0  0  0  0  3  0  0  0  0  0  0
   44.3600   25.7570   48.3570 C   0  0  0  0  0  0  0  0  0  0  0  0
   45.2900   25.2940   48.0190 H   0  0  0  0  0  0  0  0  0  0  0  0
   43.9500   25.3020   49.2880 H   0  0  0  0  0  0  0  0  0  0  0  0
   43.3410   25.5750   47.2860 C   0  0  0  0  0  0  0  0  0  0  0  0
   42.0080   25.6990   47.3970 N   0  0  0  0  0  0  0  0  0  0  0  0
   41.4610   25.4510   46.2000 C   0  0  0  0  0  0  0  0  0  0  0  0
   40.4780   25.4110   45.7300 H   0  0  0  0  0  0  0  0  0  0  0  0
   42.4780   25.1750   45.3620 N   0  0  0  0  0  0  0  0  0  0  0  0
   42.5610   24.9220   44.3340 H   0  0  0  0  0  0  0  0  0  0  0  0
   43.6030   25.2510   46.0200 N   0  0  0  0  0  0  0  0  0  0  0  0
  1  2  1  0  0  0  0
  2  7  1  0  0  0  0
  2  3  2  0  0  0  0
  3  8  1  0  0  0  0
  4  3  1  0  0  0  0
  4  9  1  0  0  0  0
  5  4  2  0  0  0  0
  6  1  2  0  0  0  0
  6  5  1  0  0  0  0
 10 19  1  0  0  0  0
 10 15  1  0  0  0  0
 11 12  1  0  0  0  0
 11 10  2  0  0  0  0
 12 13  2  0  0  0  0
 13 14  1  0  0  0  0
 14 18  1  0  0  0  0
 15 14  2  0  0  0  0
 16  1  1  0  0  0  0
 17 16  2  0  0  0  0
 18 16  1  0  0  0  0
 18 22  1  0  0  0  0
 20 11  1  0  0  0  0
 21 12  1  0  0  0  0
 23  5  1  0  0  0  0
 23 24  2  0  0  0  0
 25 24  1  0  0  0  0
 25 27  1  0  0  0  0
 26 25  1  0  0  0  0
 28 29  1  0  0  0  0
 28 25  1  0  0  0  0
 30 29  2  0  0  0  0
 31 30  1  0  0  0  0
 32 34  1  0  0  0  0
 32 30  1  0  0  0  0
 33 32  1  0  0  0  0
 34 28  2  0  0  0  0
M  END
>  <minimizedAffinity>
-5.45836639

>  <minimizedRMSD>
1.65667379

$$$$
