
 OpenBabel03242510583D

 34 36  0  0  0  0  0  0  0  0999 V2000
   38.4550   29.9540   42.0550 C   0  0  0  0  0  0  0  0  0  0  0  0
   38.4450   29.1020   43.1790 C   0  0  0  0  0  0  0  0  0  0  0  0
   37.4690   28.1430   43.3910 C   0  0  0  0  0  0  0  0  0  0  0  0
   36.4690   28.0300   42.4470 C   0  0  0  0  0  0  0  0  0  0  0  0
   36.4900   28.8730   41.3450 C   0  0  0  0  0  0  0  0  0  0  0  0
   37.4540   29.7770   41.1940 N   0  0  0  0  0  0  0  0  0  0  0  0
   39.2570   29.2330   43.8940 H   0  0  0  0  0  0  0  0  0  0  0  0
   37.5620   27.5450   44.2890 H   0  0  0  0  0  0  0  0  0  0  0  0
   35.7150   27.2670   42.6410 H   0  0  0  0  0  0  0  0  0  0  0  0
   41.4850   34.5360   39.5560 C   0  0  0  0  0  0  0  0  0  0  0  0
   42.6130   34.4870   40.3770 C   0  0  0  0  0  0  0  0  0  0  0  0
   42.6870   33.4680   41.3300 C   0  0  0  0  0  0  0  0  0  0  0  0
   41.6610   32.5680   41.4200 N   0  0  0  0  0  0  0  0  0  0  0  0
   40.5850   32.6550   40.6010 C   0  0  0  0  0  0  0  0  0  0  0  0
   40.4910   33.6450   39.6590 N   0  0  0  0  0  0  0  0  0  0  0  0
   39.5180   30.9300   41.9140 C   0  0  0  0  0  0  0  0  0  0  0  0
   40.3590   31.0340   42.8540 O   0  0  0  0  0  0  0  0  0  0  0  0
   39.5370   31.7060   40.7190 N   0  0  0  0  0  0  0  0  0  0  0  0
   41.3180   35.2780   38.7820 H   0  0  0  0  0  0  0  0  0  0  0  0
   43.3720   35.2310   40.2400 H   0  0  0  0  0  0  0  0  0  0  0  0
   43.5520   33.4130   41.9760 H   0  0  0  0  0  0  0  0  0  0  0  0
   38.8300   31.6090   39.9430 H   0  0  0  0  0  0  0  0  0  0  0  0
   35.4290   28.7390   40.3640 C   0  0  0  0  0  3  0  0  0  0  0  0
   35.6510   29.0450   39.0830 C   0  0  0  0  0  3  0  0  0  0  0  0
   34.6340   28.9430   37.9970 C   0  0  0  0  0  0  0  0  0  0  0  0
   34.2300   27.9300   37.9310 H   0  0  0  0  0  0  0  0  0  0  0  0
   33.8510   29.7270   38.1160 H   0  0  0  0  0  0  0  0  0  0  0  0
   35.3650   29.2300   36.7320 C   0  0  0  0  0  0  0  0  0  0  0  0
   34.9450   28.9950   35.4760 N   0  0  0  0  0  0  0  0  0  0  0  0
   35.9020   29.3990   34.6310 C   0  0  0  0  0  0  0  0  0  0  0  0
   36.0950   29.4490   33.5580 H   0  0  0  0  0  0  0  0  0  0  0  0
   36.9060   29.8820   35.3880 N   0  0  0  0  0  0  0  0  0  0  0  0
   37.8600   30.3080   35.1940 H   0  0  0  0  0  0  0  0  0  0  0  0
   36.5770   29.7770   36.6460 N   0  0  0  0  0  0  0  0  0  0  0  0
  1  2  1  0  0  0  0
  2  3  2  0  0  0  0
  2  7  1  0  0  0  0
  3  8  1  0  0  0  0
  4  9  1  0  0  0  0
  4  3  1  0  0  0  0
  5  4  2  0  0  0  0
  6  5  1  0  0  0  0
  6  1  2  0  0  0  0
 10 15  2  0  0  0  0
 10 11  1  0  0  0  0
 11 12  2  0  0  0  0
 12 13  1  0  0  0  0
 12 21  1  0  0  0  0
 14 18  1  0  0  0  0
 14 13  2  0  0  0  0
 15 14  1  0  0  0  0
 16  1  1  0  0  0  0
 16 17  2  0  0  0  0
 18 16  1  0  0  0  0
 19 10  1  0  0  0  0
 20 11  1  0  0  0  0
 22 18  1  0  0  0  0
 23  5  1  0  0  0  0
 24 23  2  0  0  0  0
 25 27  1  0  0  0  0
 25 24  1  0  0  0  0
 26 25  1  0  0  0  0
 28 25  1  0  0  0  0
 29 28  1  0  0  0  0
 30 32  1  0  0  0  0
 30 29  2  0  0  0  0
 31 30  1  0  0  0  0
 32 34  1  0  0  0  0
 33 32  1  0  0  0  0
 34 28  2  0  0  0  0
M  END
>  <minimizedAffinity>
-5.58659506

$$$$

 OpenBabel03242510583D

 34 36  0  0  0  0  0  0  0  0999 V2000
   37.9050   30.0030   40.9790 C   0  0  0  0  0  0  0  0  0  0  0  0
   36.8030   30.7660   40.5420 C   0  0  0  0  0  0  0  0  0  0  0  0
   36.8940   32.1120   40.2240 C   0  0  0  0  0  0  0  0  0  0  0  0
   38.1300   32.7140   40.3470 C   0  0  0  0  0  0  0  0  0  0  0  0
   39.2060   31.9520   40.7780 C   0  0  0  0  0  0  0  0  0  0  0  0
   39.0580   30.6630   41.0690 N   0  0  0  0  0  0  0  0  0  0  0  0
   35.8510   30.2420   40.4620 H   0  0  0  0  0  0  0  0  0  0  0  0
   35.9830   32.5970   39.8980 H   0  0  0  0  0  0  0  0  0  0  0  0
   38.1720   33.7720   40.0900 H   0  0  0  0  0  0  0  0  0  0  0  0
   38.9130   24.0620   40.6440 C   0  0  0  0  0  0  0  0  0  0  0  0
   37.8450   23.6440   41.4390 C   0  0  0  0  0  0  0  0  0  0  0  0
   36.9640   24.6170   41.9190 C   0  0  0  0  0  0  0  0  0  0  0  0
   37.1810   25.9270   41.5930 N   0  0  0  0  0  0  0  0  0  0  0  0
   38.2330   26.2860   40.8180 C   0  0  0  0  0  0  0  0  0  0  0  0
   39.1080   25.3500   40.3360 N   0  0  0  0  0  0  0  0  0  0  0  0
   37.7170   28.5990   41.2900 C   0  0  0  0  0  0  0  0  0  0  0  0
   36.9350   28.2990   42.2390 O   0  0  0  0  0  0  0  0  0  0  0  0
   38.4310   27.6540   40.4980 N   0  0  0  0  0  0  0  0  0  0  0  0
   39.6580   23.4000   40.2150 H   0  0  0  0  0  0  0  0  0  0  0  0
   37.7470   22.5970   41.6460 H   0  0  0  0  0  0  0  0  0  0  0  0
   36.1300   24.3130   42.5370 H   0  0  0  0  0  0  0  0  0  0  0  0
   39.0790   27.9170   39.7100 H   0  0  0  0  0  0  0  0  0  0  0  0
   40.4970   32.6040   40.9010 C   0  0  0  0  0  3  0  0  0  0  0  0
   40.7260   33.7700   40.2910 C   0  0  0  0  0  3  0  0  0  0  0  0
   42.0120   34.5230   40.3520 C   0  0  0  0  0  0  0  0  0  0  0  0
   41.8340   35.5980   40.4350 H   0  0  0  0  0  0  0  0  0  0  0  0
   42.6670   34.1180   41.1570 H   0  0  0  0  0  0  0  0  0  0  0  0
   42.6910   34.2680   39.0520 C   0  0  0  0  0  0  0  0  0  0  0  0
   43.9100   33.7360   38.8600 N   0  0  0  0  0  0  0  0  0  0  0  0
   44.1410   33.6800   37.5420 C   0  0  0  0  0  0  0  0  0  0  0  0
   44.9200   33.3600   36.8490 H   0  0  0  0  0  0  0  0  0  0  0  0
   43.0480   34.1860   36.9380 N   0  0  0  0  0  0  0  0  0  0  0  0
   42.7510   34.3520   35.9310 H   0  0  0  0  0  0  0  0  0  0  0  0
   42.1830   34.5360   37.8500 N   0  0  0  0  0  0  0  0  0  0  0  0
  1  6  1  0  0  0  0
  1 16  1  0  0  0  0
  2  1  2  0  0  0  0
  3  4  2  0  0  0  0
  3  2  1  0  0  0  0
  4  5  1  0  0  0  0
  5 23  1  0  0  0  0
  5  6  2  0  0  0  0
  7  2  1  0  0  0  0
  8  3  1  0  0  0  0
  9  4  1  0  0  0  0
 10 11  1  0  0  0  0
 11 20  1  0  0  0  0
 11 12  2  0  0  0  0
 12 21  1  0  0  0  0
 13 12  1  0  0  0  0
 14 13  2  0  0  0  0
 15 10  2  0  0  0  0
 15 14  1  0  0  0  0
 16 17  2  0  0  0  0
 18 14  1  0  0  0  0
 18 16  1  0  0  0  0
 19 10  1  0  0  0  0
 22 18  1  0  0  0  0
 24 25  1  0  0  0  0
 24 23  2  0  0  0  0
 25 26  1  0  0  0  0
 25 27  1  0  0  0  0
 28 25  1  0  0  0  0
 29 28  1  0  0  0  0
 30 29  2  0  0  0  0
 31 30  1  0  0  0  0
 32 30  1  0  0  0  0
 32 34  1  0  0  0  0
 33 32  1  0  0  0  0
 34 28  2  0  0  0  0
M  END
>  <minimizedAffinity>
-5.56137848

$$$$

 OpenBabel03242510583D

 34 36  0  0  0  0  0  0  0  0999 V2000
   38.3980   31.0940   40.9570 C   0  0  0  0  0  0  0  0  0  0  0  0
   37.1830   31.5690   40.4210 C   0  0  0  0  0  0  0  0  0  0  0  0
   37.0350   32.8440   39.9000 C   0  0  0  0  0  0  0  0  0  0  0  0
   38.1390   33.6710   39.9140 C   0  0  0  0  0  0  0  0  0  0  0  0
   39.3290   33.1920   40.4430 C   0  0  0  0  0  0  0  0  0  0  0  0
   39.4120   31.9570   40.9300 N   0  0  0  0  0  0  0  0  0  0  0  0
   36.3430   30.8750   40.4350 H   0  0  0  0  0  0  0  0  0  0  0  0
   36.0560   33.1010   39.5160 H   0  0  0  0  0  0  0  0  0  0  0  0
   37.9920   34.6680   39.4980 H   0  0  0  0  0  0  0  0  0  0  0  0
   40.7920   26.3790   43.8660 C   0  0  0  0  0  0  0  0  0  0  0  0
   39.8170   25.4360   43.5330 C   0  0  0  0  0  0  0  0  0  0  0  0
   38.7860   25.8330   42.6770 C   0  0  0  0  0  0  0  0  0  0  0  0
   38.7730   27.1160   42.2050 N   0  0  0  0  0  0  0  0  0  0  0  0
   39.7410   27.9970   42.5560 C   0  0  0  0  0  0  0  0  0  0  0  0
   40.7610   27.6310   43.3930 N   0  0  0  0  0  0  0  0  0  0  0  0
   38.4620   29.7430   41.4810 C   0  0  0  0  0  0  0  0  0  0  0  0
   37.4230   29.0250   41.4040 O   0  0  0  0  0  0  0  0  0  0  0  0
   39.6990   29.3210   42.0490 N   0  0  0  0  0  0  0  0  0  0  0  0
   41.6370   26.1860   44.5190 H   0  0  0  0  0  0  0  0  0  0  0  0
   39.9020   24.4510   43.9470 H   0  0  0  0  0  0  0  0  0  0  0  0
   38.0210   25.1180   42.4080 H   0  0  0  0  0  0  0  0  0  0  0  0
   40.5580   29.9300   42.1070 H   0  0  0  0  0  0  0  0  0  0  0  0
   40.4780   34.0780   40.4480 C   0  0  0  0  0  3  0  0  0  0  0  0
   41.7150   33.5800   40.3730 C   0  0  0  0  0  3  0  0  0  0  0  0
   42.9610   34.3990   40.3710 C   0  0  0  0  0  0  0  0  0  0  0  0
   42.7290   35.4670   40.3780 H   0  0  0  0  0  0  0  0  0  0  0  0
   43.6400   34.0870   41.1980 H   0  0  0  0  0  0  0  0  0  0  0  0
   43.6480   34.0860   39.0870 C   0  0  0  0  0  0  0  0  0  0  0  0
   44.8710   33.5520   38.9260 N   0  0  0  0  0  0  0  0  0  0  0  0
   45.1080   33.4350   37.6130 C   0  0  0  0  0  0  0  0  0  0  0  0
   45.8920   33.0860   36.9390 H   0  0  0  0  0  0  0  0  0  0  0  0
   44.0150   33.9040   36.9810 N   0  0  0  0  0  0  0  0  0  0  0  0
   43.7210   34.0200   35.9660 H   0  0  0  0  0  0  0  0  0  0  0  0
   43.1440   34.2930   37.8720 N   0  0  0  0  0  0  0  0  0  0  0  0
  1 16  1  0  0  0  0
  2  7  1  0  0  0  0
  2  1  2  0  0  0  0
  3  4  2  0  0  0  0
  3  2  1  0  0  0  0
  4  5  1  0  0  0  0
  5 23  1  0  0  0  0
  5  6  2  0  0  0  0
  6  1  1  0  0  0  0
  8  3  1  0  0  0  0
  9  4  1  0  0  0  0
 10 19  1  0  0  0  0
 11 10  1  0  0  0  0
 11 20  1  0  0  0  0
 12 11  2  0  0  0  0
 13 14  2  0  0  0  0
 13 12  1  0  0  0  0
 14 15  1  0  0  0  0
 15 10  2  0  0  0  0
 16 18  1  0  0  0  0
 17 16  2  0  0  0  0
 18 22  1  0  0  0  0
 18 14  1  0  0  0  0
 21 12  1  0  0  0  0
 24 23  2  0  0  0  0
 25 24  1  0  0  0  0
 25 26  1  0  0  0  0
 25 27  1  0  0  0  0
 28 25  1  0  0  0  0
 29 28  1  0  0  0  0
 30 29  2  0  0  0  0
 31 30  1  0  0  0  0
 32 30  1  0  0  0  0
 32 34  1  0  0  0  0
 33 32  1  0  0  0  0
 34 28  2  0  0  0  0
M  END
>  <minimizedAffinity>
-5.53534555

$$$$

 OpenBabel03242510583D

 34 36  0  0  0  0  0  0  0  0999 V2000
   37.7050   30.5610   38.5480 C   0  0  0  0  0  0  0  0  0  0  0  0
   36.8520   30.4610   37.4300 C   0  0  0  0  0  0  0  0  0  0  0  0
   35.8900   29.4730   37.2990 C   0  0  0  0  0  0  0  0  0  0  0  0
   35.7750   28.5550   38.3230 C   0  0  0  0  0  0  0  0  0  0  0  0
   36.6200   28.6640   39.4180 C   0  0  0  0  0  0  0  0  0  0  0  0
   37.5270   29.6350   39.4880 N   0  0  0  0  0  0  0  0  0  0  0  0
   36.9840   31.2110   36.6510 H   0  0  0  0  0  0  0  0  0  0  0  0
   35.2910   29.4940   36.3980 H   0  0  0  0  0  0  0  0  0  0  0  0
   35.0110   27.7900   38.1930 H   0  0  0  0  0  0  0  0  0  0  0  0
   42.7930   33.4950   37.1620 C   0  0  0  0  0  0  0  0  0  0  0  0
   42.6820   34.5210   38.1020 C   0  0  0  0  0  0  0  0  0  0  0  0
   41.6050   34.4820   38.9910 C   0  0  0  0  0  0  0  0  0  0  0  0
   40.7110   33.4510   38.9060 N   0  0  0  0  0  0  0  0  0  0  0  0
   40.8600   32.4760   37.9760 C   0  0  0  0  0  0  0  0  0  0  0  0
   41.9080   32.4930   37.0940 N   0  0  0  0  0  0  0  0  0  0  0  0
   38.6850   31.6290   38.6000 C   0  0  0  0  0  0  0  0  0  0  0  0
   38.3900   32.6760   39.2470 O   0  0  0  0  0  0  0  0  0  0  0  0
   39.9160   31.4200   37.9130 N   0  0  0  0  0  0  0  0  0  0  0  0
   43.5850   33.4190   36.4230 H   0  0  0  0  0  0  0  0  0  0  0  0
   43.4270   35.2920   38.1010 H   0  0  0  0  0  0  0  0  0  0  0  0
   41.5010   35.2680   39.7270 H   0  0  0  0  0  0  0  0  0  0  0  0
   40.1480   30.5420   37.3770 H   0  0  0  0  0  0  0  0  0  0  0  0
   36.4840   27.6870   40.4840 C   0  0  0  0  0  3  0  0  0  0  0  0
   36.8560   27.9920   41.7300 C   0  0  0  0  0  3  0  0  0  0  0  0
   36.7590   27.0660   42.8950 C   0  0  0  0  0  0  0  0  0  0  0  0
   37.2340   27.4970   43.7790 H   0  0  0  0  0  0  0  0  0  0  0  0
   35.7030   26.7560   43.0650 H   0  0  0  0  0  0  0  0  0  0  0  0
   37.5260   25.8490   42.5080 C   0  0  0  0  0  0  0  0  0  0  0  0
   38.8600   25.7240   42.4050 N   0  0  0  0  0  0  0  0  0  0  0  0
   39.1370   24.4680   42.0320 C   0  0  0  0  0  0  0  0  0  0  0  0
   40.0010   23.8410   41.8090 H   0  0  0  0  0  0  0  0  0  0  0  0
   37.9550   23.8330   41.9100 N   0  0  0  0  0  0  0  0  0  0  0  0
   37.6500   22.8510   41.6450 H   0  0  0  0  0  0  0  0  0  0  0  0
   36.9940   24.6680   42.1970 N   0  0  0  0  0  0  0  0  0  0  0  0
  1 16  1  0  0  0  0
  1  6  1  0  0  0  0
  2  1  2  0  0  0  0
  3  2  1  0  0  0  0
  3  4  2  0  0  0  0
  4  5  1  0  0  0  0
  5  6  2  0  0  0  0
  5 23  1  0  0  0  0
  7  2  1  0  0  0  0
  8  3  1  0  0  0  0
  9  4  1  0  0  0  0
 10 11  1  0  0  0  0
 11 12  2  0  0  0  0
 12 21  1  0  0  0  0
 13 12  1  0  0  0  0
 14 13  2  0  0  0  0
 15 10  2  0  0  0  0
 15 14  1  0  0  0  0
 16 17  2  0  0  0  0
 18 14  1  0  0  0  0
 18 16  1  0  0  0  0
 19 10  1  0  0  0  0
 20 11  1  0  0  0  0
 22 18  1  0  0  0  0
 23 24  2  0  0  0  0
 24 25  1  0  0  0  0
 25 27  1  0  0  0  0
 25 26  1  0  0  0  0
 28 25  1  0  0  0  0
 29 28  1  0  0  0  0
 30 29  2  0  0  0  0
 31 30  1  0  0  0  0
 32 30  1  0  0  0  0
 32 34  1  0  0  0  0
 33 32  1  0  0  0  0
 34 28  2  0  0  0  0
M  END
>  <minimizedAffinity>
-5.51071405

$$$$

 OpenBabel03242510583D

 34 36  0  0  0  0  0  0  0  0999 V2000
   37.6980   30.7740   40.4200 C   0  0  0  0  0  0  0  0  0  0  0  0
   36.4110   30.8570   39.8500 C   0  0  0  0  0  0  0  0  0  0  0  0
   35.4190   29.9190   40.0870 C   0  0  0  0  0  0  0  0  0  0  0  0
   35.7240   28.8630   40.9210 C   0  0  0  0  0  0  0  0  0  0  0  0
   36.9940   28.7940   41.4760 C   0  0  0  0  0  0  0  0  0  0  0  0
   37.9070   29.7250   41.2120 N   0  0  0  0  0  0  0  0  0  0  0  0
   36.2220   31.7090   39.1990 H   0  0  0  0  0  0  0  0  0  0  0  0
   34.4680   30.0830   39.5960 H   0  0  0  0  0  0  0  0  0  0  0  0
   34.9250   28.1420   41.0890 H   0  0  0  0  0  0  0  0  0  0  0  0
   42.0960   33.5080   37.3200 C   0  0  0  0  0  0  0  0  0  0  0  0
   42.3580   34.5350   38.2290 C   0  0  0  0  0  0  0  0  0  0  0  0
   41.6560   34.5360   39.4380 C   0  0  0  0  0  0  0  0  0  0  0  0
   40.7500   33.5410   39.6790 N   0  0  0  0  0  0  0  0  0  0  0  0
   40.5280   32.5650   38.7660 C   0  0  0  0  0  0  0  0  0  0  0  0
   41.2040   32.5430   37.5760 N   0  0  0  0  0  0  0  0  0  0  0  0
   38.6750   31.8020   40.1160 C   0  0  0  0  0  0  0  0  0  0  0  0
   38.6640   32.8580   40.8140 O   0  0  0  0  0  0  0  0  0  0  0  0
   39.5810   31.5470   39.0470 N   0  0  0  0  0  0  0  0  0  0  0  0
   42.5780   33.4030   36.3530 H   0  0  0  0  0  0  0  0  0  0  0  0
   43.0850   35.2750   37.9610 H   0  0  0  0  0  0  0  0  0  0  0  0
   41.8450   35.3230   40.1550 H   0  0  0  0  0  0  0  0  0  0  0  0
   39.5790   30.6620   38.4730 H   0  0  0  0  0  0  0  0  0  0  0  0
   37.2960   27.6760   42.3510 C   0  0  0  0  0  3  0  0  0  0  0  0
   37.5620   26.4710   41.8400 C   0  0  0  0  0  3  0  0  0  0  0  0
   37.8840   25.2590   42.6470 C   0  0  0  0  0  0  0  0  0  0  0  0
   37.3540   25.2710   43.6020 H   0  0  0  0  0  0  0  0  0  0  0  0
   37.7080   24.3320   42.0530 H   0  0  0  0  0  0  0  0  0  0  0  0
   39.3440   25.3380   42.9300 C   0  0  0  0  0  0  0  0  0  0  0  0
   40.0260   26.3950   43.4050 N   0  0  0  0  0  0  0  0  0  0  0  0
   41.3150   26.0470   43.5150 C   0  0  0  0  0  0  0  0  0  0  0  0
   42.2660   26.4790   43.8270 H   0  0  0  0  0  0  0  0  0  0  0  0
   41.4050   24.7680   43.1020 N   0  0  0  0  0  0  0  0  0  0  0  0
   42.1920   24.0610   43.0030 H   0  0  0  0  0  0  0  0  0  0  0  0
   40.2200   24.3500   42.7520 N   0  0  0  0  0  0  0  0  0  0  0  0
  1  6  1  0  0  0  0
  2  3  1  0  0  0  0
  2  1  2  0  0  0  0
  3  4  2  0  0  0  0
  4  9  1  0  0  0  0
  4  5  1  0  0  0  0
  5 23  1  0  0  0  0
  6  5  2  0  0  0  0
  7  2  1  0  0  0  0
  8  3  1  0  0  0  0
 10 15  2  0  0  0  0
 10 11  1  0  0  0  0
 11 12  2  0  0  0  0
 12 13  1  0  0  0  0
 12 21  1  0  0  0  0
 14 18  1  0  0  0  0
 14 13  2  0  0  0  0
 15 14  1  0  0  0  0
 16  1  1  0  0  0  0
 16 17  2  0  0  0  0
 18 16  1  0  0  0  0
 19 10  1  0  0  0  0
 20 11  1  0  0  0  0
 22 18  1  0  0  0  0
 24 23  2  0  0  0  0
 24 25  1  0  0  0  0
 25 28  1  0  0  0  0
 25 26  1  0  0  0  0
 27 25  1  0  0  0  0
 28 29  1  0  0  0  0
 29 30  2  0  0  0  0
 30 31  1  0  0  0  0
 32 30  1  0  0  0  0
 33 32  1  0  0  0  0
 34 28  2  0  0  0  0
 34 32  1  0  0  0  0
M  END
>  <minimizedAffinity>
-5.50971985

$$$$

 OpenBabel03242510583D

 34 36  0  0  0  0  0  0  0  0999 V2000
   38.0810   26.3900   41.9440 C   0  0  0  0  0  0  0  0  0  0  0  0
   36.9450   26.2460   42.7680 C   0  0  0  0  0  0  0  0  0  0  0  0
   36.4750   27.2580   43.5890 C   0  0  0  0  0  0  0  0  0  0  0  0
   37.1620   28.4540   43.5860 C   0  0  0  0  0  0  0  0  0  0  0  0
   38.2770   28.5830   42.7700 C   0  0  0  0  0  0  0  0  0  0  0  0
   38.6830   27.5760   42.0020 N   0  0  0  0  0  0  0  0  0  0  0  0
   36.4400   25.2810   42.7330 H   0  0  0  0  0  0  0  0  0  0  0  0
   35.5940   27.0350   44.1790 H   0  0  0  0  0  0  0  0  0  0  0  0
   36.7690   29.2310   44.2410 H   0  0  0  0  0  0  0  0  0  0  0  0
   41.4890   23.4330   37.9360 C   0  0  0  0  0  0  0  0  0  0  0  0
   40.7010   22.2860   37.8280 C   0  0  0  0  0  0  0  0  0  0  0  0
   39.4960   22.2480   38.5350 C   0  0  0  0  0  0  0  0  0  0  0  0
   39.1410   23.3260   39.2980 N   0  0  0  0  0  0  0  0  0  0  0  0
   39.9380   24.4190   39.3730 C   0  0  0  0  0  0  0  0  0  0  0  0
   41.1230   24.4780   38.6880 N   0  0  0  0  0  0  0  0  0  0  0  0
   38.5020   25.2760   41.1160 C   0  0  0  0  0  0  0  0  0  0  0  0
   37.9260   24.1610   41.2800 O   0  0  0  0  0  0  0  0  0  0  0  0
   39.5420   25.5210   40.1730 N   0  0  0  0  0  0  0  0  0  0  0  0
   42.4400   23.5760   37.4340 H   0  0  0  0  0  0  0  0  0  0  0  0
   41.0530   21.4860   37.2080 H   0  0  0  0  0  0  0  0  0  0  0  0
   38.8720   21.3680   38.4650 H   0  0  0  0  0  0  0  0  0  0  0  0
   40.0130   26.4550   40.0470 H   0  0  0  0  0  0  0  0  0  0  0  0
   38.9870   29.8500   42.7810 C   0  0  0  0  0  3  0  0  0  0  0  0
   39.3680   30.4200   41.6350 C   0  0  0  0  0  3  0  0  0  0  0  0
   40.0990   31.7160   41.5340 C   0  0  0  0  0  0  0  0  0  0  0  0
   40.3790   32.0870   42.5230 H   0  0  0  0  0  0  0  0  0  0  0  0
   40.9610   31.6280   40.8330 H   0  0  0  0  0  0  0  0  0  0  0  0
   39.1330   32.6790   40.9370 C   0  0  0  0  0  0  0  0  0  0  0  0
   39.3560   33.9660   40.6200 N   0  0  0  0  0  0  0  0  0  0  0  0
   38.2270   34.4740   40.1090 C   0  0  0  0  0  0  0  0  0  0  0  0
   37.8490   35.4140   39.7050 H   0  0  0  0  0  0  0  0  0  0  0  0
   37.3180   33.4810   40.1210 N   0  0  0  0  0  0  0  0  0  0  0  0
   36.3010   33.3850   39.8270 H   0  0  0  0  0  0  0  0  0  0  0  0
   37.8690   32.4080   40.6190 N   0  0  0  0  0  0  0  0  0  0  0  0
  1  6  2  0  0  0  0
  1  2  1  0  0  0  0
  2  3  2  0  0  0  0
  3  8  1  0  0  0  0
  4  3  1  0  0  0  0
  4  9  1  0  0  0  0
  5 23  1  0  0  0  0
  5  4  2  0  0  0  0
  6  5  1  0  0  0  0
  7  2  1  0  0  0  0
 10 15  1  0  0  0  0
 11 10  2  0  0  0  0
 11 12  1  0  0  0  0
 12 13  2  0  0  0  0
 13 14  1  0  0  0  0
 14 18  1  0  0  0  0
 15 14  2  0  0  0  0
 16 17  2  0  0  0  0
 16  1  1  0  0  0  0
 18 16  1  0  0  0  0
 19 10  1  0  0  0  0
 20 11  1  0  0  0  0
 21 12  1  0  0  0  0
 22 18  1  0  0  0  0
 24 23  2  0  0  0  0
 25 24  1  0  0  0  0
 25 26  1  0  0  0  0
 27 25  1  0  0  0  0
 28 25  1  0  0  0  0
 29 28  1  0  0  0  0
 30 32  1  0  0  0  0
 30 29  2  0  0  0  0
 31 30  1  0  0  0  0
 32 34  1  0  0  0  0
 33 32  1  0  0  0  0
 34 28  2  0  0  0  0
M  END
>  <minimizedAffinity>
-5.48057985

$$$$

 OpenBabel03242510583D

 34 36  0  0  0  0  0  0  0  0999 V2000
   38.9790   30.7390   38.9530 C   0  0  0  0  0  0  0  0  0  0  0  0
   38.3320   31.9780   38.7640 C   0  0  0  0  0  0  0  0  0  0  0  0
   37.2340   32.3790   39.5080 C   0  0  0  0  0  0  0  0  0  0  0  0
   36.7670   31.5110   40.4740 C   0  0  0  0  0  0  0  0  0  0  0  0
   37.4120   30.2950   40.6510 C   0  0  0  0  0  0  0  0  0  0  0  0
   38.4630   29.9640   39.9060 N   0  0  0  0  0  0  0  0  0  0  0  0
   38.7410   32.6250   37.9890 H   0  0  0  0  0  0  0  0  0  0  0  0
   36.8190   33.3510   39.2760 H   0  0  0  0  0  0  0  0  0  0  0  0
   35.9030   31.8530   41.0430 H   0  0  0  0  0  0  0  0  0  0  0  0
   44.4590   31.4270   36.5210 C   0  0  0  0  0  0  0  0  0  0  0  0
   44.4050   30.3560   35.6270 C   0  0  0  0  0  0  0  0  0  0  0  0
   43.2160   29.6260   35.5490 C   0  0  0  0  0  0  0  0  0  0  0  0
   42.1630   29.9860   36.3440 N   0  0  0  0  0  0  0  0  0  0  0  0
   42.2620   31.0330   37.1980 C   0  0  0  0  0  0  0  0  0  0  0  0
   43.4170   31.7630   37.2910 N   0  0  0  0  0  0  0  0  0  0  0  0
   40.1230   30.4030   38.1280 C   0  0  0  0  0  0  0  0  0  0  0  0
   40.1390   29.2690   37.5670 O   0  0  0  0  0  0  0  0  0  0  0  0
   41.1520   31.3810   38.0100 N   0  0  0  0  0  0  0  0  0  0  0  0
   45.3250   32.0640   36.6670 H   0  0  0  0  0  0  0  0  0  0  0  0
   45.2760   30.1420   35.0400 H   0  0  0  0  0  0  0  0  0  0  0  0
   43.1540   28.7920   34.8630 H   0  0  0  0  0  0  0  0  0  0  0  0
   41.1250   32.3230   38.4830 H   0  0  0  0  0  0  0  0  0  0  0  0
   36.9050   29.3970   41.6720 C   0  0  0  0  0  3  0  0  0  0  0  0
   37.2730   28.1130   41.6850 C   0  0  0  0  0  3  0  0  0  0  0  0
   36.8130   27.1080   42.6860 C   0  0  0  0  0  0  0  0  0  0  0  0
   37.0990   27.4030   43.6990 H   0  0  0  0  0  0  0  0  0  0  0  0
   35.7220   26.9100   42.5730 H   0  0  0  0  0  0  0  0  0  0  0  0
   37.5330   25.8480   42.3530 C   0  0  0  0  0  0  0  0  0  0  0  0
   38.8460   25.7000   42.1050 N   0  0  0  0  0  0  0  0  0  0  0  0
   39.0820   24.4070   41.8490 C   0  0  0  0  0  0  0  0  0  0  0  0
   39.9150   23.7500   41.5980 H   0  0  0  0  0  0  0  0  0  0  0  0
   37.8970   23.7730   41.9440 N   0  0  0  0  0  0  0  0  0  0  0  0
   37.5670   22.7690   41.8320 H   0  0  0  0  0  0  0  0  0  0  0  0
   36.9730   24.6440   42.2460 N   0  0  0  0  0  0  0  0  0  0  0  0
  1  6  1  0  0  0  0
  2  1  2  0  0  0  0
  2  3  1  0  0  0  0
  3  4  2  0  0  0  0
  4  5  1  0  0  0  0
  4  9  1  0  0  0  0
  5 23  1  0  0  0  0
  6  5  2  0  0  0  0
  7  2  1  0  0  0  0
  8  3  1  0  0  0  0
 10 19  1  0  0  0  0
 10 15  1  0  0  0  0
 11 10  2  0  0  0  0
 12 11  1  0  0  0  0
 12 13  2  0  0  0  0
 13 14  1  0  0  0  0
 14 15  2  0  0  0  0
 14 18  1  0  0  0  0
 16  1  1  0  0  0  0
 17 16  2  0  0  0  0
 18 16  1  0  0  0  0
 18 22  1  0  0  0  0
 20 11  1  0  0  0  0
 21 12  1  0  0  0  0
 23 24  2  0  0  0  0
 24 25  1  0  0  0  0
 25 26  1  0  0  0  0
 27 25  1  0  0  0  0
 28 25  1  0  0  0  0
 29 28  1  0  0  0  0
 30 32  1  0  0  0  0
 30 29  2  0  0  0  0
 31 30  1  0  0  0  0
 32 34  1  0  0  0  0
 33 32  1  0  0  0  0
 34 28  2  0  0  0  0
M  END
>  <minimizedAffinity>
-5.41957283

$$$$

 OpenBabel03242510583D

 34 36  0  0  0  0  0  0  0  0999 V2000
   37.5620   29.0460   41.8920 C   0  0  0  0  0  0  0  0  0  0  0  0
   37.3590   28.8630   43.2760 C   0  0  0  0  0  0  0  0  0  0  0  0
   37.0270   27.6400   43.8360 C   0  0  0  0  0  0  0  0  0  0  0  0
   36.8940   26.5630   42.9830 C   0  0  0  0  0  0  0  0  0  0  0  0
   37.0970   26.7550   41.6240 C   0  0  0  0  0  0  0  0  0  0  0  0
   37.4140   27.9540   41.1430 N   0  0  0  0  0  0  0  0  0  0  0  0
   37.4760   29.7450   43.9040 H   0  0  0  0  0  0  0  0  0  0  0  0
   36.8950   27.6160   44.9100 H   0  0  0  0  0  0  0  0  0  0  0  0
   36.6330   25.6140   43.4510 H   0  0  0  0  0  0  0  0  0  0  0  0
   41.1900   33.5700   40.2220 C   0  0  0  0  0  0  0  0  0  0  0  0
   40.2030   34.5360   40.0120 C   0  0  0  0  0  0  0  0  0  0  0  0
   38.8790   34.1950   40.3020 C   0  0  0  0  0  0  0  0  0  0  0  0
   38.6050   32.9410   40.7750 N   0  0  0  0  0  0  0  0  0  0  0  0
   39.5960   32.0360   40.9620 C   0  0  0  0  0  0  0  0  0  0  0  0
   40.9010   32.3480   40.6860 N   0  0  0  0  0  0  0  0  0  0  0  0
   37.9070   30.3630   41.3940 C   0  0  0  0  0  0  0  0  0  0  0  0
   36.9770   31.0900   40.9390 O   0  0  0  0  0  0  0  0  0  0  0  0
   39.2790   30.7440   41.4540 N   0  0  0  0  0  0  0  0  0  0  0  0
   42.2480   33.7200   40.0350 H   0  0  0  0  0  0  0  0  0  0  0  0
   40.5040   35.4940   39.6400 H   0  0  0  0  0  0  0  0  0  0  0  0
   38.1010   34.9290   40.1450 H   0  0  0  0  0  0  0  0  0  0  0  0
   40.0450   30.1280   41.8360 H   0  0  0  0  0  0  0  0  0  0  0  0
   36.9530   25.6100   40.7440 C   0  0  0  0  0  3  0  0  0  0  0  0
   37.4000   24.4090   41.1200 C   0  0  0  0  0  3  0  0  0  0  0  0
   37.3020   23.1700   40.2960 C   0  0  0  0  0  0  0  0  0  0  0  0
   37.3150   22.2770   40.9260 H   0  0  0  0  0  0  0  0  0  0  0  0
   36.4220   23.2190   39.6140 H   0  0  0  0  0  0  0  0  0  0  0  0
   38.5250   23.1520   39.4470 C   0  0  0  0  0  0  0  0  0  0  0  0
   39.5830   23.9790   39.5240 N   0  0  0  0  0  0  0  0  0  0  0  0
   40.4640   23.6220   38.5800 C   0  0  0  0  0  0  0  0  0  0  0  0
   41.4420   23.9210   38.2030 H   0  0  0  0  0  0  0  0  0  0  0  0
   39.9270   22.5700   37.9300 N   0  0  0  0  0  0  0  0  0  0  0  0
   40.2290   21.9480   37.1240 H   0  0  0  0  0  0  0  0  0  0  0  0
   38.7650   22.2960   38.4560 N   0  0  0  0  0  0  0  0  0  0  0  0
  1  2  1  0  0  0  0
  2  3  2  0  0  0  0
  2  7  1  0  0  0  0
  3  8  1  0  0  0  0
  4  9  1  0  0  0  0
  4  3  1  0  0  0  0
  5  4  2  0  0  0  0
  6  5  1  0  0  0  0
  6  1  2  0  0  0  0
 10 15  1  0  0  0  0
 11 10  2  0  0  0  0
 11 12  1  0  0  0  0
 12 13  2  0  0  0  0
 13 14  1  0  0  0  0
 14 18  1  0  0  0  0
 15 14  2  0  0  0  0
 16 18  1  0  0  0  0
 16  1  1  0  0  0  0
 17 16  2  0  0  0  0
 18 22  1  0  0  0  0
 19 10  1  0  0  0  0
 20 11  1  0  0  0  0
 21 12  1  0  0  0  0
 23 24  2  0  0  0  0
 23  5  1  0  0  0  0
 25 26  1  0  0  0  0
 25 24  1  0  0  0  0
 27 25  1  0  0  0  0
 28 29  1  0  0  0  0
 28 25  1  0  0  0  0
 30 29  2  0  0  0  0
 31 30  1  0  0  0  0
 32 34  1  0  0  0  0
 32 30  1  0  0  0  0
 33 32  1  0  0  0  0
 34 28  2  0  0  0  0
M  END
>  <minimizedAffinity>
-5.33385038

$$$$

 OpenBabel03242510583D

 34 36  0  0  0  0  0  0  0  0999 V2000
   38.5140   27.1080   41.6530 C   0  0  0  0  0  0  0  0  0  0  0  0
   37.7570   26.9200   42.8280 C   0  0  0  0  0  0  0  0  0  0  0  0
   37.4790   27.9430   43.7190 C   0  0  0  0  0  0  0  0  0  0  0  0
   37.9730   29.1980   43.4250 C   0  0  0  0  0  0  0  0  0  0  0  0
   38.7160   29.3700   42.2660 C   0  0  0  0  0  0  0  0  0  0  0  0
   38.9510   28.3490   41.4470 N   0  0  0  0  0  0  0  0  0  0  0  0
   37.3910   25.9100   43.0130 H   0  0  0  0  0  0  0  0  0  0  0  0
   36.8890   27.6840   44.5890 H   0  0  0  0  0  0  0  0  0  0  0  0
   37.7390   29.9820   44.1440 H   0  0  0  0  0  0  0  0  0  0  0  0
   38.1020   21.4110   39.7040 C   0  0  0  0  0  0  0  0  0  0  0  0
   39.0230   21.5020   38.6580 C   0  0  0  0  0  0  0  0  0  0  0  0
   39.7050   22.7100   38.4870 C   0  0  0  0  0  0  0  0  0  0  0  0
   39.4460   23.7450   39.3430 N   0  0  0  0  0  0  0  0  0  0  0  0
   38.5430   23.6100   40.3440 C   0  0  0  0  0  0  0  0  0  0  0  0
   37.8630   22.4360   40.5310 N   0  0  0  0  0  0  0  0  0  0  0  0
   38.7560   25.9780   40.7770 C   0  0  0  0  0  0  0  0  0  0  0  0
   39.3560   26.1900   39.6830 O   0  0  0  0  0  0  0  0  0  0  0  0
   38.2960   24.7020   41.2150 N   0  0  0  0  0  0  0  0  0  0  0  0
   37.5160   20.5270   39.9330 H   0  0  0  0  0  0  0  0  0  0  0  0
   39.1660   20.6430   38.0330 H   0  0  0  0  0  0  0  0  0  0  0  0
   40.4210   22.8000   37.6830 H   0  0  0  0  0  0  0  0  0  0  0  0
   37.7980   24.5390   42.1300 H   0  0  0  0  0  0  0  0  0  0  0  0
   39.2270   30.6970   41.9740 C   0  0  0  0  0  3  0  0  0  0  0  0
   38.7460   31.3940   40.9420 C   0  0  0  0  0  3  0  0  0  0  0  0
   39.1990   32.7610   40.5560 C   0  0  0  0  0  0  0  0  0  0  0  0
   38.3570   33.4560   40.5090 H   0  0  0  0  0  0  0  0  0  0  0  0
   40.0230   33.1060   41.2220 H   0  0  0  0  0  0  0  0  0  0  0  0
   39.7610   32.6280   39.1830 C   0  0  0  0  0  0  0  0  0  0  0  0
   41.0100   32.9220   38.7810 N   0  0  0  0  0  0  0  0  0  0  0  0
   41.1020   32.6590   37.4710 C   0  0  0  0  0  0  0  0  0  0  0  0
   41.8360   32.7050   36.6650 H   0  0  0  0  0  0  0  0  0  0  0  0
   39.8950   32.2020   37.0840 N   0  0  0  0  0  0  0  0  0  0  0  0
   39.4730   31.8690   36.1680 H   0  0  0  0  0  0  0  0  0  0  0  0
   39.0970   32.1870   38.1160 N   0  0  0  0  0  0  0  0  0  0  0  0
  1  2  1  0  0  0  0
  2  7  1  0  0  0  0
  2  3  2  0  0  0  0
  3  8  1  0  0  0  0
  4  3  1  0  0  0  0
  4  9  1  0  0  0  0
  5  4  2  0  0  0  0
  6  1  2  0  0  0  0
  6  5  1  0  0  0  0
 10 19  1  0  0  0  0
 10 15  1  0  0  0  0
 11 10  2  0  0  0  0
 12 11  1  0  0  0  0
 12 13  2  0  0  0  0
 13 14  1  0  0  0  0
 14 15  2  0  0  0  0
 14 18  1  0  0  0  0
 16 18  1  0  0  0  0
 16  1  1  0  0  0  0
 17 16  2  0  0  0  0
 18 22  1  0  0  0  0
 20 11  1  0  0  0  0
 21 12  1  0  0  0  0
 23  5  1  0  0  0  0
 24 23  2  0  0  0  0
 25 24  1  0  0  0  0
 25 27  1  0  0  0  0
 26 25  1  0  0  0  0
 28 25  1  0  0  0  0
 29 28  1  0  0  0  0
 30 29  2  0  0  0  0
 31 30  1  0  0  0  0
 32 30  1  0  0  0  0
 32 34  1  0  0  0  0
 33 32  1  0  0  0  0
 34 28  2  0  0  0  0
M  END
>  <minimizedAffinity>
-5.3322134

$$$$
