
 OpenBabel03242520183D

 29 31  0  0  0  0  0  0  0  0999 V2000
   37.9900   26.3300   42.4670 C   0  0  0  0  0  0  0  0  0  0  0  0
   37.0430   26.8680   41.5730 C   0  0  0  0  0  0  0  0  0  0  0  0
   36.6360   28.1860   41.7630 C   0  0  0  0  0  0  0  0  0  0  0  0
   37.1870   28.8850   42.8170 N   0  0  0  0  0  0  0  0  0  0  0  0
   38.0930   28.3070   43.6390 C   0  0  0  0  0  0  0  0  0  0  0  0
   38.4910   27.0570   43.4730 N   0  0  0  0  0  0  0  0  0  0  0  0
   36.6620   26.2490   40.7730 H   0  0  0  0  0  0  0  0  0  0  0  0
   38.4800   28.9210   44.4450 H   0  0  0  0  0  0  0  0  0  0  0  0
   38.4120   24.9200   42.2490 C   0  0  0  0  0  0  0  0  0  0  0  0
   39.7690   24.8040   41.5110 C   0  0  0  0  0  0  0  0  0  0  0  0
   39.5520   24.3360   42.8950 C   0  0  0  0  0  0  0  0  0  0  0  0
   37.5760   24.3260   41.7990 H   0  0  0  0  0  0  0  0  0  0  0  0
   39.7790   24.0180   40.7300 H   0  0  0  0  0  0  0  0  0  0  0  0
   40.3230   25.7370   41.3040 H   0  0  0  0  0  0  0  0  0  0  0  0
   39.5220   23.2440   43.1200 H   0  0  0  0  0  0  0  0  0  0  0  0
   40.0860   24.8830   43.6990 H   0  0  0  0  0  0  0  0  0  0  0  0
   35.6440   28.7990   40.8410 C   0  0  0  0  0  0  0  0  0  0  0  0
   34.7840   28.1650   40.6370 H   0  0  0  0  0  0  0  0  0  0  0  0
   35.2890   29.7240   41.3440 H   0  0  0  0  0  0  0  0  0  0  0  0
   36.2930   29.2460   39.5430 C   0  0  0  0  0  0  0  0  0  0  0  0
   35.5340   29.1180   38.7450 H   0  0  0  0  0  0  0  0  0  0  0  0
   37.1690   28.6640   39.2490 H   0  0  0  0  0  0  0  0  0  0  0  0
   36.5920   30.7040   39.6980 C   0  0  0  0  0  0  0  0  0  0  0  0
   36.9880   31.4480   38.6640 N   0  0  0  0  0  0  0  0  0  0  0  0
   37.2040   32.7310   39.0170 C   0  0  0  0  0  0  0  0  0  0  0  0
   37.5300   33.5370   38.3670 H   0  0  0  0  0  0  0  0  0  0  0  0
   36.9220   32.7590   40.3340 N   0  0  0  0  0  0  0  0  0  0  0  0
   36.9930   33.6250   40.9150 H   0  0  0  0  0  0  0  0  0  0  0  0
   36.5580   31.5620   40.7540 N   0  0  0  0  0  0  0  0  0  0  0  0
  1  6  1  0  0  0  0
  2  3  1  0  0  0  0
  2  1  2  0  0  0  0
  3  4  2  0  0  0  0
  4  5  1  0  0  0  0
  5  8  1  0  0  0  0
  6  5  2  0  0  0  0
  7  2  1  0  0  0  0
  9  1  1  0  0  0  0
  9 11  1  0  0  0  0
 10  9  1  0  0  0  0
 10 11  1  0  0  0  0
 11 15  1  0  0  0  0
 11 16  1  0  0  0  0
 12  9  1  0  0  0  0
 13 10  1  0  0  0  0
 14 10  1  0  0  0  0
 17 19  1  0  0  0  0
 17  3  1  0  0  0  0
 18 17  1  0  0  0  0
 20 23  1  0  0  0  0
 20 17  1  0  0  0  0
 21 20  1  0  0  0  0
 22 20  1  0  0  0  0
 23 29  2  0  0  0  0
 24 25  2  0  0  0  0
 24 23  1  0  0  0  0
 25 27  1  0  0  0  0
 26 25  1  0  0  0  0
 27 29  1  0  0  0  0
 27 28  1  0  0  0  0
M  END
>  <minimizedAffinity>
-4.85256147

$$$$

 OpenBabel03242520183D

 29 31  0  0  0  0  0  0  0  0999 V2000
   37.7630   24.9400   42.1330 C   0  0  0  0  0  0  0  0  0  0  0  0
   37.5010   26.2910   42.4340 C   0  0  0  0  0  0  0  0  0  0  0  0
   38.4370   26.9870   43.1960 C   0  0  0  0  0  0  0  0  0  0  0  0
   39.5640   26.3080   43.6090 N   0  0  0  0  0  0  0  0  0  0  0  0
   39.7550   25.0090   43.2830 C   0  0  0  0  0  0  0  0  0  0  0  0
   38.8770   24.3320   42.5610 N   0  0  0  0  0  0  0  0  0  0  0  0
   36.5910   26.7440   42.0710 H   0  0  0  0  0  0  0  0  0  0  0  0
   40.6660   24.5440   43.6450 H   0  0  0  0  0  0  0  0  0  0  0  0
   36.7520   24.2110   41.3200 C   0  0  0  0  0  0  0  0  0  0  0  0
   36.8640   24.5150   39.8040 C   0  0  0  0  0  0  0  0  0  0  0  0
   37.0950   23.1770   40.3870 C   0  0  0  0  0  0  0  0  0  0  0  0
   35.7280   24.3470   41.7550 H   0  0  0  0  0  0  0  0  0  0  0  0
   35.8840   24.6670   39.3120 H   0  0  0  0  0  0  0  0  0  0  0  0
   37.7070   25.1450   39.4680 H   0  0  0  0  0  0  0  0  0  0  0  0
   36.3570   22.3580   40.2210 H   0  0  0  0  0  0  0  0  0  0  0  0
   38.1310   22.7810   40.3400 H   0  0  0  0  0  0  0  0  0  0  0  0
   38.2060   28.4160   43.5340 C   0  0  0  0  0  0  0  0  0  0  0  0
   37.1580   28.6710   43.6740 H   0  0  0  0  0  0  0  0  0  0  0  0
   38.7450   28.5950   44.4900 H   0  0  0  0  0  0  0  0  0  0  0  0
   38.8440   29.3380   42.5100 C   0  0  0  0  0  0  0  0  0  0  0  0
   39.3390   28.6910   41.7590 H   0  0  0  0  0  0  0  0  0  0  0  0
   39.6100   30.0040   42.9130 H   0  0  0  0  0  0  0  0  0  0  0  0
   37.7240   30.0790   41.8490 C   0  0  0  0  0  0  0  0  0  0  0  0
   37.9540   31.1110   41.0360 N   0  0  0  0  0  0  0  0  0  0  0  0
   36.8130   31.6340   40.5470 C   0  0  0  0  0  0  0  0  0  0  0  0
   36.7240   32.4760   39.8680 H   0  0  0  0  0  0  0  0  0  0  0  0
   35.8450   30.8760   41.0960 N   0  0  0  0  0  0  0  0  0  0  0  0
   34.8270   31.0270   40.9120 H   0  0  0  0  0  0  0  0  0  0  0  0
   36.3700   29.9470   41.8730 N   0  0  0  0  0  0  0  0  0  0  0  0
  1  2  2  0  0  0  0
  1  6  1  0  0  0  0
  2  3  1  0  0  0  0
  3 17  1  0  0  0  0
  3  4  2  0  0  0  0
  5  4  1  0  0  0  0
  5  8  1  0  0  0  0
  6  5  2  0  0  0  0
  7  2  1  0  0  0  0
  9 12  1  0  0  0  0
  9  1  1  0  0  0  0
 10 11  1  0  0  0  0
 10  9  1  0  0  0  0
 11  9  1  0  0  0  0
 13 10  1  0  0  0  0
 14 10  1  0  0  0  0
 15 11  1  0  0  0  0
 16 11  1  0  0  0  0
 17 18  1  0  0  0  0
 17 19  1  0  0  0  0
 20 22  1  0  0  0  0
 20 17  1  0  0  0  0
 21 20  1  0  0  0  0
 23 29  2  0  0  0  0
 23 20  1  0  0  0  0
 24 23  1  0  0  0  0
 25 24  2  0  0  0  0
 25 27  1  0  0  0  0
 26 25  1  0  0  0  0
 27 29  1  0  0  0  0
 28 27  1  0  0  0  0
M  END
>  <minimizedAffinity>
-4.83250713

$$$$

 OpenBabel03242520183D

 29 31  0  0  0  0  0  0  0  0999 V2000
   37.3530   26.9950   42.1170 C   0  0  0  0  0  0  0  0  0  0  0  0
   36.5950   28.0380   41.5480 C   0  0  0  0  0  0  0  0  0  0  0  0
   36.9560   29.3500   41.8470 C   0  0  0  0  0  0  0  0  0  0  0  0
   38.0350   29.5460   42.6850 N   0  0  0  0  0  0  0  0  0  0  0  0
   38.7200   28.4980   43.1970 C   0  0  0  0  0  0  0  0  0  0  0  0
   38.3920   27.2460   42.9230 N   0  0  0  0  0  0  0  0  0  0  0  0
   35.7640   27.7940   40.9030 H   0  0  0  0  0  0  0  0  0  0  0  0
   39.5560   28.7330   43.8470 H   0  0  0  0  0  0  0  0  0  0  0  0
   36.9520   25.6010   41.7880 C   0  0  0  0  0  0  0  0  0  0  0  0
   37.9110   24.9200   40.7770 C   0  0  0  0  0  0  0  0  0  0  0  0
   37.7260   24.4530   42.1660 C   0  0  0  0  0  0  0  0  0  0  0  0
   35.8670   25.5590   41.5120 H   0  0  0  0  0  0  0  0  0  0  0  0
   37.3840   24.3370   39.9960 H   0  0  0  0  0  0  0  0  0  0  0  0
   38.8170   25.4750   40.4760 H   0  0  0  0  0  0  0  0  0  0  0  0
   37.1830   23.5010   42.3710 H   0  0  0  0  0  0  0  0  0  0  0  0
   38.5930   24.5590   42.8510 H   0  0  0  0  0  0  0  0  0  0  0  0
   36.1900   30.4830   41.2650 C   0  0  0  0  0  0  0  0  0  0  0  0
   35.1110   30.3580   41.3190 H   0  0  0  0  0  0  0  0  0  0  0  0
   36.4720   31.3790   41.8600 H   0  0  0  0  0  0  0  0  0  0  0  0
   36.6210   30.7700   39.8380 C   0  0  0  0  0  0  0  0  0  0  0  0
   35.6960   30.8320   39.2300 H   0  0  0  0  0  0  0  0  0  0  0  0
   37.2490   29.9980   39.3890 H   0  0  0  0  0  0  0  0  0  0  0  0
   37.2800   32.1140   39.8550 C   0  0  0  0  0  0  0  0  0  0  0  0
   38.2780   32.3910   40.6950 N   0  0  0  0  0  0  0  0  0  0  0  0
   38.7290   33.6520   40.5470 C   0  0  0  0  0  0  0  0  0  0  0  0
   39.5300   34.1250   41.1060 H   0  0  0  0  0  0  0  0  0  0  0  0
   37.9600   34.1600   39.5640 N   0  0  0  0  0  0  0  0  0  0  0  0
   38.0610   35.1380   39.2080 H   0  0  0  0  0  0  0  0  0  0  0  0
   37.0930   33.2580   39.1420 N   0  0  0  0  0  0  0  0  0  0  0  0
  1  6  1  0  0  0  0
  2  3  1  0  0  0  0
  2  1  2  0  0  0  0
  3  4  2  0  0  0  0
  4  5  1  0  0  0  0
  5  8  1  0  0  0  0
  6  5  2  0  0  0  0
  7  2  1  0  0  0  0
  9  1  1  0  0  0  0
  9 11  1  0  0  0  0
 10  9  1  0  0  0  0
 10 11  1  0  0  0  0
 11 15  1  0  0  0  0
 11 16  1  0  0  0  0
 12  9  1  0  0  0  0
 13 10  1  0  0  0  0
 14 10  1  0  0  0  0
 17 18  1  0  0  0  0
 17  3  1  0  0  0  0
 17 19  1  0  0  0  0
 20 23  1  0  0  0  0
 20 17  1  0  0  0  0
 21 20  1  0  0  0  0
 22 20  1  0  0  0  0
 23 24  1  0  0  0  0
 25 24  2  0  0  0  0
 25 26  1  0  0  0  0
 27 25  1  0  0  0  0
 28 27  1  0  0  0  0
 29 27  1  0  0  0  0
 29 23  2  0  0  0  0
M  END
>  <minimizedAffinity>
-4.70681143

$$$$

 OpenBabel03242520183D

 29 31  0  0  0  0  0  0  0  0999 V2000
   37.0270   30.8250   40.8100 C   0  0  0  0  0  0  0  0  0  0  0  0
   37.6230   30.1170   41.8720 C   0  0  0  0  0  0  0  0  0  0  0  0
   37.0780   28.8850   42.2270 C   0  0  0  0  0  0  0  0  0  0  0  0
   35.9860   28.4340   41.5150 N   0  0  0  0  0  0  0  0  0  0  0  0
   35.4620   29.1650   40.5040 C   0  0  0  0  0  0  0  0  0  0  0  0
   35.9670   30.3370   40.1530 N   0  0  0  0  0  0  0  0  0  0  0  0
   38.4760   30.5450   42.3770 H   0  0  0  0  0  0  0  0  0  0  0  0
   34.6040   28.7440   39.9910 H   0  0  0  0  0  0  0  0  0  0  0  0
   37.6210   32.1390   40.4450 C   0  0  0  0  0  0  0  0  0  0  0  0
   38.3860   32.1030   39.0980 C   0  0  0  0  0  0  0  0  0  0  0  0
   37.1740   32.9170   39.3250 C   0  0  0  0  0  0  0  0  0  0  0  0
   38.2000   32.5600   41.3070 H   0  0  0  0  0  0  0  0  0  0  0  0
   39.3490   32.6500   39.1240 H   0  0  0  0  0  0  0  0  0  0  0  0
   38.3450   31.1690   38.5090 H   0  0  0  0  0  0  0  0  0  0  0  0
   37.2490   34.0270   39.3970 H   0  0  0  0  0  0  0  0  0  0  0  0
   36.2610   32.6260   38.7650 H   0  0  0  0  0  0  0  0  0  0  0  0
   37.6770   28.0990   43.3370 C   0  0  0  0  0  0  0  0  0  0  0  0
   37.6470   28.6040   44.3000 H   0  0  0  0  0  0  0  0  0  0  0  0
   37.0780   27.1650   43.4090 H   0  0  0  0  0  0  0  0  0  0  0  0
   39.0950   27.6660   43.0100 C   0  0  0  0  0  0  0  0  0  0  0  0
   39.7290   27.9670   43.8680 H   0  0  0  0  0  0  0  0  0  0  0  0
   39.5190   28.1340   42.1190 H   0  0  0  0  0  0  0  0  0  0  0  0
   39.0750   26.1720   42.9230 C   0  0  0  0  0  0  0  0  0  0  0  0
   38.1800   25.5280   42.1730 N   0  0  0  0  0  0  0  0  0  0  0  0
   38.3350   24.1910   42.2340 C   0  0  0  0  0  0  0  0  0  0  0  0
   37.7390   23.4440   41.7200 H   0  0  0  0  0  0  0  0  0  0  0  0
   39.3800   24.0220   43.0680 N   0  0  0  0  0  0  0  0  0  0  0  0
   39.7570   23.0830   43.3280 H   0  0  0  0  0  0  0  0  0  0  0  0
   39.8310   25.1900   43.4870 N   0  0  0  0  0  0  0  0  0  0  0  0
  1  2  1  0  0  0  0
  2  3  2  0  0  0  0
  2  7  1  0  0  0  0
  3 17  1  0  0  0  0
  4  3  1  0  0  0  0
  5  4  2  0  0  0  0
  6  5  1  0  0  0  0
  6  1  2  0  0  0  0
  8  5  1  0  0  0  0
  9  1  1  0  0  0  0
  9 12  1  0  0  0  0
 10 13  1  0  0  0  0
 10 11  1  0  0  0  0
 10  9  1  0  0  0  0
 11 15  1  0  0  0  0
 11  9  1  0  0  0  0
 14 10  1  0  0  0  0
 16 11  1  0  0  0  0
 17 19  1  0  0  0  0
 17 18  1  0  0  0  0
 20 17  1  0  0  0  0
 20 21  1  0  0  0  0
 22 20  1  0  0  0  0
 23 20  1  0  0  0  0
 23 29  2  0  0  0  0
 24 25  2  0  0  0  0
 24 23  1  0  0  0  0
 25 27  1  0  0  0  0
 26 25  1  0  0  0  0
 27 28  1  0  0  0  0
 27 29  1  0  0  0  0
M  END
>  <minimizedAffinity>
-4.68482828

$$$$

 OpenBabel03242520183D

 29 31  0  0  0  0  0  0  0  0999 V2000
   37.6990   30.9150   40.8360 C   0  0  0  0  0  0  0  0  0  0  0  0
   37.3050   29.7740   41.5620 C   0  0  0  0  0  0  0  0  0  0  0  0
   38.1150   29.3540   42.6150 C   0  0  0  0  0  0  0  0  0  0  0  0
   39.2550   30.0840   42.8810 N   0  0  0  0  0  0  0  0  0  0  0  0
   39.5740   31.1730   42.1450 C   0  0  0  0  0  0  0  0  0  0  0  0
   38.8170   31.5860   41.1420 N   0  0  0  0  0  0  0  0  0  0  0  0
   36.3970   29.2600   41.2840 H   0  0  0  0  0  0  0  0  0  0  0  0
   40.4860   31.6950   42.4160 H   0  0  0  0  0  0  0  0  0  0  0  0
   36.8230   31.3480   39.7140 C   0  0  0  0  0  0  0  0  0  0  0  0
   37.5410   31.3160   38.3410 C   0  0  0  0  0  0  0  0  0  0  0  0
   36.3840   30.4610   38.6760 C   0  0  0  0  0  0  0  0  0  0  0  0
   36.3190   32.3170   39.9620 H   0  0  0  0  0  0  0  0  0  0  0  0
   37.3240   32.2000   37.7100 H   0  0  0  0  0  0  0  0  0  0  0  0
   38.5660   30.9050   38.3070 H   0  0  0  0  0  0  0  0  0  0  0  0
   35.3900   30.6540   38.2090 H   0  0  0  0  0  0  0  0  0  0  0  0
   36.5730   29.3690   38.7500 H   0  0  0  0  0  0  0  0  0  0  0  0
   37.7370   28.1580   43.4130 C   0  0  0  0  0  0  0  0  0  0  0  0
   38.5880   27.5780   43.7650 H   0  0  0  0  0  0  0  0  0  0  0  0
   37.1820   28.5430   44.2960 H   0  0  0  0  0  0  0  0  0  0  0  0
   36.7660   27.2700   42.6570 C   0  0  0  0  0  0  0  0  0  0  0  0
   36.6370   27.7180   41.6510 H   0  0  0  0  0  0  0  0  0  0  0  0
   35.7730   27.1970   43.1050 H   0  0  0  0  0  0  0  0  0  0  0  0
   37.4330   25.9380   42.5110 C   0  0  0  0  0  0  0  0  0  0  0  0
   38.7420   25.7870   42.7130 N   0  0  0  0  0  0  0  0  0  0  0  0
   39.1390   24.5120   42.5320 C   0  0  0  0  0  0  0  0  0  0  0  0
   40.1480   24.1260   42.6330 H   0  0  0  0  0  0  0  0  0  0  0  0
   38.0070   23.8610   42.2020 N   0  0  0  0  0  0  0  0  0  0  0  0
   37.9760   22.8370   41.9940 H   0  0  0  0  0  0  0  0  0  0  0  0
   36.9830   24.6950   42.1850 N   0  0  0  0  0  0  0  0  0  0  0  0
  1  6  2  0  0  0  0
  1  2  1  0  0  0  0
  2  3  2  0  0  0  0
  3  4  1  0  0  0  0
  3 17  1  0  0  0  0
  5  8  1  0  0  0  0
  5  4  2  0  0  0  0
  6  5  1  0  0  0  0
  7  2  1  0  0  0  0
  9 12  1  0  0  0  0
  9  1  1  0  0  0  0
 10 11  1  0  0  0  0
 10  9  1  0  0  0  0
 11 16  1  0  0  0  0
 11  9  1  0  0  0  0
 13 10  1  0  0  0  0
 14 10  1  0  0  0  0
 15 11  1  0  0  0  0
 17 18  1  0  0  0  0
 17 19  1  0  0  0  0
 20 22  1  0  0  0  0
 20 17  1  0  0  0  0
 21 20  1  0  0  0  0
 23 20  1  0  0  0  0
 23 24  1  0  0  0  0
 25 26  1  0  0  0  0
 25 24  2  0  0  0  0
 27 25  1  0  0  0  0
 28 27  1  0  0  0  0
 29 27  1  0  0  0  0
 29 23  2  0  0  0  0
M  END
>  <minimizedAffinity>
-4.61042547

$$$$

 OpenBabel03242520183D

 29 31  0  0  0  0  0  0  0  0999 V2000
   37.6850   26.7320   41.9070 C   0  0  0  0  0  0  0  0  0  0  0  0
   36.8850   27.5720   41.1070 C   0  0  0  0  0  0  0  0  0  0  0  0
   36.6770   28.8810   41.5330 C   0  0  0  0  0  0  0  0  0  0  0  0
   37.2690   29.2750   42.7150 N   0  0  0  0  0  0  0  0  0  0  0  0
   38.0270   28.4180   43.4360 C   0  0  0  0  0  0  0  0  0  0  0  0
   38.2360   27.1710   43.0460 N   0  0  0  0  0  0  0  0  0  0  0  0
   36.4590   27.1800   40.1950 H   0  0  0  0  0  0  0  0  0  0  0  0
   38.4590   28.8020   44.3540 H   0  0  0  0  0  0  0  0  0  0  0  0
   37.8950   25.3360   41.4370 C   0  0  0  0  0  0  0  0  0  0  0  0
   36.9370   24.3220   42.1110 C   0  0  0  0  0  0  0  0  0  0  0  0
   36.9250   24.6160   40.6630 C   0  0  0  0  0  0  0  0  0  0  0  0
   38.9810   25.0660   41.4860 H   0  0  0  0  0  0  0  0  0  0  0  0
   37.4340   23.3790   42.4100 H   0  0  0  0  0  0  0  0  0  0  0  0
   36.1550   24.7220   42.7810 H   0  0  0  0  0  0  0  0  0  0  0  0
   37.2970   23.8590   39.9340 H   0  0  0  0  0  0  0  0  0  0  0  0
   36.0280   25.1320   40.2630 H   0  0  0  0  0  0  0  0  0  0  0  0
   35.8450   29.8060   40.7190 C   0  0  0  0  0  0  0  0  0  0  0  0
   35.6960   29.4750   39.6940 H   0  0  0  0  0  0  0  0  0  0  0  0
   34.8550   29.8510   41.2230 H   0  0  0  0  0  0  0  0  0  0  0  0
   36.3980   31.2190   40.7450 C   0  0  0  0  0  0  0  0  0  0  0  0
   37.2480   31.2190   41.4560 H   0  0  0  0  0  0  0  0  0  0  0  0
   35.6920   31.9770   41.0900 H   0  0  0  0  0  0  0  0  0  0  0  0
   36.9180   31.4980   39.3690 C   0  0  0  0  0  0  0  0  0  0  0  0
   36.9450   30.5530   38.4290 N   0  0  0  0  0  0  0  0  0  0  0  0
   37.4480   31.0110   37.2660 C   0  0  0  0  0  0  0  0  0  0  0  0
   37.5780   30.4470   36.3480 H   0  0  0  0  0  0  0  0  0  0  0  0
   37.7400   32.3010   37.5220 N   0  0  0  0  0  0  0  0  0  0  0  0
   38.1530   32.9450   36.8100 H   0  0  0  0  0  0  0  0  0  0  0  0
   37.4310   32.6070   38.7680 N   0  0  0  0  0  0  0  0  0  0  0  0
  1  6  1  0  0  0  0
  2  3  1  0  0  0  0
  2  1  2  0  0  0  0
  3  4  2  0  0  0  0
  4  5  1  0  0  0  0
  5  8  1  0  0  0  0
  6  5  2  0  0  0  0
  7  2  1  0  0  0  0
  9 12  1  0  0  0  0
  9  1  1  0  0  0  0
  9 10  1  0  0  0  0
 10 13  1  0  0  0  0
 10 14  1  0  0  0  0
 11  9  1  0  0  0  0
 11 10  1  0  0  0  0
 15 11  1  0  0  0  0
 16 11  1  0  0  0  0
 17 20  1  0  0  0  0
 17 19  1  0  0  0  0
 17  3  1  0  0  0  0
 18 17  1  0  0  0  0
 20 22  1  0  0  0  0
 20 21  1  0  0  0  0
 23 20  1  0  0  0  0
 24 23  1  0  0  0  0
 25 27  1  0  0  0  0
 25 24  2  0  0  0  0
 26 25  1  0  0  0  0
 27 29  1  0  0  0  0
 28 27  1  0  0  0  0
 29 23  2  0  0  0  0
M  END
>  <minimizedAffinity>
-4.5856986

$$$$

 OpenBabel03242520183D

 29 31  0  0  0  0  0  0  0  0999 V2000
   37.4550   29.7010   41.9750 C   0  0  0  0  0  0  0  0  0  0  0  0
   38.1180   30.8950   41.6280 C   0  0  0  0  0  0  0  0  0  0  0  0
   37.5850   31.6660   40.5990 C   0  0  0  0  0  0  0  0  0  0  0  0
   36.4380   31.2110   39.9810 N   0  0  0  0  0  0  0  0  0  0  0  0
   35.8510   30.0540   40.3640 C   0  0  0  0  0  0  0  0  0  0  0  0
   36.3430   29.3090   41.3400 N   0  0  0  0  0  0  0  0  0  0  0  0
   39.0130   31.1750   42.1640 H   0  0  0  0  0  0  0  0  0  0  0  0
   34.9520   29.7640   39.8310 H   0  0  0  0  0  0  0  0  0  0  0  0
   38.0400   28.8890   43.0760 C   0  0  0  0  0  0  0  0  0  0  0  0
   37.0330   27.8760   43.6790 C   0  0  0  0  0  0  0  0  0  0  0  0
   38.2670   27.4760   42.9720 C   0  0  0  0  0  0  0  0  0  0  0  0
   38.5500   29.5500   43.8230 H   0  0  0  0  0  0  0  0  0  0  0  0
   37.0710   27.8240   44.7850 H   0  0  0  0  0  0  0  0  0  0  0  0
   36.0440   27.7870   43.1970 H   0  0  0  0  0  0  0  0  0  0  0  0
   39.1230   27.0410   43.5390 H   0  0  0  0  0  0  0  0  0  0  0  0
   38.1420   26.9550   42.0000 H   0  0  0  0  0  0  0  0  0  0  0  0
   38.2460   32.9370   40.2020 C   0  0  0  0  0  0  0  0  0  0  0  0
   38.0740   33.2160   39.1650 H   0  0  0  0  0  0  0  0  0  0  0  0
   37.8130   33.7240   40.8560 H   0  0  0  0  0  0  0  0  0  0  0  0
   39.7340   32.9070   40.5030 C   0  0  0  0  0  0  0  0  0  0  0  0
   39.9610   31.8970   40.8990 H   0  0  0  0  0  0  0  0  0  0  0  0
   40.0590   33.6270   41.2570 H   0  0  0  0  0  0  0  0  0  0  0  0
   40.4370   33.0830   39.1940 C   0  0  0  0  0  0  0  0  0  0  0  0
   41.4170   33.9750   39.0430 N   0  0  0  0  0  0  0  0  0  0  0  0
   41.9140   33.9720   37.7910 C   0  0  0  0  0  0  0  0  0  0  0  0
   42.7130   34.6000   37.4080 H   0  0  0  0  0  0  0  0  0  0  0  0
   41.1940   33.0280   37.1550 N   0  0  0  0  0  0  0  0  0  0  0  0
   41.3390   32.7790   36.1500 H   0  0  0  0  0  0  0  0  0  0  0  0
   40.3110   32.4900   37.9750 N   0  0  0  0  0  0  0  0  0  0  0  0
  1  9  1  0  0  0  0
  2  1  1  0  0  0  0
  2  7  1  0  0  0  0
  3  2  2  0  0  0  0
  4  5  2  0  0  0  0
  4  3  1  0  0  0  0
  5  6  1  0  0  0  0
  6  1  2  0  0  0  0
  8  5  1  0  0  0  0
  9 10  1  0  0  0  0
  9 12  1  0  0  0  0
 10 13  1  0  0  0  0
 11  9  1  0  0  0  0
 11 15  1  0  0  0  0
 11 10  1  0  0  0  0
 14 10  1  0  0  0  0
 16 11  1  0  0  0  0
 17 20  1  0  0  0  0
 17  3  1  0  0  0  0
 17 19  1  0  0  0  0
 18 17  1  0  0  0  0
 20 21  1  0  0  0  0
 20 22  1  0  0  0  0
 23 20  1  0  0  0  0
 24 23  1  0  0  0  0
 25 24  2  0  0  0  0
 26 25  1  0  0  0  0
 27 25  1  0  0  0  0
 27 29  1  0  0  0  0
 28 27  1  0  0  0  0
 29 23  2  0  0  0  0
M  END
>  <minimizedAffinity>
-4.5374198

$$$$

 OpenBabel03242520183D

 29 31  0  0  0  0  0  0  0  0999 V2000
   39.5030   25.3330   42.8010 C   0  0  0  0  0  0  0  0  0  0  0  0
   39.2530   26.6550   43.2180 C   0  0  0  0  0  0  0  0  0  0  0  0
   37.9580   27.1510   43.0890 C   0  0  0  0  0  0  0  0  0  0  0  0
   36.9980   26.3130   42.5600 N   0  0  0  0  0  0  0  0  0  0  0  0
   37.3050   25.0520   42.1790 C   0  0  0  0  0  0  0  0  0  0  0  0
   38.5300   24.5650   42.2940 N   0  0  0  0  0  0  0  0  0  0  0  0
   40.0650   27.2430   43.6210 H   0  0  0  0  0  0  0  0  0  0  0  0
   36.4960   24.4550   41.7720 H   0  0  0  0  0  0  0  0  0  0  0  0
   40.8920   24.8210   42.9440 C   0  0  0  0  0  0  0  0  0  0  0  0
   41.8400   25.3280   41.8270 C   0  0  0  0  0  0  0  0  0  0  0  0
   42.0100   25.6660   43.2550 C   0  0  0  0  0  0  0  0  0  0  0  0
   40.8880   23.7110   43.0930 H   0  0  0  0  0  0  0  0  0  0  0  0
   42.5130   24.5420   41.4320 H   0  0  0  0  0  0  0  0  0  0  0  0
   41.4390   26.0650   41.1090 H   0  0  0  0  0  0  0  0  0  0  0  0
   42.8510   25.2250   43.8400 H   0  0  0  0  0  0  0  0  0  0  0  0
   41.8520   26.7270   43.5420 H   0  0  0  0  0  0  0  0  0  0  0  0
   37.6450   28.5380   43.5220 C   0  0  0  0  0  0  0  0  0  0  0  0
   36.5950   28.8040   43.4200 H   0  0  0  0  0  0  0  0  0  0  0  0
   37.9200   28.5920   44.5980 H   0  0  0  0  0  0  0  0  0  0  0  0
   38.5210   29.5530   42.8100 C   0  0  0  0  0  0  0  0  0  0  0  0
   39.2600   28.9780   42.2160 H   0  0  0  0  0  0  0  0  0  0  0  0
   39.0860   30.2110   43.4730 H   0  0  0  0  0  0  0  0  0  0  0  0
   37.6280   30.3040   41.8740 C   0  0  0  0  0  0  0  0  0  0  0  0
   38.0990   31.2680   41.0820 N   0  0  0  0  0  0  0  0  0  0  0  0
   37.1320   31.8150   40.3190 C   0  0  0  0  0  0  0  0  0  0  0  0
   37.2510   32.6140   39.5940 H   0  0  0  0  0  0  0  0  0  0  0  0
   36.0190   31.1440   40.6730 N   0  0  0  0  0  0  0  0  0  0  0  0
   35.0800   31.3350   40.2550 H   0  0  0  0  0  0  0  0  0  0  0  0
   36.2960   30.2430   41.5970 N   0  0  0  0  0  0  0  0  0  0  0  0
  1  9  1  0  0  0  0
  1  2  1  0  0  0  0
  2  7  1  0  0  0  0
  3  2  2  0  0  0  0
  3 17  1  0  0  0  0
  4  3  1  0  0  0  0
  5  6  1  0  0  0  0
  5  4  2  0  0  0  0
  6  1  2  0  0  0  0
  8  5  1  0  0  0  0
  9 12  1  0  0  0  0
  9 11  1  0  0  0  0
 10  9  1  0  0  0  0
 10 11  1  0  0  0  0
 11 16  1  0  0  0  0
 11 15  1  0  0  0  0
 13 10  1  0  0  0  0
 14 10  1  0  0  0  0
 17 19  1  0  0  0  0
 18 17  1  0  0  0  0
 20 22  1  0  0  0  0
 20 17  1  0  0  0  0
 21 20  1  0  0  0  0
 23 20  1  0  0  0  0
 24 23  1  0  0  0  0
 25 27  1  0  0  0  0
 25 24  2  0  0  0  0
 26 25  1  0  0  0  0
 27 29  1  0  0  0  0
 28 27  1  0  0  0  0
 29 23  2  0  0  0  0
M  END
>  <minimizedAffinity>
-4.51836348

$$$$

 OpenBabel03242520183D

 29 31  0  0  0  0  0  0  0  0999 V2000
   37.6000   26.7010   41.8930 C   0  0  0  0  0  0  0  0  0  0  0  0
   38.4870   27.7120   41.4730 C   0  0  0  0  0  0  0  0  0  0  0  0
   38.5480   28.8850   42.2220 C   0  0  0  0  0  0  0  0  0  0  0  0
   37.7330   28.9840   43.3310 N   0  0  0  0  0  0  0  0  0  0  0  0
   36.9040   27.9740   43.6790 C   0  0  0  0  0  0  0  0  0  0  0  0
   36.8330   26.8530   42.9800 N   0  0  0  0  0  0  0  0  0  0  0  0
   39.0890   27.5520   40.5900 H   0  0  0  0  0  0  0  0  0  0  0  0
   36.2950   28.1260   44.5640 H   0  0  0  0  0  0  0  0  0  0  0  0
   37.5480   25.4560   41.0800 C   0  0  0  0  0  0  0  0  0  0  0  0
   38.4050   24.3110   41.6760 C   0  0  0  0  0  0  0  0  0  0  0  0
   36.9350   24.2440   41.5430 C   0  0  0  0  0  0  0  0  0  0  0  0
   37.7460   25.6840   40.0010 H   0  0  0  0  0  0  0  0  0  0  0  0
   38.9860   23.7540   40.9140 H   0  0  0  0  0  0  0  0  0  0  0  0
   38.8840   24.4840   42.6560 H   0  0  0  0  0  0  0  0  0  0  0  0
   36.4700   23.5720   40.7860 H   0  0  0  0  0  0  0  0  0  0  0  0
   36.3470   24.2340   42.4840 H   0  0  0  0  0  0  0  0  0  0  0  0
   39.4740   29.9770   41.8210 C   0  0  0  0  0  0  0  0  0  0  0  0
   39.4100   30.8610   42.4510 H   0  0  0  0  0  0  0  0  0  0  0  0
   40.4990   29.5560   41.9060 H   0  0  0  0  0  0  0  0  0  0  0  0
   39.2910   30.3520   40.3610 C   0  0  0  0  0  0  0  0  0  0  0  0
   38.6170   29.5920   39.9160 H   0  0  0  0  0  0  0  0  0  0  0  0
   40.2100   30.3490   39.7720 H   0  0  0  0  0  0  0  0  0  0  0  0
   38.5990   31.6790   40.3460 C   0  0  0  0  0  0  0  0  0  0  0  0
   39.2640   32.8150   40.5630 N   0  0  0  0  0  0  0  0  0  0  0  0
   38.4570   33.8930   40.5050 C   0  0  0  0  0  0  0  0  0  0  0  0
   38.7470   34.9290   40.6460 H   0  0  0  0  0  0  0  0  0  0  0  0
   37.2410   33.3770   40.2410 N   0  0  0  0  0  0  0  0  0  0  0  0
   36.3830   33.9630   40.1330 H   0  0  0  0  0  0  0  0  0  0  0  0
   37.3080   32.0620   40.1440 N   0  0  0  0  0  0  0  0  0  0  0  0
  1  6  1  0  0  0  0
  2  1  2  0  0  0  0
  2  3  1  0  0  0  0
  3  4  2  0  0  0  0
  4  5  1  0  0  0  0
  5  8  1  0  0  0  0
  6  5  2  0  0  0  0
  7  2  1  0  0  0  0
  9 11  1  0  0  0  0
  9 10  1  0  0  0  0
  9  1  1  0  0  0  0
 10 14  1  0  0  0  0
 11 10  1  0  0  0  0
 11 16  1  0  0  0  0
 12  9  1  0  0  0  0
 13 10  1  0  0  0  0
 15 11  1  0  0  0  0
 17 19  1  0  0  0  0
 17  3  1  0  0  0  0
 17 18  1  0  0  0  0
 20 17  1  0  0  0  0
 21 20  1  0  0  0  0
 22 20  1  0  0  0  0
 23 20  1  0  0  0  0
 23 24  1  0  0  0  0
 25 24  2  0  0  0  0
 25 26  1  0  0  0  0
 27 25  1  0  0  0  0
 28 27  1  0  0  0  0
 29 27  1  0  0  0  0
 29 23  2  0  0  0  0
M  END
>  <minimizedAffinity>
-4.47555351

$$$$
