
 OpenBabel03252509193D

 41 44  0  0  1  0  0  0  0  0999 V2000
   49.0230   27.9180   46.3170 C   0  0  1  0  0  0  0  0  0  0  0  0
   48.9790   29.2670   45.6570 C   0  0  0  0  0  0  0  0  0  0  0  0
   47.6010   29.8720   45.5680 C   0  0  0  0  0  0  0  0  0  0  0  0
   46.8010   29.7130   46.8450 C   0  0  0  0  0  0  0  0  0  0  0  0
   46.9330   28.3380   47.4540 C   0  0  0  0  0  0  0  0  0  0  0  0
   47.5980   27.4090   46.4190 C   0  0  2  0  0  0  0  0  0  0  0  0
   49.3970   28.0530   47.3370 H   0  0  0  0  0  0  0  0  0  0  0  0
   49.3830   29.1780   44.6430 H   0  0  0  0  0  0  0  0  0  0  0  0
   49.6220   29.9940   46.2000 H   0  0  0  0  0  0  0  0  0  0  0  0
   47.0640   29.4430   44.6970 H   0  0  0  0  0  0  0  0  0  0  0  0
   47.7270   30.9300   45.3850 H   0  0  0  0  0  0  0  0  0  0  0  0
   45.7320   29.8500   46.5660 H   0  0  0  0  0  0  0  0  0  0  0  0
   47.0370   30.5280   47.5680 H   0  0  0  0  0  0  0  0  0  0  0  0
   45.9970   27.9190   47.8460 H   0  0  0  0  0  0  0  0  0  0  0  0
   47.6940   28.4340   48.2730 H   0  0  0  0  0  0  0  0  0  0  0  0
   47.0700   27.5400   45.4320 H   0  0  0  0  0  0  0  0  0  0  0  0
   51.0100   25.3470   43.8080 C   0  0  0  0  0  0  0  0  0  0  0  0
   51.6410   25.5040   45.0520 C   0  0  0  0  0  0  0  0  0  0  0  0
   51.0670   26.3220   45.9390 C   0  0  0  0  0  0  0  0  0  0  0  0
   49.8790   26.9940   45.6370 C   0  0  0  0  0  0  0  0  0  0  0  0
   49.5200   26.4340   43.9400 S   0  0  0  0  0  0  0  0  0  0  0  0
   52.5580   24.9710   45.2590 H   0  0  0  0  0  0  0  0  0  0  0  0
   51.4300   26.5440   46.9290 H   0  0  0  0  0  0  0  0  0  0  0  0
   52.8390   22.9170   41.6670 C   0  0  0  0  0  0  0  0  0  0  0  0
   52.1560   23.0800   40.4640 C   0  0  0  0  0  0  0  0  0  0  0  0
   51.0880   24.0150   40.4200 C   0  0  0  0  0  0  0  0  0  0  0  0
   50.7920   24.7040   41.5720 N   0  0  0  0  0  0  0  0  0  0  0  0
   51.4930   24.4970   42.6980 C   0  0  0  0  0  0  0  0  0  0  0  0
   52.5150   23.6090   42.7570 N   0  0  0  0  0  0  0  0  0  0  0  0
   53.6520   22.2110   41.7160 H   0  0  0  0  0  0  0  0  0  0  0  0
   52.3910   22.5410   39.5690 H   0  0  0  0  0  0  0  0  0  0  0  0
   50.5060   24.2040   39.5290 H   0  0  0  0  0  0  0  0  0  0  0  0
   47.5380   26.0330   46.8940 C   0  0  0  0  0  0  0  0  0  0  0  0
   47.3920   25.0850   46.1820 O   0  0  0  0  0  0  0  0  0  0  0  0
   47.6110   25.1630   48.0600 C   0  0  0  0  0  0  0  0  0  0  0  0
   46.7270   25.2440   49.0590 N   0  0  0  0  0  0  0  0  0  0  0  0
   47.0300   24.2540   49.9610 C   0  0  0  0  0  0  0  0  0  0  0  0
   46.3750   24.2210   50.8220 H   0  0  0  0  0  0  0  0  0  0  0  0
   48.0790   23.5880   49.5120 N   0  0  0  0  0  0  0  0  0  0  0  0
   48.4750   22.7890   50.0520 H   0  0  0  0  0  0  0  0  0  0  0  0
   48.3760   24.1550   48.4080 N   0  0  0  0  0  0  0  0  0  0  0  0
  1  6  1  0  0  0  0
  1  7  1  1  0  0  0
  2  9  1  0  0  0  0
  2  1  1  0  0  0  0
  3  2  1  0  0  0  0
  3  4  1  0  0  0  0
  4  5  1  0  0  0  0
  4 13  1  0  0  0  0
  5 14  1  0  0  0  0
  5 15  1  0  0  0  0
  6 16  1  6  0  0  0
  6 33  1  0  0  0  0
  6  5  1  0  0  0  0
  8  2  1  0  0  0  0
 10  3  1  0  0  0  0
 11  3  1  0  0  0  0
 12  4  1  0  0  0  0
 17 21  1  0  0  0  0
 17 18  2  0  0  0  0
 18 22  1  0  0  0  0
 18 19  1  0  0  0  0
 19 23  1  0  0  0  0
 20 19  2  0  0  0  0
 20  1  1  0  0  0  0
 21 20  1  0  0  0  0
 24 30  1  0  0  0  0
 24 29  1  0  0  0  0
 25 24  2  0  0  0  0
 26 25  1  0  0  0  0
 26 27  2  0  0  0  0
 27 28  1  0  0  0  0
 28 29  2  0  0  0  0
 28 17  1  0  0  0  0
 31 25  1  0  0  0  0
 32 26  1  0  0  0  0
 33 35  1  0  0  0  0
 34 33  2  0  0  0  0
 35 41  2  0  0  0  0
 35 36  1  0  0  0  0
 36 37  2  0  0  0  0
 37 38  1  0  0  0  0
 39 37  1  0  0  0  0
 39 40  1  0  0  0  0
 41 39  1  0  0  0  0
M  END
>  <minimizedAffinity>
-1.50283265

>  <minimizedRMSD>
9.25532722

$$$$
