
     RDKit          3D

 36 38  0  0  0  0  0  0  0  0999 V2000
   44.7745   36.6162   43.8272 C   0  0  0  0  0  0  0  0  0  0  0  0
   45.6668   36.3219   42.7936 C   0  0  0  0  0  0  0  0  0  0  0  0
   46.3219   35.0880   42.8241 C   0  0  0  0  0  0  0  0  0  0  0  0
   46.0661   34.2258   43.8544 N   0  0  0  0  0  0  0  0  0  0  0  0
   45.1917   34.5547   44.8358 C   0  0  0  0  0  0  0  0  0  0  0  0
   44.5384   35.7576   44.8269 N   0  0  0  0  0  0  0  0  0  0  0  0
   45.8890   32.5794   46.0391 C   0  0  0  0  0  0  0  0  0  0  0  0
   46.9053   32.4097   45.3038 O   0  0  0  0  0  0  0  0  0  0  0  0
   44.9479   33.6391   45.8907 N   0  0  0  0  0  0  0  0  0  0  0  0
   45.6585   31.6315   47.1119 C   0  0  0  0  0  0  0  0  0  0  0  0
   45.5199   32.1052   48.4332 C   0  0  0  0  0  0  0  0  0  0  0  0
   45.2981   31.2705   49.5158 C   0  0  0  0  0  0  0  0  0  0  0  0
   45.2117   29.9145   49.2698 C   0  0  0  0  0  0  0  0  0  0  0  0
   45.3497   29.4612   47.9659 C   0  0  0  0  0  0  0  0  0  0  0  0
   45.5617   30.3105   46.9645 N   0  0  0  0  0  0  0  0  0  0  0  0
   45.2557   28.0324   47.7281 C   0  0  0  0  0  0  0  0  0  0  0  0
   44.5130   27.2622   48.5268 C   0  0  0  0  0  0  0  0  0  0  0  0
   44.3482   25.7885   48.3724 C   0  0  0  0  0  0  0  0  0  0  0  0
   44.2104   37.5393   43.9091 H   0  0  0  0  0  0  0  0  0  0  0  0
   45.8093   37.0545   42.0240 H   0  0  0  0  0  0  0  0  0  0  0  0
   47.0165   34.8418   42.0328 H   0  0  0  0  0  0  0  0  0  0  0  0
   44.1051   33.7683   46.5109 H   0  0  0  0  0  0  0  0  0  0  0  0
   45.5963   33.1829   48.5723 H   0  0  0  0  0  0  0  0  0  0  0  0
   45.2077   31.7440   50.4846 H   0  0  0  0  0  0  0  0  0  0  0  0
   45.0369   29.2832   50.1400 H   0  0  0  0  0  0  0  0  0  0  0  0
   45.7755   27.5344   46.9051 H   0  0  0  0  0  0  0  0  0  0  0  0
   43.9692   27.7110   49.3694 H   0  0  0  0  0  0  0  0  0  0  0  0
   44.7475   25.2553   49.2381 H   0  0  0  0  0  0  0  0  0  0  0  0
   43.2875   25.5320   48.1442 H   0  0  0  0  0  0  0  0  0  0  0  0
   45.1638   25.4125   47.1843 C   0  0  0  0  0  0  0  0  0  0  0  0
   45.3233   24.1858   46.6584 N   0  0  0  0  0  0  0  0  0  0  0  0
   46.1341   24.2854   45.5977 C   0  0  0  0  0  0  0  0  0  0  0  0
   46.5829   23.6488   44.8345 H   0  0  0  0  0  0  0  0  0  0  0  0
   46.4643   25.5858   45.4865 N   0  0  0  0  0  0  0  0  0  0  0  0
   47.0673   26.1578   44.8243 H   0  0  0  0  0  0  0  0  0  0  0  0
   45.8787   26.2562   46.4416 N   0  0  0  0  0  0  0  0  0  0  0  0
  1  6  2  0
  2  3  2  0
  2  1  1  0
  3  4  1  0
  4  5  2  0
  5  9  1  0
  6  5  1  0
  7 10  1  0
  8  7  2  0
  9  7  1  0
 10 11  2  0
 11 12  1  0
 13 12  2  0
 14 13  1  0
 15 10  1  0
 15 14  2  0
 16 14  1  0
 16 17  2  0
 18 17  1  0
  1 19  1  0
  2 20  1  0
  3 21  1  0
  9 22  1  0
 11 23  1  0
 12 24  1  0
 13 25  1  0
 16 26  1  0
 17 27  1  0
 18 28  1  0
 18 29  1  0
 30 31  1  0
 31 32  2  0
 32 33  1  0
 32 34  1  0
 34 35  1  0
 34 36  1  0
 36 30  2  0
 18 30  1  0
M  ISO  8  19  14  20  14  21  14  23  14  24  14  25  14  28   8  29   8
M  ISO  2  33  14  35   9
M  END
>  <DihAtoms>  (1) 
16,17,29,30

>  <DihDeg>  (1) 
-90.00087554936037

$$$$
