
 OpenBabel03242520173D

 29 31  0  0  0  0  0  0  0  0999 V2000
   44.3190   34.4870   41.3530 C   0  0  0  0  0  0  0  0  0  0  0  0
   43.2070   35.2270   40.9060 C   0  0  0  0  0  0  0  0  0  0  0  0
   42.6880   34.9370   39.6470 C   0  0  0  0  0  0  0  0  0  0  0  0
   43.2970   33.9400   38.9140 N   0  0  0  0  0  0  0  0  0  0  0  0
   44.3630   33.2660   39.4030 C   0  0  0  0  0  0  0  0  0  0  0  0
   44.8690   33.5280   40.5970 N   0  0  0  0  0  0  0  0  0  0  0  0
   42.7920   35.9920   41.5460 H   0  0  0  0  0  0  0  0  0  0  0  0
   44.7870   32.4960   38.7670 H   0  0  0  0  0  0  0  0  0  0  0  0
   44.8610   34.8110   42.7000 C   0  0  0  0  0  0  0  0  0  0  0  0
   46.3220   35.3290   42.6540 C   0  0  0  0  0  0  0  0  0  0  0  0
   45.1810   36.1470   43.1140 C   0  0  0  0  0  0  0  0  0  0  0  0
   44.6820   33.9630   43.4090 H   0  0  0  0  0  0  0  0  0  0  0  0
   46.9640   34.9030   43.4490 H   0  0  0  0  0  0  0  0  0  0  0  0
   46.7780   35.4910   41.6610 H   0  0  0  0  0  0  0  0  0  0  0  0
   45.0720   36.3990   44.1940 H   0  0  0  0  0  0  0  0  0  0  0  0
   44.9000   37.0160   42.4830 H   0  0  0  0  0  0  0  0  0  0  0  0
   41.5110   35.6880   39.1360 C   0  0  0  0  0  0  0  0  0  0  0  0
   41.7700   36.5850   38.5790 H   0  0  0  0  0  0  0  0  0  0  0  0
   40.9760   34.9910   38.4550 H   0  0  0  0  0  0  0  0  0  0  0  0
   40.5360   36.0190   40.2520 C   0  0  0  0  0  0  0  0  0  0  0  0
   39.9150   36.8660   39.8940 H   0  0  0  0  0  0  0  0  0  0  0  0
   41.0050   36.3380   41.1850 H   0  0  0  0  0  0  0  0  0  0  0  0
   39.6620   34.8170   40.4250 C   0  0  0  0  0  0  0  0  0  0  0  0
   38.8040   34.4360   39.4780 N   0  0  0  0  0  0  0  0  0  0  0  0
   38.1150   33.3330   39.8330 C   0  0  0  0  0  0  0  0  0  0  0  0
   37.3600   32.8230   39.2450 H   0  0  0  0  0  0  0  0  0  0  0  0
   38.5860   33.0350   41.0600 N   0  0  0  0  0  0  0  0  0  0  0  0
   38.2490   32.2180   41.6180 H   0  0  0  0  0  0  0  0  0  0  0  0
   39.5070   33.9080   41.4260 N   0  0  0  0  0  0  0  0  0  0  0  0
  1  9  1  0  0  0  0
  2  1  1  0  0  0  0
  2  7  1  0  0  0  0
  3  2  2  0  0  0  0
  4  5  2  0  0  0  0
  4  3  1  0  0  0  0
  5  6  1  0  0  0  0
  6  1  2  0  0  0  0
  8  5  1  0  0  0  0
  9 11  1  0  0  0  0
  9 12  1  0  0  0  0
 10  9  1  0  0  0  0
 10 11  1  0  0  0  0
 10 13  1  0  0  0  0
 11 15  1  0  0  0  0
 14 10  1  0  0  0  0
 16 11  1  0  0  0  0
 17  3  1  0  0  0  0
 17 20  1  0  0  0  0
 18 17  1  0  0  0  0
 19 17  1  0  0  0  0
 20 23  1  0  0  0  0
 20 22  1  0  0  0  0
 21 20  1  0  0  0  0
 23 29  2  0  0  0  0
 24 25  2  0  0  0  0
 24 23  1  0  0  0  0
 25 27  1  0  0  0  0
 26 25  1  0  0  0  0
 27 29  1  0  0  0  0
 27 28  1  0  0  0  0
M  END
>  <minimizedAffinity>
-4.68922806

>  <minimizedRMSD>
1.32723451

$$$$
