
 OpenBabel03242517013D

 30 32  0  0  0  0  0  0  0  0999 V2000
   36.8710   28.5720   41.1960 C   0  0  0  0  0  0  0  0  0  0  0  0
   36.3080   27.7700   42.1630 C   0  0  0  0  0  0  0  0  0  0  0  0
   36.8810   27.7430   43.4250 C   0  0  0  0  0  0  0  0  0  0  0  0
   37.9950   28.5180   43.6790 C   0  0  0  0  0  0  0  0  0  0  0  0
   38.5790   29.3260   42.7410 C   0  0  0  0  0  0  0  0  0  0  0  0
   37.9650   29.3200   41.4810 C   0  0  0  0  0  0  0  0  0  0  0  0
   35.4310   27.1560   41.9740 H   0  0  0  0  0  0  0  0  0  0  0  0
   36.5100   27.1470   44.2420 H   0  0  0  0  0  0  0  0  0  0  0  0
   38.4880   28.5370   44.6530 H   0  0  0  0  0  0  0  0  0  0  0  0
   39.4270   29.9590   42.8190 H   0  0  0  0  0  0  0  0  0  0  0  0
   34.4300   28.9180   38.3320 C   0  0  0  0  0  0  0  0  0  0  0  0
   34.9430   28.9850   39.6380 C   0  0  0  0  0  0  0  0  0  0  0  0
   36.2210   28.5560   39.8870 C   0  0  0  0  0  0  0  0  0  0  0  0
   36.9310   28.0800   38.8220 N   0  0  0  0  0  0  0  0  0  0  0  0
   36.4410   28.0150   37.5660 C   0  0  0  0  0  0  0  0  0  0  0  0
   35.1800   28.4370   37.3150 N   0  0  0  0  0  0  0  0  0  0  0  0
   33.4120   29.2620   38.1440 H   0  0  0  0  0  0  0  0  0  0  0  0
   34.3760   29.3590   40.4560 H   0  0  0  0  0  0  0  0  0  0  0  0
   37.0870   27.6160   36.7700 H   0  0  0  0  0  0  0  0  0  0  0  0
   38.4080   31.4760   40.0380 C   0  0  0  0  0  0  0  0  0  0  0  0
   37.7950   32.3630   40.6380 O   0  0  0  0  0  0  0  0  0  0  0  0
   38.4640   30.1100   40.4140 N   0  0  0  0  0  0  0  0  0  0  0  0
   38.9880   29.4010   39.8180 H   0  0  0  0  0  0  0  0  0  0  0  0
   39.1490   31.8450   38.8330 C   0  0  0  0  0  0  0  0  0  0  0  0
   40.3910   32.3190   38.8760 N   0  0  0  0  0  0  0  0  0  0  0  0
   40.8570   32.5840   37.6230 C   0  0  0  0  0  0  0  0  0  0  0  0
   41.8470   32.9760   37.4740 H   0  0  0  0  0  0  0  0  0  0  0  0
   39.8450   32.2530   36.7980 N   0  0  0  0  0  0  0  0  0  0  0  0
   39.9590   32.3670   35.7790 H   0  0  0  0  0  0  0  0  0  0  0  0
   38.8240   31.8100   37.5290 N   0  0  0  0  0  0  0  0  0  0  0  0
  1  6  2  0  0  0  0
  1  2  1  0  0  0  0
  2  3  2  0  0  0  0
  3  4  1  0  0  0  0
  3  8  1  0  0  0  0
  4  9  1  0  0  0  0
  5 10  1  0  0  0  0
  5  4  2  0  0  0  0
  6  5  1  0  0  0  0
  7  2  1  0  0  0  0
 11 12  1  0  0  0  0
 12 13  2  0  0  0  0
 12 18  1  0  0  0  0
 13  1  1  0  0  0  0
 14 13  1  0  0  0  0
 15 14  2  0  0  0  0
 16 15  1  0  0  0  0
 16 11  2  0  0  0  0
 17 11  1  0  0  0  0
 19 15  1  0  0  0  0
 20 22  1  0  0  0  0
 20 21  2  0  0  0  0
 22  6  1  0  0  0  0
 23 22  1  0  0  0  0
 24 25  1  0  0  0  0
 24 20  1  0  0  0  0
 26 25  2  0  0  0  0
 27 26  1  0  0  0  0
 28 30  1  0  0  0  0
 28 26  1  0  0  0  0
 29 28  1  0  0  0  0
 30 24  2  0  0  0  0
M  END
>  <minimizedAffinity>
-5.50254345

$$$$

 OpenBabel03242517013D

 30 32  0  0  0  0  0  0  0  0999 V2000
   37.5750   27.5490   41.5780 C   0  0  0  0  0  0  0  0  0  0  0  0
   37.6220   26.2380   41.9970 C   0  0  0  0  0  0  0  0  0  0  0  0
   38.5310   25.8840   42.9820 C   0  0  0  0  0  0  0  0  0  0  0  0
   39.3620   26.8490   43.5140 C   0  0  0  0  0  0  0  0  0  0  0  0
   39.3410   28.1600   43.1200 C   0  0  0  0  0  0  0  0  0  0  0  0
   38.4060   28.4700   42.1230 C   0  0  0  0  0  0  0  0  0  0  0  0
   36.9720   25.4690   41.5840 H   0  0  0  0  0  0  0  0  0  0  0  0
   38.6390   24.8850   43.3710 H   0  0  0  0  0  0  0  0  0  0  0  0
   40.0970   26.6290   44.2910 H   0  0  0  0  0  0  0  0  0  0  0  0
   39.9240   28.9810   43.4530 H   0  0  0  0  0  0  0  0  0  0  0  0
   35.5520   27.6500   38.3870 C   0  0  0  0  0  0  0  0  0  0  0  0
   36.5460   27.2640   39.3020 C   0  0  0  0  0  0  0  0  0  0  0  0
   36.5960   27.8580   40.5380 C   0  0  0  0  0  0  0  0  0  0  0  0
   35.6520   28.8090   40.8040 N   0  0  0  0  0  0  0  0  0  0  0  0
   34.6980   29.1810   39.9260 C   0  0  0  0  0  0  0  0  0  0  0  0
   34.6430   28.5980   38.7060 N   0  0  0  0  0  0  0  0  0  0  0  0
   35.5210   27.1720   37.4070 H   0  0  0  0  0  0  0  0  0  0  0  0
   37.2730   26.5210   39.0780 H   0  0  0  0  0  0  0  0  0  0  0  0
   33.9790   29.9570   40.2290 H   0  0  0  0  0  0  0  0  0  0  0  0
   39.0490   30.6570   40.8080 C   0  0  0  0  0  0  0  0  0  0  0  0
   40.1650   30.4040   40.3440 O   0  0  0  0  0  0  0  0  0  0  0  0
   38.2750   29.7900   41.6200 N   0  0  0  0  0  0  0  0  0  0  0  0
   37.3350   30.1010   42.0090 H   0  0  0  0  0  0  0  0  0  0  0  0
   38.4560   31.9580   40.5050 C   0  0  0  0  0  0  0  0  0  0  0  0
   39.1650   33.0830   40.5060 N   0  0  0  0  0  0  0  0  0  0  0  0
   38.3820   34.1540   40.1920 C   0  0  0  0  0  0  0  0  0  0  0  0
   38.7970   35.1460   40.1490 H   0  0  0  0  0  0  0  0  0  0  0  0
   37.1530   33.6420   39.9950 N   0  0  0  0  0  0  0  0  0  0  0  0
   36.3730   34.2680   39.7420 H   0  0  0  0  0  0  0  0  0  0  0  0
   37.2030   32.3240   40.1830 N   0  0  0  0  0  0  0  0  0  0  0  0
  1  2  2  0  0  0  0
  1  6  1  0  0  0  0
  2  3  1  0  0  0  0
  3  8  1  0  0  0  0
  3  4  2  0  0  0  0
  4  9  1  0  0  0  0
  5 10  1  0  0  0  0
  5  4  1  0  0  0  0
  6  5  2  0  0  0  0
  7  2  1  0  0  0  0
 11 16  2  0  0  0  0
 11 12  1  0  0  0  0
 12 13  2  0  0  0  0
 13 14  1  0  0  0  0
 13  1  1  0  0  0  0
 15 19  1  0  0  0  0
 15 14  2  0  0  0  0
 16 15  1  0  0  0  0
 17 11  1  0  0  0  0
 18 12  1  0  0  0  0
 20 22  1  0  0  0  0
 21 20  2  0  0  0  0
 22 23  1  0  0  0  0
 22  6  1  0  0  0  0
 24 25  1  0  0  0  0
 24 20  1  0  0  0  0
 26 25  2  0  0  0  0
 27 26  1  0  0  0  0
 28 30  1  0  0  0  0
 28 26  1  0  0  0  0
 29 28  1  0  0  0  0
 30 24  2  0  0  0  0
M  END
>  <minimizedAffinity>
-5.45786476

$$$$

 OpenBabel03242517013D

 30 32  0  0  0  0  0  0  0  0999 V2000
   36.6850   26.2330   39.8700 C   0  0  0  0  0  0  0  0  0  0  0  0
   36.5600   24.8620   39.8350 C   0  0  0  0  0  0  0  0  0  0  0  0
   36.7290   24.1460   41.0100 C   0  0  0  0  0  0  0  0  0  0  0  0
   37.0170   24.8220   42.1790 C   0  0  0  0  0  0  0  0  0  0  0  0
   37.1470   26.1840   42.2480 C   0  0  0  0  0  0  0  0  0  0  0  0
   36.9670   26.8630   41.0360 C   0  0  0  0  0  0  0  0  0  0  0  0
   36.3350   24.3190   38.9200 H   0  0  0  0  0  0  0  0  0  0  0  0
   36.6510   23.0740   41.0790 H   0  0  0  0  0  0  0  0  0  0  0  0
   37.1600   24.3120   43.1330 H   0  0  0  0  0  0  0  0  0  0  0  0
   37.3620   26.8060   43.0790 H   0  0  0  0  0  0  0  0  0  0  0  0
   35.2650   27.6800   36.6800 C   0  0  0  0  0  0  0  0  0  0  0  0
   35.3190   26.9740   37.8940 C   0  0  0  0  0  0  0  0  0  0  0  0
   36.4950   26.9290   38.5990 C   0  0  0  0  0  0  0  0  0  0  0  0
   37.5630   27.5900   38.0610 N   0  0  0  0  0  0  0  0  0  0  0  0
   37.5130   28.2680   36.8960 C   0  0  0  0  0  0  0  0  0  0  0  0
   36.3550   28.3160   36.1960 N   0  0  0  0  0  0  0  0  0  0  0  0
   34.3250   27.7100   36.1280 H   0  0  0  0  0  0  0  0  0  0  0  0
   34.4780   26.4660   38.2990 H   0  0  0  0  0  0  0  0  0  0  0  0
   38.4250   28.7710   36.5400 H   0  0  0  0  0  0  0  0  0  0  0  0
   37.4750   29.3210   41.8310 C   0  0  0  0  0  0  0  0  0  0  0  0
   37.8300   29.1830   43.0050 O   0  0  0  0  0  0  0  0  0  0  0  0
   37.0730   28.2770   40.9600 N   0  0  0  0  0  0  0  0  0  0  0  0
   36.7470   28.4870   39.9690 H   0  0  0  0  0  0  0  0  0  0  0  0
   37.4640   30.6700   41.2680 C   0  0  0  0  0  0  0  0  0  0  0  0
   38.5710   31.3930   41.1260 N   0  0  0  0  0  0  0  0  0  0  0  0
   38.2930   32.6100   40.5790 C   0  0  0  0  0  0  0  0  0  0  0  0
   39.0770   33.3240   40.3950 H   0  0  0  0  0  0  0  0  0  0  0  0
   36.9600   32.6100   40.3880 N   0  0  0  0  0  0  0  0  0  0  0  0
   36.5030   33.4390   39.9790 H   0  0  0  0  0  0  0  0  0  0  0  0
   36.4680   31.4440   40.8030 N   0  0  0  0  0  0  0  0  0  0  0  0
  1  6  1  0  0  0  0
  2  1  2  0  0  0  0
  2  3  1  0  0  0  0
  3  8  1  0  0  0  0
  3  4  2  0  0  0  0
  4  5  1  0  0  0  0
  4  9  1  0  0  0  0
  5 10  1  0  0  0  0
  6  5  2  0  0  0  0
  7  2  1  0  0  0  0
 11 12  1  0  0  0  0
 12 18  1  0  0  0  0
 12 13  2  0  0  0  0
 13  1  1  0  0  0  0
 14 13  1  0  0  0  0
 15 14  2  0  0  0  0
 16 11  2  0  0  0  0
 16 15  1  0  0  0  0
 17 11  1  0  0  0  0
 19 15  1  0  0  0  0
 20 21  2  0  0  0  0
 22  6  1  0  0  0  0
 22 20  1  0  0  0  0
 23 22  1  0  0  0  0
 24 20  1  0  0  0  0
 25 24  1  0  0  0  0
 26 25  2  0  0  0  0
 27 26  1  0  0  0  0
 28 26  1  0  0  0  0
 28 30  1  0  0  0  0
 29 28  1  0  0  0  0
 30 24  2  0  0  0  0
M  END
>  <minimizedAffinity>
-5.309165

$$$$

 OpenBabel03242517013D

 30 32  0  0  0  0  0  0  0  0999 V2000
   36.9430   26.0360   40.2850 C   0  0  0  0  0  0  0  0  0  0  0  0
   36.8850   24.6610   40.2420 C   0  0  0  0  0  0  0  0  0  0  0  0
   36.2230   24.0530   39.1860 C   0  0  0  0  0  0  0  0  0  0  0  0
   35.6420   24.8380   38.2100 C   0  0  0  0  0  0  0  0  0  0  0  0
   35.6810   26.2070   38.2240 C   0  0  0  0  0  0  0  0  0  0  0  0
   36.3610   26.7740   39.3100 C   0  0  0  0  0  0  0  0  0  0  0  0
   37.3390   24.0330   41.0050 H   0  0  0  0  0  0  0  0  0  0  0  0
   36.1280   22.9860   39.0690 H   0  0  0  0  0  0  0  0  0  0  0  0
   35.1080   24.4150   37.3570 H   0  0  0  0  0  0  0  0  0  0  0  0
   35.2760   26.9060   37.5370 H   0  0  0  0  0  0  0  0  0  0  0  0
   37.9020   27.3940   43.6790 C   0  0  0  0  0  0  0  0  0  0  0  0
   37.1120   26.8270   42.6650 C   0  0  0  0  0  0  0  0  0  0  0  0
   37.6540   26.6150   41.4230 C   0  0  0  0  0  0  0  0  0  0  0  0
   38.9590   26.9780   41.2490 N   0  0  0  0  0  0  0  0  0  0  0  0
   39.7200   27.5220   42.2220 C   0  0  0  0  0  0  0  0  0  0  0  0
   39.1900   27.7330   43.4490 N   0  0  0  0  0  0  0  0  0  0  0  0
   37.4620   27.5580   44.6630 H   0  0  0  0  0  0  0  0  0  0  0  0
   36.0970   26.5510   42.8180 H   0  0  0  0  0  0  0  0  0  0  0  0
   40.7630   27.7830   41.9890 H   0  0  0  0  0  0  0  0  0  0  0  0
   35.6010   29.2600   39.7280 C   0  0  0  0  0  0  0  0  0  0  0  0
   34.3800   29.1710   39.8880 O   0  0  0  0  0  0  0  0  0  0  0  0
   36.4790   28.1820   39.4510 N   0  0  0  0  0  0  0  0  0  0  0  0
   37.5170   28.3510   39.2900 H   0  0  0  0  0  0  0  0  0  0  0  0
   36.2150   30.5820   39.8290 C   0  0  0  0  0  0  0  0  0  0  0  0
   36.7860   31.1850   38.7890 N   0  0  0  0  0  0  0  0  0  0  0  0
   37.2810   32.4040   39.1430 C   0  0  0  0  0  0  0  0  0  0  0  0
   37.7780   33.0280   38.4210 H   0  0  0  0  0  0  0  0  0  0  0  0
   36.9910   32.5320   40.4510 N   0  0  0  0  0  0  0  0  0  0  0  0
   37.2700   33.3880   40.9550 H   0  0  0  0  0  0  0  0  0  0  0  0
   36.3510   31.4370   40.8570 N   0  0  0  0  0  0  0  0  0  0  0  0
  1 13  1  0  0  0  0
  2  1  1  0  0  0  0
  2  7  1  0  0  0  0
  3  2  2  0  0  0  0
  4  5  2  0  0  0  0
  4  3  1  0  0  0  0
  5  6  1  0  0  0  0
  6 22  1  0  0  0  0
  6  1  2  0  0  0  0
  8  3  1  0  0  0  0
  9  4  1  0  0  0  0
 10  5  1  0  0  0  0
 11 17  1  0  0  0  0
 12 18  1  0  0  0  0
 12 11  2  0  0  0  0
 13 12  1  0  0  0  0
 14 13  2  0  0  0  0
 14 15  1  0  0  0  0
 15 16  2  0  0  0  0
 16 11  1  0  0  0  0
 19 15  1  0  0  0  0
 20 24  1  0  0  0  0
 20 21  2  0  0  0  0
 22 20  1  0  0  0  0
 23 22  1  0  0  0  0
 24 30  2  0  0  0  0
 25 26  2  0  0  0  0
 25 24  1  0  0  0  0
 26 28  1  0  0  0  0
 27 26  1  0  0  0  0
 28 30  1  0  0  0  0
 28 29  1  0  0  0  0
M  END
>  <minimizedAffinity>
-5.29308462

$$$$

 OpenBabel03242517013D

 30 32  0  0  0  0  0  0  0  0999 V2000
   38.7220   28.8090   42.4860 C   0  0  0  0  0  0  0  0  0  0  0  0
   38.3390   28.0140   43.5430 C   0  0  0  0  0  0  0  0  0  0  0  0
   37.0550   27.4900   43.5520 C   0  0  0  0  0  0  0  0  0  0  0  0
   36.1990   27.7760   42.5080 C   0  0  0  0  0  0  0  0  0  0  0  0
   36.5490   28.5620   41.4420 C   0  0  0  0  0  0  0  0  0  0  0  0
   37.8550   29.0690   41.4770 C   0  0  0  0  0  0  0  0  0  0  0  0
   39.0040   27.7830   44.3700 H   0  0  0  0  0  0  0  0  0  0  0  0
   36.6680   26.8590   44.3350 H   0  0  0  0  0  0  0  0  0  0  0  0
   35.1790   27.3910   42.4610 H   0  0  0  0  0  0  0  0  0  0  0  0
   35.9840   28.8480   40.5920 H   0  0  0  0  0  0  0  0  0  0  0  0
   42.4810   29.1870   42.6080 C   0  0  0  0  0  0  0  0  0  0  0  0
   41.2220   28.5630   42.5610 C   0  0  0  0  0  0  0  0  0  0  0  0
   40.0860   29.3310   42.5340 C   0  0  0  0  0  0  0  0  0  0  0  0
   40.2570   30.6860   42.5540 N   0  0  0  0  0  0  0  0  0  0  0  0
   41.4640   31.2870   42.5980 C   0  0  0  0  0  0  0  0  0  0  0  0
   42.5890   30.5340   42.6250 N   0  0  0  0  0  0  0  0  0  0  0  0
   43.3780   28.5670   42.6290 H   0  0  0  0  0  0  0  0  0  0  0  0
   41.1080   27.5060   42.5460 H   0  0  0  0  0  0  0  0  0  0  0  0
   41.5040   32.3870   42.6120 H   0  0  0  0  0  0  0  0  0  0  0  0
   38.0090   31.1560   39.8800 C   0  0  0  0  0  0  0  0  0  0  0  0
   37.0510   31.8570   40.2190 O   0  0  0  0  0  0  0  0  0  0  0  0
   38.3520   29.8990   40.4380 N   0  0  0  0  0  0  0  0  0  0  0  0
   39.1760   29.3410   40.0620 H   0  0  0  0  0  0  0  0  0  0  0  0
   38.8790   31.6480   38.8140 C   0  0  0  0  0  0  0  0  0  0  0  0
   40.1210   32.0660   39.0430 N   0  0  0  0  0  0  0  0  0  0  0  0
   40.7210   32.4710   37.8880 C   0  0  0  0  0  0  0  0  0  0  0  0
   41.7310   32.8410   37.8910 H   0  0  0  0  0  0  0  0  0  0  0  0
   39.7930   32.2860   36.9300 N   0  0  0  0  0  0  0  0  0  0  0  0
   40.0140   32.5260   35.9510 H   0  0  0  0  0  0  0  0  0  0  0  0
   38.6910   31.7920   37.4910 N   0  0  0  0  0  0  0  0  0  0  0  0
  1 13  1  0  0  0  0
  1  2  1  0  0  0  0
  2  3  2  0  0  0  0
  2  7  1  0  0  0  0
  3  8  1  0  0  0  0
  4  3  1  0  0  0  0
  5  6  1  0  0  0  0
  5  4  2  0  0  0  0
  6  1  2  0  0  0  0
  9  4  1  0  0  0  0
 10  5  1  0  0  0  0
 11 16  1  0  0  0  0
 11 17  1  0  0  0  0
 12 11  2  0  0  0  0
 13 14  2  0  0  0  0
 13 12  1  0  0  0  0
 14 15  1  0  0  0  0
 15 19  1  0  0  0  0
 15 16  2  0  0  0  0
 18 12  1  0  0  0  0
 20 21  2  0  0  0  0
 20 22  1  0  0  0  0
 22  6  1  0  0  0  0
 23 22  1  0  0  0  0
 24 25  1  0  0  0  0
 24 20  1  0  0  0  0
 26 27  1  0  0  0  0
 26 25  2  0  0  0  0
 28 30  1  0  0  0  0
 28 26  1  0  0  0  0
 29 28  1  0  0  0  0
 30 24  2  0  0  0  0
M  END
>  <minimizedAffinity>
-5.22623539

$$$$

 OpenBabel03242517013D

 30 32  0  0  0  0  0  0  0  0999 V2000
   37.6040   29.2940   41.4920 C   0  0  0  0  0  0  0  0  0  0  0  0
   37.6940   29.2860   42.8660 C   0  0  0  0  0  0  0  0  0  0  0  0
   37.4110   28.1130   43.5470 C   0  0  0  0  0  0  0  0  0  0  0  0
   37.0480   26.9870   42.8350 C   0  0  0  0  0  0  0  0  0  0  0  0
   36.9490   26.9610   41.4690 C   0  0  0  0  0  0  0  0  0  0  0  0
   37.2450   28.1700   40.8250 C   0  0  0  0  0  0  0  0  0  0  0  0
   37.9780   30.1670   43.4370 H   0  0  0  0  0  0  0  0  0  0  0  0
   37.4540   28.0130   44.6190 H   0  0  0  0  0  0  0  0  0  0  0  0
   36.8140   26.0360   43.3170 H   0  0  0  0  0  0  0  0  0  0  0  0
   36.6840   26.1640   40.8210 H   0  0  0  0  0  0  0  0  0  0  0  0
   37.4580   32.7730   40.0240 C   0  0  0  0  0  0  0  0  0  0  0  0
   37.0380   31.6030   40.6790 C   0  0  0  0  0  0  0  0  0  0  0  0
   37.9150   30.5600   40.8330 C   0  0  0  0  0  0  0  0  0  0  0  0
   39.1720   30.7310   40.3270 N   0  0  0  0  0  0  0  0  0  0  0  0
   39.5780   31.8540   39.6980 C   0  0  0  0  0  0  0  0  0  0  0  0
   38.7170   32.8860   39.5430 N   0  0  0  0  0  0  0  0  0  0  0  0
   36.7530   33.5970   39.9060 H   0  0  0  0  0  0  0  0  0  0  0  0
   36.0550   31.4870   41.0670 H   0  0  0  0  0  0  0  0  0  0  0  0
   40.6120   31.9020   39.3220 H   0  0  0  0  0  0  0  0  0  0  0  0
   36.1850   28.5930   38.4530 C   0  0  0  0  0  0  0  0  0  0  0  0
   34.9970   28.8170   38.6980 O   0  0  0  0  0  0  0  0  0  0  0  0
   37.1840   28.2860   39.4120 N   0  0  0  0  0  0  0  0  0  0  0  0
   38.1810   28.0700   39.1120 H   0  0  0  0  0  0  0  0  0  0  0  0
   36.6240   28.6460   37.0600 C   0  0  0  0  0  0  0  0  0  0  0  0
   35.8440   29.1020   36.0830 N   0  0  0  0  0  0  0  0  0  0  0  0
   36.4840   29.0470   34.8810 C   0  0  0  0  0  0  0  0  0  0  0  0
   35.9960   29.3770   33.9810 H   0  0  0  0  0  0  0  0  0  0  0  0
   37.6990   28.5360   35.1560 N   0  0  0  0  0  0  0  0  0  0  0  0
   38.3790   28.3960   34.3930 H   0  0  0  0  0  0  0  0  0  0  0  0
   37.7770   28.2980   36.4640 N   0  0  0  0  0  0  0  0  0  0  0  0
  1  2  1  0  0  0  0
  2  7  1  0  0  0  0
  2  3  2  0  0  0  0
  3  8  1  0  0  0  0
  4  9  1  0  0  0  0
  4  3  1  0  0  0  0
  5  4  2  0  0  0  0
  6  5  1  0  0  0  0
  6  1  2  0  0  0  0
 10  5  1  0  0  0  0
 11 12  1  0  0  0  0
 12 13  2  0  0  0  0
 12 18  1  0  0  0  0
 13  1  1  0  0  0  0
 14 13  1  0  0  0  0
 15 14  2  0  0  0  0
 16 15  1  0  0  0  0
 16 11  2  0  0  0  0
 17 11  1  0  0  0  0
 19 15  1  0  0  0  0
 20 21  2  0  0  0  0
 20 22  1  0  0  0  0
 22  6  1  0  0  0  0
 23 22  1  0  0  0  0
 24 20  1  0  0  0  0
 25 24  1  0  0  0  0
 26 28  1  0  0  0  0
 26 25  2  0  0  0  0
 27 26  1  0  0  0  0
 28 30  1  0  0  0  0
 29 28  1  0  0  0  0
 30 24  2  0  0  0  0
M  END
>  <minimizedAffinity>
-5.18202257

$$$$

 OpenBabel03242517013D

 30 32  0  0  0  0  0  0  0  0999 V2000
   37.4510   31.6380   39.8960 C   0  0  0  0  0  0  0  0  0  0  0  0
   37.1990   32.9400   39.5240 C   0  0  0  0  0  0  0  0  0  0  0  0
   38.0570   33.9370   39.9630 C   0  0  0  0  0  0  0  0  0  0  0  0
   39.1350   33.6010   40.7570 C   0  0  0  0  0  0  0  0  0  0  0  0
   39.4130   32.3180   41.1450 C   0  0  0  0  0  0  0  0  0  0  0  0
   38.5190   31.3450   40.6770 C   0  0  0  0  0  0  0  0  0  0  0  0
   36.3530   33.2150   38.8990 H   0  0  0  0  0  0  0  0  0  0  0  0
   37.9390   34.9800   39.7230 H   0  0  0  0  0  0  0  0  0  0  0  0
   39.8420   34.3430   41.1320 H   0  0  0  0  0  0  0  0  0  0  0  0
   40.2030   31.9440   41.7460 H   0  0  0  0  0  0  0  0  0  0  0  0
   35.4830   29.2290   37.7500 C   0  0  0  0  0  0  0  0  0  0  0  0
   36.4320   30.2030   38.1020 C   0  0  0  0  0  0  0  0  0  0  0  0
   36.5110   30.6340   39.4020 C   0  0  0  0  0  0  0  0  0  0  0  0
   35.6400   30.0740   40.2910 N   0  0  0  0  0  0  0  0  0  0  0  0
   34.7270   29.1380   39.9560 C   0  0  0  0  0  0  0  0  0  0  0  0
   34.6450   28.7090   38.6750 N   0  0  0  0  0  0  0  0  0  0  0  0
   35.4280   28.8930   36.7140 H   0  0  0  0  0  0  0  0  0  0  0  0
   37.1030   30.6280   37.3950 H   0  0  0  0  0  0  0  0  0  0  0  0
   34.0660   28.7430   40.7420 H   0  0  0  0  0  0  0  0  0  0  0  0
   38.6060   29.1820   42.1750 C   0  0  0  0  0  0  0  0  0  0  0  0
   38.3760   29.6030   43.3120 O   0  0  0  0  0  0  0  0  0  0  0  0
   38.6860   29.9740   41.0010 N   0  0  0  0  0  0  0  0  0  0  0  0
   38.9250   29.5340   40.0620 H   0  0  0  0  0  0  0  0  0  0  0  0
   38.8160   27.7470   42.0010 C   0  0  0  0  0  0  0  0  0  0  0  0
   38.9960   26.9220   43.0290 N   0  0  0  0  0  0  0  0  0  0  0  0
   39.1680   25.6390   42.6020 C   0  0  0  0  0  0  0  0  0  0  0  0
   39.3270   24.8410   43.3050 H   0  0  0  0  0  0  0  0  0  0  0  0
   39.0870   25.7050   41.2600 N   0  0  0  0  0  0  0  0  0  0  0  0
   39.1880   24.8450   40.6990 H   0  0  0  0  0  0  0  0  0  0  0  0
   38.8750   26.9710   40.9050 N   0  0  0  0  0  0  0  0  0  0  0  0
  1  6  1  0  0  0  0
  2  1  2  0  0  0  0
  2  3  1  0  0  0  0
  3  4  2  0  0  0  0
  4  9  1  0  0  0  0
  4  5  1  0  0  0  0
  5 10  1  0  0  0  0
  6 22  1  0  0  0  0
  6  5  2  0  0  0  0
  7  2  1  0  0  0  0
  8  3  1  0  0  0  0
 11 12  2  0  0  0  0
 11 16  1  0  0  0  0
 12 13  1  0  0  0  0
 13  1  1  0  0  0  0
 13 14  2  0  0  0  0
 15 14  1  0  0  0  0
 15 19  1  0  0  0  0
 16 15  2  0  0  0  0
 17 11  1  0  0  0  0
 18 12  1  0  0  0  0
 20 21  2  0  0  0  0
 22 20  1  0  0  0  0
 23 22  1  0  0  0  0
 24 20  1  0  0  0  0
 24 25  1  0  0  0  0
 26 25  2  0  0  0  0
 26 27  1  0  0  0  0
 28 26  1  0  0  0  0
 29 28  1  0  0  0  0
 30 28  1  0  0  0  0
 30 24  2  0  0  0  0
M  END
>  <minimizedAffinity>
-5.06444263

$$$$

 OpenBabel03242517013D

 30 32  0  0  0  0  0  0  0  0999 V2000
   36.9750   27.0210   40.8270 C   0  0  0  0  0  0  0  0  0  0  0  0
   37.0210   26.4610   42.0850 C   0  0  0  0  0  0  0  0  0  0  0  0
   36.9320   25.0830   42.2060 C   0  0  0  0  0  0  0  0  0  0  0  0
   36.8000   24.3110   41.0690 C   0  0  0  0  0  0  0  0  0  0  0  0
   36.7520   24.8350   39.8040 C   0  0  0  0  0  0  0  0  0  0  0  0
   36.8460   26.2320   39.7330 C   0  0  0  0  0  0  0  0  0  0  0  0
   37.1230   27.0600   42.9870 H   0  0  0  0  0  0  0  0  0  0  0  0
   36.9580   24.5580   43.1460 H   0  0  0  0  0  0  0  0  0  0  0  0
   36.7260   23.2220   41.1030 H   0  0  0  0  0  0  0  0  0  0  0  0
   36.6550   24.3470   38.8680 H   0  0  0  0  0  0  0  0  0  0  0  0
   36.2820   30.7330   40.9810 C   0  0  0  0  0  0  0  0  0  0  0  0
   36.0620   29.3480   41.0800 C   0  0  0  0  0  0  0  0  0  0  0  0
   37.0740   28.4770   40.7670 C   0  0  0  0  0  0  0  0  0  0  0  0
   38.2600   29.0270   40.3690 N   0  0  0  0  0  0  0  0  0  0  0  0
   38.4730   30.3550   40.2740 C   0  0  0  0  0  0  0  0  0  0  0  0
   37.4780   31.2200   40.5820 N   0  0  0  0  0  0  0  0  0  0  0  0
   35.4700   31.4170   41.2320 H   0  0  0  0  0  0  0  0  0  0  0  0
   35.1320   28.9380   41.3910 H   0  0  0  0  0  0  0  0  0  0  0  0
   39.4630   30.7070   39.9440 H   0  0  0  0  0  0  0  0  0  0  0  0
   35.8060   27.3220   37.5740 C   0  0  0  0  0  0  0  0  0  0  0  0
   34.5960   27.1070   37.6910 O   0  0  0  0  0  0  0  0  0  0  0  0
   36.8100   26.9100   38.4870 N   0  0  0  0  0  0  0  0  0  0  0  0
   37.8380   27.1050   38.2930 H   0  0  0  0  0  0  0  0  0  0  0  0
   36.2650   28.0650   36.4030 C   0  0  0  0  0  0  0  0  0  0  0  0
   35.5830   29.0880   35.8950 N   0  0  0  0  0  0  0  0  0  0  0  0
   36.2200   29.6100   34.8090 C   0  0  0  0  0  0  0  0  0  0  0  0
   35.8050   30.4450   34.2740 H   0  0  0  0  0  0  0  0  0  0  0  0
   37.3310   28.8620   34.6650 N   0  0  0  0  0  0  0  0  0  0  0  0
   37.9880   29.0660   33.8960 H   0  0  0  0  0  0  0  0  0  0  0  0
   37.3520   27.9380   35.6240 N   0  0  0  0  0  0  0  0  0  0  0  0
  1  2  1  0  0  0  0
  2  3  2  0  0  0  0
  2  7  1  0  0  0  0
  3  8  1  0  0  0  0
  4  9  1  0  0  0  0
  4  3  1  0  0  0  0
  5  4  2  0  0  0  0
  6  5  1  0  0  0  0
  6  1  2  0  0  0  0
 10  5  1  0  0  0  0
 11 12  1  0  0  0  0
 11 17  1  0  0  0  0
 12 18  1  0  0  0  0
 13  1  1  0  0  0  0
 13 12  2  0  0  0  0
 14 13  1  0  0  0  0
 15 14  2  0  0  0  0
 15 16  1  0  0  0  0
 16 11  2  0  0  0  0
 19 15  1  0  0  0  0
 20 21  2  0  0  0  0
 20 22  1  0  0  0  0
 22  6  1  0  0  0  0
 23 22  1  0  0  0  0
 24 20  1  0  0  0  0
 25 24  1  0  0  0  0
 26 25  2  0  0  0  0
 27 26  1  0  0  0  0
 28 26  1  0  0  0  0
 28 30  1  0  0  0  0
 29 28  1  0  0  0  0
 30 24  2  0  0  0  0
M  END
>  <minimizedAffinity>
-5.01581955

$$$$

 OpenBabel03242517013D

 30 32  0  0  0  0  0  0  0  0999 V2000
   36.6670   27.9790   39.4770 C   0  0  0  0  0  0  0  0  0  0  0  0
   36.0610   26.8310   39.0180 C   0  0  0  0  0  0  0  0  0  0  0  0
   35.3270   26.8870   37.8430 C   0  0  0  0  0  0  0  0  0  0  0  0
   35.2230   28.0860   37.1670 C   0  0  0  0  0  0  0  0  0  0  0  0
   35.8140   29.2450   37.5960 C   0  0  0  0  0  0  0  0  0  0  0  0
   36.5440   29.1390   38.7870 C   0  0  0  0  0  0  0  0  0  0  0  0
   36.1360   25.8820   39.5430 H   0  0  0  0  0  0  0  0  0  0  0  0
   34.8190   26.0420   37.4100 H   0  0  0  0  0  0  0  0  0  0  0  0
   34.6600   28.1900   36.2380 H   0  0  0  0  0  0  0  0  0  0  0  0
   35.8050   30.2140   37.1650 H   0  0  0  0  0  0  0  0  0  0  0  0
   37.7160   27.5300   43.0800 C   0  0  0  0  0  0  0  0  0  0  0  0
   36.8770   27.6310   41.9570 C   0  0  0  0  0  0  0  0  0  0  0  0
   37.4260   27.8540   40.7200 C   0  0  0  0  0  0  0  0  0  0  0  0
   38.7860   27.9670   40.6590 N   0  0  0  0  0  0  0  0  0  0  0  0
   39.5930   27.8700   41.7350 C   0  0  0  0  0  0  0  0  0  0  0  0
   39.0580   27.6490   42.9590 N   0  0  0  0  0  0  0  0  0  0  0  0
   37.2710   27.3530   44.0600 H   0  0  0  0  0  0  0  0  0  0  0  0
   35.8200   27.5410   42.0230 H   0  0  0  0  0  0  0  0  0  0  0  0
   40.6790   27.9740   41.5900 H   0  0  0  0  0  0  0  0  0  0  0  0
   36.9990   31.1290   40.4480 C   0  0  0  0  0  0  0  0  0  0  0  0
   36.0400   31.0900   41.2240 O   0  0  0  0  0  0  0  0  0  0  0  0
   37.2080   30.2610   39.3470 N   0  0  0  0  0  0  0  0  0  0  0  0
   38.0470   30.3860   38.7040 H   0  0  0  0  0  0  0  0  0  0  0  0
   38.0210   32.1510   40.6670 C   0  0  0  0  0  0  0  0  0  0  0  0
   37.8800   33.4030   40.2400 N   0  0  0  0  0  0  0  0  0  0  0  0
   38.9670   34.1570   40.5690 C   0  0  0  0  0  0  0  0  0  0  0  0
   39.0200   35.1960   40.2990 H   0  0  0  0  0  0  0  0  0  0  0  0
   39.7910   33.3140   41.2220 N   0  0  0  0  0  0  0  0  0  0  0  0
   40.6970   33.6570   41.5760 H   0  0  0  0  0  0  0  0  0  0  0  0
   39.2180   32.1130   41.2770 N   0  0  0  0  0  0  0  0  0  0  0  0
  1 13  1  0  0  0  0
  2  1  1  0  0  0  0
  2  7  1  0  0  0  0
  3  2  2  0  0  0  0
  4  5  2  0  0  0  0
  4  3  1  0  0  0  0
  5  6  1  0  0  0  0
  6 22  1  0  0  0  0
  6  1  2  0  0  0  0
  8  3  1  0  0  0  0
  9  4  1  0  0  0  0
 10  5  1  0  0  0  0
 11 17  1  0  0  0  0
 12 18  1  0  0  0  0
 12 11  2  0  0  0  0
 13 12  1  0  0  0  0
 14 13  2  0  0  0  0
 14 15  1  0  0  0  0
 15 16  2  0  0  0  0
 16 11  1  0  0  0  0
 19 15  1  0  0  0  0
 20 24  1  0  0  0  0
 20 21  2  0  0  0  0
 22 20  1  0  0  0  0
 23 22  1  0  0  0  0
 24 30  2  0  0  0  0
 25 26  2  0  0  0  0
 25 24  1  0  0  0  0
 26 28  1  0  0  0  0
 27 26  1  0  0  0  0
 28 30  1  0  0  0  0
 28 29  1  0  0  0  0
M  END
>  <minimizedAffinity>
-4.99155045

$$$$
