
 OpenBabel03242520193D

 33 35  0  0  0  0  0  0  0  0999 V2000
   40.9800   35.8700   39.3590 C   0  0  0  0  0  0  0  0  0  0  0  0
   40.6920   35.4480   38.3640 H   0  0  0  0  0  0  0  0  0  0  0  0
   41.1150   36.9560   39.2920 H   0  0  0  0  0  0  0  0  0  0  0  0
   43.9250   34.6350   41.3860 C   0  0  0  0  0  0  0  0  0  0  0  0
   42.7750   35.3690   41.0170 C   0  0  0  0  0  0  0  0  0  0  0  0
   42.1930   35.1300   39.7840 C   0  0  0  0  0  0  0  0  0  0  0  0
   42.7840   34.1800   38.9890 N   0  0  0  0  0  0  0  0  0  0  0  0
   43.8890   33.5000   39.3880 C   0  0  0  0  0  0  0  0  0  0  0  0
   44.4520   33.7240   40.5710 N   0  0  0  0  0  0  0  0  0  0  0  0
   42.3770   36.1040   41.7120 H   0  0  0  0  0  0  0  0  0  0  0  0
   44.3390   32.7550   38.7440 H   0  0  0  0  0  0  0  0  0  0  0  0
   44.5430   34.9090   42.7100 C   0  0  0  0  0  0  0  0  0  0  0  0
   46.0570   35.2800   42.5870 C   0  0  0  0  0  0  0  0  0  0  0  0
   45.0290   36.1730   43.1250 C   0  0  0  0  0  0  0  0  0  0  0  0
   44.3230   34.1020   43.4340 H   0  0  0  0  0  0  0  0  0  0  0  0
   46.4660   35.4060   41.5720 H   0  0  0  0  0  0  0  0  0  0  0  0
   46.7060   34.6520   43.2240 H   0  0  0  0  0  0  0  0  0  0  0  0
   44.8030   37.0610   42.4650 H   0  0  0  0  0  0  0  0  0  0  0  0
   45.0440   36.4790   44.1850 H   0  0  0  0  0  0  0  0  0  0  0  0
   39.8250   35.5760   40.2960 C   0  0  0  0  0  0  0  0  0  0  0  0
   40.1990   35.5960   41.3200 H   0  0  0  0  0  0  0  0  0  0  0  0
   39.0510   36.3910   40.2250 H   0  0  0  0  0  0  0  0  0  0  0  0
   39.2390   33.2890   40.9000 C   0  0  0  0  0  0  0  0  0  0  0  0
   39.8230   33.3240   42.0180 O   0  0  0  0  0  0  0  0  0  0  0  0
   39.1420   34.3500   39.9590 N   0  0  0  0  0  0  0  0  0  0  0  0
   38.6150   34.2510   39.0860 H   0  0  0  0  0  0  0  0  0  0  0  0
   38.5860   32.0160   40.5230 C   0  0  0  0  0  0  0  0  0  0  0  0
   37.9040   31.1530   41.3000 N   0  0  0  0  0  0  0  0  0  0  0  0
   37.4640   30.1130   40.5880 C   0  0  0  0  0  0  0  0  0  0  0  0
   36.8900   29.2580   40.9210 H   0  0  0  0  0  0  0  0  0  0  0  0
   37.8730   30.3200   39.3330 N   0  0  0  0  0  0  0  0  0  0  0  0
   37.7520   29.7670   38.4640 H   0  0  0  0  0  0  0  0  0  0  0  0
   38.5400   31.4470   39.2920 N   0  0  0  0  0  0  0  0  0  0  0  0
  1  6  1  0  0  0  0
  1 20  1  0  0  0  0
  2  1  1  0  0  0  0
  3  1  1  0  0  0  0
  4 12  1  0  0  0  0
  5  4  1  0  0  0  0
  5 10  1  0  0  0  0
  6  5  2  0  0  0  0
  7  8  2  0  0  0  0
  7  6  1  0  0  0  0
  8  9  1  0  0  0  0
  9  4  2  0  0  0  0
 11  8  1  0  0  0  0
 12 14  1  0  0  0  0
 12 15  1  0  0  0  0
 13 12  1  0  0  0  0
 13 14  1  0  0  0  0
 13 17  1  0  0  0  0
 14 19  1  0  0  0  0
 16 13  1  0  0  0  0
 18 14  1  0  0  0  0
 20 21  1  0  0  0  0
 22 20  1  0  0  0  0
 23 24  2  0  0  0  0
 25 20  1  0  0  0  0
 25 23  1  0  0  0  0
 26 25  1  0  0  0  0
 27 23  1  0  0  0  0
 27 28  1  0  0  0  0
 29 30  1  0  0  0  0
 29 28  2  0  0  0  0
 31 29  1  0  0  0  0
 32 31  1  0  0  0  0
 33 31  1  0  0  0  0
 33 27  2  0  0  0  0
M  END
>  <minimizedAffinity>
-4.76891947

>  <minimizedRMSD>
0.468490213

$$$$
