
 OpenBabel03242516533D

 43 45  0  0  1  0  0  0  0  0999 V2000
   47.7840   32.7710   41.7080 C   0  0  1  0  0  0  0  0  0  0  0  0
   47.4250   32.1210   40.4490 C   0  0  0  0  0  0  0  0  0  0  0  0
   48.4320   32.6120   39.4120 C   0  0  0  0  0  0  0  0  0  0  0  0
   48.1130   34.0810   39.1620 C   0  0  0  0  0  0  0  0  0  0  0  0
   48.0830   34.9210   40.4010 C   0  0  0  0  0  0  0  0  0  0  0  0
   47.6100   34.2920   41.6410 C   0  0  1  0  0  0  0  0  0  0  0  0
   48.9030   32.6660   41.8620 H   0  0  0  0  0  0  0  0  0  0  0  0
   46.4340   32.4430   40.0400 H   0  0  0  0  0  0  0  0  0  0  0  0
   47.5290   31.0400   40.5140 H   0  0  0  0  0  0  0  0  0  0  0  0
   48.1570   32.0800   38.4670 H   0  0  0  0  0  0  0  0  0  0  0  0
   49.4600   32.4440   39.7290 H   0  0  0  0  0  0  0  0  0  0  0  0
   48.8360   34.4730   38.4350 H   0  0  0  0  0  0  0  0  0  0  0  0
   47.1110   34.0900   38.6720 H   0  0  0  0  0  0  0  0  0  0  0  0
   49.1060   35.3850   40.5120 H   0  0  0  0  0  0  0  0  0  0  0  0
   47.4230   35.7870   40.1700 H   0  0  0  0  0  0  0  0  0  0  0  0
   48.2460   34.6840   42.4910 H   0  0  0  0  0  0  0  0  0  0  0  0
   45.3790   30.9050   43.9480 C   0  0  0  0  0  0  0  0  0  0  0  0
   46.0430   31.4310   42.8350 C   0  0  0  0  0  0  0  0  0  0  0  0
   47.1620   32.2660   42.9130 C   0  0  0  0  0  0  0  0  0  0  0  0
   47.5830   32.5490   44.1470 N   0  0  0  0  0  0  0  0  0  0  0  0
   46.9510   32.0490   45.2410 C   0  0  0  0  0  0  0  0  0  0  0  0
   45.8870   31.2540   45.1680 N   0  0  0  0  0  0  0  0  0  0  0  0
   44.5270   30.2710   43.8120 H   0  0  0  0  0  0  0  0  0  0  0  0
   45.6370   31.1510   41.8710 H   0  0  0  0  0  0  0  0  0  0  0  0
   47.3950   32.3560   46.1910 H   0  0  0  0  0  0  0  0  0  0  0  0
   46.2460   34.6940   41.9860 C   0  0  0  0  0  0  0  0  0  0  0  0
   45.8410   35.3000   43.1850 C   0  0  0  0  0  0  0  0  0  0  0  0
   44.4820   35.6110   43.2810 C   0  0  0  0  0  0  0  0  0  0  0  0
   43.6670   35.3020   42.2140 C   0  0  0  0  0  0  0  0  0  0  0  0
   44.0850   34.7070   41.0450 C   0  0  0  0  0  0  0  0  0  0  0  0
   45.4110   34.4050   40.9540 N   0  0  0  0  0  0  0  0  0  0  0  0
   46.5890   35.4710   43.9090 H   0  0  0  0  0  0  0  0  0  0  0  0
   44.1520   36.0770   44.1940 H   0  0  0  0  0  0  0  0  0  0  0  0
   42.6210   35.5750   42.3640 H   0  0  0  0  0  0  0  0  0  0  0  0
   43.1430   34.4200   39.9540 C   0  0  0  0  0  0  0  0  0  0  0  0
   42.6600   35.3950   39.3190 O   0  0  0  0  0  0  0  0  0  0  0  0
   42.7800   33.0840   39.6180 N   0  0  0  0  0  0  0  0  0  0  0  0
   41.9460   32.7230   40.1320 H   0  0  0  0  0  0  0  0  0  0  0  0
   43.8020   32.3570   38.4320 S   0  0  0  0  0  0  0  0  0  0  0  0
   44.8340   33.3170   37.9220 O   0  0  0  0  0  1  0  0  0  0  0  0
   44.4380   31.0840   38.9200 O   0  0  0  0  0  1  0  0  0  0  0  0
   42.7890   31.9060   37.1430 O   0  0  0  0  0  0  0  0  0  0  0  0
   42.4170   30.9990   37.2940 H   0  0  0  0  0  0  0  0  0  0  0  0
  1  7  1  1  0  0  0
  1 19  1  0  0  0  0
  2  9  1  0  0  0  0
  2  1  1  0  0  0  0
  3 11  1  0  0  0  0
  3  2  1  0  0  0  0
  4  3  1  0  0  0  0
  4  5  1  0  0  0  0
  5 14  1  0  0  0  0
  5  6  1  0  0  0  0
  6  1  1  0  0  0  0
  6 26  1  0  0  0  0
  6 16  1  1  0  0  0
  8  2  1  0  0  0  0
 10  3  1  0  0  0  0
 12  4  1  0  0  0  0
 13  4  1  0  0  0  0
 15  5  1  0  0  0  0
 17 22  1  0  0  0  0
 18 19  1  0  0  0  0
 18 17  2  0  0  0  0
 19 20  2  0  0  0  0
 20 21  1  0  0  0  0
 21 25  1  0  0  0  0
 22 21  2  0  0  0  0
 23 17  1  0  0  0  0
 24 18  1  0  0  0  0
 26 27  1  0  0  0  0
 27 28  2  0  0  0  0
 27 32  1  0  0  0  0
 28 33  1  0  0  0  0
 29 34  1  0  0  0  0
 29 28  1  0  0  0  0
 30 29  2  0  0  0  0
 31 30  1  0  0  0  0
 31 26  2  0  0  0  0
 35 30  1  0  0  0  0
 36 35  2  0  0  0  0
 37 35  1  0  0  0  0
 37 38  1  0  0  0  0
 39 41  1  0  0  0  0
 39 37  1  0  0  0  0
 40 39  1  0  0  0  0
 42 43  1  0  0  0  0
 42 39  1  0  0  0  0
M  END
>  <minimizedAffinity>
-5.25107908

>  <minimizedRMSD>
0.773533881

$$$$
