
 OpenBabel03252508003D

 27 28  0  0  1  0  0  0  0  0999 V2000
   46.2080   34.8160   43.2100 C   0  0  0  0  0  0  0  0  0  0  0  0
   45.2770   35.8560   43.5090 C   0  0  0  0  0  0  0  0  0  0  0  0
   44.6070   35.7350   44.7260 C   0  0  0  0  0  0  0  0  0  0  0  0
   44.8730   34.6710   45.5250 N   0  0  0  0  0  0  0  0  0  0  0  0
   45.7870   33.7120   45.1590 C   0  0  0  0  0  0  0  0  0  0  0  0
   46.4590   33.7610   44.0250 N   0  0  0  0  0  0  0  0  0  0  0  0
   45.1370   36.6600   42.8060 H   0  0  0  0  0  0  0  0  0  0  0  0
   43.8920   36.4980   44.9940 H   0  0  0  0  0  0  0  0  0  0  0  0
   46.0340   32.5700   46.0900 C   0  0  1  0  0  0  0  0  0  0  0  0
   46.8310   32.8150   47.3480 C   0  0  0  0  0  0  0  0  0  0  0  0
   45.3330   32.6770   47.3890 C   0  0  1  0  0  0  0  0  0  0  0  0
   46.2060   31.6250   45.5610 H   0  0  0  0  0  0  0  0  0  0  0  0
   47.4650   31.9860   47.6690 H   0  0  0  0  0  0  0  0  0  0  0  0
   47.3240   33.7950   47.3830 H   0  0  0  0  0  0  0  0  0  0  0  0
   44.9550   31.7340   47.8010 H   0  0  0  0  0  0  0  0  0  0  0  0
   44.6890   33.9420   47.7550 N   0  0  0  0  0  0  0  0  0  0  0  0
   43.6590   33.8130   47.7090 H   0  0  0  0  0  0  0  0  0  0  0  0
   44.9900   34.2480   48.7180 H   0  0  0  0  0  0  0  0  0  0  0  0
   46.9050   34.9520   41.9430 C   0  0  0  0  0  0  0  0  0  0  0  0
   48.0990   35.4050   41.8380 O   0  0  0  0  0  0  0  0  0  0  0  0
   46.1900   34.5510   40.7610 N   0  0  0  0  0  0  0  0  0  0  0  0
   46.3880   35.0240   39.8340 H   0  0  0  0  0  0  0  0  0  0  0  0
   44.9990   33.2920   40.8390 S   0  0  0  0  0  0  0  0  0  0  0  0
   43.8240   33.8020   41.6270 O   0  0  0  0  0  1  0  0  0  0  0  0
   45.6320   32.0900   41.5070 O   0  0  0  0  0  1  0  0  0  0  0  0
   44.4970   32.8820   39.2960 O   0  0  0  0  0  0  0  0  0  0  0  0
   43.7750   33.4990   38.9800 H   0  0  0  0  0  0  0  0  0  0  0  0
  1  2  2  0  0  0  0
  1  6  1  0  0  0  0
  2  3  1  0  0  0  0
  3  8  1  0  0  0  0
  3  4  2  0  0  0  0
  5  4  1  0  0  0  0
  5  9  1  0  0  0  0
  6  5  2  0  0  0  0
  7  2  1  0  0  0  0
  9 12  1  6  0  0  0
  9 10  1  0  0  0  0
  9 11  1  0  0  0  0
 10 14  1  0  0  0  0
 10 11  1  0  0  0  0
 10 13  1  0  0  0  0
 11 16  1  0  0  0  0
 11 15  1  1  0  0  0
 16 18  1  0  0  0  0
 17 16  1  0  0  0  0
 19  1  1  0  0  0  0
 20 19  2  0  0  0  0
 21 23  1  0  0  0  0
 21 19  1  0  0  0  0
 22 21  1  0  0  0  0
 23 25  1  0  0  0  0
 23 24  1  0  0  0  0
 26 23  1  0  0  0  0
 27 26  1  0  0  0  0
M  END
>  <minimizedAffinity>
-5.20285225

>  <minimizedRMSD>
0.282714009

$$$$
