
 OpenBabel03242516533D

 43 45  0  0  1  0  0  0  0  0999 V2000
   47.7920   32.8000   41.6700 C   0  0  1  0  0  0  0  0  0  0  0  0
   47.3780   32.1100   40.4490 C   0  0  0  0  0  0  0  0  0  0  0  0
   48.3650   32.5340   39.3640 C   0  0  0  0  0  0  0  0  0  0  0  0
   48.0750   33.9990   39.0640 C   0  0  0  0  0  0  0  0  0  0  0  0
   48.1040   34.8880   40.2700 C   0  0  0  0  0  0  0  0  0  0  0  0
   47.6530   34.3200   41.5470 C   0  0  1  0  0  0  0  0  0  0  0  0
   48.9120   32.6720   41.7950 H   0  0  0  0  0  0  0  0  0  0  0  0
   46.3830   32.4410   40.0570 H   0  0  0  0  0  0  0  0  0  0  0  0
   47.4580   31.0300   40.5540 H   0  0  0  0  0  0  0  0  0  0  0  0
   48.0490   31.9720   38.4490 H   0  0  0  0  0  0  0  0  0  0  0  0
   49.3980   32.3520   39.6570 H   0  0  0  0  0  0  0  0  0  0  0  0
   48.7850   34.3430   38.3010 H   0  0  0  0  0  0  0  0  0  0  0  0
   47.0590   34.0150   38.6040 H   0  0  0  0  0  0  0  0  0  0  0  0
   49.1410   35.3300   40.3310 H   0  0  0  0  0  0  0  0  0  0  0  0
   47.4580   35.7610   40.0240 H   0  0  0  0  0  0  0  0  0  0  0  0
   48.3240   34.7290   42.3610 H   0  0  0  0  0  0  0  0  0  0  0  0
   45.4750   31.0020   44.0530 C   0  0  0  0  0  0  0  0  0  0  0  0
   46.1130   31.4720   42.9010 C   0  0  0  0  0  0  0  0  0  0  0  0
   47.1950   32.3580   42.9120 C   0  0  0  0  0  0  0  0  0  0  0  0
   47.6040   32.7490   44.1190 N   0  0  0  0  0  0  0  0  0  0  0  0
   46.9980   32.3050   45.2500 C   0  0  0  0  0  0  0  0  0  0  0  0
   45.9690   31.4620   45.2410 N   0  0  0  0  0  0  0  0  0  0  0  0
   44.6510   30.3230   43.9690 H   0  0  0  0  0  0  0  0  0  0  0  0
   45.7180   31.1040   41.9630 H   0  0  0  0  0  0  0  0  0  0  0  0
   47.4290   32.7010   46.1730 H   0  0  0  0  0  0  0  0  0  0  0  0
   46.3100   34.7710   41.9160 C   0  0  0  0  0  0  0  0  0  0  0  0
   45.9740   35.5230   43.0510 C   0  0  0  0  0  0  0  0  0  0  0  0
   44.6220   35.8520   43.1840 C   0  0  0  0  0  0  0  0  0  0  0  0
   43.7480   35.4180   42.2110 C   0  0  0  0  0  0  0  0  0  0  0  0
   44.1000   34.6800   41.1030 C   0  0  0  0  0  0  0  0  0  0  0  0
   45.4190   34.3610   40.9760 N   0  0  0  0  0  0  0  0  0  0  0  0
   46.7610   35.7780   43.7050 H   0  0  0  0  0  0  0  0  0  0  0  0
   44.3440   36.4290   44.0500 H   0  0  0  0  0  0  0  0  0  0  0  0
   42.7120   35.7140   42.3850 H   0  0  0  0  0  0  0  0  0  0  0  0
   43.0980   34.2670   40.1110 C   0  0  0  0  0  0  0  0  0  0  0  0
   42.7340   35.1120   39.2510 O   0  0  0  0  0  0  0  0  0  0  0  0
   42.5470   32.9530   40.1150 N   0  0  0  0  0  0  0  0  0  0  0  0
   42.2690   32.6050   41.0590 H   0  0  0  0  0  0  0  0  0  0  0  0
   42.4620   32.2230   38.5520 S   0  0  0  0  0  0  0  0  0  0  0  0
   41.2160   32.6240   37.8190 O   0  0  0  0  0  1  0  0  0  0  0  0
   43.6890   32.4880   37.7230 O   0  0  0  0  0  1  0  0  0  0  0  0
   42.4290   30.5430   38.8120 O   0  0  0  0  0  0  0  0  0  0  0  0
   43.3500   30.1820   38.8660 H   0  0  0  0  0  0  0  0  0  0  0  0
  1  7  1  1  0  0  0
  1 19  1  0  0  0  0
  2  9  1  0  0  0  0
  2  1  1  0  0  0  0
  3 11  1  0  0  0  0
  3  2  1  0  0  0  0
  4  3  1  0  0  0  0
  4  5  1  0  0  0  0
  5 14  1  0  0  0  0
  5  6  1  0  0  0  0
  6  1  1  0  0  0  0
  6 26  1  0  0  0  0
  6 16  1  1  0  0  0
  8  2  1  0  0  0  0
 10  3  1  0  0  0  0
 12  4  1  0  0  0  0
 13  4  1  0  0  0  0
 15  5  1  0  0  0  0
 17 22  1  0  0  0  0
 18 19  1  0  0  0  0
 18 17  2  0  0  0  0
 19 20  2  0  0  0  0
 20 21  1  0  0  0  0
 21 25  1  0  0  0  0
 22 21  2  0  0  0  0
 23 17  1  0  0  0  0
 24 18  1  0  0  0  0
 26 27  1  0  0  0  0
 27 28  2  0  0  0  0
 27 32  1  0  0  0  0
 28 33  1  0  0  0  0
 29 34  1  0  0  0  0
 29 28  1  0  0  0  0
 30 29  2  0  0  0  0
 31 30  1  0  0  0  0
 31 26  2  0  0  0  0
 35 37  1  0  0  0  0
 35 30  1  0  0  0  0
 36 35  2  0  0  0  0
 37 38  1  0  0  0  0
 39 42  1  0  0  0  0
 39 37  1  0  0  0  0
 40 39  1  0  0  0  0
 41 39  1  0  0  0  0
 42 43  1  0  0  0  0
M  END
>  <minimizedAffinity>
-5.15320301

>  <minimizedRMSD>
0.761424065

$$$$
