
 OpenBabel03252508003D

 27 28  0  0  1  0  0  0  0  0999 V2000
   46.2270   34.8040   43.2410 C   0  0  0  0  0  0  0  0  0  0  0  0
   45.2990   35.8270   43.6010 C   0  0  0  0  0  0  0  0  0  0  0  0
   44.6490   35.6480   44.8220 C   0  0  0  0  0  0  0  0  0  0  0  0
   44.9280   34.5500   45.5660 N   0  0  0  0  0  0  0  0  0  0  0  0
   45.8370   33.6100   45.1430 C   0  0  0  0  0  0  0  0  0  0  0  0
   46.4910   33.7120   44.0030 N   0  0  0  0  0  0  0  0  0  0  0  0
   45.1480   36.6620   42.9380 H   0  0  0  0  0  0  0  0  0  0  0  0
   43.9370   36.3980   45.1360 H   0  0  0  0  0  0  0  0  0  0  0  0
   46.0990   32.4270   46.0170 C   0  0  1  0  0  0  0  0  0  0  0  0
   46.9560   32.6060   47.2470 C   0  0  0  0  0  0  0  0  0  0  0  0
   45.4580   32.4960   47.3490 C   0  0  1  0  0  0  0  0  0  0  0  0
   46.2280   31.5010   45.4440 H   0  0  0  0  0  0  0  0  0  0  0  0
   47.5850   31.7520   47.5070 H   0  0  0  0  0  0  0  0  0  0  0  0
   47.4700   33.5740   47.2990 H   0  0  0  0  0  0  0  0  0  0  0  0
   45.0780   31.5440   47.7400 H   0  0  0  0  0  0  0  0  0  0  0  0
   44.8580   33.7570   47.7930 N   0  0  0  0  0  0  0  0  0  0  0  0
   43.8240   33.6510   47.7870 H   0  0  0  0  0  0  0  0  0  0  0  0
   45.2070   34.0190   48.7520 H   0  0  0  0  0  0  0  0  0  0  0  0
   46.9050   34.9990   41.9700 C   0  0  0  0  0  0  0  0  0  0  0  0
   48.0310   35.5980   41.8560 O   0  0  0  0  0  0  0  0  0  0  0  0
   46.2500   34.4820   40.7980 N   0  0  0  0  0  0  0  0  0  0  0  0
   46.7890   34.3800   39.8920 H   0  0  0  0  0  0  0  0  0  0  0  0
   44.5790   34.0220   40.8550 S   0  0  0  0  0  0  0  0  0  0  0  0
   43.7640   35.2430   41.1850 O   0  0  0  0  0  1  0  0  0  0  0  0
   44.4230   32.9530   41.9140 O   0  0  0  0  0  1  0  0  0  0  0  0
   44.1000   33.4180   39.3680 O   0  0  0  0  0  0  0  0  0  0  0  0
   43.8400   34.1620   38.7500 H   0  0  0  0  0  0  0  0  0  0  0  0
  1  2  2  0  0  0  0
  1  6  1  0  0  0  0
  2  3  1  0  0  0  0
  3  8  1  0  0  0  0
  3  4  2  0  0  0  0
  5  4  1  0  0  0  0
  5  9  1  0  0  0  0
  6  5  2  0  0  0  0
  7  2  1  0  0  0  0
  9 12  1  6  0  0  0
  9 10  1  0  0  0  0
  9 11  1  0  0  0  0
 10 14  1  0  0  0  0
 10 11  1  0  0  0  0
 10 13  1  0  0  0  0
 11 15  1  1  0  0  0
 11 16  1  0  0  0  0
 16 18  1  0  0  0  0
 17 16  1  0  0  0  0
 19  1  1  0  0  0  0
 20 19  2  0  0  0  0
 21 23  1  0  0  0  0
 21 19  1  0  0  0  0
 22 21  1  0  0  0  0
 23 24  1  0  0  0  0
 23 25  1  0  0  0  0
 26 23  1  0  0  0  0
 27 26  1  0  0  0  0
M  END
>  <minimizedAffinity>
-5.37642288

>  <minimizedRMSD>
0.0851168185

$$$$
