
 OpenBabel03242516533D

 43 45  0  0  1  0  0  0  0  0999 V2000
   47.8530   32.9010   41.8070 C   0  0  1  0  0  0  0  0  0  0  0  0
   47.5290   32.1650   40.5870 C   0  0  0  0  0  0  0  0  0  0  0  0
   48.5480   32.6040   39.5390 C   0  0  0  0  0  0  0  0  0  0  0  0
   48.2110   34.0480   39.1870 C   0  0  0  0  0  0  0  0  0  0  0  0
   48.1430   34.9670   40.3690 C   0  0  0  0  0  0  0  0  0  0  0  0
   47.6560   34.4110   41.6380 C   0  0  1  0  0  0  0  0  0  0  0  0
   48.9700   32.8250   41.9880 H   0  0  0  0  0  0  0  0  0  0  0  0
   46.5410   32.4420   40.1400 H   0  0  0  0  0  0  0  0  0  0  0  0
   47.6490   31.0920   40.7240 H   0  0  0  0  0  0  0  0  0  0  0  0
   48.3010   32.0080   38.6250 H   0  0  0  0  0  0  0  0  0  0  0  0
   49.5720   32.4750   39.8850 H   0  0  0  0  0  0  0  0  0  0  0  0
   48.9410   34.4040   38.4500 H   0  0  0  0  0  0  0  0  0  0  0  0
   47.2180   34.0080   38.6790 H   0  0  0  0  0  0  0  0  0  0  0  0
   49.1560   35.4540   40.4670 H   0  0  0  0  0  0  0  0  0  0  0  0
   47.4740   35.8040   40.0700 H   0  0  0  0  0  0  0  0  0  0  0  0
   48.2690   34.8690   42.4720 H   0  0  0  0  0  0  0  0  0  0  0  0
   45.5000   31.0650   44.1250 C   0  0  0  0  0  0  0  0  0  0  0  0
   46.1730   31.5340   42.9920 C   0  0  0  0  0  0  0  0  0  0  0  0
   47.2160   32.4650   43.0310 C   0  0  0  0  0  0  0  0  0  0  0  0
   47.5510   32.9010   44.2460 N   0  0  0  0  0  0  0  0  0  0  0  0
   46.9100   32.4580   45.3580 C   0  0  0  0  0  0  0  0  0  0  0  0
   45.9180   31.5730   45.3230 N   0  0  0  0  0  0  0  0  0  0  0  0
   44.7090   30.3500   44.0190 H   0  0  0  0  0  0  0  0  0  0  0  0
   45.8380   31.1280   42.0460 H   0  0  0  0  0  0  0  0  0  0  0  0
   47.2800   32.8930   46.2900 H   0  0  0  0  0  0  0  0  0  0  0  0
   46.2790   34.8120   41.9310 C   0  0  0  0  0  0  0  0  0  0  0  0
   45.8520   35.5480   43.0450 C   0  0  0  0  0  0  0  0  0  0  0  0
   44.4830   35.8270   43.1030 C   0  0  0  0  0  0  0  0  0  0  0  0
   43.6820   35.3640   42.0820 C   0  0  0  0  0  0  0  0  0  0  0  0
   44.1220   34.6420   40.9950 C   0  0  0  0  0  0  0  0  0  0  0  0
   45.4570   34.3710   40.9420 N   0  0  0  0  0  0  0  0  0  0  0  0
   46.5910   35.8300   43.7430 H   0  0  0  0  0  0  0  0  0  0  0  0
   44.1360   36.3920   43.9510 H   0  0  0  0  0  0  0  0  0  0  0  0
   42.6280   35.6220   42.1970 H   0  0  0  0  0  0  0  0  0  0  0  0
   43.1940   34.1950   39.9480 C   0  0  0  0  0  0  0  0  0  0  0  0
   42.6960   35.0660   39.1870 O   0  0  0  0  0  0  0  0  0  0  0  0
   42.8580   32.8190   39.7910 N   0  0  0  0  0  0  0  0  0  0  0  0
   43.3140   32.3560   38.9740 H   0  0  0  0  0  0  0  0  0  0  0  0
   41.7690   32.2210   40.9900 S   0  0  0  0  0  0  0  0  0  0  0  0
   42.4990   31.6400   42.1630 O   0  0  0  0  0  1  0  0  0  0  0  0
   40.7680   33.2530   41.4280 O   0  0  0  0  0  1  0  0  0  0  0  0
   40.8690   30.9880   40.2410 O   0  0  0  0  0  0  0  0  0  0  0  0
   40.0710   31.3660   39.7890 H   0  0  0  0  0  0  0  0  0  0  0  0
  1  7  1  1  0  0  0
  1 19  1  0  0  0  0
  2  9  1  0  0  0  0
  2  1  1  0  0  0  0
  3 11  1  0  0  0  0
  3  2  1  0  0  0  0
  4  3  1  0  0  0  0
  4  5  1  0  0  0  0
  5 14  1  0  0  0  0
  5  6  1  0  0  0  0
  6  1  1  0  0  0  0
  6 26  1  0  0  0  0
  6 16  1  1  0  0  0
  8  2  1  0  0  0  0
 10  3  1  0  0  0  0
 12  4  1  0  0  0  0
 13  4  1  0  0  0  0
 15  5  1  0  0  0  0
 17 22  1  0  0  0  0
 18 19  1  0  0  0  0
 18 17  2  0  0  0  0
 19 20  2  0  0  0  0
 20 21  1  0  0  0  0
 21 25  1  0  0  0  0
 22 21  2  0  0  0  0
 23 17  1  0  0  0  0
 24 18  1  0  0  0  0
 26 27  1  0  0  0  0
 27 28  2  0  0  0  0
 27 32  1  0  0  0  0
 28 33  1  0  0  0  0
 29 34  1  0  0  0  0
 29 28  1  0  0  0  0
 30 29  2  0  0  0  0
 31 30  1  0  0  0  0
 31 26  2  0  0  0  0
 35 30  1  0  0  0  0
 36 35  2  0  0  0  0
 37 35  1  0  0  0  0
 37 39  1  0  0  0  0
 38 37  1  0  0  0  0
 39 41  1  0  0  0  0
 39 40  1  0  0  0  0
 42 39  1  0  0  0  0
 43 42  1  0  0  0  0
M  END
>  <minimizedAffinity>
-5.38340473

>  <minimizedRMSD>
0.726127565

$$$$
