
 OpenBabel03252507373D

 36 39  0  0  0  0  0  0  0  0999 V2000
   45.7100   34.5810   43.6410 C   0  0  0  0  0  0  0  0  0  0  0  0
   46.4480   33.5530   44.2740 C   0  0  0  0  0  0  0  0  0  0  0  0
   46.2270   33.3500   45.6240 C   0  0  0  0  0  0  0  0  0  0  0  0
   45.3340   34.1280   46.2690 N   0  0  0  0  0  0  0  0  0  0  0  0
   44.6340   35.1120   45.6390 C   0  0  0  0  0  0  0  0  0  0  0  0
   44.8280   35.3260   44.3460 N   0  0  0  0  0  0  0  0  0  0  0  0
   47.1540   32.9320   43.7860 H   0  0  0  0  0  0  0  0  0  0  0  0
   43.9350   35.6840   46.2540 H   0  0  0  0  0  0  0  0  0  0  0  0
   47.1950   32.6390   47.7450 C   0  0  0  0  0  0  0  0  0  0  0  0
   46.9030   32.3350   46.4200 C   0  0  0  0  0  0  0  0  0  0  0  0
   47.2640   31.0990   45.9400 C   0  0  0  0  0  0  0  0  0  0  0  0
   47.9010   30.1590   46.7210 C   0  0  0  0  0  0  0  0  0  0  0  0
   48.3400   28.9030   46.4650 N   0  0  0  0  0  0  0  0  0  0  0  0
   48.9040   28.4220   47.6240 C   0  0  0  0  0  0  0  0  0  0  0  0
   48.8040   29.3750   48.5560 N   0  0  0  0  0  0  0  0  0  0  0  0
   48.1920   30.4520   48.0290 C   0  0  0  0  0  0  0  0  0  0  0  0
   47.8400   31.6830   48.5350 C   0  0  0  0  0  0  0  0  0  0  0  0
   46.9710   33.5540   48.2400 H   0  0  0  0  0  0  0  0  0  0  0  0
   47.0380   30.8640   44.9130 H   0  0  0  0  0  0  0  0  0  0  0  0
   48.2340   28.4440   45.5250 H   0  0  0  0  0  0  0  0  0  0  0  0
   49.3130   27.4150   47.5990 H   0  0  0  0  0  0  0  0  0  0  0  0
   48.0830   31.8830   49.5690 H   0  0  0  0  0  0  0  0  0  0  0  0
   45.9280   34.7900   42.2800 O   0  0  0  0  0  0  0  0  0  0  0  0
   44.9880   34.3780   41.3500 C   0  0  0  0  0  0  0  0  0  0  0  0
   45.7800   33.8260   40.4030 C   0  0  0  0  0  0  0  0  0  0  0  0
   44.4870   33.2520   39.1150 S   0  0  0  0  0  0  0  0  0  0  0  0
   43.1190   33.9320   40.2240 C   0  0  0  0  0  0  0  0  0  0  0  0
   43.7070   34.3280   41.0690 N   0  0  0  0  0  0  0  0  0  0  0  0
   46.8070   33.5250   39.9750 H   0  0  0  0  0  0  0  0  0  0  0  0
   41.7750   33.7810   39.7390 N   0  0  0  0  0  0  0  0  0  0  0  0
   41.1680   32.9580   39.9370 H   0  0  0  0  0  0  0  0  0  0  0  0
   41.1690   35.0480   38.7830 S   0  0  0  0  0  0  0  0  0  0  0  0
   42.2320   35.7370   37.9790 O   0  0  0  0  0  1  0  0  0  0  0  0
   40.1260   34.5160   37.8090 O   0  0  0  0  0  1  0  0  0  0  0  0
   40.3860   36.2250   39.6890 O   0  0  0  0  0  0  0  0  0  0  0  0
   40.0360   35.8670   40.5430 H   0  0  0  0  0  0  0  0  0  0  0  0
  1  2  2  0  0  0  0
  1  6  1  0  0  0  0
  2  3  1  0  0  0  0
  3  4  2  0  0  0  0
  3 10  1  0  0  0  0
  5  8  1  0  0  0  0
  5  4  1  0  0  0  0
  6  5  2  0  0  0  0
  7  2  1  0  0  0  0
  9 18  1  0  0  0  0
  9 17  1  0  0  0  0
 10  9  2  0  0  0  0
 11 10  1  0  0  0  0
 11 12  2  0  0  0  0
 12 16  1  0  0  0  0
 13 12  1  0  0  0  0
 13 14  1  0  0  0  0
 14 15  2  0  0  0  0
 16 17  2  0  0  0  0
 16 15  1  0  0  0  0
 17 22  1  0  0  0  0
 19 11  1  0  0  0  0
 20 13  1  0  0  0  0
 21 14  1  0  0  0  0
 23  1  1  0  0  0  0
 24 23  1  0  0  0  0
 25 24  2  0  0  0  0
 26 27  1  0  0  0  0
 26 25  1  0  0  0  0
 27 28  2  0  0  0  0
 28 24  1  0  0  0  0
 29 25  1  0  0  0  0
 30 31  1  0  0  0  0
 30 27  1  0  0  0  0
 32 35  1  0  0  0  0
 32 30  1  0  0  0  0
 33 32  1  0  0  0  0
 34 32  1  0  0  0  0
 35 36  1  0  0  0  0
M  END
>  <minimizedAffinity>
-6.01013374

>  <minimizedRMSD>
0.938442111

$$$$
