REMARK  Name = 
REMARK  7 active torsions:
REMARK  status: ('A' for Active; 'I' for Inactive)
REMARK    1  A    between atoms: C_1  and  C_2
REMARK    2  A    between atoms: C_1  and  S_11
REMARK    3  A    between atoms: C_2  and  C_5
REMARK    4  A    between atoms: S_11  and  C_12
REMARK    5  A    between atoms: C_16  and  C_18
REMARK    6  A    between atoms: N_29  and  S_31
REMARK    7  A    between atoms: S_31  and  O_34
REMARK                            x       y       z     vdW  Elec       q    Type
REMARK                         _______ _______ _______ _____ _____    ______ ____
ROOT
ATOM      1  S   UNL     1      43.520  35.078  40.782  0.00  0.00    +0.000 S 
ENDROOT
BRANCH   1   2
ATOM      2  C   UNL     1      44.813  34.721  41.980  0.00  0.00    +0.000 A 
ATOM      3  C   UNL     1      46.106  34.563  41.486  0.00  0.00    +0.000 A 
ATOM      4  C   UNL     1      47.131  34.287  42.380  0.00  0.00    +0.000 A 
ATOM      5  N   UNL     1      46.825  34.182  43.705  0.00  0.00    +0.000 NA
ATOM      6  C   UNL     1      45.577  34.338  44.156  0.00  0.00    +0.000 A 
ATOM      7  N   UNL     1      44.572  34.606  43.304  0.00  0.00    +0.000 NA
ATOM      8  H   UNL     1      46.394  34.637  40.444  0.00  0.00    +0.000 HD
ATOM      9  H   UNL     1      48.148  34.157  42.036  0.00  0.00    +0.000 HD
BRANCH   6  10
ATOM     10  C   UNL     1      45.332  34.210  45.594  0.00  0.00    +0.000 C 
ATOM     11  O   UNL     1      44.539  35.049  46.125  0.00  0.00    +0.000 OA
ATOM     12  N   UNL     1      45.994  33.164  46.290  0.00  0.00    +0.000 N 
ATOM     13  H   UNL     1      45.442  32.318  46.577  0.00  0.00    +0.000 HD
BRANCH  12  14
ATOM     14  S   UNL     1      47.665  33.347  46.624  0.00  0.00    +0.000 S 
ATOM     15  O   UNL     1      47.991  34.556  47.432  0.00  0.00    +0.000 OA
ATOM     16  O   UNL     1      48.485  33.419  45.353  0.00  0.00    +0.000 OA
BRANCH  14  17
ATOM     17  O   UNL     1      48.171  31.955  47.455  0.00  0.00    +0.000 OA
ATOM     18  H   UNL     1      47.377  31.532  47.902  0.00  0.00    +0.000 HD
ENDBRANCH  14  17
ENDBRANCH  12  14
ENDBRANCH   6  10
ENDBRANCH   1   2
BRANCH   1  19
ATOM     19  C   UNL     1      41.902  35.249  41.536  0.00  0.00    +0.000 C 
ATOM     20  H   UNL     1      42.031  35.759  42.523  0.00  0.00    +0.000 HD
ATOM     21  H   UNL     1      41.419  34.282  41.789  0.00  0.00    +0.000 HD
BRANCH  19  22
ATOM     22  C   UNL     1      40.973  36.106  40.737  0.00  0.00    +0.000 C 
ATOM     23  H   UNL     1      41.608  36.806  40.120  0.00  0.00    +0.000 HD
ATOM     24  H   UNL     1      40.326  36.770  41.349  0.00  0.00    +0.000 HD
BRANCH  22  27
ATOM     25 CL   UNL     1      41.778  36.274  37.800  0.00  0.00    +0.000 Cl
ATOM     26  C   UNL     1      40.467  35.300  38.407  0.00  0.00    +0.000 A 
ATOM     27  C   UNL     1      40.178  35.292  39.777  0.00  0.00    +0.000 A 
ATOM     28  C   UNL     1      39.127  34.496  40.172  0.00  0.00    +0.000 A 
ATOM     29  C   UNL     1      38.331  33.706  39.355  0.00  0.00    +0.000 A 
ATOM     30  C   UNL     1      38.644  33.736  37.997  0.00  0.00    +0.000 A 
ATOM     31 CL   UNL     1      37.697  32.770  36.872  0.00  0.00    +0.000 Cl
ATOM     32  C   UNL     1      39.684  34.514  37.551  0.00  0.00    +0.000 A 
ATOM     33  H   UNL     1      38.937  34.518  41.241  0.00  0.00    +0.000 HD
ATOM     34  H   UNL     1      37.529  33.114  39.755  0.00  0.00    +0.000 HD
ATOM     35  H   UNL     1      39.881  34.497  36.486  0.00  0.00    +0.000 HD
ENDBRANCH  22  27
ENDBRANCH  19  22
ENDBRANCH   1  19
TORSDOF 7
