
 OpenBabel03252507373D

 36 39  0  0  0  0  0  0  0  0999 V2000
   45.4660   34.6990   43.6400 C   0  0  0  0  0  0  0  0  0  0  0  0
   46.2170   33.6360   44.1950 C   0  0  0  0  0  0  0  0  0  0  0  0
   46.0970   33.4140   45.5550 C   0  0  0  0  0  0  0  0  0  0  0  0
   45.2830   34.2080   46.2820 N   0  0  0  0  0  0  0  0  0  0  0  0
   44.5690   35.2250   45.7260 C   0  0  0  0  0  0  0  0  0  0  0  0
   44.6670   35.4580   44.4250 N   0  0  0  0  0  0  0  0  0  0  0  0
   46.8620   33.0030   43.6420 H   0  0  0  0  0  0  0  0  0  0  0  0
   43.9390   35.8060   46.4030 H   0  0  0  0  0  0  0  0  0  0  0  0
   47.1290   32.6010   47.6070 C   0  0  0  0  0  0  0  0  0  0  0  0
   46.8000   32.3640   46.2780 C   0  0  0  0  0  0  0  0  0  0  0  0
   47.1510   31.1550   45.7250 C   0  0  0  0  0  0  0  0  0  0  0  0
   47.8140   30.1800   46.4380 C   0  0  0  0  0  0  0  0  0  0  0  0
   48.2500   28.9410   46.1050 N   0  0  0  0  0  0  0  0  0  0  0  0
   48.8500   28.4050   47.2210 C   0  0  0  0  0  0  0  0  0  0  0  0
   48.7740   29.3080   48.2030 N   0  0  0  0  0  0  0  0  0  0  0  0
   48.1420   30.4070   47.7500 C   0  0  0  0  0  0  0  0  0  0  0  0
   47.8010   31.6090   48.3280 C   0  0  0  0  0  0  0  0  0  0  0  0
   46.9170   33.4880   48.1550 H   0  0  0  0  0  0  0  0  0  0  0  0
   46.8960   30.9720   44.6950 H   0  0  0  0  0  0  0  0  0  0  0  0
   48.1180   28.5300   45.1460 H   0  0  0  0  0  0  0  0  0  0  0  0
   49.2620   27.4030   47.1320 H   0  0  0  0  0  0  0  0  0  0  0  0
   48.0740   31.7570   49.3640 H   0  0  0  0  0  0  0  0  0  0  0  0
   45.5820   34.9270   42.2700 O   0  0  0  0  0  0  0  0  0  0  0  0
   44.4650   34.8730   41.4540 C   0  0  0  0  0  0  0  0  0  0  0  0
   44.8430   33.9390   40.5510 C   0  0  0  0  0  0  0  0  0  0  0  0
   43.3010   33.8580   39.4220 S   0  0  0  0  0  0  0  0  0  0  0  0
   42.4760   35.1720   40.4970 C   0  0  0  0  0  0  0  0  0  0  0  0
   43.2620   35.3550   41.2490 N   0  0  0  0  0  0  0  0  0  0  0  0
   45.5940   33.1810   40.1160 H   0  0  0  0  0  0  0  0  0  0  0  0
   41.1520   35.5710   40.1070 N   0  0  0  0  0  0  0  0  0  0  0  0
   40.6690   36.4240   40.4560 H   0  0  0  0  0  0  0  0  0  0  0  0
   40.3530   34.5580   39.0010 S   0  0  0  0  0  0  0  0  0  0  0  0
   40.6740   33.1050   39.1960 O   0  0  0  0  0  1  0  0  0  0  0  0
   38.8450   34.7220   39.1360 O   0  0  0  0  0  1  0  0  0  0  0  0
   40.7090   34.9370   37.4030 O   0  0  0  0  0  0  0  0  0  0  0  0
   40.9840   35.8820   37.2960 H   0  0  0  0  0  0  0  0  0  0  0  0
  1  2  2  0  0  0  0
  1  6  1  0  0  0  0
  2  3  1  0  0  0  0
  3 10  1  0  0  0  0
  3  4  2  0  0  0  0
  5  4  1  0  0  0  0
  5  8  1  0  0  0  0
  6  5  2  0  0  0  0
  7  2  1  0  0  0  0
  9 18  1  0  0  0  0
  9 17  1  0  0  0  0
 10  9  2  0  0  0  0
 11 10  1  0  0  0  0
 11 12  2  0  0  0  0
 12 16  1  0  0  0  0
 13 12  1  0  0  0  0
 13 14  1  0  0  0  0
 14 15  2  0  0  0  0
 16 15  1  0  0  0  0
 16 17  2  0  0  0  0
 17 22  1  0  0  0  0
 19 11  1  0  0  0  0
 20 13  1  0  0  0  0
 21 14  1  0  0  0  0
 23  1  1  0  0  0  0
 24 23  1  0  0  0  0
 25 24  2  0  0  0  0
 26 27  1  0  0  0  0
 26 25  1  0  0  0  0
 27 28  2  0  0  0  0
 28 24  1  0  0  0  0
 29 25  1  0  0  0  0
 30 31  1  0  0  0  0
 30 27  1  0  0  0  0
 32 34  1  0  0  0  0
 32 33  1  0  0  0  0
 32 30  1  0  0  0  0
 35 32  1  0  0  0  0
 36 35  1  0  0  0  0
M  END
>  <minimizedAffinity>
-6.24839973

>  <minimizedRMSD>
0.378457546

$$$$
