
 OpenBabel03252501093D

 38 40  0  0  1  0  0  0  0  0999 V2000
   34.5530   29.2620   39.9060 O   0  0  0  0  0  0  0  0  0  0  0  0
   35.8690   29.5150   40.6420 P   0  0  2  0  0  0  0  0  0  0  0  0
   35.6860   31.0220   41.3870 O   0  0  0  0  0  0  0  0  0  0  0  0
   35.1600   30.9650   42.2160 H   0  0  0  0  0  0  0  0  0  0  0  0
   37.1680   29.3860   39.6560 O   0  0  0  0  0  0  0  0  0  0  0  0
   37.3030   30.7000   37.6260 C   0  0  1  0  0  0  0  0  0  0  0  0
   38.1870   29.5550   37.3760 C   0  0  0  0  0  0  0  0  0  0  0  0
   36.9760   29.4560   38.3210 C   0  0  1  0  0  0  0  0  0  0  0  0
   36.5780   31.1070   36.8820 H   0  0  0  0  0  0  0  0  0  0  0  0
   38.1130   29.1130   36.3640 H   0  0  0  0  0  0  0  0  0  0  0  0
   39.1470   29.4710   37.9090 H   0  0  0  0  0  0  0  0  0  0  0  0
   36.2210   28.7730   37.8910 H   0  0  0  0  0  0  0  0  0  0  0  0
   39.8280   32.8960   39.4000 C   0  0  0  0  0  0  0  0  0  0  0  0
   39.2970   31.8840   38.6080 C   0  0  0  0  0  0  0  0  0  0  0  0
   37.8990   31.7960   38.4660 C   0  0  0  0  0  0  0  0  0  0  0  0
   37.1100   32.6980   39.1020 N   0  0  0  0  0  0  0  0  0  0  0  0
   37.6580   33.6770   39.8690 C   0  0  0  0  0  0  0  0  0  0  0  0
   39.0170   33.7740   40.0170 N   0  0  0  0  0  0  0  0  0  0  0  0
   40.9030   32.9510   39.5000 H   0  0  0  0  0  0  0  0  0  0  0  0
   39.9680   31.2100   38.1350 H   0  0  0  0  0  0  0  0  0  0  0  0
   36.9650   34.3620   40.3470 H   0  0  0  0  0  0  0  0  0  0  0  0
   35.9110   28.3610   41.8590 O   0  0  0  0  0  0  0  0  0  0  0  0
   37.0720   27.7360   42.3080 C   0  0  0  0  0  0  0  0  0  0  0  0
   38.1350   28.2960   42.9880 C   0  0  0  0  0  0  0  0  0  0  0  0
   39.2130   27.5650   43.3670 C   0  0  0  0  0  0  0  0  0  0  0  0
   39.2600   26.2290   43.0730 C   0  0  0  0  0  0  0  0  0  0  0  0
   38.1800   25.6940   42.3880 C   0  0  0  0  0  0  0  0  0  0  0  0
   37.1150   26.4410   42.0200 N   0  0  0  0  0  0  0  0  0  0  0  0
   38.0230   29.3630   43.1860 H   0  0  0  0  0  0  0  0  0  0  0  0
   40.0060   28.0770   43.8990 H   0  0  0  0  0  0  0  0  0  0  0  0
   40.1090   25.6650   43.3740 H   0  0  0  0  0  0  0  0  0  0  0  0
   38.1360   24.3230   42.0380 N   0  0  0  0  0  0  0  0  0  0  0  0
   38.3860   23.5620   42.6750 H   0  0  0  0  0  0  0  0  0  0  0  0
   37.7200   23.4340   40.6350 S   0  0  0  0  0  0  0  0  0  0  0  0
   38.3750   23.9850   39.3800 O   0  0  0  0  0  1  0  0  0  0  0  0
   36.2400   23.5270   40.4190 O   0  0  0  0  0  1  0  0  0  0  0  0
   38.1740   21.8110   40.8420 O   0  0  0  0  0  0  0  0  0  0  0  0
   38.4290   21.4860   39.9430 H   0  0  0  0  0  0  0  0  0  0  0  0
  2  1  2  6  0  0  0
  2  3  1  0  0  0  0
  2 22  1  0  0  0  0
  3  4  1  0  0  0  0
  5  2  1  0  0  0  0
  6  9  1  6  0  0  0
  6  8  1  0  0  0  0
  6 15  1  0  0  0  0
  7  6  1  0  0  0  0
  7 11  1  0  0  0  0
  7  8  1  0  0  0  0
  8 12  1  6  0  0  0
  8  5  1  0  0  0  0
 10  7  1  0  0  0  0
 13 19  1  0  0  0  0
 13 18  1  0  0  0  0
 14 13  2  0  0  0  0
 15 14  1  0  0  0  0
 15 16  2  0  0  0  0
 16 17  1  0  0  0  0
 17 18  2  0  0  0  0
 17 21  1  0  0  0  0
 20 14  1  0  0  0  0
 22 23  1  0  0  0  0
 23 24  1  0  0  0  0
 24 29  1  0  0  0  0
 24 25  2  0  0  0  0
 25 30  1  0  0  0  0
 26 25  1  0  0  0  0
 26 31  1  0  0  0  0
 27 26  2  0  0  0  0
 28 23  2  0  0  0  0
 28 27  1  0  0  0  0
 32 27  1  0  0  0  0
 32 33  1  0  0  0  0
 34 37  1  0  0  0  0
 34 32  1  0  0  0  0
 35 34  1  0  0  0  0
 36 34  1  0  0  0  0
 38 37  1  0  0  0  0
M  END
>  <minimizedAffinity>
-6.26935816

$$$$

 OpenBabel03252501093D

 38 40  0  0  1  0  0  0  0  0999 V2000
   36.8270   30.7730   39.1710 O   0  0  0  0  0  0  0  0  0  0  0  0
   36.3930   29.8990   40.3480 P   0  0  2  0  0  0  0  0  0  0  0  0
   35.5410   30.9300   41.3850 O   0  0  0  0  0  0  0  0  0  0  0  0
   34.6200   31.0860   41.0780 H   0  0  0  0  0  0  0  0  0  0  0  0
   37.6500   29.1130   41.0380 O   0  0  0  0  0  0  0  0  0  0  0  0
   38.2260   28.2640   43.2320 C   0  0  1  0  0  0  0  0  0  0  0  0
   39.3690   29.1070   42.8570 C   0  0  0  0  0  0  0  0  0  0  0  0
   37.9500   29.3790   42.3280 C   0  0  1  0  0  0  0  0  0  0  0  0
   37.7540   28.2610   44.2420 H   0  0  0  0  0  0  0  0  0  0  0  0
   39.7700   29.7460   43.6670 H   0  0  0  0  0  0  0  0  0  0  0  0
   40.0610   28.7800   42.0650 H   0  0  0  0  0  0  0  0  0  0  0  0
   37.5740   30.3340   42.7380 H   0  0  0  0  0  0  0  0  0  0  0  0
   37.0350   24.8820   42.0110 C   0  0  0  0  0  0  0  0  0  0  0  0
   37.0190   26.1550   42.5700 C   0  0  0  0  0  0  0  0  0  0  0  0
   38.2180   26.8910   42.6190 C   0  0  0  0  0  0  0  0  0  0  0  0
   39.3540   26.3410   42.1210 N   0  0  0  0  0  0  0  0  0  0  0  0
   39.3380   25.0930   41.5790 C   0  0  0  0  0  0  0  0  0  0  0  0
   38.1780   24.3660   41.5270 N   0  0  0  0  0  0  0  0  0  0  0  0
   36.1060   24.3300   41.9810 H   0  0  0  0  0  0  0  0  0  0  0  0
   36.0970   26.5310   42.9410 H   0  0  0  0  0  0  0  0  0  0  0  0
   40.2850   24.7190   41.2010 H   0  0  0  0  0  0  0  0  0  0  0  0
   35.2830   28.8210   39.6980 O   0  0  0  0  0  0  0  0  0  0  0  0
   34.7730   28.9060   38.4050 C   0  0  0  0  0  0  0  0  0  0  0  0
   35.4680   28.9220   37.2120 C   0  0  0  0  0  0  0  0  0  0  0  0
   34.8400   29.0090   36.0140 C   0  0  0  0  0  0  0  0  0  0  0  0
   33.4740   29.0830   35.9720 C   0  0  0  0  0  0  0  0  0  0  0  0
   32.8020   29.0660   37.1830 C   0  0  0  0  0  0  0  0  0  0  0  0
   33.4480   28.9780   38.3680 N   0  0  0  0  0  0  0  0  0  0  0  0
   36.5510   28.8590   37.3290 H   0  0  0  0  0  0  0  0  0  0  0  0
   35.4560   29.0150   35.1220 H   0  0  0  0  0  0  0  0  0  0  0  0
   32.9910   29.1510   35.0270 H   0  0  0  0  0  0  0  0  0  0  0  0
   31.3890   29.1380   37.2440 N   0  0  0  0  0  0  0  0  0  0  0  0
   30.7630   28.5960   36.6420 H   0  0  0  0  0  0  0  0  0  0  0  0
   30.2500   30.0080   38.1800 S   0  0  0  0  0  0  0  0  0  0  0  0
   28.8210   29.5590   37.9230 O   0  0  0  0  0  1  0  0  0  0  0  0
   30.3150   31.4570   37.8050 O   0  0  0  0  0  1  0  0  0  0  0  0
   30.6130   29.8190   39.8280 O   0  0  0  0  0  0  0  0  0  0  0  0
   29.7430   29.8320   40.2980 H   0  0  0  0  0  0  0  0  0  0  0  0
  2  1  2  6  0  0  0
  2  5  1  0  0  0  0
  2  3  1  0  0  0  0
  4  3  1  0  0  0  0
  5  8  1  0  0  0  0
  6  9  1  1  0  0  0
  7  6  1  0  0  0  0
  7 10  1  0  0  0  0
  8 12  1  1  0  0  0
  8  7  1  0  0  0  0
  8  6  1  0  0  0  0
 11  7  1  0  0  0  0
 13 14  1  0  0  0  0
 14 15  2  0  0  0  0
 14 20  1  0  0  0  0
 15  6  1  0  0  0  0
 16 15  1  0  0  0  0
 17 16  2  0  0  0  0
 18 17  1  0  0  0  0
 18 13  2  0  0  0  0
 19 13  1  0  0  0  0
 21 17  1  0  0  0  0
 22  2  1  0  0  0  0
 23 22  1  0  0  0  0
 24 29  1  0  0  0  0
 24 23  2  0  0  0  0
 25 24  1  0  0  0  0
 26 25  2  0  0  0  0
 26 27  1  0  0  0  0
 27 32  1  0  0  0  0
 27 28  2  0  0  0  0
 28 23  1  0  0  0  0
 30 25  1  0  0  0  0
 31 26  1  0  0  0  0
 32 34  1  0  0  0  0
 33 32  1  0  0  0  0
 34 37  1  0  0  0  0
 35 34  1  0  0  0  0
 36 34  1  0  0  0  0
 37 38  1  0  0  0  0
M  END
>  <minimizedAffinity>
-6.22695351

$$$$

 OpenBabel03252501093D

 38 40  0  0  1  0  0  0  0  0999 V2000
   36.4930   29.4630   36.6430 O   0  0  0  0  0  0  0  0  0  0  0  0
   37.5660   29.8660   37.6550 P   0  0  2  0  0  0  0  0  0  0  0  0
   39.0360   29.3920   36.9660 O   0  0  0  0  0  0  0  0  0  0  0  0
   39.3490   30.0270   36.2850 H   0  0  0  0  0  0  0  0  0  0  0  0
   37.2750   29.2610   39.1460 O   0  0  0  0  0  0  0  0  0  0  0  0
   35.7870   28.9310   41.0290 C   0  0  1  0  0  0  0  0  0  0  0  0
   36.1140   30.3620   41.0710 C   0  0  0  0  0  0  0  0  0  0  0  0
   36.1070   29.5680   39.7530 C   0  0  1  0  0  0  0  0  0  0  0  0
   34.7630   28.5170   41.1800 H   0  0  0  0  0  0  0  0  0  0  0  0
   35.2630   31.0340   41.2940 H   0  0  0  0  0  0  0  0  0  0  0  0
   37.1240   30.6900   41.3630 H   0  0  0  0  0  0  0  0  0  0  0  0
   35.2910   29.9290   39.1020 H   0  0  0  0  0  0  0  0  0  0  0  0
   38.7360   27.6650   43.0410 C   0  0  0  0  0  0  0  0  0  0  0  0
   37.7640   28.5210   42.5330 C   0  0  0  0  0  0  0  0  0  0  0  0
   36.8370   28.0190   41.6010 C   0  0  0  0  0  0  0  0  0  0  0  0
   36.9140   26.7180   41.2230 N   0  0  0  0  0  0  0  0  0  0  0  0
   37.8750   25.9050   41.7380 C   0  0  0  0  0  0  0  0  0  0  0  0
   38.7850   26.3810   42.6450 N   0  0  0  0  0  0  0  0  0  0  0  0
   39.4410   28.0650   43.7550 H   0  0  0  0  0  0  0  0  0  0  0  0
   37.7550   29.5280   42.8700 H   0  0  0  0  0  0  0  0  0  0  0  0
   37.8750   24.8770   41.3890 H   0  0  0  0  0  0  0  0  0  0  0  0
   37.5400   31.5440   37.6630 O   0  0  0  0  0  0  0  0  0  0  0  0
   38.2610   32.3350   38.5550 C   0  0  0  0  0  0  0  0  0  0  0  0
   37.7760   33.1680   39.5430 C   0  0  0  0  0  0  0  0  0  0  0  0
   38.5980   33.8870   40.3470 C   0  0  0  0  0  0  0  0  0  0  0  0
   39.9540   33.7920   40.1840 C   0  0  0  0  0  0  0  0  0  0  0  0
   40.4130   32.9490   39.1840 C   0  0  0  0  0  0  0  0  0  0  0  0
   39.5760   32.2400   38.3940 N   0  0  0  0  0  0  0  0  0  0  0  0
   36.6870   33.1890   39.6100 H   0  0  0  0  0  0  0  0  0  0  0  0
   38.1400   34.5180   41.0990 H   0  0  0  0  0  0  0  0  0  0  0  0
   40.5890   34.3600   40.8190 H   0  0  0  0  0  0  0  0  0  0  0  0
   41.7970   32.7840   38.9380 N   0  0  0  0  0  0  0  0  0  0  0  0
   42.4960   32.6470   39.6730 H   0  0  0  0  0  0  0  0  0  0  0  0
   42.7940   32.7400   37.5470 S   0  0  0  0  0  0  0  0  0  0  0  0
   42.5140   31.5330   36.6670 O   0  0  0  0  0  1  0  0  0  0  0  0
   44.2250   32.6320   37.9750 O   0  0  0  0  0  1  0  0  0  0  0  0
   42.5650   34.1610   36.6450 O   0  0  0  0  0  0  0  0  0  0  0  0
   42.6790   33.8990   35.6980 H   0  0  0  0  0  0  0  0  0  0  0  0
  2  1  2  6  0  0  0
  2 22  1  0  0  0  0
  2  5  1  0  0  0  0
  3  2  1  0  0  0  0
  4  3  1  0  0  0  0
  5  8  1  0  0  0  0
  6  7  1  0  0  0  0
  6  9  1  1  0  0  0
  6 15  1  0  0  0  0
  7 10  1  0  0  0  0
  7 11  1  0  0  0  0
  8 12  1  6  0  0  0
  8  6  1  0  0  0  0
  8  7  1  0  0  0  0
 13 19  1  0  0  0  0
 14 20  1  0  0  0  0
 14 13  2  0  0  0  0
 15 14  1  0  0  0  0
 16 15  2  0  0  0  0
 16 17  1  0  0  0  0
 17 18  2  0  0  0  0
 18 13  1  0  0  0  0
 21 17  1  0  0  0  0
 22 23  1  0  0  0  0
 23 24  1  0  0  0  0
 24 29  1  0  0  0  0
 24 25  2  0  0  0  0
 25 30  1  0  0  0  0
 26 25  1  0  0  0  0
 26 31  1  0  0  0  0
 27 26  2  0  0  0  0
 28 23  2  0  0  0  0
 28 27  1  0  0  0  0
 32 27  1  0  0  0  0
 32 33  1  0  0  0  0
 34 36  1  0  0  0  0
 34 32  1  0  0  0  0
 35 34  1  0  0  0  0
 37 34  1  0  0  0  0
 38 37  1  0  0  0  0
M  END
>  <minimizedAffinity>
-5.87230587

$$$$

 OpenBabel03252501093D

 38 40  0  0  1  0  0  0  0  0999 V2000
   35.7680   28.4850   41.1390 O   0  0  0  0  0  0  0  0  0  0  0  0
   36.6550   29.7290   41.1800 P   0  0  2  0  0  0  0  0  0  0  0  0
   35.6020   31.0260   41.4480 O   0  0  0  0  0  0  0  0  0  0  0  0
   35.3400   31.1020   42.3920 H   0  0  0  0  0  0  0  0  0  0  0  0
   37.5960   29.8680   39.8510 O   0  0  0  0  0  0  0  0  0  0  0  0
   37.3530   31.6350   38.2110 C   0  0  1  0  0  0  0  0  0  0  0  0
   37.9030   30.5070   37.4490 C   0  0  0  0  0  0  0  0  0  0  0  0
   37.0310   30.2950   38.7000 C   0  0  1  0  0  0  0  0  0  0  0  0
   36.5240   32.2900   37.8520 H   0  0  0  0  0  0  0  0  0  0  0  0
   37.4530   30.3470   36.4510 H   0  0  0  0  0  0  0  0  0  0  0  0
   38.9480   30.1930   37.6030 H   0  0  0  0  0  0  0  0  0  0  0  0
   36.0740   29.8240   38.4130 H   0  0  0  0  0  0  0  0  0  0  0  0
   38.8600   34.0540   40.7060 C   0  0  0  0  0  0  0  0  0  0  0  0
   37.9150   33.3330   39.9840 C   0  0  0  0  0  0  0  0  0  0  0  0
   38.3580   32.4140   39.0140 C   0  0  0  0  0  0  0  0  0  0  0  0
   39.6900   32.2550   38.8100 N   0  0  0  0  0  0  0  0  0  0  0  0
   40.5910   32.9730   39.5320 C   0  0  0  0  0  0  0  0  0  0  0  0
   40.1740   33.8720   40.4780 N   0  0  0  0  0  0  0  0  0  0  0  0
   38.5060   34.7560   41.4470 H   0  0  0  0  0  0  0  0  0  0  0  0
   36.8870   33.5020   40.1920 H   0  0  0  0  0  0  0  0  0  0  0  0
   41.6390   32.7930   39.3140 H   0  0  0  0  0  0  0  0  0  0  0  0
   37.5830   29.5500   42.5670 O   0  0  0  0  0  0  0  0  0  0  0  0
   38.9670   29.7050   42.6100 C   0  0  0  0  0  0  0  0  0  0  0  0
   39.6960   30.8770   42.5950 C   0  0  0  0  0  0  0  0  0  0  0  0
   41.0520   30.8820   42.6410 C   0  0  0  0  0  0  0  0  0  0  0  0
   41.7290   29.6950   42.7070 C   0  0  0  0  0  0  0  0  0  0  0  0
   40.9720   28.5350   42.7200 C   0  0  0  0  0  0  0  0  0  0  0  0
   39.6210   28.5510   42.6730 N   0  0  0  0  0  0  0  0  0  0  0  0
   39.0850   31.7790   42.5420 H   0  0  0  0  0  0  0  0  0  0  0  0
   41.5510   31.8430   42.6250 H   0  0  0  0  0  0  0  0  0  0  0  0
   42.7910   29.7100   42.7430 H   0  0  0  0  0  0  0  0  0  0  0  0
   41.5810   27.2580   42.7860 N   0  0  0  0  0  0  0  0  0  0  0  0
   42.3470   27.0230   43.4220 H   0  0  0  0  0  0  0  0  0  0  0  0
   41.3710   25.7610   41.9810 S   0  0  0  0  0  0  0  0  0  0  0  0
   42.6330   25.2970   41.2760 O   0  0  0  0  0  1  0  0  0  0  0  0
   40.3240   25.9200   40.9210 O   0  0  0  0  0  1  0  0  0  0  0  0
   40.8850   24.5820   43.1030 O   0  0  0  0  0  0  0  0  0  0  0  0
   41.2810   23.7320   42.7870 H   0  0  0  0  0  0  0  0  0  0  0  0
  2  1  2  6  0  0  0
  2  3  1  0  0  0  0
  2 22  1  0  0  0  0
  3  4  1  0  0  0  0
  5  2  1  0  0  0  0
  6  9  1  6  0  0  0
  6  8  1  0  0  0  0
  6 15  1  0  0  0  0
  7 11  1  0  0  0  0
  7  6  1  0  0  0  0
  7  8  1  0  0  0  0
  8 12  1  6  0  0  0
  8  5  1  0  0  0  0
 10  7  1  0  0  0  0
 13 19  1  0  0  0  0
 14 20  1  0  0  0  0
 14 13  2  0  0  0  0
 15 14  1  0  0  0  0
 16 15  2  0  0  0  0
 16 17  1  0  0  0  0
 17 18  2  0  0  0  0
 18 13  1  0  0  0  0
 21 17  1  0  0  0  0
 22 23  1  0  0  0  0
 23 28  1  0  0  0  0
 24 23  2  0  0  0  0
 24 25  1  0  0  0  0
 25 26  2  0  0  0  0
 26 27  1  0  0  0  0
 26 31  1  0  0  0  0
 27 32  1  0  0  0  0
 28 27  2  0  0  0  0
 29 24  1  0  0  0  0
 30 25  1  0  0  0  0
 32 33  1  0  0  0  0
 34 32  1  0  0  0  0
 34 37  1  0  0  0  0
 35 34  1  0  0  0  0
 36 34  1  0  0  0  0
 38 37  1  0  0  0  0
M  END
>  <minimizedAffinity>
-5.8577199

$$$$

 OpenBabel03252501093D

 38 40  0  0  1  0  0  0  0  0999 V2000
   37.2420   26.0510   37.4000 O   0  0  0  0  0  0  0  0  0  0  0  0
   37.4580   26.8750   38.6690 P   0  0  2  0  0  0  0  0  0  0  0  0
   39.1310   27.0970   38.7850 O   0  0  0  0  0  0  0  0  0  0  0  0
   39.4530   27.8100   38.1900 H   0  0  0  0  0  0  0  0  0  0  0  0
   36.7600   26.1920   39.9810 O   0  0  0  0  0  0  0  0  0  0  0  0
   38.2010   25.3480   41.7360 C   0  0  1  0  0  0  0  0  0  0  0  0
   36.9230   24.6580   41.9520 C   0  0  0  0  0  0  0  0  0  0  0  0
   37.3660   25.1300   40.5560 C   0  0  1  0  0  0  0  0  0  0  0  0
   39.1990   24.8500   41.7870 H   0  0  0  0  0  0  0  0  0  0  0  0
   37.0030   23.5830   42.2040 H   0  0  0  0  0  0  0  0  0  0  0  0
   36.0520   25.2150   42.3310 H   0  0  0  0  0  0  0  0  0  0  0  0
   37.5530   24.2550   39.9070 H   0  0  0  0  0  0  0  0  0  0  0  0
   37.3690   28.5100   43.6460 C   0  0  0  0  0  0  0  0  0  0  0  0
   37.3020   27.2000   43.1850 C   0  0  0  0  0  0  0  0  0  0  0  0
   38.2630   26.7560   42.2580 C   0  0  0  0  0  0  0  0  0  0  0  0
   39.2270   27.6150   41.8400 N   0  0  0  0  0  0  0  0  0  0  0  0
   39.2680   28.8910   42.3090 C   0  0  0  0  0  0  0  0  0  0  0  0
   38.3370   29.3360   43.2110 N   0  0  0  0  0  0  0  0  0  0  0  0
   36.6240   28.8360   44.3580 H   0  0  0  0  0  0  0  0  0  0  0  0
   36.5250   26.5760   43.5530 H   0  0  0  0  0  0  0  0  0  0  0  0
   40.0670   29.5200   41.9290 H   0  0  0  0  0  0  0  0  0  0  0  0
   36.7810   28.3730   38.3300 O   0  0  0  0  0  0  0  0  0  0  0  0
   36.9680   29.5120   39.1100 C   0  0  0  0  0  0  0  0  0  0  0  0
   36.1230   30.0420   40.0640 C   0  0  0  0  0  0  0  0  0  0  0  0
   36.4330   31.1680   40.7540 C   0  0  0  0  0  0  0  0  0  0  0  0
   37.6170   31.8080   40.5060 C   0  0  0  0  0  0  0  0  0  0  0  0
   38.4450   31.2540   39.5430 C   0  0  0  0  0  0  0  0  0  0  0  0
   38.1180   30.1300   38.8660 N   0  0  0  0  0  0  0  0  0  0  0  0
   35.2010   29.4770   40.2040 H   0  0  0  0  0  0  0  0  0  0  0  0
   35.7170   31.5210   41.4870 H   0  0  0  0  0  0  0  0  0  0  0  0
   37.8500   32.6890   41.0520 H   0  0  0  0  0  0  0  0  0  0  0  0
   39.6910   31.8420   39.2160 N   0  0  0  0  0  0  0  0  0  0  0  0
   40.3630   32.1800   39.9090 H   0  0  0  0  0  0  0  0  0  0  0  0
   40.5260   32.2080   37.7660 S   0  0  0  0  0  0  0  0  0  0  0  0
   41.5400   31.1400   37.3930 O   0  0  0  0  0  1  0  0  0  0  0  0
   41.2950   33.4790   37.9540 O   0  0  0  0  0  1  0  0  0  0  0  0
   39.4060   32.3890   36.5020 O   0  0  0  0  0  0  0  0  0  0  0  0
   39.8650   32.0630   35.6880 H   0  0  0  0  0  0  0  0  0  0  0  0
  2  1  2  6  0  0  0
  2  3  1  0  0  0  0
  2  5  1  0  0  0  0
  4  3  1  0  0  0  0
  5  8  1  0  0  0  0
  6  9  1  1  0  0  0
  6  7  1  0  0  0  0
  6 15  1  0  0  0  0
  7 10  1  0  0  0  0
  7 11  1  0  0  0  0
  8 12  1  6  0  0  0
  8  6  1  0  0  0  0
  8  7  1  0  0  0  0
 13 19  1  0  0  0  0
 14 20  1  0  0  0  0
 14 13  2  0  0  0  0
 15 14  1  0  0  0  0
 16 15  2  0  0  0  0
 16 17  1  0  0  0  0
 17 18  2  0  0  0  0
 18 13  1  0  0  0  0
 21 17  1  0  0  0  0
 22  2  1  0  0  0  0
 22 23  1  0  0  0  0
 23 24  1  0  0  0  0
 24 29  1  0  0  0  0
 24 25  2  0  0  0  0
 25 30  1  0  0  0  0
 26 25  1  0  0  0  0
 26 31  1  0  0  0  0
 27 26  2  0  0  0  0
 28 23  2  0  0  0  0
 28 27  1  0  0  0  0
 32 27  1  0  0  0  0
 32 33  1  0  0  0  0
 34 36  1  0  0  0  0
 34 32  1  0  0  0  0
 35 34  1  0  0  0  0
 37 34  1  0  0  0  0
 38 37  1  0  0  0  0
M  END
>  <minimizedAffinity>
-5.58714676

$$$$

 OpenBabel03252501093D

 38 40  0  0  1  0  0  0  0  0999 V2000
   41.8270   31.4650   42.7790 O   0  0  0  0  0  0  0  0  0  0  0  0
   41.0790   30.3650   42.0250 P   0  0  2  0  0  0  0  0  0  0  0  0
   42.2810   29.4000   41.3260 O   0  0  0  0  0  0  0  0  0  0  0  0
   42.6780   28.7760   41.9730 H   0  0  0  0  0  0  0  0  0  0  0  0
   39.9800   30.9660   40.9740 O   0  0  0  0  0  0  0  0  0  0  0  0
   39.7270   33.3210   40.4680 C   0  0  1  0  0  0  0  0  0  0  0  0
   38.3840   32.7620   40.2720 C   0  0  0  0  0  0  0  0  0  0  0  0
   39.3850   32.1440   41.2640 C   0  0  1  0  0  0  0  0  0  0  0  0
   39.9360   34.2830   40.9940 H   0  0  0  0  0  0  0  0  0  0  0  0
   37.5530   33.3790   40.6650 H   0  0  0  0  0  0  0  0  0  0  0  0
   38.1790   32.1050   39.4120 H   0  0  0  0  0  0  0  0  0  0  0  0
   39.0140   32.2710   42.2980 H   0  0  0  0  0  0  0  0  0  0  0  0
   42.8790   33.3470   38.3680 C   0  0  0  0  0  0  0  0  0  0  0  0
   42.0140   33.5480   39.4380 C   0  0  0  0  0  0  0  0  0  0  0  0
   40.6840   33.1010   39.3290 C   0  0  0  0  0  0  0  0  0  0  0  0
   40.2820   32.4870   38.1880 N   0  0  0  0  0  0  0  0  0  0  0  0
   41.1510   32.3030   37.1580 C   0  0  0  0  0  0  0  0  0  0  0  0
   42.4480   32.7350   37.2510 N   0  0  0  0  0  0  0  0  0  0  0  0
   43.8970   33.6960   38.4660 H   0  0  0  0  0  0  0  0  0  0  0  0
   42.3900   34.0340   40.3050 H   0  0  0  0  0  0  0  0  0  0  0  0
   40.7580   31.8050   36.2780 H   0  0  0  0  0  0  0  0  0  0  0  0
   40.3410   29.4480   43.2210 O   0  0  0  0  0  0  0  0  0  0  0  0
   39.4740   28.3860   42.9730 C   0  0  0  0  0  0  0  0  0  0  0  0
   39.7060   27.0370   43.1480 C   0  0  0  0  0  0  0  0  0  0  0  0
   38.7640   26.1020   42.8630 C   0  0  0  0  0  0  0  0  0  0  0  0
   37.5440   26.4970   42.3860 C   0  0  0  0  0  0  0  0  0  0  0  0
   37.3400   27.8580   42.2200 C   0  0  0  0  0  0  0  0  0  0  0  0
   38.2920   28.7730   42.5100 N   0  0  0  0  0  0  0  0  0  0  0  0
   40.7000   26.8020   43.5310 H   0  0  0  0  0  0  0  0  0  0  0  0
   39.0220   25.0630   43.0280 H   0  0  0  0  0  0  0  0  0  0  0  0
   36.8140   25.7570   42.1650 H   0  0  0  0  0  0  0  0  0  0  0  0
   36.1110   28.3640   41.7320 N   0  0  0  0  0  0  0  0  0  0  0  0
   35.1940   28.0470   42.0560 H   0  0  0  0  0  0  0  0  0  0  0  0
   35.6470   29.5380   40.5760 S   0  0  0  0  0  0  0  0  0  0  0  0
   34.3080   29.2230   39.9310 O   0  0  0  0  0  1  0  0  0  0  0  0
   36.6570   29.5610   39.4700 O   0  0  0  0  0  1  0  0  0  0  0  0
   35.5680   31.0630   41.3210 O   0  0  0  0  0  0  0  0  0  0  0  0
   34.8410   31.5500   40.8600 H   0  0  0  0  0  0  0  0  0  0  0  0
  2  1  2  1  0  0  0
  2 22  1  0  0  0  0
  3  4  1  0  0  0  0
  3  2  1  0  0  0  0
  5  8  1  0  0  0  0
  5  2  1  0  0  0  0
  6  9  1  1  0  0  0
  6  8  1  0  0  0  0
  7  6  1  0  0  0  0
  7 10  1  0  0  0  0
  7  8  1  0  0  0  0
  8 12  1  1  0  0  0
 11  7  1  0  0  0  0
 13 19  1  0  0  0  0
 13 14  1  0  0  0  0
 14 20  1  0  0  0  0
 15 14  2  0  0  0  0
 15  6  1  0  0  0  0
 16 15  1  0  0  0  0
 17 18  1  0  0  0  0
 17 16  2  0  0  0  0
 18 13  2  0  0  0  0
 21 17  1  0  0  0  0
 23 24  1  0  0  0  0
 23 22  1  0  0  0  0
 24 29  1  0  0  0  0
 25 30  1  0  0  0  0
 25 24  2  0  0  0  0
 26 25  1  0  0  0  0
 27 26  2  0  0  0  0
 27 28  1  0  0  0  0
 28 23  2  0  0  0  0
 31 26  1  0  0  0  0
 32 33  1  0  0  0  0
 32 27  1  0  0  0  0
 34 37  1  0  0  0  0
 34 32  1  0  0  0  0
 35 34  1  0  0  0  0
 36 34  1  0  0  0  0
 38 37  1  0  0  0  0
M  END
>  <minimizedAffinity>
-5.4749527

$$$$

 OpenBabel03252501093D

 38 40  0  0  1  0  0  0  0  0999 V2000
   41.5820   29.1640   42.4980 O   0  0  0  0  0  0  0  0  0  0  0  0
   40.1360   29.5990   42.2540 P   0  0  2  0  0  0  0  0  0  0  0  0
   39.9880   31.1090   43.0030 O   0  0  0  0  0  0  0  0  0  0  0  0
   40.3670   31.8330   42.4570 H   0  0  0  0  0  0  0  0  0  0  0  0
   39.0550   28.4760   42.7470 O   0  0  0  0  0  0  0  0  0  0  0  0
   36.7140   28.1350   42.2260 C   0  0  1  0  0  0  0  0  0  0  0  0
   36.7990   27.9170   43.6760 C   0  0  0  0  0  0  0  0  0  0  0  0
   37.7720   28.8530   42.9360 C   0  0  1  0  0  0  0  0  0  0  0  0
   35.9080   28.7230   41.7260 H   0  0  0  0  0  0  0  0  0  0  0  0
   35.9770   28.3620   44.2690 H   0  0  0  0  0  0  0  0  0  0  0  0
   37.2950   27.0170   44.0710 H   0  0  0  0  0  0  0  0  0  0  0  0
   37.6040   29.8970   43.2570 H   0  0  0  0  0  0  0  0  0  0  0  0
   37.7780   26.0690   39.2360 C   0  0  0  0  0  0  0  0  0  0  0  0
   37.3880   27.1600   40.0040 C   0  0  0  0  0  0  0  0  0  0  0  0
   37.1500   26.9730   41.3790 C   0  0  0  0  0  0  0  0  0  0  0  0
   37.3080   25.7360   41.9160 N   0  0  0  0  0  0  0  0  0  0  0  0
   37.6910   24.6880   41.1390 C   0  0  0  0  0  0  0  0  0  0  0  0
   37.9240   24.8570   39.8000 N   0  0  0  0  0  0  0  0  0  0  0  0
   37.9560   26.2290   38.1820 H   0  0  0  0  0  0  0  0  0  0  0  0
   37.2840   28.1020   39.5250 H   0  0  0  0  0  0  0  0  0  0  0  0
   37.7960   23.7300   41.6390 H   0  0  0  0  0  0  0  0  0  0  0  0
   40.0380   29.8550   40.5990 O   0  0  0  0  0  0  0  0  0  0  0  0
   39.0180   30.5710   39.9760 C   0  0  0  0  0  0  0  0  0  0  0  0
   38.2760   31.6180   40.4840 C   0  0  0  0  0  0  0  0  0  0  0  0
   37.3030   32.2290   39.7610 C   0  0  0  0  0  0  0  0  0  0  0  0
   37.0410   31.8030   38.4870 C   0  0  0  0  0  0  0  0  0  0  0  0
   37.8010   30.7500   38.0040 C   0  0  0  0  0  0  0  0  0  0  0  0
   38.7660   30.1550   38.7400 N   0  0  0  0  0  0  0  0  0  0  0  0
   38.5440   31.8990   41.5030 H   0  0  0  0  0  0  0  0  0  0  0  0
   36.7650   33.0440   40.2310 H   0  0  0  0  0  0  0  0  0  0  0  0
   36.2770   32.2880   37.9300 H   0  0  0  0  0  0  0  0  0  0  0  0
   37.6040   30.2380   36.6980 N   0  0  0  0  0  0  0  0  0  0  0  0
   37.4920   30.8230   35.8660 H   0  0  0  0  0  0  0  0  0  0  0  0
   37.4800   28.6780   36.0030 S   0  0  0  0  0  0  0  0  0  0  0  0
   36.3290   27.8730   36.5810 O   0  0  0  0  0  1  0  0  0  0  0  0
   38.7310   27.9100   36.3030 O   0  0  0  0  0  1  0  0  0  0  0  0
   37.2790   28.8250   34.3230 O   0  0  0  0  0  0  0  0  0  0  0  0
   36.7050   28.0650   34.0540 H   0  0  0  0  0  0  0  0  0  0  0  0
  2  1  2  1  0  0  0
  2  5  1  0  0  0  0
  2  3  1  0  0  0  0
  4  3  1  0  0  0  0
  5  8  1  0  0  0  0
  6  9  1  6  0  0  0
  6  8  1  0  0  0  0
  6  7  1  0  0  0  0
  7 11  1  0  0  0  0
  7 10  1  0  0  0  0
  8 12  1  1  0  0  0
  8  7  1  0  0  0  0
 13 18  2  0  0  0  0
 13 14  1  0  0  0  0
 14 15  2  0  0  0  0
 15 16  1  0  0  0  0
 15  6  1  0  0  0  0
 17 21  1  0  0  0  0
 17 16  2  0  0  0  0
 18 17  1  0  0  0  0
 19 13  1  0  0  0  0
 20 14  1  0  0  0  0
 22  2  1  0  0  0  0
 23 24  1  0  0  0  0
 23 22  1  0  0  0  0
 24 29  1  0  0  0  0
 25 30  1  0  0  0  0
 25 24  2  0  0  0  0
 26 25  1  0  0  0  0
 27 26  2  0  0  0  0
 27 28  1  0  0  0  0
 28 23  2  0  0  0  0
 31 26  1  0  0  0  0
 32 27  1  0  0  0  0
 33 32  1  0  0  0  0
 34 36  1  0  0  0  0
 34 35  1  0  0  0  0
 34 32  1  0  0  0  0
 37 34  1  0  0  0  0
 38 37  1  0  0  0  0
M  END
>  <minimizedAffinity>
-5.35663366

$$$$

 OpenBabel03252501093D

 38 40  0  0  1  0  0  0  0  0999 V2000
   36.5950   29.7970   37.2200 O   0  0  0  0  0  0  0  0  0  0  0  0
   37.9010   29.4550   37.9370 P   0  0  2  0  0  0  0  0  0  0  0  0
   38.6740   28.3190   36.9480 O   0  0  0  0  0  0  0  0  0  0  0  0
   39.1290   28.7400   36.1850 H   0  0  0  0  0  0  0  0  0  0  0  0
   37.6570   28.9720   39.4800 O   0  0  0  0  0  0  0  0  0  0  0  0
   36.1840   28.7270   41.3880 C   0  0  1  0  0  0  0  0  0  0  0  0
   36.5570   30.1480   41.3970 C   0  0  0  0  0  0  0  0  0  0  0  0
   36.5080   29.3280   40.0950 C   0  0  1  0  0  0  0  0  0  0  0  0
   35.1490   28.3490   41.5600 H   0  0  0  0  0  0  0  0  0  0  0  0
   35.7310   30.8510   41.6170 H   0  0  0  0  0  0  0  0  0  0  0  0
   37.5800   30.4490   41.6700 H   0  0  0  0  0  0  0  0  0  0  0  0
   35.6950   29.7030   39.4470 H   0  0  0  0  0  0  0  0  0  0  0  0
   38.1020   25.5700   42.2250 C   0  0  0  0  0  0  0  0  0  0  0  0
   37.1500   26.4190   41.6710 C   0  0  0  0  0  0  0  0  0  0  0  0
   37.2120   27.7940   41.9650 C   0  0  0  0  0  0  0  0  0  0  0  0
   38.1960   28.2540   42.7790 N   0  0  0  0  0  0  0  0  0  0  0  0
   39.1140   27.4000   43.3050 C   0  0  0  0  0  0  0  0  0  0  0  0
   39.0640   26.0590   43.0280 N   0  0  0  0  0  0  0  0  0  0  0  0
   38.0420   24.5170   41.9900 H   0  0  0  0  0  0  0  0  0  0  0  0
   36.4070   25.9970   41.0400 H   0  0  0  0  0  0  0  0  0  0  0  0
   39.8700   27.8400   43.9470 H   0  0  0  0  0  0  0  0  0  0  0  0
   38.8090   30.8650   37.8760 O   0  0  0  0  0  0  0  0  0  0  0  0
   38.6160   31.9580   38.7170 C   0  0  0  0  0  0  0  0  0  0  0  0
   37.5070   32.7750   38.8160 C   0  0  0  0  0  0  0  0  0  0  0  0
   37.4540   33.8140   39.6860 C   0  0  0  0  0  0  0  0  0  0  0  0
   38.5260   34.0710   40.4960 C   0  0  0  0  0  0  0  0  0  0  0  0
   39.6260   33.2370   40.3750 C   0  0  0  0  0  0  0  0  0  0  0  0
   39.6580   32.2050   39.5020 N   0  0  0  0  0  0  0  0  0  0  0  0
   36.6960   32.5050   38.1380 H   0  0  0  0  0  0  0  0  0  0  0  0
   36.5480   34.4080   39.7040 H   0  0  0  0  0  0  0  0  0  0  0  0
   38.4740   34.8890   41.1740 H   0  0  0  0  0  0  0  0  0  0  0  0
   40.7830   33.4220   41.1700 N   0  0  0  0  0  0  0  0  0  0  0  0
   40.7610   33.6050   42.1760 H   0  0  0  0  0  0  0  0  0  0  0  0
   42.4710   33.4280   40.8860 S   0  0  0  0  0  0  0  0  0  0  0  0
   43.2410   34.1610   41.9710 O   0  0  0  0  0  1  0  0  0  0  0  0
   42.7480   34.1530   39.6040 O   0  0  0  0  0  1  0  0  0  0  0  0
   43.0300   31.8280   40.7790 O   0  0  0  0  0  0  0  0  0  0  0  0
   43.9480   31.8390   41.1500 H   0  0  0  0  0  0  0  0  0  0  0  0
  2  1  2  6  0  0  0
  2  5  1  0  0  0  0
  3  2  1  0  0  0  0
  4  3  1  0  0  0  0
  5  8  1  0  0  0  0
  6  7  1  0  0  0  0
  6  9  1  1  0  0  0
  6 15  1  0  0  0  0
  7 10  1  0  0  0  0
  7 11  1  0  0  0  0
  8 12  1  6  0  0  0
  8  6  1  0  0  0  0
  8  7  1  0  0  0  0
 13 18  1  0  0  0  0
 14 15  1  0  0  0  0
 14 13  2  0  0  0  0
 15 16  2  0  0  0  0
 16 17  1  0  0  0  0
 17 21  1  0  0  0  0
 18 17  2  0  0  0  0
 19 13  1  0  0  0  0
 20 14  1  0  0  0  0
 22  2  1  0  0  0  0
 22 23  1  0  0  0  0
 23 24  2  0  0  0  0
 23 28  1  0  0  0  0
 24 25  1  0  0  0  0
 25 30  1  0  0  0  0
 25 26  2  0  0  0  0
 26 31  1  0  0  0  0
 27 26  1  0  0  0  0
 27 32  1  0  0  0  0
 28 27  2  0  0  0  0
 29 24  1  0  0  0  0
 32 33  1  0  0  0  0
 34 32  1  0  0  0  0
 34 35  1  0  0  0  0
 36 34  1  0  0  0  0
 37 34  1  0  0  0  0
 37 38  1  0  0  0  0
M  END
>  <minimizedAffinity>
-5.31407881

$$$$

 OpenBabel03252501093D

 38 40  0  0  1  0  0  0  0  0999 V2000
   36.3770   27.7890   37.9610 O   0  0  0  0  0  0  0  0  0  0  0  0
   37.4220   28.6340   38.6900 P   0  0  2  0  0  0  0  0  0  0  0  0
   38.8010   28.5900   37.7110 O   0  0  0  0  0  0  0  0  0  0  0  0
   38.7360   29.2100   36.9510 H   0  0  0  0  0  0  0  0  0  0  0  0
   37.6550   28.1420   40.2320 O   0  0  0  0  0  0  0  0  0  0  0  0
   36.6610   27.7730   42.4100 C   0  0  1  0  0  0  0  0  0  0  0  0
   37.3160   29.0820   42.5270 C   0  0  0  0  0  0  0  0  0  0  0  0
   36.7870   28.5550   41.1810 C   0  0  1  0  0  0  0  0  0  0  0  0
   35.6410   27.5450   42.8000 H   0  0  0  0  0  0  0  0  0  0  0  0
   36.7340   29.8550   43.0650 H   0  0  0  0  0  0  0  0  0  0  0  0
   38.4150   29.1500   42.5530 H   0  0  0  0  0  0  0  0  0  0  0  0
   35.9410   29.1790   40.8420 H   0  0  0  0  0  0  0  0  0  0  0  0
   38.0060   24.2360   42.2380 C   0  0  0  0  0  0  0  0  0  0  0  0
   37.1500   25.3230   42.0940 C   0  0  0  0  0  0  0  0  0  0  0  0
   37.5760   26.5870   42.5420 C   0  0  0  0  0  0  0  0  0  0  0  0
   38.8070   26.7130   43.1000 N   0  0  0  0  0  0  0  0  0  0  0  0
   39.6230   25.6320   43.2260 C   0  0  0  0  0  0  0  0  0  0  0  0
   39.2200   24.3950   42.7950 N   0  0  0  0  0  0  0  0  0  0  0  0
   37.6650   23.2720   41.8900 H   0  0  0  0  0  0  0  0  0  0  0  0
   36.2000   25.1600   41.6480 H   0  0  0  0  0  0  0  0  0  0  0  0
   40.5920   25.8090   43.6820 H   0  0  0  0  0  0  0  0  0  0  0  0
   36.8240   30.2010   38.6350 O   0  0  0  0  0  0  0  0  0  0  0  0
   37.5400   31.3280   39.0320 C   0  0  0  0  0  0  0  0  0  0  0  0
   37.0510   32.5150   39.5400 C   0  0  0  0  0  0  0  0  0  0  0  0
   37.8690   33.5390   39.8880 C   0  0  0  0  0  0  0  0  0  0  0  0
   39.2230   33.4040   39.7360 C   0  0  0  0  0  0  0  0  0  0  0  0
   39.6850   32.2030   39.2240 C   0  0  0  0  0  0  0  0  0  0  0  0
   38.8520   31.1930   38.8830 N   0  0  0  0  0  0  0  0  0  0  0  0
   35.9650   32.5450   39.6300 H   0  0  0  0  0  0  0  0  0  0  0  0
   37.4090   34.4390   40.2790 H   0  0  0  0  0  0  0  0  0  0  0  0
   39.8550   34.2130   40.0120 H   0  0  0  0  0  0  0  0  0  0  0  0
   41.0670   31.9670   39.0300 N   0  0  0  0  0  0  0  0  0  0  0  0
   41.7880   32.1990   39.7180 H   0  0  0  0  0  0  0  0  0  0  0  0
   42.0300   31.3020   37.7800 S   0  0  0  0  0  0  0  0  0  0  0  0
   43.2400   30.5530   38.3120 O   0  0  0  0  0  1  0  0  0  0  0  0
   42.5590   32.4140   36.9260 O   0  0  0  0  0  1  0  0  0  0  0  0
   41.0840   30.2500   36.8400 O   0  0  0  0  0  0  0  0  0  0  0  0
   41.6970   29.5350   36.5380 H   0  0  0  0  0  0  0  0  0  0  0  0
  2  1  2  6  0  0  0
  2  5  1  0  0  0  0
  3  2  1  0  0  0  0
  4  3  1  0  0  0  0
  5  8  1  0  0  0  0
  6  7  1  0  0  0  0
  6 15  1  0  0  0  0
  6  9  1  1  0  0  0
  7 11  1  0  0  0  0
  7 10  1  0  0  0  0
  8 12  1  6  0  0  0
  8  6  1  0  0  0  0
  8  7  1  0  0  0  0
 13 18  1  0  0  0  0
 14 13  2  0  0  0  0
 14 15  1  0  0  0  0
 15 16  2  0  0  0  0
 16 17  1  0  0  0  0
 17 21  1  0  0  0  0
 18 17  2  0  0  0  0
 19 13  1  0  0  0  0
 20 14  1  0  0  0  0
 22  2  1  0  0  0  0
 22 23  1  0  0  0  0
 23 24  1  0  0  0  0
 24 29  1  0  0  0  0
 24 25  2  0  0  0  0
 25 30  1  0  0  0  0
 26 25  1  0  0  0  0
 26 31  1  0  0  0  0
 27 26  2  0  0  0  0
 28 23  2  0  0  0  0
 28 27  1  0  0  0  0
 32 27  1  0  0  0  0
 32 33  1  0  0  0  0
 34 35  1  0  0  0  0
 34 32  1  0  0  0  0
 36 34  1  0  0  0  0
 37 34  1  0  0  0  0
 38 37  1  0  0  0  0
M  END
>  <minimizedAffinity>
-5.28054142

$$$$
