
     RDKit          3D

 35 36  0  0  0  0  0  0  0  0999 V2000
   41.9024   35.2491   41.5357 C   0  0  0  0  0  0  0  0  0  0  0  0
   40.9731   36.1056   40.7375 C   0  0  0  0  0  0  0  0  0  0  0  0
   41.7778   36.2744   37.8005 Cl  0  0  0  0  0  0  0  0  0  0  0  0
   40.4665   35.2998   38.4074 C   0  0  0  0  0  0  0  0  0  0  0  0
   40.1775   35.2918   39.7769 C   0  0  0  0  0  0  0  0  0  0  0  0
   39.1270   34.4957   40.1715 C   0  0  0  0  0  0  0  0  0  0  0  0
   38.3314   33.7061   39.3551 C   0  0  0  0  0  0  0  0  0  0  0  0
   38.6444   33.7357   37.9966 C   0  0  0  0  0  0  0  0  0  0  0  0
   37.6969   32.7699   36.8723 Cl  0  0  0  0  0  0  0  0  0  0  0  0
   39.6835   34.5138   37.5506 C   0  0  0  0  0  0  0  0  0  0  0  0
   43.5201   35.0779   40.7820 S   0  0  0  0  0  0  0  0  0  0  0  0
   44.8130   34.7211   41.9800 C   0  0  0  0  0  0  0  0  0  0  0  0
   46.1064   34.5630   41.4862 C   0  0  0  0  0  0  0  0  0  0  0  0
   47.1310   34.2867   42.3804 C   0  0  0  0  0  0  0  0  0  0  0  0
   46.8246   34.1823   43.7048 N   0  0  0  0  0  0  0  0  0  0  0  0
   45.5772   34.3378   44.1555 C   0  0  0  0  0  0  0  0  0  0  0  0
   44.5722   34.6058   43.3039 N   0  0  0  0  0  0  0  0  0  0  0  0
   45.3323   34.2097   45.5942 C   0  0  0  0  0  0  0  0  0  0  0  0
   44.5387   35.0487   46.1252 O   0  0  0  0  0  0  0  0  0  0  0  0
   42.0306   35.7589   42.5233 H   0  0  0  0  0  0  0  0  0  0  0  0
   41.4186   34.2824   41.7888 H   0  0  0  0  0  0  0  0  0  0  0  0
   41.6083   36.8057   40.1198 H   0  0  0  0  0  0  0  0  0  0  0  0
   40.3263   36.7697   41.3495 H   0  0  0  0  0  0  0  0  0  0  0  0
   38.9366   34.5184   41.2412 H   0  0  0  0  0  0  0  0  0  0  0  0
   37.5286   33.1142   39.7550 H   0  0  0  0  0  0  0  0  0  0  0  0
   39.8807   34.4974   36.4855 H   0  0  0  0  0  0  0  0  0  0  0  0
   46.3942   34.6373   40.4444 H   0  0  0  0  0  0  0  0  0  0  0  0
   48.1481   34.1572   42.0361 H   0  0  0  0  0  0  0  0  0  0  0  0
   45.9941   33.1645   46.2901 N   0  0  0  0  0  0  0  0  0  0  0  0
   47.0151   32.9996   46.1049 H   0  0  0  0  0  0  0  0  0  0  0  0
   45.0828   32.2269   47.3984 S   0  0  0  0  0  0  0  0  0  0  0  0
   43.9085   31.5423   46.7875 O   0  0  0  0  0  0  0  0  0  0  0  0
   44.5673   33.0661   48.5491 O   0  0  0  0  0  0  0  0  0  0  0  0
   46.1311   31.0704   48.0667 O   0  0  0  0  0  0  0  0  0  0  0  0
   46.8977   30.9177   47.4360 H   0  0  0  0  0  0  0  0  0  0  0  0
  2  1  1  0
  3  4  1  0
  4  5  2  0
  5  6  1  0
  5  2  1  0
  7  6  2  0
  8  7  1  0
  9  8  1  0
 10  8  2  0
 10  4  1  0
 11  1  1  0
 11 12  1  0
 12 17  1  0
 13 12  2  0
 13 14  1  0
 14 15  2  0
 15 16  1  0
 16 18  1  0
 17 16  2  0
 18 19  2  0
  1 20  1  0
  1 21  1  0
  2 22  1  0
  2 23  1  0
  6 24  1  0
  7 25  1  0
 10 26  1  0
 13 27  1  0
 14 28  1  0
 29 30  1  0
 29 31  1  0
 31 32  2  0
 31 33  2  0
 31 34  1  0
 34 35  1  0
 18 29  1  0
M  ISO  8  20   8  21   8  22   8  23   8  24  14  25  14  26  14  27  14
M  ISO  3  28  14  30   5  35   3
M  END
>  <DihAtoms>  (1) 
15,17,28,29

>  <DihDeg>  (1) 
7.304087339612844e-05

$$$$
