
 OpenBabel03252508013D

 27 28  0  0  1  0  0  0  0  0999 V2000
   46.2200   34.7530   43.3360 C   0  0  0  0  0  0  0  0  0  0  0  0
   45.2640   35.7730   43.6250 C   0  0  0  0  0  0  0  0  0  0  0  0
   44.5870   35.6400   44.8370 C   0  0  0  0  0  0  0  0  0  0  0  0
   44.8690   34.5840   45.6400 N   0  0  0  0  0  0  0  0  0  0  0  0
   45.8070   33.6440   45.2840 C   0  0  0  0  0  0  0  0  0  0  0  0
   46.4870   33.7050   44.1560 N   0  0  0  0  0  0  0  0  0  0  0  0
   45.1120   36.5720   42.9190 H   0  0  0  0  0  0  0  0  0  0  0  0
   43.8530   36.3890   45.0970 H   0  0  0  0  0  0  0  0  0  0  0  0
   46.0700   32.5100   46.2190 C   0  0  1  0  0  0  0  0  0  0  0  0
   46.8690   32.7710   47.4740 C   0  0  0  0  0  0  0  0  0  0  0  0
   45.3720   32.6150   47.5210 C   0  0  1  0  0  0  0  0  0  0  0  0
   46.2520   31.5650   45.6950 H   0  0  0  0  0  0  0  0  0  0  0  0
   47.5130   31.9510   47.7970 H   0  0  0  0  0  0  0  0  0  0  0  0
   47.3500   33.7570   47.5030 H   0  0  0  0  0  0  0  0  0  0  0  0
   45.0070   31.6690   47.9390 H   0  0  0  0  0  0  0  0  0  0  0  0
   44.7150   33.8730   47.8830 N   0  0  0  0  0  0  0  0  0  0  0  0
   43.6860   33.7320   47.8400 H   0  0  0  0  0  0  0  0  0  0  0  0
   45.0150   34.1880   48.8430 H   0  0  0  0  0  0  0  0  0  0  0  0
   46.9240   34.9020   42.0740 C   0  0  0  0  0  0  0  0  0  0  0  0
   48.1910   35.0730   41.9880 O   0  0  0  0  0  0  0  0  0  0  0  0
   46.1300   34.8500   40.8760 N   0  0  0  0  0  0  0  0  0  0  0  0
   45.9170   35.7390   40.3420 H   0  0  0  0  0  0  0  0  0  0  0  0
   45.5140   33.3370   40.2930 S   0  0  0  0  0  0  0  0  0  0  0  0
   44.2170   33.0520   41.0000 O   0  0  0  0  0  1  0  0  0  0  0  0
   46.5450   32.2680   40.5850 O   0  0  0  0  0  1  0  0  0  0  0  0
   45.2420   33.4250   38.6440 O   0  0  0  0  0  0  0  0  0  0  0  0
   44.3450   33.8260   38.4530 H   0  0  0  0  0  0  0  0  0  0  0  0
  1  2  2  0  0  0  0
  1  6  1  0  0  0  0
  2  3  1  0  0  0  0
  3  8  1  0  0  0  0
  3  4  2  0  0  0  0
  5  4  1  0  0  0  0
  5  9  1  0  0  0  0
  6  5  2  0  0  0  0
  7  2  1  0  0  0  0
  9 12  1  6  0  0  0
  9 10  1  0  0  0  0
  9 11  1  0  0  0  0
 10 14  1  0  0  0  0
 10 11  1  0  0  0  0
 10 13  1  0  0  0  0
 11 16  1  0  0  0  0
 11 15  1  1  0  0  0
 16 18  1  0  0  0  0
 17 16  1  0  0  0  0
 19  1  1  0  0  0  0
 20 19  2  0  0  0  0
 21 19  1  0  0  0  0
 22 21  1  0  0  0  0
 23 25  1  0  0  0  0
 23 21  1  0  0  0  0
 23 24  1  0  0  0  0
 26 23  1  0  0  0  0
 27 26  1  0  0  0  0
M  END
>  <minimizedAffinity>
-5.09773302

>  <minimizedRMSD>
0.677044749

$$$$
