
 OpenBabel03252508003D

 27 28  0  0  1  0  0  0  0  0999 V2000
   46.2740   34.7170   41.5630 C   0  0  0  0  0  0  0  0  0  0  0  0
   46.3020   35.3030   42.8640 C   0  0  0  0  0  0  0  0  0  0  0  0
   45.0630   35.6660   43.3890 C   0  0  0  0  0  0  0  0  0  0  0  0
   43.9440   35.4490   42.6550 N   0  0  0  0  0  0  0  0  0  0  0  0
   44.0060   34.8780   41.4060 C   0  0  0  0  0  0  0  0  0  0  0  0
   45.1400   34.5080   40.8460 N   0  0  0  0  0  0  0  0  0  0  0  0
   47.2470   35.4340   43.3650 H   0  0  0  0  0  0  0  0  0  0  0  0
   45.0360   36.1140   44.3720 H   0  0  0  0  0  0  0  0  0  0  0  0
   42.7320   34.6640   40.6560 C   0  0  1  0  0  0  0  0  0  0  0  0
   42.6060   33.4480   39.7690 C   0  0  0  0  0  0  0  0  0  0  0  0
   41.9390   33.5020   41.1170 C   0  0  1  0  0  0  0  0  0  0  0  0
   42.2950   35.6000   40.2920 H   0  0  0  0  0  0  0  0  0  0  0  0
   42.0160   33.5920   38.8620 H   0  0  0  0  0  0  0  0  0  0  0  0
   43.5480   32.9090   39.6100 H   0  0  0  0  0  0  0  0  0  0  0  0
   40.8500   33.6380   41.1020 H   0  0  0  0  0  0  0  0  0  0  0  0
   42.5410   32.5460   42.0500 N   0  0  0  0  0  0  0  0  0  0  0  0
   42.0920   32.6640   42.9800 H   0  0  0  0  0  0  0  0  0  0  0  0
   42.4280   31.5600   41.6980 H   0  0  0  0  0  0  0  0  0  0  0  0
   47.5690   34.3370   41.0240 C   0  0  0  0  0  0  0  0  0  0  0  0
   47.8830   34.4570   39.7880 O   0  0  0  0  0  0  0  0  0  0  0  0
   48.5270   33.8000   41.9530 N   0  0  0  0  0  0  0  0  0  0  0  0
   49.3420   34.3940   42.2760 H   0  0  0  0  0  0  0  0  0  0  0  0
   48.3590   32.1800   42.5520 S   0  0  0  0  0  0  0  0  0  0  0  0
   47.5150   31.4020   41.5800 O   0  0  0  0  0  1  0  0  0  0  0  0
   47.7070   32.2510   43.9160 O   0  0  0  0  0  1  0  0  0  0  0  0
   49.8650   31.4590   42.6840 O   0  0  0  0  0  0  0  0  0  0  0  0
   50.1490   31.0690   41.8070 H   0  0  0  0  0  0  0  0  0  0  0  0
  1  2  1  0  0  0  0
  2  7  1  0  0  0  0
  2  3  2  0  0  0  0
  3  8  1  0  0  0  0
  4  3  1  0  0  0  0
  5  4  2  0  0  0  0
  6  5  1  0  0  0  0
  6  1  2  0  0  0  0
  9 12  1  6  0  0  0
  9 11  1  0  0  0  0
  9  5  1  0  0  0  0
 10  9  1  0  0  0  0
 10 11  1  0  0  0  0
 11 15  1  1  0  0  0
 11 16  1  0  0  0  0
 13 10  1  0  0  0  0
 14 10  1  0  0  0  0
 16 17  1  0  0  0  0
 18 16  1  0  0  0  0
 19  1  1  0  0  0  0
 19 21  1  0  0  0  0
 20 19  2  0  0  0  0
 21 22  1  0  0  0  0
 21 23  1  0  0  0  0
 23 26  1  0  0  0  0
 23 25  1  0  0  0  0
 24 23  1  0  0  0  0
 27 26  1  0  0  0  0
M  END
>  <minimizedAffinity>
-4.04517317

>  <minimizedRMSD>
5.02353239

$$$$
