
 OpenBabel03252507373D

 36 39  0  0  0  0  0  0  0  0999 V2000
   45.5280   34.8360   43.5110 C   0  0  0  0  0  0  0  0  0  0  0  0
   46.2360   33.7580   44.0940 C   0  0  0  0  0  0  0  0  0  0  0  0
   46.0420   33.5250   45.4430 C   0  0  0  0  0  0  0  0  0  0  0  0
   45.2000   34.3210   46.1340 N   0  0  0  0  0  0  0  0  0  0  0  0
   44.5280   35.3520   45.5520 C   0  0  0  0  0  0  0  0  0  0  0  0
   44.6970   35.5970   44.2610 N   0  0  0  0  0  0  0  0  0  0  0  0
   46.9020   33.1230   43.5690 H   0  0  0  0  0  0  0  0  0  0  0  0
   43.8700   35.9340   46.2010 H   0  0  0  0  0  0  0  0  0  0  0  0
   46.9990   32.6970   47.5260 C   0  0  0  0  0  0  0  0  0  0  0  0
   46.6930   32.4590   46.1910 C   0  0  0  0  0  0  0  0  0  0  0  0
   47.0170   31.2340   45.6570 C   0  0  0  0  0  0  0  0  0  0  0  0
   47.6310   30.2450   46.3940 C   0  0  0  0  0  0  0  0  0  0  0  0
   48.0340   28.9890   46.0810 N   0  0  0  0  0  0  0  0  0  0  0  0
   48.5900   28.4440   47.2150 C   0  0  0  0  0  0  0  0  0  0  0  0
   48.5210   29.3580   48.1880 N   0  0  0  0  0  0  0  0  0  0  0  0
   47.9360   30.4730   47.7100 C   0  0  0  0  0  0  0  0  0  0  0  0
   47.6220   31.6910   48.2710 C   0  0  0  0  0  0  0  0  0  0  0  0
   46.8030   33.5960   48.0610 H   0  0  0  0  0  0  0  0  0  0  0  0
   46.7800   31.0500   44.6220 H   0  0  0  0  0  0  0  0  0  0  0  0
   47.9110   28.5740   45.1230 H   0  0  0  0  0  0  0  0  0  0  0  0
   48.9710   27.4280   47.1450 H   0  0  0  0  0  0  0  0  0  0  0  0
   47.8750   31.8390   49.3110 H   0  0  0  0  0  0  0  0  0  0  0  0
   45.7200   35.0760   42.1510 O   0  0  0  0  0  0  0  0  0  0  0  0
   44.6820   34.8840   41.2540 C   0  0  0  0  0  0  0  0  0  0  0  0
   45.1480   33.8370   40.5340 C   0  0  0  0  0  0  0  0  0  0  0  0
   43.7180   33.5650   39.2930 S   0  0  0  0  0  0  0  0  0  0  0  0
   42.7890   35.0040   40.0880 C   0  0  0  0  0  0  0  0  0  0  0  0
   43.5010   35.3090   40.8730 N   0  0  0  0  0  0  0  0  0  0  0  0
   45.9410   33.0390   40.2830 H   0  0  0  0  0  0  0  0  0  0  0  0
   41.5050   35.3180   39.5250 N   0  0  0  0  0  0  0  0  0  0  0  0
   41.3160   36.1360   38.9120 H   0  0  0  0  0  0  0  0  0  0  0  0
   40.2330   34.2580   39.9110 S   0  0  0  0  0  0  0  0  0  0  0  0
   40.3290   33.7050   41.3030 O   0  0  0  0  0  1  0  0  0  0  0  0
   38.8970   34.9790   39.7900 O   0  0  0  0  0  1  0  0  0  0  0  0
   40.1400   32.9500   38.8590 O   0  0  0  0  0  0  0  0  0  0  0  0
   40.5360   33.1530   37.9760 H   0  0  0  0  0  0  0  0  0  0  0  0
  1  2  2  0  0  0  0
  1  6  1  0  0  0  0
  2  3  1  0  0  0  0
  3  4  2  0  0  0  0
  3 10  1  0  0  0  0
  5  4  1  0  0  0  0
  5  8  1  0  0  0  0
  6  5  2  0  0  0  0
  7  2  1  0  0  0  0
  9 18  1  0  0  0  0
  9 17  1  0  0  0  0
 10  9  2  0  0  0  0
 11 10  1  0  0  0  0
 11 12  2  0  0  0  0
 12 16  1  0  0  0  0
 13 12  1  0  0  0  0
 13 14  1  0  0  0  0
 14 15  2  0  0  0  0
 16 15  1  0  0  0  0
 16 17  2  0  0  0  0
 17 22  1  0  0  0  0
 19 11  1  0  0  0  0
 20 13  1  0  0  0  0
 21 14  1  0  0  0  0
 23  1  1  0  0  0  0
 24 23  1  0  0  0  0
 25 24  2  0  0  0  0
 26 27  1  0  0  0  0
 26 25  1  0  0  0  0
 27 28  2  0  0  0  0
 28 24  1  0  0  0  0
 29 25  1  0  0  0  0
 30 32  1  0  0  0  0
 30 27  1  0  0  0  0
 31 30  1  0  0  0  0
 32 33  1  0  0  0  0
 34 32  1  0  0  0  0
 35 32  1  0  0  0  0
 36 35  1  0  0  0  0
M  END
>  <minimizedAffinity>
-6.19288301

>  <minimizedRMSD>
0.318142861

$$$$
