
 OpenBabel03242513063D

 39 42  0  0  0  0  0  0  0  0999 V2000
   45.9850   33.1760   41.6230 C   0  0  0  0  0  0  0  0  0  0  0  0
   47.1530   33.8760   41.3070 C   0  0  0  0  0  0  0  0  0  0  0  0
   48.1260   33.9540   42.2900 C   0  0  0  0  0  0  0  0  0  0  0  0
   47.8660   33.3440   43.4800 N   0  0  0  0  0  0  0  0  0  0  0  0
   46.7440   32.6780   43.7650 C   0  0  0  0  0  0  0  0  0  0  0  0
   45.7890   32.5900   42.8290 N   0  0  0  0  0  0  0  0  0  0  0  0
   45.1660   33.0560   40.9290 H   0  0  0  0  0  0  0  0  0  0  0  0
   46.8670   30.7400   45.2650 C   0  0  0  0  0  0  0  0  0  0  0  0
   46.5750   32.0670   45.0660 C   0  0  0  0  0  0  0  0  0  0  0  0
   46.1030   32.9030   46.0940 C   0  0  0  0  0  0  0  0  0  0  0  0
   45.9130   32.3970   47.3730 C   0  0  0  0  0  0  0  0  0  0  0  0
   45.4900   32.8750   48.5720 N   0  0  0  0  0  0  0  0  0  0  0  0
   45.5300   31.8430   49.4720 C   0  0  0  0  0  0  0  0  0  0  0  0
   45.9780   30.7430   48.8130 N   0  0  0  0  0  0  0  0  0  0  0  0
   46.2170   31.0620   47.5340 C   0  0  0  0  0  0  0  0  0  0  0  0
   46.6830   30.2160   46.5430 C   0  0  0  0  0  0  0  0  0  0  0  0
   47.2270   30.1180   44.4700 H   0  0  0  0  0  0  0  0  0  0  0  0
   45.8720   33.9520   45.9370 H   0  0  0  0  0  0  0  0  0  0  0  0
   45.2180   33.8900   48.6120 H   0  0  0  0  0  0  0  0  0  0  0  0
   45.2090   32.1380   50.4530 H   0  0  0  0  0  0  0  0  0  0  0  0
   46.9030   29.1750   46.7380 H   0  0  0  0  0  0  0  0  0  0  0  0
   49.3860   34.6840   42.0150 C   0  0  0  0  0  0  0  0  0  0  0  0
   49.1480   35.7860   41.1840 F   0  0  0  0  0  0  0  0  0  0  0  0
   49.9100   35.1900   43.1790 F   0  0  0  0  0  0  0  0  0  0  0  0
   50.2560   33.8200   41.3940 F   0  0  0  0  0  0  0  0  0  0  0  0
   47.2790   34.4380   40.0780 O   0  0  0  0  0  0  0  0  0  0  0  0
   47.3570   33.6960   38.9270 C   0  0  0  0  0  0  0  0  0  0  0  0
   48.3150   34.3660   38.1760 C   0  0  0  0  0  0  0  0  0  0  0  0
   48.4110   33.3570   36.6310 S   0  0  0  0  0  0  0  0  0  0  0  0
   47.1080   32.1860   37.2930 C   0  0  0  0  0  0  0  0  0  0  0  0
   46.9250   32.6670   38.2690 N   0  0  0  0  0  0  0  0  0  0  0  0
   49.0650   35.2610   38.0960 H   0  0  0  0  0  0  0  0  0  0  0  0
   46.7120   31.0830   36.4730 N   0  0  0  0  0  0  0  0  0  0  0  0
   46.6500   30.1930   36.9970 H   0  0  0  0  0  0  0  0  0  0  0  0
   46.3720   31.2040   34.8080 S   0  0  0  0  0  0  0  0  0  0  0  0
   47.6860   31.1920   34.0790 O   0  0  0  0  0  0  0  0  0  0  0  0
   45.6160   32.4620   34.4940 O   0  0  0  0  0  0  0  0  0  0  0  0
   45.4130   29.8960   34.3400 O   0  0  0  0  0  0  0  0  0  0  0  0
   44.4700   30.1870   34.2490 H   0  0  0  0  0  0  0  0  0  0  0  0
  1  6  1  0  0  0  0
  2  1  2  0  0  0  0
  2  3  1  0  0  0  0
  3  4  2  0  0  0  0
  4  5  1  0  0  0  0
  5  9  1  0  0  0  0
  6  5  2  0  0  0  0
  7  1  1  0  0  0  0
  8 16  1  0  0  0  0
  9  8  2  0  0  0  0
  9 10  1  0  0  0  0
 10 11  2  0  0  0  0
 11 15  1  0  0  0  0
 11 12  1  0  0  0  0
 12 19  1  0  0  0  0
 12 13  1  0  0  0  0
 13 20  1  0  0  0  0
 14 13  2  0  0  0  0
 15 14  1  0  0  0  0
 16 21  1  0  0  0  0
 16 15  2  0  0  0  0
 17  8  1  0  0  0  0
 18 10  1  0  0  0  0
 22  3  1  0  0  0  0
 22 24  1  0  0  0  0
 23 22  1  0  0  0  0
 25 22  1  0  0  0  0
 26  2  1  0  0  0  0
 27 26  1  0  0  0  0
 28 27  2  0  0  0  0
 29 30  1  0  0  0  0
 29 28  1  0  0  0  0
 30 31  2  0  0  0  0
 31 27  1  0  0  0  0
 32 28  1  0  0  0  0
 33 34  1  0  0  0  0
 33 30  1  0  0  0  0
 35 33  1  0  0  0  0
 36 35  1  0  0  0  0
 37 35  1  0  0  0  0
 38 35  1  0  0  0  0
 39 38  1  0  0  0  0
M  END
>  <minimizedAffinity>
-6.39006901

>  <minimizedRMSD>
0.332702667

$$$$
