
 OpenBabel03242515013D

 35 36  0  0  0  0  0  0  0  0999 V2000
   43.3810   34.7880   40.6870 S   0  0  0  0  0  0  0  0  0  0  0  0
   44.7110   34.6880   41.8930 C   0  0  0  0  0  0  0  0  0  0  0  0
   46.0140   34.7130   41.4010 C   0  0  0  0  0  0  0  0  0  0  0  0
   47.0670   34.6390   42.3010 C   0  0  0  0  0  0  0  0  0  0  0  0
   46.7780   34.5420   43.6310 N   0  0  0  0  0  0  0  0  0  0  0  0
   45.5200   34.5200   44.0800 C   0  0  0  0  0  0  0  0  0  0  0  0
   44.4870   34.5920   43.2220 N   0  0  0  0  0  0  0  0  0  0  0  0
   46.2890   34.7880   40.3550 H   0  0  0  0  0  0  0  0  0  0  0  0
   48.0930   34.6550   41.9590 H   0  0  0  0  0  0  0  0  0  0  0  0
   45.2940   34.4160   45.5230 C   0  0  0  0  0  0  0  0  0  0  0  0
   44.5290   35.2790   46.0550 O   0  0  0  0  0  0  0  0  0  0  0  0
   45.9440   33.3640   46.2220 N   0  0  0  0  0  0  0  0  0  0  0  0
   46.2050   33.5110   47.2290 H   0  0  0  0  0  0  0  0  0  0  0  0
   46.2640   31.9080   45.3770 S   0  0  0  0  0  0  0  0  0  0  0  0
   47.6120   31.8620   44.7440 O   0  0  0  0  0  1  0  0  0  0  0  0
   45.2430   31.6590   44.2860 O   0  0  0  0  0  1  0  0  0  0  0  0
   46.1150   30.6330   46.4890 O   0  0  0  0  0  0  0  0  0  0  0  0
   46.2580   30.9870   47.4170 H   0  0  0  0  0  0  0  0  0  0  0  0
   41.7680   34.9920   41.4450 C   0  0  0  0  0  0  0  0  0  0  0  0
   41.9140   35.4640   42.4480 H   0  0  0  0  0  0  0  0  0  0  0  0
   41.2510   34.0350   41.6650 H   0  0  0  0  0  0  0  0  0  0  0  0
   40.8720   35.9080   40.6740 C   0  0  0  0  0  0  0  0  0  0  0  0
   41.5330   36.6230   40.1040 H   0  0  0  0  0  0  0  0  0  0  0  0
   40.2290   36.5550   41.3080 H   0  0  0  0  0  0  0  0  0  0  0  0
   41.7170   36.2240   37.7610 Cl  0  0  0  0  0  0  0  0  0  0  0  0
   40.3840   35.2390   38.2980 C   0  0  0  0  0  0  0  0  0  0  0  0
   40.0770   35.1600   39.6620 C   0  0  0  0  0  0  0  0  0  0  0  0
   39.0100   34.3600   40.0000 C   0  0  0  0  0  0  0  0  0  0  0  0
   38.2120   33.6290   39.1310 C   0  0  0  0  0  0  0  0  0  0  0  0
   38.5430   33.7290   37.7810 C   0  0  0  0  0  0  0  0  0  0  0  0
   37.5960   32.8410   36.5930 Cl  0  0  0  0  0  0  0  0  0  0  0  0
   39.6000   34.5140   37.3900 C   0  0  0  0  0  0  0  0  0  0  0  0
   38.8070   34.3260   41.0660 H   0  0  0  0  0  0  0  0  0  0  0  0
   37.3970   33.0280   39.4880 H   0  0  0  0  0  0  0  0  0  0  0  0
   39.8100   34.5520   36.3290 H   0  0  0  0  0  0  0  0  0  0  0  0
  1 19  1  0  0  0  0
  1  2  1  0  0  0  0
  2  7  1  0  0  0  0
  3  2  2  0  0  0  0
  3  4  1  0  0  0  0
  4  5  2  0  0  0  0
  5  6  1  0  0  0  0
  6 10  1  0  0  0  0
  7  6  2  0  0  0  0
  8  3  1  0  0  0  0
  9  4  1  0  0  0  0
 10 11  2  0  0  0  0
 10 12  1  0  0  0  0
 12 13  1  0  0  0  0
 14 12  1  0  0  0  0
 14 17  1  0  0  0  0
 15 14  1  0  0  0  0
 16 14  1  0  0  0  0
 17 18  1  0  0  0  0
 19 21  1  0  0  0  0
 19 20  1  0  0  0  0
 22 24  1  0  0  0  0
 22 19  1  0  0  0  0
 23 22  1  0  0  0  0
 25 26  1  0  0  0  0
 26 27  1  0  0  0  0
 27 28  2  0  0  0  0
 27 22  1  0  0  0  0
 28 33  1  0  0  0  0
 29 34  1  0  0  0  0
 29 28  1  0  0  0  0
 30 29  2  0  0  0  0
 31 30  1  0  0  0  0
 32 30  1  0  0  0  0
 32 26  2  0  0  0  0
 35 32  1  0  0  0  0
M  END
>  <minimizedAffinity>
-6.25355721

>  <minimizedRMSD>
0.386719555

$$$$
