
 OpenBabel03252508013D

 27 28  0  0  1  0  0  0  0  0999 V2000
   39.6480   32.4070   39.7920 C   0  0  0  0  0  0  0  0  0  0  0  0
   39.0510   33.7030   39.8230 C   0  0  0  0  0  0  0  0  0  0  0  0
   37.6670   33.7350   39.6580 C   0  0  0  0  0  0  0  0  0  0  0  0
   36.9950   32.5700   39.4830 N   0  0  0  0  0  0  0  0  0  0  0  0
   37.6490   31.3610   39.4660 C   0  0  0  0  0  0  0  0  0  0  0  0
   38.9540   31.2540   39.6170 N   0  0  0  0  0  0  0  0  0  0  0  0
   39.6750   34.5700   39.9670 H   0  0  0  0  0  0  0  0  0  0  0  0
   37.1720   34.6950   39.6740 H   0  0  0  0  0  0  0  0  0  0  0  0
   36.8440   30.1180   39.2740 C   0  0  1  0  0  0  0  0  0  0  0  0
   36.9080   29.0390   40.3290 C   0  0  0  0  0  0  0  0  0  0  0  0
   35.7220   29.9620   40.2270 C   0  0  1  0  0  0  0  0  0  0  0  0
   36.8100   29.7960   38.2270 H   0  0  0  0  0  0  0  0  0  0  0  0
   36.8370   28.0160   39.9560 H   0  0  0  0  0  0  0  0  0  0  0  0
   37.6960   29.1900   41.0770 H   0  0  0  0  0  0  0  0  0  0  0  0
   34.8100   29.5160   39.8130 H   0  0  0  0  0  0  0  0  0  0  0  0
   35.6370   30.8520   41.3880 N   0  0  0  0  0  0  0  0  0  0  0  0
   34.8440   31.5090   41.2420 H   0  0  0  0  0  0  0  0  0  0  0  0
   35.5120   30.2980   42.2750 H   0  0  0  0  0  0  0  0  0  0  0  0
   41.0900   32.3820   39.9690 C   0  0  0  0  0  0  0  0  0  0  0  0
   41.7010   33.0510   40.8750 O   0  0  0  0  0  0  0  0  0  0  0  0
   41.8420   31.5540   39.0650 N   0  0  0  0  0  0  0  0  0  0  0  0
   42.7510   31.1120   39.3820 H   0  0  0  0  0  0  0  0  0  0  0  0
   41.2730   31.2720   37.4510 S   0  0  0  0  0  0  0  0  0  0  0  0
   40.5270   29.9670   37.4350 O   0  0  0  0  0  1  0  0  0  0  0  0
   42.4750   31.2300   36.5320 O   0  0  0  0  0  1  0  0  0  0  0  0
   40.2460   32.5070   36.9810 O   0  0  0  0  0  0  0  0  0  0  0  0
   39.3140   32.3350   37.3040 H   0  0  0  0  0  0  0  0  0  0  0  0
  1  2  1  0  0  0  0
  1 19  1  0  0  0  0
  2  7  1  0  0  0  0
  3  8  1  0  0  0  0
  3  2  2  0  0  0  0
  4  3  1  0  0  0  0
  5  4  2  0  0  0  0
  5  6  1  0  0  0  0
  6  1  2  0  0  0  0
  9 12  1  6  0  0  0
  9  5  1  0  0  0  0
  9 11  1  0  0  0  0
  9 10  1  0  0  0  0
 10 14  1  0  0  0  0
 11 15  1  6  0  0  0
 11 10  1  0  0  0  0
 11 16  1  0  0  0  0
 13 10  1  0  0  0  0
 16 18  1  0  0  0  0
 17 16  1  0  0  0  0
 19 20  2  0  0  0  0
 21 22  1  0  0  0  0
 21 19  1  0  0  0  0
 23 21  1  0  0  0  0
 24 23  1  0  0  0  0
 25 23  1  0  0  0  0
 26 27  1  0  0  0  0
 26 23  1  0  0  0  0
M  END
>  <minimizedAffinity>
-4.87047243

$$$$

 OpenBabel03252508013D

 27 28  0  0  1  0  0  0  0  0999 V2000
   37.8660   31.5450   39.0050 C   0  0  0  0  0  0  0  0  0  0  0  0
   37.1180   32.7160   39.3330 C   0  0  0  0  0  0  0  0  0  0  0  0
   37.8650   33.8030   39.7860 C   0  0  0  0  0  0  0  0  0  0  0  0
   39.2120   33.6840   39.8860 N   0  0  0  0  0  0  0  0  0  0  0  0
   39.8560   32.5170   39.5490 C   0  0  0  0  0  0  0  0  0  0  0  0
   39.2160   31.4500   39.1110 N   0  0  0  0  0  0  0  0  0  0  0  0
   36.0470   32.7090   39.2200 H   0  0  0  0  0  0  0  0  0  0  0  0
   37.3410   34.7100   40.0470 H   0  0  0  0  0  0  0  0  0  0  0  0
   41.3420   32.4580   39.6780 C   0  0  1  0  0  0  0  0  0  0  0  0
   42.1190   31.5580   38.7470 C   0  0  0  0  0  0  0  0  0  0  0  0
   42.0790   33.0480   38.5370 C   0  0  1  0  0  0  0  0  0  0  0  0
   41.6770   32.5140   40.7200 H   0  0  0  0  0  0  0  0  0  0  0  0
   43.0060   31.0920   39.1810 H   0  0  0  0  0  0  0  0  0  0  0  0
   41.4950   30.8730   38.1610 H   0  0  0  0  0  0  0  0  0  0  0  0
   42.9980   33.5880   38.7970 H   0  0  0  0  0  0  0  0  0  0  0  0
   41.3500   33.3960   37.3150 N   0  0  0  0  0  0  0  0  0  0  0  0
   41.2960   34.4320   37.2460 H   0  0  0  0  0  0  0  0  0  0  0  0
   41.8250   32.9850   36.4680 H   0  0  0  0  0  0  0  0  0  0  0  0
   37.0810   30.4200   38.5290 C   0  0  0  0  0  0  0  0  0  0  0  0
   36.6250   30.3320   37.3340 O   0  0  0  0  0  0  0  0  0  0  0  0
   36.8190   29.3650   39.4710 N   0  0  0  0  0  0  0  0  0  0  0  0
   36.6980   28.3690   39.1320 H   0  0  0  0  0  0  0  0  0  0  0  0
   36.6960   29.7100   41.1660 S   0  0  0  0  0  0  0  0  0  0  0  0
   38.0520   30.1270   41.6630 O   0  0  0  0  0  1  0  0  0  0  0  0
   36.2140   28.4560   41.8650 O   0  0  0  0  0  1  0  0  0  0  0  0
   35.6030   30.9520   41.4200 O   0  0  0  0  0  0  0  0  0  0  0  0
   36.0450   31.8430   41.3050 H   0  0  0  0  0  0  0  0  0  0  0  0
  1  6  2  0  0  0  0
  1  2  1  0  0  0  0
  2  3  2  0  0  0  0
  3  4  1  0  0  0  0
  3  8  1  0  0  0  0
  5  9  1  0  0  0  0
  5  4  2  0  0  0  0
  6  5  1  0  0  0  0
  7  2  1  0  0  0  0
  9 12  1  1  0  0  0
 10 13  1  0  0  0  0
 10  9  1  0  0  0  0
 11 10  1  0  0  0  0
 11 15  1  1  0  0  0
 11  9  1  0  0  0  0
 14 10  1  0  0  0  0
 16 11  1  0  0  0  0
 17 16  1  0  0  0  0
 18 16  1  0  0  0  0
 19  1  1  0  0  0  0
 19 21  1  0  0  0  0
 20 19  2  0  0  0  0
 21 23  1  0  0  0  0
 22 21  1  0  0  0  0
 23 26  1  0  0  0  0
 23 24  1  0  0  0  0
 23 25  1  0  0  0  0
 27 26  1  0  0  0  0
M  END
>  <minimizedAffinity>
-4.80995178

$$$$

 OpenBabel03252508013D

 27 28  0  0  1  0  0  0  0  0999 V2000
   38.1920   28.8800   42.2030 C   0  0  0  0  0  0  0  0  0  0  0  0
   37.2920   28.7730   43.3060 C   0  0  0  0  0  0  0  0  0  0  0  0
   36.6640   27.5370   43.4550 C   0  0  0  0  0  0  0  0  0  0  0  0
   36.9370   26.5450   42.5730 N   0  0  0  0  0  0  0  0  0  0  0  0
   37.8190   26.7320   41.5350 C   0  0  0  0  0  0  0  0  0  0  0  0
   38.4510   27.8720   41.3320 N   0  0  0  0  0  0  0  0  0  0  0  0
   37.1420   29.6230   43.9510 H   0  0  0  0  0  0  0  0  0  0  0  0
   35.9740   27.4110   44.2770 H   0  0  0  0  0  0  0  0  0  0  0  0
   38.0770   25.5940   40.6030 C   0  0  1  0  0  0  0  0  0  0  0  0
   36.9640   24.6100   40.3300 C   0  0  0  0  0  0  0  0  0  0  0  0
   37.3330   25.6680   39.3260 C   0  0  1  0  0  0  0  0  0  0  0  0
   39.0920   25.1910   40.7000 H   0  0  0  0  0  0  0  0  0  0  0  0
   37.2810   23.5770   40.1760 H   0  0  0  0  0  0  0  0  0  0  0  0
   36.0970   24.7180   40.9940 H   0  0  0  0  0  0  0  0  0  0  0  0
   37.8760   25.3140   38.4410 H   0  0  0  0  0  0  0  0  0  0  0  0
   36.2630   26.6580   39.1740 N   0  0  0  0  0  0  0  0  0  0  0  0
   36.5890   27.3990   38.5210 H   0  0  0  0  0  0  0  0  0  0  0  0
   35.3810   26.2030   38.8220 H   0  0  0  0  0  0  0  0  0  0  0  0
   38.8450   30.1690   42.0560 C   0  0  0  0  0  0  0  0  0  0  0  0
   39.7200   30.6150   42.8790 O   0  0  0  0  0  0  0  0  0  0  0  0
   38.4680   30.9640   40.9180 N   0  0  0  0  0  0  0  0  0  0  0  0
   39.1670   31.6280   40.4800 H   0  0  0  0  0  0  0  0  0  0  0  0
   36.8710   30.8450   40.2520 S   0  0  0  0  0  0  0  0  0  0  0  0
   36.7380   29.5060   39.5810 O   0  0  0  0  0  1  0  0  0  0  0  0
   36.6910   31.9780   39.2640 O   0  0  0  0  0  1  0  0  0  0  0  0
   35.7310   30.9730   41.4700 O   0  0  0  0  0  0  0  0  0  0  0  0
   35.5780   30.0850   41.9080 H   0  0  0  0  0  0  0  0  0  0  0  0
  1  2  1  0  0  0  0
  2  3  2  0  0  0  0
  2  7  1  0  0  0  0
  3  8  1  0  0  0  0
  4  3  1  0  0  0  0
  5  4  2  0  0  0  0
  6  5  1  0  0  0  0
  6  1  2  0  0  0  0
  9 12  1  6  0  0  0
  9  5  1  0  0  0  0
 10  9  1  0  0  0  0
 10 14  1  0  0  0  0
 11 15  1  6  0  0  0
 11 10  1  0  0  0  0
 11  9  1  0  0  0  0
 13 10  1  0  0  0  0
 16 11  1  0  0  0  0
 17 16  1  0  0  0  0
 18 16  1  0  0  0  0
 19  1  1  0  0  0  0
 19 20  2  0  0  0  0
 21 19  1  0  0  0  0
 22 21  1  0  0  0  0
 23 21  1  0  0  0  0
 23 26  1  0  0  0  0
 24 23  1  0  0  0  0
 25 23  1  0  0  0  0
 26 27  1  0  0  0  0
M  END
>  <minimizedAffinity>
-4.65319443

$$$$

 OpenBabel03252508013D

 27 28  0  0  1  0  0  0  0  0999 V2000
   37.9090   28.5310   40.9000 C   0  0  0  0  0  0  0  0  0  0  0  0
   37.8510   28.1370   42.2710 C   0  0  0  0  0  0  0  0  0  0  0  0
   38.3420   29.0660   43.1880 C   0  0  0  0  0  0  0  0  0  0  0  0
   38.8290   30.2480   42.7360 N   0  0  0  0  0  0  0  0  0  0  0  0
   38.8490   30.5480   41.3940 C   0  0  0  0  0  0  0  0  0  0  0  0
   38.4000   29.7210   40.4710 N   0  0  0  0  0  0  0  0  0  0  0  0
   37.4450   27.1730   42.5280 H   0  0  0  0  0  0  0  0  0  0  0  0
   38.3190   28.8100   44.2370 H   0  0  0  0  0  0  0  0  0  0  0  0
   39.3950   31.8710   40.9670 C   0  0  1  0  0  0  0  0  0  0  0  0
   39.2230   32.3010   39.5300 C   0  0  0  0  0  0  0  0  0  0  0  0
   38.3640   32.8770   40.6240 C   0  0  1  0  0  0  0  0  0  0  0  0
   40.3480   32.1100   41.4530 H   0  0  0  0  0  0  0  0  0  0  0  0
   40.0460   32.8870   39.1160 H   0  0  0  0  0  0  0  0  0  0  0  0
   38.8590   31.5070   38.8660 H   0  0  0  0  0  0  0  0  0  0  0  0
   38.5960   33.9090   40.9150 H   0  0  0  0  0  0  0  0  0  0  0  0
   36.9680   32.4550   40.4860 N   0  0  0  0  0  0  0  0  0  0  0  0
   36.4300   32.8240   41.2950 H   0  0  0  0  0  0  0  0  0  0  0  0
   36.5640   32.7970   39.5740 H   0  0  0  0  0  0  0  0  0  0  0  0
   37.3910   27.5600   39.9520 C   0  0  0  0  0  0  0  0  0  0  0  0
   38.0960   26.6110   39.4560 O   0  0  0  0  0  0  0  0  0  0  0  0
   36.0110   27.6970   39.5690 N   0  0  0  0  0  0  0  0  0  0  0  0
   35.4480   26.8410   39.3010 H   0  0  0  0  0  0  0  0  0  0  0  0
   35.2570   29.2590   39.5410 S   0  0  0  0  0  0  0  0  0  0  0  0
   33.8180   29.0810   39.1460 O   0  0  0  0  0  1  0  0  0  0  0  0
   36.0010   30.1190   38.5420 O   0  0  0  0  0  1  0  0  0  0  0  0
   35.3360   29.9600   41.0580 O   0  0  0  0  0  0  0  0  0  0  0  0
   34.5820   29.6430   41.6360 H   0  0  0  0  0  0  0  0  0  0  0  0
  1  2  1  0  0  0  0
  2  7  1  0  0  0  0
  2  3  2  0  0  0  0
  3  8  1  0  0  0  0
  4  3  1  0  0  0  0
  5  4  2  0  0  0  0
  6  1  2  0  0  0  0
  6  5  1  0  0  0  0
  9  5  1  0  0  0  0
  9 12  1  1  0  0  0
 10 11  1  0  0  0  0
 10  9  1  0  0  0  0
 11 15  1  1  0  0  0
 11  9  1  0  0  0  0
 13 10  1  0  0  0  0
 14 10  1  0  0  0  0
 16 11  1  0  0  0  0
 16 17  1  0  0  0  0
 18 16  1  0  0  0  0
 19  1  1  0  0  0  0
 20 19  2  0  0  0  0
 21 19  1  0  0  0  0
 22 21  1  0  0  0  0
 23 21  1  0  0  0  0
 23 26  1  0  0  0  0
 24 23  1  0  0  0  0
 25 23  1  0  0  0  0
 26 27  1  0  0  0  0
M  END
>  <minimizedAffinity>
-4.57831335

$$$$

 OpenBabel03252508013D

 27 28  0  0  1  0  0  0  0  0999 V2000
   38.4840   30.5080   40.0400 C   0  0  0  0  0  0  0  0  0  0  0  0
   37.1780   30.9960   39.7300 C   0  0  0  0  0  0  0  0  0  0  0  0
   36.1770   30.6640   40.6420 C   0  0  0  0  0  0  0  0  0  0  0  0
   36.4950   29.9230   41.7320 N   0  0  0  0  0  0  0  0  0  0  0  0
   37.7810   29.4920   41.9560 C   0  0  0  0  0  0  0  0  0  0  0  0
   38.7780   29.7680   41.1390 N   0  0  0  0  0  0  0  0  0  0  0  0
   37.0290   31.5770   38.8360 H   0  0  0  0  0  0  0  0  0  0  0  0
   35.1730   31.0110   40.4480 H   0  0  0  0  0  0  0  0  0  0  0  0
   38.0590   28.6830   43.1800 C   0  0  1  0  0  0  0  0  0  0  0  0
   37.0030   27.7250   43.6760 C   0  0  0  0  0  0  0  0  0  0  0  0
   38.2160   27.2320   42.9330 C   0  0  1  0  0  0  0  0  0  0  0  0
   38.6260   29.2420   43.9340 H   0  0  0  0  0  0  0  0  0  0  0  0
   36.9450   27.6130   44.7610 H   0  0  0  0  0  0  0  0  0  0  0  0
   36.0290   27.8380   43.1850 H   0  0  0  0  0  0  0  0  0  0  0  0
   38.9740   26.7280   43.5440 H   0  0  0  0  0  0  0  0  0  0  0  0
   37.8540   26.6850   41.6230 N   0  0  0  0  0  0  0  0  0  0  0  0
   38.7260   26.4170   41.1240 H   0  0  0  0  0  0  0  0  0  0  0  0
   37.2100   25.8580   41.7290 H   0  0  0  0  0  0  0  0  0  0  0  0
   39.5220   30.8620   39.0880 C   0  0  0  0  0  0  0  0  0  0  0  0
   40.0440   30.0260   38.2690 O   0  0  0  0  0  0  0  0  0  0  0  0
   39.9660   32.2300   39.0880 N   0  0  0  0  0  0  0  0  0  0  0  0
   40.3210   32.6730   38.1940 H   0  0  0  0  0  0  0  0  0  0  0  0
   39.9260   33.1680   40.5470 S   0  0  0  0  0  0  0  0  0  0  0  0
   38.6000   33.8720   40.6200 O   0  0  0  0  0  1  0  0  0  0  0  0
   41.0730   34.1550   40.5000 O   0  0  0  0  0  1  0  0  0  0  0  0
   40.0990   32.1660   41.8770 O   0  0  0  0  0  0  0  0  0  0  0  0
   39.2160   31.7750   42.1440 H   0  0  0  0  0  0  0  0  0  0  0  0
  1  6  1  0  0  0  0
  2  1  2  0  0  0  0
  2  3  1  0  0  0  0
  3  4  2  0  0  0  0
  4  5  1  0  0  0  0
  5  9  1  0  0  0  0
  6  5  2  0  0  0  0
  7  2  1  0  0  0  0
  8  3  1  0  0  0  0
  9 10  1  0  0  0  0
  9 12  1  1  0  0  0
 10 13  1  0  0  0  0
 11  9  1  0  0  0  0
 11 15  1  1  0  0  0
 11 10  1  0  0  0  0
 14 10  1  0  0  0  0
 16 18  1  0  0  0  0
 16 11  1  0  0  0  0
 17 16  1  0  0  0  0
 19 21  1  0  0  0  0
 19  1  1  0  0  0  0
 20 19  2  0  0  0  0
 21 23  1  0  0  0  0
 22 21  1  0  0  0  0
 23 24  1  0  0  0  0
 23 26  1  0  0  0  0
 25 23  1  0  0  0  0
 26 27  1  0  0  0  0
M  END
>  <minimizedAffinity>
-4.50990295

$$$$

 OpenBabel03252508013D

 27 28  0  0  1  0  0  0  0  0999 V2000
   37.5130   29.4080   39.4400 C   0  0  0  0  0  0  0  0  0  0  0  0
   36.2170   29.9000   39.0990 C   0  0  0  0  0  0  0  0  0  0  0  0
   35.1680   29.4370   39.8930 C   0  0  0  0  0  0  0  0  0  0  0  0
   35.4350   28.5760   40.9060 N   0  0  0  0  0  0  0  0  0  0  0  0
   36.7160   28.1510   41.1670 C   0  0  0  0  0  0  0  0  0  0  0  0
   37.7570   28.5470   40.4610 N   0  0  0  0  0  0  0  0  0  0  0  0
   36.1100   30.5820   38.2730 H   0  0  0  0  0  0  0  0  0  0  0  0
   34.1680   29.7820   39.6710 H   0  0  0  0  0  0  0  0  0  0  0  0
   36.9370   27.2060   42.3020 C   0  0  1  0  0  0  0  0  0  0  0  0
   38.2880   27.1810   42.9760 C   0  0  0  0  0  0  0  0  0  0  0  0
   37.1080   27.8600   43.6180 C   0  0  1  0  0  0  0  0  0  0  0  0
   36.4310   26.2450   42.1550 H   0  0  0  0  0  0  0  0  0  0  0  0
   38.6150   26.2020   43.3320 H   0  0  0  0  0  0  0  0  0  0  0  0
   39.0640   27.7470   42.4460 H   0  0  0  0  0  0  0  0  0  0  0  0
   36.6630   27.3320   44.4700 H   0  0  0  0  0  0  0  0  0  0  0  0
   37.2950   29.3130   43.6790 N   0  0  0  0  0  0  0  0  0  0  0  0
   36.4320   29.7400   44.0710 H   0  0  0  0  0  0  0  0  0  0  0  0
   38.1370   29.5560   44.2640 H   0  0  0  0  0  0  0  0  0  0  0  0
   38.6010   29.8990   38.6120 C   0  0  0  0  0  0  0  0  0  0  0  0
   39.1440   29.2100   37.6780 O   0  0  0  0  0  0  0  0  0  0  0  0
   39.0720   31.2320   38.8800 N   0  0  0  0  0  0  0  0  0  0  0  0
   39.4770   31.8190   38.0970 H   0  0  0  0  0  0  0  0  0  0  0  0
   38.9830   31.8910   40.4820 S   0  0  0  0  0  0  0  0  0  0  0  0
   37.6290   32.5190   40.6590 O   0  0  0  0  0  1  0  0  0  0  0  0
   40.0890   32.9150   40.6280 O   0  0  0  0  0  1  0  0  0  0  0  0
   39.1870   30.6760   41.6140 O   0  0  0  0  0  0  0  0  0  0  0  0
   38.3190   30.2090   41.7940 H   0  0  0  0  0  0  0  0  0  0  0  0
  1  6  1  0  0  0  0
  2  1  2  0  0  0  0
  2  3  1  0  0  0  0
  3  4  2  0  0  0  0
  4  5  1  0  0  0  0
  5  9  1  0  0  0  0
  6  5  2  0  0  0  0
  7  2  1  0  0  0  0
  8  3  1  0  0  0  0
  9 12  1  6  0  0  0
  9 10  1  0  0  0  0
  9 11  1  0  0  0  0
 10 13  1  0  0  0  0
 10 11  1  0  0  0  0
 11 16  1  0  0  0  0
 11 15  1  1  0  0  0
 14 10  1  0  0  0  0
 16 17  1  0  0  0  0
 16 18  1  0  0  0  0
 19 21  1  0  0  0  0
 19  1  1  0  0  0  0
 20 19  2  0  0  0  0
 21 23  1  0  0  0  0
 22 21  1  0  0  0  0
 23 25  1  0  0  0  0
 23 24  1  0  0  0  0
 23 26  1  0  0  0  0
 26 27  1  0  0  0  0
M  END
>  <minimizedAffinity>
-4.48486519

$$$$

 OpenBabel03252508013D

 27 28  0  0  1  0  0  0  0  0999 V2000
   36.1780   28.3090   40.5940 C   0  0  0  0  0  0  0  0  0  0  0  0
   36.4470   27.4940   39.4540 C   0  0  0  0  0  0  0  0  0  0  0  0
   37.3570   26.4560   39.6550 C   0  0  0  0  0  0  0  0  0  0  0  0
   37.9130   26.2910   40.8800 N   0  0  0  0  0  0  0  0  0  0  0  0
   37.5980   27.1250   41.9270 C   0  0  0  0  0  0  0  0  0  0  0  0
   36.7460   28.1250   41.8120 N   0  0  0  0  0  0  0  0  0  0  0  0
   35.9530   27.7080   38.5210 H   0  0  0  0  0  0  0  0  0  0  0  0
   37.5910   25.8130   38.8190 H   0  0  0  0  0  0  0  0  0  0  0  0
   38.2450   26.8820   43.2520 C   0  0  1  0  0  0  0  0  0  0  0  0
   39.5410   26.1090   43.2980 C   0  0  0  0  0  0  0  0  0  0  0  0
   39.5200   27.6070   43.4520 C   0  0  1  0  0  0  0  0  0  0  0  0
   37.5160   26.6910   44.0470 H   0  0  0  0  0  0  0  0  0  0  0  0
   39.6740   25.4720   44.1750 H   0  0  0  0  0  0  0  0  0  0  0  0
   39.8100   25.6280   42.3500 H   0  0  0  0  0  0  0  0  0  0  0  0
   39.6960   27.9810   44.4670 H   0  0  0  0  0  0  0  0  0  0  0  0
   40.1560   28.2700   42.3100 N   0  0  0  0  0  0  0  0  0  0  0  0
   40.0610   29.2980   42.4310 H   0  0  0  0  0  0  0  0  0  0  0  0
   41.1680   27.9890   42.2330 H   0  0  0  0  0  0  0  0  0  0  0  0
   35.2260   29.3850   40.3770 C   0  0  0  0  0  0  0  0  0  0  0  0
   34.0320   29.1960   39.9520 O   0  0  0  0  0  0  0  0  0  0  0  0
   35.6770   30.7200   40.6640 N   0  0  0  0  0  0  0  0  0  0  0  0
   34.9870   31.4550   40.9890 H   0  0  0  0  0  0  0  0  0  0  0  0
   37.3500   31.1420   40.4820 S   0  0  0  0  0  0  0  0  0  0  0  0
   37.4610   32.6410   40.4740 O   0  0  0  0  0  1  0  0  0  0  0  0
   37.8430   30.5460   39.1800 O   0  0  0  0  0  1  0  0  0  0  0  0
   38.2390   30.5240   41.7580 O   0  0  0  0  0  0  0  0  0  0  0  0
   38.2040   31.1410   42.5460 H   0  0  0  0  0  0  0  0  0  0  0  0
  1  6  1  0  0  0  0
  2  3  1  0  0  0  0
  2  1  2  0  0  0  0
  3  4  2  0  0  0  0
  4  5  1  0  0  0  0
  5  9  1  0  0  0  0
  6  5  2  0  0  0  0
  7  2  1  0  0  0  0
  8  3  1  0  0  0  0
  9 10  1  0  0  0  0
  9 11  1  0  0  0  0
  9 12  1  1  0  0  0
 10 11  1  0  0  0  0
 10 13  1  0  0  0  0
 11 15  1  1  0  0  0
 14 10  1  0  0  0  0
 16 17  1  0  0  0  0
 16 11  1  0  0  0  0
 18 16  1  0  0  0  0
 19  1  1  0  0  0  0
 19 21  1  0  0  0  0
 20 19  2  0  0  0  0
 21 22  1  0  0  0  0
 23 21  1  0  0  0  0
 23 26  1  0  0  0  0
 24 23  1  0  0  0  0
 25 23  1  0  0  0  0
 26 27  1  0  0  0  0
M  END
>  <minimizedAffinity>
-4.48378325

$$$$

 OpenBabel03252508013D

 27 28  0  0  1  0  0  0  0  0999 V2000
   38.3480   31.7950   40.5800 C   0  0  0  0  0  0  0  0  0  0  0  0
   36.9660   31.9420   40.2510 C   0  0  0  0  0  0  0  0  0  0  0  0
   36.1730   30.8150   40.4610 C   0  0  0  0  0  0  0  0  0  0  0  0
   36.7430   29.6850   40.9470 N   0  0  0  0  0  0  0  0  0  0  0  0
   38.0860   29.6280   41.2380 C   0  0  0  0  0  0  0  0  0  0  0  0
   38.8970   30.6540   41.0670 N   0  0  0  0  0  0  0  0  0  0  0  0
   36.6100   32.8840   39.8690 H   0  0  0  0  0  0  0  0  0  0  0  0
   35.1200   30.8800   40.2250 H   0  0  0  0  0  0  0  0  0  0  0  0
   38.6460   28.3530   41.7750 C   0  0  1  0  0  0  0  0  0  0  0  0
   39.3530   28.3730   43.1090 C   0  0  0  0  0  0  0  0  0  0  0  0
   37.9520   27.8380   42.9770 C   0  0  1  0  0  0  0  0  0  0  0  0
   39.0700   27.7150   40.9910 H   0  0  0  0  0  0  0  0  0  0  0  0
   40.1940   27.6830   43.2030 H   0  0  0  0  0  0  0  0  0  0  0  0
   39.5550   29.3800   43.4950 H   0  0  0  0  0  0  0  0  0  0  0  0
   37.8540   26.7470   43.0350 H   0  0  0  0  0  0  0  0  0  0  0  0
   36.9860   28.6940   43.6700 N   0  0  0  0  0  0  0  0  0  0  0  0
   36.0310   28.3210   43.4980 H   0  0  0  0  0  0  0  0  0  0  0  0
   37.1970   28.7350   44.7020 H   0  0  0  0  0  0  0  0  0  0  0  0
   39.1660   32.9760   40.3640 C   0  0  0  0  0  0  0  0  0  0  0  0
   38.9830   34.0850   40.9790 O   0  0  0  0  0  0  0  0  0  0  0  0
   40.2300   32.8620   39.4030 N   0  0  0  0  0  0  0  0  0  0  0  0
   41.1120   33.4380   39.5160 H   0  0  0  0  0  0  0  0  0  0  0  0
   40.0840   31.7850   38.0510 S   0  0  0  0  0  0  0  0  0  0  0  0
   41.1350   32.1490   37.0400 O   0  0  0  0  0  1  0  0  0  0  0  0
   38.6900   31.9400   37.4790 O   0  0  0  0  0  1  0  0  0  0  0  0
   40.3150   30.2040   38.5500 O   0  0  0  0  0  0  0  0  0  0  0  0
   41.2910   29.9810   38.5800 H   0  0  0  0  0  0  0  0  0  0  0  0
  1  6  1  0  0  0  0
  2  3  1  0  0  0  0
  2  1  2  0  0  0  0
  3  4  2  0  0  0  0
  4  5  1  0  0  0  0
  5  9  1  0  0  0  0
  6  5  2  0  0  0  0
  7  2  1  0  0  0  0
  8  3  1  0  0  0  0
  9 12  1  6  0  0  0
  9 11  1  0  0  0  0
  9 10  1  0  0  0  0
 10 13  1  0  0  0  0
 10 14  1  0  0  0  0
 11 15  1  1  0  0  0
 11 10  1  0  0  0  0
 11 16  1  0  0  0  0
 16 18  1  0  0  0  0
 17 16  1  0  0  0  0
 19  1  1  0  0  0  0
 19 20  2  0  0  0  0
 21 22  1  0  0  0  0
 21 19  1  0  0  0  0
 23 26  1  0  0  0  0
 23 21  1  0  0  0  0
 24 23  1  0  0  0  0
 25 23  1  0  0  0  0
 26 27  1  0  0  0  0
M  END
>  <minimizedAffinity>
-4.47647953

$$$$

 OpenBabel03252508013D

 27 28  0  0  1  0  0  0  0  0999 V2000
   38.9960   28.2050   42.4350 C   0  0  0  0  0  0  0  0  0  0  0  0
   38.3300   27.6380   43.5620 C   0  0  0  0  0  0  0  0  0  0  0  0
   36.9480   27.4970   43.4390 C   0  0  0  0  0  0  0  0  0  0  0  0
   36.3420   27.8960   42.2930 N   0  0  0  0  0  0  0  0  0  0  0  0
   37.0610   28.4350   41.2530 C   0  0  0  0  0  0  0  0  0  0  0  0
   38.3680   28.5960   41.2970 N   0  0  0  0  0  0  0  0  0  0  0  0
   38.9030   27.3540   44.4280 H   0  0  0  0  0  0  0  0  0  0  0  0
   36.4010   27.0730   44.2690 H   0  0  0  0  0  0  0  0  0  0  0  0
   36.3280   28.8480   40.0180 C   0  0  1  0  0  0  0  0  0  0  0  0
   34.8380   29.0780   40.0980 C   0  0  0  0  0  0  0  0  0  0  0  0
   35.8040   30.2310   40.0520 C   0  0  1  0  0  0  0  0  0  0  0  0
   36.7140   28.3590   39.1160 H   0  0  0  0  0  0  0  0  0  0  0  0
   34.2740   28.8020   39.2050 H   0  0  0  0  0  0  0  0  0  0  0  0
   34.3820   28.7420   41.0380 H   0  0  0  0  0  0  0  0  0  0  0  0
   35.8470   30.7760   39.1010 H   0  0  0  0  0  0  0  0  0  0  0  0
   35.8130   30.9720   41.3160 N   0  0  0  0  0  0  0  0  0  0  0  0
   36.5370   31.7160   41.2580 H   0  0  0  0  0  0  0  0  0  0  0  0
   34.8630   31.3830   41.5150 H   0  0  0  0  0  0  0  0  0  0  0  0
   40.4360   28.3440   42.5690 C   0  0  0  0  0  0  0  0  0  0  0  0
   41.0150   29.4470   42.8670 O   0  0  0  0  0  0  0  0  0  0  0  0
   41.2260   27.1620   42.3490 N   0  0  0  0  0  0  0  0  0  0  0  0
   42.1470   27.0380   42.8560 H   0  0  0  0  0  0  0  0  0  0  0  0
   40.6830   25.9320   41.2530 S   0  0  0  0  0  0  0  0  0  0  0  0
   39.6940   25.0600   41.9740 O   0  0  0  0  0  1  0  0  0  0  0  0
   41.8920   25.1390   40.8030 O   0  0  0  0  0  1  0  0  0  0  0  0
   39.9440   26.6330   39.9250 O   0  0  0  0  0  0  0  0  0  0  0  0
   38.9830   26.8370   40.1210 H   0  0  0  0  0  0  0  0  0  0  0  0
  1 19  1  0  0  0  0
  1  2  1  0  0  0  0
  2  7  1  0  0  0  0
  3  2  2  0  0  0  0
  3  8  1  0  0  0  0
  4  3  1  0  0  0  0
  5  6  1  0  0  0  0
  5  4  2  0  0  0  0
  6  1  2  0  0  0  0
  9 12  1  6  0  0  0
  9 11  1  0  0  0  0
  9 10  1  0  0  0  0
  9  5  1  0  0  0  0
 10 14  1  0  0  0  0
 11 15  1  6  0  0  0
 11 10  1  0  0  0  0
 11 16  1  0  0  0  0
 13 10  1  0  0  0  0
 16 18  1  0  0  0  0
 17 16  1  0  0  0  0
 19 20  2  0  0  0  0
 21 19  1  0  0  0  0
 21 22  1  0  0  0  0
 23 24  1  0  0  0  0
 23 21  1  0  0  0  0
 25 23  1  0  0  0  0
 26 27  1  0  0  0  0
 26 23  1  0  0  0  0
M  END
>  <minimizedAffinity>
-4.45713663

$$$$
