
 OpenBabel03252501323D

 22 22  0  0  0  0  0  0  0  0999 V2000
   45.2860   34.9740   44.0620 C   0  0  0  0  0  0  0  0  0  0  0  0
   45.2460   34.5590   45.3830 C   0  0  0  0  0  0  0  0  0  0  0  0
   46.1840   33.6100   45.7710 C   0  0  0  0  0  0  0  0  0  0  0  0
   47.0550   33.1630   44.8490 N   0  0  0  0  0  0  0  0  0  0  0  0
   47.0740   33.5760   43.5810 C   0  0  0  0  0  0  0  0  0  0  0  0
   46.1820   34.4980   43.1610 N   0  0  0  0  0  0  0  0  0  0  0  0
   46.1340   33.3060   46.7920 H   0  0  0  0  0  0  0  0  0  0  0  0
   47.7650   33.2300   42.8230 H   0  0  0  0  0  0  0  0  0  0  0  0
   43.5090   35.2600   42.5660 C   0  0  0  0  0  0  0  0  0  0  0  0
   43.7090   34.0120   42.5580 O   0  0  0  0  0  0  0  0  0  0  0  0
   44.4140   35.9440   43.4480 N   0  0  0  0  0  0  0  0  0  0  0  0
   44.3800   36.9570   43.5660 H   0  0  0  0  0  0  0  0  0  0  0  0
   42.5200   35.9800   41.8160 N   0  0  0  0  0  0  0  0  0  0  0  0
   42.3160   36.9680   42.1030 H   0  0  0  0  0  0  0  0  0  0  0  0
   41.7660   35.1550   40.5210 S   0  0  0  0  0  0  0  0  0  0  0  0
   40.9990   33.9590   41.0550 O   0  0  0  0  0  1  0  0  0  0  0  0
   42.7160   34.7310   39.4430 O   0  0  0  0  0  1  0  0  0  0  0  0
   40.6070   36.1730   39.8550 O   0  0  0  0  0  0  0  0  0  0  0  0
   40.2410   36.7050   40.6070 H   0  0  0  0  0  0  0  0  0  0  0  0
   44.2500   35.1550   46.1920 N   0  0  0  0  0  0  0  0  0  0  0  0
   44.3480   35.9900   46.7790 H   0  0  0  0  0  0  0  0  0  0  0  0
   43.2760   34.7580   46.2510 H   0  0  0  0  0  0  0  0  0  0  0  0
  1  2  1  0  0  0  0
  2  3  2  0  0  0  0
  2 20  1  0  0  0  0
  3  7  1  0  0  0  0
  4  3  1  0  0  0  0
  5  4  2  0  0  0  0
  6  5  1  0  0  0  0
  6  1  2  0  0  0  0
  8  5  1  0  0  0  0
  9 11  1  0  0  0  0
 10  9  2  0  0  0  0
 11 12  1  0  0  0  0
 11  1  1  0  0  0  0
 13 14  1  0  0  0  0
 13  9  1  0  0  0  0
 15 16  1  0  0  0  0
 15 13  1  0  0  0  0
 17 15  1  0  0  0  0
 18 15  1  0  0  0  0
 18 19  1  0  0  0  0
 20 22  1  0  0  0  0
 20 21  1  0  0  0  0
M  END
>  <minimizedAffinity>
-4.89498377

>  <minimizedRMSD>
1.24924731

$$$$
