
 OpenBabel03242515013D

 35 36  0  0  0  0  0  0  0  0999 V2000
   43.8350   34.6230   40.7610 S   0  0  0  0  0  0  0  0  0  0  0  0
   45.1410   34.3700   41.9710 C   0  0  0  0  0  0  0  0  0  0  0  0
   46.4280   34.7580   41.6030 C   0  0  0  0  0  0  0  0  0  0  0  0
   47.4620   34.5790   42.5110 C   0  0  0  0  0  0  0  0  0  0  0  0
   47.1710   34.0300   43.7250 N   0  0  0  0  0  0  0  0  0  0  0  0
   45.9290   33.6660   44.0570 C   0  0  0  0  0  0  0  0  0  0  0  0
   44.9150   33.8320   43.1900 N   0  0  0  0  0  0  0  0  0  0  0  0
   46.7040   35.1960   40.6520 H   0  0  0  0  0  0  0  0  0  0  0  0
   48.4740   34.8660   42.2630 H   0  0  0  0  0  0  0  0  0  0  0  0
   45.7010   33.0840   45.3810 C   0  0  0  0  0  0  0  0  0  0  0  0
   45.6310   33.8860   46.3640 O   0  0  0  0  0  0  0  0  0  0  0  0
   45.5740   31.6720   45.4730 N   0  0  0  0  0  0  0  0  0  0  0  0
   44.9720   31.2660   46.2320 H   0  0  0  0  0  0  0  0  0  0  0  0
   46.4180   30.7090   44.3350 S   0  0  0  0  0  0  0  0  0  0  0  0
   47.8710   31.0250   44.2340 O   0  0  0  0  0  1  0  0  0  0  0  0
   45.8300   30.8410   42.9450 O   0  0  0  0  0  1  0  0  0  0  0  0
   46.2200   29.0870   44.7980 O   0  0  0  0  0  0  0  0  0  0  0  0
   46.0150   29.0480   45.7800 H   0  0  0  0  0  0  0  0  0  0  0  0
   42.2210   34.8320   41.5130 C   0  0  0  0  0  0  0  0  0  0  0  0
   42.3700   35.2210   42.5510 H   0  0  0  0  0  0  0  0  0  0  0  0
   41.6630   33.8830   41.6540 H   0  0  0  0  0  0  0  0  0  0  0  0
   41.3720   35.8390   40.8040 C   0  0  0  0  0  0  0  0  0  0  0  0
   42.0630   36.4910   40.1950 H   0  0  0  0  0  0  0  0  0  0  0  0
   40.8360   36.5390   41.4790 H   0  0  0  0  0  0  0  0  0  0  0  0
   42.0670   36.0860   37.8450 Cl  0  0  0  0  0  0  0  0  0  0  0  0
   40.6760   35.2370   38.4610 C   0  0  0  0  0  0  0  0  0  0  0  0
   40.4460   35.1820   39.8410 C   0  0  0  0  0  0  0  0  0  0  0  0
   39.3250   34.4920   40.2440 C   0  0  0  0  0  0  0  0  0  0  0  0
   38.4070   33.8500   39.4250 C   0  0  0  0  0  0  0  0  0  0  0  0
   38.6630   33.9240   38.0570 C   0  0  0  0  0  0  0  0  0  0  0  0
   37.5610   33.1440   36.9290 Cl  0  0  0  0  0  0  0  0  0  0  0  0
   39.7690   34.6010   37.6030 C   0  0  0  0  0  0  0  0  0  0  0  0
   39.1840   34.4720   41.3200 H   0  0  0  0  0  0  0  0  0  0  0  0
   37.5570   33.3330   39.8310 H   0  0  0  0  0  0  0  0  0  0  0  0
   39.9170   34.6240   36.5310 H   0  0  0  0  0  0  0  0  0  0  0  0
  1 19  1  0  0  0  0
  1  2  1  0  0  0  0
  2  7  1  0  0  0  0
  3  2  2  0  0  0  0
  3  4  1  0  0  0  0
  4  5  2  0  0  0  0
  5  6  1  0  0  0  0
  6 10  1  0  0  0  0
  7  6  2  0  0  0  0
  8  3  1  0  0  0  0
  9  4  1  0  0  0  0
 10 12  1  0  0  0  0
 10 11  2  0  0  0  0
 12 13  1  0  0  0  0
 14 17  1  0  0  0  0
 14 12  1  0  0  0  0
 15 14  1  0  0  0  0
 16 14  1  0  0  0  0
 17 18  1  0  0  0  0
 19 21  1  0  0  0  0
 19 20  1  0  0  0  0
 22 24  1  0  0  0  0
 22 19  1  0  0  0  0
 23 22  1  0  0  0  0
 25 26  1  0  0  0  0
 26 27  1  0  0  0  0
 27 28  2  0  0  0  0
 27 22  1  0  0  0  0
 28 33  1  0  0  0  0
 29 34  1  0  0  0  0
 29 28  1  0  0  0  0
 30 29  2  0  0  0  0
 31 30  1  0  0  0  0
 32 30  1  0  0  0  0
 32 26  2  0  0  0  0
 35 32  1  0  0  0  0
M  END
>  <minimizedAffinity>
-5.78992271

>  <minimizedRMSD>
1.37995684

$$$$
