
 OpenBabel03242516533D

 43 45  0  0  1  0  0  0  0  0999 V2000
   47.8450   32.8840   41.8350 C   0  0  1  0  0  0  0  0  0  0  0  0
   47.5380   32.2240   40.5670 C   0  0  0  0  0  0  0  0  0  0  0  0
   48.5610   32.7410   39.5590 C   0  0  0  0  0  0  0  0  0  0  0  0
   48.2110   34.2010   39.2980 C   0  0  0  0  0  0  0  0  0  0  0  0
   48.1240   35.0410   40.5360 C   0  0  0  0  0  0  0  0  0  0  0  0
   47.6320   34.3990   41.7620 C   0  0  1  0  0  0  0  0  0  0  0  0
   48.9610   32.8080   42.0210 H   0  0  0  0  0  0  0  0  0  0  0  0
   46.5510   32.5200   40.1300 H   0  0  0  0  0  0  0  0  0  0  0  0
   47.6690   31.1460   40.6360 H   0  0  0  0  0  0  0  0  0  0  0  0
   48.3270   32.2020   38.6060 H   0  0  0  0  0  0  0  0  0  0  0  0
   49.5840   32.6010   39.9050 H   0  0  0  0  0  0  0  0  0  0  0  0
   48.9440   34.6120   38.5920 H   0  0  0  0  0  0  0  0  0  0  0  0
   47.2230   34.1840   38.7800 H   0  0  0  0  0  0  0  0  0  0  0  0
   49.1310   35.5310   40.6740 H   0  0  0  0  0  0  0  0  0  0  0  0
   47.4480   35.8880   40.2850 H   0  0  0  0  0  0  0  0  0  0  0  0
   48.2340   34.8080   42.6290 H   0  0  0  0  0  0  0  0  0  0  0  0
   45.4260   30.9570   44.0080 C   0  0  0  0  0  0  0  0  0  0  0  0
   46.1070   31.4990   42.9130 C   0  0  0  0  0  0  0  0  0  0  0  0
   47.2020   32.3620   43.0230 C   0  0  0  0  0  0  0  0  0  0  0  0
   47.5800   32.6550   44.2680 N   0  0  0  0  0  0  0  0  0  0  0  0
   46.9320   32.1390   45.3430 C   0  0  0  0  0  0  0  0  0  0  0  0
   45.8910   31.3180   45.2410 N   0  0  0  0  0  0  0  0  0  0  0  0
   44.5940   30.3010   43.8480 H   0  0  0  0  0  0  0  0  0  0  0  0
   45.7350   31.2090   41.9390 H   0  0  0  0  0  0  0  0  0  0  0  0
   47.3410   32.4580   46.3060 H   0  0  0  0  0  0  0  0  0  0  0  0
   46.2490   34.7660   42.0680 C   0  0  0  0  0  0  0  0  0  0  0  0
   45.7940   35.3580   43.2550 C   0  0  0  0  0  0  0  0  0  0  0  0
   44.4250   35.6330   43.3130 C   0  0  0  0  0  0  0  0  0  0  0  0
   43.6500   35.3060   42.2220 C   0  0  0  0  0  0  0  0  0  0  0  0
   44.1170   34.7250   41.0640 C   0  0  0  0  0  0  0  0  0  0  0  0
   45.4520   34.4570   41.0120 N   0  0  0  0  0  0  0  0  0  0  0  0
   46.5160   35.5460   44.0010 H   0  0  0  0  0  0  0  0  0  0  0  0
   44.0570   36.0890   44.2160 H   0  0  0  0  0  0  0  0  0  0  0  0
   42.5940   35.5520   42.3410 H   0  0  0  0  0  0  0  0  0  0  0  0
   43.2150   34.4170   39.9460 C   0  0  0  0  0  0  0  0  0  0  0  0
   42.6110   35.3730   39.3930 O   0  0  0  0  0  0  0  0  0  0  0  0
   43.0210   33.0790   39.4950 N   0  0  0  0  0  0  0  0  0  0  0  0
   43.8170   32.6940   38.9400 H   0  0  0  0  0  0  0  0  0  0  0  0
   41.5100   32.3910   39.9660 S   0  0  0  0  0  0  0  0  0  0  0  0
   41.2190   32.6310   41.4180 O   0  0  0  0  0  1  0  0  0  0  0  0
   40.3710   32.8500   39.1000 O   0  0  0  0  0  1  0  0  0  0  0  0
   41.6480   30.7160   39.7050 O   0  0  0  0  0  0  0  0  0  0  0  0
   41.3940   30.4880   38.7750 H   0  0  0  0  0  0  0  0  0  0  0  0
  1  7  1  1  0  0  0
  1 19  1  0  0  0  0
  2  9  1  0  0  0  0
  2  1  1  0  0  0  0
  3 11  1  0  0  0  0
  3  2  1  0  0  0  0
  4  3  1  0  0  0  0
  4  5  1  0  0  0  0
  5 14  1  0  0  0  0
  5  6  1  0  0  0  0
  6  1  1  0  0  0  0
  6 26  1  0  0  0  0
  6 16  1  1  0  0  0
  8  2  1  0  0  0  0
 10  3  1  0  0  0  0
 12  4  1  0  0  0  0
 13  4  1  0  0  0  0
 15  5  1  0  0  0  0
 17 22  1  0  0  0  0
 18 19  1  0  0  0  0
 18 17  2  0  0  0  0
 19 20  2  0  0  0  0
 20 21  1  0  0  0  0
 21 25  1  0  0  0  0
 22 21  2  0  0  0  0
 23 17  1  0  0  0  0
 24 18  1  0  0  0  0
 26 27  1  0  0  0  0
 27 28  2  0  0  0  0
 27 32  1  0  0  0  0
 28 33  1  0  0  0  0
 29 34  1  0  0  0  0
 29 28  1  0  0  0  0
 30 29  2  0  0  0  0
 31 30  1  0  0  0  0
 31 26  2  0  0  0  0
 35 30  1  0  0  0  0
 36 35  2  0  0  0  0
 37 35  1  0  0  0  0
 37 39  1  0  0  0  0
 38 37  1  0  0  0  0
 39 40  1  0  0  0  0
 41 39  1  0  0  0  0
 42 39  1  0  0  0  0
 43 42  1  0  0  0  0
M  END
>  <minimizedAffinity>
-5.24659395

>  <minimizedRMSD>
0.467933714

$$$$
