
 OpenBabel03242515013D

 35 36  0  0  0  0  0  0  0  0999 V2000
   43.5840   34.8870   40.7540 S   0  0  0  0  0  0  0  0  0  0  0  0
   44.9180   34.6040   41.9260 C   0  0  0  0  0  0  0  0  0  0  0  0
   46.1930   34.4140   41.3990 C   0  0  0  0  0  0  0  0  0  0  0  0
   47.2490   34.1930   42.2720 C   0  0  0  0  0  0  0  0  0  0  0  0
   46.9890   34.1720   43.6110 N   0  0  0  0  0  0  0  0  0  0  0  0
   45.7570   34.3570   44.0940 C   0  0  0  0  0  0  0  0  0  0  0  0
   44.7230   34.5720   43.2620 N   0  0  0  0  0  0  0  0  0  0  0  0
   46.4450   34.4220   40.3450 H   0  0  0  0  0  0  0  0  0  0  0  0
   48.2540   34.0410   41.9020 H   0  0  0  0  0  0  0  0  0  0  0  0
   45.5620   34.3190   45.5450 C   0  0  0  0  0  0  0  0  0  0  0  0
   44.5540   34.9360   46.0120 O   0  0  0  0  0  0  0  0  0  0  0  0
   46.5080   33.6010   46.3240 N   0  0  0  0  0  0  0  0  0  0  0  0
   47.3520   34.1100   46.6900 H   0  0  0  0  0  0  0  0  0  0  0  0
   46.2150   31.9400   46.6230 S   0  0  0  0  0  0  0  0  0  0  0  0
   45.7750   31.1780   45.4210 O   0  0  0  0  0  1  0  0  0  0  0  0
   45.1610   31.7410   47.6930 O   0  0  0  0  0  1  0  0  0  0  0  0
   47.6550   31.2710   47.2250 O   0  0  0  0  0  0  0  0  0  0  0  0
   48.4300   31.8350   46.9250 H   0  0  0  0  0  0  0  0  0  0  0  0
   41.9950   35.1210   41.5520 C   0  0  0  0  0  0  0  0  0  0  0  0
   42.1730   35.6110   42.5410 H   0  0  0  0  0  0  0  0  0  0  0  0
   41.4750   34.1740   41.8050 H   0  0  0  0  0  0  0  0  0  0  0  0
   41.0870   36.0300   40.7880 C   0  0  0  0  0  0  0  0  0  0  0  0
   41.7380   36.7280   40.1860 H   0  0  0  0  0  0  0  0  0  0  0  0
   40.4660   36.6950   41.4260 H   0  0  0  0  0  0  0  0  0  0  0  0
   41.8850   36.2420   37.8520 Cl  0  0  0  0  0  0  0  0  0  0  0  0
   40.5410   35.3020   38.4410 C   0  0  0  0  0  0  0  0  0  0  0  0
   40.2580   35.2700   39.8120 C   0  0  0  0  0  0  0  0  0  0  0  0
   39.1800   34.5040   40.1930 C   0  0  0  0  0  0  0  0  0  0  0  0
   38.3520   33.7650   39.3600 C   0  0  0  0  0  0  0  0  0  0  0  0
   38.6600   33.8170   38.0020 C   0  0  0  0  0  0  0  0  0  0  0  0
   37.6730   32.9150   36.8580 Cl  0  0  0  0  0  0  0  0  0  0  0  0
   39.7260   34.5670   37.5700 C   0  0  0  0  0  0  0  0  0  0  0  0
   38.9950   34.5060   41.2630 H   0  0  0  0  0  0  0  0  0  0  0  0
   37.5300   33.1930   39.7500 H   0  0  0  0  0  0  0  0  0  0  0  0
   39.9170   34.5700   36.5040 H   0  0  0  0  0  0  0  0  0  0  0  0
  1 19  1  0  0  0  0
  1  2  1  0  0  0  0
  2  7  1  0  0  0  0
  3  2  2  0  0  0  0
  3  4  1  0  0  0  0
  4  5  2  0  0  0  0
  5  6  1  0  0  0  0
  6 10  1  0  0  0  0
  7  6  2  0  0  0  0
  8  3  1  0  0  0  0
  9  4  1  0  0  0  0
 10 11  2  0  0  0  0
 10 12  1  0  0  0  0
 12 14  1  0  0  0  0
 12 13  1  0  0  0  0
 14 17  1  0  0  0  0
 14 16  1  0  0  0  0
 15 14  1  0  0  0  0
 18 17  1  0  0  0  0
 19 21  1  0  0  0  0
 19 20  1  0  0  0  0
 22 24  1  0  0  0  0
 22 19  1  0  0  0  0
 23 22  1  0  0  0  0
 25 26  1  0  0  0  0
 26 27  1  0  0  0  0
 27 28  2  0  0  0  0
 27 22  1  0  0  0  0
 28 33  1  0  0  0  0
 29 34  1  0  0  0  0
 29 28  1  0  0  0  0
 30 29  2  0  0  0  0
 31 30  1  0  0  0  0
 32 30  1  0  0  0  0
 32 26  2  0  0  0  0
 35 32  1  0  0  0  0
M  END
>  <minimizedAffinity>
-6.69451666

>  <minimizedRMSD>
0.550044835

$$$$
