
 OpenBabel03242516533D

 43 45  0  0  1  0  0  0  0  0999 V2000
   47.8110   32.9200   41.9080 C   0  0  1  0  0  0  0  0  0  0  0  0
   47.5220   32.1230   40.7160 C   0  0  0  0  0  0  0  0  0  0  0  0
   48.5220   32.5670   39.6520 C   0  0  0  0  0  0  0  0  0  0  0  0
   48.1210   33.9790   39.2450 C   0  0  0  0  0  0  0  0  0  0  0  0
   48.0100   34.9390   40.3900 C   0  0  0  0  0  0  0  0  0  0  0  0
   47.5460   34.4110   41.6800 C   0  0  1  0  0  0  0  0  0  0  0  0
   48.9300   32.9010   42.0910 H   0  0  0  0  0  0  0  0  0  0  0  0
   46.5240   32.3380   40.2590 H   0  0  0  0  0  0  0  0  0  0  0  0
   47.6910   31.0630   40.8950 H   0  0  0  0  0  0  0  0  0  0  0  0
   48.3040   31.9250   38.7620 H   0  0  0  0  0  0  0  0  0  0  0  0
   49.5510   32.4980   40.0030 H   0  0  0  0  0  0  0  0  0  0  0  0
   48.8360   34.3400   38.4940 H   0  0  0  0  0  0  0  0  0  0  0  0
   47.1320   33.8750   38.7390 H   0  0  0  0  0  0  0  0  0  0  0  0
   49.0000   35.4750   40.4700 H   0  0  0  0  0  0  0  0  0  0  0  0
   47.3040   35.7330   40.0590 H   0  0  0  0  0  0  0  0  0  0  0  0
   48.1370   34.9280   42.4960 H   0  0  0  0  0  0  0  0  0  0  0  0
   45.6080   31.0040   44.3070 C   0  0  0  0  0  0  0  0  0  0  0  0
   46.2560   31.4640   43.1560 C   0  0  0  0  0  0  0  0  0  0  0  0
   47.1920   32.5020   43.1480 C   0  0  0  0  0  0  0  0  0  0  0  0
   47.4470   33.0560   44.3340 N   0  0  0  0  0  0  0  0  0  0  0  0
   46.8280   32.6240   45.4630 C   0  0  0  0  0  0  0  0  0  0  0  0
   45.9380   31.6360   45.4730 N   0  0  0  0  0  0  0  0  0  0  0  0
   44.9010   30.2020   44.2380 H   0  0  0  0  0  0  0  0  0  0  0  0
   45.9920   30.9590   42.2350 H   0  0  0  0  0  0  0  0  0  0  0  0
   47.1250   33.1600   46.3670 H   0  0  0  0  0  0  0  0  0  0  0  0
   46.1520   34.7600   41.9570 C   0  0  0  0  0  0  0  0  0  0  0  0
   45.6690   35.3700   43.1240 C   0  0  0  0  0  0  0  0  0  0  0  0
   44.2950   35.6230   43.1550 C   0  0  0  0  0  0  0  0  0  0  0  0
   43.5420   35.2590   42.0600 C   0  0  0  0  0  0  0  0  0  0  0  0
   44.0370   34.6600   40.9230 C   0  0  0  0  0  0  0  0  0  0  0  0
   45.3770   34.4150   40.8960 N   0  0  0  0  0  0  0  0  0  0  0  0
   46.3770   35.5870   43.8770 H   0  0  0  0  0  0  0  0  0  0  0  0
   43.9060   36.0910   44.0430 H   0  0  0  0  0  0  0  0  0  0  0  0
   42.4800   35.4890   42.1590 H   0  0  0  0  0  0  0  0  0  0  0  0
   43.1570   34.3130   39.7980 C   0  0  0  0  0  0  0  0  0  0  0  0
   42.8640   35.2190   38.9750 O   0  0  0  0  0  0  0  0  0  0  0  0
   42.6450   32.9930   39.6370 N   0  0  0  0  0  0  0  0  0  0  0  0
   42.7030   32.6260   38.6610 H   0  0  0  0  0  0  0  0  0  0  0  0
   42.0410   32.2910   41.0940 S   0  0  0  0  0  0  0  0  0  0  0  0
   43.1440   31.9830   42.0610 O   0  0  0  0  0  1  0  0  0  0  0  0
   40.9710   33.1290   41.7380 O   0  0  0  0  0  1  0  0  0  0  0  0
   41.2840   30.8360   40.6420 O   0  0  0  0  0  0  0  0  0  0  0  0
   40.3380   30.9990   40.3980 H   0  0  0  0  0  0  0  0  0  0  0  0
  1  7  1  1  0  0  0
  1 19  1  0  0  0  0
  2  9  1  0  0  0  0
  2  1  1  0  0  0  0
  3 11  1  0  0  0  0
  3  2  1  0  0  0  0
  4  3  1  0  0  0  0
  4  5  1  0  0  0  0
  5 14  1  0  0  0  0
  5  6  1  0  0  0  0
  6  1  1  0  0  0  0
  6 26  1  0  0  0  0
  6 16  1  1  0  0  0
  8  2  1  0  0  0  0
 10  3  1  0  0  0  0
 12  4  1  0  0  0  0
 13  4  1  0  0  0  0
 15  5  1  0  0  0  0
 17 22  1  0  0  0  0
 18 17  2  0  0  0  0
 19 18  1  0  0  0  0
 19 20  2  0  0  0  0
 20 21  1  0  0  0  0
 21 22  2  0  0  0  0
 21 25  1  0  0  0  0
 23 17  1  0  0  0  0
 24 18  1  0  0  0  0
 26 27  1  0  0  0  0
 27 28  2  0  0  0  0
 27 32  1  0  0  0  0
 28 33  1  0  0  0  0
 29 34  1  0  0  0  0
 29 28  1  0  0  0  0
 30 29  2  0  0  0  0
 31 30  1  0  0  0  0
 31 26  2  0  0  0  0
 35 30  1  0  0  0  0
 36 35  2  0  0  0  0
 37 35  1  0  0  0  0
 37 39  1  0  0  0  0
 38 37  1  0  0  0  0
 39 41  1  0  0  0  0
 39 40  1  0  0  0  0
 42 39  1  0  0  0  0
 43 42  1  0  0  0  0
M  END
>  <minimizedAffinity>
-5.21903086

>  <minimizedRMSD>
0.904794395

$$$$
