
 OpenBabel03252507373D

 36 39  0  0  0  0  0  0  0  0999 V2000
   45.5350   34.8170   43.5380 C   0  0  0  0  0  0  0  0  0  0  0  0
   46.2550   33.7440   44.1140 C   0  0  0  0  0  0  0  0  0  0  0  0
   46.0760   33.5100   45.4650 C   0  0  0  0  0  0  0  0  0  0  0  0
   45.2360   34.3020   46.1640 N   0  0  0  0  0  0  0  0  0  0  0  0
   44.5530   35.3290   45.5890 C   0  0  0  0  0  0  0  0  0  0  0  0
   44.7070   35.5740   44.2960 N   0  0  0  0  0  0  0  0  0  0  0  0
   46.9190   33.1120   43.5830 H   0  0  0  0  0  0  0  0  0  0  0  0
   43.8990   35.9080   46.2440 H   0  0  0  0  0  0  0  0  0  0  0  0
   46.9900   32.6590   47.5580 C   0  0  0  0  0  0  0  0  0  0  0  0
   46.7410   32.4480   46.2070 C   0  0  0  0  0  0  0  0  0  0  0  0
   47.1310   31.2520   45.6510 C   0  0  0  0  0  0  0  0  0  0  0  0
   47.7560   30.2660   46.3830 C   0  0  0  0  0  0  0  0  0  0  0  0
   48.2170   29.0360   46.0510 N   0  0  0  0  0  0  0  0  0  0  0  0
   48.7540   28.4800   47.1890 C   0  0  0  0  0  0  0  0  0  0  0  0
   48.6150   29.3630   48.1830 N   0  0  0  0  0  0  0  0  0  0  0  0
   48.0050   30.4680   47.7150 C   0  0  0  0  0  0  0  0  0  0  0  0
   47.6250   31.6560   48.2970 C   0  0  0  0  0  0  0  0  0  0  0  0
   46.7420   33.5350   48.1100 H   0  0  0  0  0  0  0  0  0  0  0  0
   46.9370   31.0900   44.6040 H   0  0  0  0  0  0  0  0  0  0  0  0
   48.1440   28.6440   45.0780 H   0  0  0  0  0  0  0  0  0  0  0  0
   49.1750   27.4810   47.1050 H   0  0  0  0  0  0  0  0  0  0  0  0
   47.8350   31.7850   49.3500 H   0  0  0  0  0  0  0  0  0  0  0  0
   45.7100   35.0570   42.1760 O   0  0  0  0  0  0  0  0  0  0  0  0
   44.6630   34.8640   41.2910 C   0  0  0  0  0  0  0  0  0  0  0  0
   45.1490   33.8590   40.5260 C   0  0  0  0  0  0  0  0  0  0  0  0
   43.7060   33.5840   39.3010 S   0  0  0  0  0  0  0  0  0  0  0  0
   42.7470   34.9630   40.1620 C   0  0  0  0  0  0  0  0  0  0  0  0
   43.4630   35.2630   40.9450 N   0  0  0  0  0  0  0  0  0  0  0  0
   45.9620   33.0960   40.2330 H   0  0  0  0  0  0  0  0  0  0  0  0
   41.4420   35.2550   39.6330 N   0  0  0  0  0  0  0  0  0  0  0  0
   41.2550   35.9490   38.8810 H   0  0  0  0  0  0  0  0  0  0  0  0
   40.1440   34.3890   40.3060 S   0  0  0  0  0  0  0  0  0  0  0  0
   40.0760   34.4980   41.8020 O   0  0  0  0  0  1  0  0  0  0  0  0
   38.8260   34.9010   39.7440 O   0  0  0  0  0  1  0  0  0  0  0  0
   40.1930   32.7520   39.9270 O   0  0  0  0  0  0  0  0  0  0  0  0
   40.6910   32.5780   39.0910 H   0  0  0  0  0  0  0  0  0  0  0  0
  1  2  2  0  0  0  0
  1  6  1  0  0  0  0
  2  3  1  0  0  0  0
  3  4  2  0  0  0  0
  3 10  1  0  0  0  0
  5  4  1  0  0  0  0
  5  8  1  0  0  0  0
  6  5  2  0  0  0  0
  7  2  1  0  0  0  0
  9 18  1  0  0  0  0
  9 17  1  0  0  0  0
 10  9  2  0  0  0  0
 11 10  1  0  0  0  0
 11 12  2  0  0  0  0
 12 16  1  0  0  0  0
 13 12  1  0  0  0  0
 13 14  1  0  0  0  0
 14 15  2  0  0  0  0
 16 15  1  0  0  0  0
 16 17  2  0  0  0  0
 17 22  1  0  0  0  0
 19 11  1  0  0  0  0
 20 13  1  0  0  0  0
 21 14  1  0  0  0  0
 23  1  1  0  0  0  0
 24 23  1  0  0  0  0
 25 24  2  0  0  0  0
 26 27  1  0  0  0  0
 26 25  1  0  0  0  0
 27 28  2  0  0  0  0
 28 24  1  0  0  0  0
 29 25  1  0  0  0  0
 30 27  1  0  0  0  0
 30 32  1  0  0  0  0
 31 30  1  0  0  0  0
 32 33  1  0  0  0  0
 34 32  1  0  0  0  0
 35 32  1  0  0  0  0
 36 35  1  0  0  0  0
M  END
>  <minimizedAffinity>
-6.2961874

>  <minimizedRMSD>
0.478785455

$$$$
