
 OpenBabel03252508363D

 39 41  0  0  0  0  0  0  0  0999 V2000
   44.9340   33.9810   40.7540 C   0  0  0  0  0  0  0  0  0  0  0  0
   43.8990   33.6690   39.9100 C   0  0  0  0  0  0  0  0  0  0  0  0
   44.2050   33.1580   38.6880 C   0  0  0  0  0  0  0  0  0  0  0  0
   45.4890   32.9350   38.2510 C   0  0  0  0  0  0  0  0  0  0  0  0
   46.5120   33.2530   39.1090 C   0  0  0  0  0  0  0  0  0  0  0  0
   46.2510   33.7770   40.3670 C   0  0  0  0  0  0  0  0  0  0  0  0
   43.3810   32.9140   38.0270 H   0  0  0  0  0  0  0  0  0  0  0  0
   45.6380   32.5220   37.2570 H   0  0  0  0  0  0  0  0  0  0  0  0
   47.5160   33.0670   38.7390 H   0  0  0  0  0  0  0  0  0  0  0  0
   40.6550   35.4060   40.7890 C   0  0  0  0  0  0  0  0  0  0  0  0
   41.9580   35.1940   40.2960 C   0  0  0  0  0  0  0  0  0  0  0  0
   42.5590   33.9200   40.4100 C   0  0  0  0  0  0  0  0  0  0  0  0
   41.7990   32.9830   41.0060 N   0  0  0  0  0  0  0  0  0  0  0  0
   40.5710   33.1910   41.4690 C   0  0  0  0  0  0  0  0  0  0  0  0
   39.9970   34.3970   41.3640 N   0  0  0  0  0  0  0  0  0  0  0  0
   40.1000   36.6920   40.6530 N   0  0  0  0  0  0  0  0  0  0  0  0
   42.4890   36.0020   39.8340 H   0  0  0  0  0  0  0  0  0  0  0  0
   40.0020   32.4100   41.9390 H   0  0  0  0  0  0  0  0  0  0  0  0
   39.8980   37.0190   39.6620 H   0  0  0  0  0  0  0  0  0  0  0  0
   39.8320   37.4280   41.3430 H   0  0  0  0  0  0  0  0  0  0  0  0
   47.4020   34.0820   41.1910 C   0  0  0  0  0  0  0  0  0  0  0  0
   48.0610   35.2460   40.9360 C   0  0  0  0  0  0  0  0  0  0  0  0
   49.1760   35.7050   41.6140 C   0  0  0  0  0  0  0  0  0  0  0  0
   49.6540   34.9170   42.6300 C   0  0  0  0  0  0  0  0  0  0  0  0
   49.0200   33.7340   42.9190 C   0  0  0  0  0  0  0  0  0  0  0  0
   47.9110   33.3240   42.2120 C   0  0  0  0  0  0  0  0  0  0  0  0
   47.7230   35.9200   40.1340 H   0  0  0  0  0  0  0  0  0  0  0  0
   49.6610   36.6390   41.3700 H   0  0  0  0  0  0  0  0  0  0  0  0
   50.5270   35.2490   43.1810 H   0  0  0  0  0  0  0  0  0  0  0  0
   49.4420   33.1580   43.7290 H   0  0  0  0  0  0  0  0  0  0  0  0
   47.2520   32.0980   42.5120 N   0  0  0  0  0  0  0  0  0  0  0  0
   47.0570   31.3970   41.7530 H   0  0  0  0  0  0  0  0  0  0  0  0
   46.6340   31.4070   43.9330 S   0  0  0  0  0  0  0  0  0  0  0  0
   45.8130   30.1660   43.6120 O   0  0  0  0  0  1  0  0  0  0  0  0
   47.6990   31.0660   44.9130 O   0  0  0  0  0  1  0  0  0  0  0  0
   45.5330   32.5210   44.5960 O   0  0  0  0  0  0  0  0  0  0  0  0
   46.1240   33.2760   44.9120 H   0  0  0  0  0  0  0  0  0  0  0  0
   44.5120   34.9740   43.1270 N   0  0  0  0  0  0  0  0  0  0  0  0
   44.7040   34.5270   42.0650 C   0  0  0  0  0  0  0  0  0  0  0  0
  1 39  1  0  0  0  0
  2 12  1  0  0  0  0
  2  1  2  0  0  0  0
  3  2  1  0  0  0  0
  4  3  2  0  0  0  0
  4  5  1  0  0  0  0
  5  6  2  0  0  0  0
  6  1  1  0  0  0  0
  6 21  1  0  0  0  0
  7  3  1  0  0  0  0
  8  4  1  0  0  0  0
  9  5  1  0  0  0  0
 10 15  1  0  0  0  0
 11 12  1  0  0  0  0
 11 10  2  0  0  0  0
 12 13  2  0  0  0  0
 13 14  1  0  0  0  0
 14 18  1  0  0  0  0
 15 14  2  0  0  0  0
 16 10  1  0  0  0  0
 16 20  1  0  0  0  0
 17 11  1  0  0  0  0
 19 16  1  0  0  0  0
 21 26  1  0  0  0  0
 22 21  2  0  0  0  0
 22 23  1  0  0  0  0
 23 24  2  0  0  0  0
 24 25  1  0  0  0  0
 24 29  1  0  0  0  0
 25 30  1  0  0  0  0
 26 31  1  0  0  0  0
 26 25  2  0  0  0  0
 27 22  1  0  0  0  0
 28 23  1  0  0  0  0
 31 33  1  0  0  0  0
 32 31  1  0  0  0  0
 33 36  1  0  0  0  0
 33 35  1  0  0  0  0
 34 33  1  0  0  0  0
 36 37  1  0  0  0  0
 39 38  3  0  0  0  0
M  END
>  <minimizedAffinity>
-5.88735771

>  <minimizedRMSD>
1.4753356

$$$$
