REMARK  Name = 
REMARK  8 active torsions:
REMARK  status: ('A' for Active; 'I' for Inactive)
REMARK    1  A    between atoms: C_2  and  C_22
REMARK    2  A    between atoms: C_3  and  C_7
REMARK    3  A    between atoms: C_5  and  C_18
REMARK    4  A    between atoms: C_15  and  N_17
REMARK    5  A    between atoms: C_22  and  C_23
REMARK    6  A    between atoms: C_23  and  N_26
REMARK    7  A    between atoms: N_41  and  S_43
REMARK    8  A    between atoms: S_43  and  O_46
REMARK                            x       y       z     vdW  Elec       q    Type
REMARK                         _______ _______ _______ _____ _____    ______ ____
ROOT
ATOM      1  C   UNL     1      44.642  35.194  45.198  0.00  0.00    +0.000 A 
ATOM      2  C   UNL     1      45.206  35.317  43.931  0.00  0.00    +0.000 A 
ATOM      3  C   UNL     1      46.248  34.467  43.564  0.00  0.00    +0.000 A 
ATOM      4  N   UNL     1      46.610  33.582  44.521  0.00  0.00    +0.000 NA
ATOM      5  C   UNL     1      46.076  33.471  45.712  0.00  0.00    +0.000 A 
ATOM      6  N   UNL     1      45.094  34.283  46.035  0.00  0.00    +0.000 NA
ATOM      7  H   UNL     1      43.836  35.865  45.458  0.00  0.00    +0.000 HD
ENDROOT
BRANCH   3   8
ATOM      8  C   UNL     1      46.925  34.465  42.316  0.00  0.00    +0.000 A 
ATOM      9  C   UNL     1      47.947  35.397  42.161  0.00  0.00    +0.000 A 
ATOM     10  C   UNL     1      48.710  35.540  41.021  0.00  0.00    +0.000 A 
ATOM     11  C   UNL     1      48.489  34.743  39.956  0.00  0.00    +0.000 A 
ATOM     12  C   UNL     1      47.490  33.795  40.038  0.00  0.00    +0.000 A 
ATOM     13  C   UNL     1      47.214  32.961  39.002  0.00  0.00    +0.000 A 
ATOM     14  C   UNL     1      46.224  32.004  39.050  0.00  0.00    +0.000 A 
ATOM     15  C   UNL     1      45.484  31.908  40.234  0.00  0.00    +0.000 A 
ATOM     16  C   UNL     1      45.805  32.782  41.262  0.00  0.00    +0.000 A 
ATOM     17  C   UNL     1      46.759  33.702  41.210  0.00  0.00    +0.000 A 
ATOM     18  H   UNL     1      48.214  36.100  42.968  0.00  0.00    +0.000 HD
ATOM     19  H   UNL     1      49.495  36.280  40.946  0.00  0.00    +0.000 HD
ATOM     20  H   UNL     1      49.067  34.827  39.047  0.00  0.00    +0.000 HD
ATOM     21  H   UNL     1      47.801  33.050  38.088  0.00  0.00    +0.000 HD
ATOM     22  H   UNL     1      46.041  31.361  38.199  0.00  0.00    +0.000 HD
ATOM     23  H   UNL     1      44.735  31.157  40.220  0.00  0.00    +0.000 HD
BRANCH  16  24
ATOM     24  N   UNL     1      44.931  32.542  42.377  0.00  0.00    +0.000 N 
ATOM     25  H   UNL     1      44.938  31.847  43.154  0.00  0.00    +0.000 HD
ATOM     26  H   UNL     1      44.052  32.993  42.706  0.00  0.00    +0.000 HD
ENDBRANCH  16  24
ENDBRANCH   3   8
BRANCH   5  27
ATOM     27  C   UNL     1      46.678  32.394  46.568  0.00  0.00    +0.000 C 
ATOM     28  F   UNL     1      45.711  31.626  47.165  0.00  0.00    +0.000 F 
ATOM     29  F   UNL     1      47.512  32.930  47.512  0.00  0.00    +0.000 F 
ATOM     30  F   UNL     1      47.525  31.597  45.768  0.00  0.00    +0.000 F 
ENDBRANCH   5  27
BRANCH   2  31
ATOM     31  C   UNL     1      44.788  36.282  42.922  0.00  0.00    +0.000 C 
ATOM     32  H   UNL     1      44.308  37.148  43.432  0.00  0.00    +0.000 HD
ATOM     33  H   UNL     1      45.693  36.689  42.414  0.00  0.00    +0.000 HD
BRANCH  31  34
ATOM     34  C   UNL     1      43.858  35.798  41.889  0.00  0.00    +0.000 C 
ATOM     35  H   UNL     1      44.104  35.054  41.190  0.00  0.00    +0.000 HD
ATOM     36  H   UNL     1      43.634  36.721  41.257  0.00  0.00    +0.000 HD
BRANCH  34  39
ATOM     37  C   UNL     1      41.368  35.449  41.755  0.00  0.00    +0.000 C 
ATOM     38  O   UNL     1      41.480  35.393  40.476  0.00  0.00    +0.000 OA
ATOM     39  N   UNL     1      42.536  35.615  42.555  0.00  0.00    +0.000 N 
ATOM     40  H   UNL     1      42.348  35.591  43.593  0.00  0.00    +0.000 HD
ATOM     41  N   UNL     1      40.082  35.343  42.305  0.00  0.00    +0.000 N 
ATOM     42  H   UNL     1      39.886  35.837  43.214  0.00  0.00    +0.000 HD
BRANCH  41  43
ATOM     43  S   UNL     1      38.828  34.424  41.525  0.00  0.00    +0.000 S 
ATOM     44  O   UNL     1      37.690  35.300  41.101  0.00  0.00    +0.000 OA
ATOM     45  O   UNL     1      38.382  33.261  42.352  0.00  0.00    +0.000 OA
BRANCH  43  46
ATOM     46  O   UNL     1      39.509  33.786  40.112  0.00  0.00    +0.000 OA
ATOM     47  H   UNL     1      40.109  33.016  40.345  0.00  0.00    +0.000 HD
ENDBRANCH  43  46
ENDBRANCH  41  43
ENDBRANCH  34  39
ENDBRANCH  31  34
ENDBRANCH   2  31
TORSDOF 8
