
 OpenBabel03252504433D

 43 45  0  0  0  0  0  0  0  0999 V2000
   37.4650   31.8380   40.3790 C   0  0  0  0  0  0  0  0  0  0  0  0
   37.2110   32.8550   39.4980 C   0  0  0  0  0  0  0  0  0  0  0  0
   38.3930   33.2780   39.0670 N   0  0  0  0  0  0  0  0  0  0  0  0
   39.4000   32.5840   39.6270 C   0  0  0  0  0  0  0  0  0  0  0  0
   38.8000   31.6830   40.4490 N   0  0  0  0  0  0  0  0  0  0  0  0
   40.8070   32.6770   39.4740 N   0  0  0  0  0  0  0  0  0  0  0  0
   41.4200   31.8740   38.3920 C   0  0  0  0  0  0  0  0  0  0  0  0
   41.7550   32.8850   37.3010 C   0  0  0  0  0  0  0  0  0  0  0  0
   42.4510   34.0810   37.8870 C   0  0  0  0  0  0  0  0  0  0  0  0
   42.9730   33.7400   39.2730 C   0  0  0  0  0  0  0  0  0  0  0  0
   41.8060   33.4160   40.1760 C   0  0  0  0  0  0  0  0  0  0  0  0
   36.2200   33.2070   39.2380 H   0  0  0  0  0  0  0  0  0  0  0  0
   38.5710   34.0460   38.3840 H   0  0  0  0  0  0  0  0  0  0  0  0
   42.3060   31.3310   38.7610 H   0  0  0  0  0  0  0  0  0  0  0  0
   40.7010   31.1640   37.9730 H   0  0  0  0  0  0  0  0  0  0  0  0
   40.8020   33.1220   36.8010 H   0  0  0  0  0  0  0  0  0  0  0  0
   42.4690   32.4070   36.5790 H   0  0  0  0  0  0  0  0  0  0  0  0
   41.6590   34.8650   38.0540 H   0  0  0  0  0  0  0  0  0  0  0  0
   43.2150   34.5160   37.2390 H   0  0  0  0  0  0  0  0  0  0  0  0
   43.5990   34.5340   39.6890 H   0  0  0  0  0  0  0  0  0  0  0  0
   43.6160   32.8400   39.1900 H   0  0  0  0  0  0  0  0  0  0  0  0
   41.4340   34.3890   40.5650 H   0  0  0  0  0  0  0  0  0  0  0  0
   42.1600   32.8580   41.0780 H   0  0  0  0  0  0  0  0  0  0  0  0
   36.4600   31.0310   41.1380 C   0  0  0  0  0  0  0  0  0  0  0  0
   36.3280   31.5410   42.0980 H   0  0  0  0  0  0  0  0  0  0  0  0
   35.5340   31.0080   40.5380 H   0  0  0  0  0  0  0  0  0  0  0  0
   37.4000   29.1580   42.4220 C   0  0  0  0  0  3  0  0  0  0  0  0
   36.9130   29.6320   41.2870 C   0  0  0  0  0  3  0  0  0  0  0  0
   37.8130   27.7560   42.4370 C   0  0  0  0  0  0  0  0  0  0  0  0
   37.0190   26.7240   41.8710 C   0  0  0  0  0  0  0  0  0  0  0  0
   37.4820   25.4230   41.9290 C   0  0  0  0  0  0  0  0  0  0  0  0
   38.6650   25.1740   42.5170 N   0  0  0  0  0  0  0  0  0  0  0  0
   39.4080   26.1670   43.0510 C   0  0  0  0  0  0  0  0  0  0  0  0
   38.9940   27.4230   43.0130 N   0  0  0  0  0  0  0  0  0  0  0  0
   36.0730   27.0130   41.4140 H   0  0  0  0  0  0  0  0  0  0  0  0
   36.8760   24.6390   41.4960 H   0  0  0  0  0  0  0  0  0  0  0  0
   40.6490   25.8190   43.6560 N   0  0  0  0  0  0  0  0  0  0  0  0
   40.7260   25.5730   44.6610 H   0  0  0  0  0  0  0  0  0  0  0  0
   42.1480   25.7650   42.8030 S   0  0  0  0  0  0  0  0  0  0  0  0
   41.9750   25.2190   41.4360 O   0  0  0  0  0  1  0  0  0  0  0  0
   42.8350   27.1040   42.8080 O   0  0  0  0  0  1  0  0  0  0  0  0
   43.2050   24.7110   43.6170 O   0  0  0  0  0  0  0  0  0  0  0  0
   43.0920   23.7800   43.2820 H   0  0  0  0  0  0  0  0  0  0  0  0
  1  5  1  0  0  0  0
  1 24  1  0  0  0  0
  2  1  2  0  0  0  0
  3  2  1  0  0  0  0
  3  4  1  0  0  0  0
  4  5  2  0  0  0  0
  6  4  1  0  0  0  0
  6 11  1  0  0  0  0
  7 14  1  0  0  0  0
  7  6  1  0  0  0  0
  8  9  1  0  0  0  0
  8  7  1  0  0  0  0
  9 18  1  0  0  0  0
  9 10  1  0  0  0  0
 10 20  1  0  0  0  0
 10 11  1  0  0  0  0
 11 22  1  0  0  0  0
 11 23  1  0  0  0  0
 12  2  1  0  0  0  0
 13  3  1  0  0  0  0
 15  7  1  0  0  0  0
 16  8  1  0  0  0  0
 17  8  1  0  0  0  0
 19  9  1  0  0  0  0
 21 10  1  0  0  0  0
 24 28  1  0  0  0  0
 24 25  1  0  0  0  0
 26 24  1  0  0  0  0
 27 29  1  0  0  0  0
 28 27  2  0  0  0  0
 29 34  1  0  0  0  0
 30 31  1  0  0  0  0
 30 29  2  0  0  0  0
 31 32  2  0  0  0  0
 32 33  1  0  0  0  0
 33 37  1  0  0  0  0
 34 33  2  0  0  0  0
 35 30  1  0  0  0  0
 36 31  1  0  0  0  0
 37 38  1  0  0  0  0
 39 41  1  0  0  0  0
 39 42  1  0  0  0  0
 39 37  1  0  0  0  0
 40 39  1  0  0  0  0
 43 42  1  0  0  0  0
M  END
>  <minimizedAffinity>
-6.2753582

$$$$

 OpenBabel03252504433D

 43 45  0  0  0  0  0  0  0  0999 V2000
   36.8050   30.6850   39.8440 C   0  0  0  0  0  0  0  0  0  0  0  0
   36.1280   30.6150   41.0320 C   0  0  0  0  0  0  0  0  0  0  0  0
   36.2130   29.3540   41.4360 N   0  0  0  0  0  0  0  0  0  0  0  0
   36.9120   28.6030   40.5660 C   0  0  0  0  0  0  0  0  0  0  0  0
   37.2770   29.4540   39.5710 N   0  0  0  0  0  0  0  0  0  0  0  0
   37.2560   27.2270   40.5750 N   0  0  0  0  0  0  0  0  0  0  0  0
   38.5180   26.8550   41.2560 C   0  0  0  0  0  0  0  0  0  0  0  0
   38.0750   26.2200   42.5700 C   0  0  0  0  0  0  0  0  0  0  0  0
   36.9830   25.2170   42.3290 C   0  0  0  0  0  0  0  0  0  0  0  0
   36.9500   24.8420   40.8560 C   0  0  0  0  0  0  0  0  0  0  0  0
   36.6160   26.0690   40.0400 C   0  0  0  0  0  0  0  0  0  0  0  0
   35.6370   31.4560   41.5070 H   0  0  0  0  0  0  0  0  0  0  0  0
   35.8060   28.9480   42.3060 H   0  0  0  0  0  0  0  0  0  0  0  0
   39.1150   26.1720   40.6290 H   0  0  0  0  0  0  0  0  0  0  0  0
   39.1090   27.7420   41.5020 H   0  0  0  0  0  0  0  0  0  0  0  0
   37.7810   27.0540   43.2280 H   0  0  0  0  0  0  0  0  0  0  0  0
   38.9460   25.6630   43.0080 H   0  0  0  0  0  0  0  0  0  0  0  0
   36.0090   25.7490   42.5210 H   0  0  0  0  0  0  0  0  0  0  0  0
   37.0210   24.3480   42.9890 H   0  0  0  0  0  0  0  0  0  0  0  0
   36.2590   24.0190   40.6520 H   0  0  0  0  0  0  0  0  0  0  0  0
   37.9600   24.4880   40.5650 H   0  0  0  0  0  0  0  0  0  0  0  0
   35.5070   26.1490   40.0360 H   0  0  0  0  0  0  0  0  0  0  0  0
   36.9010   25.9090   38.9710 H   0  0  0  0  0  0  0  0  0  0  0  0
   36.9990   31.8940   38.9860 C   0  0  0  0  0  0  0  0  0  0  0  0
   36.5790   31.6410   38.0080 H   0  0  0  0  0  0  0  0  0  0  0  0
   36.4690   32.7320   39.4720 H   0  0  0  0  0  0  0  0  0  0  0  0
   38.9540   33.2100   39.6850 C   0  0  0  0  0  3  0  0  0  0  0  0
   38.4280   32.2680   38.9200 C   0  0  0  0  0  3  0  0  0  0  0  0
   40.3800   33.4830   39.5220 C   0  0  0  0  0  0  0  0  0  0  0  0
   41.1510   34.1270   40.5270 C   0  0  0  0  0  0  0  0  0  0  0  0
   42.4940   34.3480   40.2930 C   0  0  0  0  0  0  0  0  0  0  0  0
   43.0300   33.9510   39.1260 N   0  0  0  0  0  0  0  0  0  0  0  0
   42.2840   33.3400   38.1800 C   0  0  0  0  0  0  0  0  0  0  0  0
   40.9960   33.1120   38.3730 N   0  0  0  0  0  0  0  0  0  0  0  0
   40.6370   34.4170   41.4430 H   0  0  0  0  0  0  0  0  0  0  0  0
   43.0790   34.8380   41.0600 H   0  0  0  0  0  0  0  0  0  0  0  0
   42.9290   32.9500   36.9720 N   0  0  0  0  0  0  0  0  0  0  0  0
   42.9890   33.5780   36.1480 H   0  0  0  0  0  0  0  0  0  0  0  0
   43.6740   31.4110   36.7380 S   0  0  0  0  0  0  0  0  0  0  0  0
   44.2480   30.8890   38.0000 O   0  0  0  0  0  1  0  0  0  0  0  0
   42.7340   30.4370   36.0830 O   0  0  0  0  0  1  0  0  0  0  0  0
   44.9700   31.5900   35.6520 O   0  0  0  0  0  0  0  0  0  0  0  0
   45.8080   31.8110   36.1450 H   0  0  0  0  0  0  0  0  0  0  0  0
  1  2  2  0  0  0  0
  2  3  1  0  0  0  0
  2 12  1  0  0  0  0
  3 13  1  0  0  0  0
  4  6  1  0  0  0  0
  4  3  1  0  0  0  0
  5  1  1  0  0  0  0
  5  4  2  0  0  0  0
  6  7  1  0  0  0  0
  7 15  1  0  0  0  0
  7  8  1  0  0  0  0
  8 17  1  0  0  0  0
  8 16  1  0  0  0  0
  9 18  1  0  0  0  0
  9  8  1  0  0  0  0
  9 19  1  0  0  0  0
 10  9  1  0  0  0  0
 11  6  1  0  0  0  0
 11 10  1  0  0  0  0
 14  7  1  0  0  0  0
 20 10  1  0  0  0  0
 21 10  1  0  0  0  0
 22 11  1  0  0  0  0
 23 11  1  0  0  0  0
 24 26  1  0  0  0  0
 24  1  1  0  0  0  0
 25 24  1  0  0  0  0
 28 24  1  0  0  0  0
 28 27  2  0  0  0  0
 29 27  1  0  0  0  0
 29 30  1  0  0  0  0
 30 35  1  0  0  0  0
 31 30  2  0  0  0  0
 31 36  1  0  0  0  0
 32 31  1  0  0  0  0
 33 34  1  0  0  0  0
 33 32  2  0  0  0  0
 34 29  2  0  0  0  0
 37 33  1  0  0  0  0
 38 37  1  0  0  0  0
 39 37  1  0  0  0  0
 39 40  1  0  0  0  0
 41 39  1  0  0  0  0
 42 43  1  0  0  0  0
 42 39  1  0  0  0  0
M  END
>  <minimizedAffinity>
-6.03834677

$$$$

 OpenBabel03252504433D

 43 45  0  0  0  0  0  0  0  0999 V2000
   32.7090   28.5720   36.0390 C   0  0  0  0  0  0  0  0  0  0  0  0
   32.0260   28.0670   34.9650 C   0  0  0  0  0  0  0  0  0  0  0  0
   31.1760   29.0130   34.5860 N   0  0  0  0  0  0  0  0  0  0  0  0
   31.2750   30.1060   35.3630 C   0  0  0  0  0  0  0  0  0  0  0  0
   32.2420   29.8130   36.2710 N   0  0  0  0  0  0  0  0  0  0  0  0
   30.5830   31.3440   35.3400 N   0  0  0  0  0  0  0  0  0  0  0  0
   31.1530   32.4160   34.4910 C   0  0  0  0  0  0  0  0  0  0  0  0
   30.2380   32.4730   33.2730 C   0  0  0  0  0  0  0  0  0  0  0  0
   28.7970   32.4850   33.6970 C   0  0  0  0  0  0  0  0  0  0  0  0
   28.7000   32.8560   35.1680 C   0  0  0  0  0  0  0  0  0  0  0  0
   29.3990   31.7990   35.9920 C   0  0  0  0  0  0  0  0  0  0  0  0
   32.1870   27.0810   34.5450 H   0  0  0  0  0  0  0  0  0  0  0  0
   30.4980   28.9640   33.7950 H   0  0  0  0  0  0  0  0  0  0  0  0
   31.1950   33.3710   35.0420 H   0  0  0  0  0  0  0  0  0  0  0  0
   32.1540   32.1490   34.1390 H   0  0  0  0  0  0  0  0  0  0  0  0
   30.5130   31.6120   32.6440 H   0  0  0  0  0  0  0  0  0  0  0  0
   30.4300   33.4350   32.7280 H   0  0  0  0  0  0  0  0  0  0  0  0
   28.4340   31.4200   33.6360 H   0  0  0  0  0  0  0  0  0  0  0  0
   28.1480   33.0920   33.0620 H   0  0  0  0  0  0  0  0  0  0  0  0
   27.6660   33.0050   35.4920 H   0  0  0  0  0  0  0  0  0  0  0  0
   29.2220   33.8230   35.3170 H   0  0  0  0  0  0  0  0  0  0  0  0
   28.6540   30.9890   36.1560 H   0  0  0  0  0  0  0  0  0  0  0  0
   29.6270   32.1960   37.0120 H   0  0  0  0  0  0  0  0  0  0  0  0
   33.7810   27.8890   36.8270 C   0  0  0  0  0  0  0  0  0  0  0  0
   33.3000   27.0320   37.3100 H   0  0  0  0  0  0  0  0  0  0  0  0
   34.5720   27.5890   36.1180 H   0  0  0  0  0  0  0  0  0  0  0  0
   35.6840   29.1330   37.7600 C   0  0  0  0  0  3  0  0  0  0  0  0
   34.3990   28.8230   37.7930 C   0  0  0  0  0  3  0  0  0  0  0  0
   36.1700   30.0700   38.7710 C   0  0  0  0  0  0  0  0  0  0  0  0
   35.7910   29.9790   40.1360 C   0  0  0  0  0  0  0  0  0  0  0  0
   36.2960   30.9060   41.0280 C   0  0  0  0  0  0  0  0  0  0  0  0
   37.1270   31.8620   40.5790 N   0  0  0  0  0  0  0  0  0  0  0  0
   37.4790   31.9350   39.2770 C   0  0  0  0  0  0  0  0  0  0  0  0
   37.0140   31.0640   38.3980 N   0  0  0  0  0  0  0  0  0  0  0  0
   35.1120   29.1730   40.4150 H   0  0  0  0  0  0  0  0  0  0  0  0
   36.0060   30.8340   42.0680 H   0  0  0  0  0  0  0  0  0  0  0  0
   38.3640   32.9780   38.8830 N   0  0  0  0  0  0  0  0  0  0  0  0
   38.0220   33.9080   38.5740 H   0  0  0  0  0  0  0  0  0  0  0  0
   40.0830   32.8230   38.8740 S   0  0  0  0  0  0  0  0  0  0  0  0
   40.7320   33.9400   39.5990 O   0  0  0  0  0  1  0  0  0  0  0  0
   40.5180   31.4750   39.3790 O   0  0  0  0  0  1  0  0  0  0  0  0
   40.6310   32.9030   37.2660 O   0  0  0  0  0  0  0  0  0  0  0  0
   40.8130   33.8480   37.0080 H   0  0  0  0  0  0  0  0  0  0  0  0
  1  5  1  0  0  0  0
  1 24  1  0  0  0  0
  2  1  2  0  0  0  0
  3  2  1  0  0  0  0
  3  4  1  0  0  0  0
  4  5  2  0  0  0  0
  6  4  1  0  0  0  0
  6 11  1  0  0  0  0
  7 14  1  0  0  0  0
  7  6  1  0  0  0  0
  8  9  1  0  0  0  0
  8  7  1  0  0  0  0
  9 10  1  0  0  0  0
 10 21  1  0  0  0  0
 10 20  1  0  0  0  0
 10 11  1  0  0  0  0
 11 22  1  0  0  0  0
 11 23  1  0  0  0  0
 12  2  1  0  0  0  0
 13  3  1  0  0  0  0
 15  7  1  0  0  0  0
 16  8  1  0  0  0  0
 17  8  1  0  0  0  0
 18  9  1  0  0  0  0
 19  9  1  0  0  0  0
 24 25  1  0  0  0  0
 24 28  1  0  0  0  0
 26 24  1  0  0  0  0
 27 28  2  0  0  0  0
 27 29  1  0  0  0  0
 29 30  1  0  0  0  0
 30 35  1  0  0  0  0
 30 31  2  0  0  0  0
 31 36  1  0  0  0  0
 32 31  1  0  0  0  0
 33 32  2  0  0  0  0
 34 29  2  0  0  0  0
 34 33  1  0  0  0  0
 37 33  1  0  0  0  0
 38 37  1  0  0  0  0
 39 37  1  0  0  0  0
 39 41  1  0  0  0  0
 39 40  1  0  0  0  0
 42 39  1  0  0  0  0
 43 42  1  0  0  0  0
M  END
>  <minimizedAffinity>
-6.00773764

$$$$

 OpenBabel03252504433D

 43 45  0  0  0  0  0  0  0  0999 V2000
   36.4150   29.5320   40.6590 C   0  0  0  0  0  0  0  0  0  0  0  0
   35.7410   28.7760   39.7380 C   0  0  0  0  0  0  0  0  0  0  0  0
   36.1980   27.5360   39.8680 N   0  0  0  0  0  0  0  0  0  0  0  0
   37.1350   27.4540   40.8280 C   0  0  0  0  0  0  0  0  0  0  0  0
   37.2610   28.7160   41.3160 N   0  0  0  0  0  0  0  0  0  0  0  0
   37.8920   26.3570   41.3140 N   0  0  0  0  0  0  0  0  0  0  0  0
   37.2980   25.5670   42.4170 C   0  0  0  0  0  0  0  0  0  0  0  0
   36.8200   24.2780   41.7580 C   0  0  0  0  0  0  0  0  0  0  0  0
   37.8920   23.7120   40.8700 C   0  0  0  0  0  0  0  0  0  0  0  0
   39.2310   24.3420   41.2200 C   0  0  0  0  0  0  0  0  0  0  0  0
   39.1650   25.8270   40.9480 C   0  0  0  0  0  0  0  0  0  0  0  0
   34.9910   29.1630   39.0590 H   0  0  0  0  0  0  0  0  0  0  0  0
   35.9000   26.7000   39.3190 H   0  0  0  0  0  0  0  0  0  0  0  0
   38.0380   25.3920   43.2160 H   0  0  0  0  0  0  0  0  0  0  0  0
   36.4190   26.0700   42.8330 H   0  0  0  0  0  0  0  0  0  0  0  0
   35.8880   24.5340   41.2280 H   0  0  0  0  0  0  0  0  0  0  0  0
   36.6200   23.5200   42.5610 H   0  0  0  0  0  0  0  0  0  0  0  0
   37.6640   24.0640   39.8240 H   0  0  0  0  0  0  0  0  0  0  0  0
   37.9270   22.6210   40.8520 H   0  0  0  0  0  0  0  0  0  0  0  0
   40.0630   23.8690   40.6920 H   0  0  0  0  0  0  0  0  0  0  0  0
   39.4140   24.1880   42.3030 H   0  0  0  0  0  0  0  0  0  0  0  0
   39.3960   25.9560   39.8680 H   0  0  0  0  0  0  0  0  0  0  0  0
   39.9910   26.3530   41.4880 H   0  0  0  0  0  0  0  0  0  0  0  0
   36.2600   30.9990   40.9080 C   0  0  0  0  0  0  0  0  0  0  0  0
   35.3980   31.3160   40.3130 H   0  0  0  0  0  0  0  0  0  0  0  0
   36.1000   31.1330   41.9920 H   0  0  0  0  0  0  0  0  0  0  0  0
   37.8940   31.9040   39.3110 C   0  0  0  0  0  3  0  0  0  0  0  0
   37.5000   31.7250   40.5610 C   0  0  0  0  0  3  0  0  0  0  0  0
   39.1390   32.6400   39.1030 C   0  0  0  0  0  0  0  0  0  0  0  0
   39.5450   33.7030   39.9520 C   0  0  0  0  0  0  0  0  0  0  0  0
   40.7360   34.3490   39.6850 C   0  0  0  0  0  0  0  0  0  0  0  0
   41.4740   33.9540   38.6320 N   0  0  0  0  0  0  0  0  0  0  0  0
   41.0740   32.9400   37.8340 C   0  0  0  0  0  0  0  0  0  0  0  0
   39.9390   32.3020   38.0620 N   0  0  0  0  0  0  0  0  0  0  0  0
   38.8870   33.9600   40.7830 H   0  0  0  0  0  0  0  0  0  0  0  0
   41.0430   35.1580   40.3340 H   0  0  0  0  0  0  0  0  0  0  0  0
   41.9130   32.5840   36.7400 N   0  0  0  0  0  0  0  0  0  0  0  0
   41.8150   33.0170   35.8020 H   0  0  0  0  0  0  0  0  0  0  0  0
   43.1730   31.4080   36.8430 S   0  0  0  0  0  0  0  0  0  0  0  0
   43.3560   30.9300   38.2330 O   0  0  0  0  0  1  0  0  0  0  0  0
   42.9580   30.2830   35.8680 O   0  0  0  0  0  1  0  0  0  0  0  0
   44.6390   32.1350   36.3820 O   0  0  0  0  0  0  0  0  0  0  0  0
   45.0880   32.5420   37.1720 H   0  0  0  0  0  0  0  0  0  0  0  0
  1 24  1  0  0  0  0
  1  5  1  0  0  0  0
  2  3  1  0  0  0  0
  2  1  2  0  0  0  0
  3  4  1  0  0  0  0
  4  6  1  0  0  0  0
  4  5  2  0  0  0  0
  6  7  1  0  0  0  0
  7 15  1  0  0  0  0
  7 14  1  0  0  0  0
  8  7  1  0  0  0  0
  8 17  1  0  0  0  0
  9 10  1  0  0  0  0
  9  8  1  0  0  0  0
 10 21  1  0  0  0  0
 11 10  1  0  0  0  0
 11  6  1  0  0  0  0
 11 23  1  0  0  0  0
 12  2  1  0  0  0  0
 13  3  1  0  0  0  0
 16  8  1  0  0  0  0
 18  9  1  0  0  0  0
 19  9  1  0  0  0  0
 20 10  1  0  0  0  0
 22 11  1  0  0  0  0
 24 26  1  0  0  0  0
 25 24  1  0  0  0  0
 27 28  2  0  0  0  0
 28 24  1  0  0  0  0
 29 27  1  0  0  0  0
 29 30  1  0  0  0  0
 30 35  1  0  0  0  0
 31 30  2  0  0  0  0
 31 36  1  0  0  0  0
 32 31  1  0  0  0  0
 33 34  1  0  0  0  0
 33 32  2  0  0  0  0
 34 29  2  0  0  0  0
 37 39  1  0  0  0  0
 37 33  1  0  0  0  0
 38 37  1  0  0  0  0
 39 40  1  0  0  0  0
 41 39  1  0  0  0  0
 42 39  1  0  0  0  0
 42 43  1  0  0  0  0
M  END
>  <minimizedAffinity>
-6.00270319

$$$$

 OpenBabel03252504433D

 43 45  0  0  0  0  0  0  0  0999 V2000
   33.3730   27.8560   36.4750 C   0  0  0  0  0  0  0  0  0  0  0  0
   32.2930   27.2180   35.9270 C   0  0  0  0  0  0  0  0  0  0  0  0
   31.4450   28.1700   35.5580 N   0  0  0  0  0  0  0  0  0  0  0  0
   31.9240   29.3940   35.8420 C   0  0  0  0  0  0  0  0  0  0  0  0
   33.1360   29.1800   36.4180 N   0  0  0  0  0  0  0  0  0  0  0  0
   31.3820   30.6890   35.6370 N   0  0  0  0  0  0  0  0  0  0  0  0
   31.6730   31.3400   34.3390 C   0  0  0  0  0  0  0  0  0  0  0  0
   30.3710   31.2360   33.5520 C   0  0  0  0  0  0  0  0  0  0  0  0
   29.2070   31.6570   34.4020 C   0  0  0  0  0  0  0  0  0  0  0  0
   29.7080   32.4380   35.6060 C   0  0  0  0  0  0  0  0  0  0  0  0
   30.5770   31.5380   36.4530 C   0  0  0  0  0  0  0  0  0  0  0  0
   32.1990   26.1420   35.8350 H   0  0  0  0  0  0  0  0  0  0  0  0
   30.5150   28.0380   35.1050 H   0  0  0  0  0  0  0  0  0  0  0  0
   32.0020   32.3830   34.4890 H   0  0  0  0  0  0  0  0  0  0  0  0
   32.4380   30.7890   33.7840 H   0  0  0  0  0  0  0  0  0  0  0  0
   30.3130   30.1940   33.1950 H   0  0  0  0  0  0  0  0  0  0  0  0
   30.4220   31.9450   32.6840 H   0  0  0  0  0  0  0  0  0  0  0  0
   28.7600   30.7140   34.8270 H   0  0  0  0  0  0  0  0  0  0  0  0
   28.4180   32.1780   33.8540 H   0  0  0  0  0  0  0  0  0  0  0  0
   28.8920   32.8780   36.1850 H   0  0  0  0  0  0  0  0  0  0  0  0
   30.3270   33.2830   35.2370 H   0  0  0  0  0  0  0  0  0  0  0  0
   29.8860   30.9750   37.1180 H   0  0  0  0  0  0  0  0  0  0  0  0
   31.2090   32.1520   37.1420 H   0  0  0  0  0  0  0  0  0  0  0  0
   34.6030   27.2220   37.0420 C   0  0  0  0  0  0  0  0  0  0  0  0
   34.3020   26.2230   37.3720 H   0  0  0  0  0  0  0  0  0  0  0  0
   35.3590   27.1930   36.2380 H   0  0  0  0  0  0  0  0  0  0  0  0
   35.8490   27.5250   39.1380 C   0  0  0  0  0  3  0  0  0  0  0  0
   35.1640   28.0460   38.1340 C   0  0  0  0  0  3  0  0  0  0  0  0
   36.3510   28.4480   40.1530 C   0  0  0  0  0  0  0  0  0  0  0  0
   36.9880   28.0000   41.3410 C   0  0  0  0  0  0  0  0  0  0  0  0
   37.4330   28.9390   42.2500 C   0  0  0  0  0  0  0  0  0  0  0  0
   37.2500   30.2450   41.9870 N   0  0  0  0  0  0  0  0  0  0  0  0
   36.6420   30.6560   40.8530 C   0  0  0  0  0  0  0  0  0  0  0  0
   36.2050   29.7820   39.9620 N   0  0  0  0  0  0  0  0  0  0  0  0
   37.0950   26.9240   41.4760 H   0  0  0  0  0  0  0  0  0  0  0  0
   37.9180   28.5950   43.1540 H   0  0  0  0  0  0  0  0  0  0  0  0
   36.4880   32.0560   40.6500 N   0  0  0  0  0  0  0  0  0  0  0  0
   35.6500   32.5750   40.9780 H   0  0  0  0  0  0  0  0  0  0  0  0
   37.6550   33.0420   39.8470 S   0  0  0  0  0  0  0  0  0  0  0  0
   38.6210   33.6270   40.8060 O   0  0  0  0  0  1  0  0  0  0  0  0
   38.3290   32.2980   38.7280 O   0  0  0  0  0  1  0  0  0  0  0  0
   36.8540   34.3470   39.1070 O   0  0  0  0  0  0  0  0  0  0  0  0
   36.7840   35.1140   39.7390 H   0  0  0  0  0  0  0  0  0  0  0  0
  1 24  1  0  0  0  0
  2  1  2  0  0  0  0
  3  4  1  0  0  0  0
  3  2  1  0  0  0  0
  4  5  2  0  0  0  0
  5  1  1  0  0  0  0
  6  4  1  0  0  0  0
  6 11  1  0  0  0  0
  7 14  1  0  0  0  0
  7  6  1  0  0  0  0
  8  7  1  0  0  0  0
  8  9  1  0  0  0  0
  9 18  1  0  0  0  0
  9 10  1  0  0  0  0
 10 20  1  0  0  0  0
 10 11  1  0  0  0  0
 11 22  1  0  0  0  0
 11 23  1  0  0  0  0
 12  2  1  0  0  0  0
 13  3  1  0  0  0  0
 15  7  1  0  0  0  0
 16  8  1  0  0  0  0
 17  8  1  0  0  0  0
 19  9  1  0  0  0  0
 21 10  1  0  0  0  0
 24 25  1  0  0  0  0
 24 28  1  0  0  0  0
 26 24  1  0  0  0  0
 27 29  1  0  0  0  0
 28 27  2  0  0  0  0
 29 30  1  0  0  0  0
 30 35  1  0  0  0  0
 30 31  2  0  0  0  0
 31 36  1  0  0  0  0
 32 31  1  0  0  0  0
 33 32  2  0  0  0  0
 34 29  2  0  0  0  0
 34 33  1  0  0  0  0
 37 33  1  0  0  0  0
 37 38  1  0  0  0  0
 39 37  1  0  0  0  0
 39 40  1  0  0  0  0
 41 39  1  0  0  0  0
 42 43  1  0  0  0  0
 42 39  1  0  0  0  0
M  END
>  <minimizedAffinity>
-5.98197746

$$$$

 OpenBabel03252504433D

 43 45  0  0  0  0  0  0  0  0999 V2000
   38.1960   32.0800   40.8300 C   0  0  0  0  0  0  0  0  0  0  0  0
   37.0540   31.5690   40.2730 C   0  0  0  0  0  0  0  0  0  0  0  0
   36.9690   30.3100   40.6850 N   0  0  0  0  0  0  0  0  0  0  0  0
   38.0020   29.9810   41.4810 C   0  0  0  0  0  0  0  0  0  0  0  0
   38.7640   31.1030   41.5630 N   0  0  0  0  0  0  0  0  0  0  0  0
   38.3310   28.7720   42.1450 N   0  0  0  0  0  0  0  0  0  0  0  0
   37.7720   28.5770   43.5030 C   0  0  0  0  0  0  0  0  0  0  0  0
   36.6480   27.5640   43.3180 C   0  0  0  0  0  0  0  0  0  0  0  0
   37.1150   26.4050   42.4830 C   0  0  0  0  0  0  0  0  0  0  0  0
   38.6350   26.3880   42.4380 C   0  0  0  0  0  0  0  0  0  0  0  0
   39.1250   27.6480   41.7650 C   0  0  0  0  0  0  0  0  0  0  0  0
   36.3840   32.1270   39.6290 H   0  0  0  0  0  0  0  0  0  0  0  0
   36.2200   29.6240   40.4490 H   0  0  0  0  0  0  0  0  0  0  0  0
   38.5530   28.2300   44.2010 H   0  0  0  0  0  0  0  0  0  0  0  0
   37.3240   29.5010   43.8810 H   0  0  0  0  0  0  0  0  0  0  0  0
   35.8040   28.1210   42.8790 H   0  0  0  0  0  0  0  0  0  0  0  0
   36.3670   27.1550   44.3250 H   0  0  0  0  0  0  0  0  0  0  0  0
   36.7900   26.6180   41.4260 H   0  0  0  0  0  0  0  0  0  0  0  0
   36.6870   25.4440   42.7730 H   0  0  0  0  0  0  0  0  0  0  0  0
   39.0260   25.4900   41.9520 H   0  0  0  0  0  0  0  0  0  0  0  0
   39.0120   26.3740   43.4810 H   0  0  0  0  0  0  0  0  0  0  0  0
   39.0990   27.4470   40.6710 H   0  0  0  0  0  0  0  0  0  0  0  0
   40.2040   27.8180   42.0050 H   0  0  0  0  0  0  0  0  0  0  0  0
   38.7360   33.4650   40.6690 C   0  0  0  0  0  0  0  0  0  0  0  0
   37.9800   34.0190   40.1030 H   0  0  0  0  0  0  0  0  0  0  0  0
   38.8950   33.8770   41.6810 H   0  0  0  0  0  0  0  0  0  0  0  0
   41.1930   33.4800   40.6700 C   0  0  0  0  0  3  0  0  0  0  0  0
   40.0540   33.4410   40.0000 C   0  0  0  0  0  3  0  0  0  0  0  0
   42.4280   33.4490   39.8900 C   0  0  0  0  0  0  0  0  0  0  0  0
   43.6540   33.9680   40.3850 C   0  0  0  0  0  0  0  0  0  0  0  0
   44.7760   33.9000   39.5820 C   0  0  0  0  0  0  0  0  0  0  0  0
   44.6750   33.3480   38.3600 N   0  0  0  0  0  0  0  0  0  0  0  0
   43.5020   32.8580   37.9040 C   0  0  0  0  0  0  0  0  0  0  0  0
   42.4090   32.9080   38.6470 N   0  0  0  0  0  0  0  0  0  0  0  0
   43.6470   34.3990   41.3860 H   0  0  0  0  0  0  0  0  0  0  0  0
   45.7080   34.2960   39.9620 H   0  0  0  0  0  0  0  0  0  0  0  0
   43.4810   32.2900   36.5990 N   0  0  0  0  0  0  0  0  0  0  0  0
   43.2770   32.8540   35.7510 H   0  0  0  0  0  0  0  0  0  0  0  0
   43.7860   30.6220   36.2760 S   0  0  0  0  0  0  0  0  0  0  0  0
   44.6280   30.4490   35.0680 O   0  0  0  0  0  1  0  0  0  0  0  0
   44.3530   29.9210   37.4800 O   0  0  0  0  0  1  0  0  0  0  0  0
   42.3080   29.8470   35.9530 O   0  0  0  0  0  0  0  0  0  0  0  0
   42.0960   29.8950   34.9810 H   0  0  0  0  0  0  0  0  0  0  0  0
  1  5  1  0  0  0  0
  2  3  1  0  0  0  0
  2  1  2  0  0  0  0
  3  4  1  0  0  0  0
  4  5  2  0  0  0  0
  4  6  1  0  0  0  0
  6  7  1  0  0  0  0
  7 15  1  0  0  0  0
  7 14  1  0  0  0  0
  8  7  1  0  0  0  0
  8 17  1  0  0  0  0
  9 19  1  0  0  0  0
  9  8  1  0  0  0  0
 10  9  1  0  0  0  0
 10 21  1  0  0  0  0
 11 23  1  0  0  0  0
 11  6  1  0  0  0  0
 11 10  1  0  0  0  0
 12  2  1  0  0  0  0
 13  3  1  0  0  0  0
 16  8  1  0  0  0  0
 18  9  1  0  0  0  0
 20 10  1  0  0  0  0
 22 11  1  0  0  0  0
 24  1  1  0  0  0  0
 24 26  1  0  0  0  0
 25 24  1  0  0  0  0
 28 24  1  0  0  0  0
 28 27  2  0  0  0  0
 29 30  1  0  0  0  0
 29 27  1  0  0  0  0
 30 35  1  0  0  0  0
 31 36  1  0  0  0  0
 31 30  2  0  0  0  0
 32 31  1  0  0  0  0
 33 32  2  0  0  0  0
 33 34  1  0  0  0  0
 34 29  2  0  0  0  0
 37 33  1  0  0  0  0
 38 37  1  0  0  0  0
 39 37  1  0  0  0  0
 39 41  1  0  0  0  0
 40 39  1  0  0  0  0
 42 39  1  0  0  0  0
 43 42  1  0  0  0  0
M  END
>  <minimizedAffinity>
-5.92830181

$$$$

 OpenBabel03252504433D

 43 45  0  0  0  0  0  0  0  0999 V2000
   37.4910   28.0360   42.2560 C   0  0  0  0  0  0  0  0  0  0  0  0
   36.5930   28.3650   41.2750 C   0  0  0  0  0  0  0  0  0  0  0  0
   36.4910   27.2990   40.4910 N   0  0  0  0  0  0  0  0  0  0  0  0
   37.2800   26.2970   40.9160 C   0  0  0  0  0  0  0  0  0  0  0  0
   37.9020   26.7750   42.0260 N   0  0  0  0  0  0  0  0  0  0  0  0
   37.5000   24.9910   40.4080 N   0  0  0  0  0  0  0  0  0  0  0  0
   36.5980   23.9200   40.8940 C   0  0  0  0  0  0  0  0  0  0  0  0
   35.6510   23.6540   39.7290 C   0  0  0  0  0  0  0  0  0  0  0  0
   36.4200   23.5160   38.4460 C   0  0  0  0  0  0  0  0  0  0  0  0
   37.8870   23.2660   38.7530 C   0  0  0  0  0  0  0  0  0  0  0  0
   38.4500   24.4630   39.4840 C   0  0  0  0  0  0  0  0  0  0  0  0
   36.0910   29.3220   41.2000 H   0  0  0  0  0  0  0  0  0  0  0  0
   35.8920   27.2020   39.6430 H   0  0  0  0  0  0  0  0  0  0  0  0
   37.1750   23.0280   41.1910 H   0  0  0  0  0  0  0  0  0  0  0  0
   35.9940   24.2670   41.7370 H   0  0  0  0  0  0  0  0  0  0  0  0
   34.9250   24.4830   39.7300 H   0  0  0  0  0  0  0  0  0  0  0  0
   35.1300   22.6760   39.9100 H   0  0  0  0  0  0  0  0  0  0  0  0
   36.3900   24.5230   37.9420 H   0  0  0  0  0  0  0  0  0  0  0  0
   36.0000   22.7860   37.7490 H   0  0  0  0  0  0  0  0  0  0  0  0
   38.4660   23.0290   37.8560 H   0  0  0  0  0  0  0  0  0  0  0  0
   37.9560   22.3810   39.4180 H   0  0  0  0  0  0  0  0  0  0  0  0
   38.7480   25.1940   38.7000 H   0  0  0  0  0  0  0  0  0  0  0  0
   39.4020   24.1850   40.0000 H   0  0  0  0  0  0  0  0  0  0  0  0
   37.9480   28.9020   43.3860 C   0  0  0  0  0  0  0  0  0  0  0  0
   37.0390   29.3100   43.8400 H   0  0  0  0  0  0  0  0  0  0  0  0
   38.5200   28.2630   44.0810 H   0  0  0  0  0  0  0  0  0  0  0  0
   40.1200   29.6910   42.5500 C   0  0  0  0  0  3  0  0  0  0  0  0
   38.8720   29.9510   42.9040 C   0  0  0  0  0  3  0  0  0  0  0  0
   40.9310   30.8170   42.0910 C   0  0  0  0  0  0  0  0  0  0  0  0
   42.0910   31.2520   42.7840 C   0  0  0  0  0  0  0  0  0  0  0  0
   42.8010   32.3250   42.2820 C   0  0  0  0  0  0  0  0  0  0  0  0
   42.3750   32.9250   41.1570 N   0  0  0  0  0  0  0  0  0  0  0  0
   41.2690   32.4990   40.5080 C   0  0  0  0  0  0  0  0  0  0  0  0
   40.5670   31.4740   40.9620 N   0  0  0  0  0  0  0  0  0  0  0  0
   42.3660   30.7100   43.6890 H   0  0  0  0  0  0  0  0  0  0  0  0
   43.6850   32.6540   42.8130 H   0  0  0  0  0  0  0  0  0  0  0  0
   40.8860   33.1880   39.3230 N   0  0  0  0  0  0  0  0  0  0  0  0
   40.2450   34.0050   39.3400 H   0  0  0  0  0  0  0  0  0  0  0  0
   41.4310   32.7550   37.7440 S   0  0  0  0  0  0  0  0  0  0  0  0
   42.2190   33.8460   37.1250 O   0  0  0  0  0  1  0  0  0  0  0  0
   42.1680   31.4440   37.7550 O   0  0  0  0  0  1  0  0  0  0  0  0
   40.0770   32.5060   36.7460 O   0  0  0  0  0  0  0  0  0  0  0  0
   39.8050   33.3600   36.3110 H   0  0  0  0  0  0  0  0  0  0  0  0
  1 24  1  0  0  0  0
  2  1  2  0  0  0  0
  3  4  1  0  0  0  0
  3  2  1  0  0  0  0
  4  5  2  0  0  0  0
  5  1  1  0  0  0  0
  6  7  1  0  0  0  0
  6  4  1  0  0  0  0
  7 14  1  0  0  0  0
  7 15  1  0  0  0  0
  8 16  1  0  0  0  0
  8 17  1  0  0  0  0
  8  7  1  0  0  0  0
  9 10  1  0  0  0  0
  9  8  1  0  0  0  0
 10 21  1  0  0  0  0
 10 11  1  0  0  0  0
 11 23  1  0  0  0  0
 11  6  1  0  0  0  0
 12  2  1  0  0  0  0
 13  3  1  0  0  0  0
 18  9  1  0  0  0  0
 19  9  1  0  0  0  0
 20 10  1  0  0  0  0
 22 11  1  0  0  0  0
 24 25  1  0  0  0  0
 24 26  1  0  0  0  0
 27 28  2  0  0  0  0
 28 24  1  0  0  0  0
 29 27  1  0  0  0  0
 29 30  1  0  0  0  0
 30 35  1  0  0  0  0
 31 30  2  0  0  0  0
 31 36  1  0  0  0  0
 32 31  1  0  0  0  0
 33 34  1  0  0  0  0
 33 32  2  0  0  0  0
 34 29  2  0  0  0  0
 37 38  1  0  0  0  0
 37 33  1  0  0  0  0
 39 41  1  0  0  0  0
 39 37  1  0  0  0  0
 40 39  1  0  0  0  0
 42 39  1  0  0  0  0
 43 42  1  0  0  0  0
M  END
>  <minimizedAffinity>
-5.82061386

$$$$

 OpenBabel03252504433D

 43 45  0  0  0  0  0  0  0  0999 V2000
   39.0860   33.4190   39.6680 C   0  0  0  0  0  0  0  0  0  0  0  0
   37.9100   33.8900   40.1900 C   0  0  0  0  0  0  0  0  0  0  0  0
   37.0340   32.8990   40.0890 N   0  0  0  0  0  0  0  0  0  0  0  0
   37.5840   31.8090   39.5260 C   0  0  0  0  0  0  0  0  0  0  0  0
   38.8740   32.1510   39.2680 N   0  0  0  0  0  0  0  0  0  0  0  0
   37.0460   30.5330   39.2200 N   0  0  0  0  0  0  0  0  0  0  0  0
   37.1180   29.5020   40.2810 C   0  0  0  0  0  0  0  0  0  0  0  0
   35.6960   29.3990   40.8200 C   0  0  0  0  0  0  0  0  0  0  0  0
   34.7100   29.3020   39.6910 C   0  0  0  0  0  0  0  0  0  0  0  0
   35.4350   28.9160   38.4110 C   0  0  0  0  0  0  0  0  0  0  0  0
   36.4180   30.0060   38.0520 C   0  0  0  0  0  0  0  0  0  0  0  0
   37.7760   34.8870   40.5940 H   0  0  0  0  0  0  0  0  0  0  0  0
   36.0360   32.9150   40.3910 H   0  0  0  0  0  0  0  0  0  0  0  0
   37.4930   28.5470   39.8740 H   0  0  0  0  0  0  0  0  0  0  0  0
   37.7600   29.8280   41.1050 H   0  0  0  0  0  0  0  0  0  0  0  0
   35.5500   30.2800   41.4670 H   0  0  0  0  0  0  0  0  0  0  0  0
   35.6090   28.4540   41.4190 H   0  0  0  0  0  0  0  0  0  0  0  0
   34.3230   30.3440   39.5090 H   0  0  0  0  0  0  0  0  0  0  0  0
   33.8500   28.6620   39.9020 H   0  0  0  0  0  0  0  0  0  0  0  0
   34.7460   28.7050   37.5900 H   0  0  0  0  0  0  0  0  0  0  0  0
   35.9990   27.9790   38.6010 H   0  0  0  0  0  0  0  0  0  0  0  0
   35.8420   30.7700   37.4850 H   0  0  0  0  0  0  0  0  0  0  0  0
   37.1770   29.6160   37.3290 H   0  0  0  0  0  0  0  0  0  0  0  0
   40.3810   34.1580   39.5520 C   0  0  0  0  0  0  0  0  0  0  0  0
   40.1520   35.0870   39.0210 H   0  0  0  0  0  0  0  0  0  0  0  0
   40.7520   34.3350   40.5770 H   0  0  0  0  0  0  0  0  0  0  0  0
   42.3100   33.8540   38.0610 C   0  0  0  0  0  3  0  0  0  0  0  0
   41.3960   33.3330   38.8620 C   0  0  0  0  0  3  0  0  0  0  0  0
   43.2570   32.9300   37.4390 C   0  0  0  0  0  0  0  0  0  0  0  0
   44.6600   33.1480   37.4650 C   0  0  0  0  0  0  0  0  0  0  0  0
   45.4860   32.2260   36.8530 C   0  0  0  0  0  0  0  0  0  0  0  0
   44.9400   31.1540   36.2520 N   0  0  0  0  0  0  0  0  0  0  0  0
   43.6040   30.9610   36.2360 C   0  0  0  0  0  0  0  0  0  0  0  0
   42.7850   31.8240   36.8130 N   0  0  0  0  0  0  0  0  0  0  0  0
   45.0190   34.0430   37.9730 H   0  0  0  0  0  0  0  0  0  0  0  0
   46.5550   32.3940   36.8740 H   0  0  0  0  0  0  0  0  0  0  0  0
   43.1060   29.8000   35.5790 N   0  0  0  0  0  0  0  0  0  0  0  0
   42.8570   29.7970   34.5710 H   0  0  0  0  0  0  0  0  0  0  0  0
   42.8630   28.2840   36.3670 S   0  0  0  0  0  0  0  0  0  0  0  0
   43.6450   28.1930   37.6210 O   0  0  0  0  0  1  0  0  0  0  0  0
   41.4010   27.9990   36.5760 O   0  0  0  0  0  1  0  0  0  0  0  0
   43.4260   27.0420   35.3510 O   0  0  0  0  0  0  0  0  0  0  0  0
   44.3910   26.8650   35.5220 H   0  0  0  0  0  0  0  0  0  0  0  0
  1  2  2  0  0  0  0
  2 12  1  0  0  0  0
  3  2  1  0  0  0  0
  3 13  1  0  0  0  0
  4  3  1  0  0  0  0
  5  4  2  0  0  0  0
  5  1  1  0  0  0  0
  6  4  1  0  0  0  0
  6  7  1  0  0  0  0
  7  8  1  0  0  0  0
  7 15  1  0  0  0  0
  8 17  1  0  0  0  0
  8 16  1  0  0  0  0
  9 19  1  0  0  0  0
  9  8  1  0  0  0  0
 10 21  1  0  0  0  0
 10  9  1  0  0  0  0
 11 10  1  0  0  0  0
 11  6  1  0  0  0  0
 14  7  1  0  0  0  0
 18  9  1  0  0  0  0
 20 10  1  0  0  0  0
 22 11  1  0  0  0  0
 23 11  1  0  0  0  0
 24  1  1  0  0  0  0
 24 26  1  0  0  0  0
 25 24  1  0  0  0  0
 27 28  2  0  0  0  0
 28 24  1  0  0  0  0
 29 30  1  0  0  0  0
 29 27  1  0  0  0  0
 30 35  1  0  0  0  0
 31 36  1  0  0  0  0
 31 30  2  0  0  0  0
 32 31  1  0  0  0  0
 33 32  2  0  0  0  0
 33 34  1  0  0  0  0
 34 29  2  0  0  0  0
 37 33  1  0  0  0  0
 37 39  1  0  0  0  0
 38 37  1  0  0  0  0
 39 41  1  0  0  0  0
 39 40  1  0  0  0  0
 42 43  1  0  0  0  0
 42 39  1  0  0  0  0
M  END
>  <minimizedAffinity>
-5.77079964

$$$$

 OpenBabel03252504433D

 43 45  0  0  0  0  0  0  0  0999 V2000
   38.3660   28.9680   42.6780 C   0  0  0  0  0  0  0  0  0  0  0  0
   37.4130   28.4070   43.4850 C   0  0  0  0  0  0  0  0  0  0  0  0
   36.9710   27.3300   42.8470 N   0  0  0  0  0  0  0  0  0  0  0  0
   37.5910   27.1680   41.6650 C   0  0  0  0  0  0  0  0  0  0  0  0
   38.4650   28.2050   41.5730 N   0  0  0  0  0  0  0  0  0  0  0  0
   37.4530   26.1800   40.6570 N   0  0  0  0  0  0  0  0  0  0  0  0
   38.2950   24.9680   40.7840 C   0  0  0  0  0  0  0  0  0  0  0  0
   37.3380   23.8790   41.2560 C   0  0  0  0  0  0  0  0  0  0  0  0
   36.0840   23.8860   40.4290 C   0  0  0  0  0  0  0  0  0  0  0  0
   36.3230   24.6640   39.1450 C   0  0  0  0  0  0  0  0  0  0  0  0
   36.6370   26.1020   39.4890 C   0  0  0  0  0  0  0  0  0  0  0  0
   37.1150   28.8040   44.4480 H   0  0  0  0  0  0  0  0  0  0  0  0
   36.2380   26.6650   43.1770 H   0  0  0  0  0  0  0  0  0  0  0  0
   38.7810   24.7260   39.8240 H   0  0  0  0  0  0  0  0  0  0  0  0
   39.0560   25.0970   41.5600 H   0  0  0  0  0  0  0  0  0  0  0  0
   37.1670   24.0660   42.3290 H   0  0  0  0  0  0  0  0  0  0  0  0
   37.8300   22.8820   41.1040 H   0  0  0  0  0  0  0  0  0  0  0  0
   35.3220   24.4860   41.0020 H   0  0  0  0  0  0  0  0  0  0  0  0
   35.6590   22.8950   40.2530 H   0  0  0  0  0  0  0  0  0  0  0  0
   35.4820   24.5880   38.4500 H   0  0  0  0  0  0  0  0  0  0  0  0
   37.2010   24.2230   38.6300 H   0  0  0  0  0  0  0  0  0  0  0  0
   35.6570   26.6150   39.6080 H   0  0  0  0  0  0  0  0  0  0  0  0
   37.1270   26.6060   38.6200 H   0  0  0  0  0  0  0  0  0  0  0  0
   39.1640   30.2030   42.9500 C   0  0  0  0  0  0  0  0  0  0  0  0
   38.5390   30.8300   43.5950 H   0  0  0  0  0  0  0  0  0  0  0  0
   40.1010   29.8890   43.4420 H   0  0  0  0  0  0  0  0  0  0  0  0
   40.6980   31.4970   41.5320 C   0  0  0  0  0  3  0  0  0  0  0  0
   39.5430   30.8730   41.6870 C   0  0  0  0  0  3  0  0  0  0  0  0
   40.9520   32.1190   40.2340 C   0  0  0  0  0  0  0  0  0  0  0  0
   40.9590   33.5270   40.0530 C   0  0  0  0  0  0  0  0  0  0  0  0
   41.2070   34.0340   38.7920 C   0  0  0  0  0  0  0  0  0  0  0  0
   41.4310   33.1820   37.7760 N   0  0  0  0  0  0  0  0  0  0  0  0
   41.4210   31.8450   37.9640 C   0  0  0  0  0  0  0  0  0  0  0  0
   41.1880   31.3270   39.1590 N   0  0  0  0  0  0  0  0  0  0  0  0
   40.7660   34.1450   40.9300 H   0  0  0  0  0  0  0  0  0  0  0  0
   41.2120   35.1070   38.6580 H   0  0  0  0  0  0  0  0  0  0  0  0
   41.6690   31.0120   36.8360 N   0  0  0  0  0  0  0  0  0  0  0  0
   40.9050   30.6700   36.2210 H   0  0  0  0  0  0  0  0  0  0  0  0
   43.2420   30.4810   36.3640 S   0  0  0  0  0  0  0  0  0  0  0  0
   43.8270   29.5610   37.3680 O   0  0  0  0  0  1  0  0  0  0  0  0
   43.2340   29.8960   34.9790 O   0  0  0  0  0  1  0  0  0  0  0  0
   44.2730   31.8300   36.2820 O   0  0  0  0  0  0  0  0  0  0  0  0
   44.7010   31.9940   37.1660 H   0  0  0  0  0  0  0  0  0  0  0  0
  1 24  1  0  0  0  0
  1  2  2  0  0  0  0
  2 12  1  0  0  0  0
  3 13  1  0  0  0  0
  3  2  1  0  0  0  0
  4  3  1  0  0  0  0
  5  4  2  0  0  0  0
  5  1  1  0  0  0  0
  6  7  1  0  0  0  0
  6  4  1  0  0  0  0
  7  8  1  0  0  0  0
  7 15  1  0  0  0  0
  8 16  1  0  0  0  0
  9 18  1  0  0  0  0
  9  8  1  0  0  0  0
 10 11  1  0  0  0  0
 10  9  1  0  0  0  0
 11 22  1  0  0  0  0
 11  6  1  0  0  0  0
 14  7  1  0  0  0  0
 17  8  1  0  0  0  0
 19  9  1  0  0  0  0
 20 10  1  0  0  0  0
 21 10  1  0  0  0  0
 23 11  1  0  0  0  0
 24 26  1  0  0  0  0
 24 25  1  0  0  0  0
 27 28  2  0  0  0  0
 28 24  1  0  0  0  0
 29 27  1  0  0  0  0
 30 29  1  0  0  0  0
 30 35  1  0  0  0  0
 31 30  2  0  0  0  0
 32 33  2  0  0  0  0
 32 31  1  0  0  0  0
 33 34  1  0  0  0  0
 34 29  2  0  0  0  0
 36 31  1  0  0  0  0
 37 33  1  0  0  0  0
 38 37  1  0  0  0  0
 39 37  1  0  0  0  0
 39 40  1  0  0  0  0
 41 39  1  0  0  0  0
 42 39  1  0  0  0  0
 42 43  1  0  0  0  0
M  END
>  <minimizedAffinity>
-5.72483444

$$$$
