
 OpenBabel03242522133D

 24 25  0  0  0  0  0  0  0  0999 V2000
   46.1190   34.4910   43.4200 C   0  0  0  0  0  0  0  0  0  0  0  0
   45.2280   35.5050   43.3250 C   0  0  0  0  0  0  0  0  0  0  0  0
   44.5200   35.5620   45.0420 S   0  0  0  0  0  0  0  0  0  0  0  0
   45.6170   34.1450   45.5600 C   0  0  0  0  0  0  0  0  0  0  0  0
   46.1810   33.9340   44.5900 N   0  0  0  0  0  0  0  0  0  0  0  0
   44.9690   36.1450   42.4710 H   0  0  0  0  0  0  0  0  0  0  0  0
   45.5110   33.6830   46.9500 N   0  0  0  0  0  0  0  0  0  0  0  0
   45.2450   34.4450   47.5690 H   0  0  0  0  0  0  0  0  0  0  0  0
   48.0500   32.3830   40.9590 C   0  0  0  0  0  0  0  0  0  0  0  0
   47.2520   32.7350   42.0500 C   0  0  0  0  0  0  0  0  0  0  0  0
   46.9560   34.0540   42.2800 C   0  0  0  0  0  0  0  0  0  0  0  0
   47.4890   34.9600   41.3830 N   0  0  0  0  0  0  0  0  0  0  0  0
   48.2510   34.5980   40.3450 C   0  0  0  0  0  0  0  0  0  0  0  0
   48.5310   33.3020   40.1350 N   0  0  0  0  0  0  0  0  0  0  0  0
   48.2920   31.3460   40.7670 H   0  0  0  0  0  0  0  0  0  0  0  0
   48.6340   35.3660   39.6850 H   0  0  0  0  0  0  0  0  0  0  0  0
   46.7970   31.6520   42.8640 N   0  0  0  0  0  0  0  0  0  0  0  0
   47.3900   31.0160   43.4350 H   0  0  0  0  0  0  0  0  0  0  0  0
   45.7810   31.5780   42.8110 H   0  0  0  0  0  0  0  0  0  0  0  0
   45.7930   32.0910   47.4380 S   0  0  0  0  0  0  0  0  0  0  0  0
   44.6240   31.6670   48.3170 O   0  0  0  0  0  0  0  0  0  0  0  0
   45.8970   31.1120   46.3390 O   0  0  0  0  0  0  0  0  0  0  0  0
   47.1320   32.0910   48.4640 O   0  0  0  0  0  0  0  0  0  0  0  0
   47.3250   33.0130   48.8240 H   0  0  0  0  0  0  0  0  0  0  0  0
  1  5  1  0  0  0  0
  2  1  2  0  0  0  0
  2  3  1  0  0  0  0
  3  4  1  0  0  0  0
  4  7  1  0  0  0  0
  5  4  2  0  0  0  0
  6  2  1  0  0  0  0
  7 20  1  0  0  0  0
  7  8  1  0  0  0  0
  9 10  1  0  0  0  0
 10 11  2  0  0  0  0
 10 17  1  0  0  0  0
 11  1  1  0  0  0  0
 12 11  1  0  0  0  0
 13 12  2  0  0  0  0
 14 13  1  0  0  0  0
 14  9  2  0  0  0  0
 15  9  1  0  0  0  0
 16 13  1  0  0  0  0
 17 18  1  0  0  0  0
 19 17  1  0  0  0  0
 20 21  1  0  0  0  0
 20 23  1  0  0  0  0
 22 20  1  0  0  0  0
 23 24  1  0  0  0  0
M  END
>  <minimizedAffinity>
-4.65521765

>  <minimizedRMSD>
6.7293911

$$$$
