
 OpenBabel03242519563D

 26 27  0  0  0  0  0  0  0  0999 V2000
   44.4140   33.3000   41.2770 Br  0  0  0  0  0  0  0  0  0  0  0  0
   46.1420   34.0810   41.1140 C   0  0  0  0  0  0  0  0  0  0  0  0
   46.7520   34.7680   42.1280 C   0  0  0  0  0  0  0  0  0  0  0  0
   48.0040   35.3100   41.9180 C   0  0  0  0  0  0  0  0  0  0  0  0
   48.6690   35.1850   40.7170 C   0  0  0  0  0  0  0  0  0  0  0  0
   48.0760   34.4980   39.6790 C   0  0  0  0  0  0  0  0  0  0  0  0
   46.8320   33.9690   39.9150 C   0  0  0  0  0  0  0  0  0  0  0  0
   48.4800   35.8520   42.7260 H   0  0  0  0  0  0  0  0  0  0  0  0
   49.6480   35.6320   40.6130 H   0  0  0  0  0  0  0  0  0  0  0  0
   48.6310   34.4270   38.7650 H   0  0  0  0  0  0  0  0  0  0  0  0
   44.4420   36.0030   44.8810 C   0  0  0  0  0  0  0  0  0  0  0  0
   45.1420   35.9020   43.6760 C   0  0  0  0  0  0  0  0  0  0  0  0
   46.0240   34.8750   43.3940 C   0  0  0  0  0  0  0  0  0  0  0  0
   46.1650   33.9520   44.3930 N   0  0  0  0  0  0  0  0  0  0  0  0
   45.4960   34.0380   45.5570 C   0  0  0  0  0  0  0  0  0  0  0  0
   44.6520   35.0390   45.7980 N   0  0  0  0  0  0  0  0  0  0  0  0
   43.7620   36.8270   45.0510 H   0  0  0  0  0  0  0  0  0  0  0  0
   44.9770   36.6660   42.9410 H   0  0  0  0  0  0  0  0  0  0  0  0
   45.7540   33.2120   46.1940 H   0  0  0  0  0  0  0  0  0  0  0  0
   46.1870   33.2540   38.8720 N   0  0  0  0  0  0  0  0  0  0  0  0
   45.3860   32.5870   39.0620 H   0  0  0  0  0  0  0  0  0  0  0  0
   46.3280   33.1210   37.1910 S   0  0  0  0  0  0  0  0  0  0  0  0
   46.2700   31.6660   36.7500 O   0  0  0  0  0  0  0  0  0  0  0  0
   47.6370   33.7270   36.7350 O   0  0  0  0  0  0  0  0  0  0  0  0
   45.0660   34.0060   36.4740 O   0  0  0  0  0  0  0  0  0  0  0  0
   45.4010   34.9360   36.3120 H   0  0  0  0  0  0  0  0  0  0  0  0
  2  1  1  0  0  0  0
  2  3  1  0  0  0  0
  3 13  1  0  0  0  0
  4  3  2  0  0  0  0
  4  8  1  0  0  0  0
  5  4  1  0  0  0  0
  6  7  1  0  0  0  0
  6  5  2  0  0  0  0
  7  2  2  0  0  0  0
  9  5  1  0  0  0  0
 10  6  1  0  0  0  0
 11 17  1  0  0  0  0
 11 16  1  0  0  0  0
 12 11  2  0  0  0  0
 13 12  1  0  0  0  0
 13 14  2  0  0  0  0
 14 15  1  0  0  0  0
 15 16  2  0  0  0  0
 15 19  1  0  0  0  0
 18 12  1  0  0  0  0
 20 21  1  0  0  0  0
 20  7  1  0  0  0  0
 22 20  1  0  0  0  0
 23 22  1  0  0  0  0
 24 22  1  0  0  0  0
 25 22  1  0  0  0  0
 26 25  1  0  0  0  0
M  END
>  <minimizedAffinity>
-5.90849686

>  <minimizedRMSD>
0.255866557

$$$$
