
 OpenBabel03242518373D

 37 39  0  0  1  0  0  0  0  0999 V2000
   47.5310   33.6240   39.4540 C   0  0  0  0  0  0  0  0  0  0  0  0
   48.3620   34.4520   38.6820 C   0  0  0  0  0  0  0  0  0  0  0  0
   48.0390   34.2850   37.3520 C   0  0  0  0  0  0  0  0  0  0  0  0
   47.0350   33.3720   37.3690 C   0  0  0  0  0  0  0  0  0  0  0  0
   46.7310   32.9800   38.6010 O   0  0  0  0  0  0  0  0  0  0  0  0
   49.0950   35.0710   39.1710 H   0  0  0  0  0  0  0  0  0  0  0  0
   48.5200   34.7990   36.5470 H   0  0  0  0  0  0  0  0  0  0  0  0
   46.3520   32.8700   36.1580 C   0  0  2  0  0  0  0  0  0  0  0  0
   46.2020   31.4340   35.9320 C   0  0  0  0  0  0  0  0  0  0  0  0
   47.2940   32.1110   35.1880 C   0  0  1  0  0  0  0  0  0  0  0  0
   45.7220   33.6550   35.6820 H   0  0  0  0  0  0  0  0  0  0  0  0
   45.3520   31.0000   35.3640 H   0  0  0  0  0  0  0  0  0  0  0  0
   46.4680   30.7650   36.8020 H   0  0  0  0  0  0  0  0  0  0  0  0
   48.3280   32.0010   35.5040 H   0  0  0  0  0  0  0  0  0  0  0  0
   48.1070   32.7300   32.9270 C   0  0  0  0  0  0  0  0  0  0  0  0
   49.3010   32.8540   33.3260 O   0  0  0  0  0  0  0  0  0  0  0  0
   47.0200   32.4140   33.7840 N   0  0  0  0  0  0  0  0  0  0  0  0
   47.8150   32.8570   31.8770 H   0  0  0  0  0  0  0  0  0  0  0  0
   46.0310   32.3890   33.4520 H   0  0  0  0  0  0  0  0  0  0  0  0
   47.4370   33.4080   40.8540 O   0  0  0  0  0  0  0  0  0  0  0  0
   47.5380   34.5250   41.7130 C   0  0  0  0  0  0  0  0  0  0  0  0
   48.3130   35.4530   41.3410 O   0  0  0  0  0  0  0  0  0  0  0  0
   46.7600   34.4900   42.9000 C   0  0  0  0  0  0  0  0  0  0  0  0
   45.5530   35.1100   42.8450 C   0  0  0  0  0  0  0  0  0  0  0  0
   44.7400   35.1130   43.9760 C   0  0  0  0  0  0  0  0  0  0  0  0
   45.1840   34.5020   45.0760 N   0  0  0  0  0  0  0  0  0  0  0  0
   46.3820   33.8950   45.1110 C   0  0  0  0  0  0  0  0  0  0  0  0
   47.1280   33.9120   44.0120 N   0  0  0  0  0  0  0  0  0  0  0  0
   45.1730   35.6120   41.9610 H   0  0  0  0  0  0  0  0  0  0  0  0
   43.7720   35.6000   43.9550 H   0  0  0  0  0  0  0  0  0  0  0  0
   46.8600   33.2450   46.2750 N   0  0  0  0  0  0  0  0  0  0  0  0
   47.8790   33.1940   46.4710 H   0  0  0  0  0  0  0  0  0  0  0  0
   45.8100   32.5040   47.4350 S   0  0  0  0  0  0  0  0  0  0  0  0
   46.5530   32.3280   48.7150 O   0  0  0  0  0  0  0  0  0  0  0  0
   45.3200   31.1740   46.9690 O   0  0  0  0  0  0  0  0  0  0  0  0
   44.5460   33.5740   47.7210 O   0  0  0  0  0  0  0  0  0  0  0  0
   43.7090   33.2920   47.2740 H   0  0  0  0  0  0  0  0  0  0  0  0
  1 20  1  0  0  0  0
  2  6  1  0  0  0  0
  2  1  2  0  0  0  0
  3  4  2  0  0  0  0
  3  2  1  0  0  0  0
  4  5  1  0  0  0  0
  5  1  1  0  0  0  0
  7  3  1  0  0  0  0
  8 11  1  6  0  0  0
  8  4  1  0  0  0  0
  9  8  1  0  0  0  0
  9 13  1  0  0  0  0
 10 14  1  1  0  0  0
 10  9  1  0  0  0  0
 10  8  1  0  0  0  0
 12  9  1  0  0  0  0
 15 16  2  0  0  0  0
 15 17  1  0  0  0  0
 17 10  1  0  0  0  0
 18 15  1  0  0  0  0
 19 17  1  0  0  0  0
 20 21  1  0  0  0  0
 21 23  1  0  0  0  0
 22 21  2  0  0  0  0
 23 28  1  0  0  0  0
 24 23  2  0  0  0  0
 24 25  1  0  0  0  0
 25 26  2  0  0  0  0
 26 27  1  0  0  0  0
 27 31  1  0  0  0  0
 28 27  2  0  0  0  0
 29 24  1  0  0  0  0
 30 25  1  0  0  0  0
 31 32  1  0  0  0  0
 31 33  1  0  0  0  0
 33 36  1  0  0  0  0
 33 34  1  0  0  0  0
 35 33  1  0  0  0  0
 37 36  1  0  0  0  0
M  END
>  <minimizedAffinity>
-6.35779524

>  <minimizedRMSD>
1.10244286

$$$$
