
 OpenBabel03242519523D

 32 33  0  0  1  0  0  0  0  0999 V2000
   38.1960   26.6930   41.2740 C   0  0  2  0  0  0  0  0  0  0  0  0
   39.2130   26.7330   42.3410 C   0  0  0  0  0  0  0  0  0  0  0  0
   38.6750   27.1710   43.6760 C   0  0  0  0  0  0  0  0  0  0  0  0
   37.9630   28.4970   43.6040 C   0  0  0  0  0  0  0  0  0  0  0  0
   37.1390   28.6660   42.3500 C   0  0  2  0  0  0  0  0  0  0  0  0
   36.9010   27.3520   41.6620 C   0  0  0  0  0  0  0  0  0  0  0  0
   38.5080   27.2020   40.3190 H   0  0  0  0  0  0  0  0  0  0  0  0
   39.7760   25.7890   42.4840 H   0  0  0  0  0  0  0  0  0  0  0  0
   39.9990   27.4820   42.0580 H   0  0  0  0  0  0  0  0  0  0  0  0
   39.5620   27.3210   44.3500 H   0  0  0  0  0  0  0  0  0  0  0  0
   38.0120   26.4760   44.1820 H   0  0  0  0  0  0  0  0  0  0  0  0
   38.6920   29.3050   43.7450 H   0  0  0  0  0  0  0  0  0  0  0  0
   37.2570   28.5800   44.4750 H   0  0  0  0  0  0  0  0  0  0  0  0
   36.1270   29.0770   42.5900 H   0  0  0  0  0  0  0  0  0  0  0  0
   36.2510   27.4710   40.7920 H   0  0  0  0  0  0  0  0  0  0  0  0
   36.3990   26.6180   42.3580 H   0  0  0  0  0  0  0  0  0  0  0  0
   37.8860   25.2950   40.8610 C   0  0  0  0  0  0  0  0  0  0  0  0
   36.6410   25.0830   40.2390 C   0  0  0  0  0  0  0  0  0  0  0  0
   36.2890   23.8050   39.8220 C   0  0  0  0  0  0  0  0  0  0  0  0
   37.2100   22.8030   40.0530 N   0  0  0  0  0  0  0  0  0  0  0  0
   38.3970   23.0330   40.6510 C   0  0  0  0  0  0  0  0  0  0  0  0
   38.7360   24.2740   41.0540 N   0  0  0  0  0  0  0  0  0  0  0  0
   35.8820   25.7910   40.0260 H   0  0  0  0  0  0  0  0  0  0  0  0
   35.3600   23.5520   39.3390 H   0  0  0  0  0  0  0  0  0  0  0  0
   39.0750   22.1820   40.7990 H   0  0  0  0  0  0  0  0  0  0  0  0
   37.8760   29.4970   41.4570 N   0  0  0  0  0  0  0  0  0  0  0  0
   38.7390   29.1550   41.0640 H   0  0  0  0  0  0  0  0  0  0  0  0
   37.0630   30.7710   40.7220 S   0  0  0  0  0  0  0  0  0  0  0  0
   37.9410   31.9890   40.7170 O   0  0  0  0  0  1  0  0  0  0  0  0
   36.8120   30.4260   39.2600 O   0  0  0  0  0  1  0  0  0  0  0  0
   35.5610   31.1140   41.3800 O   0  0  0  0  0  0  0  0  0  0  0  0
   35.6030   31.9750   41.8980 H   0  0  0  0  0  0  0  0  0  0  0  0
  1  7  1  6  0  0  0
  1  6  1  0  0  0  0
  1  2  1  0  0  0  0
  2  8  1  0  0  0  0
  2  3  1  0  0  0  0
  3 11  1  0  0  0  0
  3 10  1  0  0  0  0
  4  3  1  0  0  0  0
  4 12  1  0  0  0  0
  4 13  1  0  0  0  0
  5 14  1  1  0  0  0
  5  4  1  0  0  0  0
  6  5  1  0  0  0  0
  6 16  1  0  0  0  0
  9  2  1  0  0  0  0
 15  6  1  0  0  0  0
 17 22  1  0  0  0  0
 17  1  1  0  0  0  0
 18 17  2  0  0  0  0
 19 20  2  0  0  0  0
 19 18  1  0  0  0  0
 20 21  1  0  0  0  0
 21 25  1  0  0  0  0
 21 22  2  0  0  0  0
 23 18  1  0  0  0  0
 24 19  1  0  0  0  0
 26  5  1  0  0  0  0
 27 26  1  0  0  0  0
 28 31  1  0  0  0  0
 28 26  1  0  0  0  0
 29 28  1  0  0  0  0
 30 28  1  0  0  0  0
 31 32  1  0  0  0  0
M  END
>  <minimizedAffinity>
-4.94017363

$$$$

 OpenBabel03242519523D

 32 33  0  0  1  0  0  0  0  0999 V2000
   37.8630   28.9250   41.8780 C   0  0  2  0  0  0  0  0  0  0  0  0
   36.3890   28.8770   41.8890 C   0  0  0  0  0  0  0  0  0  0  0  0
   35.7690   28.9550   40.5210 C   0  0  0  0  0  0  0  0  0  0  0  0
   36.2320   30.1620   39.7460 C   0  0  0  0  0  0  0  0  0  0  0  0
   37.6940   30.4770   39.9460 C   0  0  2  0  0  0  0  0  0  0  0  0
   38.4350   29.3140   40.5420 C   0  0  0  0  0  0  0  0  0  0  0  0
   38.3070   29.6580   42.6100 H   0  0  0  0  0  0  0  0  0  0  0  0
   35.9560   28.0060   42.4190 H   0  0  0  0  0  0  0  0  0  0  0  0
   36.0060   29.7650   42.4580 H   0  0  0  0  0  0  0  0  0  0  0  0
   34.6630   29.0770   40.6720 H   0  0  0  0  0  0  0  0  0  0  0  0
   35.9030   28.0900   39.8790 H   0  0  0  0  0  0  0  0  0  0  0  0
   35.5780   31.0120   39.9800 H   0  0  0  0  0  0  0  0  0  0  0  0
   36.0840   29.9700   38.6480 H   0  0  0  0  0  0  0  0  0  0  0  0
   38.1940   30.6930   38.9690 H   0  0  0  0  0  0  0  0  0  0  0  0
   39.5040   29.5250   40.6250 H   0  0  0  0  0  0  0  0  0  0  0  0
   38.3230   28.3930   39.8990 H   0  0  0  0  0  0  0  0  0  0  0  0
   38.4600   27.6150   42.2610 C   0  0  0  0  0  0  0  0  0  0  0  0
   39.4430   27.6400   43.2670 C   0  0  0  0  0  0  0  0  0  0  0  0
   40.0380   26.4530   43.6800 C   0  0  0  0  0  0  0  0  0  0  0  0
   39.6110   25.2980   43.0550 N   0  0  0  0  0  0  0  0  0  0  0  0
   38.6660   25.3020   42.0920 C   0  0  0  0  0  0  0  0  0  0  0  0
   38.0910   26.4550   41.6960 N   0  0  0  0  0  0  0  0  0  0  0  0
   39.8260   28.4760   43.7940 H   0  0  0  0  0  0  0  0  0  0  0  0
   40.7960   26.3790   44.4400 H   0  0  0  0  0  0  0  0  0  0  0  0
   38.3810   24.3400   41.6440 H   0  0  0  0  0  0  0  0  0  0  0  0
   37.7810   31.5640   40.8640 N   0  0  0  0  0  0  0  0  0  0  0  0
   37.8260   31.3720   41.8530 H   0  0  0  0  0  0  0  0  0  0  0  0
   38.2950   33.0500   40.2710 S   0  0  0  0  0  0  0  0  0  0  0  0
   39.4010   32.8370   39.2770 O   0  0  0  0  0  1  0  0  0  0  0  0
   37.1550   33.7030   39.5010 O   0  0  0  0  0  1  0  0  0  0  0  0
   38.7490   34.1530   41.4490 O   0  0  0  0  0  0  0  0  0  0  0  0
   39.7480   34.2650   41.4450 H   0  0  0  0  0  0  0  0  0  0  0  0
  1  2  1  0  0  0  0
  1 17  1  0  0  0  0
  1  7  1  1  0  0  0
  2  8  1  0  0  0  0
  2  9  1  0  0  0  0
  3 10  1  0  0  0  0
  3  2  1  0  0  0  0
  4  5  1  0  0  0  0
  4 12  1  0  0  0  0
  4  3  1  0  0  0  0
  5 14  1  6  0  0  0
  5  6  1  0  0  0  0
  5 26  1  0  0  0  0
  6 15  1  0  0  0  0
  6  1  1  0  0  0  0
 11  3  1  0  0  0  0
 13  4  1  0  0  0  0
 16  6  1  0  0  0  0
 17 18  1  0  0  0  0
 18 19  2  0  0  0  0
 18 23  1  0  0  0  0
 19 24  1  0  0  0  0
 20 19  1  0  0  0  0
 21 20  2  0  0  0  0
 22 21  1  0  0  0  0
 22 17  2  0  0  0  0
 25 21  1  0  0  0  0
 26 27  1  0  0  0  0
 28 26  1  0  0  0  0
 28 31  1  0  0  0  0
 29 28  1  0  0  0  0
 30 28  1  0  0  0  0
 32 31  1  0  0  0  0
M  END
>  <minimizedAffinity>
-4.74585581

$$$$

 OpenBabel03242519523D

 32 33  0  0  1  0  0  0  0  0999 V2000
   37.7500   30.2310   39.9420 C   0  0  2  0  0  0  0  0  0  0  0  0
   37.3010   29.8600   38.5860 C   0  0  0  0  0  0  0  0  0  0  0  0
   35.8070   29.7550   38.4490 C   0  0  0  0  0  0  0  0  0  0  0  0
   35.2000   28.8160   39.4600 C   0  0  0  0  0  0  0  0  0  0  0  0
   35.8420   28.9070   40.8230 C   0  0  2  0  0  0  0  0  0  0  0  0
   36.6550   30.1620   40.9700 C   0  0  0  0  0  0  0  0  0  0  0  0
   38.5750   29.5800   40.3490 H   0  0  0  0  0  0  0  0  0  0  0  0
   37.6810   30.5120   37.7750 H   0  0  0  0  0  0  0  0  0  0  0  0
   37.7110   28.8460   38.3390 H   0  0  0  0  0  0  0  0  0  0  0  0
   35.6040   29.3110   37.4380 H   0  0  0  0  0  0  0  0  0  0  0  0
   35.2510   30.6860   38.4990 H   0  0  0  0  0  0  0  0  0  0  0  0
   35.2080   27.7970   39.0540 H   0  0  0  0  0  0  0  0  0  0  0  0
   34.1130   29.0740   39.5900 H   0  0  0  0  0  0  0  0  0  0  0  0
   35.0670   28.9450   41.6280 H   0  0  0  0  0  0  0  0  0  0  0  0
   37.0640   30.2550   41.9790 H   0  0  0  0  0  0  0  0  0  0  0  0
   36.0210   31.0770   40.7800 H   0  0  0  0  0  0  0  0  0  0  0  0
   38.3170   31.6080   39.9760 C   0  0  0  0  0  0  0  0  0  0  0  0
   37.3950   32.6700   39.9380 C   0  0  0  0  0  0  0  0  0  0  0  0
   37.8530   33.9820   39.9740 C   0  0  0  0  0  0  0  0  0  0  0  0
   39.2210   34.1580   40.0470 N   0  0  0  0  0  0  0  0  0  0  0  0
   40.0830   33.1220   40.0820 C   0  0  0  0  0  0  0  0  0  0  0  0
   39.6350   31.8510   40.0470 N   0  0  0  0  0  0  0  0  0  0  0  0
   36.3380   32.6240   39.8830 H   0  0  0  0  0  0  0  0  0  0  0  0
   37.2210   34.8530   39.9500 H   0  0  0  0  0  0  0  0  0  0  0  0
   41.1570   33.3450   40.1390 H   0  0  0  0  0  0  0  0  0  0  0  0
   36.7270   27.7980   40.9590 N   0  0  0  0  0  0  0  0  0  0  0  0
   37.3310   27.5530   40.1900 H   0  0  0  0  0  0  0  0  0  0  0  0
   37.0830   27.2670   42.5130 S   0  0  0  0  0  0  0  0  0  0  0  0
   37.2770   25.7770   42.5000 O   0  0  0  0  0  1  0  0  0  0  0  0
   38.4140   27.8620   42.9520 O   0  0  0  0  0  1  0  0  0  0  0  0
   35.9670   27.7180   43.6790 O   0  0  0  0  0  0  0  0  0  0  0  0
   35.4300   26.9180   43.9660 H   0  0  0  0  0  0  0  0  0  0  0  0
  1 17  1  0  0  0  0
  1  7  1  1  0  0  0
  1  6  1  0  0  0  0
  2  1  1  0  0  0  0
  3 11  1  0  0  0  0
  3  2  1  0  0  0  0
  3  4  1  0  0  0  0
  4 13  1  0  0  0  0
  4  5  1  0  0  0  0
  5 26  1  0  0  0  0
  5  6  1  0  0  0  0
  5 14  1  1  0  0  0
  6 15  1  0  0  0  0
  8  2  1  0  0  0  0
  9  2  1  0  0  0  0
 10  3  1  0  0  0  0
 12  4  1  0  0  0  0
 16  6  1  0  0  0  0
 17 22  1  0  0  0  0
 18 19  1  0  0  0  0
 18 17  2  0  0  0  0
 19 20  2  0  0  0  0
 20 21  1  0  0  0  0
 21 25  1  0  0  0  0
 22 21  2  0  0  0  0
 23 18  1  0  0  0  0
 24 19  1  0  0  0  0
 26 28  1  0  0  0  0
 27 26  1  0  0  0  0
 28 30  1  0  0  0  0
 28 31  1  0  0  0  0
 29 28  1  0  0  0  0
 31 32  1  0  0  0  0
M  END
>  <minimizedAffinity>
-4.69942522

$$$$

 OpenBabel03242519523D

 32 33  0  0  1  0  0  0  0  0999 V2000
   38.0920   28.8690   41.4000 C   0  0  2  0  0  0  0  0  0  0  0  0
   36.9520   28.5800   42.2910 C   0  0  0  0  0  0  0  0  0  0  0  0
   37.3570   28.1670   43.6790 C   0  0  0  0  0  0  0  0  0  0  0  0
   38.3100   27.0000   43.6800 C   0  0  0  0  0  0  0  0  0  0  0  0
   39.3300   27.0600   42.5680 C   0  0  2  0  0  0  0  0  0  0  0  0
   39.4150   28.4350   41.9680 C   0  0  0  0  0  0  0  0  0  0  0  0
   38.0290   28.3700   40.3920 H   0  0  0  0  0  0  0  0  0  0  0  0
   36.2060   29.3940   42.3720 H   0  0  0  0  0  0  0  0  0  0  0  0
   36.3740   27.7180   41.8630 H   0  0  0  0  0  0  0  0  0  0  0  0
   36.4240   27.8170   44.1990 H   0  0  0  0  0  0  0  0  0  0  0  0
   37.7920   28.9390   44.3060 H   0  0  0  0  0  0  0  0  0  0  0  0
   37.7350   26.0650   43.6780 H   0  0  0  0  0  0  0  0  0  0  0  0
   38.8800   26.9950   44.6490 H   0  0  0  0  0  0  0  0  0  0  0  0
   40.3540   26.8270   42.9520 H   0  0  0  0  0  0  0  0  0  0  0  0
   40.1990   28.4890   41.2090 H   0  0  0  0  0  0  0  0  0  0  0  0
   39.6580   29.2050   42.7580 H   0  0  0  0  0  0  0  0  0  0  0  0
   38.1890   30.3220   41.0860 C   0  0  0  0  0  0  0  0  0  0  0  0
   39.4250   30.9420   41.3500 C   0  0  0  0  0  0  0  0  0  0  0  0
   39.5900   32.2950   41.0750 C   0  0  0  0  0  0  0  0  0  0  0  0
   38.4990   32.9560   40.5470 N   0  0  0  0  0  0  0  0  0  0  0  0
   37.3250   32.3370   40.3030 C   0  0  0  0  0  0  0  0  0  0  0  0
   37.1690   31.0250   40.5710 N   0  0  0  0  0  0  0  0  0  0  0  0
   40.3060   30.5120   41.7510 H   0  0  0  0  0  0  0  0  0  0  0  0
   40.4970   32.8480   41.2440 H   0  0  0  0  0  0  0  0  0  0  0  0
   36.5040   32.9340   39.8820 H   0  0  0  0  0  0  0  0  0  0  0  0
   38.9070   26.1640   41.5440 N   0  0  0  0  0  0  0  0  0  0  0  0
   39.0780   26.4030   40.5790 H   0  0  0  0  0  0  0  0  0  0  0  0
   38.6020   24.5690   41.9750 S   0  0  0  0  0  0  0  0  0  0  0  0
   37.1410   24.4060   42.2860 O   0  0  0  0  0  1  0  0  0  0  0  0
   38.8820   23.6670   40.7810 O   0  0  0  0  0  1  0  0  0  0  0  0
   39.5530   23.9890   43.2270 O   0  0  0  0  0  0  0  0  0  0  0  0
   38.9990   23.8940   44.0600 H   0  0  0  0  0  0  0  0  0  0  0  0
  1  7  1  6  0  0  0
  1  6  1  0  0  0  0
  1  2  1  0  0  0  0
  2  8  1  0  0  0  0
  2  3  1  0  0  0  0
  3  4  1  0  0  0  0
  3 10  1  0  0  0  0
  3 11  1  0  0  0  0
  4 13  1  0  0  0  0
  5 14  1  1  0  0  0
  5  4  1  0  0  0  0
  6  5  1  0  0  0  0
  6 16  1  0  0  0  0
  9  2  1  0  0  0  0
 12  4  1  0  0  0  0
 15  6  1  0  0  0  0
 17 18  1  0  0  0  0
 17  1  1  0  0  0  0
 18 23  1  0  0  0  0
 19 24  1  0  0  0  0
 19 18  2  0  0  0  0
 20 19  1  0  0  0  0
 21 20  2  0  0  0  0
 21 22  1  0  0  0  0
 22 17  2  0  0  0  0
 25 21  1  0  0  0  0
 26 28  1  0  0  0  0
 26  5  1  0  0  0  0
 27 26  1  0  0  0  0
 28 29  1  0  0  0  0
 28 31  1  0  0  0  0
 30 28  1  0  0  0  0
 31 32  1  0  0  0  0
M  END
>  <minimizedAffinity>
-4.61369085

$$$$

 OpenBabel03242519523D

 32 33  0  0  1  0  0  0  0  0999 V2000
   36.9750   29.5610   40.5180 C   0  0  2  0  0  0  0  0  0  0  0  0
   35.8320   29.7230   39.6000 C   0  0  0  0  0  0  0  0  0  0  0  0
   36.2240   29.7970   38.1500 C   0  0  0  0  0  0  0  0  0  0  0  0
   37.2460   30.8710   37.8820 C   0  0  0  0  0  0  0  0  0  0  0  0
   38.2890   30.9880   38.9670 C   0  0  2  0  0  0  0  0  0  0  0  0
   38.3070   29.7740   39.8510 C   0  0  0  0  0  0  0  0  0  0  0  0
   36.9700   30.2700   41.3930 H   0  0  0  0  0  0  0  0  0  0  0  0
   35.0360   28.9600   39.7080 H   0  0  0  0  0  0  0  0  0  0  0  0
   35.3190   30.6920   39.8360 H   0  0  0  0  0  0  0  0  0  0  0  0
   35.3000   30.0850   37.5780 H   0  0  0  0  0  0  0  0  0  0  0  0
   36.5950   28.8800   37.7020 H   0  0  0  0  0  0  0  0  0  0  0  0
   36.7280   31.8190   37.6870 H   0  0  0  0  0  0  0  0  0  0  0  0
   37.7880   30.6280   36.9280 H   0  0  0  0  0  0  0  0  0  0  0  0
   39.3150   31.0650   38.5280 H   0  0  0  0  0  0  0  0  0  0  0  0
   39.1060   29.8350   40.5940 H   0  0  0  0  0  0  0  0  0  0  0  0
   38.4820   28.8370   39.2460 H   0  0  0  0  0  0  0  0  0  0  0  0
   36.9940   28.2070   41.1410 C   0  0  0  0  0  0  0  0  0  0  0  0
   36.7650   28.1490   42.5280 C   0  0  0  0  0  0  0  0  0  0  0  0
   36.7600   26.9190   43.1750 C   0  0  0  0  0  0  0  0  0  0  0  0
   36.9880   25.8060   42.3890 N   0  0  0  0  0  0  0  0  0  0  0  0
   37.2040   25.8900   41.0600 C   0  0  0  0  0  0  0  0  0  0  0  0
   37.2070   27.0850   40.4360 N   0  0  0  0  0  0  0  0  0  0  0  0
   36.5830   28.9480   43.2010 H   0  0  0  0  0  0  0  0  0  0  0  0
   36.5940   26.7810   44.2290 H   0  0  0  0  0  0  0  0  0  0  0  0
   37.3780   24.9580   40.5050 H   0  0  0  0  0  0  0  0  0  0  0  0
   37.9490   32.1110   39.7760 N   0  0  0  0  0  0  0  0  0  0  0  0
   37.0110   32.1900   40.1380 H   0  0  0  0  0  0  0  0  0  0  0  0
   39.2030   32.9710   40.4890 S   0  0  0  0  0  0  0  0  0  0  0  0
   40.1580   32.0140   41.1430 O   0  0  0  0  0  1  0  0  0  0  0  0
   39.9980   33.6860   39.4050 O   0  0  0  0  0  1  0  0  0  0  0  0
   38.7120   34.1600   41.5640 O   0  0  0  0  0  0  0  0  0  0  0  0
   38.9160   33.8740   42.5060 H   0  0  0  0  0  0  0  0  0  0  0  0
  1 17  1  0  0  0  0
  1  7  1  1  0  0  0
  2  8  1  0  0  0  0
  2  9  1  0  0  0  0
  2  1  1  0  0  0  0
  3  2  1  0  0  0  0
  4  3  1  0  0  0  0
  4  5  1  0  0  0  0
  5 14  1  6  0  0  0
  5 26  1  0  0  0  0
  5  6  1  0  0  0  0
  6  1  1  0  0  0  0
  6 15  1  0  0  0  0
 10  3  1  0  0  0  0
 11  3  1  0  0  0  0
 12  4  1  0  0  0  0
 13  4  1  0  0  0  0
 16  6  1  0  0  0  0
 17 18  1  0  0  0  0
 18 19  2  0  0  0  0
 18 23  1  0  0  0  0
 19 24  1  0  0  0  0
 20 19  1  0  0  0  0
 21 20  2  0  0  0  0
 22 21  1  0  0  0  0
 22 17  2  0  0  0  0
 25 21  1  0  0  0  0
 26 27  1  0  0  0  0
 26 28  1  0  0  0  0
 28 29  1  0  0  0  0
 28 31  1  0  0  0  0
 30 28  1  0  0  0  0
 31 32  1  0  0  0  0
M  END
>  <minimizedAffinity>
-4.51727343

$$$$

 OpenBabel03242519523D

 32 33  0  0  1  0  0  0  0  0999 V2000
   38.1710   29.3290   40.6700 C   0  0  2  0  0  0  0  0  0  0  0  0
   37.3620   30.3240   41.4000 C   0  0  0  0  0  0  0  0  0  0  0  0
   36.3720   31.0540   40.5350 C   0  0  0  0  0  0  0  0  0  0  0  0
   37.0180   31.7030   39.3390 C   0  0  0  0  0  0  0  0  0  0  0  0
   38.1090   30.8640   38.7180 C   0  0  2  0  0  0  0  0  0  0  0  0
   38.0360   29.4350   39.1760 C   0  0  0  0  0  0  0  0  0  0  0  0
   39.2780   29.3970   40.8690 H   0  0  0  0  0  0  0  0  0  0  0  0
   36.8280   29.9310   42.2870 H   0  0  0  0  0  0  0  0  0  0  0  0
   38.0500   31.1070   41.8170 H   0  0  0  0  0  0  0  0  0  0  0  0
   35.9460   31.8850   41.1590 H   0  0  0  0  0  0  0  0  0  0  0  0
   35.5290   30.4740   40.1700 H   0  0  0  0  0  0  0  0  0  0  0  0
   37.3620   32.7080   39.6170 H   0  0  0  0  0  0  0  0  0  0  0  0
   36.2380   31.8670   38.5460 H   0  0  0  0  0  0  0  0  0  0  0  0
   38.0070   30.8370   37.6050 H   0  0  0  0  0  0  0  0  0  0  0  0
   38.7860   28.8180   38.6750 H   0  0  0  0  0  0  0  0  0  0  0  0
   37.0250   28.9880   38.9440 H   0  0  0  0  0  0  0  0  0  0  0  0
   37.8120   27.9360   41.0600 C   0  0  0  0  0  0  0  0  0  0  0  0
   37.2870   27.7590   42.3530 C   0  0  0  0  0  0  0  0  0  0  0  0
   36.9230   26.4870   42.7810 C   0  0  0  0  0  0  0  0  0  0  0  0
   37.1080   25.4560   41.8810 N   0  0  0  0  0  0  0  0  0  0  0  0
   37.6130   25.6540   40.6460 C   0  0  0  0  0  0  0  0  0  0  0  0
   37.9640   26.8890   40.2350 N   0  0  0  0  0  0  0  0  0  0  0  0
   37.1140   28.4900   43.1010 H   0  0  0  0  0  0  0  0  0  0  0  0
   36.5150   26.2600   43.7510 H   0  0  0  0  0  0  0  0  0  0  0  0
   37.7290   24.7810   39.9900 H   0  0  0  0  0  0  0  0  0  0  0  0
   39.3600   31.3940   39.1470 N   0  0  0  0  0  0  0  0  0  0  0  0
   39.7600   31.0730   40.0150 H   0  0  0  0  0  0  0  0  0  0  0  0
   40.3340   32.1320   37.9930 S   0  0  0  0  0  0  0  0  0  0  0  0
   40.8800   33.4170   38.5470 O   0  0  0  0  0  1  0  0  0  0  0  0
   41.5410   31.2450   37.7180 O   0  0  0  0  0  1  0  0  0  0  0  0
   39.5950   32.3810   36.5100 O   0  0  0  0  0  0  0  0  0  0  0  0
   39.4040   33.3600   36.3840 H   0  0  0  0  0  0  0  0  0  0  0  0
  1  7  1  1  0  0  0
  1 17  1  0  0  0  0
  1  2  1  0  0  0  0
  2  9  1  0  0  0  0
  2  8  1  0  0  0  0
  3 10  1  0  0  0  0
  3  2  1  0  0  0  0
  4 12  1  0  0  0  0
  4  3  1  0  0  0  0
  5 14  1  6  0  0  0
  5 26  1  0  0  0  0
  5  6  1  0  0  0  0
  5  4  1  0  0  0  0
  6  1  1  0  0  0  0
 11  3  1  0  0  0  0
 13  4  1  0  0  0  0
 15  6  1  0  0  0  0
 16  6  1  0  0  0  0
 17 18  1  0  0  0  0
 18 19  2  0  0  0  0
 18 23  1  0  0  0  0
 19 24  1  0  0  0  0
 20 19  1  0  0  0  0
 21 20  2  0  0  0  0
 22 21  1  0  0  0  0
 22 17  2  0  0  0  0
 25 21  1  0  0  0  0
 26 27  1  0  0  0  0
 28 29  1  0  0  0  0
 28 26  1  0  0  0  0
 30 28  1  0  0  0  0
 31 28  1  0  0  0  0
 32 31  1  0  0  0  0
M  END
>  <minimizedAffinity>
-4.50988531

$$$$

 OpenBabel03242519523D

 32 33  0  0  1  0  0  0  0  0999 V2000
   39.3490   30.9810   39.0360 C   0  0  2  0  0  0  0  0  0  0  0  0
   38.1170   30.9920   38.2240 C   0  0  0  0  0  0  0  0  0  0  0  0
   36.9720   31.7210   38.8710 C   0  0  0  0  0  0  0  0  0  0  0  0
   36.6650   31.2050   40.2530 C   0  0  0  0  0  0  0  0  0  0  0  0
   37.8990   30.8540   41.0480 C   0  0  2  0  0  0  0  0  0  0  0  0
   39.1360   31.4580   40.4460 C   0  0  0  0  0  0  0  0  0  0  0  0
   39.8250   29.9650   39.1400 H   0  0  0  0  0  0  0  0  0  0  0  0
   38.2410   31.3800   37.1940 H   0  0  0  0  0  0  0  0  0  0  0  0
   37.7750   29.9330   38.0810 H   0  0  0  0  0  0  0  0  0  0  0  0
   36.0620   31.5170   38.2440 H   0  0  0  0  0  0  0  0  0  0  0  0
   37.0650   32.8010   38.9430 H   0  0  0  0  0  0  0  0  0  0  0  0
   35.9580   30.3690   40.1760 H   0  0  0  0  0  0  0  0  0  0  0  0
   36.1180   32.0020   40.8270 H   0  0  0  0  0  0  0  0  0  0  0  0
   37.8320   31.2600   42.0880 H   0  0  0  0  0  0  0  0  0  0  0  0
   40.0160   31.2550   41.0610 H   0  0  0  0  0  0  0  0  0  0  0  0
   39.0370   32.5800   40.3610 H   0  0  0  0  0  0  0  0  0  0  0  0
   40.4150   31.8270   38.4290 C   0  0  0  0  0  0  0  0  0  0  0  0
   40.5770   33.1180   38.9670 C   0  0  0  0  0  0  0  0  0  0  0  0
   41.5580   33.9590   38.4530 C   0  0  0  0  0  0  0  0  0  0  0  0
   42.3260   33.4570   37.4220 N   0  0  0  0  0  0  0  0  0  0  0  0
   42.1500   32.2150   36.9260 C   0  0  0  0  0  0  0  0  0  0  0  0
   41.1990   31.4020   37.4260 N   0  0  0  0  0  0  0  0  0  0  0  0
   40.0350   33.5780   39.7510 H   0  0  0  0  0  0  0  0  0  0  0  0
   41.7510   34.9590   38.8030 H   0  0  0  0  0  0  0  0  0  0  0  0
   42.8030   31.8900   36.1040 H   0  0  0  0  0  0  0  0  0  0  0  0
   38.0470   29.4370   41.0160 N   0  0  0  0  0  0  0  0  0  0  0  0
   38.8280   29.0350   40.5210 H   0  0  0  0  0  0  0  0  0  0  0  0
   37.2330   28.5380   42.1780 S   0  0  0  0  0  0  0  0  0  0  0  0
   35.8760   28.1560   41.6580 O   0  0  0  0  0  1  0  0  0  0  0  0
   37.9780   27.2300   42.4110 O   0  0  0  0  0  1  0  0  0  0  0  0
   37.1160   29.2770   43.6780 O   0  0  0  0  0  0  0  0  0  0  0  0
   36.1710   29.5800   43.8370 H   0  0  0  0  0  0  0  0  0  0  0  0
  1  7  1  1  0  0  0
  1  6  1  0  0  0  0
  2  3  1  0  0  0  0
  2  1  1  0  0  0  0
  3 11  1  0  0  0  0
  3  4  1  0  0  0  0
  4 13  1  0  0  0  0
  4  5  1  0  0  0  0
  5 14  1  1  0  0  0
  6  5  1  0  0  0  0
  6 15  1  0  0  0  0
  8  2  1  0  0  0  0
  9  2  1  0  0  0  0
 10  3  1  0  0  0  0
 12  4  1  0  0  0  0
 16  6  1  0  0  0  0
 17 18  1  0  0  0  0
 17  1  1  0  0  0  0
 18 23  1  0  0  0  0
 19 24  1  0  0  0  0
 19 18  2  0  0  0  0
 20 19  1  0  0  0  0
 21 20  2  0  0  0  0
 21 22  1  0  0  0  0
 22 17  2  0  0  0  0
 25 21  1  0  0  0  0
 26  5  1  0  0  0  0
 26 28  1  0  0  0  0
 27 26  1  0  0  0  0
 28 30  1  0  0  0  0
 28 31  1  0  0  0  0
 29 28  1  0  0  0  0
 31 32  1  0  0  0  0
M  END
>  <minimizedAffinity>
-4.47329569

$$$$

 OpenBabel03242519523D

 32 33  0  0  1  0  0  0  0  0999 V2000
   38.0450   30.4650   40.6320 C   0  0  2  0  0  0  0  0  0  0  0  0
   36.6710   30.7440   40.1730 C   0  0  0  0  0  0  0  0  0  0  0  0
   36.4100   30.3300   38.7510 C   0  0  0  0  0  0  0  0  0  0  0  0
   37.4000   30.9290   37.7850 C   0  0  0  0  0  0  0  0  0  0  0  0
   38.8090   30.9780   38.3250 C   0  0  2  0  0  0  0  0  0  0  0  0
   38.9770   30.0790   39.5160 C   0  0  0  0  0  0  0  0  0  0  0  0
   38.5470   31.3340   41.1440 H   0  0  0  0  0  0  0  0  0  0  0  0
   35.8720   30.3210   40.8120 H   0  0  0  0  0  0  0  0  0  0  0  0
   36.4990   31.8520   40.2140 H   0  0  0  0  0  0  0  0  0  0  0  0
   35.4030   30.7420   38.4720 H   0  0  0  0  0  0  0  0  0  0  0  0
   36.3760   29.2630   38.5560 H   0  0  0  0  0  0  0  0  0  0  0  0
   37.0350   31.9120   37.4600 H   0  0  0  0  0  0  0  0  0  0  0  0
   37.4260   30.3010   36.8530 H   0  0  0  0  0  0  0  0  0  0  0  0
   39.5420   30.6190   37.5610 H   0  0  0  0  0  0  0  0  0  0  0  0
   40.0130   30.0690   39.8630 H   0  0  0  0  0  0  0  0  0  0  0  0
   38.6980   29.0150   39.2600 H   0  0  0  0  0  0  0  0  0  0  0  0
   38.0760   29.3730   41.6450 C   0  0  0  0  0  0  0  0  0  0  0  0
   36.8360   28.8140   42.0060 C   0  0  0  0  0  0  0  0  0  0  0  0
   36.7900   27.7850   42.9400 C   0  0  0  0  0  0  0  0  0  0  0  0
   37.9980   27.3720   43.4650 N   0  0  0  0  0  0  0  0  0  0  0  0
   39.1730   27.9260   43.1010 C   0  0  0  0  0  0  0  0  0  0  0  0
   39.2140   28.9230   42.1950 N   0  0  0  0  0  0  0  0  0  0  0  0
   35.8690   29.0690   41.6540 H   0  0  0  0  0  0  0  0  0  0  0  0
   35.8890   27.3000   43.2740 H   0  0  0  0  0  0  0  0  0  0  0  0
   40.0910   27.5410   43.5660 H   0  0  0  0  0  0  0  0  0  0  0  0
   39.0630   32.3150   38.7500 N   0  0  0  0  0  0  0  0  0  0  0  0
   38.4200   32.7600   39.3860 H   0  0  0  0  0  0  0  0  0  0  0  0
   40.6270   32.9060   38.5820 S   0  0  0  0  0  0  0  0  0  0  0  0
   40.7780   34.1600   39.3950 O   0  0  0  0  0  1  0  0  0  0  0  0
   41.6070   31.9000   39.1710 O   0  0  0  0  0  1  0  0  0  0  0  0
   41.1140   33.1540   36.9980 O   0  0  0  0  0  0  0  0  0  0  0  0
   41.1560   34.1390   36.8030 H   0  0  0  0  0  0  0  0  0  0  0  0
  1  7  1  1  0  0  0
  1 17  1  0  0  0  0
  2  9  1  0  0  0  0
  2  1  1  0  0  0  0
  2  8  1  0  0  0  0
  3  2  1  0  0  0  0
  4  5  1  0  0  0  0
  4  3  1  0  0  0  0
  5 14  1  6  0  0  0
  5 26  1  0  0  0  0
  5  6  1  0  0  0  0
  6 15  1  0  0  0  0
  6  1  1  0  0  0  0
 10  3  1  0  0  0  0
 11  3  1  0  0  0  0
 12  4  1  0  0  0  0
 13  4  1  0  0  0  0
 16  6  1  0  0  0  0
 17 18  2  0  0  0  0
 17 22  1  0  0  0  0
 18 19  1  0  0  0  0
 19 24  1  0  0  0  0
 19 20  2  0  0  0  0
 21 20  1  0  0  0  0
 21 25  1  0  0  0  0
 22 21  2  0  0  0  0
 23 18  1  0  0  0  0
 26 27  1  0  0  0  0
 28 26  1  0  0  0  0
 28 30  1  0  0  0  0
 28 29  1  0  0  0  0
 31 28  1  0  0  0  0
 32 31  1  0  0  0  0
M  END
>  <minimizedAffinity>
-4.46166039

$$$$

 OpenBabel03242519523D

 32 33  0  0  1  0  0  0  0  0999 V2000
   36.9230   30.0060   38.4500 C   0  0  2  0  0  0  0  0  0  0  0  0
   36.6420   29.7230   39.8710 C   0  0  0  0  0  0  0  0  0  0  0  0
   36.2790   30.9420   40.6730 C   0  0  0  0  0  0  0  0  0  0  0  0
   37.3160   32.0320   40.5670 C   0  0  0  0  0  0  0  0  0  0  0  0
   37.9010   32.1680   39.1820 C   0  0  2  0  0  0  0  0  0  0  0  0
   37.0560   31.4740   38.1530 C   0  0  0  0  0  0  0  0  0  0  0  0
   37.8750   29.5420   38.0660 H   0  0  0  0  0  0  0  0  0  0  0  0
   35.8720   28.9470   40.0470 H   0  0  0  0  0  0  0  0  0  0  0  0
   37.5700   29.3020   40.3410 H   0  0  0  0  0  0  0  0  0  0  0  0
   36.2560   30.6270   41.7500 H   0  0  0  0  0  0  0  0  0  0  0  0
   35.3150   31.3930   40.4580 H   0  0  0  0  0  0  0  0  0  0  0  0
   38.0810   31.8760   41.3380 H   0  0  0  0  0  0  0  0  0  0  0  0
   36.8360   33.0160   40.8210 H   0  0  0  0  0  0  0  0  0  0  0  0
   37.9460   33.2420   38.8720 H   0  0  0  0  0  0  0  0  0  0  0  0
   37.4480   31.6310   37.1450 H   0  0  0  0  0  0  0  0  0  0  0  0
   35.9980   31.8700   38.1660 H   0  0  0  0  0  0  0  0  0  0  0  0
   35.8610   29.4580   37.5600 C   0  0  0  0  0  0  0  0  0  0  0  0
   34.7240   28.9200   38.1920 C   0  0  0  0  0  0  0  0  0  0  0  0
   33.6900   28.3980   37.4230 C   0  0  0  0  0  0  0  0  0  0  0  0
   33.8550   28.4450   36.0530 N   0  0  0  0  0  0  0  0  0  0  0  0
   34.9550   28.9670   35.4720 C   0  0  0  0  0  0  0  0  0  0  0  0
   35.9550   29.4720   36.2210 N   0  0  0  0  0  0  0  0  0  0  0  0
   34.5200   28.8460   39.2290 H   0  0  0  0  0  0  0  0  0  0  0  0
   32.7880   27.9680   37.8210 H   0  0  0  0  0  0  0  0  0  0  0  0
   35.0100   28.9660   34.3750 H   0  0  0  0  0  0  0  0  0  0  0  0
   39.1800   31.5410   39.1890 N   0  0  0  0  0  0  0  0  0  0  0  0
   39.2520   30.5700   39.4520 H   0  0  0  0  0  0  0  0  0  0  0  0
   40.4140   32.2670   38.3090 S   0  0  0  0  0  0  0  0  0  0  0  0
   40.7570   33.5930   38.9280 O   0  0  0  0  0  1  0  0  0  0  0  0
   41.6710   31.4150   38.4140 O   0  0  0  0  0  1  0  0  0  0  0  0
   40.1000   32.4310   36.6710 O   0  0  0  0  0  0  0  0  0  0  0  0
   39.9270   33.3970   36.4510 H   0  0  0  0  0  0  0  0  0  0  0  0
  1  7  1  6  0  0  0
  1  2  1  0  0  0  0
  2  8  1  0  0  0  0
  2  9  1  0  0  0  0
  2  3  1  0  0  0  0
  3 10  1  0  0  0  0
  4  3  1  0  0  0  0
  4 13  1  0  0  0  0
  4 12  1  0  0  0  0
  5 14  1  6  0  0  0
  5 26  1  0  0  0  0
  5  4  1  0  0  0  0
  6 16  1  0  0  0  0
  6  1  1  0  0  0  0
  6  5  1  0  0  0  0
 11  3  1  0  0  0  0
 15  6  1  0  0  0  0
 17 18  1  0  0  0  0
 17  1  1  0  0  0  0
 18 23  1  0  0  0  0
 19 24  1  0  0  0  0
 19 18  2  0  0  0  0
 20 19  1  0  0  0  0
 21 20  2  0  0  0  0
 21 22  1  0  0  0  0
 22 17  2  0  0  0  0
 25 21  1  0  0  0  0
 26 27  1  0  0  0  0
 28 30  1  0  0  0  0
 28 29  1  0  0  0  0
 28 26  1  0  0  0  0
 31 28  1  0  0  0  0
 32 31  1  0  0  0  0
M  END
>  <minimizedAffinity>
-4.45605612

$$$$
