
 OpenBabel03252508373D

 39 41  0  0  0  0  0  0  0  0999 V2000
   45.1350   33.9610   40.7070 C   0  0  0  0  0  0  0  0  0  0  0  0
   44.0950   33.6340   39.8730 C   0  0  0  0  0  0  0  0  0  0  0  0
   44.3970   33.1470   38.6400 C   0  0  0  0  0  0  0  0  0  0  0  0
   45.6800   32.9640   38.1810 C   0  0  0  0  0  0  0  0  0  0  0  0
   46.7060   33.2980   39.0290 C   0  0  0  0  0  0  0  0  0  0  0  0
   46.4500   33.7980   40.2980 C   0  0  0  0  0  0  0  0  0  0  0  0
   43.5700   32.8900   37.9870 H   0  0  0  0  0  0  0  0  0  0  0  0
   45.8250   32.5690   37.1790 H   0  0  0  0  0  0  0  0  0  0  0  0
   47.7100   33.1440   38.6420 H   0  0  0  0  0  0  0  0  0  0  0  0
   40.8040   35.2600   40.7860 C   0  0  0  0  0  0  0  0  0  0  0  0
   42.1040   35.0890   40.2690 C   0  0  0  0  0  0  0  0  0  0  0  0
   42.7570   33.8420   40.3960 C   0  0  0  0  0  0  0  0  0  0  0  0
   42.0470   32.8880   41.0250 N   0  0  0  0  0  0  0  0  0  0  0  0
   40.8210   33.0570   41.5100 C   0  0  0  0  0  0  0  0  0  0  0  0
   40.1980   34.2380   41.3940 N   0  0  0  0  0  0  0  0  0  0  0  0
   40.1950   36.5190   40.6350 N   0  0  0  0  0  0  0  0  0  0  0  0
   42.5930   35.9070   39.7810 H   0  0  0  0  0  0  0  0  0  0  0  0
   40.2930   32.2640   42.0070 H   0  0  0  0  0  0  0  0  0  0  0  0
   39.9610   36.8180   39.6430 H   0  0  0  0  0  0  0  0  0  0  0  0
   39.9120   37.2580   41.3170 H   0  0  0  0  0  0  0  0  0  0  0  0
   47.6050   34.1220   41.1090 C   0  0  0  0  0  0  0  0  0  0  0  0
   48.1500   35.3600   40.9510 C   0  0  0  0  0  0  0  0  0  0  0  0
   49.2500   35.8480   41.6350 C   0  0  0  0  0  0  0  0  0  0  0  0
   49.8370   35.0100   42.5480 C   0  0  0  0  0  0  0  0  0  0  0  0
   49.3180   33.7530   42.7380 C   0  0  0  0  0  0  0  0  0  0  0  0
   48.2200   33.3160   42.0300 C   0  0  0  0  0  0  0  0  0  0  0  0
   47.7230   36.0760   40.2330 H   0  0  0  0  0  0  0  0  0  0  0  0
   49.6430   36.8400   41.4700 H   0  0  0  0  0  0  0  0  0  0  0  0
   50.7000   35.3620   43.1010 H   0  0  0  0  0  0  0  0  0  0  0  0
   49.8230   33.1400   43.4700 H   0  0  0  0  0  0  0  0  0  0  0  0
   47.6810   32.0130   42.2270 N   0  0  0  0  0  0  0  0  0  0  0  0
   46.6410   31.8540   42.1850 H   0  0  0  0  0  0  0  0  0  0  0  0
   48.3580   30.4910   42.5480 S   0  0  0  0  0  0  0  0  0  0  0  0
   47.3810   29.3830   42.1780 O   0  0  0  0  0  1  0  0  0  0  0  0
   49.6480   30.2800   41.8420 O   0  0  0  0  0  1  0  0  0  0  0  0
   48.5580   30.3740   44.2330 O   0  0  0  0  0  0  0  0  0  0  0  0
   49.2990   31.0320   44.4260 H   0  0  0  0  0  0  0  0  0  0  0  0
   44.7220   34.9110   43.0990 N   0  0  0  0  0  0  0  0  0  0  0  0
   44.9100   34.4830   42.0280 C   0  0  0  0  0  0  0  0  0  0  0  0
  1 39  1  0  0  0  0
  2 12  1  0  0  0  0
  2  1  2  0  0  0  0
  3  2  1  0  0  0  0
  4  3  2  0  0  0  0
  4  5  1  0  0  0  0
  5  6  2  0  0  0  0
  6  1  1  0  0  0  0
  6 21  1  0  0  0  0
  7  3  1  0  0  0  0
  8  4  1  0  0  0  0
  9  5  1  0  0  0  0
 10 15  1  0  0  0  0
 11 12  1  0  0  0  0
 11 10  2  0  0  0  0
 12 13  2  0  0  0  0
 13 14  1  0  0  0  0
 14 18  1  0  0  0  0
 15 14  2  0  0  0  0
 16 10  1  0  0  0  0
 16 20  1  0  0  0  0
 17 11  1  0  0  0  0
 19 16  1  0  0  0  0
 21 26  1  0  0  0  0
 22 21  2  0  0  0  0
 22 23  1  0  0  0  0
 23 24  2  0  0  0  0
 24 25  1  0  0  0  0
 24 29  1  0  0  0  0
 25 30  1  0  0  0  0
 26 31  1  0  0  0  0
 26 25  2  0  0  0  0
 27 22  1  0  0  0  0
 28 23  1  0  0  0  0
 31 33  1  0  0  0  0
 32 31  1  0  0  0  0
 33 36  1  0  0  0  0
 34 33  1  0  0  0  0
 35 33  1  0  0  0  0
 36 37  1  0  0  0  0
 39 38  3  0  0  0  0
M  END
>  <minimizedAffinity>
-5.69360495

>  <minimizedRMSD>
0.318222761

$$$$
