
 OpenBabel03242522553D

 38 39  0  0  1  0  0  0  0  0999 V2000
   39.4830   31.5230   40.5140 C   0  0  0  0  0  0  0  0  0  0  0  0
   39.9470   31.2810   39.3560 O   0  0  0  0  0  0  0  0  0  0  0  0
   40.8150   31.6510   40.9940 N   0  0  0  0  0  0  0  0  0  0  0  0
   40.8190   31.2370   42.4040 C   0  0  0  0  0  0  0  0  0  0  0  0
   42.2230   31.4740   42.9020 C   0  0  0  0  0  0  0  0  0  0  0  0
   42.6900   32.7950   42.4250 N   0  0  0  0  0  0  0  0  0  0  0  0
   43.1060   32.5710   41.0820 C   0  0  0  0  0  0  0  0  0  0  0  0
   41.9630   32.1060   40.2390 C   0  0  2  0  0  0  0  0  0  0  0  0
   40.5830   30.1530   42.3840 H   0  0  0  0  0  0  0  0  0  0  0  0
   40.1220   31.8480   43.0000 H   0  0  0  0  0  0  0  0  0  0  0  0
   42.8660   30.6800   42.4920 H   0  0  0  0  0  0  0  0  0  0  0  0
   42.2210   31.4630   44.0140 H   0  0  0  0  0  0  0  0  0  0  0  0
   43.4760   33.1510   43.0040 H   0  0  0  0  0  0  0  0  0  0  0  0
   43.5100   33.5340   40.6930 H   0  0  0  0  0  0  0  0  0  0  0  0
   43.9510   31.8630   41.1020 H   0  0  0  0  0  0  0  0  0  0  0  0
   42.3490   31.1930   39.6900 H   0  0  0  0  0  0  0  0  0  0  0  0
   41.6650   33.0700   39.2550 N   0  0  0  0  0  0  0  0  0  0  0  0
   41.0430   33.8260   39.3860 H   0  0  0  0  0  0  0  0  0  0  0  0
   42.5470   32.8650   37.8270 S   0  0  0  0  0  0  0  0  0  0  0  0
   44.0370   32.8490   38.1290 O   0  0  0  0  0  1  0  0  0  0  0  0
   42.1410   31.6370   37.0420 O   0  0  0  0  0  1  0  0  0  0  0  0
   42.3340   34.1610   36.7500 O   0  0  0  0  0  0  0  0  0  0  0  0
   41.4470   34.5830   36.8410 H   0  0  0  0  0  0  0  0  0  0  0  0
   38.1220   31.5070   40.5550 O   0  0  0  0  0  0  0  0  0  0  0  0
   37.5490   29.7550   42.4410 O   0  0  0  0  0  0  0  0  0  0  0  0
   37.0750   30.3480   41.0970 P   0  0  1  0  0  0  0  0  0  0  0  0
   35.5530   30.9850   41.3950 O   0  0  0  0  0  0  0  0  0  0  0  0
   35.0240   31.1690   40.5830 H   0  0  0  0  0  0  0  0  0  0  0  0
   36.9800   29.0800   39.9830 O   0  0  0  0  0  0  0  0  0  0  0  0
   35.5760   29.2490   36.6440 C   0  0  0  0  0  0  0  0  0  0  0  0
   36.5010   29.2620   37.7160 C   0  0  0  0  0  0  0  0  0  0  0  0
   36.0360   29.0540   38.9920 C   0  0  0  0  0  0  0  0  0  0  0  0
   34.7000   28.8420   39.1780 N   0  0  0  0  0  0  0  0  0  0  0  0
   33.8460   28.8340   38.1480 C   0  0  0  0  0  0  0  0  0  0  0  0
   34.2600   29.0330   36.8820 N   0  0  0  0  0  0  0  0  0  0  0  0
   35.8670   29.4040   35.6160 H   0  0  0  0  0  0  0  0  0  0  0  0
   37.4940   29.4410   37.3780 H   0  0  0  0  0  0  0  0  0  0  0  0
   32.8260   28.6530   38.4560 H   0  0  0  0  0  0  0  0  0  0  0  0
  1 24  1  0  0  0  0
  1  3  1  0  0  0  0
  2  1  2  0  0  0  0
  3  4  1  0  0  0  0
  4  5  1  0  0  0  0
  4 10  1  0  0  0  0
  5 12  1  0  0  0  0
  6  5  1  0  0  0  0
  6 13  1  0  0  0  0
  7 15  1  0  0  0  0
  7  6  1  0  0  0  0
  8 16  1  6  0  0  0
  8  3  1  0  0  0  0
  8  7  1  0  0  0  0
  9  4  1  0  0  0  0
 11  5  1  0  0  0  0
 14  7  1  0  0  0  0
 17 18  1  0  0  0  0
 17  8  1  0  0  0  0
 19 20  1  0  0  0  0
 19 17  1  0  0  0  0
 21 19  1  0  0  0  0
 22 23  1  0  0  0  0
 22 19  1  0  0  0  0
 24 26  1  0  0  0  0
 26 27  1  0  0  0  0
 26 25  2  1  0  0  0
 28 27  1  0  0  0  0
 29 26  1  0  0  0  0
 30 35  2  0  0  0  0
 30 31  1  0  0  0  0
 31 32  2  0  0  0  0
 32 33  1  0  0  0  0
 32 29  1  0  0  0  0
 34 38  1  0  0  0  0
 34 33  2  0  0  0  0
 35 34  1  0  0  0  0
 36 30  1  0  0  0  0
 37 31  1  0  0  0  0
M  END
>  <minimizedAffinity>
-5.49193382

$$$$

 OpenBabel03242522553D

 38 39  0  0  1  0  0  0  0  0999 V2000
   38.7980   30.5000   40.9380 C   0  0  0  0  0  0  0  0  0  0  0  0
   39.0740   30.2980   39.7140 O   0  0  0  0  0  0  0  0  0  0  0  0
   40.1290   30.9590   41.1370 N   0  0  0  0  0  0  0  0  0  0  0  0
   40.5020   30.6470   42.5240 C   0  0  0  0  0  0  0  0  0  0  0  0
   41.8790   31.2290   42.7240 C   0  0  0  0  0  0  0  0  0  0  0  0
   41.9200   32.5880   42.1410 N   0  0  0  0  0  0  0  0  0  0  0  0
   42.1110   32.3810   40.7460 C   0  0  0  0  0  0  0  0  0  0  0  0
   40.9690   31.6150   40.1590 C   0  0  2  0  0  0  0  0  0  0  0  0
   40.5300   29.5380   42.5690 H   0  0  0  0  0  0  0  0  0  0  0  0
   39.8090   31.1180   43.2390 H   0  0  0  0  0  0  0  0  0  0  0  0
   42.6010   30.5780   42.2050 H   0  0  0  0  0  0  0  0  0  0  0  0
   42.0940   31.2870   43.8130 H   0  0  0  0  0  0  0  0  0  0  0  0
   42.6960   33.1510   42.5440 H   0  0  0  0  0  0  0  0  0  0  0  0
   42.1930   33.3850   40.2680 H   0  0  0  0  0  0  0  0  0  0  0  0
   43.0860   31.8880   40.6060 H   0  0  0  0  0  0  0  0  0  0  0  0
   41.4480   30.7820   39.5580 H   0  0  0  0  0  0  0  0  0  0  0  0
   40.2680   32.4220   39.2390 N   0  0  0  0  0  0  0  0  0  0  0  0
   39.5090   33.0070   39.4780 H   0  0  0  0  0  0  0  0  0  0  0  0
   40.9060   32.3640   37.6750 S   0  0  0  0  0  0  0  0  0  0  0  0
   41.7630   33.5920   37.4130 O   0  0  0  0  0  1  0  0  0  0  0  0
   41.6770   31.0950   37.3870 O   0  0  0  0  0  1  0  0  0  0  0  0
   39.6940   32.4180   36.4870 O   0  0  0  0  0  0  0  0  0  0  0  0
   38.8480   32.0140   36.7950 H   0  0  0  0  0  0  0  0  0  0  0  0
   37.5130   30.1760   41.2530 O   0  0  0  0  0  0  0  0  0  0  0  0
   35.2060   28.9490   40.8950 O   0  0  0  0  0  0  0  0  0  0  0  0
   36.7120   28.7330   41.1540 P   0  0  1  0  0  0  0  0  0  0  0  0
   37.2650   27.8110   39.8690 O   0  0  0  0  0  0  0  0  0  0  0  0
   38.1400   27.3820   40.0220 H   0  0  0  0  0  0  0  0  0  0  0  0
   36.8650   27.8800   42.6060 O   0  0  0  0  0  0  0  0  0  0  0  0
   39.8210   26.0760   43.6790 C   0  0  0  0  0  0  0  0  0  0  0  0
   38.8690   27.1070   43.4940 C   0  0  0  0  0  0  0  0  0  0  0  0
   37.7450   26.8420   42.7490 C   0  0  0  0  0  0  0  0  0  0  0  0
   37.5900   25.5950   42.2160 N   0  0  0  0  0  0  0  0  0  0  0  0
   38.5050   24.6370   42.4050 C   0  0  0  0  0  0  0  0  0  0  0  0
   39.6190   24.8550   43.1300 N   0  0  0  0  0  0  0  0  0  0  0  0
   40.7260   26.2090   44.2520 H   0  0  0  0  0  0  0  0  0  0  0  0
   39.1610   28.0060   43.9820 H   0  0  0  0  0  0  0  0  0  0  0  0
   38.2390   23.7070   41.9220 H   0  0  0  0  0  0  0  0  0  0  0  0
  1  3  1  0  0  0  0
  1 24  1  0  0  0  0
  2  1  2  0  0  0  0
  3  4  1  0  0  0  0
  4  9  1  0  0  0  0
  4  5  1  0  0  0  0
  4 10  1  0  0  0  0
  5 12  1  0  0  0  0
  6 13  1  0  0  0  0
  6  5  1  0  0  0  0
  7  6  1  0  0  0  0
  8 16  1  6  0  0  0
  8  7  1  0  0  0  0
  8  3  1  0  0  0  0
 11  5  1  0  0  0  0
 14  7  1  0  0  0  0
 15  7  1  0  0  0  0
 17 18  1  0  0  0  0
 17  8  1  0  0  0  0
 19 17  1  0  0  0  0
 20 19  1  0  0  0  0
 21 19  1  0  0  0  0
 22 23  1  0  0  0  0
 22 19  1  0  0  0  0
 26 25  2  6  0  0  0
 26 24  1  0  0  0  0
 26 29  1  0  0  0  0
 27 28  1  0  0  0  0
 27 26  1  0  0  0  0
 29 32  1  0  0  0  0
 30 36  1  0  0  0  0
 31 30  1  0  0  0  0
 31 37  1  0  0  0  0
 32 31  2  0  0  0  0
 33 34  2  0  0  0  0
 33 32  1  0  0  0  0
 34 35  1  0  0  0  0
 35 30  2  0  0  0  0
 38 34  1  0  0  0  0
M  END
>  <minimizedAffinity>
-5.45212364

$$$$

 OpenBabel03242522553D

 38 39  0  0  1  0  0  0  0  0999 V2000
   38.1830   27.7570   41.6600 C   0  0  0  0  0  0  0  0  0  0  0  0
   39.4070   27.9510   41.3800 O   0  0  0  0  0  0  0  0  0  0  0  0
   38.4210   26.3560   41.6200 N   0  0  0  0  0  0  0  0  0  0  0  0
   37.1750   25.7060   41.1900 C   0  0  0  0  0  0  0  0  0  0  0  0
   37.4390   24.2220   41.2490 C   0  0  0  0  0  0  0  0  0  0  0  0
   38.1460   23.9060   42.5100 N   0  0  0  0  0  0  0  0  0  0  0  0
   39.5090   24.2300   42.2550 C   0  0  0  0  0  0  0  0  0  0  0  0
   39.6620   25.6840   41.9430 C   0  0  2  0  0  0  0  0  0  0  0  0
   37.0260   26.0410   40.1430 H   0  0  0  0  0  0  0  0  0  0  0  0
   36.3450   25.9480   41.8730 H   0  0  0  0  0  0  0  0  0  0  0  0
   38.0730   23.9570   40.3890 H   0  0  0  0  0  0  0  0  0  0  0  0
   36.4690   23.6800   41.2240 H   0  0  0  0  0  0  0  0  0  0  0  0
   38.0430   22.9020   42.7610 H   0  0  0  0  0  0  0  0  0  0  0  0
   40.0910   23.9640   43.1680 H   0  0  0  0  0  0  0  0  0  0  0  0
   39.8700   23.5700   41.4500 H   0  0  0  0  0  0  0  0  0  0  0  0
   40.2850   25.7210   40.9970 H   0  0  0  0  0  0  0  0  0  0  0  0
   40.4210   26.3160   42.9490 N   0  0  0  0  0  0  0  0  0  0  0  0
   40.0330   26.7670   43.7380 H   0  0  0  0  0  0  0  0  0  0  0  0
   42.0890   26.1620   42.7280 S   0  0  0  0  0  0  0  0  0  0  0  0
   42.4100   26.0160   41.2490 O   0  0  0  0  0  1  0  0  0  0  0  0
   42.8840   27.2920   43.3440 O   0  0  0  0  0  1  0  0  0  0  0  0
   42.7040   24.7520   43.4480 O   0  0  0  0  0  0  0  0  0  0  0  0
   42.1860   24.4800   44.2420 H   0  0  0  0  0  0  0  0  0  0  0  0
   37.4820   28.9150   41.8090 O   0  0  0  0  0  0  0  0  0  0  0  0
   35.4510   28.7780   40.1310 O   0  0  0  0  0  0  0  0  0  0  0  0
   36.5030   29.7230   40.7490 P   0  0  1  0  0  0  0  0  0  0  0  0
   35.6300   30.9300   41.5180 O   0  0  0  0  0  0  0  0  0  0  0  0
   36.1570   31.7350   41.7390 H   0  0  0  0  0  0  0  0  0  0  0  0
   37.4200   30.3680   39.4830 O   0  0  0  0  0  0  0  0  0  0  0  0
   40.1280   32.7180   38.9430 C   0  0  0  0  0  0  0  0  0  0  0  0
   39.2910   31.5810   38.8300 C   0  0  0  0  0  0  0  0  0  0  0  0
   38.1870   31.4910   39.6410 C   0  0  0  0  0  0  0  0  0  0  0  0
   37.9360   32.5010   40.5250 N   0  0  0  0  0  0  0  0  0  0  0  0
   38.7420   33.5650   40.6140 C   0  0  0  0  0  0  0  0  0  0  0  0
   39.8350   33.6930   39.8360 N   0  0  0  0  0  0  0  0  0  0  0  0
   41.0120   32.8590   38.3400 H   0  0  0  0  0  0  0  0  0  0  0  0
   39.6450   30.9040   38.0890 H   0  0  0  0  0  0  0  0  0  0  0  0
   38.4110   34.2760   41.3570 H   0  0  0  0  0  0  0  0  0  0  0  0
  1 24  1  0  0  0  0
  2  1  2  0  0  0  0
  3  1  1  0  0  0  0
  3  8  1  0  0  0  0
  4  5  1  0  0  0  0
  4  3  1  0  0  0  0
  4 10  1  0  0  0  0
  5  6  1  0  0  0  0
  6 13  1  0  0  0  0
  7  6  1  0  0  0  0
  7 14  1  0  0  0  0
  8 16  1  6  0  0  0
  8  7  1  0  0  0  0
  8 17  1  0  0  0  0
  9  4  1  0  0  0  0
 11  5  1  0  0  0  0
 12  5  1  0  0  0  0
 15  7  1  0  0  0  0
 17 18  1  0  0  0  0
 19 17  1  0  0  0  0
 19 21  1  0  0  0  0
 19 22  1  0  0  0  0
 20 19  1  0  0  0  0
 22 23  1  0  0  0  0
 26 25  2  6  0  0  0
 26 27  1  0  0  0  0
 26 24  1  0  0  0  0
 27 28  1  0  0  0  0
 29 32  1  0  0  0  0
 29 26  1  0  0  0  0
 30 35  1  0  0  0  0
 31 30  2  0  0  0  0
 31 32  1  0  0  0  0
 32 33  2  0  0  0  0
 33 34  1  0  0  0  0
 34 38  1  0  0  0  0
 35 34  2  0  0  0  0
 36 30  1  0  0  0  0
 37 31  1  0  0  0  0
M  END
>  <minimizedAffinity>
-5.40646124

$$$$

 OpenBabel03242522553D

 38 39  0  0  1  0  0  0  0  0999 V2000
   37.9900   29.2730   40.3650 C   0  0  0  0  0  0  0  0  0  0  0  0
   37.9600   30.4070   40.9380 O   0  0  0  0  0  0  0  0  0  0  0  0
   37.5670   29.8970   39.1600 N   0  0  0  0  0  0  0  0  0  0  0  0
   36.7870   28.9100   38.4000 C   0  0  0  0  0  0  0  0  0  0  0  0
   36.4350   29.5770   37.0930 C   0  0  0  0  0  0  0  0  0  0  0  0
   37.6310   30.2710   36.5670 N   0  0  0  0  0  0  0  0  0  0  0  0
   37.6850   31.5000   37.2840 C   0  0  0  0  0  0  0  0  0  0  0  0
   37.8480   31.2560   38.7490 C   0  0  2  0  0  0  0  0  0  0  0  0
   35.8780   28.7330   39.0120 H   0  0  0  0  0  0  0  0  0  0  0  0
   37.3830   28.0080   38.1910 H   0  0  0  0  0  0  0  0  0  0  0  0
   35.6360   30.3080   37.2900 H   0  0  0  0  0  0  0  0  0  0  0  0
   36.1090   28.8010   36.3670 H   0  0  0  0  0  0  0  0  0  0  0  0
   37.5530   30.4400   35.5440 H   0  0  0  0  0  0  0  0  0  0  0  0
   38.5500   32.0800   36.8860 H   0  0  0  0  0  0  0  0  0  0  0  0
   36.7800   32.0780   37.0350 H   0  0  0  0  0  0  0  0  0  0  0  0
   37.0580   31.8970   39.2480 H   0  0  0  0  0  0  0  0  0  0  0  0
   39.0970   31.7470   39.1840 N   0  0  0  0  0  0  0  0  0  0  0  0
   39.9590   31.2930   39.0260 H   0  0  0  0  0  0  0  0  0  0  0  0
   38.9970   33.2550   39.9420 S   0  0  0  0  0  0  0  0  0  0  0  0
   40.1170   34.1600   39.4570 O   0  0  0  0  0  1  0  0  0  0  0  0
   37.6500   33.9240   39.7720 O   0  0  0  0  0  1  0  0  0  0  0  0
   39.2210   33.1440   41.6210 O   0  0  0  0  0  0  0  0  0  0  0  0
   38.9160   32.2790   41.9840 H   0  0  0  0  0  0  0  0  0  0  0  0
   38.3760   28.2670   41.1980 O   0  0  0  0  0  0  0  0  0  0  0  0
   39.0620   27.6330   43.6650 O   0  0  0  0  0  0  0  0  0  0  0  0
   37.8650   27.8760   42.7210 P   0  0  1  0  0  0  0  0  0  0  0  0
   36.9880   29.1250   43.4150 O   0  0  0  0  0  0  0  0  0  0  0  0
   36.0700   29.2200   43.0660 H   0  0  0  0  0  0  0  0  0  0  0  0
   36.9470   26.4570   42.6820 O   0  0  0  0  0  0  0  0  0  0  0  0
   38.0180   23.3730   41.1040 C   0  0  0  0  0  0  0  0  0  0  0  0
   37.8110   24.3890   42.0690 C   0  0  0  0  0  0  0  0  0  0  0  0
   37.1110   25.5120   41.7050 C   0  0  0  0  0  0  0  0  0  0  0  0
   36.6410   25.6080   40.4260 N   0  0  0  0  0  0  0  0  0  0  0  0
   36.8490   24.6340   39.5320 C   0  0  0  0  0  0  0  0  0  0  0  0
   37.5300   23.5160   39.8490 N   0  0  0  0  0  0  0  0  0  0  0  0
   38.5580   22.4620   41.3160 H   0  0  0  0  0  0  0  0  0  0  0  0
   38.2500   24.1370   43.0060 H   0  0  0  0  0  0  0  0  0  0  0  0
   36.4150   24.8560   38.5680 H   0  0  0  0  0  0  0  0  0  0  0  0
  1  2  2  0  0  0  0
  1 24  1  0  0  0  0
  3  1  1  0  0  0  0
  4  9  1  0  0  0  0
  4  3  1  0  0  0  0
  5 11  1  0  0  0  0
  5  4  1  0  0  0  0
  6  5  1  0  0  0  0
  6  7  1  0  0  0  0
  7  8  1  0  0  0  0
  8  3  1  0  0  0  0
  8 17  1  0  0  0  0
  8 16  1  1  0  0  0
 10  4  1  0  0  0  0
 12  5  1  0  0  0  0
 13  6  1  0  0  0  0
 14  7  1  0  0  0  0
 15  7  1  0  0  0  0
 17 19  1  0  0  0  0
 18 17  1  0  0  0  0
 19 22  1  0  0  0  0
 20 19  1  0  0  0  0
 21 19  1  0  0  0  0
 22 23  1  0  0  0  0
 24 26  1  0  0  0  0
 26 27  1  0  0  0  0
 26 25  2  1  0  0  0
 28 27  1  0  0  0  0
 29 26  1  0  0  0  0
 30 36  1  0  0  0  0
 30 31  1  0  0  0  0
 31 37  1  0  0  0  0
 32 31  2  0  0  0  0
 32 29  1  0  0  0  0
 33 32  1  0  0  0  0
 34 35  1  0  0  0  0
 34 33  2  0  0  0  0
 35 30  2  0  0  0  0
 38 34  1  0  0  0  0
M  END
>  <minimizedAffinity>
-5.32459688

$$$$

 OpenBabel03242522553D

 38 39  0  0  1  0  0  0  0  0999 V2000
   39.8310   29.3670   40.9390 C   0  0  0  0  0  0  0  0  0  0  0  0
   40.1630   29.4210   39.7140 O   0  0  0  0  0  0  0  0  0  0  0  0
   40.8870   30.2700   41.2410 N   0  0  0  0  0  0  0  0  0  0  0  0
   41.3510   29.9710   42.6030 C   0  0  0  0  0  0  0  0  0  0  0  0
   42.4030   31.0040   42.9190 C   0  0  0  0  0  0  0  0  0  0  0  0
   41.9240   32.3340   42.4800 N   0  0  0  0  0  0  0  0  0  0  0  0
   42.1800   32.3690   41.0800 C   0  0  0  0  0  0  0  0  0  0  0  0
   41.4150   31.2990   40.3710 C   0  0  2  0  0  0  0  0  0  0  0  0
   41.7980   28.9570   42.5350 H   0  0  0  0  0  0  0  0  0  0  0  0
   40.5300   30.0640   43.3320 H   0  0  0  0  0  0  0  0  0  0  0  0
   43.3180   30.7360   42.3670 H   0  0  0  0  0  0  0  0  0  0  0  0
   42.5790   31.0190   44.0170 H   0  0  0  0  0  0  0  0  0  0  0  0
   42.4280   33.1000   42.9700 H   0  0  0  0  0  0  0  0  0  0  0  0
   41.8740   33.3760   40.7110 H   0  0  0  0  0  0  0  0  0  0  0  0
   43.2690   32.3000   40.9320 H   0  0  0  0  0  0  0  0  0  0  0  0
   42.1750   30.7800   39.7080 H   0  0  0  0  0  0  0  0  0  0  0  0
   40.4600   31.8780   39.5090 N   0  0  0  0  0  0  0  0  0  0  0  0
   39.5050   31.9880   39.7320 H   0  0  0  0  0  0  0  0  0  0  0  0
   41.1220   32.4530   38.0640 S   0  0  0  0  0  0  0  0  0  0  0  0
   41.4660   33.9280   38.1960 O   0  0  0  0  0  1  0  0  0  0  0  0
   42.3220   31.6590   37.5950 O   0  0  0  0  0  1  0  0  0  0  0  0
   40.0170   32.3760   36.7770 O   0  0  0  0  0  0  0  0  0  0  0  0
   39.3740   31.6340   36.8790 H   0  0  0  0  0  0  0  0  0  0  0  0
   38.7650   28.5500   41.1650 O   0  0  0  0  0  0  0  0  0  0  0  0
   36.7650   27.4110   42.4540 O   0  0  0  0  0  0  0  0  0  0  0  0
   37.4280   28.7630   42.1130 P   0  0  1  0  0  0  0  0  0  0  0  0
   37.8230   29.4570   43.5870 O   0  0  0  0  0  0  0  0  0  0  0  0
   38.0190   30.4230   43.5420 H   0  0  0  0  0  0  0  0  0  0  0  0
   36.2820   29.7060   41.3020 O   0  0  0  0  0  0  0  0  0  0  0  0
   37.0440   31.0540   38.0230 C   0  0  0  0  0  0  0  0  0  0  0  0
   36.6810   30.1570   39.0570 C   0  0  0  0  0  0  0  0  0  0  0  0
   36.6380   30.6220   40.3490 C   0  0  0  0  0  0  0  0  0  0  0  0
   36.9470   31.9300   40.5880 N   0  0  0  0  0  0  0  0  0  0  0  0
   37.2880   32.7580   39.5930 C   0  0  0  0  0  0  0  0  0  0  0  0
   37.3410   32.3430   38.3130 N   0  0  0  0  0  0  0  0  0  0  0  0
   37.0990   30.7620   36.9860 H   0  0  0  0  0  0  0  0  0  0  0  0
   36.4760   29.1830   38.6810 H   0  0  0  0  0  0  0  0  0  0  0  0
   37.5020   33.7590   39.9410 H   0  0  0  0  0  0  0  0  0  0  0  0
  1 24  1  0  0  0  0
  1  3  1  0  0  0  0
  2  1  2  0  0  0  0
  3  4  1  0  0  0  0
  4  5  1  0  0  0  0
  4 10  1  0  0  0  0
  5 12  1  0  0  0  0
  6  5  1  0  0  0  0
  6 13  1  0  0  0  0
  7  6  1  0  0  0  0
  8 16  1  6  0  0  0
  8  7  1  0  0  0  0
  8  3  1  0  0  0  0
  9  4  1  0  0  0  0
 11  5  1  0  0  0  0
 14  7  1  0  0  0  0
 15  7  1  0  0  0  0
 17 18  1  0  0  0  0
 17  8  1  0  0  0  0
 19 20  1  0  0  0  0
 19 17  1  0  0  0  0
 21 19  1  0  0  0  0
 22 23  1  0  0  0  0
 22 19  1  0  0  0  0
 24 26  1  0  0  0  0
 26 25  2  1  0  0  0
 26 27  1  0  0  0  0
 28 27  1  0  0  0  0
 29 26  1  0  0  0  0
 30 35  2  0  0  0  0
 30 31  1  0  0  0  0
 31 32  2  0  0  0  0
 32 33  1  0  0  0  0
 32 29  1  0  0  0  0
 34 38  1  0  0  0  0
 34 33  2  0  0  0  0
 35 34  1  0  0  0  0
 36 30  1  0  0  0  0
 37 31  1  0  0  0  0
M  END
>  <minimizedAffinity>
-5.24905872

$$$$

 OpenBabel03242522553D

 38 39  0  0  1  0  0  0  0  0999 V2000
   36.2710   29.6890   40.4280 C   0  0  0  0  0  0  0  0  0  0  0  0
   36.2800   30.8840   40.8620 O   0  0  0  0  0  0  0  0  0  0  0  0
   36.5580   30.1860   39.1270 N   0  0  0  0  0  0  0  0  0  0  0  0
   35.9550   29.2610   38.1570 C   0  0  0  0  0  0  0  0  0  0  0  0
   36.3570   29.7680   36.7940 C   0  0  0  0  0  0  0  0  0  0  0  0
   37.7920   30.1270   36.8160 N   0  0  0  0  0  0  0  0  0  0  0  0
   37.8360   31.4200   37.4110 C   0  0  0  0  0  0  0  0  0  0  0  0
   37.3050   31.3830   38.8080 C   0  0  2  0  0  0  0  0  0  0  0  0
   34.8600   29.3610   38.3100 H   0  0  0  0  0  0  0  0  0  0  0  0
   36.3450   28.2390   38.2860 H   0  0  0  0  0  0  0  0  0  0  0  0
   35.7520   30.6620   36.5740 H   0  0  0  0  0  0  0  0  0  0  0  0
   36.1880   28.9660   36.0440 H   0  0  0  0  0  0  0  0  0  0  0  0
   38.1930   30.1450   35.8570 H   0  0  0  0  0  0  0  0  0  0  0  0
   38.9000   31.7530   37.4070 H   0  0  0  0  0  0  0  0  0  0  0  0
   37.2890   32.1150   36.7540 H   0  0  0  0  0  0  0  0  0  0  0  0
   36.5600   32.2350   38.8660 H   0  0  0  0  0  0  0  0  0  0  0  0
   38.3340   31.6870   39.7230 N   0  0  0  0  0  0  0  0  0  0  0  0
   38.9280   31.0140   40.1350 H   0  0  0  0  0  0  0  0  0  0  0  0
   38.5200   33.3440   39.9970 S   0  0  0  0  0  0  0  0  0  0  0  0
   39.7830   33.8490   39.3180 O   0  0  0  0  0  1  0  0  0  0  0  0
   37.3180   34.1610   39.5760 O   0  0  0  0  0  1  0  0  0  0  0  0
   38.7370   33.7020   41.6420 O   0  0  0  0  0  0  0  0  0  0  0  0
   38.2820   33.0530   42.2300 H   0  0  0  0  0  0  0  0  0  0  0  0
   36.0160   28.7720   41.4010 O   0  0  0  0  0  0  0  0  0  0  0  0
   36.2530   27.3400   43.6040 O   0  0  0  0  0  0  0  0  0  0  0  0
   37.0360   28.0060   42.4530 P   0  0  1  0  0  0  0  0  0  0  0  0
   37.8760   26.7660   41.7000 O   0  0  0  0  0  0  0  0  0  0  0  0
   38.6100   27.0680   41.1140 H   0  0  0  0  0  0  0  0  0  0  0  0
   38.1090   29.1180   43.1400 O   0  0  0  0  0  0  0  0  0  0  0  0
   41.5070   30.1070   42.3490 C   0  0  0  0  0  0  0  0  0  0  0  0
   40.1040   30.1470   42.5380 C   0  0  0  0  0  0  0  0  0  0  0  0
   39.4640   29.0140   42.9780 C   0  0  0  0  0  0  0  0  0  0  0  0
   40.2050   27.8920   43.2160 N   0  0  0  0  0  0  0  0  0  0  0  0
   41.5300   27.8790   43.0300 C   0  0  0  0  0  0  0  0  0  0  0  0
   42.1960   28.9680   42.6010 N   0  0  0  0  0  0  0  0  0  0  0  0
   42.0780   30.9570   42.0070 H   0  0  0  0  0  0  0  0  0  0  0  0
   39.7020   31.1040   42.3020 H   0  0  0  0  0  0  0  0  0  0  0  0
   41.9720   26.9200   43.2620 H   0  0  0  0  0  0  0  0  0  0  0  0
  1  2  2  0  0  0  0
  1 24  1  0  0  0  0
  3  1  1  0  0  0  0
  4 10  1  0  0  0  0
  4  9  1  0  0  0  0
  4  3  1  0  0  0  0
  5  6  1  0  0  0  0
  5  4  1  0  0  0  0
  6  7  1  0  0  0  0
  7  8  1  0  0  0  0
  8 16  1  1  0  0  0
  8  3  1  0  0  0  0
  8 17  1  0  0  0  0
 11  5  1  0  0  0  0
 12  5  1  0  0  0  0
 13  6  1  0  0  0  0
 14  7  1  0  0  0  0
 15  7  1  0  0  0  0
 17 19  1  0  0  0  0
 17 18  1  0  0  0  0
 19 22  1  0  0  0  0
 20 19  1  0  0  0  0
 21 19  1  0  0  0  0
 22 23  1  0  0  0  0
 24 26  1  0  0  0  0
 26 29  1  0  0  0  0
 26 25  2  1  0  0  0
 27 26  1  0  0  0  0
 28 27  1  0  0  0  0
 30 31  2  0  0  0  0
 30 35  1  0  0  0  0
 31 32  1  0  0  0  0
 32 29  1  0  0  0  0
 32 33  2  0  0  0  0
 34 33  1  0  0  0  0
 34 38  1  0  0  0  0
 35 34  2  0  0  0  0
 36 30  1  0  0  0  0
 37 31  1  0  0  0  0
M  END
>  <minimizedAffinity>
-5.21770144

$$$$

 OpenBabel03242522553D

 38 39  0  0  1  0  0  0  0  0999 V2000
   38.3260   28.9980   41.5640 C   0  0  0  0  0  0  0  0  0  0  0  0
   37.3880   28.8700   42.4120 O   0  0  0  0  0  0  0  0  0  0  0  0
   39.1550   28.1980   42.3970 N   0  0  0  0  0  0  0  0  0  0  0  0
   40.5430   28.6360   42.1930 C   0  0  0  0  0  0  0  0  0  0  0  0
   41.3980   27.7070   43.0190 C   0  0  0  0  0  0  0  0  0  0  0  0
   40.9300   26.3170   42.8230 N   0  0  0  0  0  0  0  0  0  0  0  0
   39.8000   26.1880   43.6800 C   0  0  0  0  0  0  0  0  0  0  0  0
   38.7200   27.1430   43.2860 C   0  0  2  0  0  0  0  0  0  0  0  0
   40.5780   29.6700   42.5950 H   0  0  0  0  0  0  0  0  0  0  0  0
   40.8380   28.5450   41.1350 H   0  0  0  0  0  0  0  0  0  0  0  0
   41.2840   27.9930   44.0760 H   0  0  0  0  0  0  0  0  0  0  0  0
   42.4540   27.7920   42.6840 H   0  0  0  0  0  0  0  0  0  0  0  0
   41.6690   25.6290   43.0730 H   0  0  0  0  0  0  0  0  0  0  0  0
   39.4390   25.1360   43.5990 H   0  0  0  0  0  0  0  0  0  0  0  0
   40.1450   26.3210   44.7180 H   0  0  0  0  0  0  0  0  0  0  0  0
   38.4140   27.6590   44.2480 H   0  0  0  0  0  0  0  0  0  0  0  0
   37.5890   26.4320   42.8340 N   0  0  0  0  0  0  0  0  0  0  0  0
   36.6580   26.6600   43.0720 H   0  0  0  0  0  0  0  0  0  0  0  0
   37.9670   25.1810   41.7630 S   0  0  0  0  0  0  0  0  0  0  0  0
   36.6940   24.5740   41.1950 O   0  0  0  0  0  1  0  0  0  0  0  0
   38.9050   25.6030   40.6530 O   0  0  0  0  0  1  0  0  0  0  0  0
   38.7570   23.8910   42.5360 O   0  0  0  0  0  0  0  0  0  0  0  0
   39.2930   24.1890   43.3090 H   0  0  0  0  0  0  0  0  0  0  0  0
   37.9710   29.7550   40.4890 O   0  0  0  0  0  0  0  0  0  0  0  0
   36.5350   31.3560   38.9630 O   0  0  0  0  0  0  0  0  0  0  0  0
   37.0610   31.1320   40.3960 P   0  0  1  0  0  0  0  0  0  0  0  0
   35.6980   31.0340   41.3670 O   0  0  0  0  0  0  0  0  0  0  0  0
   35.8760   31.1450   42.3310 H   0  0  0  0  0  0  0  0  0  0  0  0
   37.9930   32.4780   40.8170 O   0  0  0  0  0  0  0  0  0  0  0  0
   41.0360   33.0740   38.9360 C   0  0  0  0  0  0  0  0  0  0  0  0
   39.6660   32.9810   39.2840 C   0  0  0  0  0  0  0  0  0  0  0  0
   39.3330   32.5470   40.5440 C   0  0  0  0  0  0  0  0  0  0  0  0
   40.3350   32.2230   41.4130 N   0  0  0  0  0  0  0  0  0  0  0  0
   41.6220   32.3190   41.0610 C   0  0  0  0  0  0  0  0  0  0  0  0
   41.9910   32.7410   39.8360 N   0  0  0  0  0  0  0  0  0  0  0  0
   41.3740   33.4070   37.9660 H   0  0  0  0  0  0  0  0  0  0  0  0
   39.0340   33.2750   38.4800 H   0  0  0  0  0  0  0  0  0  0  0  0
   42.2930   32.0280   41.8560 H   0  0  0  0  0  0  0  0  0  0  0  0
  1  3  1  0  0  0  0
  1  2  2  0  0  0  0
  3  8  1  0  0  0  0
  4  3  1  0  0  0  0
  4  9  1  0  0  0  0
  4  5  1  0  0  0  0
  5 11  1  0  0  0  0
  6  5  1  0  0  0  0
  6 13  1  0  0  0  0
  6  7  1  0  0  0  0
  7 15  1  0  0  0  0
  8  7  1  0  0  0  0
  8 16  1  1  0  0  0
 10  4  1  0  0  0  0
 12  5  1  0  0  0  0
 14  7  1  0  0  0  0
 17 18  1  0  0  0  0
 17  8  1  0  0  0  0
 19 22  1  0  0  0  0
 19 17  1  0  0  0  0
 20 19  1  0  0  0  0
 21 19  1  0  0  0  0
 22 23  1  0  0  0  0
 24  1  1  0  0  0  0
 26 25  2  6  0  0  0
 26 24  1  0  0  0  0
 26 29  1  0  0  0  0
 26 27  1  0  0  0  0
 27 28  1  0  0  0  0
 30 31  2  0  0  0  0
 30 35  1  0  0  0  0
 31 32  1  0  0  0  0
 32 29  1  0  0  0  0
 32 33  2  0  0  0  0
 34 33  1  0  0  0  0
 34 38  1  0  0  0  0
 35 34  2  0  0  0  0
 36 30  1  0  0  0  0
 37 31  1  0  0  0  0
M  END
>  <minimizedAffinity>
-5.21389294

$$$$

 OpenBabel03242522553D

 38 39  0  0  1  0  0  0  0  0999 V2000
   38.9320   30.2350   39.0190 C   0  0  0  0  0  0  0  0  0  0  0  0
   39.7290   29.2450   39.0480 O   0  0  0  0  0  0  0  0  0  0  0  0
   40.0110   31.0600   38.5980 N   0  0  0  0  0  0  0  0  0  0  0  0
   39.7550   32.4160   39.1040 C   0  0  0  0  0  0  0  0  0  0  0  0
   40.8680   33.2780   38.5600 C   0  0  0  0  0  0  0  0  0  0  0  0
   41.0800   32.9520   37.1320 N   0  0  0  0  0  0  0  0  0  0  0  0
   41.8760   31.7710   37.1420 C   0  0  0  0  0  0  0  0  0  0  0  0
   41.1550   30.6480   37.8140 C   0  0  2  0  0  0  0  0  0  0  0  0
   39.8260   32.3260   40.2080 H   0  0  0  0  0  0  0  0  0  0  0  0
   38.7920   32.8030   38.7350 H   0  0  0  0  0  0  0  0  0  0  0  0
   41.7810   33.0540   39.1340 H   0  0  0  0  0  0  0  0  0  0  0  0
   40.5790   34.3470   38.6560 H   0  0  0  0  0  0  0  0  0  0  0  0
   41.5660   33.7250   36.6350 H   0  0  0  0  0  0  0  0  0  0  0  0
   42.1000   31.5120   36.0810 H   0  0  0  0  0  0  0  0  0  0  0  0
   42.8400   32.0170   37.6140 H   0  0  0  0  0  0  0  0  0  0  0  0
   41.8970   30.2190   38.5560 H   0  0  0  0  0  0  0  0  0  0  0  0
   40.8830   29.6240   36.8830 N   0  0  0  0  0  0  0  0  0  0  0  0
   40.0550   29.5650   36.3480 H   0  0  0  0  0  0  0  0  0  0  0  0
   42.1580   28.5300   36.6970 S   0  0  0  0  0  0  0  0  0  0  0  0
   43.0860   28.5990   37.8980 O   0  0  0  0  0  1  0  0  0  0  0  0
   41.6990   27.1100   36.4500 O   0  0  0  0  0  1  0  0  0  0  0  0
   43.1400   28.9100   35.3650 O   0  0  0  0  0  0  0  0  0  0  0  0
   42.6370   29.3590   34.6440 H   0  0  0  0  0  0  0  0  0  0  0  0
   37.6610   29.9040   39.3790 O   0  0  0  0  0  0  0  0  0  0  0  0
   36.6210   31.9650   40.6550 O   0  0  0  0  0  0  0  0  0  0  0  0
   36.7310   30.4260   40.6430 P   0  0  1  0  0  0  0  0  0  0  0  0
   35.1570   29.8610   40.5210 O   0  0  0  0  0  0  0  0  0  0  0  0
   35.0480   28.9090   40.7550 H   0  0  0  0  0  0  0  0  0  0  0  0
   37.4210   29.9500   42.1110 O   0  0  0  0  0  0  0  0  0  0  0  0
   39.3930   27.1320   43.2590 C   0  0  0  0  0  0  0  0  0  0  0  0
   38.9790   28.4550   42.9690 C   0  0  0  0  0  0  0  0  0  0  0  0
   37.7610   28.6480   42.3650 C   0  0  0  0  0  0  0  0  0  0  0  0
   36.9950   27.5580   42.0670 N   0  0  0  0  0  0  0  0  0  0  0  0
   37.4080   26.3180   42.3500 C   0  0  0  0  0  0  0  0  0  0  0  0
   38.5950   26.0840   42.9430 N   0  0  0  0  0  0  0  0  0  0  0  0
   40.3350   26.9020   43.7320 H   0  0  0  0  0  0  0  0  0  0  0  0
   39.7060   29.1710   43.2740 H   0  0  0  0  0  0  0  0  0  0  0  0
   36.6920   25.5640   42.0540 H   0  0  0  0  0  0  0  0  0  0  0  0
  1  2  2  0  0  0  0
  1 24  1  0  0  0  0
  3  1  1  0  0  0  0
  3  4  1  0  0  0  0
  4  9  1  0  0  0  0
  5 12  1  0  0  0  0
  5  4  1  0  0  0  0
  5 11  1  0  0  0  0
  6  7  1  0  0  0  0
  6  5  1  0  0  0  0
  7 15  1  0  0  0  0
  7  8  1  0  0  0  0
  8 16  1  1  0  0  0
  8  3  1  0  0  0  0
 10  4  1  0  0  0  0
 13  6  1  0  0  0  0
 14  7  1  0  0  0  0
 17  8  1  0  0  0  0
 18 17  1  0  0  0  0
 19 17  1  0  0  0  0
 19 20  1  0  0  0  0
 21 19  1  0  0  0  0
 22 19  1  0  0  0  0
 23 22  1  0  0  0  0
 24 26  1  0  0  0  0
 26 25  2  6  0  0  0
 26 29  1  0  0  0  0
 27 26  1  0  0  0  0
 27 28  1  0  0  0  0
 29 32  1  0  0  0  0
 30 36  1  0  0  0  0
 31 30  1  0  0  0  0
 31 37  1  0  0  0  0
 32 31  2  0  0  0  0
 33 34  2  0  0  0  0
 33 32  1  0  0  0  0
 34 35  1  0  0  0  0
 35 30  2  0  0  0  0
 38 34  1  0  0  0  0
M  END
>  <minimizedAffinity>
-5.16834974

$$$$

 OpenBabel03242522553D

 38 39  0  0  1  0  0  0  0  0999 V2000
   37.6540   30.6370   38.7760 C   0  0  0  0  0  0  0  0  0  0  0  0
   38.6630   29.8790   38.6270 O   0  0  0  0  0  0  0  0  0  0  0  0
   38.5220   31.6600   39.2480 N   0  0  0  0  0  0  0  0  0  0  0  0
   37.7630   32.4810   40.2010 C   0  0  0  0  0  0  0  0  0  0  0  0
   38.6850   33.6040   40.6070 C   0  0  0  0  0  0  0  0  0  0  0  0
   39.3550   34.1400   39.4010 N   0  0  0  0  0  0  0  0  0  0  0  0
   40.4230   33.2340   39.1450 C   0  0  0  0  0  0  0  0  0  0  0  0
   39.9030   31.8620   38.8640 C   0  0  2  0  0  0  0  0  0  0  0  0
   37.5580   31.8070   41.0580 H   0  0  0  0  0  0  0  0  0  0  0  0
   36.8650   32.9100   39.7290 H   0  0  0  0  0  0  0  0  0  0  0  0
   39.4350   33.1930   41.3000 H   0  0  0  0  0  0  0  0  0  0  0  0
   38.0860   34.4090   41.0860 H   0  0  0  0  0  0  0  0  0  0  0  0
   39.7130   35.1030   39.5630 H   0  0  0  0  0  0  0  0  0  0  0  0
   40.9870   33.6250   38.2660 H   0  0  0  0  0  0  0  0  0  0  0  0
   41.1140   33.2730   40.0020 H   0  0  0  0  0  0  0  0  0  0  0  0
   40.5090   31.1710   39.5280 H   0  0  0  0  0  0  0  0  0  0  0  0
   40.1950   31.4980   37.5330 N   0  0  0  0  0  0  0  0  0  0  0  0
   39.5830   31.6400   36.7710 H   0  0  0  0  0  0  0  0  0  0  0  0
   41.7480   30.8600   37.3380 S   0  0  0  0  0  0  0  0  0  0  0  0
   42.6900   31.9290   36.8080 O   0  0  0  0  0  1  0  0  0  0  0  0
   42.3000   30.2290   38.5970 O   0  0  0  0  0  1  0  0  0  0  0  0
   41.7910   29.6240   36.1740 O   0  0  0  0  0  0  0  0  0  0  0  0
   40.9380   29.1310   36.1180 H   0  0  0  0  0  0  0  0  0  0  0  0
   36.4830   30.0400   38.4200 O   0  0  0  0  0  0  0  0  0  0  0  0
   34.0890   28.9890   38.7700 O   0  0  0  0  0  0  0  0  0  0  0  0
   35.5670   28.9130   39.2100 P   0  0  1  0  0  0  0  0  0  0  0  0
   36.0650   27.3530   38.8490 O   0  0  0  0  0  0  0  0  0  0  0  0
   36.8990   27.0790   39.2990 H   0  0  0  0  0  0  0  0  0  0  0  0
   35.6190   29.1820   40.8780 O   0  0  0  0  0  0  0  0  0  0  0  0
   38.3270   28.9060   43.2740 C   0  0  0  0  0  0  0  0  0  0  0  0
   37.3330   29.4500   42.4250 C   0  0  0  0  0  0  0  0  0  0  0  0
   36.5610   28.5940   41.6790 C   0  0  0  0  0  0  0  0  0  0  0  0
   36.7810   27.2500   41.7840 N   0  0  0  0  0  0  0  0  0  0  0  0
   37.7270   26.7600   42.5930 C   0  0  0  0  0  0  0  0  0  0  0  0
   38.5050   27.5650   43.3430 N   0  0  0  0  0  0  0  0  0  0  0  0
   38.9710   29.5160   43.8900 H   0  0  0  0  0  0  0  0  0  0  0  0
   37.3090   30.5130   42.4760 H   0  0  0  0  0  0  0  0  0  0  0  0
   37.7780   25.6810   42.5670 H   0  0  0  0  0  0  0  0  0  0  0  0
  1  3  1  0  0  0  0
  2  1  2  0  0  0  0
  3  4  1  0  0  0  0
  4  5  1  0  0  0  0
  4  9  1  0  0  0  0
  5 12  1  0  0  0  0
  5 11  1  0  0  0  0
  6 13  1  0  0  0  0
  6  5  1  0  0  0  0
  7  6  1  0  0  0  0
  7 15  1  0  0  0  0
  8  7  1  0  0  0  0
  8  3  1  0  0  0  0
  8 16  1  1  0  0  0
 10  4  1  0  0  0  0
 14  7  1  0  0  0  0
 17  8  1  0  0  0  0
 18 17  1  0  0  0  0
 19 17  1  0  0  0  0
 19 21  1  0  0  0  0
 20 19  1  0  0  0  0
 22 19  1  0  0  0  0
 23 22  1  0  0  0  0
 24  1  1  0  0  0  0
 24 26  1  0  0  0  0
 26 25  2  6  0  0  0
 26 29  1  0  0  0  0
 27 26  1  0  0  0  0
 27 28  1  0  0  0  0
 29 32  1  0  0  0  0
 30 35  1  0  0  0  0
 30 36  1  0  0  0  0
 31 37  1  0  0  0  0
 31 30  2  0  0  0  0
 32 33  2  0  0  0  0
 32 31  1  0  0  0  0
 33 34  1  0  0  0  0
 34 35  2  0  0  0  0
 38 34  1  0  0  0  0
M  END
>  <minimizedAffinity>
-5.12696409

$$$$
