
 OpenBabel03252508373D

 39 41  0  0  0  0  0  0  0  0999 V2000
   45.1230   33.9590   40.7110 C   0  0  0  0  0  0  0  0  0  0  0  0
   44.0850   33.6330   39.8770 C   0  0  0  0  0  0  0  0  0  0  0  0
   44.3870   33.1470   38.6440 C   0  0  0  0  0  0  0  0  0  0  0  0
   45.6700   32.9630   38.1870 C   0  0  0  0  0  0  0  0  0  0  0  0
   46.6960   33.2950   39.0350 C   0  0  0  0  0  0  0  0  0  0  0  0
   46.4390   33.7950   40.3040 C   0  0  0  0  0  0  0  0  0  0  0  0
   43.5610   32.8910   37.9900 H   0  0  0  0  0  0  0  0  0  0  0  0
   45.8160   32.5680   37.1840 H   0  0  0  0  0  0  0  0  0  0  0  0
   47.7000   33.1400   38.6490 H   0  0  0  0  0  0  0  0  0  0  0  0
   40.7940   35.2620   40.7870 C   0  0  0  0  0  0  0  0  0  0  0  0
   42.0940   35.0900   40.2720 C   0  0  0  0  0  0  0  0  0  0  0  0
   42.7460   33.8420   40.3980 C   0  0  0  0  0  0  0  0  0  0  0  0
   42.0340   32.8890   41.0260 N   0  0  0  0  0  0  0  0  0  0  0  0
   40.8080   33.0590   41.5100 C   0  0  0  0  0  0  0  0  0  0  0  0
   40.1860   34.2400   41.3940 N   0  0  0  0  0  0  0  0  0  0  0  0
   40.1870   36.5230   40.6370 N   0  0  0  0  0  0  0  0  0  0  0  0
   42.5850   35.9080   39.7850 H   0  0  0  0  0  0  0  0  0  0  0  0
   40.2780   32.2660   42.0050 H   0  0  0  0  0  0  0  0  0  0  0  0
   39.9540   36.8230   39.6450 H   0  0  0  0  0  0  0  0  0  0  0  0
   39.9040   37.2620   41.3190 H   0  0  0  0  0  0  0  0  0  0  0  0
   47.5930   34.1170   41.1160 C   0  0  0  0  0  0  0  0  0  0  0  0
   48.1520   35.3470   40.9460 C   0  0  0  0  0  0  0  0  0  0  0  0
   49.2540   35.8330   41.6290 C   0  0  0  0  0  0  0  0  0  0  0  0
   49.8270   35.0010   42.5550 C   0  0  0  0  0  0  0  0  0  0  0  0
   49.2950   33.7510   42.7580 C   0  0  0  0  0  0  0  0  0  0  0  0
   48.1960   33.3170   42.0510 C   0  0  0  0  0  0  0  0  0  0  0  0
   47.7350   36.0590   40.2170 H   0  0  0  0  0  0  0  0  0  0  0  0
   49.6570   36.8200   41.4530 H   0  0  0  0  0  0  0  0  0  0  0  0
   50.6920   35.3510   43.1070 H   0  0  0  0  0  0  0  0  0  0  0  0
   49.7900   33.1420   43.5000 H   0  0  0  0  0  0  0  0  0  0  0  0
   47.6430   32.0210   42.2610 N   0  0  0  0  0  0  0  0  0  0  0  0
   46.6020   31.8950   42.3580 H   0  0  0  0  0  0  0  0  0  0  0  0
   48.3030   30.4670   42.4110 S   0  0  0  0  0  0  0  0  0  0  0  0
   47.2270   29.4070   42.2120 O   0  0  0  0  0  1  0  0  0  0  0  0
   49.4250   30.2280   41.4670 O   0  0  0  0  0  1  0  0  0  0  0  0
   48.8160   30.2920   44.0240 O   0  0  0  0  0  0  0  0  0  0  0  0
   49.6080   30.9160   44.0860 H   0  0  0  0  0  0  0  0  0  0  0  0
   44.7090   34.9090   43.1040 N   0  0  0  0  0  0  0  0  0  0  0  0
   44.8980   34.4810   42.0330 C   0  0  0  0  0  0  0  0  0  0  0  0
  1 39  1  0  0  0  0
  2 12  1  0  0  0  0
  2  1  2  0  0  0  0
  3  2  1  0  0  0  0
  4  3  2  0  0  0  0
  4  5  1  0  0  0  0
  5  6  2  0  0  0  0
  6  1  1  0  0  0  0
  6 21  1  0  0  0  0
  7  3  1  0  0  0  0
  8  4  1  0  0  0  0
  9  5  1  0  0  0  0
 10 15  1  0  0  0  0
 11 12  1  0  0  0  0
 11 10  2  0  0  0  0
 12 13  2  0  0  0  0
 13 14  1  0  0  0  0
 14 18  1  0  0  0  0
 15 14  2  0  0  0  0
 16 10  1  0  0  0  0
 16 20  1  0  0  0  0
 17 11  1  0  0  0  0
 19 16  1  0  0  0  0
 21 26  1  0  0  0  0
 22 21  2  0  0  0  0
 22 23  1  0  0  0  0
 23 24  2  0  0  0  0
 24 25  1  0  0  0  0
 24 29  1  0  0  0  0
 25 30  1  0  0  0  0
 26 31  1  0  0  0  0
 26 25  2  0  0  0  0
 27 22  1  0  0  0  0
 28 23  1  0  0  0  0
 31 32  1  0  0  0  0
 31 33  1  0  0  0  0
 33 36  1  0  0  0  0
 34 33  1  0  0  0  0
 35 33  1  0  0  0  0
 36 37  1  0  0  0  0
 39 38  3  0  0  0  0
M  END
>  <minimizedAffinity>
-5.67727089

>  <minimizedRMSD>
0.314982712

$$$$
