
 OpenBabel03242514143D

 32 33  0  0  0  0  0  0  0  0999 V2000
   37.0550   25.6780   41.6150 C   0  0  0  0  0  0  0  0  0  0  0  0
   37.2380   24.3370   42.0900 C   0  0  0  0  0  0  0  0  0  0  0  0
   37.7300   23.3750   41.0490 C   0  0  0  0  0  0  0  0  0  0  0  0
   36.7140   23.2990   39.9070 C   0  0  0  0  0  0  0  0  0  0  0  0
   36.1620   24.6350   39.5120 C   0  0  0  0  0  0  0  0  0  0  0  0
   37.0350   25.7370   40.0640 C   0  0  0  0  0  0  0  0  0  0  0  0
   36.0500   26.1080   41.8300 H   0  0  0  0  0  0  0  0  0  0  0  0
   36.1970   23.9000   42.2260 H   0  0  0  0  0  0  0  0  0  0  0  0
   37.6090   24.1560   43.1020 H   0  0  0  0  0  0  0  0  0  0  0  0
   37.6600   22.3470   41.5120 H   0  0  0  0  0  0  0  0  0  0  0  0
   38.6500   23.5430   40.5310 H   0  0  0  0  0  0  0  0  0  0  0  0
   35.8870   22.5690   40.1570 H   0  0  0  0  0  0  0  0  0  0  0  0
   37.1780   22.8610   38.9990 H   0  0  0  0  0  0  0  0  0  0  0  0
   35.1780   24.7400   40.0560 H   0  0  0  0  0  0  0  0  0  0  0  0
   35.9800   24.7880   38.4550 H   0  0  0  0  0  0  0  0  0  0  0  0
   36.6010   26.7080   39.7780 H   0  0  0  0  0  0  0  0  0  0  0  0
   38.0730   25.6910   39.6780 H   0  0  0  0  0  0  0  0  0  0  0  0
   37.9880   26.6950   42.0840 C   0  0  0  0  0  0  0  0  0  0  0  0
   37.4140   27.9260   42.3480 C   0  0  0  0  0  0  0  0  0  0  0  0
   38.2010   28.9370   42.8820 C   0  0  0  0  0  0  0  0  0  0  0  0
   39.5230   28.6330   43.1090 N   0  0  0  0  0  0  0  0  0  0  0  0
   40.0650   27.4480   42.8460 C   0  0  0  0  0  0  0  0  0  0  0  0
   39.2840   26.5010   42.3380 N   0  0  0  0  0  0  0  0  0  0  0  0
   38.0470   29.9500   43.1810 H   0  0  0  0  0  0  0  0  0  0  0  0
   41.0970   27.1940   43.0170 H   0  0  0  0  0  0  0  0  0  0  0  0
   36.1790   28.5660   42.1660 N   0  0  0  0  0  0  0  0  0  0  0  0
   35.2650   28.6440   42.6630 H   0  0  0  0  0  0  0  0  0  0  0  0
   35.8200   29.5410   40.7450 S   0  0  0  0  0  0  0  0  0  0  0  0
   36.9100   29.4650   39.7300 O   0  0  0  0  0  1  0  0  0  0  0  0
   34.5010   29.1370   40.1600 O   0  0  0  0  0  1  0  0  0  0  0  0
   35.6760   31.1250   41.2640 O   0  0  0  0  0  0  0  0  0  0  0  0
   35.3930   31.1250   42.2110 H   0  0  0  0  0  0  0  0  0  0  0  0
  1  7  1  0  0  0  0
  1 18  1  0  0  0  0
  1  2  1  0  0  0  0
  2  8  1  0  0  0  0
  2  9  1  0  0  0  0
  3 10  1  0  0  0  0
  3  2  1  0  0  0  0
  4 12  1  0  0  0  0
  4  3  1  0  0  0  0
  5  4  1  0  0  0  0
  5 14  1  0  0  0  0
  5  6  1  0  0  0  0
  6  1  1  0  0  0  0
 11  3  1  0  0  0  0
 13  4  1  0  0  0  0
 15  5  1  0  0  0  0
 16  6  1  0  0  0  0
 17  6  1  0  0  0  0
 18 23  2  0  0  0  0
 18 19  1  0  0  0  0
 19 20  2  0  0  0  0
 20 21  1  0  0  0  0
 20 24  1  0  0  0  0
 22 25  1  0  0  0  0
 22 21  2  0  0  0  0
 23 22  1  0  0  0  0
 26 19  1  0  0  0  0
 26 27  1  0  0  0  0
 28 31  1  0  0  0  0
 28 26  1  0  0  0  0
 29 28  1  0  0  0  0
 30 28  1  0  0  0  0
 31 32  1  0  0  0  0
M  END
>  <minimizedAffinity>
-5.32077074

$$$$

 OpenBabel03242514143D

 32 33  0  0  0  0  0  0  0  0999 V2000
   35.4110   29.3550   38.6650 C   0  0  0  0  0  0  0  0  0  0  0  0
   34.0700   28.8850   38.4650 C   0  0  0  0  0  0  0  0  0  0  0  0
   33.9300   27.8670   37.3720 C   0  0  0  0  0  0  0  0  0  0  0  0
   34.3800   28.4800   36.0450 C   0  0  0  0  0  0  0  0  0  0  0  0
   35.6260   29.3060   36.1630 C   0  0  0  0  0  0  0  0  0  0  0  0
   36.3270   28.9970   37.4650 C   0  0  0  0  0  0  0  0  0  0  0  0
   35.5150   30.4640   38.6540 H   0  0  0  0  0  0  0  0  0  0  0  0
   33.5050   29.7340   37.9600 H   0  0  0  0  0  0  0  0  0  0  0  0
   33.4010   28.7470   39.3180 H   0  0  0  0  0  0  0  0  0  0  0  0
   32.8200   27.7240   37.2160 H   0  0  0  0  0  0  0  0  0  0  0  0
   34.4740   26.9470   37.3990 H   0  0  0  0  0  0  0  0  0  0  0  0
   33.5380   29.0700   35.5710 H   0  0  0  0  0  0  0  0  0  0  0  0
   34.5890   27.6870   35.2980 H   0  0  0  0  0  0  0  0  0  0  0  0
   35.2820   30.3780   36.2620 H   0  0  0  0  0  0  0  0  0  0  0  0
   36.3200   29.2520   35.3340 H   0  0  0  0  0  0  0  0  0  0  0  0
   37.2270   29.6280   37.5380 H   0  0  0  0  0  0  0  0  0  0  0  0
   36.6370   27.9360   37.5380 H   0  0  0  0  0  0  0  0  0  0  0  0
   36.0980   28.9430   39.8830 C   0  0  0  0  0  0  0  0  0  0  0  0
   36.3650   29.9700   40.7710 C   0  0  0  0  0  0  0  0  0  0  0  0
   36.9380   29.6700   41.9980 C   0  0  0  0  0  0  0  0  0  0  0  0
   37.2070   28.3440   42.2440 N   0  0  0  0  0  0  0  0  0  0  0  0
   36.9510   27.3650   41.3820 C   0  0  0  0  0  0  0  0  0  0  0  0
   36.3990   27.6860   40.2160 N   0  0  0  0  0  0  0  0  0  0  0  0
   37.2460   30.2260   42.8560 H   0  0  0  0  0  0  0  0  0  0  0  0
   37.1550   26.3230   41.5570 H   0  0  0  0  0  0  0  0  0  0  0  0
   36.2980   31.3710   40.8000 N   0  0  0  0  0  0  0  0  0  0  0  0
   35.6400   32.1100   41.1350 H   0  0  0  0  0  0  0  0  0  0  0  0
   37.5460   32.3930   40.0970 S   0  0  0  0  0  0  0  0  0  0  0  0
   38.6550   32.6570   41.0600 O   0  0  0  0  0  1  0  0  0  0  0  0
   38.0600   31.7850   38.8280 O   0  0  0  0  0  1  0  0  0  0  0  0
   36.8200   33.8470   39.7000 O   0  0  0  0  0  0  0  0  0  0  0  0
   35.8600   33.6880   39.5310 H   0  0  0  0  0  0  0  0  0  0  0  0
  1 18  1  0  0  0  0
  2  1  1  0  0  0  0
  2  9  1  0  0  0  0
  3 11  1  0  0  0  0
  3  2  1  0  0  0  0
  4  5  1  0  0  0  0
  4  3  1  0  0  0  0
  5 14  1  0  0  0  0
  5  6  1  0  0  0  0
  6 17  1  0  0  0  0
  6 16  1  0  0  0  0
  6  1  1  0  0  0  0
  7  1  1  0  0  0  0
  8  2  1  0  0  0  0
 10  3  1  0  0  0  0
 12  4  1  0  0  0  0
 13  4  1  0  0  0  0
 15  5  1  0  0  0  0
 18 23  2  0  0  0  0
 18 19  1  0  0  0  0
 19 26  1  0  0  0  0
 19 20  2  0  0  0  0
 20 21  1  0  0  0  0
 20 24  1  0  0  0  0
 22 25  1  0  0  0  0
 22 21  2  0  0  0  0
 23 22  1  0  0  0  0
 26 27  1  0  0  0  0
 28 26  1  0  0  0  0
 28 29  1  0  0  0  0
 30 28  1  0  0  0  0
 31 28  1  0  0  0  0
 32 31  1  0  0  0  0
M  END
>  <minimizedAffinity>
-4.8978672

$$$$

 OpenBabel03242514143D

 32 33  0  0  0  0  0  0  0  0999 V2000
   36.0420   28.1260   40.1960 C   0  0  0  0  0  0  0  0  0  0  0  0
   36.6660   27.7130   38.9720 C   0  0  0  0  0  0  0  0  0  0  0  0
   36.5010   28.6810   37.8370 C   0  0  0  0  0  0  0  0  0  0  0  0
   35.0120   28.8570   37.5310 C   0  0  0  0  0  0  0  0  0  0  0  0
   34.1610   28.9700   38.7600 C   0  0  0  0  0  0  0  0  0  0  0  0
   35.0260   29.2760   39.9590 C   0  0  0  0  0  0  0  0  0  0  0  0
   35.3610   27.3670   40.6430 H   0  0  0  0  0  0  0  0  0  0  0  0
   36.0230   26.8730   38.5530 H   0  0  0  0  0  0  0  0  0  0  0  0
   37.6180   27.1780   38.9910 H   0  0  0  0  0  0  0  0  0  0  0  0
   36.8830   28.1530   36.9150 H   0  0  0  0  0  0  0  0  0  0  0  0
   36.8430   29.6910   37.9170 H   0  0  0  0  0  0  0  0  0  0  0  0
   34.6450   28.0320   36.8490 H   0  0  0  0  0  0  0  0  0  0  0  0
   34.8410   29.7770   36.9350 H   0  0  0  0  0  0  0  0  0  0  0  0
   33.7500   27.9350   38.9510 H   0  0  0  0  0  0  0  0  0  0  0  0
   33.3270   29.6580   38.7060 H   0  0  0  0  0  0  0  0  0  0  0  0
   34.3830   29.3360   40.8520 H   0  0  0  0  0  0  0  0  0  0  0  0
   35.5700   30.2360   39.8560 H   0  0  0  0  0  0  0  0  0  0  0  0
   36.9100   28.5240   41.2970 C   0  0  0  0  0  0  0  0  0  0  0  0
   37.7890   29.5490   40.9980 C   0  0  0  0  0  0  0  0  0  0  0  0
   38.5980   30.0600   42.0030 C   0  0  0  0  0  0  0  0  0  0  0  0
   38.4650   29.4920   43.2480 N   0  0  0  0  0  0  0  0  0  0  0  0
   37.6210   28.5040   43.5240 C   0  0  0  0  0  0  0  0  0  0  0  0
   36.8580   28.0390   42.5390 N   0  0  0  0  0  0  0  0  0  0  0  0
   39.3430   30.8220   42.0730 H   0  0  0  0  0  0  0  0  0  0  0  0
   37.5040   28.0470   44.4920 H   0  0  0  0  0  0  0  0  0  0  0  0
   38.2170   30.2650   39.8690 N   0  0  0  0  0  0  0  0  0  0  0  0
   38.8140   30.1040   39.0290 H   0  0  0  0  0  0  0  0  0  0  0  0
   37.7810   31.9480   39.5950 S   0  0  0  0  0  0  0  0  0  0  0  0
   38.9140   32.8700   39.8940 O   0  0  0  0  0  1  0  0  0  0  0  0
   37.2820   32.1320   38.1940 O   0  0  0  0  0  1  0  0  0  0  0  0
   36.5130   32.2980   40.6300 O   0  0  0  0  0  0  0  0  0  0  0  0
   36.0210   31.4640   40.8240 H   0  0  0  0  0  0  0  0  0  0  0  0
  1  7  1  0  0  0  0
  1 18  1  0  0  0  0
  2  9  1  0  0  0  0
  2  1  1  0  0  0  0
  3 11  1  0  0  0  0
  3  2  1  0  0  0  0
  4  3  1  0  0  0  0
  4  5  1  0  0  0  0
  5 14  1  0  0  0  0
  5  6  1  0  0  0  0
  6  1  1  0  0  0  0
  6 16  1  0  0  0  0
  8  2  1  0  0  0  0
 10  3  1  0  0  0  0
 12  4  1  0  0  0  0
 13  4  1  0  0  0  0
 15  5  1  0  0  0  0
 17  6  1  0  0  0  0
 18 23  1  0  0  0  0
 19 18  2  0  0  0  0
 19 20  1  0  0  0  0
 20 24  1  0  0  0  0
 20 21  2  0  0  0  0
 21 22  1  0  0  0  0
 22 25  1  0  0  0  0
 23 22  2  0  0  0  0
 26 19  1  0  0  0  0
 27 26  1  0  0  0  0
 28 26  1  0  0  0  0
 28 29  1  0  0  0  0
 28 31  1  0  0  0  0
 30 28  1  0  0  0  0
 31 32  1  0  0  0  0
M  END
>  <minimizedAffinity>
-4.8280983

$$$$

 OpenBabel03242514143D

 32 33  0  0  0  0  0  0  0  0999 V2000
   37.2550   30.8950   40.0220 C   0  0  0  0  0  0  0  0  0  0  0  0
   36.0610   30.6790   40.7880 C   0  0  0  0  0  0  0  0  0  0  0  0
   35.4590   29.3150   40.6200 C   0  0  0  0  0  0  0  0  0  0  0  0
   35.0810   29.1030   39.1530 C   0  0  0  0  0  0  0  0  0  0  0  0
   36.1190   29.6020   38.1930 C   0  0  0  0  0  0  0  0  0  0  0  0
   37.4270   29.8200   38.9160 C   0  0  0  0  0  0  0  0  0  0  0  0
   37.2350   31.8110   39.3890 H   0  0  0  0  0  0  0  0  0  0  0  0
   35.2400   31.2760   40.2750 H   0  0  0  0  0  0  0  0  0  0  0  0
   35.9600   31.1130   41.7860 H   0  0  0  0  0  0  0  0  0  0  0  0
   34.4530   29.3510   41.1330 H   0  0  0  0  0  0  0  0  0  0  0  0
   36.0170   28.4320   40.8460 H   0  0  0  0  0  0  0  0  0  0  0  0
   34.0660   29.5520   38.9330 H   0  0  0  0  0  0  0  0  0  0  0  0
   34.9360   28.0250   38.9380 H   0  0  0  0  0  0  0  0  0  0  0  0
   35.7820   30.6340   37.8780 H   0  0  0  0  0  0  0  0  0  0  0  0
   36.2710   29.0110   37.2990 H   0  0  0  0  0  0  0  0  0  0  0  0
   38.1680   30.2030   38.1960 H   0  0  0  0  0  0  0  0  0  0  0  0
   37.8250   28.8880   39.3640 H   0  0  0  0  0  0  0  0  0  0  0  0
   38.5170   30.9880   40.7470 C   0  0  0  0  0  0  0  0  0  0  0  0
   39.4120   31.9080   40.2310 C   0  0  0  0  0  0  0  0  0  0  0  0
   40.6070   32.1340   40.8990 C   0  0  0  0  0  0  0  0  0  0  0  0
   40.8170   31.4080   42.0470 N   0  0  0  0  0  0  0  0  0  0  0  0
   39.9520   30.5230   42.5320 C   0  0  0  0  0  0  0  0  0  0  0  0
   38.8160   30.3310   41.8690 N   0  0  0  0  0  0  0  0  0  0  0  0
   41.4600   32.7590   40.7520 H   0  0  0  0  0  0  0  0  0  0  0  0
   40.1010   29.9450   43.4280 H   0  0  0  0  0  0  0  0  0  0  0  0
   39.5410   32.7170   39.0930 N   0  0  0  0  0  0  0  0  0  0  0  0
   39.2690   33.6780   38.7900 H   0  0  0  0  0  0  0  0  0  0  0  0
   40.3110   32.1550   37.6140 S   0  0  0  0  0  0  0  0  0  0  0  0
   41.5390   32.9400   37.2940 O   0  0  0  0  0  1  0  0  0  0  0  0
   40.6100   30.6900   37.7110 O   0  0  0  0  0  1  0  0  0  0  0  0
   39.2020   32.3610   36.3780 O   0  0  0  0  0  0  0  0  0  0  0  0
   38.2910   32.3240   36.7580 H   0  0  0  0  0  0  0  0  0  0  0  0
  1 18  1  0  0  0  0
  1  2  1  0  0  0  0
  2  9  1  0  0  0  0
  3  2  1  0  0  0  0
  3 11  1  0  0  0  0
  3 10  1  0  0  0  0
  4  3  1  0  0  0  0
  5  6  1  0  0  0  0
  5  4  1  0  0  0  0
  6 17  1  0  0  0  0
  6  1  1  0  0  0  0
  7  1  1  0  0  0  0
  8  2  1  0  0  0  0
 12  4  1  0  0  0  0
 13  4  1  0  0  0  0
 14  5  1  0  0  0  0
 15  5  1  0  0  0  0
 16  6  1  0  0  0  0
 18 23  1  0  0  0  0
 19 18  2  0  0  0  0
 19 20  1  0  0  0  0
 20 21  2  0  0  0  0
 21 22  1  0  0  0  0
 22 25  1  0  0  0  0
 23 22  2  0  0  0  0
 24 20  1  0  0  0  0
 26 19  1  0  0  0  0
 27 26  1  0  0  0  0
 28 30  1  0  0  0  0
 28 26  1  0  0  0  0
 29 28  1  0  0  0  0
 31 32  1  0  0  0  0
 31 28  1  0  0  0  0
M  END
>  <minimizedAffinity>
-4.75485659

$$$$

 OpenBabel03242514143D

 32 33  0  0  0  0  0  0  0  0999 V2000
   38.3810   29.1520   41.7080 C   0  0  0  0  0  0  0  0  0  0  0  0
   38.1500   27.9850   40.9070 C   0  0  0  0  0  0  0  0  0  0  0  0
   36.9750   27.1590   41.3420 C   0  0  0  0  0  0  0  0  0  0  0  0
   37.2010   26.6680   42.7730 C   0  0  0  0  0  0  0  0  0  0  0  0
   37.7750   27.7160   43.6780 C   0  0  0  0  0  0  0  0  0  0  0  0
   37.6120   29.0820   43.0550 C   0  0  0  0  0  0  0  0  0  0  0  0
   39.4220   29.2450   42.0950 H   0  0  0  0  0  0  0  0  0  0  0  0
   38.9700   27.2440   41.1770 H   0  0  0  0  0  0  0  0  0  0  0  0
   38.3240   28.0140   39.8280 H   0  0  0  0  0  0  0  0  0  0  0  0
   37.0220   26.2040   40.7410 H   0  0  0  0  0  0  0  0  0  0  0  0
   35.9930   27.5790   41.3930 H   0  0  0  0  0  0  0  0  0  0  0  0
   37.8330   25.7290   42.7770 H   0  0  0  0  0  0  0  0  0  0  0  0
   36.2460   26.3370   43.2290 H   0  0  0  0  0  0  0  0  0  0  0  0
   38.8900   27.5340   43.6990 H   0  0  0  0  0  0  0  0  0  0  0  0
   37.4170   27.7180   44.7000 H   0  0  0  0  0  0  0  0  0  0  0  0
   38.0560   29.8320   43.7270 H   0  0  0  0  0  0  0  0  0  0  0  0
   36.5490   29.3480   42.8880 H   0  0  0  0  0  0  0  0  0  0  0  0
   38.1040   30.4510   41.1090 C   0  0  0  0  0  0  0  0  0  0  0  0
   38.9440   31.4690   41.5240 C   0  0  0  0  0  0  0  0  0  0  0  0
   38.8190   32.7250   40.9470 C   0  0  0  0  0  0  0  0  0  0  0  0
   37.8450   32.8670   39.9870 N   0  0  0  0  0  0  0  0  0  0  0  0
   37.0390   31.8830   39.6000 C   0  0  0  0  0  0  0  0  0  0  0  0
   37.1860   30.6920   40.1700 N   0  0  0  0  0  0  0  0  0  0  0  0
   39.3060   33.6690   41.0550 H   0  0  0  0  0  0  0  0  0  0  0  0
   36.2710   31.9770   38.8510 H   0  0  0  0  0  0  0  0  0  0  0  0
   39.9390   31.6760   42.4910 N   0  0  0  0  0  0  0  0  0  0  0  0
   40.0330   32.1410   43.4210 H   0  0  0  0  0  0  0  0  0  0  0  0
   41.5940   31.1160   42.2800 S   0  0  0  0  0  0  0  0  0  0  0  0
   41.7770   29.7230   42.7810 O   0  0  0  0  0  1  0  0  0  0  0  0
   42.0030   31.2370   40.8440 O   0  0  0  0  0  1  0  0  0  0  0  0
   42.5730   32.1410   43.1700 O   0  0  0  0  0  0  0  0  0  0  0  0
   42.1290   33.0210   43.2430 H   0  0  0  0  0  0  0  0  0  0  0  0
  1  7  1  0  0  0  0
  1  6  1  0  0  0  0
  2  8  1  0  0  0  0
  2  3  1  0  0  0  0
  2  1  1  0  0  0  0
  3 11  1  0  0  0  0
  3  4  1  0  0  0  0
  4 12  1  0  0  0  0
  4 13  1  0  0  0  0
  4  5  1  0  0  0  0
  5 14  1  0  0  0  0
  5 15  1  0  0  0  0
  6  5  1  0  0  0  0
  6 16  1  0  0  0  0
  9  2  1  0  0  0  0
 10  3  1  0  0  0  0
 17  6  1  0  0  0  0
 18 19  1  0  0  0  0
 18  1  1  0  0  0  0
 19 26  1  0  0  0  0
 20 24  1  0  0  0  0
 20 19  2  0  0  0  0
 21 20  1  0  0  0  0
 22 21  2  0  0  0  0
 22 23  1  0  0  0  0
 23 18  2  0  0  0  0
 25 22  1  0  0  0  0
 26 27  1  0  0  0  0
 28 26  1  0  0  0  0
 28 29  1  0  0  0  0
 28 31  1  0  0  0  0
 30 28  1  0  0  0  0
 31 32  1  0  0  0  0
M  END
>  <minimizedAffinity>
-4.66468191

$$$$

 OpenBabel03242514143D

 32 33  0  0  0  0  0  0  0  0999 V2000
   37.4560   28.6780   40.6750 C   0  0  0  0  0  0  0  0  0  0  0  0
   37.3090   27.4270   41.3620 C   0  0  0  0  0  0  0  0  0  0  0  0
   36.7710   27.5490   42.7580 C   0  0  0  0  0  0  0  0  0  0  0  0
   37.7260   28.4000   43.5980 C   0  0  0  0  0  0  0  0  0  0  0  0
   38.2460   29.6040   42.8720 C   0  0  0  0  0  0  0  0  0  0  0  0
   37.3940   29.8800   41.6560 C   0  0  0  0  0  0  0  0  0  0  0  0
   38.4670   28.8470   40.2390 H   0  0  0  0  0  0  0  0  0  0  0  0
   38.3600   27.0840   41.6290 H   0  0  0  0  0  0  0  0  0  0  0  0
   36.9930   26.5330   40.8180 H   0  0  0  0  0  0  0  0  0  0  0  0
   36.8740   26.5260   43.2240 H   0  0  0  0  0  0  0  0  0  0  0  0
   35.8240   28.0070   42.9480 H   0  0  0  0  0  0  0  0  0  0  0  0
   38.5720   27.7660   44.0040 H   0  0  0  0  0  0  0  0  0  0  0  0
   37.2200   28.7680   44.5130 H   0  0  0  0  0  0  0  0  0  0  0  0
   39.2570   29.3100   42.4620 H   0  0  0  0  0  0  0  0  0  0  0  0
   38.3710   30.5040   43.4610 H   0  0  0  0  0  0  0  0  0  0  0  0
   37.8050   30.7560   41.1290 H   0  0  0  0  0  0  0  0  0  0  0  0
   36.3380   30.0920   41.9160 H   0  0  0  0  0  0  0  0  0  0  0  0
   36.5400   28.9580   39.5750 C   0  0  0  0  0  0  0  0  0  0  0  0
   37.1410   29.4810   38.4440 C   0  0  0  0  0  0  0  0  0  0  0  0
   36.3700   29.7010   37.3110 C   0  0  0  0  0  0  0  0  0  0  0  0
   35.0360   29.3790   37.4030 N   0  0  0  0  0  0  0  0  0  0  0  0
   34.4680   28.8820   38.4970 C   0  0  0  0  0  0  0  0  0  0  0  0
   35.2350   28.6810   39.5640 N   0  0  0  0  0  0  0  0  0  0  0  0
   36.5440   30.0770   36.3270 H   0  0  0  0  0  0  0  0  0  0  0  0
   33.4260   28.6260   38.5870 H   0  0  0  0  0  0  0  0  0  0  0  0
   38.3960   29.9750   38.0590 N   0  0  0  0  0  0  0  0  0  0  0  0
   39.2990   29.5990   37.6950 H   0  0  0  0  0  0  0  0  0  0  0  0
   38.8160   31.6800   38.1680 S   0  0  0  0  0  0  0  0  0  0  0  0
   37.7780   32.4610   38.9020 O   0  0  0  0  0  1  0  0  0  0  0  0
   40.1660   31.8420   38.7970 O   0  0  0  0  0  1  0  0  0  0  0  0
   38.9180   32.2590   36.6010 O   0  0  0  0  0  0  0  0  0  0  0  0
   39.1530   31.5110   36.0000 H   0  0  0  0  0  0  0  0  0  0  0  0
  1  2  1  0  0  0  0
  1  6  1  0  0  0  0
  2  8  1  0  0  0  0
  2  3  1  0  0  0  0
  3 11  1  0  0  0  0
  3 10  1  0  0  0  0
  3  4  1  0  0  0  0
  4 12  1  0  0  0  0
  4 13  1  0  0  0  0
  5 15  1  0  0  0  0
  5  4  1  0  0  0  0
  6 17  1  0  0  0  0
  6  5  1  0  0  0  0
  7  1  1  0  0  0  0
  9  2  1  0  0  0  0
 14  5  1  0  0  0  0
 16  6  1  0  0  0  0
 18  1  1  0  0  0  0
 19 18  2  0  0  0  0
 20 21  2  0  0  0  0
 20 19  1  0  0  0  0
 21 22  1  0  0  0  0
 22 25  1  0  0  0  0
 22 23  2  0  0  0  0
 23 18  1  0  0  0  0
 24 20  1  0  0  0  0
 26 28  1  0  0  0  0
 26 19  1  0  0  0  0
 27 26  1  0  0  0  0
 28 30  1  0  0  0  0
 28 29  1  0  0  0  0
 31 28  1  0  0  0  0
 32 31  1  0  0  0  0
M  END
>  <minimizedAffinity>
-4.65339184

$$$$

 OpenBabel03242514143D

 32 33  0  0  0  0  0  0  0  0999 V2000
   36.0840   28.1260   40.3100 C   0  0  0  0  0  0  0  0  0  0  0  0
   36.5840   27.8150   39.0020 C   0  0  0  0  0  0  0  0  0  0  0  0
   36.2920   28.8590   37.9650 C   0  0  0  0  0  0  0  0  0  0  0  0
   34.7770   29.0280   37.8250 C   0  0  0  0  0  0  0  0  0  0  0  0
   34.0560   29.0340   39.1390 C   0  0  0  0  0  0  0  0  0  0  0  0
   35.0360   29.2700   40.2640 C   0  0  0  0  0  0  0  0  0  0  0  0
   35.4620   27.3240   40.7680 H   0  0  0  0  0  0  0  0  0  0  0  0
   35.9120   26.9950   38.5900 H   0  0  0  0  0  0  0  0  0  0  0  0
   37.5390   27.2980   38.8850 H   0  0  0  0  0  0  0  0  0  0  0  0
   36.5840   28.4070   36.9720 H   0  0  0  0  0  0  0  0  0  0  0  0
   36.6280   29.8670   38.0840 H   0  0  0  0  0  0  0  0  0  0  0  0
   34.3520   28.2470   37.1250 H   0  0  0  0  0  0  0  0  0  0  0  0
   34.5350   29.9850   37.3200 H   0  0  0  0  0  0  0  0  0  0  0  0
   33.6790   27.9810   39.2940 H   0  0  0  0  0  0  0  0  0  0  0  0
   33.2120   29.7080   39.2220 H   0  0  0  0  0  0  0  0  0  0  0  0
   34.4870   29.2530   41.2190 H   0  0  0  0  0  0  0  0  0  0  0  0
   35.5550   30.2460   40.1770 H   0  0  0  0  0  0  0  0  0  0  0  0
   37.0560   28.4600   41.3440 C   0  0  0  0  0  0  0  0  0  0  0  0
   37.3700   27.4180   42.1990 C   0  0  0  0  0  0  0  0  0  0  0  0
   38.3490   27.6080   43.1630 C   0  0  0  0  0  0  0  0  0  0  0  0
   38.9440   28.8470   43.2000 N   0  0  0  0  0  0  0  0  0  0  0  0
   38.6320   29.8430   42.3780 C   0  0  0  0  0  0  0  0  0  0  0  0
   37.6910   29.6280   41.4640 N   0  0  0  0  0  0  0  0  0  0  0  0
   38.7920   27.0140   43.9320 H   0  0  0  0  0  0  0  0  0  0  0  0
   39.0860   30.8180   42.3940 H   0  0  0  0  0  0  0  0  0  0  0  0
   36.9190   26.1190   42.4740 N   0  0  0  0  0  0  0  0  0  0  0  0
   36.2950   25.6440   43.1630 H   0  0  0  0  0  0  0  0  0  0  0  0
   37.4500   24.7170   41.5520 S   0  0  0  0  0  0  0  0  0  0  0  0
   36.2980   23.9370   41.0140 O   0  0  0  0  0  1  0  0  0  0  0  0
   38.3810   25.1410   40.4570 O   0  0  0  0  0  1  0  0  0  0  0  0
   38.3170   23.7440   42.6010 O   0  0  0  0  0  0  0  0  0  0  0  0
   38.7050   24.3090   43.3130 H   0  0  0  0  0  0  0  0  0  0  0  0
  1  7  1  0  0  0  0
  1 18  1  0  0  0  0
  2  1  1  0  0  0  0
  3 11  1  0  0  0  0
  3  2  1  0  0  0  0
  4  3  1  0  0  0  0
  4  5  1  0  0  0  0
  5 15  1  0  0  0  0
  5 14  1  0  0  0  0
  5  6  1  0  0  0  0
  6  1  1  0  0  0  0
  6 16  1  0  0  0  0
  8  2  1  0  0  0  0
  9  2  1  0  0  0  0
 10  3  1  0  0  0  0
 12  4  1  0  0  0  0
 13  4  1  0  0  0  0
 17  6  1  0  0  0  0
 18 23  2  0  0  0  0
 18 19  1  0  0  0  0
 19 26  1  0  0  0  0
 19 20  2  0  0  0  0
 20 21  1  0  0  0  0
 20 24  1  0  0  0  0
 22 25  1  0  0  0  0
 22 21  2  0  0  0  0
 23 22  1  0  0  0  0
 26 27  1  0  0  0  0
 28 26  1  0  0  0  0
 28 31  1  0  0  0  0
 29 28  1  0  0  0  0
 30 28  1  0  0  0  0
 31 32  1  0  0  0  0
M  END
>  <minimizedAffinity>
-4.62065601

$$$$

 OpenBabel03242514143D

 32 33  0  0  0  0  0  0  0  0999 V2000
   37.8260   28.3180   40.8390 C   0  0  0  0  0  0  0  0  0  0  0  0
   38.3400   26.9950   41.0460 C   0  0  0  0  0  0  0  0  0  0  0  0
   37.7930   26.3020   42.2590 C   0  0  0  0  0  0  0  0  0  0  0  0
   38.1490   27.1100   43.5090 C   0  0  0  0  0  0  0  0  0  0  0  0
   37.9760   28.5880   43.3320 C   0  0  0  0  0  0  0  0  0  0  0  0
   37.1280   28.8650   42.1130 C   0  0  0  0  0  0  0  0  0  0  0  0
   38.6080   29.1000   40.7060 H   0  0  0  0  0  0  0  0  0  0  0  0
   39.4110   27.1210   41.4080 H   0  0  0  0  0  0  0  0  0  0  0  0
   38.5480   26.3440   40.1930 H   0  0  0  0  0  0  0  0  0  0  0  0
   38.4060   25.3620   42.3880 H   0  0  0  0  0  0  0  0  0  0  0  0
   36.7430   26.1410   42.3780 H   0  0  0  0  0  0  0  0  0  0  0  0
   39.1930   26.8560   43.8640 H   0  0  0  0  0  0  0  0  0  0  0  0
   37.5080   26.8110   44.3640 H   0  0  0  0  0  0  0  0  0  0  0  0
   38.9990   28.9930   43.0760 H   0  0  0  0  0  0  0  0  0  0  0  0
   37.6030   29.1350   44.1880 H   0  0  0  0  0  0  0  0  0  0  0  0
   37.0300   29.9560   41.9920 H   0  0  0  0  0  0  0  0  0  0  0  0
   36.1120   28.4310   42.1950 H   0  0  0  0  0  0  0  0  0  0  0  0
   36.9180   28.5240   39.7160 C   0  0  0  0  0  0  0  0  0  0  0  0
   37.1450   29.6840   38.9970 C   0  0  0  0  0  0  0  0  0  0  0  0
   36.3920   29.9290   37.8580 C   0  0  0  0  0  0  0  0  0  0  0  0
   35.4530   28.9810   37.5240 N   0  0  0  0  0  0  0  0  0  0  0  0
   35.2410   27.8720   38.2260 C   0  0  0  0  0  0  0  0  0  0  0  0
   35.9800   27.6660   39.3110 N   0  0  0  0  0  0  0  0  0  0  0  0
   36.3410   30.7040   37.1250 H   0  0  0  0  0  0  0  0  0  0  0  0
   34.5100   27.1200   37.9800 H   0  0  0  0  0  0  0  0  0  0  0  0
   37.9260   30.8440   39.1020 N   0  0  0  0  0  0  0  0  0  0  0  0
   38.8420   31.1980   38.7480 H   0  0  0  0  0  0  0  0  0  0  0  0
   37.4480   32.2200   40.0910 S   0  0  0  0  0  0  0  0  0  0  0  0
   38.5200   32.6100   41.0530 O   0  0  0  0  0  1  0  0  0  0  0  0
   37.0530   33.3720   39.2190 O   0  0  0  0  0  1  0  0  0  0  0  0
   36.0930   31.7530   40.9540 O   0  0  0  0  0  0  0  0  0  0  0  0
   35.6190   31.0500   40.4460 H   0  0  0  0  0  0  0  0  0  0  0  0
  1  2  1  0  0  0  0
  1  6  1  0  0  0  0
  2  8  1  0  0  0  0
  2  3  1  0  0  0  0
  3 11  1  0  0  0  0
  3 10  1  0  0  0  0
  3  4  1  0  0  0  0
  4 12  1  0  0  0  0
  4 13  1  0  0  0  0
  5  4  1  0  0  0  0
  5 15  1  0  0  0  0
  6 17  1  0  0  0  0
  6  5  1  0  0  0  0
  7  1  1  0  0  0  0
  9  2  1  0  0  0  0
 14  5  1  0  0  0  0
 16  6  1  0  0  0  0
 18  1  1  0  0  0  0
 19 26  1  0  0  0  0
 19 18  2  0  0  0  0
 20 19  1  0  0  0  0
 21 20  2  0  0  0  0
 21 22  1  0  0  0  0
 22 23  2  0  0  0  0
 23 18  1  0  0  0  0
 24 20  1  0  0  0  0
 25 22  1  0  0  0  0
 26 28  1  0  0  0  0
 27 26  1  0  0  0  0
 28 31  1  0  0  0  0
 28 29  1  0  0  0  0
 30 28  1  0  0  0  0
 32 31  1  0  0  0  0
M  END
>  <minimizedAffinity>
-4.55775261

$$$$

 OpenBabel03242514143D

 32 33  0  0  0  0  0  0  0  0999 V2000
   36.0560   28.9050   38.3450 C   0  0  0  0  0  0  0  0  0  0  0  0
   36.7500   28.5110   37.1530 C   0  0  0  0  0  0  0  0  0  0  0  0
   35.9120   28.5520   35.9090 C   0  0  0  0  0  0  0  0  0  0  0  0
   34.7270   27.5960   36.0620 C   0  0  0  0  0  0  0  0  0  0  0  0
   34.0870   27.6530   37.4160 C   0  0  0  0  0  0  0  0  0  0  0  0
   34.5180   28.9080   38.1370 C   0  0  0  0  0  0  0  0  0  0  0  0
   36.1280   28.1730   39.1820 H   0  0  0  0  0  0  0  0  0  0  0  0
   36.8790   27.3820   37.2160 H   0  0  0  0  0  0  0  0  0  0  0  0
   37.8010   28.7740   37.0140 H   0  0  0  0  0  0  0  0  0  0  0  0
   36.5260   28.0590   35.0990 H   0  0  0  0  0  0  0  0  0  0  0  0
   35.4400   29.4570   35.5890 H   0  0  0  0  0  0  0  0  0  0  0  0
   35.0310   26.5390   35.7940 H   0  0  0  0  0  0  0  0  0  0  0  0
   33.9360   27.8310   35.3210 H   0  0  0  0  0  0  0  0  0  0  0  0
   34.5360   26.8040   38.0110 H   0  0  0  0  0  0  0  0  0  0  0  0
   33.0090   27.5490   37.4440 H   0  0  0  0  0  0  0  0  0  0  0  0
   34.0510   28.9200   39.1350 H   0  0  0  0  0  0  0  0  0  0  0  0
   34.2190   29.8300   37.6000 H   0  0  0  0  0  0  0  0  0  0  0  0
   36.4220   30.1790   38.9510 C   0  0  0  0  0  0  0  0  0  0  0  0
   36.3840   30.1930   40.3340 C   0  0  0  0  0  0  0  0  0  0  0  0
   36.7980   31.3310   41.0100 C   0  0  0  0  0  0  0  0  0  0  0  0
   37.2220   32.3860   40.2360 N   0  0  0  0  0  0  0  0  0  0  0  0
   37.2500   32.3640   38.9080 C   0  0  0  0  0  0  0  0  0  0  0  0
   36.8490   31.2580   38.2910 N   0  0  0  0  0  0  0  0  0  0  0  0
   36.8810   31.6280   42.0330 H   0  0  0  0  0  0  0  0  0  0  0  0
   37.5770   33.1810   38.2870 H   0  0  0  0  0  0  0  0  0  0  0  0
   35.9490   29.3610   41.3770 N   0  0  0  0  0  0  0  0  0  0  0  0
   35.0500   29.1030   41.8400 H   0  0  0  0  0  0  0  0  0  0  0  0
   37.0610   28.4110   42.3560 S   0  0  0  0  0  0  0  0  0  0  0  0
   36.4340   27.1460   42.8380 O   0  0  0  0  0  1  0  0  0  0  0  0
   38.3210   28.1380   41.5910 O   0  0  0  0  0  1  0  0  0  0  0  0
   37.4700   29.3490   43.6790 O   0  0  0  0  0  0  0  0  0  0  0  0
   37.3830   30.3020   43.4330 H   0  0  0  0  0  0  0  0  0  0  0  0
  1 18  1  0  0  0  0
  1  7  1  0  0  0  0
  2  8  1  0  0  0  0
  2  1  1  0  0  0  0
  3  4  1  0  0  0  0
  3  2  1  0  0  0  0
  4  5  1  0  0  0  0
  5 15  1  0  0  0  0
  5 14  1  0  0  0  0
  5  6  1  0  0  0  0
  6  1  1  0  0  0  0
  6 16  1  0  0  0  0
  9  2  1  0  0  0  0
 10  3  1  0  0  0  0
 11  3  1  0  0  0  0
 12  4  1  0  0  0  0
 13  4  1  0  0  0  0
 17  6  1  0  0  0  0
 18 19  1  0  0  0  0
 19 20  2  0  0  0  0
 19 26  1  0  0  0  0
 20 24  1  0  0  0  0
 21 20  1  0  0  0  0
 22 21  2  0  0  0  0
 23 22  1  0  0  0  0
 23 18  2  0  0  0  0
 25 22  1  0  0  0  0
 26 27  1  0  0  0  0
 26 28  1  0  0  0  0
 28 29  1  0  0  0  0
 28 31  1  0  0  0  0
 30 28  1  0  0  0  0
 32 31  1  0  0  0  0
M  END
>  <minimizedAffinity>
-4.54502535

$$$$
