
 OpenBabel03252508373D

 39 41  0  0  0  0  0  0  0  0999 V2000
   45.0940   33.9810   40.7400 C   0  0  0  0  0  0  0  0  0  0  0  0
   44.0550   33.6310   39.9150 C   0  0  0  0  0  0  0  0  0  0  0  0
   44.3570   33.1100   38.6970 C   0  0  0  0  0  0  0  0  0  0  0  0
   45.6410   32.9130   38.2450 C   0  0  0  0  0  0  0  0  0  0  0  0
   46.6660   33.2690   39.0830 C   0  0  0  0  0  0  0  0  0  0  0  0
   46.4100   33.8050   40.3380 C   0  0  0  0  0  0  0  0  0  0  0  0
   43.5310   32.8350   38.0500 H   0  0  0  0  0  0  0  0  0  0  0  0
   45.7860   32.4900   37.2540 H   0  0  0  0  0  0  0  0  0  0  0  0
   47.6700   33.1040   38.7020 H   0  0  0  0  0  0  0  0  0  0  0  0
   40.7740   35.2930   40.8020 C   0  0  0  0  0  0  0  0  0  0  0  0
   42.0750   35.1070   40.2920 C   0  0  0  0  0  0  0  0  0  0  0  0
   42.7160   33.8550   40.4300 C   0  0  0  0  0  0  0  0  0  0  0  0
   41.9950   32.9120   41.0630 N   0  0  0  0  0  0  0  0  0  0  0  0
   40.7690   33.0960   41.5410 C   0  0  0  0  0  0  0  0  0  0  0  0
   40.1570   34.2810   41.4140 N   0  0  0  0  0  0  0  0  0  0  0  0
   40.1780   36.5570   40.6400 N   0  0  0  0  0  0  0  0  0  0  0  0
   42.5740   35.9170   39.8010 H   0  0  0  0  0  0  0  0  0  0  0  0
   40.2310   32.3110   42.0420 H   0  0  0  0  0  0  0  0  0  0  0  0
   39.9510   36.8510   39.6450 H   0  0  0  0  0  0  0  0  0  0  0  0
   39.8990   37.3040   41.3150 H   0  0  0  0  0  0  0  0  0  0  0  0
   47.5640   34.1510   41.1410 C   0  0  0  0  0  0  0  0  0  0  0  0
   48.1510   35.3560   40.9020 C   0  0  0  0  0  0  0  0  0  0  0  0
   49.2570   35.8580   41.5650 C   0  0  0  0  0  0  0  0  0  0  0  0
   49.8040   35.0710   42.5460 C   0  0  0  0  0  0  0  0  0  0  0  0
   49.2430   33.8470   42.8170 C   0  0  0  0  0  0  0  0  0  0  0  0
   48.1400   33.3960   42.1270 C   0  0  0  0  0  0  0  0  0  0  0  0
   47.7570   36.0320   40.1280 H   0  0  0  0  0  0  0  0  0  0  0  0
   49.6840   36.8230   41.3350 H   0  0  0  0  0  0  0  0  0  0  0  0
   50.6720   35.4350   43.0840 H   0  0  0  0  0  0  0  0  0  0  0  0
   49.7180   33.2740   43.6000 H   0  0  0  0  0  0  0  0  0  0  0  0
   47.5570   32.1270   42.4090 N   0  0  0  0  0  0  0  0  0  0  0  0
   47.6920   31.3190   41.7490 H   0  0  0  0  0  0  0  0  0  0  0  0
   46.5960   31.5250   43.6700 S   0  0  0  0  0  0  0  0  0  0  0  0
   47.1340   30.1880   44.1620 O   0  0  0  0  0  1  0  0  0  0  0  0
   46.4880   32.4730   44.8100 O   0  0  0  0  0  1  0  0  0  0  0  0
   45.0620   31.1840   43.0160 O   0  0  0  0  0  0  0  0  0  0  0  0
   44.6850   32.0980   42.8180 H   0  0  0  0  0  0  0  0  0  0  0  0
   44.6790   34.9980   43.1050 N   0  0  0  0  0  0  0  0  0  0  0  0
   44.8680   34.5400   42.0470 C   0  0  0  0  0  0  0  0  0  0  0  0
  1 39  1  0  0  0  0
  2 12  1  0  0  0  0
  2  1  2  0  0  0  0
  3  2  1  0  0  0  0
  4  3  2  0  0  0  0
  4  5  1  0  0  0  0
  5  6  2  0  0  0  0
  6  1  1  0  0  0  0
  6 21  1  0  0  0  0
  7  3  1  0  0  0  0
  8  4  1  0  0  0  0
  9  5  1  0  0  0  0
 10 15  1  0  0  0  0
 11 12  1  0  0  0  0
 11 10  2  0  0  0  0
 12 13  2  0  0  0  0
 13 14  1  0  0  0  0
 14 18  1  0  0  0  0
 15 14  2  0  0  0  0
 16 10  1  0  0  0  0
 16 20  1  0  0  0  0
 17 11  1  0  0  0  0
 19 16  1  0  0  0  0
 21 26  1  0  0  0  0
 22 21  2  0  0  0  0
 22 23  1  0  0  0  0
 23 24  2  0  0  0  0
 24 25  1  0  0  0  0
 24 29  1  0  0  0  0
 25 30  1  0  0  0  0
 26 31  1  0  0  0  0
 26 25  2  0  0  0  0
 27 22  1  0  0  0  0
 28 23  1  0  0  0  0
 31 33  1  0  0  0  0
 32 31  1  0  0  0  0
 33 34  1  0  0  0  0
 33 35  1  0  0  0  0
 36 33  1  0  0  0  0
 37 36  1  0  0  0  0
 39 38  3  0  0  0  0
M  END
>  <minimizedAffinity>
-5.80091095

>  <minimizedRMSD>
0.202011555

$$$$
