REMARK  Name = 
REMARK  6 active torsions:
REMARK  status: ('A' for Active; 'I' for Inactive)
REMARK    1  A    between atoms: C_1  and  C_21
REMARK    2  A    between atoms: C_2  and  C_9
REMARK    3  A    between atoms: C_6  and  C_14
REMARK    4  A    between atoms: C_19  and  N_33
REMARK    5  A    between atoms: N_33  and  S_35
REMARK    6  A    between atoms: S_35  and  O_38
REMARK                            x       y       z     vdW  Elec       q    Type
REMARK                         _______ _______ _______ _____ _____    ______ ____
ROOT
ATOM      1  C   UNL     1      45.123  33.941  40.707  0.00  0.00    +0.000 A 
ATOM      2  C   UNL     1      44.082  33.629  39.870  0.00  0.00    +0.000 A 
ATOM      3  C   UNL     1      44.381  33.153  38.632  0.00  0.00    +0.000 A 
ATOM      4  C   UNL     1      45.663  32.967  38.172  0.00  0.00    +0.000 A 
ATOM      5  C   UNL     1      46.691  33.285  39.023  0.00  0.00    +0.000 A 
ATOM      6  C   UNL     1      46.438  33.774  40.297  0.00  0.00    +0.000 A 
ATOM      7  H   UNL     1      43.553  32.908  37.976  0.00  0.00    +0.000 HD
ATOM      8  H   UNL     1      45.806  32.581  37.166  0.00  0.00    +0.000 HD
ATOM      9  H   UNL     1      47.694  33.129  38.635  0.00  0.00    +0.000 HD
ENDROOT
BRANCH   2  12
ATOM     10  C   UNL     1      40.797  35.264  40.790  0.00  0.00    +0.000 A 
ATOM     11  C   UNL     1      42.096  35.090  40.272  0.00  0.00    +0.000 A 
ATOM     12  C   UNL     1      42.745  33.840  40.394  0.00  0.00    +0.000 A 
ATOM     13  N   UNL     1      42.032  32.887  41.021  0.00  0.00    +0.000 NA
ATOM     14  C   UNL     1      40.807  33.059  41.507  0.00  0.00    +0.000 A 
ATOM     15  N   UNL     1      40.188  34.242  41.395  0.00  0.00    +0.000 NA
ATOM     16  N   UNL     1      40.193  36.526  40.644  0.00  0.00    +0.000 N 
ATOM     17  H   UNL     1      42.588  35.908  39.786  0.00  0.00    +0.000 HD
ATOM     18  H   UNL     1      40.276  32.266  42.002  0.00  0.00    +0.000 HD
ATOM     19  H   UNL     1      39.959  36.829  39.653  0.00  0.00    +0.000 HD
ATOM     20  H   UNL     1      39.913  37.264  41.328  0.00  0.00    +0.000 HD
ENDBRANCH   2  12
BRANCH   6  21
ATOM     21  C   UNL     1      47.594  34.082  41.112  0.00  0.00    +0.000 A 
ATOM     22  C   UNL     1      48.149  35.317  40.965  0.00  0.00    +0.000 A 
ATOM     23  C   UNL     1      49.252  35.791  41.654  0.00  0.00    +0.000 A 
ATOM     24  C   UNL     1      49.831  34.941  42.561  0.00  0.00    +0.000 A 
ATOM     25  C   UNL     1      49.303  33.686  42.739  0.00  0.00    +0.000 A 
ATOM     26  C   UNL     1      48.202  33.264  42.027  0.00  0.00    +0.000 A 
ATOM     27  H   UNL     1      47.728  36.043  40.253  0.00  0.00    +0.000 HD
ATOM     28  H   UNL     1      49.652  36.782  41.498  0.00  0.00    +0.000 HD
ATOM     29  H   UNL     1      50.697  35.282  43.117  0.00  0.00    +0.000 HD
ATOM     30  H   UNL     1      49.802  33.063  43.467  0.00  0.00    +0.000 HD
BRANCH  26  31
ATOM     31  N   UNL     1      47.653  31.963  42.212  0.00  0.00    +0.000 N 
ATOM     32  H   UNL     1      47.106  31.734  43.082  0.00  0.00    +0.000 HD
BRANCH  31  33
ATOM     33  S   UNL     1      47.656  30.539  41.292  0.00  0.00    +0.000 S 
ATOM     34  O   UNL     1      46.236  30.027  41.093  0.00  0.00    +0.000 OA
ATOM     35  O   UNL     1      48.317  30.712  39.972  0.00  0.00    +0.000 OA
BRANCH  33  36
ATOM     36  O   UNL     1      48.443  29.346  42.214  0.00  0.00    +0.000 OA
ATOM     37  H   UNL     1      49.405  29.651  42.220  0.00  0.00    +0.000 HD
ENDBRANCH  33  36
ENDBRANCH  31  33
ENDBRANCH  26  31
ENDBRANCH   6  21
BRANCH   1  39
ATOM     38  N   UNL     1      44.715  34.869  43.109  0.00  0.00    +0.000 NA
ATOM     39  C   UNL     1      44.901  34.451  42.034  0.00  0.00    +0.000 C 
ENDBRANCH   1  39
TORSDOF 6
