
 OpenBabel03242522143D

 24 25  0  0  0  0  0  0  0  0999 V2000
   38.1280   30.6420   39.2690 C   0  0  0  0  0  0  0  0  0  0  0  0
   37.0260   30.7610   38.4910 C   0  0  0  0  0  0  0  0  0  0  0  0
   37.6940   31.6590   37.0070 S   0  0  0  0  0  0  0  0  0  0  0  0
   39.3960   31.6910   37.7710 C   0  0  0  0  0  0  0  0  0  0  0  0
   39.2060   31.1540   38.7610 N   0  0  0  0  0  0  0  0  0  0  0  0
   35.9950   30.4270   38.6640 H   0  0  0  0  0  0  0  0  0  0  0  0
   40.4690   32.3310   37.0010 N   0  0  0  0  0  0  0  0  0  0  0  0
   40.3030   32.2460   36.0010 H   0  0  0  0  0  0  0  0  0  0  0  0
   38.7330   29.7950   42.8940 C   0  0  0  0  0  0  0  0  0  0  0  0
   38.7920   30.4670   41.6710 C   0  0  0  0  0  0  0  0  0  0  0  0
   38.1020   29.9780   40.5910 C   0  0  0  0  0  0  0  0  0  0  0  0
   37.3790   28.8200   40.8080 N   0  0  0  0  0  0  0  0  0  0  0  0
   37.3390   28.1950   41.9890 C   0  0  0  0  0  0  0  0  0  0  0  0
   38.0200   28.6870   43.0360 N   0  0  0  0  0  0  0  0  0  0  0  0
   39.2730   30.1700   43.7540 H   0  0  0  0  0  0  0  0  0  0  0  0
   36.7500   27.2910   42.0820 H   0  0  0  0  0  0  0  0  0  0  0  0
   39.5960   31.6480   41.6470 N   0  0  0  0  0  0  0  0  0  0  0  0
   40.6260   31.6980   41.7850 H   0  0  0  0  0  0  0  0  0  0  0  0
   39.0120   32.4650   41.4730 H   0  0  0  0  0  0  0  0  0  0  0  0
   41.7970   33.1070   37.6980 S   0  0  0  0  0  0  0  0  0  0  0  0
   41.2730   34.0070   38.8080 O   0  0  0  0  0  1  0  0  0  0  0  0
   42.8000   32.2050   38.2970 O   0  0  0  0  0  1  0  0  0  0  0  0
   42.4460   34.1610   36.5520 O   0  0  0  0  0  0  0  0  0  0  0  0
   41.7890   34.3560   35.8120 H   0  0  0  0  0  0  0  0  0  0  0  0
  1 11  1  0  0  0  0
  2  6  1  0  0  0  0
  2  1  2  0  0  0  0
  3  4  1  0  0  0  0
  3  2  1  0  0  0  0
  4  5  2  0  0  0  0
  5  1  1  0  0  0  0
  7 20  1  0  0  0  0
  7  4  1  0  0  0  0
  8  7  1  0  0  0  0
  9 14  1  0  0  0  0
  9 15  1  0  0  0  0
 10  9  2  0  0  0  0
 11 12  2  0  0  0  0
 11 10  1  0  0  0  0
 12 13  1  0  0  0  0
 13 16  1  0  0  0  0
 13 14  2  0  0  0  0
 17 10  1  0  0  0  0
 17 18  1  0  0  0  0
 19 17  1  0  0  0  0
 20 22  1  0  0  0  0
 20 21  1  0  0  0  0
 23 20  1  0  0  0  0
 24 23  1  0  0  0  0
M  END
>  <minimizedAffinity>
-5.09405613

$$$$

 OpenBabel03242522143D

 24 25  0  0  0  0  0  0  0  0999 V2000
   39.5740   31.0350   41.1850 C   0  0  0  0  0  0  0  0  0  0  0  0
   40.3400   30.9810   42.2990 C   0  0  0  0  0  0  0  0  0  0  0  0
   41.8600   31.9100   41.7710 S   0  0  0  0  0  0  0  0  0  0  0  0
   41.1210   32.1950   40.0830 C   0  0  0  0  0  0  0  0  0  0  0  0
   40.1120   31.6700   40.1890 N   0  0  0  0  0  0  0  0  0  0  0  0
   40.1430   30.5160   43.2740 H   0  0  0  0  0  0  0  0  0  0  0  0
   41.9240   32.9490   39.1130 N   0  0  0  0  0  0  0  0  0  0  0  0
   42.5310   33.6180   39.5820 H   0  0  0  0  0  0  0  0  0  0  0  0
   35.8650   30.5080   40.7380 C   0  0  0  0  0  0  0  0  0  0  0  0
   37.1100   31.1430   40.7890 C   0  0  0  0  0  0  0  0  0  0  0  0
   38.2300   30.4200   41.1090 C   0  0  0  0  0  0  0  0  0  0  0  0
   38.0320   29.0760   41.3640 N   0  0  0  0  0  0  0  0  0  0  0  0
   36.8300   28.4920   41.3070 C   0  0  0  0  0  0  0  0  0  0  0  0
   35.7440   29.2140   40.9920 N   0  0  0  0  0  0  0  0  0  0  0  0
   34.9740   31.0680   40.4870 H   0  0  0  0  0  0  0  0  0  0  0  0
   36.7540   27.4330   41.5190 H   0  0  0  0  0  0  0  0  0  0  0  0
   37.1070   32.5420   40.4960 N   0  0  0  0  0  0  0  0  0  0  0  0
   36.6430   33.2890   41.0500 H   0  0  0  0  0  0  0  0  0  0  0  0
   37.6370   32.7210   39.6430 H   0  0  0  0  0  0  0  0  0  0  0  0
   41.8440   32.7230   37.4410 S   0  0  0  0  0  0  0  0  0  0  0  0
   42.9140   31.7080   37.0640 O   0  0  0  0  0  1  0  0  0  0  0  0
   40.5530   32.2090   36.9450 O   0  0  0  0  0  1  0  0  0  0  0  0
   42.3230   34.1590   36.6970 O   0  0  0  0  0  0  0  0  0  0  0  0
   42.8320   34.7550   37.3320 H   0  0  0  0  0  0  0  0  0  0  0  0
  1  2  2  0  0  0  0
  2  6  1  0  0  0  0
  3  2  1  0  0  0  0
  4  5  2  0  0  0  0
  4  3  1  0  0  0  0
  5  1  1  0  0  0  0
  7  8  1  0  0  0  0
  7  4  1  0  0  0  0
  9 10  2  0  0  0  0
  9 14  1  0  0  0  0
 10 11  1  0  0  0  0
 11  1  1  0  0  0  0
 11 12  2  0  0  0  0
 13 12  1  0  0  0  0
 13 16  1  0  0  0  0
 14 13  2  0  0  0  0
 15  9  1  0  0  0  0
 17 10  1  0  0  0  0
 17 18  1  0  0  0  0
 19 17  1  0  0  0  0
 20  7  1  0  0  0  0
 21 20  1  0  0  0  0
 22 20  1  0  0  0  0
 23 24  1  0  0  0  0
 23 20  1  0  0  0  0
M  END
>  <minimizedAffinity>
-5.03607702

$$$$

 OpenBabel03242522143D

 24 25  0  0  0  0  0  0  0  0999 V2000
   38.2560   30.4520   39.2120 C   0  0  0  0  0  0  0  0  0  0  0  0
   38.0640   29.8380   38.0210 C   0  0  0  0  0  0  0  0  0  0  0  0
   37.1490   28.2990   38.5200 S   0  0  0  0  0  0  0  0  0  0  0  0
   37.2150   28.8200   40.3100 C   0  0  0  0  0  0  0  0  0  0  0  0
   37.7740   29.8130   40.2330 N   0  0  0  0  0  0  0  0  0  0  0  0
   38.3600   30.1440   37.0090 H   0  0  0  0  0  0  0  0  0  0  0  0
   36.5960   27.9260   41.2960 N   0  0  0  0  0  0  0  0  0  0  0  0
   35.8180   27.4130   40.8870 H   0  0  0  0  0  0  0  0  0  0  0  0
   39.0540   34.0700   39.9220 C   0  0  0  0  0  0  0  0  0  0  0  0
   38.3410   32.8710   39.8310 C   0  0  0  0  0  0  0  0  0  0  0  0
   38.9570   31.7500   39.3370 C   0  0  0  0  0  0  0  0  0  0  0  0
   40.2770   31.9010   38.9570 N   0  0  0  0  0  0  0  0  0  0  0  0
   40.9370   33.0590   39.0540 C   0  0  0  0  0  0  0  0  0  0  0  0
   40.3190   34.1480   39.5390 N   0  0  0  0  0  0  0  0  0  0  0  0
   38.5790   34.9620   40.3090 H   0  0  0  0  0  0  0  0  0  0  0  0
   41.9710   33.1000   38.7350 H   0  0  0  0  0  0  0  0  0  0  0  0
   36.9830   32.9190   40.2740 N   0  0  0  0  0  0  0  0  0  0  0  0
   36.2120   33.4710   39.8470 H   0  0  0  0  0  0  0  0  0  0  0  0
   36.8620   32.3210   41.0920 H   0  0  0  0  0  0  0  0  0  0  0  0
   37.1200   27.7760   42.8940 S   0  0  0  0  0  0  0  0  0  0  0  0
   36.0090   27.0930   43.6790 O   0  0  0  0  0  1  0  0  0  0  0  0
   38.3460   26.9740   43.0740 O   0  0  0  0  0  1  0  0  0  0  0  0
   37.2310   29.3250   43.5540 O   0  0  0  0  0  0  0  0  0  0  0  0
   36.7070   29.9970   43.0140 H   0  0  0  0  0  0  0  0  0  0  0  0
  1 11  1  0  0  0  0
  1  5  1  0  0  0  0
  2  3  1  0  0  0  0
  2  1  2  0  0  0  0
  3  4  1  0  0  0  0
  4  7  1  0  0  0  0
  5  4  2  0  0  0  0
  6  2  1  0  0  0  0
  7 20  1  0  0  0  0
  8  7  1  0  0  0  0
  9 15  1  0  0  0  0
 10  9  1  0  0  0  0
 10 17  1  0  0  0  0
 11 10  2  0  0  0  0
 12 13  2  0  0  0  0
 12 11  1  0  0  0  0
 13 14  1  0  0  0  0
 14  9  2  0  0  0  0
 16 13  1  0  0  0  0
 17 19  1  0  0  0  0
 18 17  1  0  0  0  0
 20 22  1  0  0  0  0
 20 23  1  0  0  0  0
 20 21  1  0  0  0  0
 24 23  1  0  0  0  0
M  END
>  <minimizedAffinity>
-4.93782711

$$$$

 OpenBabel03242522143D

 24 25  0  0  0  0  0  0  0  0999 V2000
   38.1590   30.3420   39.3010 C   0  0  0  0  0  0  0  0  0  0  0  0
   37.0030   30.5060   38.6170 C   0  0  0  0  0  0  0  0  0  0  0  0
   37.5470   31.5520   37.1800 S   0  0  0  0  0  0  0  0  0  0  0  0
   39.2980   31.5550   37.8230 C   0  0  0  0  0  0  0  0  0  0  0  0
   39.1890   30.9250   38.7700 N   0  0  0  0  0  0  0  0  0  0  0  0
   35.9930   30.1330   38.8300 H   0  0  0  0  0  0  0  0  0  0  0  0
   40.3020   32.2880   37.0430 N   0  0  0  0  0  0  0  0  0  0  0  0
   40.0660   32.2910   36.0530 H   0  0  0  0  0  0  0  0  0  0  0  0
   38.9130   27.6490   41.8330 C   0  0  0  0  0  0  0  0  0  0  0  0
   38.8720   28.3450   40.6210 C   0  0  0  0  0  0  0  0  0  0  0  0
   38.2400   29.5600   40.5550 C   0  0  0  0  0  0  0  0  0  0  0  0
   37.6750   30.0140   41.7320 N   0  0  0  0  0  0  0  0  0  0  0  0
   37.7280   29.3290   42.8790 C   0  0  0  0  0  0  0  0  0  0  0  0
   38.3510   28.1410   42.9270 N   0  0  0  0  0  0  0  0  0  0  0  0
   39.4090   26.6900   41.8980 H   0  0  0  0  0  0  0  0  0  0  0  0
   37.2610   29.7510   43.7610 H   0  0  0  0  0  0  0  0  0  0  0  0
   39.5140   27.7070   39.5150 N   0  0  0  0  0  0  0  0  0  0  0  0
   39.2330   26.8090   39.0710 H   0  0  0  0  0  0  0  0  0  0  0  0
   40.3110   28.2630   39.2060 H   0  0  0  0  0  0  0  0  0  0  0  0
   41.6630   33.0290   37.7150 S   0  0  0  0  0  0  0  0  0  0  0  0
   41.1960   33.8500   38.9090 O   0  0  0  0  0  1  0  0  0  0  0  0
   42.7020   32.0990   38.1970 O   0  0  0  0  0  1  0  0  0  0  0  0
   42.2410   34.1610   36.6060 O   0  0  0  0  0  0  0  0  0  0  0  0
   41.5420   34.3980   35.9180 H   0  0  0  0  0  0  0  0  0  0  0  0
  1 11  1  0  0  0  0
  2  6  1  0  0  0  0
  2  1  2  0  0  0  0
  3  4  1  0  0  0  0
  3  2  1  0  0  0  0
  4  5  2  0  0  0  0
  5  1  1  0  0  0  0
  7 20  1  0  0  0  0
  7  4  1  0  0  0  0
  8  7  1  0  0  0  0
  9 15  1  0  0  0  0
  9 14  1  0  0  0  0
 10  9  2  0  0  0  0
 11 10  1  0  0  0  0
 11 12  2  0  0  0  0
 12 13  1  0  0  0  0
 13 14  2  0  0  0  0
 13 16  1  0  0  0  0
 17 10  1  0  0  0  0
 18 17  1  0  0  0  0
 19 17  1  0  0  0  0
 20 22  1  0  0  0  0
 20 21  1  0  0  0  0
 23 20  1  0  0  0  0
 24 23  1  0  0  0  0
M  END
>  <minimizedAffinity>
-4.85990143

$$$$

 OpenBabel03242522143D

 24 25  0  0  0  0  0  0  0  0999 V2000
   40.0500   28.8420   42.4990 C   0  0  0  0  0  0  0  0  0  0  0  0
   41.2980   28.5240   42.9170 C   0  0  0  0  0  0  0  0  0  0  0  0
   42.1960   30.1390   42.7240 S   0  0  0  0  0  0  0  0  0  0  0  0
   40.6390   30.9490   42.0930 C   0  0  0  0  0  0  0  0  0  0  0  0
   39.9030   30.0770   42.1300 N   0  0  0  0  0  0  0  0  0  0  0  0
   41.7030   27.5690   43.2790 H   0  0  0  0  0  0  0  0  0  0  0  0
   40.7160   32.3710   41.7340 N   0  0  0  0  0  0  0  0  0  0  0  0
   41.4120   32.8530   42.2980 H   0  0  0  0  0  0  0  0  0  0  0  0
   36.7110   27.1500   42.9680 C   0  0  0  0  0  0  0  0  0  0  0  0
   37.7170   28.1190   43.0240 C   0  0  0  0  0  0  0  0  0  0  0  0
   38.9440   27.8590   42.4690 C   0  0  0  0  0  0  0  0  0  0  0  0
   39.0920   26.6180   41.8790 N   0  0  0  0  0  0  0  0  0  0  0  0
   38.1130   25.7080   41.8380 C   0  0  0  0  0  0  0  0  0  0  0  0
   36.9180   25.9780   42.3860 N   0  0  0  0  0  0  0  0  0  0  0  0
   35.7390   27.3430   43.4020 H   0  0  0  0  0  0  0  0  0  0  0  0
   38.3050   24.7560   41.3570 H   0  0  0  0  0  0  0  0  0  0  0  0
   37.3690   29.3400   43.6800 N   0  0  0  0  0  0  0  0  0  0  0  0
   37.1280   29.4550   44.6850 H   0  0  0  0  0  0  0  0  0  0  0  0
   37.3870   30.1120   43.0130 H   0  0  0  0  0  0  0  0  0  0  0  0
   39.7680   33.0950   40.5390 S   0  0  0  0  0  0  0  0  0  0  0  0
   40.6360   34.1210   39.8240 O   0  0  0  0  0  1  0  0  0  0  0  0
   39.2440   32.1700   39.5160 O   0  0  0  0  0  1  0  0  0  0  0  0
   38.5660   33.9980   41.3040 O   0  0  0  0  0  0  0  0  0  0  0  0
   38.7960   34.1830   42.2680 H   0  0  0  0  0  0  0  0  0  0  0  0
  1  2  2  0  0  0  0
  2  6  1  0  0  0  0
  3  2  1  0  0  0  0
  4  5  2  0  0  0  0
  4  3  1  0  0  0  0
  5  1  1  0  0  0  0
  7  4  1  0  0  0  0
  7  8  1  0  0  0  0
  9 10  1  0  0  0  0
  9 15  1  0  0  0  0
 10 17  1  0  0  0  0
 11  1  1  0  0  0  0
 11 10  2  0  0  0  0
 12 11  1  0  0  0  0
 13 12  2  0  0  0  0
 13 14  1  0  0  0  0
 14  9  2  0  0  0  0
 16 13  1  0  0  0  0
 17 18  1  0  0  0  0
 19 17  1  0  0  0  0
 20 23  1  0  0  0  0
 20  7  1  0  0  0  0
 21 20  1  0  0  0  0
 22 20  1  0  0  0  0
 23 24  1  0  0  0  0
M  END
>  <minimizedAffinity>
-4.84216642

$$$$

 OpenBabel03242522143D

 24 25  0  0  0  0  0  0  0  0999 V2000
   37.8350   26.8070   41.5030 C   0  0  0  0  0  0  0  0  0  0  0  0
   37.0000   25.7460   41.3960 C   0  0  0  0  0  0  0  0  0  0  0  0
   38.0210   24.3730   42.1190 S   0  0  0  0  0  0  0  0  0  0  0  0
   39.4260   25.5600   42.4320 C   0  0  0  0  0  0  0  0  0  0  0  0
   38.9860   26.5360   42.0360 N   0  0  0  0  0  0  0  0  0  0  0  0
   35.9810   25.6840   40.9910 H   0  0  0  0  0  0  0  0  0  0  0  0
   40.6420   25.0170   43.0530 N   0  0  0  0  0  0  0  0  0  0  0  0
   40.4230   24.2310   43.6600 H   0  0  0  0  0  0  0  0  0  0  0  0
   36.8000   30.4340   41.4420 C   0  0  0  0  0  0  0  0  0  0  0  0
   37.1490   29.1710   41.9290 C   0  0  0  0  0  0  0  0  0  0  0  0
   37.4610   28.1650   41.0500 C   0  0  0  0  0  0  0  0  0  0  0  0
   37.4040   28.4920   39.7090 N   0  0  0  0  0  0  0  0  0  0  0  0
   37.0670   29.7090   39.2680 C   0  0  0  0  0  0  0  0  0  0  0  0
   36.7640   30.6830   40.1410 N   0  0  0  0  0  0  0  0  0  0  0  0
   36.5510   31.2360   42.1240 H   0  0  0  0  0  0  0  0  0  0  0  0
   37.0440   29.8900   38.2000 H   0  0  0  0  0  0  0  0  0  0  0  0
   37.1490   29.0300   43.3510 N   0  0  0  0  0  0  0  0  0  0  0  0
   36.3240   29.1040   43.9790 H   0  0  0  0  0  0  0  0  0  0  0  0
   38.0950   28.8430   43.6830 H   0  0  0  0  0  0  0  0  0  0  0  0
   42.1920   25.6270   42.7800 S   0  0  0  0  0  0  0  0  0  0  0  0
   42.5130   25.4250   41.3060 O   0  0  0  0  0  1  0  0  0  0  0  0
   42.3560   27.0640   43.0760 O   0  0  0  0  0  1  0  0  0  0  0  0
   43.2900   24.6460   43.6040 O   0  0  0  0  0  0  0  0  0  0  0  0
   42.8850   23.7530   43.8420 H   0  0  0  0  0  0  0  0  0  0  0  0
  1  5  1  0  0  0  0
  2  1  2  0  0  0  0
  2  3  1  0  0  0  0
  3  4  1  0  0  0  0
  4  7  1  0  0  0  0
  5  4  2  0  0  0  0
  6  2  1  0  0  0  0
  7  8  1  0  0  0  0
  9 10  1  0  0  0  0
  9 15  1  0  0  0  0
 10 17  1  0  0  0  0
 11  1  1  0  0  0  0
 11 10  2  0  0  0  0
 12 11  1  0  0  0  0
 13 12  2  0  0  0  0
 13 14  1  0  0  0  0
 14  9  2  0  0  0  0
 16 13  1  0  0  0  0
 17 19  1  0  0  0  0
 17 18  1  0  0  0  0
 20  7  1  0  0  0  0
 20 22  1  0  0  0  0
 20 23  1  0  0  0  0
 21 20  1  0  0  0  0
 23 24  1  0  0  0  0
M  END
>  <minimizedAffinity>
-4.71650505

$$$$

 OpenBabel03242522143D

 24 25  0  0  0  0  0  0  0  0999 V2000
   36.4940   28.2160   39.1960 C   0  0  0  0  0  0  0  0  0  0  0  0
   35.8430   27.8500   38.0670 C   0  0  0  0  0  0  0  0  0  0  0  0
   35.9130   29.4070   37.0550 S   0  0  0  0  0  0  0  0  0  0  0  0
   36.8460   30.2720   38.4200 C   0  0  0  0  0  0  0  0  0  0  0  0
   36.9210   29.4420   39.2000 N   0  0  0  0  0  0  0  0  0  0  0  0
   35.3820   26.8920   37.7930 H   0  0  0  0  0  0  0  0  0  0  0  0
   37.2280   31.6710   38.1930 N   0  0  0  0  0  0  0  0  0  0  0  0
   37.3800   31.8540   37.2040 H   0  0  0  0  0  0  0  0  0  0  0  0
   36.9120   26.8010   42.6680 C   0  0  0  0  0  0  0  0  0  0  0  0
   36.7060   27.7210   41.6350 C   0  0  0  0  0  0  0  0  0  0  0  0
   36.7030   27.2920   40.3330 C   0  0  0  0  0  0  0  0  0  0  0  0
   36.9100   25.9390   40.1390 N   0  0  0  0  0  0  0  0  0  0  0  0
   37.1050   25.0800   41.1450 C   0  0  0  0  0  0  0  0  0  0  0  0
   37.1060   25.5160   42.4140 N   0  0  0  0  0  0  0  0  0  0  0  0
   36.9170   27.1270   43.7000 H   0  0  0  0  0  0  0  0  0  0  0  0
   37.2620   24.0330   40.9140 H   0  0  0  0  0  0  0  0  0  0  0  0
   36.5110   29.0770   42.0400 N   0  0  0  0  0  0  0  0  0  0  0  0
   37.2070   29.6870   42.5160 H   0  0  0  0  0  0  0  0  0  0  0  0
   35.5690   29.3830   41.7950 H   0  0  0  0  0  0  0  0  0  0  0  0
   37.3870   32.8170   39.4240 S   0  0  0  0  0  0  0  0  0  0  0  0
   38.8710   32.9560   39.7320 O   0  0  0  0  0  1  0  0  0  0  0  0
   36.8770   34.1610   39.0920 O   0  0  0  0  0  1  0  0  0  0  0  0
   36.7090   32.1710   40.8270 O   0  0  0  0  0  0  0  0  0  0  0  0
   36.6130   31.1690   40.7670 H   0  0  0  0  0  0  0  0  0  0  0  0
  1  5  1  0  0  0  0
  1 11  1  0  0  0  0
  2  1  2  0  0  0  0
  3  2  1  0  0  0  0
  3  4  1  0  0  0  0
  4  5  2  0  0  0  0
  6  2  1  0  0  0  0
  7  4  1  0  0  0  0
  7 20  1  0  0  0  0
  8  7  1  0  0  0  0
  9 15  1  0  0  0  0
 10 17  1  0  0  0  0
 10  9  2  0  0  0  0
 11 10  1  0  0  0  0
 12 11  2  0  0  0  0
 12 13  1  0  0  0  0
 13 14  2  0  0  0  0
 14  9  1  0  0  0  0
 16 13  1  0  0  0  0
 17 18  1  0  0  0  0
 19 17  1  0  0  0  0
 20 21  1  0  0  0  0
 20 23  1  0  0  0  0
 22 20  1  0  0  0  0
 24 23  1  0  0  0  0
M  END
>  <minimizedAffinity>
-4.63655186

$$$$

 OpenBabel03242522143D

 24 25  0  0  0  0  0  0  0  0999 V2000
   39.3440   27.4860   41.6550 C   0  0  0  0  0  0  0  0  0  0  0  0
   40.6590   27.6900   41.9010 C   0  0  0  0  0  0  0  0  0  0  0  0
   40.7780   29.5440   41.8680 S   0  0  0  0  0  0  0  0  0  0  0  0
   38.9510   29.6710   41.5130 C   0  0  0  0  0  0  0  0  0  0  0  0
   38.6510   28.5700   41.4890 N   0  0  0  0  0  0  0  0  0  0  0  0
   41.4680   26.9690   42.0770 H   0  0  0  0  0  0  0  0  0  0  0  0
   38.3850   31.0180   41.3650 N   0  0  0  0  0  0  0  0  0  0  0  0
   38.8980   31.6940   41.9260 H   0  0  0  0  0  0  0  0  0  0  0  0
   37.0330   24.5340   42.0740 C   0  0  0  0  0  0  0  0  0  0  0  0
   37.5460   25.8300   42.1730 C   0  0  0  0  0  0  0  0  0  0  0  0
   38.7460   26.1340   41.5820 C   0  0  0  0  0  0  0  0  0  0  0  0
   39.3710   25.0990   40.9130 N   0  0  0  0  0  0  0  0  0  0  0  0
   38.8590   23.8660   40.8330 C   0  0  0  0  0  0  0  0  0  0  0  0
   37.6840   23.5850   41.4170 N   0  0  0  0  0  0  0  0  0  0  0  0
   36.0870   24.2810   42.5370 H   0  0  0  0  0  0  0  0  0  0  0  0
   39.4080   23.1060   40.2910 H   0  0  0  0  0  0  0  0  0  0  0  0
   36.7500   26.7600   42.9100 N   0  0  0  0  0  0  0  0  0  0  0  0
   36.5250   26.7140   43.9240 H   0  0  0  0  0  0  0  0  0  0  0  0
   36.4180   27.5010   42.2930 H   0  0  0  0  0  0  0  0  0  0  0  0
   37.0580   31.3810   40.3860 S   0  0  0  0  0  0  0  0  0  0  0  0
   37.1090   32.8720   40.0800 O   0  0  0  0  0  1  0  0  0  0  0  0
   37.0230   30.6660   39.0960 O   0  0  0  0  0  1  0  0  0  0  0  0
   35.6590   31.1730   41.3060 O   0  0  0  0  0  0  0  0  0  0  0  0
   35.8610   31.1680   42.2940 H   0  0  0  0  0  0  0  0  0  0  0  0
  1  2  2  0  0  0  0
  2  6  1  0  0  0  0
  3  2  1  0  0  0  0
  4  3  1  0  0  0  0
  5  4  2  0  0  0  0
  5  1  1  0  0  0  0
  7  4  1  0  0  0  0
  7  8  1  0  0  0  0
  9 10  1  0  0  0  0
  9 15  1  0  0  0  0
 10 17  1  0  0  0  0
 11  1  1  0  0  0  0
 11 10  2  0  0  0  0
 12 11  1  0  0  0  0
 13 12  2  0  0  0  0
 13 14  1  0  0  0  0
 14  9  2  0  0  0  0
 16 13  1  0  0  0  0
 17 18  1  0  0  0  0
 19 17  1  0  0  0  0
 20 23  1  0  0  0  0
 20  7  1  0  0  0  0
 21 20  1  0  0  0  0
 22 20  1  0  0  0  0
 23 24  1  0  0  0  0
M  END
>  <minimizedAffinity>
-4.60075283

$$$$

 OpenBabel03242522143D

 24 25  0  0  0  0  0  0  0  0999 V2000
   38.3360   29.8270   39.6780 C   0  0  0  0  0  0  0  0  0  0  0  0
   39.3860   30.6710   39.8140 C   0  0  0  0  0  0  0  0  0  0  0  0
   39.3560   31.5910   38.2000 S   0  0  0  0  0  0  0  0  0  0  0  0
   37.8700   30.6080   37.6470 C   0  0  0  0  0  0  0  0  0  0  0  0
   37.7020   29.9300   38.5510 N   0  0  0  0  0  0  0  0  0  0  0  0
   40.0890   30.8000   40.6470 H   0  0  0  0  0  0  0  0  0  0  0  0
   37.3210   30.9050   36.3180 N   0  0  0  0  0  0  0  0  0  0  0  0
   37.4760   31.8790   36.0680 H   0  0  0  0  0  0  0  0  0  0  0  0
   36.4490   28.0390   42.4110 C   0  0  0  0  0  0  0  0  0  0  0  0
   36.7650   28.9760   41.4230 C   0  0  0  0  0  0  0  0  0  0  0  0
   37.9440   28.8650   40.7320 C   0  0  0  0  0  0  0  0  0  0  0  0
   38.7530   27.8000   41.0800 N   0  0  0  0  0  0  0  0  0  0  0  0
   38.4280   26.9170   42.0300 C   0  0  0  0  0  0  0  0  0  0  0  0
   37.2700   27.0390   42.6970 N   0  0  0  0  0  0  0  0  0  0  0  0
   35.5220   28.1150   42.9640 H   0  0  0  0  0  0  0  0  0  0  0  0
   39.1150   26.1070   42.2470 H   0  0  0  0  0  0  0  0  0  0  0  0
   35.7980   30.0060   41.2120 N   0  0  0  0  0  0  0  0  0  0  0  0
   35.5160   30.7400   41.8930 H   0  0  0  0  0  0  0  0  0  0  0  0
   35.4030   29.9280   40.2740 H   0  0  0  0  0  0  0  0  0  0  0  0
   36.5390   29.7690   35.3440 S   0  0  0  0  0  0  0  0  0  0  0  0
   35.4560   29.1100   36.1870 O   0  0  0  0  0  1  0  0  0  0  0  0
   35.8880   30.3230   34.1420 O   0  0  0  0  0  1  0  0  0  0  0  0
   37.6360   28.5340   35.0020 O   0  0  0  0  0  0  0  0  0  0  0  0
   38.4120   28.5360   35.6460 H   0  0  0  0  0  0  0  0  0  0  0  0
  1  2  2  0  0  0  0
  1 11  1  0  0  0  0
  2  6  1  0  0  0  0
  3  2  1  0  0  0  0
  4  3  1  0  0  0  0
  4  5  2  0  0  0  0
  5  1  1  0  0  0  0
  7  4  1  0  0  0  0
  8  7  1  0  0  0  0
  9 14  1  0  0  0  0
  9 15  1  0  0  0  0
 10  9  2  0  0  0  0
 11 12  2  0  0  0  0
 11 10  1  0  0  0  0
 12 13  1  0  0  0  0
 13 16  1  0  0  0  0
 13 14  2  0  0  0  0
 17 10  1  0  0  0  0
 17 18  1  0  0  0  0
 19 17  1  0  0  0  0
 20 21  1  0  0  0  0
 20  7  1  0  0  0  0
 22 20  1  0  0  0  0
 23 20  1  0  0  0  0
 23 24  1  0  0  0  0
M  END
>  <minimizedAffinity>
-4.57907915

$$$$
