
 OpenBabel03252500073D

 47 49  0  0  0  0  0  0  0  0999 V2000
   36.9720   26.5170   37.1660 C   0  0  0  0  0  0  0  0  0  0  0  0
   37.4310   27.0940   38.3470 C   0  0  0  0  0  0  0  0  0  0  0  0
   37.0650   26.5300   39.5680 C   0  0  0  0  0  0  0  0  0  0  0  0
   36.2690   25.4410   39.4630 N   0  0  0  0  0  0  0  0  0  0  0  0
   35.8390   24.9030   38.3490 C   0  0  0  0  0  0  0  0  0  0  0  0
   36.1990   25.4510   37.2100 N   0  0  0  0  0  0  0  0  0  0  0  0
   37.2700   26.9730   36.2330 H   0  0  0  0  0  0  0  0  0  0  0  0
   37.4490   26.9970   40.8520 C   0  0  0  0  0  0  0  0  0  0  0  0
   36.7110   28.0540   41.3760 C   0  0  0  0  0  0  0  0  0  0  0  0
   36.9400   28.6360   42.6060 C   0  0  0  0  0  0  0  0  0  0  0  0
   37.9370   28.1810   43.3930 C   0  0  0  0  0  0  0  0  0  0  0  0
   38.7110   27.1340   42.9370 C   0  0  0  0  0  0  0  0  0  0  0  0
   39.7310   26.6290   43.6780 C   0  0  0  0  0  0  0  0  0  0  0  0
   40.5230   25.5840   43.2540 C   0  0  0  0  0  0  0  0  0  0  0  0
   40.2410   25.0370   41.9970 C   0  0  0  0  0  0  0  0  0  0  0  0
   39.1890   25.5880   41.2800 C   0  0  0  0  0  0  0  0  0  0  0  0
   38.4300   26.5940   41.6940 C   0  0  0  0  0  0  0  0  0  0  0  0
   35.8730   28.5050   40.8190 H   0  0  0  0  0  0  0  0  0  0  0  0
   36.3400   29.4570   42.9720 H   0  0  0  0  0  0  0  0  0  0  0  0
   38.1450   28.6130   44.3610 H   0  0  0  0  0  0  0  0  0  0  0  0
   39.9350   27.0670   44.6550 H   0  0  0  0  0  0  0  0  0  0  0  0
   41.3240   25.2140   43.8800 H   0  0  0  0  0  0  0  0  0  0  0  0
   40.8780   24.2360   41.7180 H   0  0  0  0  0  0  0  0  0  0  0  0
   39.0680   24.9080   40.0200 N   0  0  0  0  0  0  0  0  0  0  0  0
   38.6140   24.0160   39.7300 H   0  0  0  0  0  0  0  0  0  0  0  0
   39.4070   25.1210   39.0590 H   0  0  0  0  0  0  0  0  0  0  0  0
   34.9700   23.6930   38.5360 C   0  0  0  0  0  0  0  0  0  0  0  0
   33.7330   23.8700   37.9710 F   0  0  0  0  0  0  0  0  0  0  0  0
   34.8480   23.3790   39.8630 F   0  0  0  0  0  0  0  0  0  0  0  0
   35.6210   22.5740   37.9720 F   0  0  0  0  0  0  0  0  0  0  0  0
   38.2920   28.2680   38.4220 C   0  0  0  0  0  0  0  0  0  0  0  0
   38.6400   28.3900   39.4730 H   0  0  0  0  0  0  0  0  0  0  0  0
   39.2090   28.0840   37.8150 H   0  0  0  0  0  0  0  0  0  0  0  0
   37.7040   29.5470   37.9920 C   0  0  0  0  0  0  0  0  0  0  0  0
   37.1140   30.1520   38.6150 H   0  0  0  0  0  0  0  0  0  0  0  0
   37.0120   29.2640   37.1300 H   0  0  0  0  0  0  0  0  0  0  0  0
   39.2020   31.5510   37.7070 C   0  0  0  0  0  0  0  0  0  0  0  0
   38.7220   32.0220   38.8010 O   0  0  0  0  0  0  0  0  0  0  0  0
   38.7670   30.2760   37.2410 N   0  0  0  0  0  0  0  0  0  0  0  0
   39.2600   29.9500   36.3670 H   0  0  0  0  0  0  0  0  0  0  0  0
   40.1440   32.3280   37.0170 N   0  0  0  0  0  0  0  0  0  0  0  0
   40.0410   32.4280   35.9730 H   0  0  0  0  0  0  0  0  0  0  0  0
   41.4580   33.1140   37.8410 S   0  0  0  0  0  0  0  0  0  0  0  0
   42.4090   32.1190   38.4330 O   0  0  0  0  0  1  0  0  0  0  0  0
   40.9790   34.1170   38.8410 O   0  0  0  0  0  1  0  0  0  0  0  0
   42.3190   33.9740   36.6630 O   0  0  0  0  0  0  0  0  0  0  0  0
   41.8090   34.8000   36.4100 H   0  0  0  0  0  0  0  0  0  0  0  0
  1  6  2  0  0  0  0
  1  2  1  0  0  0  0
  2 31  1  0  0  0  0
  2  3  2  0  0  0  0
  3  8  1  0  0  0  0
  4  3  1  0  0  0  0
  5 27  1  0  0  0  0
  5  4  2  0  0  0  0
  6  5  1  0  0  0  0
  7  1  1  0  0  0  0
  8  9  2  0  0  0  0
  8 17  1  0  0  0  0
  9 10  1  0  0  0  0
 10 19  1  0  0  0  0
 10 11  2  0  0  0  0
 11 20  1  0  0  0  0
 12 11  1  0  0  0  0
 12 13  1  0  0  0  0
 13 21  1  0  0  0  0
 14 13  2  0  0  0  0
 14 22  1  0  0  0  0
 15 14  1  0  0  0  0
 16 17  1  0  0  0  0
 16 15  2  0  0  0  0
 17 12  2  0  0  0  0
 18  9  1  0  0  0  0
 23 15  1  0  0  0  0
 24 16  1  0  0  0  0
 25 24  1  0  0  0  0
 26 24  1  0  0  0  0
 27 29  1  0  0  0  0
 28 27  1  0  0  0  0
 30 27  1  0  0  0  0
 31 32  1  0  0  0  0
 33 31  1  0  0  0  0
 34 31  1  0  0  0  0
 34 35  1  0  0  0  0
 36 34  1  0  0  0  0
 37 38  2  0  0  0  0
 39 37  1  0  0  0  0
 39 34  1  0  0  0  0
 40 39  1  0  0  0  0
 41 37  1  0  0  0  0
 41 43  1  0  0  0  0
 42 41  1  0  0  0  0
 43 44  1  0  0  0  0
 43 45  1  0  0  0  0
 46 43  1  0  0  0  0
 47 46  1  0  0  0  0
M  END
>  <minimizedAffinity>
-6.78617573

$$$$

 OpenBabel03252500073D

 47 49  0  0  0  0  0  0  0  0999 V2000
   37.2800   30.5660   41.5750 C   0  0  0  0  0  0  0  0  0  0  0  0
   37.0370   30.4490   40.2090 C   0  0  0  0  0  0  0  0  0  0  0  0
   36.7930   29.1880   39.6660 C   0  0  0  0  0  0  0  0  0  0  0  0
   36.8230   28.1780   40.5650 N   0  0  0  0  0  0  0  0  0  0  0  0
   37.0520   28.2940   41.8500 C   0  0  0  0  0  0  0  0  0  0  0  0
   37.2790   29.4930   42.3390 N   0  0  0  0  0  0  0  0  0  0  0  0
   37.4660   31.5540   41.9700 H   0  0  0  0  0  0  0  0  0  0  0  0
   36.5290   28.9030   38.3010 C   0  0  0  0  0  0  0  0  0  0  0  0
   37.6360   28.6830   37.4860 C   0  0  0  0  0  0  0  0  0  0  0  0
   37.5720   28.3940   36.1390 C   0  0  0  0  0  0  0  0  0  0  0  0
   36.3750   28.3070   35.5230 C   0  0  0  0  0  0  0  0  0  0  0  0
   35.2330   28.5140   36.2690 C   0  0  0  0  0  0  0  0  0  0  0  0
   33.9960   28.4430   35.7120 C   0  0  0  0  0  0  0  0  0  0  0  0
   32.8360   28.6450   36.4270 C   0  0  0  0  0  0  0  0  0  0  0  0
   32.9670   28.9340   37.7900 C   0  0  0  0  0  0  0  0  0  0  0  0
   34.2510   28.9960   38.3110 C   0  0  0  0  0  0  0  0  0  0  0  0
   35.3650   28.8010   37.6170 C   0  0  0  0  0  0  0  0  0  0  0  0
   38.6640   28.7290   37.8840 H   0  0  0  0  0  0  0  0  0  0  0  0
   38.4600   28.2300   35.5450 H   0  0  0  0  0  0  0  0  0  0  0  0
   36.2870   28.0830   34.4700 H   0  0  0  0  0  0  0  0  0  0  0  0
   33.9140   28.2160   34.6490 H   0  0  0  0  0  0  0  0  0  0  0  0
   31.8730   28.5770   35.9390 H   0  0  0  0  0  0  0  0  0  0  0  0
   32.0460   29.0810   38.2950 H   0  0  0  0  0  0  0  0  0  0  0  0
   34.1800   29.3190   39.7090 N   0  0  0  0  0  0  0  0  0  0  0  0
   34.0100   28.7500   40.5660 H   0  0  0  0  0  0  0  0  0  0  0  0
   34.2710   30.2080   40.2420 H   0  0  0  0  0  0  0  0  0  0  0  0
   37.0210   26.9990   42.6090 C   0  0  0  0  0  0  0  0  0  0  0  0
   36.0790   27.0230   43.6060 F   0  0  0  0  0  0  0  0  0  0  0  0
   38.2540   26.7050   43.1240 F   0  0  0  0  0  0  0  0  0  0  0  0
   36.7620   25.9470   41.7040 F   0  0  0  0  0  0  0  0  0  0  0  0
   37.0090   31.5620   39.2680 C   0  0  0  0  0  0  0  0  0  0  0  0
   36.7870   31.1650   38.2510 H   0  0  0  0  0  0  0  0  0  0  0  0
   36.1590   32.2340   39.5270 H   0  0  0  0  0  0  0  0  0  0  0  0
   38.2300   32.3790   39.1740 C   0  0  0  0  0  0  0  0  0  0  0  0
   38.7760   32.7030   40.0100 H   0  0  0  0  0  0  0  0  0  0  0  0
   37.8870   33.3410   38.6660 H   0  0  0  0  0  0  0  0  0  0  0  0
   40.3500   32.3270   37.8170 C   0  0  0  0  0  0  0  0  0  0  0  0
   40.8120   33.2630   38.5670 O   0  0  0  0  0  0  0  0  0  0  0  0
   39.0560   31.7910   38.0800 N   0  0  0  0  0  0  0  0  0  0  0  0
   38.7900   30.9890   37.4480 H   0  0  0  0  0  0  0  0  0  0  0  0
   41.1560   31.8760   36.7610 N   0  0  0  0  0  0  0  0  0  0  0  0
   40.7100   31.7360   35.8170 H   0  0  0  0  0  0  0  0  0  0  0  0
   42.8500   31.5500   36.9820 S   0  0  0  0  0  0  0  0  0  0  0  0
   43.4140   30.7760   35.8290 O   0  0  0  0  0  1  0  0  0  0  0  0
   43.1350   30.9060   38.3010 O   0  0  0  0  0  1  0  0  0  0  0  0
   43.6320   33.0520   36.9930 O   0  0  0  0  0  0  0  0  0  0  0  0
   43.4700   33.5080   37.8720 H   0  0  0  0  0  0  0  0  0  0  0  0
  1  7  1  0  0  0  0
  1  6  1  0  0  0  0
  2  1  2  0  0  0  0
  3  2  1  0  0  0  0
  3  4  2  0  0  0  0
  4  5  1  0  0  0  0
  5  6  2  0  0  0  0
  5 27  1  0  0  0  0
  8  3  1  0  0  0  0
  9 18  1  0  0  0  0
  9  8  2  0  0  0  0
 10  9  1  0  0  0  0
 11 10  2  0  0  0  0
 11 12  1  0  0  0  0
 12 17  1  0  0  0  0
 13 12  2  0  0  0  0
 13 14  1  0  0  0  0
 14 15  2  0  0  0  0
 15 23  1  0  0  0  0
 15 16  1  0  0  0  0
 16 24  1  0  0  0  0
 17  8  1  0  0  0  0
 17 16  2  0  0  0  0
 19 10  1  0  0  0  0
 20 11  1  0  0  0  0
 21 13  1  0  0  0  0
 22 14  1  0  0  0  0
 24 26  1  0  0  0  0
 24 25  1  0  0  0  0
 27 29  1  0  0  0  0
 27 28  1  0  0  0  0
 30 27  1  0  0  0  0
 31 33  1  0  0  0  0
 31  2  1  0  0  0  0
 32 31  1  0  0  0  0
 34 31  1  0  0  0  0
 34 35  1  0  0  0  0
 36 34  1  0  0  0  0
 37 39  1  0  0  0  0
 37 38  2  0  0  0  0
 39 34  1  0  0  0  0
 40 39  1  0  0  0  0
 41 43  1  0  0  0  0
 41 37  1  0  0  0  0
 42 41  1  0  0  0  0
 43 46  1  0  0  0  0
 43 45  1  0  0  0  0
 44 43  1  0  0  0  0
 46 47  1  0  0  0  0
M  END
>  <minimizedAffinity>
-6.71378231

$$$$

 OpenBabel03252500073D

 47 49  0  0  0  0  0  0  0  0999 V2000
   37.0440   29.8020   37.2490 C   0  0  0  0  0  0  0  0  0  0  0  0
   37.4280   29.2220   38.4550 C   0  0  0  0  0  0  0  0  0  0  0  0
   36.4820   28.5280   39.2080 C   0  0  0  0  0  0  0  0  0  0  0  0
   35.2460   28.4960   38.6600 N   0  0  0  0  0  0  0  0  0  0  0  0
   34.8910   29.0430   37.5240 C   0  0  0  0  0  0  0  0  0  0  0  0
   35.8000   29.6910   36.8310 N   0  0  0  0  0  0  0  0  0  0  0  0
   37.7960   30.3340   36.6840 H   0  0  0  0  0  0  0  0  0  0  0  0
   36.7130   27.8840   40.4520 C   0  0  0  0  0  0  0  0  0  0  0  0
   36.6940   28.6930   41.5850 C   0  0  0  0  0  0  0  0  0  0  0  0
   36.8980   28.2430   42.8720 C   0  0  0  0  0  0  0  0  0  0  0  0
   37.1360   26.9350   43.1010 C   0  0  0  0  0  0  0  0  0  0  0  0
   37.1700   26.0730   42.0240 C   0  0  0  0  0  0  0  0  0  0  0  0
   37.4060   24.7450   42.1830 C   0  0  0  0  0  0  0  0  0  0  0  0
   37.4470   23.8570   41.1310 C   0  0  0  0  0  0  0  0  0  0  0  0
   37.2320   24.3750   39.8480 C   0  0  0  0  0  0  0  0  0  0  0  0
   36.9960   25.7370   39.7390 C   0  0  0  0  0  0  0  0  0  0  0  0
   36.9580   26.5880   40.7560 C   0  0  0  0  0  0  0  0  0  0  0  0
   36.5090   29.7780   41.5160 H   0  0  0  0  0  0  0  0  0  0  0  0
   36.8740   28.9100   43.7230 H   0  0  0  0  0  0  0  0  0  0  0  0
   37.3010   26.5480   44.0960 H   0  0  0  0  0  0  0  0  0  0  0  0
   37.5700   24.3600   43.1890 H   0  0  0  0  0  0  0  0  0  0  0  0
   37.6370   22.8070   41.3070 H   0  0  0  0  0  0  0  0  0  0  0  0
   37.2740   23.6510   39.0740 H   0  0  0  0  0  0  0  0  0  0  0  0
   36.8180   26.0770   38.3550 N   0  0  0  0  0  0  0  0  0  0  0  0
   36.0040   26.0260   37.7050 H   0  0  0  0  0  0  0  0  0  0  0  0
   37.4550   26.4600   37.6250 H   0  0  0  0  0  0  0  0  0  0  0  0
   33.4480   28.8430   37.1590 C   0  0  0  0  0  0  0  0  0  0  0  0
   32.6110   29.3010   38.1450 F   0  0  0  0  0  0  0  0  0  0  0  0
   33.1910   27.5260   36.8890 F   0  0  0  0  0  0  0  0  0  0  0  0
   33.1910   29.5060   35.9400 F   0  0  0  0  0  0  0  0  0  0  0  0
   38.7720   29.2750   39.0160 C   0  0  0  0  0  0  0  0  0  0  0  0
   38.8390   28.5460   39.8550 H   0  0  0  0  0  0  0  0  0  0  0  0
   39.4990   28.9230   38.2470 H   0  0  0  0  0  0  0  0  0  0  0  0
   39.2290   30.5810   39.5180 C   0  0  0  0  0  0  0  0  0  0  0  0
   38.9420   30.9770   40.4480 H   0  0  0  0  0  0  0  0  0  0  0  0
   38.8340   31.3300   38.7540 H   0  0  0  0  0  0  0  0  0  0  0  0
   41.1640   31.6360   38.3010 C   0  0  0  0  0  0  0  0  0  0  0  0
   40.3360   32.4680   37.7780 O   0  0  0  0  0  0  0  0  0  0  0  0
   40.6900   30.6640   39.2290 N   0  0  0  0  0  0  0  0  0  0  0  0
   41.4520   30.0660   39.6460 H   0  0  0  0  0  0  0  0  0  0  0  0
   42.5120   31.7290   37.9240 N   0  0  0  0  0  0  0  0  0  0  0  0
   43.0270   30.8400   37.6920 H   0  0  0  0  0  0  0  0  0  0  0  0
   43.3310   33.2600   37.8360 S   0  0  0  0  0  0  0  0  0  0  0  0
   44.7510   33.0970   37.3860 O   0  0  0  0  0  1  0  0  0  0  0  0
   43.2170   34.0370   39.1080 O   0  0  0  0  0  1  0  0  0  0  0  0
   42.5390   34.1610   36.6410 O   0  0  0  0  0  0  0  0  0  0  0  0
   41.6650   34.5010   37.0010 H   0  0  0  0  0  0  0  0  0  0  0  0
  1  2  1  0  0  0  0
  2 31  1  0  0  0  0
  2  3  2  0  0  0  0
  3  8  1  0  0  0  0
  4  3  1  0  0  0  0
  5  4  2  0  0  0  0
  6  1  2  0  0  0  0
  6  5  1  0  0  0  0
  7  1  1  0  0  0  0
  8 17  2  0  0  0  0
  8  9  1  0  0  0  0
  9 10  2  0  0  0  0
 10 11  1  0  0  0  0
 10 19  1  0  0  0  0
 11 20  1  0  0  0  0
 12 13  1  0  0  0  0
 12 11  2  0  0  0  0
 13 21  1  0  0  0  0
 14 22  1  0  0  0  0
 14 13  2  0  0  0  0
 15 14  1  0  0  0  0
 16 15  2  0  0  0  0
 16 17  1  0  0  0  0
 17 12  1  0  0  0  0
 18  9  1  0  0  0  0
 23 15  1  0  0  0  0
 24 16  1  0  0  0  0
 25 24  1  0  0  0  0
 26 24  1  0  0  0  0
 27  5  1  0  0  0  0
 27 28  1  0  0  0  0
 29 27  1  0  0  0  0
 30 27  1  0  0  0  0
 31 34  1  0  0  0  0
 31 32  1  0  0  0  0
 33 31  1  0  0  0  0
 34 35  1  0  0  0  0
 36 34  1  0  0  0  0
 37 39  1  0  0  0  0
 38 37  2  0  0  0  0
 39 34  1  0  0  0  0
 39 40  1  0  0  0  0
 41 37  1  0  0  0  0
 42 41  1  0  0  0  0
 43 41  1  0  0  0  0
 43 45  1  0  0  0  0
 44 43  1  0  0  0  0
 46 47  1  0  0  0  0
 46 43  1  0  0  0  0
M  END
>  <minimizedAffinity>
-6.5695281

$$$$

 OpenBabel03252500073D

 47 49  0  0  0  0  0  0  0  0999 V2000
   38.2130   30.5130   41.6530 C   0  0  0  0  0  0  0  0  0  0  0  0
   37.3310   30.5010   40.5760 C   0  0  0  0  0  0  0  0  0  0  0  0
   36.7520   29.2950   40.1840 C   0  0  0  0  0  0  0  0  0  0  0  0
   37.1290   28.2280   40.9240 N   0  0  0  0  0  0  0  0  0  0  0  0
   37.9600   28.2450   41.9370 C   0  0  0  0  0  0  0  0  0  0  0  0
   38.4930   29.3940   42.2890 N   0  0  0  0  0  0  0  0  0  0  0  0
   38.6480   31.4610   41.9370 H   0  0  0  0  0  0  0  0  0  0  0  0
   35.8380   29.1160   39.1120 C   0  0  0  0  0  0  0  0  0  0  0  0
   34.4860   29.2400   39.4200 C   0  0  0  0  0  0  0  0  0  0  0  0
   33.4600   29.0980   38.5100 C   0  0  0  0  0  0  0  0  0  0  0  0
   33.7350   28.8220   37.2190 C   0  0  0  0  0  0  0  0  0  0  0  0
   35.0550   28.6860   36.8410 C   0  0  0  0  0  0  0  0  0  0  0  0
   35.4020   28.4070   35.5580 C   0  0  0  0  0  0  0  0  0  0  0  0
   36.7090   28.2640   35.1460 C   0  0  0  0  0  0  0  0  0  0  0  0
   37.7060   28.4190   36.1160 C   0  0  0  0  0  0  0  0  0  0  0  0
   37.2990   28.7030   37.4120 C   0  0  0  0  0  0  0  0  0  0  0  0
   36.0390   28.8390   37.8020 C   0  0  0  0  0  0  0  0  0  0  0  0
   34.1460   29.4640   40.4450 H   0  0  0  0  0  0  0  0  0  0  0  0
   32.4220   29.2030   38.7950 H   0  0  0  0  0  0  0  0  0  0  0  0
   32.9570   28.7050   36.4790 H   0  0  0  0  0  0  0  0  0  0  0  0
   34.6120   28.2910   34.8150 H   0  0  0  0  0  0  0  0  0  0  0  0
   36.9380   28.0430   34.1120 H   0  0  0  0  0  0  0  0  0  0  0  0
   38.6940   28.2990   35.7490 H   0  0  0  0  0  0  0  0  0  0  0  0
   38.4560   28.8070   38.2580 N   0  0  0  0  0  0  0  0  0  0  0  0
   39.1330   29.5760   38.4520 H   0  0  0  0  0  0  0  0  0  0  0  0
   38.9330   28.1420   38.9010 H   0  0  0  0  0  0  0  0  0  0  0  0
   38.1930   26.9060   42.5760 C   0  0  0  0  0  0  0  0  0  0  0  0
   39.0020   27.0090   43.6790 F   0  0  0  0  0  0  0  0  0  0  0  0
   38.7220   26.0210   41.6770 F   0  0  0  0  0  0  0  0  0  0  0  0
   36.9450   26.3450   42.9230 F   0  0  0  0  0  0  0  0  0  0  0  0
   36.9440   31.6730   39.8010 C   0  0  0  0  0  0  0  0  0  0  0  0
   36.5570   31.3370   38.8130 H   0  0  0  0  0  0  0  0  0  0  0  0
   36.0890   32.1760   40.3100 H   0  0  0  0  0  0  0  0  0  0  0  0
   37.9900   32.6790   39.5560 C   0  0  0  0  0  0  0  0  0  0  0  0
   38.6390   33.0340   40.3010 H   0  0  0  0  0  0  0  0  0  0  0  0
   37.4170   33.6030   39.2110 H   0  0  0  0  0  0  0  0  0  0  0  0
   40.0500   31.9910   38.2810 C   0  0  0  0  0  0  0  0  0  0  0  0
   40.6930   31.9820   39.3940 O   0  0  0  0  0  0  0  0  0  0  0  0
   38.6580   32.2980   38.2780 N   0  0  0  0  0  0  0  0  0  0  0  0
   38.2080   32.2220   37.3260 H   0  0  0  0  0  0  0  0  0  0  0  0
   40.7630   31.6940   37.1100 N   0  0  0  0  0  0  0  0  0  0  0  0
   40.6100   32.3030   36.2650 H   0  0  0  0  0  0  0  0  0  0  0  0
   41.8770   30.3610   37.0330 S   0  0  0  0  0  0  0  0  0  0  0  0
   42.8740   30.5410   35.9290 O   0  0  0  0  0  1  0  0  0  0  0  0
   41.1760   29.0410   36.9640 O   0  0  0  0  0  1  0  0  0  0  0  0
   42.7460   30.3750   38.4860 O   0  0  0  0  0  0  0  0  0  0  0  0
   42.1680   30.0210   39.2270 H   0  0  0  0  0  0  0  0  0  0  0  0
  1  7  1  0  0  0  0
  1  6  1  0  0  0  0
  2  1  2  0  0  0  0
  3  2  1  0  0  0  0
  3  4  2  0  0  0  0
  4  5  1  0  0  0  0
  5  6  2  0  0  0  0
  5 27  1  0  0  0  0
  8  9  1  0  0  0  0
  8  3  1  0  0  0  0
  9 18  1  0  0  0  0
 10 19  1  0  0  0  0
 10  9  2  0  0  0  0
 11 10  1  0  0  0  0
 12 11  2  0  0  0  0
 12 17  1  0  0  0  0
 13 12  1  0  0  0  0
 14 13  2  0  0  0  0
 14 15  1  0  0  0  0
 15 16  2  0  0  0  0
 16 17  1  0  0  0  0
 16 24  1  0  0  0  0
 17  8  2  0  0  0  0
 20 11  1  0  0  0  0
 21 13  1  0  0  0  0
 22 14  1  0  0  0  0
 23 15  1  0  0  0  0
 24 25  1  0  0  0  0
 24 26  1  0  0  0  0
 27 30  1  0  0  0  0
 27 28  1  0  0  0  0
 29 27  1  0  0  0  0
 31 33  1  0  0  0  0
 31  2  1  0  0  0  0
 32 31  1  0  0  0  0
 34 31  1  0  0  0  0
 34 35  1  0  0  0  0
 36 34  1  0  0  0  0
 37 38  2  0  0  0  0
 39 37  1  0  0  0  0
 39 34  1  0  0  0  0
 40 39  1  0  0  0  0
 41 37  1  0  0  0  0
 42 41  1  0  0  0  0
 43 41  1  0  0  0  0
 43 46  1  0  0  0  0
 44 43  1  0  0  0  0
 45 43  1  0  0  0  0
 46 47  1  0  0  0  0
M  END
>  <minimizedAffinity>
-6.21654844

$$$$

 OpenBabel03252500073D

 47 49  0  0  0  0  0  0  0  0999 V2000
   35.3020   28.6800   38.5010 C   0  0  0  0  0  0  0  0  0  0  0  0
   36.0680   29.5930   39.2210 C   0  0  0  0  0  0  0  0  0  0  0  0
   36.8850   30.4890   38.5340 C   0  0  0  0  0  0  0  0  0  0  0  0
   36.8410   30.3650   37.1870 N   0  0  0  0  0  0  0  0  0  0  0  0
   36.1190   29.5040   36.5150 C   0  0  0  0  0  0  0  0  0  0  0  0
   35.3550   28.6690   37.1850 N   0  0  0  0  0  0  0  0  0  0  0  0
   34.6780   27.9960   39.0570 H   0  0  0  0  0  0  0  0  0  0  0  0
   37.7210   31.4760   39.1190 C   0  0  0  0  0  0  0  0  0  0  0  0
   37.1400   32.7150   39.3710 C   0  0  0  0  0  0  0  0  0  0  0  0
   37.7970   33.7890   39.9330 C   0  0  0  0  0  0  0  0  0  0  0  0
   39.0960   33.6800   40.2800 C   0  0  0  0  0  0  0  0  0  0  0  0
   39.7380   32.4790   40.0590 C   0  0  0  0  0  0  0  0  0  0  0  0
   41.0450   32.3010   40.3840 C   0  0  0  0  0  0  0  0  0  0  0  0
   41.7170   31.1160   40.1770 C   0  0  0  0  0  0  0  0  0  0  0  0
   40.9960   30.0630   39.6030 C   0  0  0  0  0  0  0  0  0  0  0  0
   39.6650   30.2960   39.2900 C   0  0  0  0  0  0  0  0  0  0  0  0
   39.0230   31.4390   39.4910 C   0  0  0  0  0  0  0  0  0  0  0  0
   36.0830   32.9160   39.1270 H   0  0  0  0  0  0  0  0  0  0  0  0
   37.3030   34.7350   40.1100 H   0  0  0  0  0  0  0  0  0  0  0  0
   39.6420   34.5000   40.7220 H   0  0  0  0  0  0  0  0  0  0  0  0
   41.5910   33.1320   40.8300 H   0  0  0  0  0  0  0  0  0  0  0  0
   42.7590   31.0210   40.4530 H   0  0  0  0  0  0  0  0  0  0  0  0
   41.5580   29.1750   39.4640 H   0  0  0  0  0  0  0  0  0  0  0  0
   39.1040   29.1110   38.7000 N   0  0  0  0  0  0  0  0  0  0  0  0
   38.7110   28.2320   39.0980 H   0  0  0  0  0  0  0  0  0  0  0  0
   38.9450   28.8100   37.7160 H   0  0  0  0  0  0  0  0  0  0  0  0
   36.2660   29.5960   35.0230 C   0  0  0  0  0  0  0  0  0  0  0  0
   36.5640   30.8740   34.6250 F   0  0  0  0  0  0  0  0  0  0  0  0
   35.1350   29.1510   34.3920 F   0  0  0  0  0  0  0  0  0  0  0  0
   37.2720   28.6960   34.6090 F   0  0  0  0  0  0  0  0  0  0  0  0
   36.0890   29.7010   40.6740 C   0  0  0  0  0  0  0  0  0  0  0  0
   36.9720   30.3090   40.9760 H   0  0  0  0  0  0  0  0  0  0  0  0
   35.1930   30.2750   41.0070 H   0  0  0  0  0  0  0  0  0  0  0  0
   36.1350   28.4390   41.4310 C   0  0  0  0  0  0  0  0  0  0  0  0
   35.5600   27.5950   41.1860 H   0  0  0  0  0  0  0  0  0  0  0  0
   35.7880   28.7260   42.4790 H   0  0  0  0  0  0  0  0  0  0  0  0
   37.9430   26.9000   42.2700 C   0  0  0  0  0  0  0  0  0  0  0  0
   37.0400   26.0080   42.4730 O   0  0  0  0  0  0  0  0  0  0  0  0
   37.5730   28.1560   41.7040 N   0  0  0  0  0  0  0  0  0  0  0  0
   38.3910   28.7980   41.5220 H   0  0  0  0  0  0  0  0  0  0  0  0
   39.2640   26.5870   42.6210 N   0  0  0  0  0  0  0  0  0  0  0  0
   39.8260   27.3100   43.1430 H   0  0  0  0  0  0  0  0  0  0  0  0
   39.9770   25.0540   42.2160 S   0  0  0  0  0  0  0  0  0  0  0  0
   41.3890   24.9580   42.7100 O   0  0  0  0  0  1  0  0  0  0  0  0
   39.8550   24.7410   40.7590 O   0  0  0  0  0  1  0  0  0  0  0  0
   39.0870   23.8760   43.0440 O   0  0  0  0  0  0  0  0  0  0  0  0
   38.2060   23.7360   42.5850 H   0  0  0  0  0  0  0  0  0  0  0  0
  1  7  1  0  0  0  0
  1  2  1  0  0  0  0
  2 31  1  0  0  0  0
  3  8  1  0  0  0  0
  3  2  2  0  0  0  0
  4  3  1  0  0  0  0
  5  6  1  0  0  0  0
  5  4  2  0  0  0  0
  6  1  2  0  0  0  0
  8  9  2  0  0  0  0
  8 17  1  0  0  0  0
  9 10  1  0  0  0  0
 10 19  1  0  0  0  0
 10 11  2  0  0  0  0
 11 20  1  0  0  0  0
 12 11  1  0  0  0  0
 12 13  1  0  0  0  0
 13 21  1  0  0  0  0
 14 13  2  0  0  0  0
 14 22  1  0  0  0  0
 15 14  1  0  0  0  0
 16 17  1  0  0  0  0
 16 15  2  0  0  0  0
 17 12  2  0  0  0  0
 18  9  1  0  0  0  0
 23 15  1  0  0  0  0
 24 25  1  0  0  0  0
 24 16  1  0  0  0  0
 26 24  1  0  0  0  0
 27  5  1  0  0  0  0
 28 27  1  0  0  0  0
 29 27  1  0  0  0  0
 30 27  1  0  0  0  0
 31 32  1  0  0  0  0
 31 33  1  0  0  0  0
 31 34  1  0  0  0  0
 34 39  1  0  0  0  0
 34 36  1  0  0  0  0
 35 34  1  0  0  0  0
 37 38  2  0  0  0  0
 37 41  1  0  0  0  0
 39 37  1  0  0  0  0
 40 39  1  0  0  0  0
 41 42  1  0  0  0  0
 43 41  1  0  0  0  0
 43 44  1  0  0  0  0
 43 46  1  0  0  0  0
 45 43  1  0  0  0  0
 47 46  1  0  0  0  0
M  END
>  <minimizedAffinity>
-6.17465734

$$$$

 OpenBabel03252500073D

 47 49  0  0  0  0  0  0  0  0999 V2000
   38.8200   30.3600   37.7350 C   0  0  0  0  0  0  0  0  0  0  0  0
   38.5910   29.3250   38.6370 C   0  0  0  0  0  0  0  0  0  0  0  0
   38.4500   29.6210   39.9920 C   0  0  0  0  0  0  0  0  0  0  0  0
   38.5590   30.9360   40.2900 N   0  0  0  0  0  0  0  0  0  0  0  0
   38.7750   31.9060   39.4360 C   0  0  0  0  0  0  0  0  0  0  0  0
   38.9030   31.6020   38.1640 N   0  0  0  0  0  0  0  0  0  0  0  0
   38.9250   30.1030   36.6900 H   0  0  0  0  0  0  0  0  0  0  0  0
   38.2140   28.6850   41.0330 C   0  0  0  0  0  0  0  0  0  0  0  0
   36.8910   28.3030   41.2380 C   0  0  0  0  0  0  0  0  0  0  0  0
   36.4750   27.4080   42.2000 C   0  0  0  0  0  0  0  0  0  0  0  0
   37.3750   26.8330   43.0230 C   0  0  0  0  0  0  0  0  0  0  0  0
   38.7070   27.1650   42.8780 C   0  0  0  0  0  0  0  0  0  0  0  0
   39.6650   26.6240   43.6740 C   0  0  0  0  0  0  0  0  0  0  0  0
   41.0030   26.9330   43.5560 C   0  0  0  0  0  0  0  0  0  0  0  0
   41.3630   27.8490   42.5610 C   0  0  0  0  0  0  0  0  0  0  0  0
   40.3470   28.3720   41.7740 C   0  0  0  0  0  0  0  0  0  0  0  0
   39.0600   28.0710   41.8930 C   0  0  0  0  0  0  0  0  0  0  0  0
   36.0710   28.7110   40.6220 H   0  0  0  0  0  0  0  0  0  0  0  0
   35.4340   27.1410   42.3230 H   0  0  0  0  0  0  0  0  0  0  0  0
   37.0850   26.1280   43.7880 H   0  0  0  0  0  0  0  0  0  0  0  0
   39.3670   25.9120   44.4430 H   0  0  0  0  0  0  0  0  0  0  0  0
   41.7310   26.4760   44.2130 H   0  0  0  0  0  0  0  0  0  0  0  0
   42.4030   28.0520   42.5110 H   0  0  0  0  0  0  0  0  0  0  0  0
   40.9080   29.2980   40.8300 N   0  0  0  0  0  0  0  0  0  0  0  0
   41.3740   29.1810   39.9050 H   0  0  0  0  0  0  0  0  0  0  0  0
   41.0080   30.3340   40.8180 H   0  0  0  0  0  0  0  0  0  0  0  0
   38.8450   33.2750   40.0510 C   0  0  0  0  0  0  0  0  0  0  0  0
   38.6830   33.2240   41.4120 F   0  0  0  0  0  0  0  0  0  0  0  0
   37.9170   34.1100   39.4900 F   0  0  0  0  0  0  0  0  0  0  0  0
   40.0860   33.8600   39.7180 F   0  0  0  0  0  0  0  0  0  0  0  0
   38.4760   27.9160   38.2800 C   0  0  0  0  0  0  0  0  0  0  0  0
   39.4120   27.6010   37.7650 H   0  0  0  0  0  0  0  0  0  0  0  0
   38.4220   27.3100   39.2140 H   0  0  0  0  0  0  0  0  0  0  0  0
   37.3420   27.5420   37.4200 C   0  0  0  0  0  0  0  0  0  0  0  0
   36.3380   27.6160   37.7190 H   0  0  0  0  0  0  0  0  0  0  0  0
   37.4980   26.4300   37.2160 H   0  0  0  0  0  0  0  0  0  0  0  0
   36.6650   28.9300   35.4310 C   0  0  0  0  0  0  0  0  0  0  0  0
   35.5910   29.2470   36.0620 O   0  0  0  0  0  0  0  0  0  0  0  0
   37.6310   28.0950   36.0660 N   0  0  0  0  0  0  0  0  0  0  0  0
   38.5020   27.9400   35.4910 H   0  0  0  0  0  0  0  0  0  0  0  0
   36.8330   29.4290   34.1310 N   0  0  0  0  0  0  0  0  0  0  0  0
   37.1720   28.7700   33.3830 H   0  0  0  0  0  0  0  0  0  0  0  0
   36.4960   31.0900   33.7410 S   0  0  0  0  0  0  0  0  0  0  0  0
   37.0970   32.0230   34.7480 O   0  0  0  0  0  1  0  0  0  0  0  0
   35.0360   31.3370   33.5280 O   0  0  0  0  0  1  0  0  0  0  0  0
   37.2640   31.4020   32.2650 O   0  0  0  0  0  0  0  0  0  0  0  0
   36.7390   30.9830   31.5180 H   0  0  0  0  0  0  0  0  0  0  0  0
  1  6  2  0  0  0  0
  1  2  1  0  0  0  0
  2  3  2  0  0  0  0
  3  4  1  0  0  0  0
  3  8  1  0  0  0  0
  5 27  1  0  0  0  0
  5  4  2  0  0  0  0
  6  5  1  0  0  0  0
  7  1  1  0  0  0  0
  8  9  2  0  0  0  0
  8 17  1  0  0  0  0
  9 10  1  0  0  0  0
 10 19  1  0  0  0  0
 10 11  2  0  0  0  0
 11 20  1  0  0  0  0
 12 11  1  0  0  0  0
 12 13  1  0  0  0  0
 13 21  1  0  0  0  0
 14 13  2  0  0  0  0
 14 22  1  0  0  0  0
 15 14  1  0  0  0  0
 16 17  1  0  0  0  0
 16 15  2  0  0  0  0
 17 12  2  0  0  0  0
 18  9  1  0  0  0  0
 23 15  1  0  0  0  0
 24 16  1  0  0  0  0
 25 24  1  0  0  0  0
 26 24  1  0  0  0  0
 27 28  1  0  0  0  0
 29 27  1  0  0  0  0
 30 27  1  0  0  0  0
 31  2  1  0  0  0  0
 31 33  1  0  0  0  0
 32 31  1  0  0  0  0
 34 35  1  0  0  0  0
 34 31  1  0  0  0  0
 36 34  1  0  0  0  0
 37 38  2  0  0  0  0
 37 39  1  0  0  0  0
 39 34  1  0  0  0  0
 40 39  1  0  0  0  0
 41 37  1  0  0  0  0
 42 41  1  0  0  0  0
 43 41  1  0  0  0  0
 43 44  1  0  0  0  0
 45 43  1  0  0  0  0
 46 43  1  0  0  0  0
 47 46  1  0  0  0  0
M  END
>  <minimizedAffinity>
-6.17223883

$$$$

 OpenBabel03252500073D

 47 49  0  0  0  0  0  0  0  0999 V2000
   36.9970   28.6510   36.6470 C   0  0  0  0  0  0  0  0  0  0  0  0
   37.3960   27.9710   37.7940 C   0  0  0  0  0  0  0  0  0  0  0  0
   36.4340   27.5810   38.7240 C   0  0  0  0  0  0  0  0  0  0  0  0
   35.1670   27.9220   38.3930 N   0  0  0  0  0  0  0  0  0  0  0  0
   34.7970   28.5620   37.3120 C   0  0  0  0  0  0  0  0  0  0  0  0
   35.7220   28.9190   36.4500 N   0  0  0  0  0  0  0  0  0  0  0  0
   37.7620   28.9430   35.9420 H   0  0  0  0  0  0  0  0  0  0  0  0
   36.6780   26.8840   39.9360 C   0  0  0  0  0  0  0  0  0  0  0  0
   36.6520   25.4930   39.8710 C   0  0  0  0  0  0  0  0  0  0  0  0
   36.8650   24.6550   40.9460 C   0  0  0  0  0  0  0  0  0  0  0  0
   37.1220   25.1710   42.1640 C   0  0  0  0  0  0  0  0  0  0  0  0
   37.1630   26.5430   42.3040 C   0  0  0  0  0  0  0  0  0  0  0  0
   37.4150   27.1290   43.5040 C   0  0  0  0  0  0  0  0  0  0  0  0
   37.4630   28.4950   43.6780 C   0  0  0  0  0  0  0  0  0  0  0  0
   37.2380   29.2920   42.5510 C   0  0  0  0  0  0  0  0  0  0  0  0
   36.9850   28.6460   41.3500 C   0  0  0  0  0  0  0  0  0  0  0  0
   36.9400   27.3300   41.1870 C   0  0  0  0  0  0  0  0  0  0  0  0
   36.4510   24.9640   38.9250 H   0  0  0  0  0  0  0  0  0  0  0  0
   36.8350   23.5790   40.8470 H   0  0  0  0  0  0  0  0  0  0  0  0
   37.2940   24.5450   43.0280 H   0  0  0  0  0  0  0  0  0  0  0  0
   37.5890   26.4920   44.3710 H   0  0  0  0  0  0  0  0  0  0  0  0
   37.6690   28.9160   44.6540 H   0  0  0  0  0  0  0  0  0  0  0  0
   37.2860   30.3350   42.7380 H   0  0  0  0  0  0  0  0  0  0  0  0
   36.7650   29.6260   40.3220 N   0  0  0  0  0  0  0  0  0  0  0  0
   37.4050   30.1900   39.7230 H   0  0  0  0  0  0  0  0  0  0  0  0
   35.9070   30.0420   39.9040 H   0  0  0  0  0  0  0  0  0  0  0  0
   33.3190   28.8030   37.2050 C   0  0  0  0  0  0  0  0  0  0  0  0
   32.8040   29.3020   38.3740 F   0  0  0  0  0  0  0  0  0  0  0  0
   32.6620   27.6570   36.8450 F   0  0  0  0  0  0  0  0  0  0  0  0
   33.0790   29.6920   36.1350 F   0  0  0  0  0  0  0  0  0  0  0  0
   38.7720   27.6170   38.1170 C   0  0  0  0  0  0  0  0  0  0  0  0
   38.8840   27.5880   39.2250 H   0  0  0  0  0  0  0  0  0  0  0  0
   38.9720   26.5790   37.7620 H   0  0  0  0  0  0  0  0  0  0  0  0
   39.8250   28.4970   37.5830 C   0  0  0  0  0  0  0  0  0  0  0  0
   39.7980   28.9130   36.6190 H   0  0  0  0  0  0  0  0  0  0  0  0
   40.7630   27.8480   37.5880 H   0  0  0  0  0  0  0  0  0  0  0  0
   39.7520   30.8170   38.5590 C   0  0  0  0  0  0  0  0  0  0  0  0
   39.0260   31.1760   37.5600 O   0  0  0  0  0  0  0  0  0  0  0  0
   40.1710   29.4590   38.6690 N   0  0  0  0  0  0  0  0  0  0  0  0
   40.7120   29.2500   39.5500 H   0  0  0  0  0  0  0  0  0  0  0  0
   40.0980   31.7950   39.5020 N   0  0  0  0  0  0  0  0  0  0  0  0
   41.0960   31.8330   39.8380 H   0  0  0  0  0  0  0  0  0  0  0  0
   38.9290   32.9270   40.1150 S   0  0  0  0  0  0  0  0  0  0  0  0
   39.5890   34.1560   40.6610 O   0  0  0  0  0  1  0  0  0  0  0  0
   37.9910   32.2950   41.0940 O   0  0  0  0  0  1  0  0  0  0  0  0
   37.9940   33.4170   38.7920 O   0  0  0  0  0  0  0  0  0  0  0  0
   37.3520   32.6860   38.5440 H   0  0  0  0  0  0  0  0  0  0  0  0
  1  2  1  0  0  0  0
  2 31  1  0  0  0  0
  2  3  2  0  0  0  0
  3  8  1  0  0  0  0
  4  3  1  0  0  0  0
  5  4  2  0  0  0  0
  6  1  2  0  0  0  0
  6  5  1  0  0  0  0
  7  1  1  0  0  0  0
  8 17  1  0  0  0  0
  9  8  2  0  0  0  0
  9 10  1  0  0  0  0
 10 11  2  0  0  0  0
 11 12  1  0  0  0  0
 11 20  1  0  0  0  0
 12 13  1  0  0  0  0
 13 14  2  0  0  0  0
 13 21  1  0  0  0  0
 14 22  1  0  0  0  0
 15 23  1  0  0  0  0
 15 14  1  0  0  0  0
 16 15  2  0  0  0  0
 17 16  1  0  0  0  0
 17 12  2  0  0  0  0
 18  9  1  0  0  0  0
 19 10  1  0  0  0  0
 24 16  1  0  0  0  0
 25 24  1  0  0  0  0
 26 24  1  0  0  0  0
 27  5  1  0  0  0  0
 27 28  1  0  0  0  0
 29 27  1  0  0  0  0
 30 27  1  0  0  0  0
 31 32  1  0  0  0  0
 33 31  1  0  0  0  0
 34 36  1  0  0  0  0
 34 31  1  0  0  0  0
 34 39  1  0  0  0  0
 35 34  1  0  0  0  0
 37 39  1  0  0  0  0
 37 41  1  0  0  0  0
 38 37  2  0  0  0  0
 39 40  1  0  0  0  0
 41 42  1  0  0  0  0
 41 43  1  0  0  0  0
 43 44  1  0  0  0  0
 43 45  1  0  0  0  0
 46 43  1  0  0  0  0
 47 46  1  0  0  0  0
M  END
>  <minimizedAffinity>
-6.14555979

$$$$

 OpenBabel03252500073D

 47 49  0  0  0  0  0  0  0  0999 V2000
   36.8270   28.6050   36.4150 C   0  0  0  0  0  0  0  0  0  0  0  0
   37.2620   27.9480   37.5630 C   0  0  0  0  0  0  0  0  0  0  0  0
   36.3300   27.5850   38.5340 C   0  0  0  0  0  0  0  0  0  0  0  0
   35.0550   27.9280   38.2400 N   0  0  0  0  0  0  0  0  0  0  0  0
   34.6510   28.5460   37.1580 C   0  0  0  0  0  0  0  0  0  0  0  0
   35.5480   28.8770   36.2560 N   0  0  0  0  0  0  0  0  0  0  0  0
   37.5690   28.8760   35.6780 H   0  0  0  0  0  0  0  0  0  0  0  0
   36.6110   26.9140   39.7530 C   0  0  0  0  0  0  0  0  0  0  0  0
   36.6080   25.5230   39.7130 C   0  0  0  0  0  0  0  0  0  0  0  0
   36.8580   24.7080   40.7970 C   0  0  0  0  0  0  0  0  0  0  0  0
   37.1320   25.2500   42.0010 C   0  0  0  0  0  0  0  0  0  0  0  0
   37.1520   26.6240   42.1160 C   0  0  0  0  0  0  0  0  0  0  0  0
   37.4200   27.2350   43.2990 C   0  0  0  0  0  0  0  0  0  0  0  0
   37.4480   28.6050   43.4490 C   0  0  0  0  0  0  0  0  0  0  0  0
   37.1850   29.3780   42.3120 C   0  0  0  0  0  0  0  0  0  0  0  0
   36.9180   28.7060   41.1290 C   0  0  0  0  0  0  0  0  0  0  0  0
   36.8920   27.3870   40.9900 C   0  0  0  0  0  0  0  0  0  0  0  0
   36.3960   24.9730   38.7800 H   0  0  0  0  0  0  0  0  0  0  0  0
   36.8450   23.6290   40.7180 H   0  0  0  0  0  0  0  0  0  0  0  0
   37.3330   24.6420   42.8710 H   0  0  0  0  0  0  0  0  0  0  0  0
   37.6220   26.6170   44.1730 H   0  0  0  0  0  0  0  0  0  0  0  0
   37.6670   29.0470   44.4120 H   0  0  0  0  0  0  0  0  0  0  0  0
   37.2180   30.4250   42.4810 H   0  0  0  0  0  0  0  0  0  0  0  0
   36.6590   29.6640   40.0890 N   0  0  0  0  0  0  0  0  0  0  0  0
   37.2770   30.2280   39.4670 H   0  0  0  0  0  0  0  0  0  0  0  0
   35.7850   30.0580   39.6820 H   0  0  0  0  0  0  0  0  0  0  0  0
   33.1710   28.7950   37.0960 C   0  0  0  0  0  0  0  0  0  0  0  0
   32.4880   27.6730   36.7020 F   0  0  0  0  0  0  0  0  0  0  0  0
   32.8870   29.8440   36.2640 F   0  0  0  0  0  0  0  0  0  0  0  0
   32.7300   29.2280   38.3650 F   0  0  0  0  0  0  0  0  0  0  0  0
   38.6460   27.5920   37.8460 C   0  0  0  0  0  0  0  0  0  0  0  0
   38.6580   26.7790   38.6080 H   0  0  0  0  0  0  0  0  0  0  0  0
   39.1030   27.1560   36.9270 H   0  0  0  0  0  0  0  0  0  0  0  0
   39.5220   28.6720   38.3290 C   0  0  0  0  0  0  0  0  0  0  0  0
   40.0580   28.6240   39.2300 H   0  0  0  0  0  0  0  0  0  0  0  0
   38.8230   29.5640   38.4580 H   0  0  0  0  0  0  0  0  0  0  0  0
   41.3970   30.0430   37.3570 C   0  0  0  0  0  0  0  0  0  0  0  0
   41.7120   30.3950   38.5520 O   0  0  0  0  0  0  0  0  0  0  0  0
   40.3160   29.1360   37.1540 N   0  0  0  0  0  0  0  0  0  0  0  0
   40.1720   28.8630   36.1450 H   0  0  0  0  0  0  0  0  0  0  0  0
   42.1440   30.5790   36.2970 N   0  0  0  0  0  0  0  0  0  0  0  0
   41.6260   30.9380   35.4530 H   0  0  0  0  0  0  0  0  0  0  0  0
   43.8800   30.6570   36.3530 S   0  0  0  0  0  0  0  0  0  0  0  0
   44.3520   31.9530   36.9390 O   0  0  0  0  0  1  0  0  0  0  0  0
   44.5020   30.3670   35.0240 O   0  0  0  0  0  1  0  0  0  0  0  0
   44.3830   29.4300   37.4060 O   0  0  0  0  0  0  0  0  0  0  0  0
   44.3070   28.5410   36.9470 H   0  0  0  0  0  0  0  0  0  0  0  0
  1  2  1  0  0  0  0
  2 31  1  0  0  0  0
  2  3  2  0  0  0  0
  3  8  1  0  0  0  0
  4  3  1  0  0  0  0
  5  4  2  0  0  0  0
  6  1  2  0  0  0  0
  6  5  1  0  0  0  0
  7  1  1  0  0  0  0
  8 17  1  0  0  0  0
  9  8  2  0  0  0  0
  9 10  1  0  0  0  0
 10 11  2  0  0  0  0
 11 12  1  0  0  0  0
 11 20  1  0  0  0  0
 12 13  1  0  0  0  0
 13 14  2  0  0  0  0
 13 21  1  0  0  0  0
 14 22  1  0  0  0  0
 15 23  1  0  0  0  0
 15 14  1  0  0  0  0
 16 15  2  0  0  0  0
 17 16  1  0  0  0  0
 17 12  2  0  0  0  0
 18  9  1  0  0  0  0
 19 10  1  0  0  0  0
 24 16  1  0  0  0  0
 25 24  1  0  0  0  0
 26 24  1  0  0  0  0
 27  5  1  0  0  0  0
 27 30  1  0  0  0  0
 28 27  1  0  0  0  0
 29 27  1  0  0  0  0
 31 34  1  0  0  0  0
 31 32  1  0  0  0  0
 33 31  1  0  0  0  0
 34 36  1  0  0  0  0
 34 35  1  0  0  0  0
 37 38  2  0  0  0  0
 39 37  1  0  0  0  0
 39 34  1  0  0  0  0
 40 39  1  0  0  0  0
 41 43  1  0  0  0  0
 41 37  1  0  0  0  0
 42 41  1  0  0  0  0
 43 44  1  0  0  0  0
 43 46  1  0  0  0  0
 45 43  1  0  0  0  0
 47 46  1  0  0  0  0
M  END
>  <minimizedAffinity>
-6.08205128

$$$$

 OpenBabel03252500073D

 47 49  0  0  0  0  0  0  0  0999 V2000
   37.3840   31.2000   37.9880 C   0  0  0  0  0  0  0  0  0  0  0  0
   37.4850   30.7510   39.3020 C   0  0  0  0  0  0  0  0  0  0  0  0
   37.6590   29.3890   39.5460 C   0  0  0  0  0  0  0  0  0  0  0  0
   37.7110   28.6250   38.4310 N   0  0  0  0  0  0  0  0  0  0  0  0
   37.6150   29.0530   37.1960 C   0  0  0  0  0  0  0  0  0  0  0  0
   37.4520   30.3410   36.9920 N   0  0  0  0  0  0  0  0  0  0  0  0
   37.2490   32.2590   37.8270 H   0  0  0  0  0  0  0  0  0  0  0  0
   37.7800   28.7770   40.8210 C   0  0  0  0  0  0  0  0  0  0  0  0
   36.5920   28.4790   41.4830 C   0  0  0  0  0  0  0  0  0  0  0  0
   36.5160   27.8860   42.7260 C   0  0  0  0  0  0  0  0  0  0  0  0
   37.6430   27.5510   43.3850 C   0  0  0  0  0  0  0  0  0  0  0  0
   38.8590   27.8170   42.7890 C   0  0  0  0  0  0  0  0  0  0  0  0
   40.0330   27.5070   43.3980 C   0  0  0  0  0  0  0  0  0  0  0  0
   41.2630   27.7590   42.8310 C   0  0  0  0  0  0  0  0  0  0  0  0
   41.2750   28.3630   41.5690 C   0  0  0  0  0  0  0  0  0  0  0  0
   40.0500   28.6590   40.9900 C   0  0  0  0  0  0  0  0  0  0  0  0
   38.8680   28.4150   41.5400 C   0  0  0  0  0  0  0  0  0  0  0  0
   35.6100   28.7100   41.0370 H   0  0  0  0  0  0  0  0  0  0  0  0
   35.5680   27.6740   43.2020 H   0  0  0  0  0  0  0  0  0  0  0  0
   37.6210   27.0860   44.3590 H   0  0  0  0  0  0  0  0  0  0  0  0
   40.0040   27.0370   44.3800 H   0  0  0  0  0  0  0  0  0  0  0  0
   42.1730   27.4930   43.3550 H   0  0  0  0  0  0  0  0  0  0  0  0
   42.2460   28.5350   41.1770 H   0  0  0  0  0  0  0  0  0  0  0  0
   40.2690   29.2850   39.7150 N   0  0  0  0  0  0  0  0  0  0  0  0
   40.4710   28.9140   38.7620 H   0  0  0  0  0  0  0  0  0  0  0  0
   40.2900   30.2770   39.4000 H   0  0  0  0  0  0  0  0  0  0  0  0
   37.7100   27.9760   36.1540 C   0  0  0  0  0  0  0  0  0  0  0  0
   36.8820   26.9220   36.4410 F   0  0  0  0  0  0  0  0  0  0  0  0
   39.0020   27.5440   36.0150 F   0  0  0  0  0  0  0  0  0  0  0  0
   37.3930   28.5320   34.8950 F   0  0  0  0  0  0  0  0  0  0  0  0
   37.4280   31.6050   40.4820 C   0  0  0  0  0  0  0  0  0  0  0  0
   36.3800   31.9530   40.6210 H   0  0  0  0  0  0  0  0  0  0  0  0
   37.6700   30.9940   41.3830 H   0  0  0  0  0  0  0  0  0  0  0  0
   38.2990   32.7910   40.4820 C   0  0  0  0  0  0  0  0  0  0  0  0
   37.9420   33.7730   40.3770 H   0  0  0  0  0  0  0  0  0  0  0  0
   38.9840   32.6390   39.5830 H   0  0  0  0  0  0  0  0  0  0  0  0
   40.6300   32.2630   41.2740 C   0  0  0  0  0  0  0  0  0  0  0  0
   40.9940   32.1920   40.0440 O   0  0  0  0  0  0  0  0  0  0  0  0
   39.2820   32.6010   41.5890 N   0  0  0  0  0  0  0  0  0  0  0  0
   39.0950   32.6900   42.6230 H   0  0  0  0  0  0  0  0  0  0  0  0
   41.5940   31.9980   42.2590 N   0  0  0  0  0  0  0  0  0  0  0  0
   41.3260   31.3750   43.0650 H   0  0  0  0  0  0  0  0  0  0  0  0
   43.1950   32.6710   42.1730 S   0  0  0  0  0  0  0  0  0  0  0  0
   44.0490   32.2010   43.3110 O   0  0  0  0  0  1  0  0  0  0  0  0
   43.1760   34.1610   42.0440 O   0  0  0  0  0  1  0  0  0  0  0  0
   43.8940   32.0680   40.7540 O   0  0  0  0  0  0  0  0  0  0  0  0
   43.5090   32.5450   39.9590 H   0  0  0  0  0  0  0  0  0  0  0  0
  1  2  1  0  0  0  0
  2  3  2  0  0  0  0
  2 31  1  0  0  0  0
  3  8  1  0  0  0  0
  4  3  1  0  0  0  0
  5  4  2  0  0  0  0
  6  5  1  0  0  0  0
  6  1  2  0  0  0  0
  7  1  1  0  0  0  0
  8  9  2  0  0  0  0
  8 17  1  0  0  0  0
  9 10  1  0  0  0  0
 10 19  1  0  0  0  0
 10 11  2  0  0  0  0
 11 20  1  0  0  0  0
 12 11  1  0  0  0  0
 12 13  1  0  0  0  0
 13 21  1  0  0  0  0
 14 22  1  0  0  0  0
 14 13  2  0  0  0  0
 15 14  1  0  0  0  0
 16 17  1  0  0  0  0
 16 15  2  0  0  0  0
 17 12  2  0  0  0  0
 18  9  1  0  0  0  0
 23 15  1  0  0  0  0
 24 16  1  0  0  0  0
 25 24  1  0  0  0  0
 26 24  1  0  0  0  0
 27 28  1  0  0  0  0
 27  5  1  0  0  0  0
 29 27  1  0  0  0  0
 30 27  1  0  0  0  0
 31 32  1  0  0  0  0
 31 33  1  0  0  0  0
 34 31  1  0  0  0  0
 34 39  1  0  0  0  0
 35 34  1  0  0  0  0
 36 34  1  0  0  0  0
 37 39  1  0  0  0  0
 37 41  1  0  0  0  0
 38 37  2  0  0  0  0
 39 40  1  0  0  0  0
 41 42  1  0  0  0  0
 43 41  1  0  0  0  0
 43 44  1  0  0  0  0
 45 43  1  0  0  0  0
 46 43  1  0  0  0  0
 47 46  1  0  0  0  0
M  END
>  <minimizedAffinity>
-6.06923962

$$$$
