
 OpenBabel03252508413D

 26 27  0  0  0  0  0  0  0  0999 V2000
   45.4630   33.2950   39.1420 C   0  0  0  0  0  0  0  0  0  0  0  0
   46.6310   33.5100   39.8140 C   0  0  0  0  0  0  0  0  0  0  0  0
   47.8410   33.6070   39.1540 C   0  0  0  0  0  0  0  0  0  0  0  0
   47.8380   33.4800   37.7860 C   0  0  0  0  0  0  0  0  0  0  0  0
   46.7010   33.2630   37.0500 C   0  0  0  0  0  0  0  0  0  0  0  0
   45.5400   33.1820   37.8060 C   0  0  0  0  0  0  0  0  0  0  0  0
   48.7980   33.7760   39.6260 H   0  0  0  0  0  0  0  0  0  0  0  0
   48.7740   33.5510   37.2370 H   0  0  0  0  0  0  0  0  0  0  0  0
   46.6760   33.1600   35.9730 H   0  0  0  0  0  0  0  0  0  0  0  0
   44.6090   33.0080   37.2450 H   0  0  0  0  0  0  0  0  0  0  0  0
   42.1390   34.0280   40.7700 C   0  0  0  0  0  0  0  0  0  0  0  0
   43.2860   34.2310   39.9560 C   0  0  0  0  0  0  0  0  0  0  0  0
   44.2400   33.2070   39.9240 C   0  0  0  0  0  0  0  0  0  0  0  0
   44.0330   32.0760   40.6620 N   0  0  0  0  0  0  0  0  0  0  0  0
   42.9300   31.9210   41.4250 C   0  0  0  0  0  0  0  0  0  0  0  0
   41.9800   32.8930   41.4820 N   0  0  0  0  0  0  0  0  0  0  0  0
   41.4110   34.8120   40.7950 H   0  0  0  0  0  0  0  0  0  0  0  0
   43.4680   35.1030   39.3730 H   0  0  0  0  0  0  0  0  0  0  0  0
   42.8830   30.9820   41.9610 H   0  0  0  0  0  0  0  0  0  0  0  0
   46.6130   33.6390   41.2290 N   0  0  0  0  0  0  0  0  0  0  0  0
   46.2000   32.8780   41.8290 H   0  0  0  0  0  0  0  0  0  0  0  0
   47.1350   34.8180   42.3520 S   0  0  0  0  0  0  0  0  0  0  0  0
   45.9850   35.7110   42.7830 O   0  0  0  0  0  1  0  0  0  0  0  0
   48.2410   35.6860   41.8250 O   0  0  0  0  0  1  0  0  0  0  0  0
   47.7340   34.0870   43.7520 O   0  0  0  0  0  0  0  0  0  0  0  0
   47.2740   33.2070   43.9250 H   0  0  0  0  0  0  0  0  0  0  0  0
  1  2  1  0  0  0  0
  1 13  1  0  0  0  0
  2 20  1  0  0  0  0
  3  7  1  0  0  0  0
  3  2  2  0  0  0  0
  4  3  1  0  0  0  0
  5  4  2  0  0  0  0
  5  6  1  0  0  0  0
  6  1  2  0  0  0  0
  8  4  1  0  0  0  0
  9  5  1  0  0  0  0
 10  6  1  0  0  0  0
 11 17  1  0  0  0  0
 11 16  1  0  0  0  0
 12 11  2  0  0  0  0
 13 12  1  0  0  0  0
 13 14  2  0  0  0  0
 14 15  1  0  0  0  0
 15 16  2  0  0  0  0
 15 19  1  0  0  0  0
 18 12  1  0  0  0  0
 20 21  1  0  0  0  0
 20 22  1  0  0  0  0
 22 23  1  0  0  0  0
 22 25  1  0  0  0  0
 24 22  1  0  0  0  0
 25 26  1  0  0  0  0
M  END
>  <minimizedAffinity>
-3.73064089

>  <minimizedRMSD>
3.90767813

$$$$
