
 OpenBabel03242519513D

 32 33  0  0  1  0  0  0  0  0999 V2000
   46.1740   32.9950   43.3930 C   0  0  2  0  0  0  0  0  0  0  0  0
   44.9320   33.7750   43.2300 C   0  0  0  0  0  0  0  0  0  0  0  0
   44.8530   34.9830   44.1220 C   0  0  0  0  0  0  0  0  0  0  0  0
   45.0500   34.6400   45.5760 C   0  0  0  0  0  0  0  0  0  0  0  0
   46.1040   33.5840   45.8040 C   0  0  2  0  0  0  0  0  0  0  0  0
   46.9780   33.4040   44.5960 C   0  0  0  0  0  0  0  0  0  0  0  0
   46.0110   31.8870   43.5120 H   0  0  0  0  0  0  0  0  0  0  0  0
   44.7150   34.0930   42.1910 H   0  0  0  0  0  0  0  0  0  0  0  0
   44.0620   33.1230   43.5060 H   0  0  0  0  0  0  0  0  0  0  0  0
   43.8090   35.3880   44.0280 H   0  0  0  0  0  0  0  0  0  0  0  0
   45.5280   35.8010   43.8900 H   0  0  0  0  0  0  0  0  0  0  0  0
   44.0800   34.3750   46.0180 H   0  0  0  0  0  0  0  0  0  0  0  0
   45.3820   35.5620   46.1260 H   0  0  0  0  0  0  0  0  0  0  0  0
   46.7880   33.8770   46.6390 H   0  0  0  0  0  0  0  0  0  0  0  0
   47.7790   32.6860   44.7890 H   0  0  0  0  0  0  0  0  0  0  0  0
   47.4660   34.3790   44.3020 H   0  0  0  0  0  0  0  0  0  0  0  0
   47.0570   33.1110   42.1980 C   0  0  0  0  0  0  0  0  0  0  0  0
   46.7200   34.1040   41.2590 C   0  0  0  0  0  0  0  0  0  0  0  0
   47.5040   34.2730   40.1240 C   0  0  0  0  0  0  0  0  0  0  0  0
   48.5910   33.4310   39.9920 N   0  0  0  0  0  0  0  0  0  0  0  0
   48.8910   32.4870   40.9080 C   0  0  0  0  0  0  0  0  0  0  0  0
   48.1290   32.3260   42.0070 N   0  0  0  0  0  0  0  0  0  0  0  0
   45.9100   34.7870   41.2830 H   0  0  0  0  0  0  0  0  0  0  0  0
   47.3220   35.0050   39.3560 H   0  0  0  0  0  0  0  0  0  0  0  0
   49.7730   31.8560   40.7290 H   0  0  0  0  0  0  0  0  0  0  0  0
   45.4350   32.3490   46.0450 N   0  0  0  0  0  0  0  0  0  0  0  0
   45.0100   31.8600   45.2720 H   0  0  0  0  0  0  0  0  0  0  0  0
   45.7950   31.5270   47.4660 S   0  0  0  0  0  0  0  0  0  0  0  0
   46.9000   32.2410   48.1910 O   0  0  0  0  0  0  0  0  0  0  0  0
   44.5850   31.5730   48.3900 O   0  0  0  0  0  0  0  0  0  0  0  0
   46.1600   29.9040   47.2600 O   0  0  0  0  0  0  0  0  0  0  0  0
   47.1440   29.7540   47.4040 H   0  0  0  0  0  0  0  0  0  0  0  0
  1  7  1  1  0  0  0
  1  6  1  0  0  0  0
  2  1  1  0  0  0  0
  2  9  1  0  0  0  0
  2  3  1  0  0  0  0
  3  4  1  0  0  0  0
  4  5  1  0  0  0  0
  4 12  1  0  0  0  0
  4 13  1  0  0  0  0
  5 26  1  0  0  0  0
  5 14  1  1  0  0  0
  6 15  1  0  0  0  0
  6  5  1  0  0  0  0
  8  2  1  0  0  0  0
 10  3  1  0  0  0  0
 11  3  1  0  0  0  0
 16  6  1  0  0  0  0
 17  1  1  0  0  0  0
 18 23  1  0  0  0  0
 18 17  2  0  0  0  0
 19 18  1  0  0  0  0
 20 19  2  0  0  0  0
 20 21  1  0  0  0  0
 21 22  2  0  0  0  0
 22 17  1  0  0  0  0
 24 19  1  0  0  0  0
 25 21  1  0  0  0  0
 26 28  1  0  0  0  0
 27 26  1  0  0  0  0
 28 29  1  0  0  0  0
 28 30  1  0  0  0  0
 31 32  1  0  0  0  0
 31 28  1  0  0  0  0
M  END
>  <minimizedAffinity>
-4.3971653

>  <minimizedRMSD>
2.54711986

$$$$
