
 OpenBabel03242514123D

 32 33  0  0  0  0  0  0  0  0999 V2000
   46.2780   34.2120   43.3310 C   0  0  0  0  0  0  0  0  0  0  0  0
   46.1680   34.2680   44.7600 C   0  0  0  0  0  0  0  0  0  0  0  0
   44.8420   34.7630   45.2580 C   0  0  0  0  0  0  0  0  0  0  0  0
   44.6050   36.1850   44.7450 C   0  0  0  0  0  0  0  0  0  0  0  0
   45.0010   36.3750   43.3120 C   0  0  0  0  0  0  0  0  0  0  0  0
   45.1570   35.0320   42.6390 C   0  0  0  0  0  0  0  0  0  0  0  0
   47.1710   34.7340   42.9180 H   0  0  0  0  0  0  0  0  0  0  0  0
   46.8000   35.1530   45.0950 H   0  0  0  0  0  0  0  0  0  0  0  0
   46.6410   33.5030   45.3810 H   0  0  0  0  0  0  0  0  0  0  0  0
   44.9610   34.9170   46.3710 H   0  0  0  0  0  0  0  0  0  0  0  0
   43.9320   34.2670   44.9960 H   0  0  0  0  0  0  0  0  0  0  0  0
   45.1120   36.9410   45.4170 H   0  0  0  0  0  0  0  0  0  0  0  0
   43.5320   36.4550   44.8210 H   0  0  0  0  0  0  0  0  0  0  0  0
   46.0410   36.8160   43.3320 H   0  0  0  0  0  0  0  0  0  0  0  0
   44.3710   37.0270   42.7210 H   0  0  0  0  0  0  0  0  0  0  0  0
   45.4660   35.1950   41.5940 H   0  0  0  0  0  0  0  0  0  0  0  0
   44.2160   34.4460   42.6370 H   0  0  0  0  0  0  0  0  0  0  0  0
   46.3130   32.8960   42.7060 C   0  0  0  0  0  0  0  0  0  0  0  0
   47.5370   32.2550   42.7770 C   0  0  0  0  0  0  0  0  0  0  0  0
   47.6510   30.9610   42.2880 C   0  0  0  0  0  0  0  0  0  0  0  0
   46.5130   30.4020   41.7550 N   0  0  0  0  0  0  0  0  0  0  0  0
   45.3430   31.0290   41.6880 C   0  0  0  0  0  0  0  0  0  0  0  0
   45.2660   32.2660   42.1660 N   0  0  0  0  0  0  0  0  0  0  0  0
   48.4330   30.2390   42.2090 H   0  0  0  0  0  0  0  0  0  0  0  0
   44.4430   30.6070   41.2730 H   0  0  0  0  0  0  0  0  0  0  0  0
   48.8520   32.5530   43.1610 N   0  0  0  0  0  0  0  0  0  0  0  0
   49.5090   32.3070   43.9350 H   0  0  0  0  0  0  0  0  0  0  0  0
   49.8730   33.6660   42.2590 S   0  0  0  0  0  0  0  0  0  0  0  0
   51.1900   33.0570   41.9140 O   0  0  0  0  0  0  0  0  0  0  0  0
   49.1580   34.1480   41.0340 O   0  0  0  0  0  0  0  0  0  0  0  0
   50.1350   34.9940   43.2420 O   0  0  0  0  0  0  0  0  0  0  0  0
   49.3750   35.0820   43.8680 H   0  0  0  0  0  0  0  0  0  0  0  0
  1  2  1  0  0  0  0
  2  8  1  0  0  0  0
  2  3  1  0  0  0  0
  2  9  1  0  0  0  0
  3 10  1  0  0  0  0
  4 13  1  0  0  0  0
  4  3  1  0  0  0  0
  4 12  1  0  0  0  0
  5 14  1  0  0  0  0
  5  4  1  0  0  0  0
  6  5  1  0  0  0  0
  6  1  1  0  0  0  0
  7  1  1  0  0  0  0
 11  3  1  0  0  0  0
 15  5  1  0  0  0  0
 16  6  1  0  0  0  0
 17  6  1  0  0  0  0
 18 19  1  0  0  0  0
 18  1  1  0  0  0  0
 19 26  1  0  0  0  0
 20 19  2  0  0  0  0
 21 20  1  0  0  0  0
 22 21  2  0  0  0  0
 22 23  1  0  0  0  0
 23 18  2  0  0  0  0
 24 20  1  0  0  0  0
 25 22  1  0  0  0  0
 26 27  1  0  0  0  0
 28 26  1  0  0  0  0
 28 31  1  0  0  0  0
 29 28  1  0  0  0  0
 30 28  1  0  0  0  0
 31 32  1  0  0  0  0
M  END
>  <minimizedAffinity>
-4.26818609

>  <minimizedRMSD>
3.55475903

$$$$
