
 OpenBabel03242520143D

 23 24  0  0  0  0  0  0  0  0999 V2000
   45.4090   34.5470   44.2920 C   0  0  0  0  0  0  0  0  0  0  0  0
   46.4480   34.1650   43.4170 C   0  0  0  0  0  0  0  0  0  0  0  0
   47.4120   33.2510   43.8410 C   0  0  0  0  0  0  0  0  0  0  0  0
   47.2760   32.7770   45.1140 N   0  0  0  0  0  0  0  0  0  0  0  0
   46.2820   33.1570   45.9210 C   0  0  0  0  0  0  0  0  0  0  0  0
   45.3530   34.0300   45.5280 N   0  0  0  0  0  0  0  0  0  0  0  0
   46.4920   34.5740   42.4420 H   0  0  0  0  0  0  0  0  0  0  0  0
   46.3060   32.6920   46.9100 H   0  0  0  0  0  0  0  0  0  0  0  0
   48.4850   32.8170   43.0230 N   0  0  0  0  0  0  0  0  0  0  0  0
   48.5630   31.8000   42.8080 H   0  0  0  0  0  0  0  0  0  0  0  0
   44.4150   35.5300   43.8110 C   0  0  0  0  0  0  0  0  0  0  0  0
   45.0600   36.8780   43.4010 C   0  0  0  0  0  0  0  0  0  0  0  0
   44.3530   35.9800   42.4370 C   0  0  0  0  0  0  0  0  0  0  0  0
   43.5200   35.6440   44.4660 H   0  0  0  0  0  0  0  0  0  0  0  0
   44.5380   37.7830   43.7730 H   0  0  0  0  0  0  0  0  0  0  0  0
   46.1430   36.9520   43.4370 H   0  0  0  0  0  0  0  0  0  0  0  0
   45.0670   35.5170   41.6960 H   0  0  0  0  0  0  0  0  0  0  0  0
   43.4050   36.2990   41.9810 H   0  0  0  0  0  0  0  0  0  0  0  0
   49.7430   33.6860   42.2830 S   0  0  0  0  0  0  0  0  0  0  0  0
   51.0880   33.0340   42.4660 O   0  0  0  0  0  0  0  0  0  0  0  0
   49.8820   35.0980   42.6720 O   0  0  0  0  0  0  0  0  0  0  0  0
   49.4730   33.6300   40.6040 O   0  0  0  0  0  0  0  0  0  0  0  0
   48.5770   34.0560   40.4700 H   0  0  0  0  0  0  0  0  0  0  0  0
  1  6  1  0  0  0  0
  2  3  1  0  0  0  0
  2  1  2  0  0  0  0
  3  4  2  0  0  0  0
  4  5  1  0  0  0  0
  5  8  1  0  0  0  0
  6  5  2  0  0  0  0
  7  2  1  0  0  0  0
  9  3  1  0  0  0  0
 10  9  1  0  0  0  0
 11  1  1  0  0  0  0
 11 14  1  0  0  0  0
 12 16  1  0  0  0  0
 12 15  1  0  0  0  0
 12 11  1  0  0  0  0
 13 12  1  0  0  0  0
 13 11  1  0  0  0  0
 17 13  1  0  0  0  0
 18 13  1  0  0  0  0
 19 20  1  0  0  0  0
 19 21  1  0  0  0  0
 19  9  1  0  0  0  0
 22 19  1  0  0  0  0
 23 22  1  0  0  0  0
M  END
>  <minimizedAffinity>
-4.41934967

>  <minimizedRMSD>
1.34053648

$$$$
