
     RDKit          3D

 32 33  0  0  0  0  0  0  0  0999 V2000
   43.8542   33.5938   40.6241 C   0  0  0  0  0  0  0  0  0  0  0  0
   40.3779   34.8025   41.4744 C   0  0  0  0  0  0  0  0  0  0  0  0
   41.7442   34.8254   41.0975 C   0  0  0  0  0  0  0  0  0  0  0  0
   42.4283   33.6090   41.0145 C   0  0  0  0  0  0  0  0  0  0  0  0
   41.7219   32.4748   41.3060 N   0  0  0  0  0  0  0  0  0  0  0  0
   40.4394   32.4979   41.6559 C   0  0  0  0  0  0  0  0  0  0  0  0
   39.7508   33.6409   41.7465 N   0  0  0  0  0  0  0  0  0  0  0  0
   44.6707   34.0391   41.8394 C   0  0  0  0  0  0  0  0  0  0  0  0
   46.0403   34.3863   41.4531 C   0  0  0  0  0  0  0  0  0  0  0  0
   46.6437   34.0582   40.2744 C   0  0  0  0  0  0  0  0  0  0  0  0
   47.9243   34.3625   39.8670 C   0  0  0  0  0  0  0  0  0  0  0  0
   48.6621   35.0923   40.7926 C   0  0  0  0  0  0  0  0  0  0  0  0
   48.1090   35.4536   41.9997 C   0  0  0  0  0  0  0  0  0  0  0  0
   46.8303   35.1127   42.3288 C   0  0  0  0  0  0  0  0  0  0  0  0
   44.1820   32.6459   40.2004 H   0  0  0  0  0  0  0  0  0  0  0  0
   44.0064   34.4090   39.8746 H   0  0  0  0  0  0  0  0  0  0  0  0
   39.9374   35.7978   41.5097 H   0  0  0  0  0  0  0  0  0  0  0  0
   42.2651   35.7370   40.8761 H   0  0  0  0  0  0  0  0  0  0  0  0
   39.9294   31.5655   41.8762 H   0  0  0  0  0  0  0  0  0  0  0  0
   44.5661   33.3625   42.6913 H   0  0  0  0  0  0  0  0  0  0  0  0
   44.1860   35.0126   42.1469 H   0  0  0  0  0  0  0  0  0  0  0  0
   46.0348   33.4806   39.5623 H   0  0  0  0  0  0  0  0  0  0  0  0
   48.2862   34.0466   38.9110 H   0  0  0  0  0  0  0  0  0  0  0  0
   49.6774   35.3561   40.5167 H   0  0  0  0  0  0  0  0  0  0  0  0
   48.7750   36.0187   42.6401 H   0  0  0  0  0  0  0  0  0  0  0  0
   46.2801   35.4944   43.5797 N   0  0  0  0  0  0  0  0  0  0  0  0
   46.8567   35.4094   44.4640 H   0  0  0  0  0  0  0  0  0  0  0  0
   44.7880   36.1220   44.1178 S   0  0  0  0  0  0  0  0  0  0  0  0
   44.1804   35.2584   45.1860 O   0  0  0  0  0  0  0  0  0  0  0  0
   43.8199   36.1912   42.9876 O   0  0  0  0  0  0  0  0  0  0  0  0
   44.9978   37.6496   44.8329 O   0  0  0  0  0  0  0  0  0  0  0  0
   44.5940   38.3639   44.2882 H   0  0  0  0  0  0  0  0  0  0  0  0
  1  4  1  0
  1  8  1  0
  2  7  2  0
  3  2  1  0
  4  3  2  0
  4  5  1  0
  5  6  2  0
  6  7  1  0
  9  8  1  0
  9 14  1  0
 10  9  2  0
 11 10  1  0
 11 12  2  0
 12 13  1  0
 13 14  2  0
  1 15  1  0
  1 16  1  0
  2 17  1  0
  3 18  1  0
  6 19  1  0
  8 20  1  0
  8 21  1  0
 10 22  1  0
 11 23  1  0
 12 24  1  0
 13 25  1  0
 26 27  1  0
 26 28  1  0
 28 29  2  0
 28 30  2  0
 28 31  1  0
 31 32  1  0
 14 26  1  0
M  ISO  8  15   8  16   8  17  14  18  14  19  14  20   8  21   8  22  14
M  ISO  5  23  14  24  14  25  14  27   5  32   3
M  END
>  <DihAtoms>  (1) 
8,13,25,26

>  <DihDeg>  (1) 
2.081912342720333

$$$$
