
 OpenBabel03252505563D

 34 35  0  0  0  0  0  0  0  0999 V2000
   44.7930   35.0740   44.9680 C   0  0  0  0  0  0  0  0  0  0  0  0
   45.7960   34.7290   44.0700 C   0  0  0  0  0  0  0  0  0  0  0  0
   46.7030   33.7680   44.5070 C   0  0  0  0  0  0  0  0  0  0  0  0
   46.6160   33.2130   45.7110 N   0  0  0  0  0  0  0  0  0  0  0  0
   45.6160   33.5810   46.5560 C   0  0  0  0  0  0  0  0  0  0  0  0
   44.7300   34.4940   46.1790 N   0  0  0  0  0  0  0  0  0  0  0  0
   44.0830   35.8230   44.6330 H   0  0  0  0  0  0  0  0  0  0  0  0
   45.8610   35.3750   42.7340 C   0  0  0  0  0  0  0  0  0  0  0  0
   45.0360   36.4870   42.8650 F   0  0  0  0  0  0  0  0  0  0  0  0
   45.2630   34.4930   41.8370 F   0  0  0  0  0  0  0  0  0  0  0  0
   47.1280   35.7020   42.4270 F   0  0  0  0  0  0  0  0  0  0  0  0
   47.7640   33.3230   43.6910 N   0  0  0  0  0  0  0  0  0  0  0  0
   48.7510   33.5380   43.4810 H   0  0  0  0  0  0  0  0  0  0  0  0
   47.5160   31.9940   42.6220 S   0  0  0  0  0  0  0  0  0  0  0  0
   46.1050   31.4670   42.7420 O   0  0  0  0  0  0  0  0  0  0  0  0
   48.4580   30.8530   42.8760 O   0  0  0  0  0  0  0  0  0  0  0  0
   47.7800   32.5610   41.0450 O   0  0  0  0  0  0  0  0  0  0  0  0
   48.7540   32.6170   40.8750 H   0  0  0  0  0  0  0  0  0  0  0  0
   45.4620   33.0460   47.8250 O   0  0  0  0  0  0  0  0  0  0  0  0
   44.8970   31.7760   48.0110 C   0  0  0  0  0  0  0  0  0  0  0  0
   44.0690   31.6270   47.2910 H   0  0  0  0  0  0  0  0  0  0  0  0
   44.4280   31.7600   49.0290 H   0  0  0  0  0  0  0  0  0  0  0  0
   45.9770   30.7940   47.8980 C   0  0  0  0  0  0  0  0  0  0  0  0
   46.0340   29.5950   47.1800 C   0  0  0  0  0  0  0  0  0  0  0  0
   47.1780   28.8650   47.2530 C   0  0  0  0  0  0  0  0  0  0  0  0
   48.2280   29.2440   47.9730 N   0  0  0  0  0  0  0  0  0  0  0  0
   48.1720   30.3930   48.6600 C   0  0  0  0  0  0  0  0  0  0  0  0
   47.0510   31.1780   48.6310 N   0  0  0  0  0  0  0  0  0  0  0  0
   45.1120   29.4100   46.6400 H   0  0  0  0  0  0  0  0  0  0  0  0
   47.1570   27.9440   46.6720 H   0  0  0  0  0  0  0  0  0  0  0  0
   49.3970   30.7320   49.4380 C   0  0  0  0  0  0  0  0  0  0  0  0
   49.5330   32.0900   49.5700 F   0  0  0  0  0  0  0  0  0  0  0  0
   50.5200   30.1970   48.8090 F   0  0  0  0  0  0  0  0  0  0  0  0
   49.3380   30.1930   50.7170 F   0  0  0  0  0  0  0  0  0  0  0  0
  1  6  1  0  0  0  0
  2  3  1  0  0  0  0
  2  1  2  0  0  0  0
  3  4  2  0  0  0  0
  4  5  1  0  0  0  0
  5 19  1  0  0  0  0
  6  5  2  0  0  0  0
  7  1  1  0  0  0  0
  8  9  1  0  0  0  0
  8  2  1  0  0  0  0
 10  8  1  0  0  0  0
 11  8  1  0  0  0  0
 12  3  1  0  0  0  0
 13 12  1  0  0  0  0
 14 15  1  0  0  0  0
 14 16  1  0  0  0  0
 14 12  1  0  0  0  0
 17 14  1  0  0  0  0
 18 17  1  0  0  0  0
 19 20  1  0  0  0  0
 20 22  1  0  0  0  0
 21 20  1  0  0  0  0
 23 20  1  0  0  0  0
 23 28  1  0  0  0  0
 24 25  1  0  0  0  0
 24 23  2  0  0  0  0
 25 26  2  0  0  0  0
 26 27  1  0  0  0  0
 27 31  1  0  0  0  0
 28 27  2  0  0  0  0
 29 24  1  0  0  0  0
 30 25  1  0  0  0  0
 31 32  1  0  0  0  0
 31 34  1  0  0  0  0
 33 31  1  0  0  0  0
M  END
>  <minimizedAffinity>
-5.47416162

>  <minimizedRMSD>
1.08549118

$$$$
