
 OpenBabel03242520173D

 23 24  0  0  0  0  0  0  0  0999 V2000
   37.5270   28.6690   42.2240 C   0  0  0  0  0  0  0  0  0  0  0  0
   37.5530   30.0460   41.9220 C   0  0  0  0  0  0  0  0  0  0  0  0
   36.6050   30.5860   41.0540 C   0  0  0  0  0  0  0  0  0  0  0  0
   35.6890   29.7120   40.5410 N   0  0  0  0  0  0  0  0  0  0  0  0
   35.6890   28.4110   40.8450 C   0  0  0  0  0  0  0  0  0  0  0  0
   36.5900   27.8820   41.6740 N   0  0  0  0  0  0  0  0  0  0  0  0
   38.2930   30.6660   42.3560 H   0  0  0  0  0  0  0  0  0  0  0  0
   34.8960   27.8380   40.3570 H   0  0  0  0  0  0  0  0  0  0  0  0
   36.5640   31.9580   40.7010 N   0  0  0  0  0  0  0  0  0  0  0  0
   35.7030   32.5010   40.9270 H   0  0  0  0  0  0  0  0  0  0  0  0
   38.5590   28.1310   43.1360 C   0  0  0  0  0  0  0  0  0  0  0  0
   39.4180   27.0220   42.4780 C   0  0  0  0  0  0  0  0  0  0  0  0
   39.9770   28.3340   42.9260 C   0  0  0  0  0  0  0  0  0  0  0  0
   38.1890   27.8650   44.1530 H   0  0  0  0  0  0  0  0  0  0  0  0
   39.5880   26.1240   43.1050 H   0  0  0  0  0  0  0  0  0  0  0  0
   39.2370   26.7970   41.4310 H   0  0  0  0  0  0  0  0  0  0  0  0
   40.2980   28.9730   42.0530 H   0  0  0  0  0  0  0  0  0  0  0  0
   40.6810   28.3730   43.7700 H   0  0  0  0  0  0  0  0  0  0  0  0
   37.7150   32.9460   39.9370 S   0  0  0  0  0  0  0  0  0  0  0  0
   38.4800   32.2230   38.8590 O   0  0  0  0  0  1  0  0  0  0  0  0
   38.7010   33.6010   40.8120 O   0  0  0  0  0  1  0  0  0  0  0  0
   36.8630   34.1610   39.1060 O   0  0  0  0  0  0  0  0  0  0  0  0
   36.3460   34.6450   39.8120 H   0  0  0  0  0  0  0  0  0  0  0  0
  1 11  1  0  0  0  0
  2  1  1  0  0  0  0
  2  7  1  0  0  0  0
  3  2  2  0  0  0  0
  4  5  2  0  0  0  0
  4  3  1  0  0  0  0
  5  6  1  0  0  0  0
  6  1  2  0  0  0  0
  8  5  1  0  0  0  0
  9 10  1  0  0  0  0
  9  3  1  0  0  0  0
 11 14  1  0  0  0  0
 12 13  1  0  0  0  0
 12 15  1  0  0  0  0
 12 11  1  0  0  0  0
 13 11  1  0  0  0  0
 13 18  1  0  0  0  0
 16 12  1  0  0  0  0
 17 13  1  0  0  0  0
 19  9  1  0  0  0  0
 19 21  1  0  0  0  0
 20 19  1  0  0  0  0
 22 23  1  0  0  0  0
 22 19  1  0  0  0  0
M  END
>  <minimizedAffinity>
-4.82472849

$$$$

 OpenBabel03242520173D

 23 24  0  0  0  0  0  0  0  0999 V2000
   36.3670   28.7210   41.6700 C   0  0  0  0  0  0  0  0  0  0  0  0
   36.9140   30.0200   41.7140 C   0  0  0  0  0  0  0  0  0  0  0  0
   36.6820   30.9080   40.6640 C   0  0  0  0  0  0  0  0  0  0  0  0
   35.9160   30.4390   39.6350 N   0  0  0  0  0  0  0  0  0  0  0  0
   35.4120   29.2020   39.6200 C   0  0  0  0  0  0  0  0  0  0  0  0
   35.6260   28.3430   40.6180 N   0  0  0  0  0  0  0  0  0  0  0  0
   37.4990   30.3170   42.5440 H   0  0  0  0  0  0  0  0  0  0  0  0
   34.8200   28.9710   38.7300 H   0  0  0  0  0  0  0  0  0  0  0  0
   37.1950   32.2290   40.6330 N   0  0  0  0  0  0  0  0  0  0  0  0
   36.5190   33.0210   40.5820 H   0  0  0  0  0  0  0  0  0  0  0  0
   36.6490   27.8040   42.7950 C   0  0  0  0  0  0  0  0  0  0  0  0
   37.9250   26.9550   42.5670 C   0  0  0  0  0  0  0  0  0  0  0  0
   37.7940   27.9580   43.6680 C   0  0  0  0  0  0  0  0  0  0  0  0
   35.7730   27.2090   43.1410 H   0  0  0  0  0  0  0  0  0  0  0  0
   37.8230   25.8780   42.8080 H   0  0  0  0  0  0  0  0  0  0  0  0
   38.5090   27.1500   41.6720 H   0  0  0  0  0  0  0  0  0  0  0  0
   38.4670   28.8490   43.5060 H   0  0  0  0  0  0  0  0  0  0  0  0
   37.7640   27.6250   44.7160 H   0  0  0  0  0  0  0  0  0  0  0  0
   38.7930   32.8030   40.6650 S   0  0  0  0  0  0  0  0  0  0  0  0
   39.2480   33.3340   39.3310 O   0  0  0  0  0  1  0  0  0  0  0  0
   39.8190   31.8600   41.1370 O   0  0  0  0  0  1  0  0  0  0  0  0
   38.8190   34.1610   41.6890 O   0  0  0  0  0  0  0  0  0  0  0  0
   38.5120   33.8220   42.5790 H   0  0  0  0  0  0  0  0  0  0  0  0
  1  2  1  0  0  0  0
  1 11  1  0  0  0  0
  2  7  1  0  0  0  0
  3  2  2  0  0  0  0
  4  3  1  0  0  0  0
  5  4  2  0  0  0  0
  5  6  1  0  0  0  0
  6  1  2  0  0  0  0
  8  5  1  0  0  0  0
  9  3  1  0  0  0  0
  9 19  1  0  0  0  0
 10  9  1  0  0  0  0
 11 14  1  0  0  0  0
 11 13  1  0  0  0  0
 12 11  1  0  0  0  0
 12 15  1  0  0  0  0
 12 13  1  0  0  0  0
 13 18  1  0  0  0  0
 16 12  1  0  0  0  0
 17 13  1  0  0  0  0
 19 21  1  0  0  0  0
 19 22  1  0  0  0  0
 20 19  1  0  0  0  0
 22 23  1  0  0  0  0
M  END
>  <minimizedAffinity>
-4.7557826

$$$$

 OpenBabel03242520173D

 23 24  0  0  0  0  0  0  0  0999 V2000
   37.6910   28.9940   41.9050 C   0  0  0  0  0  0  0  0  0  0  0  0
   37.9010   29.3390   40.5540 C   0  0  0  0  0  0  0  0  0  0  0  0
   38.8970   30.2560   40.2190 C   0  0  0  0  0  0  0  0  0  0  0  0
   39.6190   30.7700   41.2570 N   0  0  0  0  0  0  0  0  0  0  0  0
   39.3970   30.4250   42.5280 C   0  0  0  0  0  0  0  0  0  0  0  0
   38.4480   29.5490   42.8630 N   0  0  0  0  0  0  0  0  0  0  0  0
   37.3030   28.9010   39.7990 H   0  0  0  0  0  0  0  0  0  0  0  0
   40.0540   30.9200   43.2480 H   0  0  0  0  0  0  0  0  0  0  0  0
   39.1710   30.6550   38.8860 N   0  0  0  0  0  0  0  0  0  0  0  0
   40.1240   30.4760   38.5030 H   0  0  0  0  0  0  0  0  0  0  0  0
   36.6150   28.0300   42.2220 C   0  0  0  0  0  0  0  0  0  0  0  0
   37.1480   26.5930   42.4440 C   0  0  0  0  0  0  0  0  0  0  0  0
   36.4820   27.3950   43.5160 C   0  0  0  0  0  0  0  0  0  0  0  0
   35.7320   28.0790   41.5430 H   0  0  0  0  0  0  0  0  0  0  0  0
   36.5710   25.7930   41.9380 H   0  0  0  0  0  0  0  0  0  0  0  0
   38.2230   26.4420   42.4160 H   0  0  0  0  0  0  0  0  0  0  0  0
   37.2080   27.6920   44.3280 H   0  0  0  0  0  0  0  0  0  0  0  0
   35.5020   27.0880   43.9060 H   0  0  0  0  0  0  0  0  0  0  0  0
   38.1890   31.4120   37.7260 S   0  0  0  0  0  0  0  0  0  0  0  0
   37.2800   32.4540   38.3230 O   0  0  0  0  0  1  0  0  0  0  0  0
   37.3570   30.5280   36.8940 O   0  0  0  0  0  1  0  0  0  0  0  0
   39.2150   32.2900   36.6930 O   0  0  0  0  0  0  0  0  0  0  0  0
   39.8290   31.6080   36.2940 H   0  0  0  0  0  0  0  0  0  0  0  0
  1 11  1  0  0  0  0
  1  6  1  0  0  0  0
  2  1  2  0  0  0  0
  3  2  1  0  0  0  0
  3  4  2  0  0  0  0
  4  5  1  0  0  0  0
  5  6  2  0  0  0  0
  5  8  1  0  0  0  0
  7  2  1  0  0  0  0
  9  3  1  0  0  0  0
 10  9  1  0  0  0  0
 11 12  1  0  0  0  0
 11 13  1  0  0  0  0
 12 13  1  0  0  0  0
 13 18  1  0  0  0  0
 13 17  1  0  0  0  0
 14 11  1  0  0  0  0
 15 12  1  0  0  0  0
 16 12  1  0  0  0  0
 19 20  1  0  0  0  0
 19  9  1  0  0  0  0
 21 19  1  0  0  0  0
 22 19  1  0  0  0  0
 23 22  1  0  0  0  0
M  END
>  <minimizedAffinity>
-4.62681007

$$$$

 OpenBabel03242520173D

 23 24  0  0  0  0  0  0  0  0999 V2000
   37.5130   26.6000   41.6420 C   0  0  0  0  0  0  0  0  0  0  0  0
   37.5860   27.8490   40.9910 C   0  0  0  0  0  0  0  0  0  0  0  0
   38.0690   28.9620   41.6780 C   0  0  0  0  0  0  0  0  0  0  0  0
   38.4500   28.7560   42.9730 N   0  0  0  0  0  0  0  0  0  0  0  0
   38.3690   27.5600   43.5630 C   0  0  0  0  0  0  0  0  0  0  0  0
   37.9080   26.4870   42.9190 N   0  0  0  0  0  0  0  0  0  0  0  0
   37.2730   27.9370   39.9850 H   0  0  0  0  0  0  0  0  0  0  0  0
   38.7090   27.5500   44.6020 H   0  0  0  0  0  0  0  0  0  0  0  0
   38.1740   30.2510   41.0960 N   0  0  0  0  0  0  0  0  0  0  0  0
   39.1160   30.6940   41.0430 H   0  0  0  0  0  0  0  0  0  0  0  0
   36.9790   25.4470   40.8860 C   0  0  0  0  0  0  0  0  0  0  0  0
   38.0850   24.4490   40.4600 C   0  0  0  0  0  0  0  0  0  0  0  0
   36.9820   24.0950   41.4050 C   0  0  0  0  0  0  0  0  0  0  0  0
   36.2780   25.7150   40.0620 H   0  0  0  0  0  0  0  0  0  0  0  0
   38.0240   24.0980   39.4100 H   0  0  0  0  0  0  0  0  0  0  0  0
   39.0980   24.6430   40.7990 H   0  0  0  0  0  0  0  0  0  0  0  0
   37.3660   23.9320   42.4540 H   0  0  0  0  0  0  0  0  0  0  0  0
   36.2150   23.3660   41.1080 H   0  0  0  0  0  0  0  0  0  0  0  0
   36.9910   31.2700   40.4280 S   0  0  0  0  0  0  0  0  0  0  0  0
   36.5650   30.8420   39.0480 O   0  0  0  0  0  1  0  0  0  0  0  0
   37.3210   32.7020   40.3620 O   0  0  0  0  0  1  0  0  0  0  0  0
   35.5880   31.0990   41.3740 O   0  0  0  0  0  0  0  0  0  0  0  0
   35.8600   31.3750   42.2960 H   0  0  0  0  0  0  0  0  0  0  0  0
  1  6  1  0  0  0  0
  2  1  2  0  0  0  0
  2  3  1  0  0  0  0
  3  4  2  0  0  0  0
  4  5  1  0  0  0  0
  5  8  1  0  0  0  0
  6  5  2  0  0  0  0
  7  2  1  0  0  0  0
  9  3  1  0  0  0  0
 10  9  1  0  0  0  0
 11 13  1  0  0  0  0
 11  1  1  0  0  0  0
 12 16  1  0  0  0  0
 12 11  1  0  0  0  0
 12 13  1  0  0  0  0
 13 17  1  0  0  0  0
 14 11  1  0  0  0  0
 15 12  1  0  0  0  0
 18 13  1  0  0  0  0
 19  9  1  0  0  0  0
 19 22  1  0  0  0  0
 20 19  1  0  0  0  0
 21 19  1  0  0  0  0
 22 23  1  0  0  0  0
M  END
>  <minimizedAffinity>
-4.57461071

$$$$

 OpenBabel03242520173D

 23 24  0  0  0  0  0  0  0  0999 V2000
   39.1500   25.9690   43.0330 C   0  0  0  0  0  0  0  0  0  0  0  0
   38.4960   27.2120   42.9060 C   0  0  0  0  0  0  0  0  0  0  0  0
   37.2470   27.2800   42.2880 C   0  0  0  0  0  0  0  0  0  0  0  0
   36.7310   26.0990   41.8370 N   0  0  0  0  0  0  0  0  0  0  0  0
   37.3740   24.9370   41.9710 C   0  0  0  0  0  0  0  0  0  0  0  0
   38.5690   24.8570   42.5590 N   0  0  0  0  0  0  0  0  0  0  0  0
   38.9550   28.0890   43.2790 H   0  0  0  0  0  0  0  0  0  0  0  0
   36.8370   24.0780   41.5600 H   0  0  0  0  0  0  0  0  0  0  0  0
   36.5260   28.4890   42.1220 N   0  0  0  0  0  0  0  0  0  0  0  0
   35.5830   28.5670   42.5590 H   0  0  0  0  0  0  0  0  0  0  0  0
   40.4790   25.9410   43.6790 C   0  0  0  0  0  0  0  0  0  0  0  0
   41.6400   25.8910   42.6530 C   0  0  0  0  0  0  0  0  0  0  0  0
   41.4220   27.0360   43.5900 C   0  0  0  0  0  0  0  0  0  0  0  0
   40.5800   25.1970   44.5030 H   0  0  0  0  0  0  0  0  0  0  0  0
   42.4390   25.1570   42.8810 H   0  0  0  0  0  0  0  0  0  0  0  0
   41.3860   25.9490   41.5990 H   0  0  0  0  0  0  0  0  0  0  0  0
   41.0990   27.9690   43.0430 H   0  0  0  0  0  0  0  0  0  0  0  0
   42.1450   27.2360   44.3930 H   0  0  0  0  0  0  0  0  0  0  0  0
   36.9270   29.9210   41.3000 S   0  0  0  0  0  0  0  0  0  0  0  0
   37.0860   29.7150   39.8160 O   0  0  0  0  0  1  0  0  0  0  0  0
   38.1200   30.6370   41.7750 O   0  0  0  0  0  1  0  0  0  0  0  0
   35.5950   30.9700   41.4390 O   0  0  0  0  0  0  0  0  0  0  0  0
   35.4760   31.1100   42.4220 H   0  0  0  0  0  0  0  0  0  0  0  0
  1 11  1  0  0  0  0
  2  1  1  0  0  0  0
  2  7  1  0  0  0  0
  3  2  2  0  0  0  0
  4  5  2  0  0  0  0
  4  3  1  0  0  0  0
  5  6  1  0  0  0  0
  6  1  2  0  0  0  0
  8  5  1  0  0  0  0
  9  3  1  0  0  0  0
  9 10  1  0  0  0  0
 11 14  1  0  0  0  0
 12 15  1  0  0  0  0
 12 13  1  0  0  0  0
 12 11  1  0  0  0  0
 13 11  1  0  0  0  0
 13 18  1  0  0  0  0
 16 12  1  0  0  0  0
 17 13  1  0  0  0  0
 19 22  1  0  0  0  0
 19 21  1  0  0  0  0
 19  9  1  0  0  0  0
 20 19  1  0  0  0  0
 22 23  1  0  0  0  0
M  END
>  <minimizedAffinity>
-4.42658186

$$$$

 OpenBabel03242520173D

 23 24  0  0  0  0  0  0  0  0999 V2000
   36.6790   30.6690   39.0580 C   0  0  0  0  0  0  0  0  0  0  0  0
   37.8120   31.4430   38.7330 C   0  0  0  0  0  0  0  0  0  0  0  0
   38.2860   31.4640   37.4210 C   0  0  0  0  0  0  0  0  0  0  0  0
   37.5960   30.7080   36.5180 N   0  0  0  0  0  0  0  0  0  0  0  0
   36.5260   29.9830   36.8540 C   0  0  0  0  0  0  0  0  0  0  0  0
   36.0610   29.9540   38.1050 N   0  0  0  0  0  0  0  0  0  0  0  0
   38.2980   32.0050   39.4850 H   0  0  0  0  0  0  0  0  0  0  0  0
   36.0800   29.4300   36.0240 H   0  0  0  0  0  0  0  0  0  0  0  0
   39.4170   32.2160   37.0150 N   0  0  0  0  0  0  0  0  0  0  0  0
   39.2870   32.9470   36.2830 H   0  0  0  0  0  0  0  0  0  0  0  0
   36.2160   30.6600   40.4620 C   0  0  0  0  0  0  0  0  0  0  0  0
   36.0230   29.2260   41.0170 C   0  0  0  0  0  0  0  0  0  0  0  0
   37.0350   30.1860   41.5580 C   0  0  0  0  0  0  0  0  0  0  0  0
   35.3580   31.3390   40.6740 H   0  0  0  0  0  0  0  0  0  0  0  0
   35.0850   29.0620   41.5830 H   0  0  0  0  0  0  0  0  0  0  0  0
   36.2990   28.3940   40.3760 H   0  0  0  0  0  0  0  0  0  0  0  0
   38.0900   29.8570   41.3270 H   0  0  0  0  0  0  0  0  0  0  0  0
   36.9220   30.5900   42.5740 H   0  0  0  0  0  0  0  0  0  0  0  0
   41.0370   32.1510   37.5200 S   0  0  0  0  0  0  0  0  0  0  0  0
   41.7550   30.9250   37.0200 O   0  0  0  0  0  1  0  0  0  0  0  0
   41.2760   32.2410   38.9690 O   0  0  0  0  0  1  0  0  0  0  0  0
   41.8480   33.4470   36.7750 O   0  0  0  0  0  0  0  0  0  0  0  0
   41.3760   34.2690   37.0950 H   0  0  0  0  0  0  0  0  0  0  0  0
  1 11  1  0  0  0  0
  2  1  1  0  0  0  0
  2  7  1  0  0  0  0
  3  2  2  0  0  0  0
  4  5  2  0  0  0  0
  4  3  1  0  0  0  0
  5  6  1  0  0  0  0
  6  1  2  0  0  0  0
  8  5  1  0  0  0  0
  9  3  1  0  0  0  0
  9 19  1  0  0  0  0
 10  9  1  0  0  0  0
 11 14  1  0  0  0  0
 11 12  1  0  0  0  0
 11 13  1  0  0  0  0
 12 13  1  0  0  0  0
 12 15  1  0  0  0  0
 13 18  1  0  0  0  0
 16 12  1  0  0  0  0
 17 13  1  0  0  0  0
 19 21  1  0  0  0  0
 20 19  1  0  0  0  0
 22 23  1  0  0  0  0
 22 19  1  0  0  0  0
M  END
>  <minimizedAffinity>
-4.30019045

$$$$

 OpenBabel03242520173D

 23 24  0  0  0  0  0  0  0  0999 V2000
   36.5330   29.3580   41.1690 C   0  0  0  0  0  0  0  0  0  0  0  0
   36.4090   27.9630   41.3280 C   0  0  0  0  0  0  0  0  0  0  0  0
   37.1860   27.3000   42.2790 C   0  0  0  0  0  0  0  0  0  0  0  0
   38.0360   28.0770   43.0110 N   0  0  0  0  0  0  0  0  0  0  0  0
   38.1320   29.3980   42.8390 C   0  0  0  0  0  0  0  0  0  0  0  0
   37.3960   30.0450   41.9320 N   0  0  0  0  0  0  0  0  0  0  0  0
   35.7290   27.4220   40.7240 H   0  0  0  0  0  0  0  0  0  0  0  0
   38.8560   29.8840   43.4970 H   0  0  0  0  0  0  0  0  0  0  0  0
   37.1200   25.9020   42.4990 N   0  0  0  0  0  0  0  0  0  0  0  0
   36.8460   25.5630   43.4470 H   0  0  0  0  0  0  0  0  0  0  0  0
   35.7050   30.0220   40.1390 C   0  0  0  0  0  0  0  0  0  0  0  0
   36.4850   30.2890   38.8270 C   0  0  0  0  0  0  0  0  0  0  0  0
   35.3070   29.3710   38.9090 C   0  0  0  0  0  0  0  0  0  0  0  0
   35.1290   30.9040   40.5030 H   0  0  0  0  0  0  0  0  0  0  0  0
   36.3480   31.2990   38.3940 H   0  0  0  0  0  0  0  0  0  0  0  0
   37.5040   29.9180   38.7610 H   0  0  0  0  0  0  0  0  0  0  0  0
   35.6060   28.2920   38.7600 H   0  0  0  0  0  0  0  0  0  0  0  0
   34.3690   29.6320   38.3990 H   0  0  0  0  0  0  0  0  0  0  0  0
   37.4180   24.5950   41.4560 S   0  0  0  0  0  0  0  0  0  0  0  0
   38.2740   24.9760   40.2760 O   0  0  0  0  0  1  0  0  0  0  0  0
   36.2370   23.8900   40.9340 O   0  0  0  0  0  1  0  0  0  0  0  0
   38.3620   23.4700   42.3150 O   0  0  0  0  0  0  0  0  0  0  0  0
   37.8050   23.2140   43.1060 H   0  0  0  0  0  0  0  0  0  0  0  0
  1  2  2  0  0  0  0
  1  6  1  0  0  0  0
  2  3  1  0  0  0  0
  3  9  1  0  0  0  0
  3  4  2  0  0  0  0
  5  4  1  0  0  0  0
  5  8  1  0  0  0  0
  6  5  2  0  0  0  0
  7  2  1  0  0  0  0
  9 10  1  0  0  0  0
 11 14  1  0  0  0  0
 11  1  1  0  0  0  0
 12 13  1  0  0  0  0
 12 11  1  0  0  0  0
 13 11  1  0  0  0  0
 15 12  1  0  0  0  0
 16 12  1  0  0  0  0
 17 13  1  0  0  0  0
 18 13  1  0  0  0  0
 19 22  1  0  0  0  0
 19  9  1  0  0  0  0
 20 19  1  0  0  0  0
 21 19  1  0  0  0  0
 22 23  1  0  0  0  0
M  END
>  <minimizedAffinity>
-4.23978233

$$$$

 OpenBabel03242520173D

 23 24  0  0  0  0  0  0  0  0999 V2000
   36.5570   28.6380   41.3690 C   0  0  0  0  0  0  0  0  0  0  0  0
   36.0550   28.4280   40.0690 C   0  0  0  0  0  0  0  0  0  0  0  0
   35.8360   29.5160   39.2240 C   0  0  0  0  0  0  0  0  0  0  0  0
   36.1340   30.7470   39.7350 N   0  0  0  0  0  0  0  0  0  0  0  0
   36.6090   30.9160   40.9720 C   0  0  0  0  0  0  0  0  0  0  0  0
   36.8230   29.8840   41.7900 N   0  0  0  0  0  0  0  0  0  0  0  0
   35.8450   27.4450   39.7380 H   0  0  0  0  0  0  0  0  0  0  0  0
   36.7990   31.9580   41.2390 H   0  0  0  0  0  0  0  0  0  0  0  0
   35.3340   29.3880   37.9050 N   0  0  0  0  0  0  0  0  0  0  0  0
   35.9220   29.7340   37.1160 H   0  0  0  0  0  0  0  0  0  0  0  0
   36.7610   27.4610   42.2410 C   0  0  0  0  0  0  0  0  0  0  0  0
   37.9750   27.6230   43.1890 C   0  0  0  0  0  0  0  0  0  0  0  0
   36.5660   27.5000   43.6750 C   0  0  0  0  0  0  0  0  0  0  0  0
   36.7360   26.4810   41.7110 H   0  0  0  0  0  0  0  0  0  0  0  0
   38.6440   26.7410   43.2540 H   0  0  0  0  0  0  0  0  0  0  0  0
   38.5020   28.5720   43.1770 H   0  0  0  0  0  0  0  0  0  0  0  0
   36.1950   28.4620   44.1330 H   0  0  0  0  0  0  0  0  0  0  0  0
   36.2530   26.6070   44.2350 H   0  0  0  0  0  0  0  0  0  0  0  0
   33.8730   28.7420   37.3270 S   0  0  0  0  0  0  0  0  0  0  0  0
   33.8680   27.2360   37.3130 O   0  0  0  0  0  1  0  0  0  0  0  0
   33.4360   29.1960   35.9980 O   0  0  0  0  0  1  0  0  0  0  0  0
   32.6620   29.1570   38.4470 O   0  0  0  0  0  0  0  0  0  0  0  0
   32.6600   30.1570   38.4700 H   0  0  0  0  0  0  0  0  0  0  0  0
  1  6  1  0  0  0  0
  1 11  1  0  0  0  0
  2  1  2  0  0  0  0
  3  4  2  0  0  0  0
  3  2  1  0  0  0  0
  4  5  1  0  0  0  0
  5  8  1  0  0  0  0
  5  6  2  0  0  0  0
  7  2  1  0  0  0  0
  9  3  1  0  0  0  0
 10  9  1  0  0  0  0
 11 12  1  0  0  0  0
 11 13  1  0  0  0  0
 12 15  1  0  0  0  0
 12 13  1  0  0  0  0
 13 17  1  0  0  0  0
 13 18  1  0  0  0  0
 14 11  1  0  0  0  0
 16 12  1  0  0  0  0
 19  9  1  0  0  0  0
 19 22  1  0  0  0  0
 20 19  1  0  0  0  0
 21 19  1  0  0  0  0
 22 23  1  0  0  0  0
M  END
>  <minimizedAffinity>
-4.23963547

$$$$

 OpenBabel03242520173D

 23 24  0  0  0  0  0  0  0  0999 V2000
   40.2840   27.3320   43.2850 C   0  0  0  0  0  0  0  0  0  0  0  0
   39.3580   28.3610   43.0180 C   0  0  0  0  0  0  0  0  0  0  0  0
   38.0550   28.0410   42.6380 C   0  0  0  0  0  0  0  0  0  0  0  0
   37.7610   26.7110   42.5490 N   0  0  0  0  0  0  0  0  0  0  0  0
   38.6600   25.7580   42.8080 C   0  0  0  0  0  0  0  0  0  0  0  0
   39.9100   26.0490   43.1730 N   0  0  0  0  0  0  0  0  0  0  0  0
   39.6550   29.3730   43.1070 H   0  0  0  0  0  0  0  0  0  0  0  0
   38.2780   24.7400   42.6930 H   0  0  0  0  0  0  0  0  0  0  0  0
   37.0660   29.0160   42.3520 N   0  0  0  0  0  0  0  0  0  0  0  0
   36.1960   29.0210   42.9270 H   0  0  0  0  0  0  0  0  0  0  0  0
   41.6610   27.7120   43.6700 C   0  0  0  0  0  0  0  0  0  0  0  0
   42.6500   27.6540   42.4790 C   0  0  0  0  0  0  0  0  0  0  0  0
   42.3060   28.9190   43.1990 C   0  0  0  0  0  0  0  0  0  0  0  0
   42.0410   27.2110   44.5910 H   0  0  0  0  0  0  0  0  0  0  0  0
   43.6200   27.1620   42.6950 H   0  0  0  0  0  0  0  0  0  0  0  0
   42.2480   27.4180   41.4990 H   0  0  0  0  0  0  0  0  0  0  0  0
   41.7060   29.6200   42.5490 H   0  0  0  0  0  0  0  0  0  0  0  0
   43.0670   29.4350   43.8010 H   0  0  0  0  0  0  0  0  0  0  0  0
   37.0230   30.2500   41.1860 S   0  0  0  0  0  0  0  0  0  0  0  0
   36.9490   29.7190   39.7780 O   0  0  0  0  0  1  0  0  0  0  0  0
   38.1190   31.2310   41.2290 O   0  0  0  0  0  1  0  0  0  0  0  0
   35.5600   31.0910   41.3970 O   0  0  0  0  0  0  0  0  0  0  0  0
   35.5950   31.4440   42.3320 H   0  0  0  0  0  0  0  0  0  0  0  0
  1 11  1  0  0  0  0
  2  7  1  0  0  0  0
  2  1  2  0  0  0  0
  3  2  1  0  0  0  0
  4  3  2  0  0  0  0
  4  5  1  0  0  0  0
  5  6  2  0  0  0  0
  6  1  1  0  0  0  0
  8  5  1  0  0  0  0
  9  3  1  0  0  0  0
  9 10  1  0  0  0  0
 11 14  1  0  0  0  0
 12 15  1  0  0  0  0
 12 13  1  0  0  0  0
 12 11  1  0  0  0  0
 13 11  1  0  0  0  0
 13 18  1  0  0  0  0
 16 12  1  0  0  0  0
 17 13  1  0  0  0  0
 19 21  1  0  0  0  0
 19 22  1  0  0  0  0
 19  9  1  0  0  0  0
 20 19  1  0  0  0  0
 22 23  1  0  0  0  0
M  END
>  <minimizedAffinity>
-4.23012781

$$$$
