REMARK  Name = 
REMARK  6 active torsions:
REMARK  status: ('A' for Active; 'I' for Inactive)
REMARK    1  A    between atoms: C_1  and  C_2
REMARK    2  A    between atoms: C_1  and  C_9
REMARK    3  A    between atoms: C_3  and  S_8
REMARK    4  A    between atoms: C_9  and  C_10
REMARK    5  A    between atoms: N_23  and  S_25
REMARK    6  A    between atoms: S_25  and  O_28
REMARK                            x       y       z     vdW  Elec       q    Type
REMARK                         _______ _______ _______ _____ _____    ______ ____
ROOT
ATOM      1  C   UNL     1      45.607  34.541  41.668  0.00  0.00    +0.000 C 
ATOM      2  H   UNL     1      45.855  35.510  42.173  0.00  0.00    +0.000 HD
ATOM      3  H   UNL     1      45.636  33.757  42.457  0.00  0.00    +0.000 HD
ENDROOT
BRANCH   1   4
ATOM      4  C   UNL     1      44.250  34.645  41.066  0.00  0.00    +0.000 A 
ATOM      5  C   UNL     1      43.228  35.403  41.739  0.00  0.00    +0.000 A 
ATOM      6  S   UNL     1      41.790  35.209  40.589  0.00  0.00    +0.000 S 
ATOM      7  C   UNL     1      42.836  34.152  39.432  0.00  0.00    +0.000 A 
ATOM      8  N   UNL     1      43.843  34.108  39.939  0.00  0.00    +0.000 NA
ATOM      9  H   UNL     1      43.367  35.935  42.703  0.00  0.00    +0.000 HD
ATOM     10  N   UNL     1      42.166  33.669  38.243  0.00  0.00    +0.000 N 
ATOM     11  H   UNL     1      42.805  33.543  37.439  0.00  0.00    +0.000 HD
BRANCH  10  12
ATOM     12  S   UNL     1      40.499  33.324  38.119  0.00  0.00    +0.000 S 
ATOM     13  O   UNL     1      40.271  31.926  37.590  0.00  0.00    +0.000 OA
ATOM     14  O   UNL     1      39.782  33.437  39.421  0.00  0.00    +0.000 OA
BRANCH  12  15
ATOM     15  O   UNL     1      39.843  34.352  36.941  0.00  0.00    +0.000 OA
ATOM     16  H   UNL     1      39.269  35.035  37.381  0.00  0.00    +0.000 HD
ENDBRANCH  12  15
ENDBRANCH  10  12
ENDBRANCH   1   4
BRANCH   1  17
ATOM     17  C   UNL     1      46.692  34.236  40.674  0.00  0.00    +0.000 C 
ATOM     18  H   UNL     1      46.447  33.322  40.144  0.00  0.00    +0.000 HD
ATOM     19  H   UNL     1      46.685  35.043  39.885  0.00  0.00    +0.000 HD
BRANCH  17  20
ATOM     20  C   UNL     1      48.043  34.181  41.290  0.00  0.00    +0.000 A 
ATOM     21  C   UNL     1      48.742  32.976  41.183  0.00  0.00    +0.000 A 
ATOM     22  C   UNL     1      50.004  32.875  41.741  0.00  0.00    +0.000 A 
ATOM     23  N   UNL     1      50.520  33.972  42.382  0.00  0.00    +0.000 NA
ATOM     24  C   UNL     1      49.815  35.119  42.465  0.00  0.00    +0.000 A 
ATOM     25  N   UNL     1      48.611  35.197  41.926  0.00  0.00    +0.000 NA
ATOM     26  H   UNL     1      50.567  31.961  41.675  0.00  0.00    +0.000 HD
ATOM     27  H   UNL     1      50.268  35.956  42.982  0.00  0.00    +0.000 HD
BRANCH  21  28
ATOM     28  S   UNL     1      48.000  31.574  40.324  0.00  0.00    +0.000 S 
ATOM     29  H   UNL     1      47.443  30.667  41.232  0.00  0.00    +0.000 HD
ENDBRANCH  21  28
ENDBRANCH  17  20
ENDBRANCH   1  17
TORSDOF 6
