
 OpenBabel03252508423D

 29 30  0  0  0  0  0  0  0  0999 V2000
   45.9110   33.9030   40.4300 C   0  0  0  0  0  0  0  0  0  0  0  0
   44.5870   34.2750   40.6340 C   0  0  0  0  0  0  0  0  0  0  0  0
   44.2940   35.1200   41.6860 C   0  0  0  0  0  0  0  0  0  0  0  0
   45.2920   35.5710   42.4990 C   0  0  0  0  0  0  0  0  0  0  0  0
   46.6000   35.2260   42.3270 C   0  0  0  0  0  0  0  0  0  0  0  0
   46.8540   34.3750   41.2590 C   0  0  0  0  0  0  0  0  0  0  0  0
   43.2860   35.4450   41.8990 H   0  0  0  0  0  0  0  0  0  0  0  0
   45.0640   36.2360   43.3290 H   0  0  0  0  0  0  0  0  0  0  0  0
   47.4500   35.5370   42.9220 H   0  0  0  0  0  0  0  0  0  0  0  0
   47.8660   34.0360   41.0290 H   0  0  0  0  0  0  0  0  0  0  0  0
   46.7780   32.4890   37.0380 C   0  0  0  0  0  0  0  0  0  0  0  0
   46.5590   33.4420   38.0540 C   0  0  0  0  0  0  0  0  0  0  0  0
   46.1660   33.0100   39.3070 C   0  0  0  0  0  0  0  0  0  0  0  0
   46.0110   31.6750   39.4890 N   0  0  0  0  0  0  0  0  0  0  0  0
   46.2240   30.7690   38.5070 C   0  0  0  0  0  0  0  0  0  0  0  0
   46.6060   31.1780   37.2870 N   0  0  0  0  0  0  0  0  0  0  0  0
   47.0790   32.9810   36.1240 H   0  0  0  0  0  0  0  0  0  0  0  0
   46.6670   34.5050   37.9640 H   0  0  0  0  0  0  0  0  0  0  0  0
   46.0970   29.7090   38.6660 H   0  0  0  0  0  0  0  0  0  0  0  0
   43.5150   33.7690   39.7310 C   0  0  0  0  0  0  0  0  0  0  0  0
   43.6290   32.6560   39.7250 H   0  0  0  0  0  0  0  0  0  0  0  0
   43.6930   34.1320   38.7190 H   0  0  0  0  0  0  0  0  0  0  0  0
   42.1830   34.0490   40.1840 N   0  0  0  0  0  0  0  0  0  0  0  0
   42.0980   34.8020   40.8610 H   0  0  0  0  0  0  0  0  0  0  0  0
   41.3170   32.6230   40.6040 S   0  0  0  0  0  0  0  0  0  0  0  0
   41.1440   31.7330   39.4070 O   0  0  0  0  0  1  0  0  0  0  0  0
   40.0060   32.9300   41.2220 O   0  0  0  0  0  1  0  0  0  0  0  0
   42.2810   31.8070   41.7320 O   0  0  0  0  0  0  0  0  0  0  0  0
   43.2080   31.6970   41.3990 H   0  0  0  0  0  0  0  0  0  0  0  0
  1  2  2  0  0  0  0
  1  6  1  0  0  0  0
  2  3  1  0  0  0  0
  3  7  1  0  0  0  0
  3  4  2  0  0  0  0
  4  8  1  0  0  0  0
  5  4  1  0  0  0  0
  5  9  1  0  0  0  0
  6  5  2  0  0  0  0
 10  6  1  0  0  0  0
 11 16  2  0  0  0  0
 11 12  1  0  0  0  0
 12 13  2  0  0  0  0
 13 14  1  0  0  0  0
 13  1  1  0  0  0  0
 15 19  1  0  0  0  0
 15 14  2  0  0  0  0
 16 15  1  0  0  0  0
 17 11  1  0  0  0  0
 18 12  1  0  0  0  0
 20 23  1  0  0  0  0
 20  2  1  0  0  0  0
 21 20  1  0  0  0  0
 22 20  1  0  0  0  0
 23 25  1  0  0  0  0
 23 24  1  0  0  0  0
 25 27  1  0  0  0  0
 25 28  1  0  0  0  0
 26 25  1  0  0  0  0
 29 28  1  0  0  0  0
M  END
>  <minimizedAffinity>
-3.48749208

>  <minimizedRMSD>
7.2293148

$$$$
