
 OpenBabel03252509353D

 42 43  0  0  1  0  0  0  0  0999 V2000
   44.5450   35.4660   44.1400 O   0  0  0  0  0  0  0  0  0  0  0  0
   45.4100   34.2440   44.3820 P   0  0  1  0  0  0  0  0  0  0  0  0
   44.7160   32.8670   43.6780 O   0  0  0  0  0  0  0  0  0  0  0  0
   44.2590   33.1790   42.8500 H   0  0  0  0  0  0  0  0  0  0  0  0
   46.9110   34.5320   43.7090 O   0  0  0  0  0  0  0  0  0  0  0  0
   47.0300   33.8300   42.5030 C   0  0  1  0  0  0  0  0  0  0  0  0
   46.4470   34.6640   41.3580 C   0  0  0  0  0  0  0  0  0  0  0  0
   46.9410   33.8860   40.1680 C   0  0  0  0  0  0  0  0  0  0  0  0
   48.2260   33.2120   40.6110 C   0  0  0  0  0  0  0  0  0  0  0  0
   48.4440   33.6790   42.0370 C   0  0  1  0  0  0  0  0  0  0  0  0
   46.5020   32.8780   42.4910 H   0  0  0  0  0  0  0  0  0  0  0  0
   46.7230   35.7120   41.3890 H   0  0  0  0  0  0  0  0  0  0  0  0
   45.3470   34.5890   41.3680 H   0  0  0  0  0  0  0  0  0  0  0  0
   46.1890   33.1080   39.8810 H   0  0  0  0  0  0  0  0  0  0  0  0
   47.0690   34.5500   39.3060 H   0  0  0  0  0  0  0  0  0  0  0  0
   48.1140   32.0950   40.6120 H   0  0  0  0  0  0  0  0  0  0  0  0
   49.0710   33.4720   39.9550 H   0  0  0  0  0  0  0  0  0  0  0  0
   48.9510   32.8590   42.6070 H   0  0  0  0  0  0  0  0  0  0  0  0
   49.2200   34.9680   42.0870 C   0  0  0  0  0  0  0  0  0  0  0  0
   49.8600   35.0400   41.1670 H   0  0  0  0  0  0  0  0  0  0  0  0
   48.5840   35.8800   42.0680 H   0  0  0  0  0  0  0  0  0  0  0  0
   50.0000   35.0700   43.2170 O   0  0  0  0  0  0  0  0  0  0  0  0
   50.9350   34.8260   42.9560 H   0  0  0  0  0  0  0  0  0  0  0  0
   45.5410   33.9240   46.0140 O   0  0  0  0  0  0  0  0  0  0  0  0
   46.4520   32.9350   46.2030 C   0  0  0  0  0  0  0  0  0  0  0  0
   46.7890   32.3680   45.3400 H   0  0  0  0  0  0  0  0  0  0  0  0
   47.3860   33.4210   46.6180 H   0  0  0  0  0  0  0  0  0  0  0  0
   45.1940   31.5190   49.4040 C   0  0  0  0  0  0  0  0  0  0  0  0
   45.5750   32.4690   48.4510 C   0  0  0  0  0  0  0  0  0  0  0  0
   46.0380   31.9670   47.2310 C   0  0  0  0  0  0  0  0  0  0  0  0
   46.0910   30.6120   47.0390 N   0  0  0  0  0  0  0  0  0  0  0  0
   45.7140   29.7280   47.9860 C   0  0  0  0  0  0  0  0  0  0  0  0
   45.2720   30.1830   49.1520 N   0  0  0  0  0  0  0  0  0  0  0  0
   44.8320   31.8970   50.3580 H   0  0  0  0  0  0  0  0  0  0  0  0
   45.5000   33.5080   48.6860 H   0  0  0  0  0  0  0  0  0  0  0  0
   45.7980   28.3330   47.7160 N   0  0  0  0  0  0  0  0  0  0  0  0
   46.5580   27.7570   48.1400 H   0  0  0  0  0  0  0  0  0  0  0  0
   44.6560   27.5460   46.6820 S   0  0  0  0  0  0  0  0  0  0  0  0
   43.7190   28.5590   46.0860 O   0  0  0  0  0  1  0  0  0  0  0  0
   45.4340   26.8280   45.6160 O   0  0  0  0  0  1  0  0  0  0  0  0
   43.7750   26.4510   47.6220 O   0  0  0  0  0  0  0  0  0  0  0  0
   43.5960   26.8390   48.5230 H   0  0  0  0  0  0  0  0  0  0  0  0
  2  1  2  6  0  0  0
  2 24  1  0  0  0  0
  3  2  1  0  0  0  0
  4  3  1  0  0  0  0
  5  2  1  0  0  0  0
  6 11  1  1  0  0  0
  6  5  1  0  0  0  0
  7 13  1  0  0  0  0
  7 12  1  0  0  0  0
  7  6  1  0  0  0  0
  8  9  1  0  0  0  0
  8  7  1  0  0  0  0
  9 16  1  0  0  0  0
  9 10  1  0  0  0  0
 10 19  1  0  0  0  0
 10  6  1  0  0  0  0
 10 18  1  1  0  0  0
 14  8  1  0  0  0  0
 15  8  1  0  0  0  0
 17  9  1  0  0  0  0
 19 22  1  0  0  0  0
 20 19  1  0  0  0  0
 21 19  1  0  0  0  0
 23 22  1  0  0  0  0
 24 25  1  0  0  0  0
 25 27  1  0  0  0  0
 25 30  1  0  0  0  0
 26 25  1  0  0  0  0
 28 34  1  0  0  0  0
 29 35  1  0  0  0  0
 29 28  2  0  0  0  0
 30 29  1  0  0  0  0
 31 30  2  0  0  0  0
 31 32  1  0  0  0  0
 32 33  2  0  0  0  0
 33 28  1  0  0  0  0
 36 32  1  0  0  0  0
 36 37  1  0  0  0  0
 38 41  1  0  0  0  0
 38 36  1  0  0  0  0
 39 38  1  0  0  0  0
 40 38  1  0  0  0  0
 41 42  1  0  0  0  0
M  END
>  <minimizedAffinity>
-5.81175995

>  <minimizedRMSD>
1.10491586

$$$$
