
 OpenBabel03252508423D

 29 30  0  0  0  0  0  0  0  0999 V2000
   45.6070   34.1170   41.3340 C   0  0  0  0  0  0  0  0  0  0  0  0
   46.8960   34.3420   40.8650 C   0  0  0  0  0  0  0  0  0  0  0  0
   47.2130   33.9360   39.5840 C   0  0  0  0  0  0  0  0  0  0  0  0
   46.2710   33.3270   38.8070 C   0  0  0  0  0  0  0  0  0  0  0  0
   44.9980   33.0900   39.2360 C   0  0  0  0  0  0  0  0  0  0  0  0
   44.7190   33.5140   40.5290 C   0  0  0  0  0  0  0  0  0  0  0  0
   48.1960   34.0810   39.1610 H   0  0  0  0  0  0  0  0  0  0  0  0
   46.5170   33.0050   37.7980 H   0  0  0  0  0  0  0  0  0  0  0  0
   44.1930   32.6170   38.6880 H   0  0  0  0  0  0  0  0  0  0  0  0
   43.7310   33.3750   40.9730 H   0  0  0  0  0  0  0  0  0  0  0  0
   44.5950   36.1440   44.3530 C   0  0  0  0  0  0  0  0  0  0  0  0
   44.8300   35.8160   43.0030 C   0  0  0  0  0  0  0  0  0  0  0  0
   45.3250   34.5640   42.6920 C   0  0  0  0  0  0  0  0  0  0  0  0
   45.5590   33.7100   43.7190 N   0  0  0  0  0  0  0  0  0  0  0  0
   45.3290   34.0350   45.0130 C   0  0  0  0  0  0  0  0  0  0  0  0
   44.8480   35.2490   45.3250 N   0  0  0  0  0  0  0  0  0  0  0  0
   44.2110   37.1510   44.4310 H   0  0  0  0  0  0  0  0  0  0  0  0
   44.6640   36.4510   42.1550 H   0  0  0  0  0  0  0  0  0  0  0  0
   45.5190   33.3460   45.8210 H   0  0  0  0  0  0  0  0  0  0  0  0
   47.9070   35.0090   41.7330 C   0  0  0  0  0  0  0  0  0  0  0  0
   47.8100   34.5210   42.7360 H   0  0  0  0  0  0  0  0  0  0  0  0
   47.6500   36.0620   41.8430 H   0  0  0  0  0  0  0  0  0  0  0  0
   49.2640   34.8210   41.3080 N   0  0  0  0  0  0  0  0  0  0  0  0
   49.4450   34.9940   40.3230 H   0  0  0  0  0  0  0  0  0  0  0  0
   49.9420   33.3550   41.9010 S   0  0  0  0  0  0  0  0  0  0  0  0
   48.9660   32.6390   42.7900 O   0  0  0  0  0  1  0  0  0  0  0  0
   51.2250   33.5810   42.6060 O   0  0  0  0  0  1  0  0  0  0  0  0
   50.2230   32.3870   40.5410 O   0  0  0  0  0  0  0  0  0  0  0  0
   49.4120   32.3190   39.9740 H   0  0  0  0  0  0  0  0  0  0  0  0
  1 13  1  0  0  0  0
  2  1  1  0  0  0  0
  2 20  1  0  0  0  0
  3  2  2  0  0  0  0
  4  5  2  0  0  0  0
  4  3  1  0  0  0  0
  5  6  1  0  0  0  0
  6 10  1  0  0  0  0
  6  1  2  0  0  0  0
  7  3  1  0  0  0  0
  8  4  1  0  0  0  0
  9  5  1  0  0  0  0
 11 17  1  0  0  0  0
 11 16  1  0  0  0  0
 12 11  2  0  0  0  0
 13 12  1  0  0  0  0
 13 14  2  0  0  0  0
 14 15  1  0  0  0  0
 15 16  2  0  0  0  0
 15 19  1  0  0  0  0
 18 12  1  0  0  0  0
 20 22  1  0  0  0  0
 20 21  1  0  0  0  0
 23 20  1  0  0  0  0
 23 25  1  0  0  0  0
 24 23  1  0  0  0  0
 25 27  1  0  0  0  0
 25 26  1  0  0  0  0
 28 25  1  0  0  0  0
 29 28  1  0  0  0  0
M  END
>  <minimizedAffinity>
-4.85114145

>  <minimizedRMSD>
1.45699227

$$$$
