
 OpenBabel03252505453D

 23 24  0  0  1  0  0  0  0  0999 V2000
   46.3830   32.7470   43.4950 C   0  0  1  0  0  0  0  0  0  0  0  0
   47.9160   32.8150   43.3630 C   0  0  2  0  0  0  0  0  0  0  0  0
   47.2290   32.0740   44.4560 C   0  0  0  0  0  0  0  0  0  0  0  0
   45.8840   32.1530   42.6820 H   0  0  0  0  0  0  0  0  0  0  0  0
   48.3540   32.1590   42.5640 H   0  0  0  0  0  0  0  0  0  0  0  0
   47.3320   32.5460   45.4600 H   0  0  0  0  0  0  0  0  0  0  0  0
   47.2800   30.9690   44.5040 H   0  0  0  0  0  0  0  0  0  0  0  0
   45.7550   34.0570   43.7800 C   0  0  0  0  0  0  0  0  0  0  0  0
   45.2020   34.2710   45.0790 C   0  0  0  0  0  0  0  0  0  0  0  0
   44.6260   35.5050   45.3560 C   0  0  0  0  0  0  0  0  0  0  0  0
   44.6320   36.4440   44.3460 N   0  0  0  0  0  0  0  0  0  0  0  0
   45.1650   36.1950   43.1350 C   0  0  0  0  0  0  0  0  0  0  0  0
   45.7220   35.0210   42.8480 N   0  0  0  0  0  0  0  0  0  0  0  0
   45.2220   33.5020   45.8390 H   0  0  0  0  0  0  0  0  0  0  0  0
   44.1860   35.7490   46.3110 H   0  0  0  0  0  0  0  0  0  0  0  0
   45.1330   36.9870   42.3840 H   0  0  0  0  0  0  0  0  0  0  0  0
   48.6140   34.0230   43.5800 N   0  0  0  0  0  0  0  0  0  0  0  0
   48.1290   34.8090   44.0020 H   0  0  0  0  0  0  0  0  0  0  0  0
   49.6290   34.3880   42.2630 S   0  0  0  0  0  0  0  0  0  0  0  0
   49.5870   35.8390   41.8840 O   0  0  0  0  0  0  0  0  0  0  0  0
   49.1940   33.5130   41.1090 O   0  0  0  0  0  0  0  0  0  0  0  0
   51.2000   33.9280   42.6030 O   0  0  0  0  0  0  0  0  0  0  0  0
   51.6810   34.6330   43.0920 H   0  0  0  0  0  0  0  0  0  0  0  0
  1  4  1  6  0  0  0
  1  8  1  0  0  0  0
  1  3  1  0  0  0  0
  2  5  1  6  0  0  0
  2  1  1  0  0  0  0
  2 17  1  0  0  0  0
  2  3  1  0  0  0  0
  3  7  1  0  0  0  0
  3  6  1  0  0  0  0
  8  9  1  0  0  0  0
  9 10  2  0  0  0  0
  9 14  1  0  0  0  0
 10 15  1  0  0  0  0
 11 10  1  0  0  0  0
 12 11  2  0  0  0  0
 13 12  1  0  0  0  0
 13  8  2  0  0  0  0
 16 12  1  0  0  0  0
 17 18  1  0  0  0  0
 19 22  1  0  0  0  0
 19 17  1  0  0  0  0
 20 19  1  0  0  0  0
 21 19  1  0  0  0  0
 22 23  1  0  0  0  0
M  END
>  <minimizedAffinity>
-4.58716393

>  <minimizedRMSD>
5.47713327

$$$$
