
 OpenBabel03252509353D

 42 43  0  0  1  0  0  0  0  0999 V2000
   44.8020   35.3130   45.0220 O   0  0  0  0  0  0  0  0  0  0  0  0
   45.5970   34.2110   44.3470 P   0  0  1  0  0  0  0  0  0  0  0  0
   44.5620   33.0630   43.6530 O   0  0  0  0  0  0  0  0  0  0  0  0
   43.7610   33.5650   43.3380 H   0  0  0  0  0  0  0  0  0  0  0  0
   46.5470   34.9100   43.1660 O   0  0  0  0  0  0  0  0  0  0  0  0
   46.8160   33.9710   42.1610 C   0  0  1  0  0  0  0  0  0  0  0  0
   46.1000   34.3750   40.8690 C   0  0  0  0  0  0  0  0  0  0  0  0
   46.7510   33.4400   39.8860 C   0  0  0  0  0  0  0  0  0  0  0  0
   48.1360   33.1510   40.4350 C   0  0  0  0  0  0  0  0  0  0  0  0
   48.2400   33.9840   41.6980 C   0  0  1  0  0  0  0  0  0  0  0  0
   46.4830   32.9630   42.3970 H   0  0  0  0  0  0  0  0  0  0  0  0
   46.1680   35.4320   40.6370 H   0  0  0  0  0  0  0  0  0  0  0  0
   45.0350   34.0970   40.9340 H   0  0  0  0  0  0  0  0  0  0  0  0
   46.1680   32.4870   39.8210 H   0  0  0  0  0  0  0  0  0  0  0  0
   46.7610   33.8860   38.8860 H   0  0  0  0  0  0  0  0  0  0  0  0
   48.2410   32.0680   40.7100 H   0  0  0  0  0  0  0  0  0  0  0  0
   48.9240   33.4000   39.7080 H   0  0  0  0  0  0  0  0  0  0  0  0
   48.8870   33.4400   42.4310 H   0  0  0  0  0  0  0  0  0  0  0  0
   48.7510   35.3700   41.4090 C   0  0  0  0  0  0  0  0  0  0  0  0
   49.2630   35.3650   40.4090 H   0  0  0  0  0  0  0  0  0  0  0  0
   47.9530   36.1380   41.3210 H   0  0  0  0  0  0  0  0  0  0  0  0
   49.6130   35.8260   42.3820 O   0  0  0  0  0  0  0  0  0  0  0  0
   50.5440   35.6970   42.0370 H   0  0  0  0  0  0  0  0  0  0  0  0
   46.5340   33.3920   45.4580 O   0  0  0  0  0  0  0  0  0  0  0  0
   46.1470   32.0900   45.4930 C   0  0  0  0  0  0  0  0  0  0  0  0
   45.3120   31.7800   44.8720 H   0  0  0  0  0  0  0  0  0  0  0  0
   47.0250   31.4750   45.1330 H   0  0  0  0  0  0  0  0  0  0  0  0
   45.7200   32.0450   49.1880 C   0  0  0  0  0  0  0  0  0  0  0  0
   45.9760   32.5370   47.9030 C   0  0  0  0  0  0  0  0  0  0  0  0
   45.8810   31.6120   46.8600 C   0  0  0  0  0  0  0  0  0  0  0  0
   45.5530   30.3120   47.1400 N   0  0  0  0  0  0  0  0  0  0  0  0
   45.3140   29.8780   48.3960 C   0  0  0  0  0  0  0  0  0  0  0  0
   45.3990   30.7390   49.4020 N   0  0  0  0  0  0  0  0  0  0  0  0
   45.7900   32.7550   50.0100 H   0  0  0  0  0  0  0  0  0  0  0  0
   46.2250   33.5680   47.7770 H   0  0  0  0  0  0  0  0  0  0  0  0
   44.9790   28.5110   48.6120 N   0  0  0  0  0  0  0  0  0  0  0  0
   44.7910   28.1590   49.5760 H   0  0  0  0  0  0  0  0  0  0  0  0
   44.8710   27.3930   47.2980 S   0  0  0  0  0  0  0  0  0  0  0  0
   43.8980   27.9000   46.2710 O   0  0  0  0  0  1  0  0  0  0  0  0
   46.2480   27.2450   46.7170 O   0  0  0  0  0  1  0  0  0  0  0  0
   44.3180   25.9190   47.9150 O   0  0  0  0  0  0  0  0  0  0  0  0
   43.6320   26.0780   48.6210 H   0  0  0  0  0  0  0  0  0  0  0  0
  2  1  2  1  0  0  0
  2 24  1  0  0  0  0
  3  2  1  0  0  0  0
  4  3  1  0  0  0  0
  5  2  1  0  0  0  0
  6 11  1  1  0  0  0
  6  5  1  0  0  0  0
  7 13  1  0  0  0  0
  7  6  1  0  0  0  0
  8  9  1  0  0  0  0
  8  7  1  0  0  0  0
  9 16  1  0  0  0  0
  9 10  1  0  0  0  0
 10  6  1  0  0  0  0
 10 18  1  1  0  0  0
 12  7  1  0  0  0  0
 14  8  1  0  0  0  0
 15  8  1  0  0  0  0
 17  9  1  0  0  0  0
 19 10  1  0  0  0  0
 19 22  1  0  0  0  0
 20 19  1  0  0  0  0
 21 19  1  0  0  0  0
 23 22  1  0  0  0  0
 24 25  1  0  0  0  0
 25 30  1  0  0  0  0
 26 25  1  0  0  0  0
 27 25  1  0  0  0  0
 28 33  1  0  0  0  0
 28 34  1  0  0  0  0
 29 28  2  0  0  0  0
 30 31  2  0  0  0  0
 30 29  1  0  0  0  0
 31 32  1  0  0  0  0
 32 36  1  0  0  0  0
 32 33  2  0  0  0  0
 35 29  1  0  0  0  0
 36 37  1  0  0  0  0
 38 41  1  0  0  0  0
 38 36  1  0  0  0  0
 39 38  1  0  0  0  0
 40 38  1  0  0  0  0
 41 42  1  0  0  0  0
M  END
>  <minimizedAffinity>
-5.46407652

>  <minimizedRMSD>
0.568467557

$$$$
