
 OpenBabel03252509353D

 42 43  0  0  1  0  0  0  0  0999 V2000
   41.6540   33.4150   40.7210 O   0  0  0  0  0  0  0  0  0  0  0  0
   42.7610   32.5340   41.2670 P   0  0  1  0  0  0  0  0  0  0  0  0
   43.3630   31.5060   40.0620 O   0  0  0  0  0  0  0  0  0  0  0  0
   43.3090   32.0170   39.2080 H   0  0  0  0  0  0  0  0  0  0  0  0
   43.9810   33.5260   41.8300 O   0  0  0  0  0  0  0  0  0  0  0  0
   44.6010   32.9310   42.9360 C   0  0  1  0  0  0  0  0  0  0  0  0
   45.8910   32.2350   42.4950 C   0  0  0  0  0  0  0  0  0  0  0  0
   46.5220   31.9460   43.8300 C   0  0  0  0  0  0  0  0  0  0  0  0
   46.0150   33.0200   44.7750 C   0  0  0  0  0  0  0  0  0  0  0  0
   45.1470   33.9200   43.9180 C   0  0  1  0  0  0  0  0  0  0  0  0
   43.9940   32.1740   43.4290 H   0  0  0  0  0  0  0  0  0  0  0  0
   46.4900   32.8130   41.8000 H   0  0  0  0  0  0  0  0  0  0  0  0
   45.6480   31.2660   42.0280 H   0  0  0  0  0  0  0  0  0  0  0  0
   46.1960   30.9410   44.1980 H   0  0  0  0  0  0  0  0  0  0  0  0
   47.6130   31.9220   43.7390 H   0  0  0  0  0  0  0  0  0  0  0  0
   45.3810   32.5760   45.5860 H   0  0  0  0  0  0  0  0  0  0  0  0
   46.8430   33.5710   45.2490 H   0  0  0  0  0  0  0  0  0  0  0  0
   44.3200   34.3280   44.5540 H   0  0  0  0  0  0  0  0  0  0  0  0
   45.9520   35.0120   43.2650 C   0  0  0  0  0  0  0  0  0  0  0  0
   46.7540   35.3440   43.9780 H   0  0  0  0  0  0  0  0  0  0  0  0
   46.4940   34.6900   42.3500 H   0  0  0  0  0  0  0  0  0  0  0  0
   45.1750   36.0860   42.8900 O   0  0  0  0  0  0  0  0  0  0  0  0
   45.2830   36.7910   43.5940 H   0  0  0  0  0  0  0  0  0  0  0  0
   42.1870   31.5480   42.4840 O   0  0  0  0  0  0  0  0  0  0  0  0
   41.9590   30.3060   41.9820 C   0  0  0  0  0  0  0  0  0  0  0  0
   40.9630   30.0670   41.6230 H   0  0  0  0  0  0  0  0  0  0  0  0
   42.6330   30.1850   41.0820 H   0  0  0  0  0  0  0  0  0  0  0  0
   43.9440   28.3260   44.4270 C   0  0  0  0  0  0  0  0  0  0  0  0
   43.5930   29.3650   43.5580 C   0  0  0  0  0  0  0  0  0  0  0  0
   42.3630   29.2350   42.9080 C   0  0  0  0  0  0  0  0  0  0  0  0
   41.5890   28.1310   43.1470 N   0  0  0  0  0  0  0  0  0  0  0  0
   41.9650   27.1490   43.9930 C   0  0  0  0  0  0  0  0  0  0  0  0
   43.1290   27.2520   44.6220 N   0  0  0  0  0  0  0  0  0  0  0  0
   44.8990   28.4150   44.9400 H   0  0  0  0  0  0  0  0  0  0  0  0
   44.2590   30.1910   43.4320 H   0  0  0  0  0  0  0  0  0  0  0  0
   41.1080   26.0300   44.1920 N   0  0  0  0  0  0  0  0  0  0  0  0
   40.6550   25.5590   43.3770 H   0  0  0  0  0  0  0  0  0  0  0  0
   40.7850   25.4130   45.7730 S   0  0  0  0  0  0  0  0  0  0  0  0
   40.2100   26.4960   46.6400 O   0  0  0  0  0  1  0  0  0  0  0  0
   39.8240   24.2670   45.6230 O   0  0  0  0  0  1  0  0  0  0  0  0
   42.2490   24.8840   46.4330 O   0  0  0  0  0  0  0  0  0  0  0  0
   42.9850   25.5040   46.1740 H   0  0  0  0  0  0  0  0  0  0  0  0
  2  1  2  6  0  0  0
  2  5  1  0  0  0  0
  2 24  1  0  0  0  0
  3  2  1  0  0  0  0
  4  3  1  0  0  0  0
  5  6  1  0  0  0  0
  6 11  1  1  0  0  0
  6 10  1  0  0  0  0
  7  6  1  0  0  0  0
  7  8  1  0  0  0  0
  8 14  1  0  0  0  0
  8  9  1  0  0  0  0
  9 17  1  0  0  0  0
  9 16  1  0  0  0  0
 10 18  1  1  0  0  0
 10  9  1  0  0  0  0
 12  7  1  0  0  0  0
 13  7  1  0  0  0  0
 15  8  1  0  0  0  0
 19 10  1  0  0  0  0
 19 20  1  0  0  0  0
 21 19  1  0  0  0  0
 22 19  1  0  0  0  0
 22 23  1  0  0  0  0
 25 24  1  0  0  0  0
 25 30  1  0  0  0  0
 26 25  1  0  0  0  0
 27 25  1  0  0  0  0
 28 33  1  0  0  0  0
 28 34  1  0  0  0  0
 29 28  2  0  0  0  0
 30 31  2  0  0  0  0
 30 29  1  0  0  0  0
 31 32  1  0  0  0  0
 32 36  1  0  0  0  0
 32 33  2  0  0  0  0
 35 29  1  0  0  0  0
 36 38  1  0  0  0  0
 37 36  1  0  0  0  0
 38 41  1  0  0  0  0
 38 39  1  0  0  0  0
 40 38  1  0  0  0  0
 42 41  1  0  0  0  0
M  END
>  <minimizedAffinity>
-3.30234694

>  <minimizedRMSD>
5.00019884

$$$$
