
 OpenBabel03252503013D

 31 31  0  0  0  0  0  0  0  0999 V2000
   43.6320   33.5260   41.6000 S   0  0  0  0  0  0  0  0  0  0  0  0
   41.2470   32.1730   41.6990 C   0  0  0  0  0  0  0  0  0  0  0  0
   42.1280   32.8430   40.8810 C   0  0  0  0  0  0  0  0  0  0  0  0
   41.8730   32.9950   39.5240 C   0  0  0  0  0  0  0  0  0  0  0  0
   40.7230   32.4530   39.0600 N   0  0  0  0  0  0  0  0  0  0  0  0
   39.8690   31.8000   39.8690 C   0  0  0  0  0  0  0  0  0  0  0  0
   40.1010   31.6470   41.1710 N   0  0  0  0  0  0  0  0  0  0  0  0
   41.4880   32.0780   42.7560 H   0  0  0  0  0  0  0  0  0  0  0  0
   42.5510   33.5140   38.8700 H   0  0  0  0  0  0  0  0  0  0  0  0
   38.6700   31.2440   39.3380 N   0  0  0  0  0  0  0  0  0  0  0  0
   37.7240   31.5630   39.7030 H   0  0  0  0  0  0  0  0  0  0  0  0
   38.6830   30.0460   38.0950 S   0  0  0  0  0  0  0  0  0  0  0  0
   40.0230   29.3680   38.1390 O   0  0  0  0  0  0  0  0  0  0  0  0
   37.5880   29.0590   38.2840 O   0  0  0  0  0  0  0  0  0  0  0  0
   38.5900   30.8120   36.6020 O   0  0  0  0  0  0  0  0  0  0  0  0
   39.4750   31.1390   36.3010 H   0  0  0  0  0  0  0  0  0  0  0  0
   43.4440   35.2980   41.7940 C   0  0  0  0  0  0  0  0  0  0  0  0
   44.3920   35.7700   41.4150 H   0  0  0  0  0  0  0  0  0  0  0  0
   42.5690   35.7140   41.2260 H   0  0  0  0  0  0  0  0  0  0  0  0
   43.2720   35.5460   43.2170 N   0  0  0  0  0  0  0  0  0  0  0  0
   42.6460   36.3880   43.3600 H   0  0  0  0  0  0  0  0  0  0  0  0
   44.7500   35.8750   44.0200 S   0  0  0  0  0  0  0  0  0  0  0  0
   45.9250   35.3660   43.2600 O   0  0  0  0  0  0  0  0  0  0  0  0
   45.8600   34.5140   42.7330 H   0  0  0  0  0  0  0  0  0  0  0  0
   44.8370   37.3760   44.1510 O   0  0  0  0  0  0  0  0  0  0  0  0
   45.5410   37.8850   43.6660 H   0  0  0  0  0  0  0  0  0  0  0  0
   44.7150   35.2370   45.5610 O   0  0  0  0  0  0  0  0  0  0  0  0
   45.4230   34.0520   45.6670 C   0  0  0  0  0  0  0  0  0  0  0  0
   46.0750   33.8160   44.8200 H   0  0  0  0  0  0  0  0  0  0  0  0
   44.6610   33.2290   45.7030 H   0  0  0  0  0  0  0  0  0  0  0  0
   45.9480   34.0050   46.6470 H   0  0  0  0  0  0  0  0  0  0  0  0
  1 17  1  0  0  0  0
  2  8  1  0  0  0  0
  3  1  1  0  0  0  0
  3  2  2  0  0  0  0
  4  3  1  0  0  0  0
  5  4  2  0  0  0  0
  5  6  1  0  0  0  0
  6  7  2  0  0  0  0
  7  2  1  0  0  0  0
  9  4  1  0  0  0  0
 10 11  1  0  0  0  0
 10  6  1  0  0  0  0
 12 13  1  0  0  0  0
 12 14  1  0  0  0  0
 12 10  1  0  0  0  0
 15 12  1  0  0  0  0
 16 15  1  0  0  0  0
 17 20  1  0  0  0  0
 18 17  1  0  0  0  0
 19 17  1  0  0  0  0
 20 21  1  0  0  0  0
 20 22  1  0  0  0  0
 22 25  1  0  0  0  0
 22 27  1  0  0  0  0
 23 22  1  0  0  0  0
 24 23  1  0  0  0  0
 26 25  1  0  0  0  0
 27 28  1  0  0  0  0
 28 30  1  0  0  0  0
 28 31  1  0  0  0  0
 29 28  1  0  0  0  0
M  END
>  <minimizedAffinity>
-4.35776329

>  <minimizedRMSD>
2.43658209

$$$$
