
 OpenBabel03252509353D

 42 43  0  0  1  0  0  0  0  0999 V2000
   44.6910   35.2460   45.0490 O   0  0  0  0  0  0  0  0  0  0  0  0
   45.6030   34.1560   44.5200 P   0  0  1  0  0  0  0  0  0  0  0  0
   44.7020   32.9110   43.8060 O   0  0  0  0  0  0  0  0  0  0  0  0
   43.9100   33.3470   43.3870 H   0  0  0  0  0  0  0  0  0  0  0  0
   46.6240   34.8410   43.3900 O   0  0  0  0  0  0  0  0  0  0  0  0
   46.8120   33.9520   42.3230 C   0  0  1  0  0  0  0  0  0  0  0  0
   46.1050   34.4850   41.0740 C   0  0  0  0  0  0  0  0  0  0  0  0
   46.6730   33.5720   40.0210 C   0  0  0  0  0  0  0  0  0  0  0  0
   48.0430   33.1550   40.5230 C   0  0  0  0  0  0  0  0  0  0  0  0
   48.2250   33.8960   41.8330 C   0  0  1  0  0  0  0  0  0  0  0  0
   46.4120   32.9550   42.5030 H   0  0  0  0  0  0  0  0  0  0  0  0
   46.2430   35.5480   40.9070 H   0  0  0  0  0  0  0  0  0  0  0  0
   45.0240   34.2770   41.1430 H   0  0  0  0  0  0  0  0  0  0  0  0
   46.0250   32.6670   39.9090 H   0  0  0  0  0  0  0  0  0  0  0  0
   46.6980   34.0790   39.0510 H   0  0  0  0  0  0  0  0  0  0  0  0
   48.0780   32.0520   40.7270 H   0  0  0  0  0  0  0  0  0  0  0  0
   48.8350   33.3950   39.7970 H   0  0  0  0  0  0  0  0  0  0  0  0
   48.8450   33.2640   42.5180 H   0  0  0  0  0  0  0  0  0  0  0  0
   48.8270   35.2600   41.6210 C   0  0  0  0  0  0  0  0  0  0  0  0
   49.3250   35.2820   40.6140 H   0  0  0  0  0  0  0  0  0  0  0  0
   48.0820   36.0840   41.5930 H   0  0  0  0  0  0  0  0  0  0  0  0
   49.7300   35.5950   42.6050 O   0  0  0  0  0  0  0  0  0  0  0  0
   50.6460   35.4250   42.2380 H   0  0  0  0  0  0  0  0  0  0  0  0
   46.4720   33.4570   45.7600 O   0  0  0  0  0  0  0  0  0  0  0  0
   46.4430   32.1060   45.6200 C   0  0  0  0  0  0  0  0  0  0  0  0
   45.9240   31.6850   44.7640 H   0  0  0  0  0  0  0  0  0  0  0  0
   47.5150   31.7620   45.5120 H   0  0  0  0  0  0  0  0  0  0  0  0
   45.0610   31.5200   49.0230 C   0  0  0  0  0  0  0  0  0  0  0  0
   45.5290   32.2080   47.8980 C   0  0  0  0  0  0  0  0  0  0  0  0
   45.9400   31.4190   46.8200 C   0  0  0  0  0  0  0  0  0  0  0  0
   45.8660   30.0550   46.9180 N   0  0  0  0  0  0  0  0  0  0  0  0
   45.4080   29.4300   48.0230 C   0  0  0  0  0  0  0  0  0  0  0  0
   45.0120   30.1590   49.0590 N   0  0  0  0  0  0  0  0  0  0  0  0
   44.7380   32.1230   49.8700 H   0  0  0  0  0  0  0  0  0  0  0  0
   45.5520   33.2760   47.9090 H   0  0  0  0  0  0  0  0  0  0  0  0
   45.3590   28.0080   48.0530 N   0  0  0  0  0  0  0  0  0  0  0  0
   45.8980   27.4750   48.7710 H   0  0  0  0  0  0  0  0  0  0  0  0
   44.4170   27.1150   46.9120 S   0  0  0  0  0  0  0  0  0  0  0  0
   43.5220   28.0460   46.1440 O   0  0  0  0  0  1  0  0  0  0  0  0
   45.3710   26.3990   46.0000 O   0  0  0  0  0  1  0  0  0  0  0  0
   43.4690   26.0110   47.7740 O   0  0  0  0  0  0  0  0  0  0  0  0
   43.1450   26.4240   48.6210 H   0  0  0  0  0  0  0  0  0  0  0  0
  2  1  2  1  0  0  0
  2 24  1  0  0  0  0
  3  2  1  0  0  0  0
  4  3  1  0  0  0  0
  5  2  1  0  0  0  0
  6 11  1  1  0  0  0
  6  5  1  0  0  0  0
  7 13  1  0  0  0  0
  7  6  1  0  0  0  0
  8  9  1  0  0  0  0
  8  7  1  0  0  0  0
  9 16  1  0  0  0  0
  9 10  1  0  0  0  0
 10  6  1  0  0  0  0
 10 18  1  1  0  0  0
 12  7  1  0  0  0  0
 14  8  1  0  0  0  0
 15  8  1  0  0  0  0
 17  9  1  0  0  0  0
 19 10  1  0  0  0  0
 19 22  1  0  0  0  0
 20 19  1  0  0  0  0
 21 19  1  0  0  0  0
 23 22  1  0  0  0  0
 25 24  1  0  0  0  0
 25 30  1  0  0  0  0
 26 25  1  0  0  0  0
 27 25  1  0  0  0  0
 28 33  1  0  0  0  0
 28 34  1  0  0  0  0
 29 35  1  0  0  0  0
 29 28  2  0  0  0  0
 30 31  2  0  0  0  0
 30 29  1  0  0  0  0
 31 32  1  0  0  0  0
 32 36  1  0  0  0  0
 32 33  2  0  0  0  0
 36 37  1  0  0  0  0
 38 41  1  0  0  0  0
 38 36  1  0  0  0  0
 39 38  1  0  0  0  0
 40 38  1  0  0  0  0
 41 42  1  0  0  0  0
M  END
>  <minimizedAffinity>
-5.41173935

>  <minimizedRMSD>
0.766434789

$$$$
