
     RDKit          3D

 27 28  0  0  0  0  0  0  0  0999 V2000
   45.0018   35.4849   44.1873 C   0  0  0  0  0  0  0  0  0  0  0  0
   45.9772   34.9333   43.3400 C   0  0  0  0  0  0  0  0  0  0  0  0
   46.7135   33.8312   43.8408 C   0  0  0  0  0  0  0  0  0  0  0  0
   46.4417   33.3774   45.0873 N   0  0  0  0  0  0  0  0  0  0  0  0
   45.4956   33.9415   45.8607 C   0  0  0  0  0  0  0  0  0  0  0  0
   44.7804   34.9843   45.4204 N   0  0  0  0  0  0  0  0  0  0  0  0
   44.2877   36.5503   43.7075 O   0  0  0  0  0  0  0  0  0  0  0  0
   46.1735   35.3158   42.3489 H   0  0  0  0  0  0  0  0  0  0  0  0
   45.2501   33.6030   46.8679 H   0  0  0  0  0  0  0  0  0  0  0  0
   44.7226   37.4641   43.7177 H   0  0  0  0  0  0  0  0  0  0  0  0
   48.5630   32.8714   45.1824 O   0  0  0  0  0  0  0  0  0  0  0  0
   48.9733   32.9899   43.8365 C   0  0  1  0  0  0  0  0  0  0  0  0
   47.7564   33.2069   42.9924 C   0  0  2  0  0  0  0  0  0  0  0  0
   47.9889   34.1683   41.8410 C   0  0  1  0  0  0  0  0  0  0  0  0
   47.3901   33.7905   40.9855 H   0  0  0  0  0  0  0  0  0  0  0  0
   49.3024   34.1903   41.4116 O   0  0  0  0  0  0  0  0  0  0  0  0
   50.1827   34.6591   42.3798 C   0  0  1  0  0  0  0  0  0  0  0  0
   51.1920   34.2660   42.1227 H   0  0  0  0  0  0  0  0  0  0  0  0
   49.8473   34.2178   43.7674 C   0  0  2  0  0  0  0  0  0  0  0  0
   51.0222   33.9350   44.4638 O   0  0  0  0  0  0  0  0  0  0  0  0
   49.2272   32.4683   45.7625 H   0  0  0  0  0  0  0  0  0  0  0  0
   49.5571   32.0949   43.6102 H   0  0  0  0  0  0  0  0  0  0  0  0
   47.3259   32.2448   42.6257 H   0  0  0  0  0  0  0  0  0  0  0  0
   47.5782   35.1877   42.0470 H   0  0  0  0  0  0  0  0  0  0  0  0
   50.2638   35.7854   42.3794 H   0  0  0  0  0  0  0  0  0  0  0  0
   49.3564   35.0590   44.3116 H   0  0  0  0  0  0  0  0  0  0  0  0
   50.8989   33.5639   45.3497 H   0  0  0  0  0  0  0  0  0  0  0  0
  1  6  2  0
  2  3  2  0
  2  1  1  0
  3  4  1  0
  4  5  2  0
  6  5  1  0
  7  1  1  0
  2  8  1  0
  5  9  1  0
  7 10  1  0
 11 12  1  0
 12 13  1  0
 13 14  1  0
 14 15  1  6
 14 16  1  0
 16 17  1  0
 17 18  1  6
 17 19  1  0
 19 20  1  0
 19 12  1  0
 11 21  1  0
 12 22  1  6
 13 23  1  6
 14 24  1  0
 17 25  1  0
 19 26  1  1
 20 27  1  0
  3 13  1  0
M  ISO  5   8  14   9  14  10   3  15   8  18   8
M  END
>  <DihAtoms>  (1) 
1,2,12,11

>  <DihDeg>  (1) 
-120.32930638789271

$$$$
