
 OpenBabel03242523373D

 22 23  0  0  1  0  0  0  0  0999 V2000
   47.0540   31.7110   46.8300 C   0  0  2  0  0  3  0  0  0  0  0  0
   45.5920   31.8950   46.5090 C   0  0  1  0  0  3  0  0  0  0  0  0
   44.7950   31.7820   47.7720 C   0  0  0  0  0  3  0  0  0  0  0  0
   44.6890   32.7750   48.2880 H   0  0  0  0  0  0  0  0  0  0  0  0
   45.5140   30.9350   48.6380 O   0  0  0  0  0  0  0  0  0  0  0  0
   46.4950   31.7290   49.2590 C   0  0  0  0  0  3  0  0  0  0  0  0
   47.0070   31.1120   50.0290 H   0  0  0  0  0  0  0  0  0  0  0  0
   47.4340   32.2430   48.2020 C   0  0  1  0  0  3  0  0  0  0  0  0
   44.6520   35.3900   45.6620 C   0  0  0  0  0  0  0  0  0  0  0  0
   44.9350   35.4380   44.2680 C   0  0  0  0  0  0  0  0  0  0  0  0
   45.4370   34.2780   43.6640 C   0  0  0  0  0  0  0  0  0  0  0  0
   45.6250   33.1730   44.4390 N   0  0  0  0  0  0  0  0  0  0  0  0
   45.3420   33.1680   45.7690 C   0  0  0  0  0  0  0  0  0  0  0  0
   44.8630   34.2570   46.3730 N   0  0  0  0  0  0  0  0  0  0  0  0
   44.2660   36.2920   46.1140 H   0  0  0  0  0  0  0  0  0  0  0  0
   44.7620   36.3510   43.7110 H   0  0  0  0  0  0  0  0  0  0  0  0
   45.8110   34.2760   41.9200 S   0  0  0  0  0  0  0  0  0  0  0  0
   46.4660   35.4760   41.5930 H   0  0  0  0  0  0  0  0  0  0  0  0
   47.8800   32.2530   45.8730 O   0  0  0  0  0  0  0  0  0  0  0  0
   47.6180   33.1510   45.5550 H   0  0  0  0  0  0  0  0  0  0  0  0
   48.7110   31.7250   48.4780 O   0  0  0  0  0  0  0  0  0  0  0  0
   49.2120   31.6430   47.6170 H   0  0  0  0  0  0  0  0  0  0  0  0
  1 19  1  6  0  0  0
  1  8  1  0  0  0  0
  2 13  1  1  0  0  0
  2  1  1  0  0  0  0
  2  3  1  0  0  0  0
  3  4  1  0  0  0  0
  3  5  1  0  0  0  0
  5  6  1  0  0  0  0
  6  7  1  0  0  0  0
  8 21  1  1  0  0  0
  8  6  1  0  0  0  0
  9 15  1  0  0  0  0
  9 14  1  0  0  0  0
 10  9  2  0  0  0  0
 11 10  1  0  0  0  0
 11 12  2  0  0  0  0
 12 13  1  0  0  0  0
 13 14  2  0  0  0  0
 16 10  1  0  0  0  0
 17 11  1  0  0  0  0
 18 17  1  0  0  0  0
 20 19  1  0  0  0  0
 22 21  1  0  0  0  0
M  END
>  <minimizedAffinity>
-3.08105922

>  <minimizedRMSD>
1.38098323

$$$$
