
     RDKit          3D

 33 34  0  0  0  0  0  0  0  0999 V2000
   44.2975   35.7826   44.1893 C   0  0  0  0  0  0  0  0  0  0  0  0
   44.4684   34.9313   43.0981 C   0  0  0  0  0  0  0  0  0  0  0  0
   45.0829   33.7086   43.3025 C   0  0  0  0  0  0  0  0  0  0  0  0
   45.4948   33.3909   44.5666 N   0  0  0  0  0  0  0  0  0  0  0  0
   45.3138   34.2423   45.6095 C   0  0  0  0  0  0  0  0  0  0  0  0
   44.7225   35.4117   45.3965 N   0  0  0  0  0  0  0  0  0  0  0  0
   44.0231   35.2837   41.7522 C   0  0  0  0  0  0  0  0  0  0  0  0
   43.0119   34.7609   41.1035 C   0  0  0  0  0  0  0  0  0  0  0  0
   42.6432   35.2059   39.7108 C   0  0  0  0  0  0  0  0  0  0  0  0
   43.8117   36.7479   44.0248 H   0  0  0  0  0  0  0  0  0  0  0  0
   45.2615   32.9723   42.5065 H   0  0  0  0  0  0  0  0  0  0  0  0
   44.6173   36.0578   41.2838 H   0  0  0  0  0  0  0  0  0  0  0  0
   42.4649   33.9932   41.6347 H   0  0  0  0  0  0  0  0  0  0  0  0
   42.0341   34.4646   39.1986 H   0  0  0  0  0  0  0  0  0  0  0  0
   42.0629   36.1401   39.8473 H   0  0  0  0  0  0  0  0  0  0  0  0
   43.5934   35.4795   39.2116 H   0  0  0  0  0  0  0  0  0  0  0  0
   46.2957   31.8416   45.8510 O   0  0  0  0  0  0  0  0  0  0  0  0
   45.8586   32.3393   47.0719 C   0  0  1  0  0  0  0  0  0  0  0  0
   45.7926   33.8254   46.9681 C   0  0  2  0  0  0  0  0  0  0  0  0
   44.9725   34.4942   48.0420 C   0  0  2  0  0  0  0  0  0  0  0  0
   44.2343   35.1719   47.5546 H   0  0  0  0  0  0  0  0  0  0  0  0
   44.3655   33.5915   48.8877 O   0  0  0  0  0  0  0  0  0  0  0  0
   43.6110   32.6494   48.1803 C   0  0  2  0  0  0  0  0  0  0  0  0
   42.8573   33.1774   47.5632 H   0  0  0  0  0  0  0  0  0  0  0  0
   44.5095   31.7519   47.3690 C   0  0  1  0  0  0  0  0  0  0  0  0
   43.8901   31.4833   46.1373 O   0  0  0  0  0  0  0  0  0  0  0  0
   47.2643   31.7693   45.7504 H   0  0  0  0  0  0  0  0  0  0  0  0
   46.5339   32.0204   47.8883 H   0  0  0  0  0  0  0  0  0  0  0  0
   46.8476   34.2133   47.0156 H   0  0  0  0  0  0  0  0  0  0  0  0
   45.6420   35.1182   48.6928 H   0  0  0  0  0  0  0  0  0  0  0  0
   43.0883   32.0466   48.9791 H   0  0  0  0  0  0  0  0  0  0  0  0
   44.6233   30.7753   47.9265 H   0  0  0  0  0  0  0  0  0  0  0  0
   43.4415   30.6035   46.1825 H   0  0  0  0  0  0  0  0  0  0  0  0
  1  6  2  0
  2  3  2  0
  2  1  1  0
  3  4  1  0
  4  5  2  0
  6  5  1  0
  7  2  1  0
  8  7  2  0
  9  8  1  0
  1 10  1  0
  3 11  1  0
  7 12  1  0
  8 13  1  0
  9 14  1  0
  9 15  1  0
  9 16  1  0
 17 18  1  0
 18 19  1  0
 19 20  1  0
 20 21  1  6
 20 22  1  0
 22 23  1  0
 23 24  1  6
 23 25  1  0
 25 26  1  0
 25 18  1  0
 17 27  1  0
 18 28  1  1
 19 29  1  1
 20 30  1  0
 23 31  1  0
 25 32  1  1
 26 33  1  0
  5 19  1  0
M  ISO  7  10  14  11  14  14   8  15   8  16   8  21   8  24   8
M  END
>  <DihAtoms>  (1) 
3,4,18,17

>  <DihDeg>  (1) 
-114.56970329364889

$$$$
