
     RDKit          3D

 27 28  0  0  0  0  0  0  0  0999 V2000
   45.0018   35.4849   44.1873 C   0  0  0  0  0  0  0  0  0  0  0  0
   45.9772   34.9333   43.3400 C   0  0  0  0  0  0  0  0  0  0  0  0
   46.7135   33.8312   43.8408 C   0  0  0  0  0  0  0  0  0  0  0  0
   46.4417   33.3774   45.0873 N   0  0  0  0  0  0  0  0  0  0  0  0
   45.4956   33.9415   45.8607 C   0  0  0  0  0  0  0  0  0  0  0  0
   44.7804   34.9843   45.4204 N   0  0  0  0  0  0  0  0  0  0  0  0
   44.2877   36.5503   43.7075 O   0  0  0  0  0  0  0  0  0  0  0  0
   46.1735   35.3158   42.3489 H   0  0  0  0  0  0  0  0  0  0  0  0
   45.2501   33.6030   46.8679 H   0  0  0  0  0  0  0  0  0  0  0  0
   44.7226   37.4641   43.7177 H   0  0  0  0  0  0  0  0  0  0  0  0
   48.9332   34.8881   44.1535 O   0  0  0  0  0  0  0  0  0  0  0  0
   48.9437   34.1181   42.9699 C   0  0  1  0  0  0  0  0  0  0  0  0
   47.7564   33.2069   42.9924 C   0  0  2  0  0  0  0  0  0  0  0  0
   47.1231   33.0133   41.6266 C   0  0  1  0  0  0  0  0  0  0  0  0
   46.7789   31.9585   41.5823 H   0  0  0  0  0  0  0  0  0  0  0  0
   48.0206   33.1693   40.5872 O   0  0  0  0  0  0  0  0  0  0  0  0
   48.5350   34.4579   40.5024 C   0  0  1  0  0  0  0  0  0  0  0  0
   49.5006   34.3895   39.9526 H   0  0  0  0  0  0  0  0  0  0  0  0
   48.7952   35.0943   41.8291 C   0  0  2  0  0  0  0  0  0  0  0  0
   49.9693   35.8443   41.7644 O   0  0  0  0  0  0  0  0  0  0  0  0
   49.7839   35.3050   44.3596 H   0  0  0  0  0  0  0  0  0  0  0  0
   49.9194   33.6290   42.9267 H   0  0  0  0  0  0  0  0  0  0  0  0
   47.9941   32.2233   43.4629 H   0  0  0  0  0  0  0  0  0  0  0  0
   46.1934   33.6210   41.4976 H   0  0  0  0  0  0  0  0  0  0  0  0
   47.8704   35.1489   39.9057 H   0  0  0  0  0  0  0  0  0  0  0  0
   47.9754   35.8160   42.0570 H   0  0  0  0  0  0  0  0  0  0  0  0
   50.2608   36.2295   42.6037 H   0  0  0  0  0  0  0  0  0  0  0  0
  1  6  2  0
  2  3  2  0
  2  1  1  0
  3  4  1  0
  4  5  2  0
  6  5  1  0
  7  1  1  0
  2  8  1  0
  5  9  1  0
  7 10  1  0
 11 12  1  0
 12 13  1  0
 13 14  1  0
 14 15  1  1
 14 16  1  0
 16 17  1  0
 17 18  1  6
 17 19  1  0
 19 20  1  0
 19 12  1  0
 11 21  1  0
 12 22  1  6
 13 23  1  1
 14 24  1  0
 17 25  1  0
 19 26  1  1
 20 27  1  0
  3 13  1  0
M  ISO  5   8  14   9  14  10   3  15   8  18   8
M  END
>  <DihAtoms>  (1) 
1,2,12,11

>  <DihDeg>  (1) 
-120.32930638789271

$$$$
