
     RDKit          3D

 46 50  0  0  0  0  0  0  0  0999 V2000
   45.4961   34.8286   43.5383 C   0  0  0  0  0  0  0  0  0  0  0  0
   46.2068   33.7481   44.1195 C   0  0  0  0  0  0  0  0  0  0  0  0
   46.0043   33.5221   45.4800 C   0  0  0  0  0  0  0  0  0  0  0  0
   45.1743   34.3087   46.1599 N   0  0  0  0  0  0  0  0  0  0  0  0
   44.5047   35.3370   45.5828 C   0  0  0  0  0  0  0  0  0  0  0  0
   44.6693   35.5865   44.2886 N   0  0  0  0  0  0  0  0  0  0  0  0
   47.0123   32.6992   47.5352 C   0  0  0  0  0  0  0  0  0  0  0  0
   46.6794   32.4356   46.2046 C   0  0  0  0  0  0  0  0  0  0  0  0
   46.9943   31.2250   45.6834 C   0  0  0  0  0  0  0  0  0  0  0  0
   47.6304   30.2358   46.4055 C   0  0  0  0  0  0  0  0  0  0  0  0
   48.0287   28.9854   46.0885 N   0  0  0  0  0  0  0  0  0  0  0  0
   48.6193   28.4496   47.2253 C   0  0  0  0  0  0  0  0  0  0  0  0
   48.5639   29.3891   48.2026 N   0  0  0  0  0  0  0  0  0  0  0  0
   47.9656   30.4726   47.7102 C   0  0  0  0  0  0  0  0  0  0  0  0
   47.6591   31.6949   48.2713 C   0  0  0  0  0  0  0  0  0  0  0  0
   45.6911   35.0647   42.1759 O   0  0  0  0  0  0  0  0  0  0  0  0
   44.6296   34.9161   41.2898 C   0  0  0  0  0  0  0  0  0  0  0  0
   45.0081   33.8166   40.6127 C   0  0  0  0  0  0  0  0  0  0  0  0
   43.5636   33.5944   39.3933 S   0  0  0  0  0  0  0  0  0  0  0  0
   42.7375   35.1299   40.1265 C   0  0  0  0  0  0  0  0  0  0  0  0
   43.4765   35.4108   40.8940 N   0  0  0  0  0  0  0  0  0  0  0  0
   46.8696   33.1148   43.5912 H   0  0  0  0  0  0  0  0  0  0  0  0
   43.8529   35.9170   46.2244 H   0  0  0  0  0  0  0  0  0  0  0  0
   46.8187   33.6256   48.0777 H   0  0  0  0  0  0  0  0  0  0  0  0
   46.7207   31.0591   44.6518 H   0  0  0  0  0  0  0  0  0  0  0  0
   47.9270   28.4862   45.1721 H   0  0  0  0  0  0  0  0  0  0  0  0
   49.0378   27.4542   47.2801 H   0  0  0  0  0  0  0  0  0  0  0  0
   47.9410   31.8433   49.3065 H   0  0  0  0  0  0  0  0  0  0  0  0
   45.7309   32.9356   40.3688 H   0  0  0  0  0  0  0  0  0  0  0  0
   40.1220   35.5955   37.6501 O   0  0  0  0  0  0  0  0  0  0  0  0
   41.1320   34.9168   38.3647 C   0  0  1  0  0  0  0  0  0  0  0  0
   41.4350   35.6341   39.6334 C   0  0  1  0  0  0  0  0  0  0  0  0
   40.3900   35.3049   40.6774 C   0  0  2  0  0  0  0  0  0  0  0  0
   40.0277   36.2074   41.2097 H   0  0  0  0  0  0  0  0  0  0  0  0
   39.2919   34.6443   40.1084 O   0  0  0  0  0  0  0  0  0  0  0  0
   39.6883   33.3873   39.6520 C   0  0  2  0  0  0  0  0  0  0  0  0
   38.7702   32.9412   39.2021 H   0  0  0  0  0  0  0  0  0  0  0  0
   40.7504   33.4944   38.6029 C   0  0  1  0  0  0  0  0  0  0  0  0
   40.3115   32.9732   37.3781 O   0  0  0  0  0  0  0  0  0  0  0  0
   40.1527   35.3455   36.6890 H   0  0  0  0  0  0  0  0  0  0  0  0
   42.0502   34.9286   37.7161 H   0  0  0  0  0  0  0  0  0  0  0  0
   41.4394   36.7347   39.4939 H   0  0  0  0  0  0  0  0  0  0  0  0
   40.7568   34.6133   41.4669 H   0  0  0  0  0  0  0  0  0  0  0  0
   40.0155   32.7611   40.5146 H   0  0  0  0  0  0  0  0  0  0  0  0
   41.6559   32.9197   38.9004 H   0  0  0  0  0  0  0  0  0  0  0  0
   39.3094   32.9897   37.4016 H   0  0  0  0  0  0  0  0  0  0  0  0
  1  2  2  0
  1  6  1  0
  2  3  1  0
  3  4  2  0
  3  8  1  0
  5  4  1  0
  6  5  2  0
  7 15  2  0
  8  7  1  0
  9  8  2  0
  9 10  1  0
 10 14  2  0
 11 10  1  0
 11 12  1  0
 12 13  2  0
 14 13  1  0
 14 15  1  0
 16  1  1  0
 17 16  1  0
 18 17  2  0
 19 20  1  0
 19 18  1  0
 20 21  2  0
 21 17  1  0
  2 22  1  0
  5 23  1  0
  7 24  1  0
  9 25  1  0
 11 26  1  0
 12 27  1  0
 15 28  1  0
 18 29  1  0
 30 31  1  0
 31 32  1  0
 32 33  1  0
 33 34  1  1
 33 35  1  0
 35 36  1  0
 36 37  1  6
 36 38  1  0
 38 39  1  0
 38 31  1  0
 30 40  1  0
 31 41  1  6
 32 42  1  6
 33 43  1  0
 36 44  1  0
 38 45  1  1
 39 46  1  0
 20 32  1  0
M  ISO  8  22  14  23  14  24  14  25  14  26   9  27  14  28  14  29  14
M  ISO  2  34   8  37   8
M  END
>  <DihAtoms>  (1) 
18,19,31,30

>  <DihDeg>  (1) 
123.18564413194228

$$$$
