
     RDKit          3D

 27 28  0  0  0  0  0  0  0  0999 V2000
   45.0018   35.4849   44.1873 C   0  0  0  0  0  0  0  0  0  0  0  0
   45.9772   34.9333   43.3400 C   0  0  0  0  0  0  0  0  0  0  0  0
   46.7135   33.8312   43.8408 C   0  0  0  0  0  0  0  0  0  0  0  0
   46.4417   33.3774   45.0873 N   0  0  0  0  0  0  0  0  0  0  0  0
   45.4956   33.9415   45.8607 C   0  0  0  0  0  0  0  0  0  0  0  0
   44.7804   34.9843   45.4204 N   0  0  0  0  0  0  0  0  0  0  0  0
   44.2877   36.5503   43.7075 O   0  0  0  0  0  0  0  0  0  0  0  0
   46.1735   35.3158   42.3489 H   0  0  0  0  0  0  0  0  0  0  0  0
   45.2501   33.6030   46.8679 H   0  0  0  0  0  0  0  0  0  0  0  0
   44.7226   37.4641   43.7177 H   0  0  0  0  0  0  0  0  0  0  0  0
   48.7575   35.2243   43.6901 O   0  0  0  0  0  0  0  0  0  0  0  0
   48.7770   34.2522   42.6663 C   0  0  1  0  0  0  0  0  0  0  0  0
   47.7564   33.2069   42.9924 C   0  0  2  0  0  0  0  0  0  0  0  0
   47.0345   32.6714   41.7692 C   0  0  1  0  0  0  0  0  0  0  0  0
   46.8589   31.5902   41.9517 H   0  0  0  0  0  0  0  0  0  0  0  0
   47.7928   32.7491   40.6164 O   0  0  0  0  0  0  0  0  0  0  0  0
   48.0864   34.0564   40.2464 C   0  0  1  0  0  0  0  0  0  0  0  0
   48.9938   34.0186   39.6025 H   0  0  0  0  0  0  0  0  0  0  0  0
   48.3678   34.9634   41.4001 C   0  0  2  0  0  0  0  0  0  0  0  0
   49.3969   35.8422   41.0624 O   0  0  0  0  0  0  0  0  0  0  0  0
   49.5473   35.7862   43.7146 H   0  0  0  0  0  0  0  0  0  0  0  0
   49.8091   33.9032   42.5893 H   0  0  0  0  0  0  0  0  0  0  0  0
   48.1905   32.3732   43.5940 H   0  0  0  0  0  0  0  0  0  0  0  0
   46.0123   33.1092   41.6517 H   0  0  0  0  0  0  0  0  0  0  0  0
   47.2670   34.5227   39.6248 H   0  0  0  0  0  0  0  0  0  0  0  0
   47.4697   35.5951   41.5979 H   0  0  0  0  0  0  0  0  0  0  0  0
   49.7024   36.4166   41.7797 H   0  0  0  0  0  0  0  0  0  0  0  0
  1  6  2  0
  2  3  2  0
  2  1  1  0
  3  4  1  0
  4  5  2  0
  6  5  1  0
  7  1  1  0
  2  8  1  0
  5  9  1  0
  7 10  1  0
 11 12  1  0
 12 13  1  0
 13 14  1  0
 14 15  1  1
 14 16  1  0
 16 17  1  0
 17 18  1  6
 17 19  1  0
 19 20  1  0
 19 12  1  0
 11 21  1  0
 12 22  1  6
 13 23  1  1
 14 24  1  0
 17 25  1  0
 19 26  1  1
 20 27  1  0
  3 13  1  0
M  ISO  5   8  14   9  14  10   3  15   8  18   8
M  END
>  <DihAtoms>  (1) 
1,2,12,11

>  <DihDeg>  (1) 
-120.32930638789271

$$$$
