
     RDKit          3D

 27 28  0  0  0  0  0  0  0  0999 V2000
   44.5381   36.0313   44.5308 C   0  0  0  0  0  0  0  0  0  0  0  0
   45.2653   35.8886   43.3162 C   0  0  0  0  0  0  0  0  0  0  0  0
   46.1333   34.7960   43.1999 C   0  0  0  0  0  0  0  0  0  0  0  0
   46.2343   33.9331   44.2501 N   0  0  0  0  0  0  0  0  0  0  0  0
   45.5211   34.1047   45.3954 C   0  0  0  0  0  0  0  0  0  0  0  0
   44.6864   35.1359   45.5356 N   0  0  0  0  0  0  0  0  0  0  0  0
   47.0725   34.5634   41.7010 S   0  0  0  0  0  0  0  0  0  0  0  0
   43.8722   36.8792   44.6060 H   0  0  0  0  0  0  0  0  0  0  0  0
   45.1373   36.6121   42.5202 H   0  0  0  0  0  0  0  0  0  0  0  0
   47.5826   35.8053   41.2858 H   0  0  0  0  0  0  0  0  0  0  0  0
   45.3419   31.4984   44.7163 O   0  0  0  0  0  0  0  0  0  0  0  0
   45.9908   31.7185   45.9088 C   0  0  2  0  0  0  0  0  0  0  0  0
   45.7197   33.0906   46.4735 C   0  0  1  0  0  0  0  0  0  0  0  0
   46.8175   33.4526   47.4266 C   0  0  1  0  0  0  0  0  0  0  0  0
   47.6727   33.9613   46.9037 H   0  0  0  0  0  0  0  0  0  0  0  0
   47.3130   32.2477   47.9623 O   0  0  0  0  0  0  0  0  0  0  0  0
   48.2213   31.7281   47.0226 C   0  0  2  0  0  0  0  0  0  0  0  0
   48.7085   30.8340   47.4666 H   0  0  0  0  0  0  0  0  0  0  0  0
   47.4727   31.4185   45.7543 C   0  0  1  0  0  0  0  0  0  0  0  0
   47.5658   30.0346   45.5323 O   0  0  0  0  0  0  0  0  0  0  0  0
   45.3871   32.2448   44.0716 H   0  0  0  0  0  0  0  0  0  0  0  0
   45.6169   30.9681   46.6446 H   0  0  0  0  0  0  0  0  0  0  0  0
   44.7607   33.0174   47.0487 H   0  0  0  0  0  0  0  0  0  0  0  0
   46.4431   34.0592   48.2909 H   0  0  0  0  0  0  0  0  0  0  0  0
   48.9736   32.5487   46.8415 H   0  0  0  0  0  0  0  0  0  0  0  0
   47.9220   31.9402   44.8681 H   0  0  0  0  0  0  0  0  0  0  0  0
   46.7562   29.7399   45.0275 H   0  0  0  0  0  0  0  0  0  0  0  0
  1  6  2  0
  2  1  1  0
  3  2  2  0
  3  4  1  0
  4  5  2  0
  5  6  1  0
  7  3  1  0
  1  8  1  0
  2  9  1  0
  7 10  1  0
 11 12  1  0
 12 13  1  0
 13 14  1  0
 14 15  1  6
 14 16  1  0
 16 17  1  0
 17 18  1  1
 17 19  1  0
 19 20  1  0
 19 12  1  0
 11 21  1  0
 12 22  1  1
 13 23  1  1
 14 24  1  0
 17 25  1  0
 19 26  1  6
 20 27  1  0
  5 13  1  0
M  ISO  5   8  14   9  14  10  11  15   8  18   8
M  END
>  <DihAtoms>  (1) 
3,4,12,11

>  <DihDeg>  (1) 
116.73696216272855

$$$$
