
 OpenBabel03242513073D

 44 48  0  0  1  0  0  0  0  0999 V2000
   45.9200   33.2030   41.6070 C   0  0  0  0  0  0  0  0  0  0  0  0
   47.0960   33.9010   41.3030 C   0  0  0  0  0  0  0  0  0  0  0  0
   48.0670   33.9610   42.2880 C   0  0  0  0  0  0  0  0  0  0  0  0
   47.8040   33.3360   43.4770 N   0  0  0  0  0  0  0  0  0  0  0  0
   46.6850   32.6790   43.7530 C   0  0  0  0  0  0  0  0  0  0  0  0
   45.7240   32.6050   42.8120 N   0  0  0  0  0  0  0  0  0  0  0  0
   45.1490   33.1430   40.8580 H   0  0  0  0  0  0  0  0  0  0  0  0
   46.7320   30.7220   45.2270 C   0  0  0  0  0  0  0  0  0  0  0  0
   46.5080   32.0530   45.0470 C   0  0  0  0  0  0  0  0  0  0  0  0
   46.0960   32.9000   46.0990 C   0  0  0  0  0  0  0  0  0  0  0  0
   45.9030   32.3770   47.3740 C   0  0  0  0  0  0  0  0  0  0  0  0
   45.5230   32.8690   48.5880 N   0  0  0  0  0  0  0  0  0  0  0  0
   45.5280   31.8210   49.4640 C   0  0  0  0  0  0  0  0  0  0  0  0
   45.9070   30.7070   48.7860 N   0  0  0  0  0  0  0  0  0  0  0  0
   46.1430   31.0230   47.5020 C   0  0  0  0  0  0  0  0  0  0  0  0
   46.5460   30.1760   46.4940 C   0  0  0  0  0  0  0  0  0  0  0  0
   47.0470   30.1060   44.3960 H   0  0  0  0  0  0  0  0  0  0  0  0
   45.9160   33.9600   45.9680 H   0  0  0  0  0  0  0  0  0  0  0  0
   45.2870   33.8690   48.7470 H   0  0  0  0  0  0  0  0  0  0  0  0
   45.2630   31.9320   50.5060 H   0  0  0  0  0  0  0  0  0  0  0  0
   46.7160   29.1210   46.6640 H   0  0  0  0  0  0  0  0  0  0  0  0
   49.3340   34.6830   42.0280 C   0  0  0  0  0  0  0  0  0  0  0  0
   49.0920   35.8290   41.2570 F   0  0  0  0  0  0  0  0  0  0  0  0
   49.8850   35.1240   43.2070 F   0  0  0  0  0  0  0  0  0  0  0  0
   50.1790   33.8450   41.3600 F   0  0  0  0  0  0  0  0  0  0  0  0
   47.2280   34.4740   40.0860 O   0  0  0  0  0  0  0  0  0  0  0  0
   47.4030   33.7280   38.9350 C   0  0  0  0  0  0  0  0  0  0  0  0
   48.4090   34.4130   38.2640 C   0  0  0  0  0  0  0  0  0  0  0  0
   48.6630   33.4420   36.7310 S   0  0  0  0  0  0  0  0  0  0  0  0
   47.3140   32.2250   37.2750 C   0  0  0  0  0  0  0  0  0  0  0  0
   47.0470   32.6980   38.2340 N   0  0  0  0  0  0  0  0  0  0  0  0
   49.2130   35.3050   38.1380 H   0  0  0  0  0  0  0  0  0  0  0  0
   47.4480   30.9130   35.1510 C   0  0  2  0  0  3  0  0  0  0  0  0
   46.8500   31.0110   36.5160 C   0  0  2  0  0  3  0  0  0  0  0  0
   45.3280   30.9810   36.4550 C   0  0  0  0  0  3  0  0  0  0  0  0
   45.0770   29.9700   36.0440 H   0  0  0  0  0  0  0  0  0  0  0  0
   44.8140   32.0070   35.6740 O   0  0  0  0  0  0  0  0  0  0  0  0
   45.2690   31.9130   34.3680 C   0  0  0  0  0  3  0  0  0  0  0  0
   44.4260   31.6710   33.6940 H   0  0  0  0  0  0  0  0  0  0  0  0
   46.2980   30.8290   34.1590 C   0  0  1  0  0  3  0  0  0  0  0  0
   48.2300   29.7750   34.9570 O   0  0  0  0  0  0  0  0  0  0  0  0
   48.9810   29.6960   35.5760 H   0  0  0  0  0  0  0  0  0  0  0  0
   46.8520   31.0700   32.8890 O   0  0  0  0  0  0  0  0  0  0  0  0
   46.1380   30.9210   32.2090 H   0  0  0  0  0  0  0  0  0  0  0  0
  1  6  1  0  0  0  0
  2  1  2  0  0  0  0
  2  3  1  0  0  0  0
  3  4  2  0  0  0  0
  4  5  1  0  0  0  0
  5  9  1  0  0  0  0
  6  5  2  0  0  0  0
  7  1  1  0  0  0  0
  8 16  1  0  0  0  0
  9  8  2  0  0  0  0
  9 10  1  0  0  0  0
 10 11  2  0  0  0  0
 11 15  1  0  0  0  0
 11 12  1  0  0  0  0
 12 19  1  0  0  0  0
 12 13  1  0  0  0  0
 13 20  1  0  0  0  0
 14 13  2  0  0  0  0
 15 14  1  0  0  0  0
 16 21  1  0  0  0  0
 16 15  2  0  0  0  0
 17  8  1  0  0  0  0
 18 10  1  0  0  0  0
 22  3  1  0  0  0  0
 22 24  1  0  0  0  0
 23 22  1  0  0  0  0
 25 22  1  0  0  0  0
 26  2  1  0  0  0  0
 27 26  1  0  0  0  0
 28 27  2  0  0  0  0
 29 30  1  0  0  0  0
 29 28  1  0  0  0  0
 30 31  2  0  0  0  0
 31 27  1  0  0  0  0
 32 28  1  0  0  0  0
 33 41  1  1  0  0  0
 33 34  1  0  0  0  0
 34 30  1  6  0  0  0
 35 34  1  0  0  0  0
 36 35  1  0  0  0  0
 37 35  1  0  0  0  0
 38 37  1  0  0  0  0
 39 38  1  0  0  0  0
 40 43  1  6  0  0  0
 40 38  1  0  0  0  0
 40 33  1  0  0  0  0
 41 42  1  0  0  0  0
 44 43  1  0  0  0  0
M  END
>  <minimizedAffinity>
-6.89321756

>  <minimizedRMSD>
1.52026117

$$$$
