
 OpenBabel03252507373D

 41 45  0  0  1  0  0  0  0  0999 V2000
   45.6270   34.7930   43.4880 C   0  0  0  0  0  0  0  0  0  0  0  0
   46.3230   33.7200   44.1010 C   0  0  0  0  0  0  0  0  0  0  0  0
   46.0760   33.5030   45.4550 C   0  0  0  0  0  0  0  0  0  0  0  0
   45.2200   34.2900   46.1010 N   0  0  0  0  0  0  0  0  0  0  0  0
   44.5650   35.3100   45.4950 C   0  0  0  0  0  0  0  0  0  0  0  0
   44.7710   35.5520   44.2050 N   0  0  0  0  0  0  0  0  0  0  0  0
   47.0070   33.0870   43.6000 H   0  0  0  0  0  0  0  0  0  0  0  0
   43.8890   35.8910   46.1090 H   0  0  0  0  0  0  0  0  0  0  0  0
   47.0120   32.6970   47.5510 C   0  0  0  0  0  0  0  0  0  0  0  0
   46.7320   32.4260   46.2110 C   0  0  0  0  0  0  0  0  0  0  0  0
   47.0760   31.2150   45.7070 C   0  0  0  0  0  0  0  0  0  0  0  0
   47.6930   30.2340   46.4580 C   0  0  0  0  0  0  0  0  0  0  0  0
   48.1140   28.9860   46.1620 N   0  0  0  0  0  0  0  0  0  0  0  0
   48.6640   28.4600   47.3230 C   0  0  0  0  0  0  0  0  0  0  0  0
   48.5640   29.4030   48.2930 N   0  0  0  0  0  0  0  0  0  0  0  0
   47.9770   30.4800   47.7730 C   0  0  0  0  0  0  0  0  0  0  0  0
   47.6380   31.7020   48.3160 C   0  0  0  0  0  0  0  0  0  0  0  0
   46.7910   33.6250   48.0820 H   0  0  0  0  0  0  0  0  0  0  0  0
   46.8440   31.0420   44.6670 H   0  0  0  0  0  0  0  0  0  0  0  0
   48.0510   28.4820   45.2450 H   0  0  0  0  0  0  0  0  0  0  0  0
   49.0890   27.4680   47.3980 H   0  0  0  0  0  0  0  0  0  0  0  0
   47.8800   31.8570   49.3600 H   0  0  0  0  0  0  0  0  0  0  0  0
   45.8660   35.0200   42.1310 O   0  0  0  0  0  0  0  0  0  0  0  0
   44.8540   34.7980   41.2040 C   0  0  0  0  0  0  0  0  0  0  0  0
   45.3530   33.7540   40.5190 C   0  0  0  0  0  0  0  0  0  0  0  0
   43.9780   33.4310   39.2430 S   0  0  0  0  0  0  0  0  0  0  0  0
   42.9910   34.8690   39.9780 C   0  0  0  0  0  0  0  0  0  0  0  0
   43.6750   35.1970   40.7770 N   0  0  0  0  0  0  0  0  0  0  0  0
   46.1610   32.9470   40.2830 H   0  0  0  0  0  0  0  0  0  0  0  0
   40.9870   34.0290   38.9740 C   0  0  1  0  0  3  0  0  0  0  0  0
   41.6660   35.2660   39.4470 C   0  0  1  0  0  3  0  0  0  0  0  0
   40.8830   35.8860   40.5850 C   0  0  0  0  0  3  0  0  0  0  0  0
   40.7590   36.9800   40.4640 H   0  0  0  0  0  0  0  0  0  0  0  0
   39.6170   35.2970   40.7100 O   0  0  0  0  0  0  0  0  0  0  0  0
   39.7560   33.9690   41.1100 C   0  0  0  0  0  3  0  0  0  0  0  0
   38.7140   33.5740   41.1670 H   0  0  0  0  0  0  0  0  0  0  0  0
   40.5300   33.1730   40.1070 C   0  0  1  0  0  3  0  0  0  0  0  0
   39.9080   34.3600   38.1270 O   0  0  0  0  0  0  0  0  0  0  0  0
   39.6730   33.5860   37.5500 H   0  0  0  0  0  0  0  0  0  0  0  0
   39.7520   32.1440   39.5600 O   0  0  0  0  0  0  0  0  0  0  0  0
   38.7940   32.4070   39.6950 H   0  0  0  0  0  0  0  0  0  0  0  0
  1  2  2  0  0  0  0
  1  6  1  0  0  0  0
  2  3  1  0  0  0  0
  3  4  2  0  0  0  0
  3 10  1  0  0  0  0
  5  4  1  0  0  0  0
  5  8  1  0  0  0  0
  6  5  2  0  0  0  0
  7  2  1  0  0  0  0
  9 18  1  0  0  0  0
  9 17  1  0  0  0  0
 10  9  2  0  0  0  0
 11 10  1  0  0  0  0
 11 12  2  0  0  0  0
 12 16  1  0  0  0  0
 13 12  1  0  0  0  0
 13 14  1  0  0  0  0
 14 21  1  0  0  0  0
 14 15  2  0  0  0  0
 16 15  1  0  0  0  0
 16 17  2  0  0  0  0
 17 22  1  0  0  0  0
 19 11  1  0  0  0  0
 20 13  1  0  0  0  0
 23  1  1  0  0  0  0
 24 23  1  0  0  0  0
 25 24  2  0  0  0  0
 26 27  1  0  0  0  0
 26 25  1  0  0  0  0
 27 28  2  0  0  0  0
 28 24  1  0  0  0  0
 29 25  1  0  0  0  0
 30 38  1  1  0  0  0
 30 31  1  0  0  0  0
 30 37  1  0  0  0  0
 31 27  1  1  0  0  0
 31 32  1  0  0  0  0
 32 34  1  0  0  0  0
 33 32  1  0  0  0  0
 34 35  1  0  0  0  0
 35 36  1  0  0  0  0
 37 40  1  6  0  0  0
 37 35  1  0  0  0  0
 39 38  1  0  0  0  0
 40 41  1  0  0  0  0
M  END
>  <minimizedAffinity>
-6.83008718

>  <minimizedRMSD>
1.01084435

$$$$
