
 OpenBabel03242523373D

 22 23  0  0  1  0  0  0  0  0999 V2000
   45.6100   32.7840   47.8950 C   0  0  2  0  0  3  0  0  0  0  0  0
   46.6060   32.7850   46.7620 C   0  0  1  0  0  3  0  0  0  0  0  0
   47.3390   31.4790   46.7560 C   0  0  0  0  0  3  0  0  0  0  0  0
   46.8080   30.7040   46.1370 H   0  0  0  0  0  0  0  0  0  0  0  0
   47.3600   31.0110   48.0840 O   0  0  0  0  0  0  0  0  0  0  0  0
   46.1240   30.3800   48.3120 C   0  0  0  0  0  3  0  0  0  0  0  0
   46.1540   29.9080   49.3160 H   0  0  0  0  0  0  0  0  0  0  0  0
   45.0320   31.4090   48.1820 C   0  0  1  0  0  3  0  0  0  0  0  0
   44.9870   34.5730   43.9340 C   0  0  0  0  0  0  0  0  0  0  0  0
   44.7750   33.5160   43.0040 C   0  0  0  0  0  0  0  0  0  0  0  0
   45.1910   32.2310   43.3730 C   0  0  0  0  0  0  0  0  0  0  0  0
   45.7720   32.0620   44.5940 N   0  0  0  0  0  0  0  0  0  0  0  0
   45.9570   33.0990   45.4540 C   0  0  0  0  0  0  0  0  0  0  0  0
   45.5710   34.3350   45.1320 N   0  0  0  0  0  0  0  0  0  0  0  0
   44.6600   35.5590   43.6360 H   0  0  0  0  0  0  0  0  0  0  0  0
   44.3060   33.7200   42.0500 H   0  0  0  0  0  0  0  0  0  0  0  0
   44.9520   30.8650   42.2500 S   0  0  0  0  0  0  0  0  0  0  0  0
   45.2960   31.2770   40.9510 H   0  0  0  0  0  0  0  0  0  0  0  0
   44.5920   33.6900   47.7070 O   0  0  0  0  0  0  0  0  0  0  0  0
   44.2080   33.7040   46.7980 H   0  0  0  0  0  0  0  0  0  0  0  0
   44.3930   31.5100   49.4280 O   0  0  0  0  0  0  0  0  0  0  0  0
   44.0260   32.4340   49.5210 H   0  0  0  0  0  0  0  0  0  0  0  0
  1 19  1  6  0  0  0
  1  8  1  0  0  0  0
  2 13  1  6  0  0  0
  2  1  1  0  0  0  0
  3  2  1  0  0  0  0
  3  5  1  0  0  0  0
  4  3  1  0  0  0  0
  5  6  1  0  0  0  0
  6  7  1  0  0  0  0
  8  6  1  0  0  0  0
  8 21  1  1  0  0  0
  9 14  1  0  0  0  0
 10 11  1  0  0  0  0
 10  9  2  0  0  0  0
 11 12  2  0  0  0  0
 12 13  1  0  0  0  0
 14 13  2  0  0  0  0
 15  9  1  0  0  0  0
 16 10  1  0  0  0  0
 17 11  1  0  0  0  0
 18 17  1  0  0  0  0
 20 19  1  0  0  0  0
 21 22  1  0  0  0  0
M  END
>  <minimizedAffinity>
-4.78916454

>  <minimizedRMSD>
2.17564154

$$$$
