
 OpenBabel03242521133D

 31 33  0  0  1  0  0  0  0  0999 V2000
   44.6620   35.2730   45.2090 C   0  0  0  0  0  0  0  0  0  0  0  0
   45.2120   35.3340   43.9060 C   0  0  0  0  0  0  0  0  0  0  0  0
   46.1990   34.3980   43.5800 C   0  0  0  0  0  0  0  0  0  0  0  0
   46.5670   33.4950   44.5280 N   0  0  0  0  0  0  0  0  0  0  0  0
   46.0320   33.4590   45.7520 C   0  0  0  0  0  0  0  0  0  0  0  0
   45.0660   34.3560   46.1050 N   0  0  0  0  0  0  0  0  0  0  0  0
   43.8910   36.0110   45.4490 H   0  0  0  0  0  0  0  0  0  0  0  0
   44.8590   36.0880   43.2140 H   0  0  0  0  0  0  0  0  0  0  0  0
   46.7640   34.4470   42.2700 N   0  0  0  0  0  0  0  0  0  0  0  0
   47.9460   35.0780   42.1260 C   0  0  0  0  0  0  0  0  0  0  0  0
   48.5130   35.1360   40.8570 C   0  0  0  0  0  0  0  0  0  0  0  0
   47.8350   34.5480   39.8250 C   0  0  0  0  0  0  0  0  0  0  0  0
   48.3560   34.6020   38.6630 O   0  0  0  0  0  0  0  0  0  0  0  0
   46.6490   33.9130   39.9610 N   0  0  0  0  0  0  0  0  0  0  0  0
   46.1540   33.8930   41.2160 C   0  0  0  0  0  0  0  0  0  0  0  0
   45.0600   33.3310   41.4590 O   0  0  0  0  0  0  0  0  0  0  0  0
   48.4790   35.5430   42.9540 H   0  0  0  0  0  0  0  0  0  0  0  0
   49.4640   35.6410   40.7320 H   0  0  0  0  0  0  0  0  0  0  0  0
   46.1470   33.4680   39.1500 H   0  0  0  0  0  0  0  0  0  0  0  0
   46.2740   31.0400   46.2360 C   0  0  1  0  0  3  0  0  0  0  0  0
   46.4740   32.4470   46.7510 C   0  0  2  0  0  3  0  0  0  0  0  0
   45.7530   32.7090   48.0360 C   0  0  0  0  0  3  0  0  0  0  0  0
   45.3830   33.7510   48.0470 H   0  0  0  0  0  0  0  0  0  0  0  0
   44.6600   31.8670   48.1390 O   0  0  0  0  0  0  0  0  0  0  0  0
   45.0380   30.5440   48.3540 C   0  0  0  0  0  3  0  0  0  0  0  0
   45.4160   30.4870   49.4030 H   0  0  0  0  0  0  0  0  0  0  0  0
   46.1470   30.1230   47.4280 C   0  0  1  0  0  3  0  0  0  0  0  0
   45.1680   30.9580   45.3970 O   0  0  0  0  0  0  0  0  0  0  0  0
   44.3590   31.1220   45.9440 H   0  0  0  0  0  0  0  0  0  0  0  0
   45.8660   28.8500   46.9630 O   0  0  0  0  0  0  0  0  0  0  0  0
   45.9880   28.7800   45.9810 H   0  0  0  0  0  0  0  0  0  0  0  0
  1  7  1  0  0  0  0
  1  6  1  0  0  0  0
  2  1  2  0  0  0  0
  3  2  1  0  0  0  0
  3  4  2  0  0  0  0
  4  5  1  0  0  0  0
  5  6  2  0  0  0  0
  8  2  1  0  0  0  0
  9  3  1  0  0  0  0
 10  9  1  0  0  0  0
 10 17  1  0  0  0  0
 11 10  2  0  0  0  0
 12 14  1  0  0  0  0
 12 11  1  0  0  0  0
 13 12  2  0  0  0  0
 14 15  1  0  0  0  0
 15 16  2  0  0  0  0
 15  9  1  0  0  0  0
 18 11  1  0  0  0  0
 19 14  1  0  0  0  0
 20 28  1  1  0  0  0
 20 21  1  0  0  0  0
 20 27  1  0  0  0  0
 21  5  1  6  0  0  0
 21 22  1  0  0  0  0
 22 23  1  0  0  0  0
 22 24  1  0  0  0  0
 24 25  1  0  0  0  0
 25 26  1  0  0  0  0
 27 30  1  6  0  0  0
 27 25  1  0  0  0  0
 28 29  1  0  0  0  0
 31 30  1  0  0  0  0
M  END
>  <minimizedAffinity>
-6.53109264

>  <minimizedRMSD>
1.00955319

$$$$
