
     RDKit          3D

 45 47  0  0  0  0  0  0  0  0999 V2000
   47.1507   33.5985   44.1358 C   0  0  0  0  0  0  0  0  0  0  0  0
   44.7531   36.2026   43.4293 C   0  0  1  0  0  0  0  0  0  0  0  0
   45.9282   35.3945   42.8777 C   0  0  0  0  0  0  0  0  0  0  0  0
   45.7971   34.1382   43.6700 C   0  0  2  0  0  0  0  0  0  0  0  0
   44.9429   34.3458   44.7210 O   0  0  0  0  0  0  0  0  0  0  0  0
   44.7049   35.6925   44.8487 C   0  0  0  0  0  0  0  0  0  0  0  0
   45.0260   37.5632   43.3636 O   0  0  0  0  0  0  0  0  0  0  0  0
   48.6445   32.1289   42.8396 C   0  0  0  0  0  0  0  0  0  0  0  0
   48.0440   33.3066   42.9977 C   0  0  0  0  0  0  0  0  0  0  0  0
   49.5055   31.9483   41.6803 C   0  0  0  0  0  0  0  0  0  0  0  0
   50.8962   31.8816   41.9263 C   0  0  0  0  0  0  0  0  0  0  0  0
   51.7795   31.7077   40.8439 C   0  0  0  0  0  0  0  0  0  0  0  0
   51.2239   31.6142   39.6144 N   0  0  0  0  0  0  0  0  0  0  0  0
   49.8873   31.6811   39.4047 C   0  0  0  0  0  0  0  0  0  0  0  0
   49.0753   31.8452   40.4392 N   0  0  0  0  0  0  0  0  0  0  0  0
   46.9665   32.7098   44.7445 H   0  0  0  0  0  0  0  0  0  0  0  0
   47.6783   34.3528   44.7836 H   0  0  0  0  0  0  0  0  0  0  0  0
   43.8303   35.9006   42.8963 H   0  0  0  0  0  0  0  0  0  0  0  0
   46.8629   35.9369   43.0980 H   0  0  0  0  0  0  0  0  0  0  0  0
   45.8029   35.1438   41.8122 H   0  0  0  0  0  0  0  0  0  0  0  0
   45.3690   33.3095   43.0536 H   0  0  0  0  0  0  0  0  0  0  0  0
   45.3918   36.2217   45.5260 H   0  0  0  0  0  0  0  0  0  0  0  0
   43.6572   35.8500   45.2113 H   0  0  0  0  0  0  0  0  0  0  0  0
   44.8099   37.8612   42.4460 H   0  0  0  0  0  0  0  0  0  0  0  0
   48.5166   31.2945   43.5445 H   0  0  0  0  0  0  0  0  0  0  0  0
   48.1615   34.1239   42.3186 H   0  0  0  0  0  0  0  0  0  0  0  0
   51.3667   31.9544   42.9075 H   0  0  0  0  0  0  0  0  0  0  0  0
   52.8493   31.6541   41.0126 H   0  0  0  0  0  0  0  0  0  0  0  0
   47.1898   32.4185   38.1453 O   0  0  0  0  0  0  0  0  0  0  0  0
   47.9589   31.2708   37.9215 C   0  0  2  0  0  0  0  0  0  0  0  0
   49.4242   31.5615   37.9878 C   0  0  2  0  0  0  0  0  0  0  0  0
   50.1592   30.4684   37.2564 C   0  0  2  0  0  0  0  0  0  0  0  0
   51.0928   30.2317   37.8126 H   0  0  0  0  0  0  0  0  0  0  0  0
   49.4186   29.2907   37.1901 O   0  0  0  0  0  0  0  0  0  0  0  0
   48.3111   29.4240   36.3586 C   0  0  2  0  0  0  0  0  0  0  0  0
   47.6384   28.5701   36.5813 H   0  0  0  0  0  0  0  0  0  0  0  0
   47.5677   30.6991   36.5834 C   0  0  2  0  0  0  0  0  0  0  0  0
   47.7669   31.6189   35.5393 O   0  0  0  0  0  0  0  0  0  0  0  0
   47.6826   33.1950   37.7830 H   0  0  0  0  0  0  0  0  0  0  0  0
   47.6457   30.5266   38.6821 H   0  0  0  0  0  0  0  0  0  0  0  0
   49.6519   32.5220   37.4942 H   0  0  0  0  0  0  0  0  0  0  0  0
   50.4520   30.8151   36.2410 H   0  0  0  0  0  0  0  0  0  0  0  0
   48.5981   29.3831   35.2855 H   0  0  0  0  0  0  0  0  0  0  0  0
   46.4794   30.5034   36.6276 H   0  0  0  0  0  0  0  0  0  0  0  0
   47.5668   32.5397   35.8272 H   0  0  0  0  0  0  0  0  0  0  0  0
  2  7  1  0
  2  6  1  0
  3  2  1  0
  3  4  1  0
  4  1  1  0
  4  5  1  0
  5  6  1  0
  8  9  2  0
  9  1  1  0
 10 11  2  0
 10  8  1  0
 12 11  1  0
 13 12  2  0
 14 13  1  0
 14 15  2  0
 15 10  1  0
  1 16  1  0
  1 17  1  0
  2 18  1  6
  3 19  1  0
  3 20  1  0
  4 21  1  6
  6 22  1  0
  6 23  1  0
  7 24  1  0
  8 25  1  0
  9 26  1  0
 11 27  1  0
 12 28  1  0
 29 30  1  0
 30 31  1  0
 31 32  1  0
 32 33  1  1
 32 34  1  0
 34 35  1  0
 35 36  1  1
 35 37  1  0
 37 38  1  0
 37 30  1  0
 29 39  1  0
 30 40  1  1
 31 41  1  6
 32 42  1  0
 35 43  1  0
 37 44  1  1
 38 45  1  0
 14 31  1  0
M  ISO  8  16   8  17   8  18  13  19  13  20  13  21  13  22  13  23  13
M  ISO  5  24   3  27  14  28  14  33   8  36   8
M  END
>  <DihAtoms>  (1) 
12,13,30,29

>  <DihDeg>  (1) 
59.252378336124664

$$$$
