
 OpenBabel03252501453D

 26 27  0  0  1  0  0  0  0  0999 V2000
   45.8300   33.9990   44.5930 C   0  0  0  0  0  0  0  0  0  0  0  0
   46.0290   32.8960   43.7630 C   0  0  0  0  0  0  0  0  0  0  0  0
   46.0650   31.6370   44.3340 C   0  0  0  0  0  0  0  0  0  0  0  0
   45.9030   31.5300   45.6870 N   0  0  0  0  0  0  0  0  0  0  0  0
   45.7110   32.6240   46.4690 C   0  0  0  0  0  0  0  0  0  0  0  0
   45.6780   33.8260   45.9060 N   0  0  0  0  0  0  0  0  0  0  0  0
   45.8030   34.9930   44.1400 H   0  0  0  0  0  0  0  0  0  0  0  0
   46.2160   30.7090   43.7630 H   0  0  0  0  0  0  0  0  0  0  0  0
   46.8620   32.2420   48.6100 C   0  0  1  0  0  3  0  0  0  0  0  0
   45.5410   32.4290   47.9460 C   0  0  2  0  0  3  0  0  0  0  0  0
   44.5400   31.3350   48.2210 C   0  0  0  0  0  3  0  0  0  0  0  0
   44.1400   30.9680   47.2470 H   0  0  0  0  0  0  0  0  0  0  0  0
   45.0650   30.3140   48.9820 O   0  0  0  0  0  0  0  0  0  0  0  0
   46.2400   29.8030   48.4200 C   0  0  0  0  0  3  0  0  0  0  0  0
   46.0280   29.4550   47.3900 H   0  0  0  0  0  0  0  0  0  0  0  0
   47.3440   30.8260   48.4800 C   0  0  1  0  0  3  0  0  0  0  0  0
   47.7800   33.0780   47.9840 O   0  0  0  0  0  0  0  0  0  0  0  0
   47.8440   33.9800   48.3520 H   0  0  0  0  0  0  0  0  0  0  0  0
   48.1000   30.7480   47.2990 O   0  0  0  0  0  0  0  0  0  0  0  0
   48.9100   30.2070   47.4660 H   0  0  0  0  0  0  0  0  0  0  0  0
   46.2020   33.0240   42.3180 C   0  0  0  0  0  3  0  0  0  0  0  0
   45.3220   33.4900   41.4660 C   0  0  0  0  0  3  0  0  0  0  0  0
   45.6110   33.5770   39.9900 C   0  0  0  0  0  0  0  0  0  0  0  0
   44.6980   33.6480   39.4030 H   0  0  0  0  0  0  0  0  0  0  0  0
   46.2120   34.4990   39.8630 H   0  0  0  0  0  0  0  0  0  0  0  0
   46.2730   32.7210   39.7530 H   0  0  0  0  0  0  0  0  0  0  0  0
  1  6  1  0  0  0  0
  2  3  1  0  0  0  0
  2  1  2  0  0  0  0
  3  4  2  0  0  0  0
  4  5  1  0  0  0  0
  6  5  2  0  0  0  0
  7  1  1  0  0  0  0
  8  3  1  0  0  0  0
  9 17  1  6  0  0  0
 10  5  1  6  0  0  0
 10 11  1  0  0  0  0
 10  9  1  0  0  0  0
 11 13  1  0  0  0  0
 12 11  1  0  0  0  0
 14 16  1  0  0  0  0
 14 13  1  0  0  0  0
 15 14  1  0  0  0  0
 16 19  1  6  0  0  0
 16  9  1  0  0  0  0
 17 18  1  0  0  0  0
 19 20  1  0  0  0  0
 21  2  1  0  0  0  0
 22 21  2  0  0  0  0
 23 22  1  0  0  0  0
 24 23  1  0  0  0  0
 25 23  1  0  0  0  0
 26 23  1  0  0  0  0
M  END
>  <minimizedAffinity>
-4.09934092

>  <minimizedRMSD>
2.69041634

$$$$
