
     RDKit          3D

 27 28  0  0  0  0  0  0  0  0999 V2000
   45.5319   34.7114   44.2320 C   0  0  0  0  0  0  0  0  0  0  0  0
   46.5809   33.9061   43.7469 C   0  0  0  0  0  0  0  0  0  0  0  0
   47.1166   32.9262   44.5982 C   0  0  0  0  0  0  0  0  0  0  0  0
   46.5888   32.8122   45.8454 N   0  0  0  0  0  0  0  0  0  0  0  0
   45.5869   33.6005   46.2713 C   0  0  0  0  0  0  0  0  0  0  0  0
   45.0497   34.5474   45.4871 N   0  0  0  0  0  0  0  0  0  0  0  0
   44.9151   35.9343   43.0691 S   0  0  0  0  0  0  0  0  0  0  0  0
   46.9716   34.0270   42.7535 H   0  0  0  0  0  0  0  0  0  0  0  0
   47.9245   32.2873   44.2609 H   0  0  0  0  0  0  0  0  0  0  0  0
   45.7068   37.0842   43.1279 H   0  0  0  0  0  0  0  0  0  0  0  0
   46.3127   31.4232   47.8385 O   0  0  0  0  0  0  0  0  0  0  0  0
   46.0480   32.6216   48.5046 C   0  0  1  0  0  0  0  0  0  0  0  0
   45.0732   33.4140   47.6313 C   0  0  1  0  0  0  0  0  0  0  0  0
   44.8300   34.6964   48.3950 C   0  0  2  0  0  0  0  0  0  0  0  0
   44.3251   35.4650   47.8081 H   0  0  0  0  0  0  0  0  0  0  0  0
   44.0442   34.3728   49.4704 O   0  0  0  0  0  0  0  0  0  0  0  0
   44.5829   33.4921   50.3605 C   0  0  1  0  0  0  0  0  0  0  0  0
   45.1967   33.9882   51.1642 H   0  0  0  0  0  0  0  0  0  0  0  0
   45.3424   32.3429   49.8004 C   0  0  1  0  0  0  0  0  0  0  0  0
   44.5396   31.2115   49.6176 O   0  0  0  0  0  0  0  0  0  0  0  0
   46.9786   30.8880   48.3301 H   0  0  0  0  0  0  0  0  0  0  0  0
   46.9310   33.2551   48.6409 H   0  0  0  0  0  0  0  0  0  0  0  0
   44.0746   32.8896   47.6008 H   0  0  0  0  0  0  0  0  0  0  0  0
   45.8328   35.0861   48.6720 H   0  0  0  0  0  0  0  0  0  0  0  0
   43.7094   33.0533   50.9233 H   0  0  0  0  0  0  0  0  0  0  0  0
   46.1392   32.0409   50.5222 H   0  0  0  0  0  0  0  0  0  0  0  0
   43.8295   31.3922   48.9713 H   0  0  0  0  0  0  0  0  0  0  0  0
  1  6  2  0
  2  1  1  0
  2  3  2  0
  3  4  1  0
  4  5  2  0
  6  5  1  0
  7  1  1  0
  2  8  1  0
  3  9  1  0
  7 10  1  0
 11 12  1  0
 12 13  1  0
 13 14  1  0
 14 15  1  6
 14 16  1  0
 16 17  1  0
 17 18  1  1
 17 19  1  0
 19 20  1  0
 19 12  1  0
 11 21  1  0
 12 22  1  1
 13 23  1  6
 14 24  1  0
 17 25  1  0
 19 26  1  1
 20 27  1  0
  5 13  1  0
M  ISO  5   8  14   9  14  10  11  15   8  18   8
M  END
>  <DihAtoms>  (1) 
3,4,12,11

>  <DihDeg>  (1) 
122.38469572383744

$$$$
