
     RDKit          3D

 27 28  0  0  0  0  0  0  0  0999 V2000
   45.5319   34.7114   44.2320 C   0  0  0  0  0  0  0  0  0  0  0  0
   46.5809   33.9061   43.7469 C   0  0  0  0  0  0  0  0  0  0  0  0
   47.1166   32.9262   44.5982 C   0  0  0  0  0  0  0  0  0  0  0  0
   46.5888   32.8122   45.8454 N   0  0  0  0  0  0  0  0  0  0  0  0
   45.5869   33.6005   46.2713 C   0  0  0  0  0  0  0  0  0  0  0  0
   45.0497   34.5474   45.4871 N   0  0  0  0  0  0  0  0  0  0  0  0
   44.9151   35.9343   43.0691 S   0  0  0  0  0  0  0  0  0  0  0  0
   46.9716   34.0270   42.7535 H   0  0  0  0  0  0  0  0  0  0  0  0
   47.9245   32.2873   44.2609 H   0  0  0  0  0  0  0  0  0  0  0  0
   45.7068   37.0842   43.1279 H   0  0  0  0  0  0  0  0  0  0  0  0
   45.7990   31.1745   47.6104 O   0  0  0  0  0  0  0  0  0  0  0  0
   45.8465   32.3328   48.3889 C   0  0  1  0  0  0  0  0  0  0  0  0
   45.0732   33.4140   47.6313 C   0  0  1  0  0  0  0  0  0  0  0  0
   45.1639   34.6391   48.5133 C   0  0  2  0  0  0  0  0  0  0  0  0
   44.8470   35.5580   48.0180 H   0  0  0  0  0  0  0  0  0  0  0  0
   44.3469   34.4120   49.5901 O   0  0  0  0  0  0  0  0  0  0  0  0
   44.6761   33.3479   50.3759 C   0  0  1  0  0  0  0  0  0  0  0  0
   45.4090   33.6048   51.1919 H   0  0  0  0  0  0  0  0  0  0  0  0
   45.1229   32.1091   49.6854 C   0  0  1  0  0  0  0  0  0  0  0  0
   44.0666   31.2245   49.4407 O   0  0  0  0  0  0  0  0  0  0  0  0
   46.3265   30.4518   48.0239 H   0  0  0  0  0  0  0  0  0  0  0  0
   46.8592   32.7214   48.5406 H   0  0  0  0  0  0  0  0  0  0  0  0
   43.9771   33.1483   47.5994 H   0  0  0  0  0  0  0  0  0  0  0  0
   46.2369   34.7502   48.7785 H   0  0  0  0  0  0  0  0  0  0  0  0
   43.7349   33.0790   50.9365 H   0  0  0  0  0  0  0  0  0  0  0  0
   45.8387   31.5587   50.3426 H   0  0  0  0  0  0  0  0  0  0  0  0
   43.4073   31.6298   48.8444 H   0  0  0  0  0  0  0  0  0  0  0  0
  1  6  2  0
  2  1  1  0
  2  3  2  0
  3  4  1  0
  4  5  2  0
  6  5  1  0
  7  1  1  0
  2  8  1  0
  3  9  1  0
  7 10  1  0
 11 12  1  0
 12 13  1  0
 13 14  1  0
 14 15  1  6
 14 16  1  0
 16 17  1  0
 17 18  1  1
 17 19  1  0
 19 20  1  0
 19 12  1  0
 11 21  1  0
 12 22  1  1
 13 23  1  6
 14 24  1  0
 17 25  1  0
 19 26  1  1
 20 27  1  0
  5 13  1  0
M  ISO  5   8  14   9  14  10  11  15   8  18   8
M  END
>  <DihAtoms>  (1) 
3,4,12,11

>  <DihDeg>  (1) 
122.38469572383744

$$$$
