
 OpenBabel03252506183D

 26 27  0  0  1  0  0  0  0  0999 V2000
   45.1060   35.9480   43.3660 C   0  0  0  0  0  0  0  0  0  0  0  0
   44.3310   35.6670   42.2130 C   0  0  0  0  0  0  0  0  0  0  0  0
   44.5530   34.4570   41.5690 C   0  0  0  0  0  0  0  0  0  0  0  0
   45.4930   33.6040   42.0680 N   0  0  0  0  0  0  0  0  0  0  0  0
   46.2180   33.9040   43.1750 C   0  0  0  0  0  0  0  0  0  0  0  0
   46.0050   35.0770   43.8030 N   0  0  0  0  0  0  0  0  0  0  0  0
   43.5940   36.3520   41.8350 H   0  0  0  0  0  0  0  0  0  0  0  0
   43.9970   34.1710   40.6780 H   0  0  0  0  0  0  0  0  0  0  0  0
   46.8610   32.2540   44.9320 C   0  0  2  0  0  3  0  0  0  0  0  0
   47.2030   32.9130   43.6260 C   0  0  1  0  0  3  0  0  0  0  0  0
   47.3180   31.8130   42.5620 C   0  0  0  0  0  3  0  0  0  0  0  0
   46.4690   31.0940   42.7550 H   0  0  0  0  0  0  0  0  0  0  0  0
   48.4840   31.1380   42.9290 O   0  0  0  0  0  0  0  0  0  0  0  0
   48.1910   30.3120   43.9790 C   0  0  0  0  0  3  0  0  0  0  0  0
   49.1850   29.9270   44.3550 H   0  0  0  0  0  0  0  0  0  0  0  0
   47.3750   30.8650   45.0770 C   0  0  2  0  0  3  0  0  0  0  0  0
   45.4600   32.3420   45.0540 O   0  0  0  0  0  0  0  0  0  0  0  0
   45.1030   31.6380   44.4460 H   0  0  0  0  0  0  0  0  0  0  0  0
   46.2430   30.0340   45.2420 O   0  0  0  0  0  0  0  0  0  0  0  0
   46.0580   29.8200   46.1720 H   0  0  0  0  0  0  0  0  0  0  0  0
   44.8780   37.2250   44.0550 C   0  0  0  0  0  3  0  0  0  0  0  0
   45.5090   38.3000   43.6000 C   0  0  0  0  0  3  0  0  0  0  0  0
   45.3140   39.6220   44.2610 C   0  0  0  0  0  0  0  0  0  0  0  0
   44.3500   40.0590   43.9340 H   0  0  0  0  0  0  0  0  0  0  0  0
   45.2400   39.5200   45.3780 H   0  0  0  0  0  0  0  0  0  0  0  0
   46.1100   40.3270   43.9970 H   0  0  0  0  0  0  0  0  0  0  0  0
  1  6  1  0  0  0  0
  1 21  1  0  0  0  0
  2  1  2  0  0  0  0
  3  4  2  0  0  0  0
  3  2  1  0  0  0  0
  4  5  1  0  0  0  0
  5  6  2  0  0  0  0
  7  2  1  0  0  0  0
  8  3  1  0  0  0  0
  9 17  1  6  0  0  0
  9 16  1  0  0  0  0
 10  5  1  6  0  0  0
 10  9  1  0  0  0  0
 11 12  1  0  0  0  0
 11 13  1  0  0  0  0
 11 10  1  0  0  0  0
 13 14  1  0  0  0  0
 14 15  1  0  0  0  0
 14 16  1  0  0  0  0
 16 19  1  6  0  0  0
 18 17  1  0  0  0  0
 19 20  1  0  0  0  0
 22 21  2  0  0  0  0
 22 23  1  0  0  0  0
 23 25  1  0  0  0  0
 24 23  1  0  0  0  0
 26 23  1  0  0  0  0
M  END
>  <minimizedAffinity>
-3.5169208

>  <minimizedRMSD>
1.66687918

$$$$
