REMARK  Name = 
REMARK  5 active torsions:
REMARK  status: ('A' for Active; 'I' for Inactive)
REMARK    1  A    between atoms: C_1  and  C_7
REMARK    2  A    between atoms: C_5  and  C_19
REMARK    3  A    between atoms: C_8  and  C_9
REMARK    4  A    between atoms: O_17  and  C_18
REMARK    5  A    between atoms: C_25  and  O_26
REMARK                            x       y       z     vdW  Elec       q    Type
REMARK                         _______ _______ _______ _____ _____    ______ ____
ROOT
ATOM      1  C   UNL     1      44.689  35.519  43.604  0.00  0.00    +0.000 A 
ATOM      2  C   UNL     1      43.936  35.429  42.406  0.00  0.00    +0.000 A 
ATOM      3  C   UNL     1      43.784  34.172  41.836  0.00  0.00    +0.000 A 
ATOM      4  N   UNL     1      44.357  33.095  42.445  0.00  0.00    +0.000 NA
ATOM      5  C   UNL     1      45.072  33.216  43.592  0.00  0.00    +0.000 A 
ATOM      6  N   UNL     1      45.222  34.434  44.149  0.00  0.00    +0.000 NA
ATOM      7  H   UNL     1      43.491  36.290  41.941  0.00  0.00    +0.000 HD
ATOM      8  H   UNL     1      43.220  34.024  40.917  0.00  0.00    +0.000 HD
ENDROOT
BRANCH   5  10
ATOM      9  C   UNL     1      46.834  32.225  45.053  0.00  0.00    +0.000 C 
ATOM     10  C   UNL     1      45.646  31.991  44.163  0.00  0.00    +0.000 C 
ATOM     11  C   UNL     1      44.569  31.285  44.998  0.00  0.00    +0.000 C 
ATOM     12  H   UNL     1      44.570  31.788  46.010  0.00  0.00    +0.000 HD
ATOM     13  O   UNL     1      45.108  30.014  45.202  0.00  0.00    +0.000 OA
ATOM     14  C   UNL     1      46.046  30.098  46.194  0.00  0.00    +0.000 C 
ATOM     15  H   UNL     1      46.577  29.100  46.200  0.00  0.00    +0.000 HD
ATOM     16  C   UNL     1      47.004  31.219  46.136  0.00  0.00    +0.000 C 
BRANCH   9  17
ATOM     17  O   UNL     1      46.705  33.542  45.534  0.00  0.00    +0.000 OA
ATOM     18  H   UNL     1      46.009  33.490  46.246  0.00  0.00    +0.000 HD
ENDBRANCH   9  17
BRANCH  16  19
ATOM     19  O   UNL     1      46.921  31.928  47.357  0.00  0.00    +0.000 OA
ATOM     20  H   UNL     1      47.790  32.144  47.733  0.00  0.00    +0.000 HD
ENDBRANCH  16  19
ENDBRANCH   5  10
BRANCH   1  21
ATOM     21  C   UNL     1      44.855  36.844  44.215  0.00  0.00    +0.000 C 
ATOM     22  C   UNL     1      45.241  37.846  43.436  0.00  0.00    +0.000 C 
BRANCH  22  23
ATOM     23  C   UNL     1      45.425  39.212  44.004  0.00  0.00    +0.000 C 
ATOM     24  H   UNL     1      44.437  39.698  44.125  0.00  0.00    +0.000 HD
ATOM     25  H   UNL     1      45.876  39.176  45.033  0.00  0.00    +0.000 HD
ATOM     26  H   UNL     1      46.032  39.845  43.347  0.00  0.00    +0.000 HD
ENDBRANCH  22  23
ENDBRANCH   1  21
TORSDOF 5
