REMARK  Name = 
REMARK  7 active torsions:
REMARK  status: ('A' for Active; 'I' for Inactive)
REMARK    1  A    between atoms: N_1  and  C_8
REMARK    2  A    between atoms: C_3  and  N_12
REMARK    3  A    between atoms: N_12  and  C_14
REMARK    4  A    between atoms: C_13  and  C_20
REMARK    5  A    between atoms: C_18  and  C_37
REMARK    6  A    between atoms: O_35  and  C_36
REMARK    7  A    between atoms: C_43  and  O_44
REMARK                            x       y       z     vdW  Elec       q    Type
REMARK                         _______ _______ _______ _____ _____    ______ ____
ROOT
ATOM      1  N   UNL     1      48.997  33.099  40.499  0.00  0.00    +0.000 N 
ATOM      2  H   UNL     1      50.020  33.196  40.698  0.00  0.00    +0.000 HD
ENDROOT
BRANCH   1   5
ATOM      3  N   UNL     1      47.353  33.406  43.642  0.00  0.00    +0.000 N 
ATOM      4  C   UNL     1      48.143  34.034  42.596  0.00  0.00    +0.000 C 
ATOM      5  C   UNL     1      48.039  32.967  41.550  0.00  0.00    +0.000 C 
ATOM      6  C   UNL     1      48.384  31.719  42.346  0.00  0.00    +0.000 C 
ATOM      7  C   UNL     1      47.775  32.012  43.693  0.00  0.00    +0.000 C 
ATOM      8  H   UNL     1      49.199  34.139  42.892  0.00  0.00    +0.000 HD
ATOM      9  H   UNL     1      47.722  34.989  42.238  0.00  0.00    +0.000 HD
ATOM     10  H   UNL     1      47.018  32.890  41.123  0.00  0.00    +0.000 HD
ATOM     11  H   UNL     1      49.470  31.527  42.378  0.00  0.00    +0.000 HD
ATOM     12  H   UNL     1      47.862  30.844  41.873  0.00  0.00    +0.000 HD
ATOM     13  H   UNL     1      48.581  31.918  44.444  0.00  0.00    +0.000 HD
ATOM     14  H   UNL     1      46.962  31.321  43.935  0.00  0.00    +0.000 HD
BRANCH   3  17
ATOM     15  C   UNL     1      44.586  35.442  45.071  0.00  0.00    +0.000 A 
ATOM     16  C   UNL     1      45.533  34.996  44.155  0.00  0.00    +0.000 A 
ATOM     17  C   UNL     1      46.368  33.933  44.485  0.00  0.00    +0.000 A 
ATOM     18  N   UNL     1      46.192  33.389  45.718  0.00  0.00    +0.000 NA
ATOM     19  C   UNL     1      45.283  33.809  46.609  0.00  0.00    +0.000 A 
ATOM     20  N   UNL     1      44.471  34.850  46.276  0.00  0.00    +0.000 NA
ATOM     21  H   UNL     1      43.960  36.272  44.768  0.00  0.00    +0.000 HD
ATOM     22  H   UNL     1      45.684  35.426  43.160  0.00  0.00    +0.000 HD
ATOM     23  H   UNL     1      45.187  33.335  47.582  0.00  0.00    +0.000 HD
ENDBRANCH   3  17
ENDBRANCH   1   5
BRANCH   1  25
ATOM     24  C   UNL     1      49.420  32.193  38.232  0.00  0.00    +0.000 A 
ATOM     25  C   UNL     1      48.879  33.136  39.097  0.00  0.00    +0.000 A 
ATOM     26  C   UNL     1      48.201  34.135  38.452  0.00  0.00    +0.000 A 
ATOM     27  C   UNL     1      48.033  34.255  37.092  0.00  0.00    +0.000 A 
ATOM     28  C   UNL     1      48.589  33.294  36.277  0.00  0.00    +0.000 A 
ATOM     29  C   UNL     1      49.285  32.259  36.862  0.00  0.00    +0.000 A 
ATOM     30  H   UNL     1      47.736  34.928  39.025  0.00  0.00    +0.000 HD
ATOM     31  H   UNL     1      47.486  35.067  36.632  0.00  0.00    +0.000 HD
ATOM     32  H   UNL     1      48.527  33.277  35.197  0.00  0.00    +0.000 HD
BRANCH  29  34
ATOM     33  C   UNL     1      51.404  31.462  36.067  0.00  0.00    +0.000 C 
ATOM     34  C   UNL     1      49.918  31.178  36.058  0.00  0.00    +0.000 C 
ATOM     35  C   UNL     1      49.486  31.175  34.617  0.00  0.00    +0.000 C 
ATOM     36  H   UNL     1      49.428  30.098  34.287  0.00  0.00    +0.000 HD
ATOM     37  O   UNL     1      50.445  31.755  33.791  0.00  0.00    +0.000 OA
ATOM     38  C   UNL     1      51.557  30.919  33.714  0.00  0.00    +0.000 C 
ATOM     39  H   UNL     1      51.211  29.960  33.272  0.00  0.00    +0.000 HD
ATOM     40  C   UNL     1      52.155  30.608  35.071  0.00  0.00    +0.000 C 
BRANCH  33  41
ATOM     41  O   UNL     1      51.998  31.303  37.302  0.00  0.00    +0.000 OA
ATOM     42  H   UNL     1      52.004  32.136  37.833  0.00  0.00    +0.000 HD
ENDBRANCH  33  41
BRANCH  40  43
ATOM     43  O   UNL     1      53.491  31.021  35.125  0.00  0.00    +0.000 OA
ATOM     44  H   UNL     1      53.685  31.522  35.972  0.00  0.00    +0.000 HD
ENDBRANCH  40  43
ENDBRANCH  29  34
BRANCH  24  46
ATOM     45  N   UNL     1      50.745  30.205  39.312  0.00  0.00    +0.000 NA
ATOM     46  C   UNL     1      50.164  31.084  38.828  0.00  0.00    +0.000 C 
ENDBRANCH  24  46
ENDBRANCH   1  25
TORSDOF 7
