
 OpenBabel03242513073D

 44 48  0  0  1  0  0  0  0  0999 V2000
   45.9320   33.2810   41.6250 C   0  0  0  0  0  0  0  0  0  0  0  0
   47.1230   33.9540   41.3270 C   0  0  0  0  0  0  0  0  0  0  0  0
   48.0980   33.9790   42.3090 C   0  0  0  0  0  0  0  0  0  0  0  0
   47.8230   33.3470   43.4910 N   0  0  0  0  0  0  0  0  0  0  0  0
   46.6900   32.7130   43.7630 C   0  0  0  0  0  0  0  0  0  0  0  0
   45.7250   32.6730   42.8240 N   0  0  0  0  0  0  0  0  0  0  0  0
   45.1570   33.2480   40.8780 H   0  0  0  0  0  0  0  0  0  0  0  0
   46.7020   30.7400   45.2160 C   0  0  0  0  0  0  0  0  0  0  0  0
   46.5020   32.0770   45.0510 C   0  0  0  0  0  0  0  0  0  0  0  0
   46.1050   32.9190   46.1120 C   0  0  0  0  0  0  0  0  0  0  0  0
   45.9030   32.3860   47.3810 C   0  0  0  0  0  0  0  0  0  0  0  0
   45.5320   32.8720   48.6000 N   0  0  0  0  0  0  0  0  0  0  0  0
   45.5180   31.8140   49.4650 C   0  0  0  0  0  0  0  0  0  0  0  0
   45.8760   30.7010   48.7750 N   0  0  0  0  0  0  0  0  0  0  0  0
   46.1180   31.0260   47.4940 C   0  0  0  0  0  0  0  0  0  0  0  0
   46.5050   30.1830   46.4770 C   0  0  0  0  0  0  0  0  0  0  0  0
   47.0050   30.1280   44.3780 H   0  0  0  0  0  0  0  0  0  0  0  0
   45.9450   33.9840   45.9920 H   0  0  0  0  0  0  0  0  0  0  0  0
   45.3150   33.8740   48.7700 H   0  0  0  0  0  0  0  0  0  0  0  0
   45.2550   31.9190   50.5080 H   0  0  0  0  0  0  0  0  0  0  0  0
   46.6560   29.1240   46.6350 H   0  0  0  0  0  0  0  0  0  0  0  0
   49.3810   34.6730   42.0540 C   0  0  0  0  0  0  0  0  0  0  0  0
   49.1710   35.8090   41.2590 F   0  0  0  0  0  0  0  0  0  0  0  0
   49.9240   35.1260   43.2320 F   0  0  0  0  0  0  0  0  0  0  0  0
   50.2210   33.8090   41.4130 F   0  0  0  0  0  0  0  0  0  0  0  0
   47.2660   34.5380   40.1160 O   0  0  0  0  0  0  0  0  0  0  0  0
   47.3330   33.8030   38.9470 C   0  0  0  0  0  0  0  0  0  0  0  0
   48.4110   34.3700   38.2780 C   0  0  0  0  0  0  0  0  0  0  0  0
   48.5240   33.4120   36.7210 S   0  0  0  0  0  0  0  0  0  0  0  0
   47.0360   32.3640   37.2550 C   0  0  0  0  0  0  0  0  0  0  0  0
   46.8410   32.8440   38.2270 N   0  0  0  0  0  0  0  0  0  0  0  0
   49.3220   35.1560   38.1610 H   0  0  0  0  0  0  0  0  0  0  0  0
   45.0510   30.8710   36.9620 C   0  0  2  0  0  3  0  0  0  0  0  0
   46.4140   31.2370   36.4740 C   0  0  2  0  0  3  0  0  0  0  0  0
   47.3420   30.0300   36.4680 C   0  0  0  0  0  3  0  0  0  0  0  0
   46.8910   29.3250   35.7240 H   0  0  0  0  0  0  0  0  0  0  0  0
   47.4640   29.4550   37.7260 O   0  0  0  0  0  0  0  0  0  0  0  0
   46.2350   29.0160   38.1930 C   0  0  0  0  0  3  0  0  0  0  0  0
   46.2320   27.9110   38.2560 H   0  0  0  0  0  0  0  0  0  0  0  0
   45.0770   29.3890   37.3020 C   0  0  1  0  0  3  0  0  0  0  0  0
   44.0450   31.0500   36.0150 O   0  0  0  0  0  0  0  0  0  0  0  0
   43.9660   31.9650   35.6840 H   0  0  0  0  0  0  0  0  0  0  0  0
   43.9180   29.1360   38.0580 O   0  0  0  0  0  0  0  0  0  0  0  0
   43.8580   28.1520   38.2080 H   0  0  0  0  0  0  0  0  0  0  0  0
  1  6  1  0  0  0  0
  2  1  2  0  0  0  0
  2  3  1  0  0  0  0
  3  4  2  0  0  0  0
  4  5  1  0  0  0  0
  5  9  1  0  0  0  0
  6  5  2  0  0  0  0
  7  1  1  0  0  0  0
  8 16  1  0  0  0  0
  9  8  2  0  0  0  0
  9 10  1  0  0  0  0
 10 11  2  0  0  0  0
 11 15  1  0  0  0  0
 11 12  1  0  0  0  0
 12 19  1  0  0  0  0
 12 13  1  0  0  0  0
 13 20  1  0  0  0  0
 14 13  2  0  0  0  0
 15 14  1  0  0  0  0
 16 21  1  0  0  0  0
 16 15  2  0  0  0  0
 17  8  1  0  0  0  0
 18 10  1  0  0  0  0
 22  3  1  0  0  0  0
 22 24  1  0  0  0  0
 23 22  1  0  0  0  0
 25 22  1  0  0  0  0
 26  2  1  0  0  0  0
 27 26  1  0  0  0  0
 28 27  2  0  0  0  0
 29 30  1  0  0  0  0
 29 28  1  0  0  0  0
 30 31  2  0  0  0  0
 31 27  1  0  0  0  0
 32 28  1  0  0  0  0
 33 41  1  6  0  0  0
 33 40  1  0  0  0  0
 34 33  1  0  0  0  0
 34 30  1  1  0  0  0
 35 34  1  0  0  0  0
 35 37  1  0  0  0  0
 36 35  1  0  0  0  0
 37 38  1  0  0  0  0
 38 39  1  0  0  0  0
 40 43  1  1  0  0  0
 40 38  1  0  0  0  0
 42 41  1  0  0  0  0
 43 44  1  0  0  0  0
M  END
>  <minimizedAffinity>
-6.16050863

>  <minimizedRMSD>
0.393915474

$$$$
