REMARK  Name = 
REMARK  4 active torsions:
REMARK  status: ('A' for Active; 'I' for Inactive)
REMARK    1  A    between atoms: C_1  and  O_7
REMARK    2  A    between atoms: C_3  and  C_13
REMARK    3  A    between atoms: O_11  and  C_12
REMARK    4  A    between atoms: C_19  and  O_20
REMARK                            x       y       z     vdW  Elec       q    Type
REMARK                         _______ _______ _______ _____ _____    ______ ____
ROOT
ATOM      1  C   UNL     1      47.603  31.721  43.086  0.00  0.00    +0.000 C 
ATOM      2  C   UNL     1      47.756  33.207  42.992  0.00  0.00    +0.000 C 
ATOM      3  C   UNL     1      49.086  33.708  43.528  0.00  0.00    +0.000 C 
ATOM      4  H   UNL     1      49.390  34.557  42.880  0.00  0.00    +0.000 HD
ATOM      5  O   UNL     1      50.096  32.770  43.432  0.00  0.00    +0.000 OA
ATOM      6  C   UNL     1      49.863  31.640  44.208  0.00  0.00    +0.000 C 
ATOM      7  H   UNL     1      50.466  30.813  43.771  0.00  0.00    +0.000 HD
ATOM      8  C   UNL     1      48.432  31.211  44.240  0.00  0.00    +0.000 C 
ENDROOT
BRANCH   2  11
ATOM      9  C   UNL     1      45.002  35.485  44.187  0.00  0.00    +0.000 A 
ATOM     10  C   UNL     1      45.977  34.933  43.340  0.00  0.00    +0.000 A 
ATOM     11  C   UNL     1      46.714  33.831  43.841  0.00  0.00    +0.000 A 
ATOM     12  N   UNL     1      46.442  33.377  45.087  0.00  0.00    +0.000 NA
ATOM     13  C   UNL     1      45.496  33.941  45.861  0.00  0.00    +0.000 A 
ATOM     14  N   UNL     1      44.780  34.984  45.420  0.00  0.00    +0.000 NA
ATOM     15  H   UNL     1      46.173  35.316  42.349  0.00  0.00    +0.000 HD
ATOM     16  H   UNL     1      45.250  33.603  46.868  0.00  0.00    +0.000 HD
BRANCH   9  17
ATOM     17  O   UNL     1      44.288  36.550  43.708  0.00  0.00    +0.000 OA
ATOM     18  H   UNL     1      44.723  37.464  43.718  0.00  0.00    +0.000 HD
ENDBRANCH   9  17
ENDBRANCH   2  11
BRANCH   1  19
ATOM     19  O   UNL     1      46.259  31.434  43.408  0.00  0.00    +0.000 OA
ATOM     20  H   UNL     1      45.998  30.517  43.229  0.00  0.00    +0.000 HD
ENDBRANCH   1  19
BRANCH   8  21
ATOM     21  O   UNL     1      48.362  29.819  44.223  0.00  0.00    +0.000 OA
ATOM     22  H   UNL     1      47.468  29.450  44.160  0.00  0.00    +0.000 HD
ENDBRANCH   8  21
TORSDOF 4
