
     RDKit          3D

 36 38  0  0  0  0  0  0  0  0999 V2000
   46.6232   34.6984   42.0354 N   0  0  0  0  0  0  0  0  0  0  0  0
   47.8760   35.1838   41.9349 C   0  0  0  0  0  0  0  0  0  0  0  0
   48.5312   35.0747   40.7115 C   0  0  0  0  0  0  0  0  0  0  0  0
   47.8634   34.4792   39.6793 C   0  0  0  0  0  0  0  0  0  0  0  0
   48.4652   34.3799   38.5585 O   0  0  0  0  0  0  0  0  0  0  0  0
   46.6066   33.9891   39.7701 N   0  0  0  0  0  0  0  0  0  0  0  0
   46.0284   34.1266   40.9822 C   0  0  0  0  0  0  0  0  0  0  0  0
   44.8637   33.7077   41.1805 O   0  0  0  0  0  0  0  0  0  0  0  0
   44.4956   36.0329   44.7610 C   0  0  0  0  0  0  0  0  0  0  0  0
   45.1379   35.9260   43.5029 C   0  0  0  0  0  0  0  0  0  0  0  0
   45.9693   34.8201   43.2970 C   0  0  0  0  0  0  0  0  0  0  0  0
   46.1082   33.9231   44.3098 N   0  0  0  0  0  0  0  0  0  0  0  0
   45.4913   34.0465   45.4878 C   0  0  0  0  0  0  0  0  0  0  0  0
   44.6719   35.1130   45.7251 N   0  0  0  0  0  0  0  0  0  0  0  0
   48.4009   35.6572   42.7637 H   0  0  0  0  0  0  0  0  0  0  0  0
   49.5402   35.4634   40.6235 H   0  0  0  0  0  0  0  0  0  0  0  0
   46.1137   33.5343   38.9586 H   0  0  0  0  0  0  0  0  0  0  0  0
   43.8489   36.9028   44.9069 H   0  0  0  0  0  0  0  0  0  0  0  0
   44.9697   36.6883   42.7530 H   0  0  0  0  0  0  0  0  0  0  0  0
   47.8397   32.7782   45.5466 O   0  0  0  0  0  0  0  0  0  0  0  0
   47.1418   32.6918   46.7458 C   0  0  1  0  0  0  0  0  0  0  0  0
   45.6807   33.0330   46.5616 C   0  0  2  0  0  0  0  0  0  0  0  0
   44.8371   31.8405   46.2367 C   0  0  2  0  0  0  0  0  0  0  0  0
   44.0374   32.1337   45.5314 H   0  0  0  0  0  0  0  0  0  0  0  0
   45.6122   30.8714   45.6250 O   0  0  0  0  0  0  0  0  0  0  0  0
   46.5090   30.2811   46.5127 C   0  0  1  0  0  0  0  0  0  0  0  0
   45.9064   29.6352   47.1927 H   0  0  0  0  0  0  0  0  0  0  0  0
   47.2238   31.3104   47.3480 C   0  0  1  0  0  0  0  0  0  0  0  0
   48.5592   30.9546   47.4268 O   0  0  0  0  0  0  0  0  0  0  0  0
   47.5077   32.0613   44.9503 H   0  0  0  0  0  0  0  0  0  0  0  0
   47.6214   33.3890   47.4736 H   0  0  0  0  0  0  0  0  0  0  0  0
   45.3209   33.4260   47.5434 H   0  0  0  0  0  0  0  0  0  0  0  0
   44.3155   31.4360   47.1460 H   0  0  0  0  0  0  0  0  0  0  0  0
   47.2276   29.6565   45.9667 H   0  0  0  0  0  0  0  0  0  0  0  0
   46.8180   31.3548   48.3773 H   0  0  0  0  0  0  0  0  0  0  0  0
   49.1583   31.7253   47.2513 H   0  0  0  0  0  0  0  0  0  0  0  0
  1 11  1  0
  2  1  1  0
  3  2  2  0
  4  6  1  0
  4  3  1  0
  5  4  2  0
  6  7  1  0
  7  8  2  0
  7  1  1  0
  9 14  2  0
 10  9  1  0
 11 10  2  0
 11 12  1  0
 12 13  2  0
 13 14  1  0
  2 15  1  0
  3 16  1  0
  6 17  1  0
  9 18  1  0
 10 19  1  0
 20 21  1  0
 21 22  1  0
 22 23  1  0
 23 24  1  6
 23 25  1  0
 25 26  1  0
 26 27  1  1
 26 28  1  0
 28 29  1  0
 28 21  1  0
 20 30  1  0
 21 31  1  1
 22 32  1  1
 23 33  1  0
 26 34  1  0
 28 35  1  1
 29 36  1  0
 13 22  1  0
M  ISO  7  15  14  16  14  17   9  18  14  19  14  24   8  27   8
M  END
>  <DihAtoms>  (1) 
11,12,21,20

>  <DihDeg>  (1) 
61.71446280843274

$$$$
