
 OpenBabel03242513073D

 44 48  0  0  1  0  0  0  0  0999 V2000
   45.9260   33.2550   41.6550 C   0  0  0  0  0  0  0  0  0  0  0  0
   47.1060   33.9390   41.3360 C   0  0  0  0  0  0  0  0  0  0  0  0
   48.0950   33.9790   42.3030 C   0  0  0  0  0  0  0  0  0  0  0  0
   47.8440   33.3500   43.4930 N   0  0  0  0  0  0  0  0  0  0  0  0
   46.7210   32.7060   43.7850 C   0  0  0  0  0  0  0  0  0  0  0  0
   45.7430   32.6510   42.8600 N   0  0  0  0  0  0  0  0  0  0  0  0
   45.1410   33.2100   40.9190 H   0  0  0  0  0  0  0  0  0  0  0  0
   46.8460   30.7560   45.2630 C   0  0  0  0  0  0  0  0  0  0  0  0
   46.5590   32.0740   45.0770 C   0  0  0  0  0  0  0  0  0  0  0  0
   46.0900   32.9000   46.1220 C   0  0  0  0  0  0  0  0  0  0  0  0
   45.9070   32.3700   47.3950 C   0  0  0  0  0  0  0  0  0  0  0  0
   45.4860   32.8440   48.6030 N   0  0  0  0  0  0  0  0  0  0  0  0
   45.5310   31.7980   49.4810 C   0  0  0  0  0  0  0  0  0  0  0  0
   45.9750   30.7040   48.8100 N   0  0  0  0  0  0  0  0  0  0  0  0
   46.2120   31.0300   47.5290 C   0  0  0  0  0  0  0  0  0  0  0  0
   46.6700   30.2030   46.5280 C   0  0  0  0  0  0  0  0  0  0  0  0
   47.2030   30.1560   44.4370 H   0  0  0  0  0  0  0  0  0  0  0  0
   45.8590   33.9500   45.9860 H   0  0  0  0  0  0  0  0  0  0  0  0
   45.1990   33.8320   48.7560 H   0  0  0  0  0  0  0  0  0  0  0  0
   45.2470   31.8980   50.5190 H   0  0  0  0  0  0  0  0  0  0  0  0
   46.8910   29.1580   46.7020 H   0  0  0  0  0  0  0  0  0  0  0  0
   49.3670   34.6850   42.0260 C   0  0  0  0  0  0  0  0  0  0  0  0
   49.1350   35.8080   41.2190 F   0  0  0  0  0  0  0  0  0  0  0  0
   49.9160   35.1600   43.1930 F   0  0  0  0  0  0  0  0  0  0  0  0
   50.2110   33.8220   41.3890 F   0  0  0  0  0  0  0  0  0  0  0  0
   47.2260   34.5180   40.1200 O   0  0  0  0  0  0  0  0  0  0  0  0
   47.2400   33.7810   38.9510 C   0  0  0  0  0  0  0  0  0  0  0  0
   48.4100   34.1990   38.3280 C   0  0  0  0  0  0  0  0  0  0  0  0
   48.4540   33.2340   36.7710 S   0  0  0  0  0  0  0  0  0  0  0  0
   46.8190   32.3950   37.2410 C   0  0  0  0  0  0  0  0  0  0  0  0
   46.6520   32.8970   38.2070 N   0  0  0  0  0  0  0  0  0  0  0  0
   49.4210   34.8550   38.2510 H   0  0  0  0  0  0  0  0  0  0  0  0
   44.6010   31.5370   36.4700 C   0  0  2  0  0  3  0  0  0  0  0  0
   46.0830   31.3620   36.4300 C   0  0  2  0  0  3  0  0  0  0  0  0
   46.4860   29.9620   36.8750 C   0  0  0  0  0  3  0  0  0  0  0  0
   46.0420   29.2780   36.1090 H   0  0  0  0  0  0  0  0  0  0  0  0
   46.0420   29.6720   38.1580 O   0  0  0  0  0  0  0  0  0  0  0  0
   44.6590   29.7330   38.2310 C   0  0  0  0  0  3  0  0  0  0  0  0
   44.2490   28.7230   38.4150 H   0  0  0  0  0  0  0  0  0  0  0  0
   44.0040   30.2280   36.9650 C   0  0  1  0  0  3  0  0  0  0  0  0
   44.0290   31.7950   35.2250 O   0  0  0  0  0  0  0  0  0  0  0  0
   44.3730   32.5950   34.7850 H   0  0  0  0  0  0  0  0  0  0  0  0
   42.6700   30.5060   37.3110 O   0  0  0  0  0  0  0  0  0  0  0  0
   42.2260   29.6440   37.5420 H   0  0  0  0  0  0  0  0  0  0  0  0
  1  6  1  0  0  0  0
  2  1  2  0  0  0  0
  2  3  1  0  0  0  0
  3  4  2  0  0  0  0
  4  5  1  0  0  0  0
  5  9  1  0  0  0  0
  6  5  2  0  0  0  0
  7  1  1  0  0  0  0
  8 16  1  0  0  0  0
  9  8  2  0  0  0  0
  9 10  1  0  0  0  0
 10 11  2  0  0  0  0
 11 15  1  0  0  0  0
 11 12  1  0  0  0  0
 12 19  1  0  0  0  0
 12 13  1  0  0  0  0
 13 20  1  0  0  0  0
 14 13  2  0  0  0  0
 15 14  1  0  0  0  0
 16 21  1  0  0  0  0
 16 15  2  0  0  0  0
 17  8  1  0  0  0  0
 18 10  1  0  0  0  0
 22  3  1  0  0  0  0
 22 24  1  0  0  0  0
 23 22  1  0  0  0  0
 25 22  1  0  0  0  0
 26  2  1  0  0  0  0
 27 26  1  0  0  0  0
 28 27  2  0  0  0  0
 29 30  1  0  0  0  0
 29 28  1  0  0  0  0
 30 31  2  0  0  0  0
 31 27  1  0  0  0  0
 32 28  1  0  0  0  0
 33 41  1  6  0  0  0
 33 40  1  0  0  0  0
 34 33  1  0  0  0  0
 34 35  1  0  0  0  0
 34 30  1  1  0  0  0
 35 37  1  0  0  0  0
 36 35  1  0  0  0  0
 37 38  1  0  0  0  0
 38 39  1  0  0  0  0
 40 43  1  1  0  0  0
 40 38  1  0  0  0  0
 42 41  1  0  0  0  0
 43 44  1  0  0  0  0
M  END
>  <minimizedAffinity>
-6.48426819

>  <minimizedRMSD>
1.25372016

$$$$
