
 OpenBabel03252500253D

 40 42  0  0  1  0  0  0  0  0999 V2000
   47.1370   30.0370   47.9860 C   0  0  2  0  0  0  0  0  0  0  0  0
   45.7010   30.2930   48.2450 C   0  0  2  0  0  0  0  0  0  0  0  0
   45.0020   29.4290   47.2610 C   0  0  0  0  0  0  0  0  0  0  0  0
   45.8070   28.3270   47.0340 O   0  0  0  0  0  0  0  0  0  0  0  0
   47.0230   28.5430   47.5960 C   0  0  0  0  0  0  0  0  0  0  0  0
   47.7070   30.4280   47.1960 H   0  0  0  0  0  0  0  0  0  0  0  0
   45.5210   29.9770   49.2920 H   0  0  0  0  0  0  0  0  0  0  0  0
   44.5350   29.8870   46.3970 H   0  0  0  0  0  0  0  0  0  0  0  0
   44.1150   28.9860   47.8130 H   0  0  0  0  0  0  0  0  0  0  0  0
   47.1120   27.9100   48.5000 H   0  0  0  0  0  0  0  0  0  0  0  0
   47.8180   28.2200   46.9210 H   0  0  0  0  0  0  0  0  0  0  0  0
   45.3430   31.6200   48.1500 O   0  0  0  0  0  0  0  0  0  0  0  0
   47.4500   32.9050   47.4330 O   0  0  0  0  0  0  0  0  0  0  0  0
   46.1680   32.3350   46.8910 P   0  0  1  0  0  0  0  0  0  0  0  0
   46.5450   31.1650   45.7260 O   0  0  0  0  0  0  0  0  0  0  0  0
   47.1930   31.5260   45.0680 H   0  0  0  0  0  0  0  0  0  0  0  0
   45.3080   33.6410   46.2000 O   0  0  0  0  0  0  0  0  0  0  0  0
   45.2550   35.8660   43.4080 C   0  0  0  0  0  0  0  0  0  0  0  0
   46.2620   35.3600   42.5440 C   0  0  0  0  0  0  0  0  0  0  0  0
   46.9570   34.2200   42.9720 C   0  0  0  0  0  0  0  0  0  0  0  0
   46.6210   33.6840   44.1720 N   0  0  0  0  0  0  0  0  0  0  0  0
   45.6580   34.1920   44.9620 C   0  0  0  0  0  0  0  0  0  0  0  0
   44.9810   35.2810   44.5740 N   0  0  0  0  0  0  0  0  0  0  0  0
   46.5030   35.8180   41.5900 H   0  0  0  0  0  0  0  0  0  0  0  0
   47.7360   33.7880   42.3610 H   0  0  0  0  0  0  0  0  0  0  0  0
   44.5730   36.9870   42.9860 O   0  0  0  0  0  0  0  0  0  0  0  0
   44.0970   37.6170   43.6150 H   0  0  0  0  0  0  0  0  0  0  0  0
   47.9380   30.2180   49.0830 O   0  0  0  0  0  0  0  0  0  0  0  0
   49.9940   29.1990   49.7900 C   0  0  2  0  0  3  0  0  0  0  0  0
   49.2640   30.3150   48.9980 C   0  0  2  0  0  3  0  0  0  0  0  0
   49.7230   31.5860   49.6710 C   0  0  0  0  0  3  0  0  0  0  0  0
   49.4930   32.5090   49.1530 H   0  0  0  0  0  0  0  0  0  0  0  0
   51.0770   31.5350   49.9980 O   0  0  0  0  0  0  0  0  0  0  0  0
   51.2810   30.7780   51.1490 C   0  0  0  0  0  3  0  0  0  0  0  0
   52.2790   30.3110   51.0260 H   0  0  0  0  0  0  0  0  0  0  0  0
   50.2620   29.6750   51.2240 C   0  0  2  0  0  3  0  0  0  0  0  0
   51.2660   28.9910   49.2580 O   0  0  0  0  0  0  0  0  0  0  0  0
   51.6090   28.1780   49.6830 H   0  0  0  0  0  0  0  0  0  0  0  0
   50.8870   28.5830   51.8430 O   0  0  0  0  0  0  0  0  0  0  0  0
   50.5050   28.3360   52.7040 H   0  0  0  0  0  0  0  0  0  0  0  0
  1  6  1  6  0  0  0
  1  2  1  0  0  0  0
  1 28  1  0  0  0  0
  2  7  1  1  0  0  0
  3  9  1  0  0  0  0
  3  2  1  0  0  0  0
  4  3  1  0  0  0  0
  4  5  1  0  0  0  0
  5  1  1  0  0  0  0
  5 10  1  0  0  0  0
  8  3  1  0  0  0  0
 11  5  1  0  0  0  0
 12  2  1  0  0  0  0
 14 13  2  1  0  0  0
 14 12  1  0  0  0  0
 15 14  1  0  0  0  0
 16 15  1  0  0  0  0
 17 14  1  0  0  0  0
 18 23  1  0  0  0  0
 19 20  1  0  0  0  0
 19 18  2  0  0  0  0
 20 21  2  0  0  0  0
 21 22  1  0  0  0  0
 22 17  1  0  0  0  0
 23 22  2  0  0  0  0
 24 19  1  0  0  0  0
 25 20  1  0  0  0  0
 26 18  1  0  0  0  0
 26 27  1  0  0  0  0
 29 37  1  6  0  0  0
 29 36  1  0  0  0  0
 30 28  1  1  0  0  0
 30 31  1  0  0  0  0
 30 29  1  0  0  0  0
 31 33  1  0  0  0  0
 32 31  1  0  0  0  0
 33 34  1  0  0  0  0
 34 36  1  0  0  0  0
 35 34  1  0  0  0  0
 36 39  1  1  0  0  0
 37 38  1  0  0  0  0
 39 40  1  0  0  0  0
M  END
>  <minimizedAffinity>
-5.51466703

>  <minimizedRMSD>
0.681203008

$$$$
