
     RDKit          3D

 33 34  0  0  0  0  0  0  0  0999 V2000
   44.6888   35.5189   43.6043 C   0  0  0  0  0  0  0  0  0  0  0  0
   43.9357   35.4293   42.4059 C   0  0  0  0  0  0  0  0  0  0  0  0
   43.7836   34.1722   41.8357 C   0  0  0  0  0  0  0  0  0  0  0  0
   44.3570   33.0946   42.4447 N   0  0  0  0  0  0  0  0  0  0  0  0
   45.0721   33.2162   43.5923 C   0  0  0  0  0  0  0  0  0  0  0  0
   45.2221   34.4335   44.1488 N   0  0  0  0  0  0  0  0  0  0  0  0
   44.8549   36.8442   44.2145 C   0  0  0  0  0  0  0  0  0  0  0  0
   45.2414   37.8455   43.4357 C   0  0  0  0  0  0  0  0  0  0  0  0
   45.4254   39.2116   44.0042 C   0  0  0  0  0  0  0  0  0  0  0  0
   43.4912   36.2903   41.9405 H   0  0  0  0  0  0  0  0  0  0  0  0
   43.2198   34.0242   40.9170 H   0  0  0  0  0  0  0  0  0  0  0  0
   44.6867   37.0727   45.2549 H   0  0  0  0  0  0  0  0  0  0  0  0
   45.4028   37.5906   42.3999 H   0  0  0  0  0  0  0  0  0  0  0  0
   44.4371   39.6982   44.1250 H   0  0  0  0  0  0  0  0  0  0  0  0
   45.8755   39.1765   45.0327 H   0  0  0  0  0  0  0  0  0  0  0  0
   46.0317   39.8454   43.3466 H   0  0  0  0  0  0  0  0  0  0  0  0
   45.6716   33.3109   46.0766 O   0  0  0  0  0  0  0  0  0  0  0  0
   46.2908   32.1817   45.5066 C   0  0  2  0  0  0  0  0  0  0  0  0
   45.6462   31.9911   44.1635 C   0  0  1  0  0  0  0  0  0  0  0  0
   44.5278   30.9521   44.3246 C   0  0  1  0  0  0  0  0  0  0  0  0
   44.0078   31.1932   45.2978 H   0  0  0  0  0  0  0  0  0  0  0  0
   45.2281   29.7655   44.5481 O   0  0  0  0  0  0  0  0  0  0  0  0
   45.6463   29.7500   45.8504 C   0  0  2  0  0  0  0  0  0  0  0  0
   46.3521   28.8717   45.9359 H   0  0  0  0  0  0  0  0  0  0  0  0
   46.2510   30.9841   46.3881 C   0  0  2  0  0  0  0  0  0  0  0  0
   45.5243   31.3594   47.5415 O   0  0  0  0  0  0  0  0  0  0  0  0
   44.7845   32.9866   46.3954 H   0  0  0  0  0  0  0  0  0  0  0  0
   47.3481   32.4737   45.3387 H   0  0  0  0  0  0  0  0  0  0  0  0
   46.3362   31.5520   43.4127 H   0  0  0  0  0  0  0  0  0  0  0  0
   43.8517   30.9162   43.4682 H   0  0  0  0  0  0  0  0  0  0  0  0
   44.7580   29.4033   46.4561 H   0  0  0  0  0  0  0  0  0  0  0  0
   47.2762   30.7448   46.7847 H   0  0  0  0  0  0  0  0  0  0  0  0
   46.0943   31.6081   48.2880 H   0  0  0  0  0  0  0  0  0  0  0  0
  1  6  2  0
  1  7  1  0
  2  1  1  0
  3  2  2  0
  3  4  1  0
  4  5  2  0
  5  6  1  0
  8  9  1  0
  8  7  2  0
  2 10  1  0
  3 11  1  0
  7 12  1  0
  8 13  1  0
  9 14  1  0
  9 15  1  0
  9 16  1  0
 17 18  1  0
 18 19  1  0
 19 20  1  0
 20 21  1  1
 20 22  1  0
 22 23  1  0
 23 24  1  6
 23 25  1  0
 25 26  1  0
 25 18  1  0
 17 27  1  0
 18 28  1  6
 19 29  1  6
 20 30  1  0
 23 31  1  0
 25 32  1  1
 26 33  1  0
  5 19  1  0
M  ISO  7  10  14  11  14  14   8  15   8  16   8  21   8  24   8
M  END
>  <DihAtoms>  (1) 
3,4,18,17

>  <DihDeg>  (1) 
126.43163265647952

$$$$
