
     RDKit          3D

 50 52  0  0  0  0  0  0  0  0999 V2000
   43.8667   35.2251   41.1905 C   0  0  0  0  0  0  0  0  0  0  0  0
   43.9651   35.5745   42.4693 C   0  0  0  0  0  0  0  0  0  0  0  0
   45.2314   35.5358   43.3050 C   0  0  0  0  0  0  0  0  0  0  0  0
   45.0091   34.6543   44.3442 O   0  0  0  0  0  0  0  0  0  0  0  0
   45.6969   32.4877   42.9560 O   0  0  0  0  0  0  0  0  0  0  0  0
   45.9982   33.2969   44.1962 P   0  0  1  0  0  0  0  0  0  0  0  0
   47.6329   33.7728   44.0893 O   0  0  0  0  0  0  0  0  0  0  0  0
   45.8600   32.3232   45.5675 O   0  0  0  0  0  0  0  0  0  0  0  0
   46.2039   32.9914   46.7218 C   0  0  0  0  0  0  0  0  0  0  0  0
   47.0554   32.3013   47.7422 C   0  0  0  0  0  0  0  0  0  0  0  0
   45.5747   32.4747   47.9921 C   0  0  0  0  0  0  0  0  0  0  0  0
   42.6056   35.3390   40.6273 O   0  0  0  0  0  0  0  0  0  0  0  0
   41.4345   35.6695   41.2404 C   0  0  0  0  0  0  0  0  0  0  0  0
   40.2778   33.5399   41.5852 C   0  0  0  0  0  0  0  0  0  0  0  0
   40.3079   34.7533   40.8589 C   0  0  0  0  0  0  0  0  0  0  0  0
   39.3400   34.9430   39.9265 C   0  0  0  0  0  0  0  0  0  0  0  0
   38.4448   33.9808   39.7690 N   0  0  0  0  0  0  0  0  0  0  0  0
   38.4137   32.8481   40.4445 C   0  0  0  0  0  0  0  0  0  0  0  0
   39.3695   32.5768   41.4171 N   0  0  0  0  0  0  0  0  0  0  0  0
   44.7003   34.8795   40.6348 H   0  0  0  0  0  0  0  0  0  0  0  0
   43.2187   35.9434   43.1555 H   0  0  0  0  0  0  0  0  0  0  0  0
   45.5018   36.5548   43.6328 H   0  0  0  0  0  0  0  0  0  0  0  0
   46.0081   35.1297   42.6203 H   0  0  0  0  0  0  0  0  0  0  0  0
   47.8330   34.2089   44.9545 H   0  0  0  0  0  0  0  0  0  0  0  0
   46.3065   34.0830   46.6158 H   0  0  0  0  0  0  0  0  0  0  0  0
   47.4586   31.3050   47.5022 H   0  0  0  0  0  0  0  0  0  0  0  0
   47.6890   32.9675   48.3559 H   0  0  0  0  0  0  0  0  0  0  0  0
   45.2393   33.1964   48.7761 H   0  0  0  0  0  0  0  0  0  0  0  0
   45.0132   31.5138   47.9558 H   0  0  0  0  0  0  0  0  0  0  0  0
   41.4178   35.6475   42.3603 H   0  0  0  0  0  0  0  0  0  0  0  0
   41.1122   36.6890   40.9481 H   0  0  0  0  0  0  0  0  0  0  0  0
   41.0158   33.3156   42.3452 H   0  0  0  0  0  0  0  0  0  0  0  0
   39.4140   35.8883   39.4032 H   0  0  0  0  0  0  0  0  0  0  0  0
   37.4303   29.9495   38.6799 O   0  0  0  0  0  0  0  0  0  0  0  0
   38.0014   30.4996   39.8294 C   0  0  1  0  0  0  0  0  0  0  0  0
   37.3702   31.8096   40.2092 C   0  0  1  0  0  0  0  0  0  0  0  0
   36.4966   31.6275   41.4410 C   0  0  2  0  0  0  0  0  0  0  0  0
   35.8252   32.5204   41.5716 H   0  0  0  0  0  0  0  0  0  0  0  0
   35.7588   30.4640   41.3777 O   0  0  0  0  0  0  0  0  0  0  0  0
   36.6111   29.4051   41.6048 C   0  0  1  0  0  0  0  0  0  0  0  0
   36.6905   29.2738   42.7106 H   0  0  0  0  0  0  0  0  0  0  0  0
   37.9620   29.5411   40.9843 C   0  0  2  0  0  0  0  0  0  0  0  0
   38.8773   30.0113   41.9532 O   0  0  0  0  0  0  0  0  0  0  0  0
   36.4630   30.0430   38.6342 H   0  0  0  0  0  0  0  0  0  0  0  0
   39.0911   30.6445   39.5824 H   0  0  0  0  0  0  0  0  0  0  0  0
   36.6777   32.1838   39.4149 H   0  0  0  0  0  0  0  0  0  0  0  0
   37.1801   31.5655   42.3116 H   0  0  0  0  0  0  0  0  0  0  0  0
   36.1202   28.4666   41.2519 H   0  0  0  0  0  0  0  0  0  0  0  0
   38.3369   28.5507   40.6148 H   0  0  0  0  0  0  0  0  0  0  0  0
   39.7983   29.8140   41.6248 H   0  0  0  0  0  0  0  0  0  0  0  0
  1  2  2  0
  2  3  1  0
  3  4  1  0
  6  5  2  0
  6  4  1  1
  6  8  1  0
  7  6  1  0
  8  9  1  0
  9 10  1  0
  9 11  1  0
 10 11  1  0
 12  1  1  0
 12 13  1  0
 15 13  1  0
 15 14  2  0
 16 15  1  0
 17 16  2  0
 17 18  1  0
 18 19  2  0
 19 14  1  0
  1 20  1  0
  2 21  1  0
  3 22  1  0
  3 23  1  0
  7 24  1  0
  9 25  1  0
 10 26  1  0
 10 27  1  0
 11 28  1  0
 11 29  1  0
 13 30  1  0
 13 31  1  0
 14 32  1  0
 16 33  1  0
 34 35  1  0
 35 36  1  0
 36 37  1  0
 37 38  1  1
 37 39  1  0
 39 40  1  0
 40 41  1  1
 40 42  1  0
 42 43  1  0
 42 35  1  0
 34 44  1  0
 35 45  1  6
 36 46  1  6
 37 47  1  0
 40 48  1  0
 42 49  1  6
 43 50  1  0
 18 36  1  0
M  ISO  8  22   8  23   8  24   3  25  13  26  13  27  13  28  13  29  13
M  ISO  6  30   8  31   8  32  14  33  14  38   8  41   8
M  END
>  <DihAtoms>  (1) 
16,17,35,34

>  <DihDeg>  (1) 
122.12104719933353

$$$$
