
     RDKit          3D

 27 28  0  0  0  0  0  0  0  0999 V2000
   44.5381   36.0313   44.5308 C   0  0  0  0  0  0  0  0  0  0  0  0
   45.2653   35.8886   43.3162 C   0  0  0  0  0  0  0  0  0  0  0  0
   46.1333   34.7960   43.1999 C   0  0  0  0  0  0  0  0  0  0  0  0
   46.2343   33.9331   44.2501 N   0  0  0  0  0  0  0  0  0  0  0  0
   45.5211   34.1047   45.3954 C   0  0  0  0  0  0  0  0  0  0  0  0
   44.6864   35.1359   45.5356 N   0  0  0  0  0  0  0  0  0  0  0  0
   47.0725   34.5634   41.7010 S   0  0  0  0  0  0  0  0  0  0  0  0
   43.8722   36.8792   44.6060 H   0  0  0  0  0  0  0  0  0  0  0  0
   45.1373   36.6121   42.5202 H   0  0  0  0  0  0  0  0  0  0  0  0
   47.5826   35.8053   41.2858 H   0  0  0  0  0  0  0  0  0  0  0  0
   44.7474   31.5683   44.8915 O   0  0  0  0  0  0  0  0  0  0  0  0
   45.6285   31.6822   45.9414 C   0  0  2  0  0  0  0  0  0  0  0  0
   45.7197   33.0906   46.4735 C   0  0  1  0  0  0  0  0  0  0  0  0
   47.0179   33.2543   47.2032 C   0  0  1  0  0  0  0  0  0  0  0  0
   47.8444   33.5820   46.5153 H   0  0  0  0  0  0  0  0  0  0  0  0
   47.3713   31.9870   47.7063 O   0  0  0  0  0  0  0  0  0  0  0  0
   47.9855   31.2877   46.6518 C   0  0  2  0  0  0  0  0  0  0  0  0
   48.3715   30.3254   47.0502 H   0  0  0  0  0  0  0  0  0  0  0  0
   46.9780   31.1035   45.5491 C   0  0  1  0  0  0  0  0  0  0  0  0
   46.7739   29.7234   45.3855 O   0  0  0  0  0  0  0  0  0  0  0  0
   44.8128   32.2810   44.2114 H   0  0  0  0  0  0  0  0  0  0  0  0
   45.2609   31.0296   46.7681 H   0  0  0  0  0  0  0  0  0  0  0  0
   44.8824   33.2111   47.2085 H   0  0  0  0  0  0  0  0  0  0  0  0
   46.9223   33.9362   48.0870 H   0  0  0  0  0  0  0  0  0  0  0  0
   48.8310   31.9472   46.3019 H   0  0  0  0  0  0  0  0  0  0  0  0
   47.3495   31.5146   44.5732 H   0  0  0  0  0  0  0  0  0  0  0  0
   45.8468   29.5789   45.0437 H   0  0  0  0  0  0  0  0  0  0  0  0
  1  6  2  0
  2  1  1  0
  3  2  2  0
  3  4  1  0
  4  5  2  0
  5  6  1  0
  7  3  1  0
  1  8  1  0
  2  9  1  0
  7 10  1  0
 11 12  1  0
 12 13  1  0
 13 14  1  0
 14 15  1  6
 14 16  1  0
 16 17  1  0
 17 18  1  1
 17 19  1  0
 19 20  1  0
 19 12  1  0
 11 21  1  0
 12 22  1  1
 13 23  1  1
 14 24  1  0
 17 25  1  0
 19 26  1  6
 20 27  1  0
  5 13  1  0
M  ISO  5   8  14   9  14  10  11  15   8  18   8
M  END
>  <DihAtoms>  (1) 
3,4,12,11

>  <DihDeg>  (1) 
116.73696216272855

$$$$
