
 OpenBabel03242523463D

 22 23  0  0  1  0  0  0  0  0999 V2000
   48.5180   33.8000   42.1860 C   0  0  1  0  0  3  0  0  0  0  0  0
   47.3580   32.8890   42.4450 C   0  0  2  0  0  3  0  0  0  0  0  0
   46.4150   32.7670   41.2620 C   0  0  0  0  0  3  0  0  0  0  0  0
   46.0570   31.7170   41.2470 H   0  0  0  0  0  0  0  0  0  0  0  0
   47.0410   32.9780   40.0470 O   0  0  0  0  0  0  0  0  0  0  0  0
   47.5360   34.2700   39.9080 C   0  0  0  0  0  3  0  0  0  0  0  0
   48.3420   34.2300   39.1420 H   0  0  0  0  0  0  0  0  0  0  0  0
   48.1130   34.8350   41.1660 C   0  0  2  0  0  3  0  0  0  0  0  0
   44.7980   34.9080   44.3340 C   0  0  0  0  0  0  0  0  0  0  0  0
   45.5250   34.3920   43.2490 C   0  0  0  0  0  0  0  0  0  0  0  0
   46.5560   33.4670   43.5490 C   0  0  0  0  0  0  0  0  0  0  0  0
   46.7790   33.1350   44.8420 N   0  0  0  0  0  0  0  0  0  0  0  0
   46.0530   33.6580   45.8480 C   0  0  0  0  0  0  0  0  0  0  0  0
   45.0710   34.5350   45.6020 N   0  0  0  0  0  0  0  0  0  0  0  0
   45.3260   34.6750   42.2260 H   0  0  0  0  0  0  0  0  0  0  0  0
   46.2040   33.4150   46.9000 H   0  0  0  0  0  0  0  0  0  0  0  0
   43.8010   35.8020   44.0500 O   0  0  0  0  0  0  0  0  0  0  0  0
   44.0590   36.7610   43.8490 H   0  0  0  0  0  0  0  0  0  0  0  0
   48.7990   34.5060   43.3770 O   0  0  0  0  0  0  0  0  0  0  0  0
   49.6800   34.9110   43.3940 H   0  0  0  0  0  0  0  0  0  0  0  0
   49.2470   35.5870   40.8610 O   0  0  0  0  0  0  0  0  0  0  0  0
   49.7360   35.9280   41.6250 H   0  0  0  0  0  0  0  0  0  0  0  0
  1  2  1  0  0  0  0
  1 19  1  1  0  0  0
  2 11  1  1  0  0  0
  3  2  1  0  0  0  0
  4  3  1  0  0  0  0
  5  3  1  0  0  0  0
  6  5  1  0  0  0  0
  6  8  1  0  0  0  0
  7  6  1  0  0  0  0
  8 21  1  6  0  0  0
  8  1  1  0  0  0  0
  9 14  1  0  0  0  0
 10 11  1  0  0  0  0
 10  9  2  0  0  0  0
 11 12  2  0  0  0  0
 12 13  1  0  0  0  0
 13 16  1  0  0  0  0
 14 13  2  0  0  0  0
 15 10  1  0  0  0  0
 17  9  1  0  0  0  0
 18 17  1  0  0  0  0
 19 20  1  0  0  0  0
 21 22  1  0  0  0  0
M  END
>  <minimizedAffinity>
-5.08955812

>  <minimizedRMSD>
0.855152667

$$$$
