
 OpenBabel03242513073D

 44 48  0  0  1  0  0  0  0  0999 V2000
   45.9450   33.2080   41.6700 C   0  0  0  0  0  0  0  0  0  0  0  0
   47.1140   33.9060   41.3440 C   0  0  0  0  0  0  0  0  0  0  0  0
   48.1020   33.9730   42.3110 C   0  0  0  0  0  0  0  0  0  0  0  0
   47.8610   33.3530   43.5070 N   0  0  0  0  0  0  0  0  0  0  0  0
   46.7480   32.6930   43.8050 C   0  0  0  0  0  0  0  0  0  0  0  0
   45.7710   32.6140   42.8810 N   0  0  0  0  0  0  0  0  0  0  0  0
   45.1610   33.1420   40.9350 H   0  0  0  0  0  0  0  0  0  0  0  0
   46.9180   30.7650   45.3070 C   0  0  0  0  0  0  0  0  0  0  0  0
   46.5960   32.0720   45.1050 C   0  0  0  0  0  0  0  0  0  0  0  0
   46.0990   32.8980   46.1360 C   0  0  0  0  0  0  0  0  0  0  0  0
   45.9230   32.3780   47.4150 C   0  0  0  0  0  0  0  0  0  0  0  0
   45.4820   32.8550   48.6150 N   0  0  0  0  0  0  0  0  0  0  0  0
   45.5510   31.8210   49.5060 C   0  0  0  0  0  0  0  0  0  0  0  0
   46.0280   30.7320   48.8500 N   0  0  0  0  0  0  0  0  0  0  0  0
   46.2630   31.0480   47.5670 C   0  0  0  0  0  0  0  0  0  0  0  0
   46.7500   30.2220   46.5780 C   0  0  0  0  0  0  0  0  0  0  0  0
   47.2960   30.1650   44.4910 H   0  0  0  0  0  0  0  0  0  0  0  0
   45.8400   33.9390   45.9870 H   0  0  0  0  0  0  0  0  0  0  0  0
   45.1670   33.8360   48.7550 H   0  0  0  0  0  0  0  0  0  0  0  0
   45.2580   31.9250   50.5410 H   0  0  0  0  0  0  0  0  0  0  0  0
   46.9980   29.1870   46.7660 H   0  0  0  0  0  0  0  0  0  0  0  0
   49.3620   34.6960   42.0260 C   0  0  0  0  0  0  0  0  0  0  0  0
   49.1080   35.8250   41.2340 F   0  0  0  0  0  0  0  0  0  0  0  0
   49.9200   35.1640   43.1920 F   0  0  0  0  0  0  0  0  0  0  0  0
   50.2080   33.8500   41.3690 F   0  0  0  0  0  0  0  0  0  0  0  0
   47.2240   34.4750   40.1220 O   0  0  0  0  0  0  0  0  0  0  0  0
   47.3710   33.7240   38.9700 C   0  0  0  0  0  0  0  0  0  0  0  0
   48.3760   34.3940   38.2820 C   0  0  0  0  0  0  0  0  0  0  0  0
   48.5930   33.4170   36.7480 S   0  0  0  0  0  0  0  0  0  0  0  0
   47.2360   32.2200   37.3150 C   0  0  0  0  0  0  0  0  0  0  0  0
   46.9900   32.6990   38.2770 N   0  0  0  0  0  0  0  0  0  0  0  0
   49.1900   35.2750   38.1420 H   0  0  0  0  0  0  0  0  0  0  0  0
   47.8050   30.3700   35.7320 C   0  0  2  0  0  3  0  0  0  0  0  0
   46.7440   31.0110   36.5650 C   0  0  2  0  0  3  0  0  0  0  0  0
   45.5280   31.3760   35.7240 C   0  0  0  0  0  3  0  0  0  0  0  0
   45.1280   30.3970   35.3580 H   0  0  0  0  0  0  0  0  0  0  0  0
   45.8490   32.2340   34.6820 O   0  0  0  0  0  0  0  0  0  0  0  0
   46.7690   31.6520   33.8240 C   0  0  0  0  0  3  0  0  0  0  0  0
   46.2980   31.4650   32.8420 H   0  0  0  0  0  0  0  0  0  0  0  0
   47.2890   30.3180   34.3030 C   0  0  1  0  0  3  0  0  0  0  0  0
   48.0970   29.0570   36.1020 O   0  0  0  0  0  0  0  0  0  0  0  0
   48.3970   28.9600   37.0260 H   0  0  0  0  0  0  0  0  0  0  0  0
   48.3990   30.0280   33.4900 O   0  0  0  0  0  0  0  0  0  0  0  0
   48.0690   29.8880   32.5590 H   0  0  0  0  0  0  0  0  0  0  0  0
  1  6  1  0  0  0  0
  2  1  2  0  0  0  0
  2  3  1  0  0  0  0
  3  4  2  0  0  0  0
  4  5  1  0  0  0  0
  5  9  1  0  0  0  0
  6  5  2  0  0  0  0
  7  1  1  0  0  0  0
  8 16  1  0  0  0  0
  9  8  2  0  0  0  0
  9 10  1  0  0  0  0
 10 11  2  0  0  0  0
 11 15  1  0  0  0  0
 11 12  1  0  0  0  0
 12 19  1  0  0  0  0
 12 13  1  0  0  0  0
 13 20  1  0  0  0  0
 14 13  2  0  0  0  0
 15 14  1  0  0  0  0
 16 21  1  0  0  0  0
 16 15  2  0  0  0  0
 17  8  1  0  0  0  0
 18 10  1  0  0  0  0
 22  3  1  0  0  0  0
 22 24  1  0  0  0  0
 23 22  1  0  0  0  0
 25 22  1  0  0  0  0
 26  2  1  0  0  0  0
 27 26  1  0  0  0  0
 28 27  2  0  0  0  0
 29 30  1  0  0  0  0
 29 28  1  0  0  0  0
 30 31  2  0  0  0  0
 31 27  1  0  0  0  0
 32 28  1  0  0  0  0
 33 41  1  1  0  0  0
 33 34  1  0  0  0  0
 34 30  1  6  0  0  0
 35 34  1  0  0  0  0
 36 35  1  0  0  0  0
 37 35  1  0  0  0  0
 38 40  1  0  0  0  0
 38 37  1  0  0  0  0
 39 38  1  0  0  0  0
 40 43  1  6  0  0  0
 40 33  1  0  0  0  0
 41 42  1  0  0  0  0
 44 43  1  0  0  0  0
M  END
>  <minimizedAffinity>
-6.60486794

>  <minimizedRMSD>
0.0680798367

$$$$
