
 OpenBabel03242517163D

 36 38  0  0  1  0  0  0  0  0999 V2000
   44.6120   34.9910   44.9730 C   0  0  0  0  0  0  0  0  0  0  0  0
   45.1450   34.3740   43.8110 C   0  0  0  0  0  0  0  0  0  0  0  0
   45.9980   33.2890   43.9820 C   0  0  0  0  0  0  0  0  0  0  0  0
   46.2620   32.8960   45.2640 N   0  0  0  0  0  0  0  0  0  0  0  0
   45.7460   33.4950   46.3320 C   0  0  0  0  0  0  0  0  0  0  0  0
   44.9240   34.5400   46.1920 N   0  0  0  0  0  0  0  0  0  0  0  0
   43.9580   35.8220   44.8300 H   0  0  0  0  0  0  0  0  0  0  0  0
   46.3890   32.8400   43.0900 H   0  0  0  0  0  0  0  0  0  0  0  0
   47.4000   32.3250   47.6670 C   0  0  2  0  0  3  0  0  0  0  0  0
   46.0730   33.0160   47.7120 C   0  0  2  0  0  3  0  0  0  0  0  0
   44.9760   31.9920   48.0290 C   0  0  0  0  0  3  0  0  0  0  0  0
   44.0100   32.5300   47.8230 H   0  0  0  0  0  0  0  0  0  0  0  0
   45.0720   30.9920   47.0850 O   0  0  0  0  0  0  0  0  0  0  0  0
   46.1720   30.1660   47.3250 C   0  0  0  0  0  3  0  0  0  0  0  0
   45.8760   29.2650   47.8910 H   0  0  0  0  0  0  0  0  0  0  0  0
   47.2930   30.8650   48.0540 C   0  0  2  0  0  3  0  0  0  0  0  0
   48.3030   32.9340   48.5320 O   0  0  0  0  0  0  0  0  0  0  0  0
   47.8820   33.1060   49.4000 H   0  0  0  0  0  0  0  0  0  0  0  0
   47.1770   30.7220   49.4490 O   0  0  0  0  0  0  0  0  0  0  0  0
   46.6830   29.8530   49.5560 H   0  0  0  0  0  0  0  0  0  0  0  0
   44.8150   34.8540   42.4770 C   0  0  0  0  0  3  0  0  0  0  0  0
   43.6210   34.9010   41.9540 C   0  0  0  0  0  3  0  0  0  0  0  0
   43.3500   35.4050   40.5770 C   0  0  0  0  0  0  0  0  0  0  0  0
   44.0540   34.8710   39.8990 H   0  0  0  0  0  0  0  0  0  0  0  0
   43.6070   36.4870   40.4970 H   0  0  0  0  0  0  0  0  0  0  0  0
   42.5070   35.7480   37.9400 F   0  0  0  0  0  0  0  0  0  0  0  0
   41.5980   35.2800   38.8270 C   0  0  0  0  0  0  0  0  0  0  0  0
   41.9890   35.0950   40.1630 C   0  0  0  0  0  0  0  0  0  0  0  0
   40.9810   34.6200   40.9530 C   0  0  0  0  0  0  0  0  0  0  0  0
   39.6840   34.3190   40.5850 C   0  0  0  0  0  0  0  0  0  0  0  0
   39.3910   34.5370   39.2310 C   0  0  0  0  0  0  0  0  0  0  0  0
   40.3170   35.0110   38.3360 C   0  0  0  0  0  0  0  0  0  0  0  0
   41.1950   34.4490   42.0000 H   0  0  0  0  0  0  0  0  0  0  0  0
   38.9490   33.9500   41.2630 H   0  0  0  0  0  0  0  0  0  0  0  0
   38.4060   34.3350   38.8320 H   0  0  0  0  0  0  0  0  0  0  0  0
   40.1100   35.1850   37.2900 H   0  0  0  0  0  0  0  0  0  0  0  0
  1  6  1  0  0  0  0
  2  3  1  0  0  0  0
  2  1  2  0  0  0  0
  3  4  2  0  0  0  0
  4  5  1  0  0  0  0
  6  5  2  0  0  0  0
  7  1  1  0  0  0  0
  8  3  1  0  0  0  0
  9 10  1  0  0  0  0
  9 16  1  0  0  0  0
  9 17  1  1  0  0  0
 10  5  1  6  0  0  0
 10 11  1  0  0  0  0
 12 11  1  0  0  0  0
 13 14  1  0  0  0  0
 13 11  1  0  0  0  0
 14 15  1  0  0  0  0
 14 16  1  0  0  0  0
 16 19  1  1  0  0  0
 17 18  1  0  0  0  0
 19 20  1  0  0  0  0
 21  2  1  0  0  0  0
 22 21  2  0  0  0  0
 23 22  1  0  0  0  0
 24 23  1  0  0  0  0
 25 23  1  0  0  0  0
 26 27  1  0  0  0  0
 27 28  1  0  0  0  0
 28 23  1  0  0  0  0
 28 29  2  0  0  0  0
 29 33  1  0  0  0  0
 30 29  1  0  0  0  0
 30 34  1  0  0  0  0
 31 30  2  0  0  0  0
 32 27  2  0  0  0  0
 32 31  1  0  0  0  0
 35 31  1  0  0  0  0
 36 32  1  0  0  0  0
M  END
>  <minimizedAffinity>
-6.41915846

>  <minimizedRMSD>
2.08013177

$$$$
