
 OpenBabel03252507433D

 34 36  0  0  1  0  0  0  0  0999 V2000
   44.2800   34.6410   41.1590 C   0  0  0  0  0  0  0  0  0  0  0  0
   43.3640   35.6390   41.6270 C   0  0  0  0  0  0  0  0  0  0  0  0
   41.8470   35.2920   40.6340 S   0  0  0  0  0  0  0  0  0  0  0  0
   42.7190   33.8620   39.7640 C   0  0  0  0  0  0  0  0  0  0  0  0
   43.7540   33.8680   40.2370 N   0  0  0  0  0  0  0  0  0  0  0  0
   43.5830   36.3820   42.3830 H   0  0  0  0  0  0  0  0  0  0  0  0
   41.0650   32.0470   39.3760 C   0  0  1  0  0  3  0  0  0  0  0  0
   42.0450   33.0250   38.7180 C   0  0  2  0  0  3  0  0  0  0  0  0
   43.1130   32.2360   38.0400 C   0  0  0  0  0  3  0  0  0  0  0  0
   43.2060   32.5980   36.9890 H   0  0  0  0  0  0  0  0  0  0  0  0
   42.7060   30.8940   37.9050 O   0  0  0  0  0  0  0  0  0  0  0  0
   41.4500   30.8050   37.3150 C   0  0  0  0  0  3  0  0  0  0  0  0
   41.3900   31.4080   36.3730 H   0  0  0  0  0  0  0  0  0  0  0  0
   40.4120   31.2480   38.2970 C   0  0  2  0  0  3  0  0  0  0  0  0
   41.7630   31.3240   40.3100 O   0  0  0  0  0  0  0  0  0  0  0  0
   41.3260   31.2720   41.1930 H   0  0  0  0  0  0  0  0  0  0  0  0
   39.4450   32.0840   37.6910 O   0  0  0  0  0  0  0  0  0  0  0  0
   39.1710   32.7820   38.3340 H   0  0  0  0  0  0  0  0  0  0  0  0
   45.6520   34.5500   41.7000 C   0  0  0  0  0  0  0  0  0  0  0  0
   45.9080   35.4800   42.2430 H   0  0  0  0  0  0  0  0  0  0  0  0
   45.6300   33.6960   42.4290 H   0  0  0  0  0  0  0  0  0  0  0  0
   46.7150   34.2570   40.7080 C   0  0  0  0  0  0  0  0  0  0  0  0
   46.7840   35.1620   40.0350 H   0  0  0  0  0  0  0  0  0  0  0  0
   46.4890   33.4300   40.0460 H   0  0  0  0  0  0  0  0  0  0  0  0
   48.0740   34.1360   41.2990 C   0  0  0  0  0  0  0  0  0  0  0  0
   48.7470   32.9280   41.1100 C   0  0  0  0  0  0  0  0  0  0  0  0
   50.0110   32.7690   41.6390 C   0  0  0  0  0  0  0  0  0  0  0  0
   50.5600   33.8140   42.3350 N   0  0  0  0  0  0  0  0  0  0  0  0
   49.8740   34.9700   42.4980 C   0  0  0  0  0  0  0  0  0  0  0  0
   48.6640   35.1170   41.9880 N   0  0  0  0  0  0  0  0  0  0  0  0
   50.5620   31.8510   41.5140 H   0  0  0  0  0  0  0  0  0  0  0  0
   50.3130   35.7990   43.0520 H   0  0  0  0  0  0  0  0  0  0  0  0
   47.9540   31.6020   40.1820 S   0  0  0  0  0  0  0  0  0  0  0  0
   47.8510   30.4460   41.0070 H   0  0  0  0  0  0  0  0  0  0  0  0
  1  2  2  0  0  0  0
  1 19  1  0  0  0  0
  2  6  1  0  0  0  0
  3  2  1  0  0  0  0
  4  5  2  0  0  0  0
  4  3  1  0  0  0  0
  5  1  1  0  0  0  0
  7 15  1  1  0  0  0
  8  7  1  0  0  0  0
  8  4  1  1  0  0  0
  9  8  1  0  0  0  0
 10  9  1  0  0  0  0
 11  9  1  0  0  0  0
 12 11  1  0  0  0  0
 12 14  1  0  0  0  0
 13 12  1  0  0  0  0
 14 17  1  6  0  0  0
 14  7  1  0  0  0  0
 15 16  1  0  0  0  0
 17 18  1  0  0  0  0
 19 20  1  0  0  0  0
 19 21  1  0  0  0  0
 22 25  1  0  0  0  0
 22 19  1  0  0  0  0
 23 22  1  0  0  0  0
 24 22  1  0  0  0  0
 25 30  1  0  0  0  0
 26 25  2  0  0  0  0
 26 27  1  0  0  0  0
 27 28  2  0  0  0  0
 28 29  1  0  0  0  0
 29 32  1  0  0  0  0
 30 29  2  0  0  0  0
 31 27  1  0  0  0  0
 33 34  1  0  0  0  0
 33 26  1  0  0  0  0
M  END
>  <minimizedAffinity>
-4.43659115

>  <minimizedRMSD>
0.58687073

$$$$
