REMARK  Name = 
REMARK  5 active torsions:
REMARK  status: ('A' for Active; 'I' for Inactive)
REMARK    1  A    between atoms: C_1  and  C_7
REMARK    2  A    between atoms: C_5  and  C_19
REMARK    3  A    between atoms: C_8  and  C_9
REMARK    4  A    between atoms: O_17  and  C_18
REMARK    5  A    between atoms: C_25  and  O_26
REMARK                            x       y       z     vdW  Elec       q    Type
REMARK                         _______ _______ _______ _____ _____    ______ ____
ROOT
ATOM      1  C   UNL     1      44.689  35.519  43.604  0.00  0.00    +0.000 A 
ATOM      2  C   UNL     1      43.936  35.429  42.406  0.00  0.00    +0.000 A 
ATOM      3  C   UNL     1      43.784  34.172  41.836  0.00  0.00    +0.000 A 
ATOM      4  N   UNL     1      44.357  33.095  42.445  0.00  0.00    +0.000 NA
ATOM      5  C   UNL     1      45.072  33.216  43.592  0.00  0.00    +0.000 A 
ATOM      6  N   UNL     1      45.222  34.434  44.149  0.00  0.00    +0.000 NA
ATOM      7  H   UNL     1      43.491  36.290  41.941  0.00  0.00    +0.000 HD
ATOM      8  H   UNL     1      43.220  34.024  40.917  0.00  0.00    +0.000 HD
ENDROOT
BRANCH   5  10
ATOM      9  C   UNL     1      46.446  31.174  43.190  0.00  0.00    +0.000 C 
ATOM     10  C   UNL     1      45.646  31.991  44.163  0.00  0.00    +0.000 C 
ATOM     11  C   UNL     1      46.575  32.377  45.323  0.00  0.00    +0.000 C 
ATOM     12  H   UNL     1      47.566  32.655  44.858  0.00  0.00    +0.000 HD
ATOM     13  O   UNL     1      46.786  31.162  45.977  0.00  0.00    +0.000 OA
ATOM     14  C   UNL     1      47.710  30.445  45.267  0.00  0.00    +0.000 C 
ATOM     15  H   UNL     1      47.715  29.412  45.725  0.00  0.00    +0.000 HD
ATOM     16  C   UNL     1      47.550  30.387  43.801  0.00  0.00    +0.000 C 
BRANCH   9  17
ATOM     17  O   UNL     1      46.888  32.074  42.201  0.00  0.00    +0.000 OA
ATOM     18  H   UNL     1      47.646  32.567  42.620  0.00  0.00    +0.000 HD
ENDBRANCH   9  17
BRANCH  16  19
ATOM     19  O   UNL     1      48.748  30.852  43.212  0.00  0.00    +0.000 OA
ATOM     20  H   UNL     1      49.058  30.290  42.482  0.00  0.00    +0.000 HD
ENDBRANCH  16  19
ENDBRANCH   5  10
BRANCH   1  21
ATOM     21  C   UNL     1      44.855  36.844  44.215  0.00  0.00    +0.000 C 
ATOM     22  C   UNL     1      45.241  37.846  43.436  0.00  0.00    +0.000 C 
BRANCH  22  23
ATOM     23  C   UNL     1      45.425  39.212  44.004  0.00  0.00    +0.000 C 
ATOM     24  H   UNL     1      44.437  39.698  44.125  0.00  0.00    +0.000 HD
ATOM     25  H   UNL     1      45.876  39.176  45.033  0.00  0.00    +0.000 HD
ATOM     26  H   UNL     1      46.032  39.845  43.347  0.00  0.00    +0.000 HD
ENDBRANCH  22  23
ENDBRANCH   1  21
TORSDOF 5
