
     RDKit          3D

 33 34  0  0  0  0  0  0  0  0999 V2000
   44.2975   35.7826   44.1893 C   0  0  0  0  0  0  0  0  0  0  0  0
   44.4684   34.9313   43.0981 C   0  0  0  0  0  0  0  0  0  0  0  0
   45.0829   33.7086   43.3025 C   0  0  0  0  0  0  0  0  0  0  0  0
   45.4948   33.3909   44.5666 N   0  0  0  0  0  0  0  0  0  0  0  0
   45.3138   34.2423   45.6095 C   0  0  0  0  0  0  0  0  0  0  0  0
   44.7225   35.4117   45.3965 N   0  0  0  0  0  0  0  0  0  0  0  0
   44.0231   35.2837   41.7522 C   0  0  0  0  0  0  0  0  0  0  0  0
   43.0119   34.7609   41.1035 C   0  0  0  0  0  0  0  0  0  0  0  0
   42.6432   35.2059   39.7108 C   0  0  0  0  0  0  0  0  0  0  0  0
   43.8117   36.7479   44.0248 H   0  0  0  0  0  0  0  0  0  0  0  0
   45.2615   32.9723   42.5065 H   0  0  0  0  0  0  0  0  0  0  0  0
   44.6173   36.0578   41.2838 H   0  0  0  0  0  0  0  0  0  0  0  0
   42.4649   33.9932   41.6347 H   0  0  0  0  0  0  0  0  0  0  0  0
   42.0341   34.4646   39.1986 H   0  0  0  0  0  0  0  0  0  0  0  0
   42.0629   36.1401   39.8473 H   0  0  0  0  0  0  0  0  0  0  0  0
   43.5934   35.4795   39.2116 H   0  0  0  0  0  0  0  0  0  0  0  0
   47.2694   32.5248   45.7175 O   0  0  0  0  0  0  0  0  0  0  0  0
   46.5311   32.5321   46.8940 C   0  0  1  0  0  0  0  0  0  0  0  0
   45.7926   33.8254   46.9681 C   0  0  2  0  0  0  0  0  0  0  0  0
   44.6526   33.8421   47.9547 C   0  0  2  0  0  0  0  0  0  0  0  0
   43.7370   34.2047   47.4330 H   0  0  0  0  0  0  0  0  0  0  0  0
   44.4535   32.6197   48.5585 O   0  0  0  0  0  0  0  0  0  0  0  0
   44.2987   31.5981   47.6153 C   0  0  2  0  0  0  0  0  0  0  0  0
   43.4520   31.8477   46.9456 H   0  0  0  0  0  0  0  0  0  0  0  0
   45.5876   31.3647   46.8702 C   0  0  1  0  0  0  0  0  0  0  0  0
   45.2911   31.0943   45.5242 O   0  0  0  0  0  0  0  0  0  0  0  0
   48.1651   32.9081   45.7824 H   0  0  0  0  0  0  0  0  0  0  0  0
   47.1916   32.3925   47.7708 H   0  0  0  0  0  0  0  0  0  0  0  0
   46.5356   34.6215   47.2508 H   0  0  0  0  0  0  0  0  0  0  0  0
   44.8862   34.5584   48.7874 H   0  0  0  0  0  0  0  0  0  0  0  0
   44.0390   30.6847   48.2262 H   0  0  0  0  0  0  0  0  0  0  0  0
   46.0858   30.4513   47.3116 H   0  0  0  0  0  0  0  0  0  0  0  0
   45.3009   30.1167   45.3778 H   0  0  0  0  0  0  0  0  0  0  0  0
  1  6  2  0
  2  3  2  0
  2  1  1  0
  3  4  1  0
  4  5  2  0
  6  5  1  0
  7  2  1  0
  8  7  2  0
  9  8  1  0
  1 10  1  0
  3 11  1  0
  7 12  1  0
  8 13  1  0
  9 14  1  0
  9 15  1  0
  9 16  1  0
 17 18  1  0
 18 19  1  0
 19 20  1  0
 20 21  1  6
 20 22  1  0
 22 23  1  0
 23 24  1  6
 23 25  1  0
 25 26  1  0
 25 18  1  0
 17 27  1  0
 18 28  1  1
 19 29  1  1
 20 30  1  0
 23 31  1  0
 25 32  1  1
 26 33  1  0
  5 19  1  0
M  ISO  7  10  14  11  14  14   8  15   8  16   8  21   8  24   8
M  END
>  <DihAtoms>  (1) 
3,4,18,17

>  <DihDeg>  (1) 
-114.56970329364889

$$$$
