
 OpenBabel03242521133D

 31 33  0  0  1  0  0  0  0  0999 V2000
   44.6770   35.3590   45.5110 C   0  0  0  0  0  0  0  0  0  0  0  0
   45.2660   35.4340   44.2250 C   0  0  0  0  0  0  0  0  0  0  0  0
   46.0050   34.3290   43.7910 C   0  0  0  0  0  0  0  0  0  0  0  0
   46.1120   33.2590   44.6250 N   0  0  0  0  0  0  0  0  0  0  0  0
   45.5460   33.2140   45.8340 C   0  0  0  0  0  0  0  0  0  0  0  0
   44.8160   34.2730   46.2900 N   0  0  0  0  0  0  0  0  0  0  0  0
   44.1010   36.2310   45.8360 H   0  0  0  0  0  0  0  0  0  0  0  0
   45.1300   36.3260   43.6280 H   0  0  0  0  0  0  0  0  0  0  0  0
   46.6060   34.3880   42.4980 N   0  0  0  0  0  0  0  0  0  0  0  0
   47.8910   34.7880   42.4280 C   0  0  0  0  0  0  0  0  0  0  0  0
   48.4940   34.8530   41.1760 C   0  0  0  0  0  0  0  0  0  0  0  0
   47.7460   34.5070   40.0850 C   0  0  0  0  0  0  0  0  0  0  0  0
   48.3010   34.5680   38.9390 O   0  0  0  0  0  0  0  0  0  0  0  0
   46.4570   34.1060   40.1460 N   0  0  0  0  0  0  0  0  0  0  0  0
   45.9310   34.0650   41.3890 C   0  0  0  0  0  0  0  0  0  0  0  0
   44.7430   33.7070   41.5650 O   0  0  0  0  0  0  0  0  0  0  0  0
   48.4800   35.0610   43.3020 H   0  0  0  0  0  0  0  0  0  0  0  0
   49.5290   35.1730   41.1100 H   0  0  0  0  0  0  0  0  0  0  0  0
   45.9020   33.8450   39.2910 H   0  0  0  0  0  0  0  0  0  0  0  0
   46.5080   32.3290   47.9400 C   0  0  1  0  0  3  0  0  0  0  0  0
   45.6960   32.0150   46.7050 C   0  0  2  0  0  3  0  0  0  0  0  0
   46.2820   30.9090   45.8850 C   0  0  0  0  0  3  0  0  0  0  0  0
   46.1140   31.1140   44.8110 H   0  0  0  0  0  0  0  0  0  0  0  0
   47.6470   30.8400   46.0980 O   0  0  0  0  0  0  0  0  0  0  0  0
   47.9550   30.3680   47.3710 C   0  0  0  0  0  3  0  0  0  0  0  0
   47.7110   29.2800   47.3760 H   0  0  0  0  0  0  0  0  0  0  0  0
   47.1240   31.0430   48.4320 C   0  0  1  0  0  3  0  0  0  0  0  0
   47.4690   33.3010   47.6840 O   0  0  0  0  0  0  0  0  0  0  0  0
   48.1340   32.9130   47.0620 H   0  0  0  0  0  0  0  0  0  0  0  0
   47.9470   31.3420   49.5030 O   0  0  0  0  0  0  0  0  0  0  0  0
   47.8150   32.2720   49.8220 H   0  0  0  0  0  0  0  0  0  0  0  0
  1  7  1  0  0  0  0
  1  6  1  0  0  0  0
  2  1  2  0  0  0  0
  3  2  1  0  0  0  0
  3  4  2  0  0  0  0
  4  5  1  0  0  0  0
  5  6  2  0  0  0  0
  8  2  1  0  0  0  0
  9  3  1  0  0  0  0
 10  9  1  0  0  0  0
 10 17  1  0  0  0  0
 11 10  2  0  0  0  0
 12 14  1  0  0  0  0
 12 11  1  0  0  0  0
 13 12  2  0  0  0  0
 14 15  1  0  0  0  0
 15 16  2  0  0  0  0
 15  9  1  0  0  0  0
 18 11  1  0  0  0  0
 19 14  1  0  0  0  0
 20 28  1  6  0  0  0
 20 27  1  0  0  0  0
 21  5  1  6  0  0  0
 21 20  1  0  0  0  0
 22 24  1  0  0  0  0
 22 21  1  0  0  0  0
 23 22  1  0  0  0  0
 24 25  1  0  0  0  0
 25 26  1  0  0  0  0
 25 27  1  0  0  0  0
 27 30  1  1  0  0  0
 29 28  1  0  0  0  0
 30 31  1  0  0  0  0
M  END
>  <minimizedAffinity>
-6.5382905

>  <minimizedRMSD>
0.894937932

$$$$
