
 OpenBabel03242523463D

 22 23  0  0  1  0  0  0  0  0999 V2000
   48.3130   33.3710   41.2020 C   0  0  1  0  0  3  0  0  0  0  0  0
   48.2800   34.6530   41.9740 C   0  0  2  0  0  3  0  0  0  0  0  0
   49.5380   34.8950   42.7900 C   0  0  0  0  0  3  0  0  0  0  0  0
   49.7340   35.9860   42.7560 H   0  0  0  0  0  0  0  0  0  0  0  0
   50.6560   34.2870   42.2510 O   0  0  0  0  0  0  0  0  0  0  0  0
   50.5670   32.8990   42.2360 C   0  0  0  0  0  3  0  0  0  0  0  0
   51.2670   32.5340   41.4510 H   0  0  0  0  0  0  0  0  0  0  0  0
   49.2000   32.3850   41.9210 C   0  0  2  0  0  3  0  0  0  0  0  0
   45.0450   35.3350   43.7830 C   0  0  0  0  0  0  0  0  0  0  0  0
   46.0680   35.4550   42.8280 C   0  0  0  0  0  0  0  0  0  0  0  0
   47.1700   34.5730   42.9530 C   0  0  0  0  0  0  0  0  0  0  0  0
   47.1770   33.6770   43.9680 N   0  0  0  0  0  0  0  0  0  0  0  0
   46.1700   33.6010   44.8590 C   0  0  0  0  0  0  0  0  0  0  0  0
   45.1130   34.4190   44.7710 N   0  0  0  0  0  0  0  0  0  0  0  0
   46.0360   36.1790   42.0280 H   0  0  0  0  0  0  0  0  0  0  0  0
   46.1410   32.8940   45.6880 H   0  0  0  0  0  0  0  0  0  0  0  0
   43.9780   36.1850   43.6670 O   0  0  0  0  0  0  0  0  0  0  0  0
   44.0850   37.1370   43.9930 H   0  0  0  0  0  0  0  0  0  0  0  0
   47.0140   32.8160   41.2120 O   0  0  0  0  0  0  0  0  0  0  0  0
   46.8690   32.1420   40.5300 H   0  0  0  0  0  0  0  0  0  0  0  0
   49.3030   31.2500   41.1150 O   0  0  0  0  0  0  0  0  0  0  0  0
   48.4620   30.8930   40.7950 H   0  0  0  0  0  0  0  0  0  0  0  0
  1 19  1  1  0  0  0
  1  8  1  0  0  0  0
  1  2  1  0  0  0  0
  2  3  1  0  0  0  0
  2 11  1  1  0  0  0
  4  3  1  0  0  0  0
  5  3  1  0  0  0  0
  6  5  1  0  0  0  0
  7  6  1  0  0  0  0
  8 21  1  6  0  0  0
  8  6  1  0  0  0  0
  9 14  1  0  0  0  0
 10 11  1  0  0  0  0
 10  9  2  0  0  0  0
 11 12  2  0  0  0  0
 12 13  1  0  0  0  0
 13 16  1  0  0  0  0
 14 13  2  0  0  0  0
 15 10  1  0  0  0  0
 17  9  1  0  0  0  0
 17 18  1  0  0  0  0
 20 19  1  0  0  0  0
 22 21  1  0  0  0  0
M  END
>  <minimizedAffinity>
-4.63130951

>  <minimizedRMSD>
2.05190992

$$$$
