
 OpenBabel03242519053D

 46 49  0  0  1  0  0  0  0  0999 V2000
   49.1210   32.8460   39.9890 N   0  0  0  0  0  0  0  0  0  0  0  0
   50.1540   32.8350   40.1570 H   0  0  0  0  0  0  0  0  0  0  0  0
   47.4780   33.7230   43.0240 N   0  0  0  0  0  0  0  0  0  0  0  0
   48.1970   34.1600   41.8390 C   0  0  0  0  0  0  0  0  0  0  0  0
   48.1870   32.8750   41.0700 C   0  0  2  0  0  0  0  0  0  0  0  0
   48.6540   31.8820   42.1210 C   0  0  0  0  0  0  0  0  0  0  0  0
   48.0300   32.4220   43.3810 C   0  0  0  0  0  0  0  0  0  0  0  0
   49.2410   34.4260   42.0720 H   0  0  0  0  0  0  0  0  0  0  0  0
   47.6850   34.9640   41.2840 H   0  0  0  0  0  0  0  0  0  0  0  0
   47.1750   32.6100   40.7010 H   0  0  0  0  0  0  0  0  0  0  0  0
   49.7540   31.8010   42.1640 H   0  0  0  0  0  0  0  0  0  0  0  0
   48.2140   30.8770   41.8770 H   0  0  0  0  0  0  0  0  0  0  0  0
   48.8470   32.5780   44.1100 H   0  0  0  0  0  0  0  0  0  0  0  0
   47.2880   31.7350   43.7990 H   0  0  0  0  0  0  0  0  0  0  0  0
   44.7160   35.9670   44.1110 C   0  0  0  0  0  0  0  0  0  0  0  0
   45.7140   35.4300   43.3040 C   0  0  0  0  0  0  0  0  0  0  0  0
   46.4540   34.3390   43.7510 C   0  0  0  0  0  0  0  0  0  0  0  0
   46.1370   33.8610   44.9840 N   0  0  0  0  0  0  0  0  0  0  0  0
   45.1780   34.3690   45.7700 C   0  0  0  0  0  0  0  0  0  0  0  0
   44.4600   35.4360   45.3230 N   0  0  0  0  0  0  0  0  0  0  0  0
   44.1690   36.8150   43.7190 H   0  0  0  0  0  0  0  0  0  0  0  0
   45.9780   35.8060   42.3110 H   0  0  0  0  0  0  0  0  0  0  0  0
   44.9680   33.9450   46.7480 H   0  0  0  0  0  0  0  0  0  0  0  0
   49.4180   31.8160   37.7560 C   0  0  0  0  0  0  0  0  0  0  0  0
   48.9640   32.8290   38.5910 C   0  0  0  0  0  0  0  0  0  0  0  0
   48.3320   33.8410   37.9190 C   0  0  0  0  0  0  0  0  0  0  0  0
   48.1320   33.9120   36.5600 C   0  0  0  0  0  0  0  0  0  0  0  0
   48.6020   32.8820   35.7750 C   0  0  0  0  0  0  0  0  0  0  0  0
   49.2470   31.8300   36.3880 C   0  0  0  0  0  0  0  0  0  0  0  0
   47.9360   34.6870   38.4670 H   0  0  0  0  0  0  0  0  0  0  0  0
   47.6250   34.7360   36.0780 H   0  0  0  0  0  0  0  0  0  0  0  0
   48.5070   32.8210   34.6990 H   0  0  0  0  0  0  0  0  0  0  0  0
   49.3620   29.4340   36.3710 C   0  0  2  0  0  3  0  0  0  0  0  0
   49.7860   30.6760   35.6180 C   0  0  2  0  0  3  0  0  0  0  0  0
   51.2890   30.6510   35.5520 C   0  0  0  0  0  3  0  0  0  0  0  0
   51.5730   30.2560   34.5350 H   0  0  0  0  0  0  0  0  0  0  0  0
   51.8290   29.7420   36.4570 O   0  0  0  0  0  0  0  0  0  0  0  0
   51.5450   28.4450   36.0360 C   0  0  0  0  0  3  0  0  0  0  0  0
   52.0250   28.3160   35.0420 H   0  0  0  0  0  0  0  0  0  0  0  0
   50.0610   28.1930   35.8640 C   0  0  1  0  0  3  0  0  0  0  0  0
   48.0030   29.2010   36.3480 O   0  0  0  0  0  0  0  0  0  0  0  0
   47.5310   29.6210   37.1080 H   0  0  0  0  0  0  0  0  0  0  0  0
   49.6440   27.1410   36.6870 O   0  0  0  0  0  0  0  0  0  0  0  0
   48.7990   27.3730   37.1780 H   0  0  0  0  0  0  0  0  0  0  0  0
   50.6470   29.7970   38.8910 N   0  0  0  0  0  0  0  0  0  0  0  0
   50.1070   30.6880   38.3820 C   0  0  0  0  0  0  0  0  0  0  0  0
  1  2  1  0  0  0  0
  1  5  1  0  0  0  0
  3  7  1  0  0  0  0
  3 17  1  0  0  0  0
  4  8  1  0  0  0  0
  4  3  1  0  0  0  0
  5 10  1  6  0  0  0
  5  4  1  0  0  0  0
  5  6  1  0  0  0  0
  6 11  1  0  0  0  0
  6  7  1  0  0  0  0
  7 14  1  0  0  0  0
  7 13  1  0  0  0  0
  9  4  1  0  0  0  0
 12  6  1  0  0  0  0
 15 20  1  0  0  0  0
 16 17  1  0  0  0  0
 16 15  2  0  0  0  0
 17 18  2  0  0  0  0
 18 19  1  0  0  0  0
 19 23  1  0  0  0  0
 20 19  2  0  0  0  0
 21 15  1  0  0  0  0
 22 16  1  0  0  0  0
 24 46  1  0  0  0  0
 24 25  1  0  0  0  0
 25  1  1  0  0  0  0
 26 30  1  0  0  0  0
 26 25  2  0  0  0  0
 27 26  1  0  0  0  0
 28 29  1  0  0  0  0
 28 27  2  0  0  0  0
 29 24  2  0  0  0  0
 31 27  1  0  0  0  0
 32 28  1  0  0  0  0
 33 41  1  6  0  0  0
 34 33  1  0  0  0  0
 34 29  1  1  0  0  0
 35 34  1  0  0  0  0
 35 37  1  0  0  0  0
 36 35  1  0  0  0  0
 38 37  1  0  0  0  0
 39 38  1  0  0  0  0
 40 38  1  0  0  0  0
 40 33  1  0  0  0  0
 40 43  1  1  0  0  0
 41 42  1  0  0  0  0
 43 44  1  0  0  0  0
 46 45  3  0  0  0  0
M  END
>  <minimizedAffinity>
-4.61030245

>  <minimizedRMSD>
0.73280257

$$$$
