
     RDKit          3D

 33 34  0  0  0  0  0  0  0  0999 V2000
   44.2975   35.7826   44.1893 C   0  0  0  0  0  0  0  0  0  0  0  0
   44.4684   34.9313   43.0981 C   0  0  0  0  0  0  0  0  0  0  0  0
   45.0829   33.7086   43.3025 C   0  0  0  0  0  0  0  0  0  0  0  0
   45.4948   33.3909   44.5666 N   0  0  0  0  0  0  0  0  0  0  0  0
   45.3138   34.2423   45.6095 C   0  0  0  0  0  0  0  0  0  0  0  0
   44.7225   35.4117   45.3965 N   0  0  0  0  0  0  0  0  0  0  0  0
   44.0231   35.2837   41.7522 C   0  0  0  0  0  0  0  0  0  0  0  0
   43.0119   34.7609   41.1035 C   0  0  0  0  0  0  0  0  0  0  0  0
   42.6432   35.2059   39.7108 C   0  0  0  0  0  0  0  0  0  0  0  0
   43.8117   36.7479   44.0248 H   0  0  0  0  0  0  0  0  0  0  0  0
   45.2615   32.9723   42.5065 H   0  0  0  0  0  0  0  0  0  0  0  0
   44.6173   36.0578   41.2838 H   0  0  0  0  0  0  0  0  0  0  0  0
   42.4649   33.9932   41.6347 H   0  0  0  0  0  0  0  0  0  0  0  0
   42.0341   34.4646   39.1986 H   0  0  0  0  0  0  0  0  0  0  0  0
   42.0629   36.1401   39.8473 H   0  0  0  0  0  0  0  0  0  0  0  0
   43.5934   35.4795   39.2116 H   0  0  0  0  0  0  0  0  0  0  0  0
   47.6108   33.0216   45.7496 O   0  0  0  0  0  0  0  0  0  0  0  0
   46.8202   32.7504   46.8591 C   0  0  1  0  0  0  0  0  0  0  0  0
   45.7926   33.8254   46.9681 C   0  0  2  0  0  0  0  0  0  0  0  0
   44.6223   33.4877   47.8566 C   0  0  2  0  0  0  0  0  0  0  0  0
   43.6810   33.6746   47.2901 H   0  0  0  0  0  0  0  0  0  0  0  0
   44.6821   32.2026   48.3499 O   0  0  0  0  0  0  0  0  0  0  0  0
   44.8332   31.2633   47.3242 C   0  0  2  0  0  0  0  0  0  0  0  0
   43.9948   31.3702   46.6078 H   0  0  0  0  0  0  0  0  0  0  0  0
   46.1844   31.4036   46.6719 C   0  0  1  0  0  0  0  0  0  0  0  0
   46.0447   31.1958   45.2898 O   0  0  0  0  0  0  0  0  0  0  0  0
   48.3840   33.5942   45.9158 H   0  0  0  0  0  0  0  0  0  0  0  0
   47.4392   32.6882   47.7742 H   0  0  0  0  0  0  0  0  0  0  0  0
   46.3062   34.7427   47.3688 H   0  0  0  0  0  0  0  0  0  0  0  0
   44.6269   34.1596   48.7564 H   0  0  0  0  0  0  0  0  0  0  0  0
   44.7605   30.2628   47.8425 H   0  0  0  0  0  0  0  0  0  0  0  0
   46.8569   30.5939   47.0836 H   0  0  0  0  0  0  0  0  0  0  0  0
   46.2955   30.2646   45.0727 H   0  0  0  0  0  0  0  0  0  0  0  0
  1  6  2  0
  2  3  2  0
  2  1  1  0
  3  4  1  0
  4  5  2  0
  6  5  1  0
  7  2  1  0
  8  7  2  0
  9  8  1  0
  1 10  1  0
  3 11  1  0
  7 12  1  0
  8 13  1  0
  9 14  1  0
  9 15  1  0
  9 16  1  0
 17 18  1  0
 18 19  1  0
 19 20  1  0
 20 21  1  6
 20 22  1  0
 22 23  1  0
 23 24  1  6
 23 25  1  0
 25 26  1  0
 25 18  1  0
 17 27  1  0
 18 28  1  1
 19 29  1  1
 20 30  1  0
 23 31  1  0
 25 32  1  1
 26 33  1  0
  5 19  1  0
M  ISO  7  10  14  11  14  14   8  15   8  16   8  21   8  24   8
M  END
>  <DihAtoms>  (1) 
3,4,18,17

>  <DihDeg>  (1) 
-114.56970329364889

$$$$
