
 OpenBabel03252507433D

 34 36  0  0  1  0  0  0  0  0999 V2000
   44.2740   34.6420   41.1580 C   0  0  0  0  0  0  0  0  0  0  0  0
   43.3580   35.6400   41.6250 C   0  0  0  0  0  0  0  0  0  0  0  0
   41.8410   35.2930   40.6320 S   0  0  0  0  0  0  0  0  0  0  0  0
   42.7130   33.8630   39.7630 C   0  0  0  0  0  0  0  0  0  0  0  0
   43.7480   33.8680   40.2360 N   0  0  0  0  0  0  0  0  0  0  0  0
   43.5760   36.3830   42.3810 H   0  0  0  0  0  0  0  0  0  0  0  0
   41.0610   32.0470   39.3750 C   0  0  1  0  0  3  0  0  0  0  0  0
   42.0400   33.0250   38.7170 C   0  0  2  0  0  3  0  0  0  0  0  0
   43.1080   32.2360   38.0390 C   0  0  0  0  0  3  0  0  0  0  0  0
   43.2010   32.6000   36.9880 H   0  0  0  0  0  0  0  0  0  0  0  0
   42.7020   30.8940   37.9040 O   0  0  0  0  0  0  0  0  0  0  0  0
   41.4470   30.8040   37.3150 C   0  0  0  0  0  3  0  0  0  0  0  0
   41.3860   31.4070   36.3720 H   0  0  0  0  0  0  0  0  0  0  0  0
   40.4070   31.2470   38.2960 C   0  0  2  0  0  3  0  0  0  0  0  0
   41.7600   31.3240   40.3100 O   0  0  0  0  0  0  0  0  0  0  0  0
   41.3220   31.2710   41.1920 H   0  0  0  0  0  0  0  0  0  0  0  0
   39.4410   32.0830   37.6910 O   0  0  0  0  0  0  0  0  0  0  0  0
   39.1660   32.7810   38.3330 H   0  0  0  0  0  0  0  0  0  0  0  0
   45.6460   34.5510   41.7000 C   0  0  0  0  0  0  0  0  0  0  0  0
   45.9030   35.4830   42.2410 H   0  0  0  0  0  0  0  0  0  0  0  0
   45.6230   33.6990   42.4300 H   0  0  0  0  0  0  0  0  0  0  0  0
   46.7080   34.2550   40.7090 C   0  0  0  0  0  0  0  0  0  0  0  0
   46.7760   35.1570   40.0310 H   0  0  0  0  0  0  0  0  0  0  0  0
   46.4840   33.4250   40.0510 H   0  0  0  0  0  0  0  0  0  0  0  0
   48.0680   34.1390   41.3000 C   0  0  0  0  0  0  0  0  0  0  0  0
   48.7430   32.9330   41.1150 C   0  0  0  0  0  0  0  0  0  0  0  0
   50.0080   32.7780   41.6440 C   0  0  0  0  0  0  0  0  0  0  0  0
   50.5550   33.8270   42.3360 N   0  0  0  0  0  0  0  0  0  0  0  0
   49.8660   34.9820   42.4940 C   0  0  0  0  0  0  0  0  0  0  0  0
   48.6560   35.1240   41.9850 N   0  0  0  0  0  0  0  0  0  0  0  0
   50.5610   31.8610   41.5220 H   0  0  0  0  0  0  0  0  0  0  0  0
   50.3040   35.8140   43.0460 H   0  0  0  0  0  0  0  0  0  0  0  0
   47.9540   31.6020   40.1920 S   0  0  0  0  0  0  0  0  0  0  0  0
   47.8540   30.4490   41.0210 H   0  0  0  0  0  0  0  0  0  0  0  0
  1  2  2  0  0  0  0
  1 19  1  0  0  0  0
  2  6  1  0  0  0  0
  3  2  1  0  0  0  0
  4  5  2  0  0  0  0
  4  3  1  0  0  0  0
  5  1  1  0  0  0  0
  7 15  1  1  0  0  0
  8  7  1  0  0  0  0
  8  4  1  1  0  0  0
  9  8  1  0  0  0  0
 10  9  1  0  0  0  0
 11  9  1  0  0  0  0
 12 11  1  0  0  0  0
 12 14  1  0  0  0  0
 13 12  1  0  0  0  0
 14 17  1  6  0  0  0
 14  7  1  0  0  0  0
 15 16  1  0  0  0  0
 17 18  1  0  0  0  0
 19 20  1  0  0  0  0
 19 21  1  0  0  0  0
 22 25  1  0  0  0  0
 22 19  1  0  0  0  0
 23 22  1  0  0  0  0
 24 22  1  0  0  0  0
 25 30  1  0  0  0  0
 26 25  2  0  0  0  0
 26 27  1  0  0  0  0
 27 28  2  0  0  0  0
 28 29  1  0  0  0  0
 29 32  1  0  0  0  0
 30 29  2  0  0  0  0
 31 27  1  0  0  0  0
 33 34  1  0  0  0  0
 33 26  1  0  0  0  0
M  END
>  <minimizedAffinity>
-4.43855286

>  <minimizedRMSD>
0.72724396

$$$$
