
 OpenBabel03242523463D

 22 23  0  0  1  0  0  0  0  0999 V2000
   49.2500   33.6700   41.5360 C   0  0  1  0  0  3  0  0  0  0  0  0
   48.2830   34.6980   41.0370 C   0  0  2  0  0  3  0  0  0  0  0  0
   47.0620   34.8550   41.9230 C   0  0  0  0  0  3  0  0  0  0  0  0
   46.7980   35.9320   41.9150 H   0  0  0  0  0  0  0  0  0  0  0  0
   47.3070   34.5290   43.2440 O   0  0  0  0  0  0  0  0  0  0  0  0
   47.6410   33.1920   43.4220 C   0  0  0  0  0  3  0  0  0  0  0  0
   48.2030   33.1190   44.3810 H   0  0  0  0  0  0  0  0  0  0  0  0
   48.4980   32.6330   42.3320 C   0  0  2  0  0  3  0  0  0  0  0  0
   46.1560   33.0800   38.3800 C   0  0  0  0  0  0  0  0  0  0  0  0
   46.5910   33.4760   39.6550 C   0  0  0  0  0  0  0  0  0  0  0  0
   47.7760   34.2510   39.7180 C   0  0  0  0  0  0  0  0  0  0  0  0
   48.4130   34.5630   38.5650 N   0  0  0  0  0  0  0  0  0  0  0  0
   47.9550   34.1590   37.3650 C   0  0  0  0  0  0  0  0  0  0  0  0
   46.8380   33.4260   37.2680 N   0  0  0  0  0  0  0  0  0  0  0  0
   46.0620   33.2130   40.5600 H   0  0  0  0  0  0  0  0  0  0  0  0
   48.4410   34.3910   36.4170 H   0  0  0  0  0  0  0  0  0  0  0  0
   45.0120   32.3310   38.3140 O   0  0  0  0  0  0  0  0  0  0  0  0
   45.0710   31.3440   38.5310 H   0  0  0  0  0  0  0  0  0  0  0  0
   49.7940   32.9960   40.4210 O   0  0  0  0  0  0  0  0  0  0  0  0
   50.6100   32.5090   40.6150 H   0  0  0  0  0  0  0  0  0  0  0  0
   49.4400   31.7620   42.8810 O   0  0  0  0  0  0  0  0  0  0  0  0
   50.0930   31.4120   42.2560 H   0  0  0  0  0  0  0  0  0  0  0  0
  1 19  1  6  0  0  0
  1  8  1  0  0  0  0
  2 11  1  6  0  0  0
  2  1  1  0  0  0  0
  2  3  1  0  0  0  0
  3  5  1  0  0  0  0
  4  3  1  0  0  0  0
  5  6  1  0  0  0  0
  6  7  1  0  0  0  0
  8 21  1  1  0  0  0
  8  6  1  0  0  0  0
  9 10  1  0  0  0  0
 10 11  2  0  0  0  0
 10 15  1  0  0  0  0
 12 11  1  0  0  0  0
 13 12  2  0  0  0  0
 14 13  1  0  0  0  0
 14  9  2  0  0  0  0
 16 13  1  0  0  0  0
 17  9  1  0  0  0  0
 17 18  1  0  0  0  0
 19 20  1  0  0  0  0
 22 21  1  0  0  0  0
M  END
>  <minimizedAffinity>
-4.11431789

>  <minimizedRMSD>
5.1847434

$$$$
