
 OpenBabel03242523373D

 22 23  0  0  1  0  0  0  0  0999 V2000
   45.7820   30.9300   47.9120 C   0  0  2  0  0  3  0  0  0  0  0  0
   46.3690   32.3200   47.8770 C   0  0  1  0  0  3  0  0  0  0  0  0
   47.7940   32.2590   48.3340 C   0  0  0  0  0  3  0  0  0  0  0  0
   48.4980   32.0630   47.4800 H   0  0  0  0  0  0  0  0  0  0  0  0
   47.8970   31.1700   49.2200 O   0  0  0  0  0  0  0  0  0  0  0  0
   48.0430   30.0160   48.4300 C   0  0  0  0  0  3  0  0  0  0  0  0
   48.2350   29.1530   49.1040 H   0  0  0  0  0  0  0  0  0  0  0  0
   46.7990   29.8450   47.6000 C   0  0  1  0  0  3  0  0  0  0  0  0
   45.1790   34.4340   45.0610 C   0  0  0  0  0  0  0  0  0  0  0  0
   46.0430   34.0290   44.0060 C   0  0  0  0  0  0  0  0  0  0  0  0
   47.0030   33.0490   44.2900 C   0  0  0  0  0  0  0  0  0  0  0  0
   47.0560   32.5390   45.5530 N   0  0  0  0  0  0  0  0  0  0  0  0
   46.2100   32.9540   46.5340 C   0  0  0  0  0  0  0  0  0  0  0  0
   45.2860   33.8860   46.2950 N   0  0  0  0  0  0  0  0  0  0  0  0
   44.4430   35.1910   44.8270 H   0  0  0  0  0  0  0  0  0  0  0  0
   45.9470   34.4750   43.0240 H   0  0  0  0  0  0  0  0  0  0  0  0
   48.1160   32.4990   43.0090 S   0  0  0  0  0  0  0  0  0  0  0  0
   48.5690   33.6170   42.2880 H   0  0  0  0  0  0  0  0  0  0  0  0
   44.6870   30.7960   47.0910 O   0  0  0  0  0  0  0  0  0  0  0  0
   44.7850   31.1980   46.1940 H   0  0  0  0  0  0  0  0  0  0  0  0
   46.1980   28.6320   47.9800 O   0  0  0  0  0  0  0  0  0  0  0  0
   45.2140   28.7060   47.8280 H   0  0  0  0  0  0  0  0  0  0  0  0
  1 19  1  6  0  0  0
  2 13  1  6  0  0  0
  2  1  1  0  0  0  0
  2  3  1  0  0  0  0
  3  5  1  0  0  0  0
  4  3  1  0  0  0  0
  6  7  1  0  0  0  0
  6  5  1  0  0  0  0
  8  1  1  0  0  0  0
  8 21  1  1  0  0  0
  8  6  1  0  0  0  0
  9 14  1  0  0  0  0
 10 11  1  0  0  0  0
 10  9  2  0  0  0  0
 11 12  2  0  0  0  0
 12 13  1  0  0  0  0
 14 13  2  0  0  0  0
 15  9  1  0  0  0  0
 16 10  1  0  0  0  0
 17 11  1  0  0  0  0
 18 17  1  0  0  0  0
 20 19  1  0  0  0  0
 22 21  1  0  0  0  0
M  END
>  <minimizedAffinity>
-4.57145739

>  <minimizedRMSD>
2.12296152

$$$$
