REMARK  Name = 
REMARK  12 active torsions:
REMARK  status: ('A' for Active; 'I' for Inactive)
REMARK    1  A    between atoms: C_1  and  O_12
REMARK    2  A    between atoms: C_2  and  C_3
REMARK    3  A    between atoms: C_3  and  O_4
REMARK    4  A    between atoms: O_4  and  P_6
REMARK    5  A    between atoms: P_6  and  O_7
REMARK    6  A    between atoms: P_6  and  O_8
REMARK    7  A    between atoms: O_8  and  C_9
REMARK    8  A    between atoms: O_12  and  C_13
REMARK    9  A    between atoms: C_13  and  C_15
REMARK   10  A    between atoms: C_18  and  C_36
REMARK   11  A    between atoms: O_34  and  C_35
REMARK   12  A    between atoms: C_42  and  O_43
REMARK                            x       y       z     vdW  Elec       q    Type
REMARK                         _______ _______ _______ _____ _____    ______ ____
ROOT
ATOM      1  C   UNL     1      41.434  35.669  41.240  0.00  0.00    +0.000 C 
ATOM      2  H   UNL     1      41.418  35.648  42.360  0.00  0.00    +0.000 HD
ATOM      3  H   UNL     1      41.112  36.689  40.948  0.00  0.00    +0.000 HD
ENDROOT
BRANCH   1   5
ATOM      4  C   UNL     1      40.278  33.540  41.585  0.00  0.00    +0.000 A 
ATOM      5  C   UNL     1      40.308  34.753  40.859  0.00  0.00    +0.000 A 
ATOM      6  C   UNL     1      39.340  34.943  39.926  0.00  0.00    +0.000 A 
ATOM      7  N   UNL     1      38.445  33.981  39.769  0.00  0.00    +0.000 NA
ATOM      8  C   UNL     1      38.414  32.848  40.444  0.00  0.00    +0.000 A 
ATOM      9  N   UNL     1      39.370  32.577  41.417  0.00  0.00    +0.000 NA
ATOM     10  H   UNL     1      41.016  33.316  42.345  0.00  0.00    +0.000 HD
ATOM     11  H   UNL     1      39.414  35.888  39.403  0.00  0.00    +0.000 HD
BRANCH   8  13
ATOM     12  C   UNL     1      38.001  30.500  39.829  0.00  0.00    +0.000 C 
ATOM     13  C   UNL     1      37.370  31.810  40.209  0.00  0.00    +0.000 C 
ATOM     14  C   UNL     1      36.497  31.628  41.441  0.00  0.00    +0.000 C 
ATOM     15  H   UNL     1      35.825  32.520  41.572  0.00  0.00    +0.000 HD
ATOM     16  O   UNL     1      35.759  30.464  41.378  0.00  0.00    +0.000 OA
ATOM     17  C   UNL     1      36.611  29.405  41.605  0.00  0.00    +0.000 C 
ATOM     18  H   UNL     1      36.691  29.274  42.711  0.00  0.00    +0.000 HD
ATOM     19  C   UNL     1      37.962  29.541  40.984  0.00  0.00    +0.000 C 
BRANCH  12  20
ATOM     20  O   UNL     1      37.430  29.950  38.680  0.00  0.00    +0.000 OA
ATOM     21  H   UNL     1      36.463  30.043  38.634  0.00  0.00    +0.000 HD
ENDBRANCH  12  20
BRANCH  19  22
ATOM     22  O   UNL     1      38.877  30.011  41.953  0.00  0.00    +0.000 OA
ATOM     23  H   UNL     1      39.798  29.814  41.625  0.00  0.00    +0.000 HD
ENDBRANCH  19  22
ENDBRANCH   8  13
ENDBRANCH   1   5
BRANCH   1  24
ATOM     24  O   UNL     1      42.606  35.339  40.627  0.00  0.00    +0.000 OA
BRANCH  24  25
ATOM     25  C   UNL     1      43.867  35.225  41.191  0.00  0.00    +0.000 C 
ATOM     26  C   UNL     1      43.965  35.575  42.469  0.00  0.00    +0.000 C 
BRANCH  26  27
ATOM     27  C   UNL     1      45.231  35.536  43.305  0.00  0.00    +0.000 C 
ATOM     28  H   UNL     1      45.502  36.555  43.633  0.00  0.00    +0.000 HD
ATOM     29  H   UNL     1      46.008  35.130  42.620  0.00  0.00    +0.000 HD
BRANCH  27  30
ATOM     30  O   UNL     1      45.009  34.654  44.344  0.00  0.00    +0.000 OA
BRANCH  30  32
ATOM     31  O   UNL     1      45.697  32.488  42.956  0.00  0.00    +0.000 OA
ATOM     32  P   UNL     1      45.998  33.297  44.196  0.00  0.00    +0.000 P 
BRANCH  32  33
ATOM     33  O   UNL     1      47.633  33.773  44.089  0.00  0.00    +0.000 OA
ATOM     34  H   UNL     1      47.833  34.209  44.955  0.00  0.00    +0.000 HD
ENDBRANCH  32  33
BRANCH  32  35
ATOM     35  O   UNL     1      45.860  32.323  45.568  0.00  0.00    +0.000 OA
BRANCH  35  36
ATOM     36  C   UNL     1      46.204  32.991  46.722  0.00  0.00    +0.000 C 
ATOM     37  C   UNL     1      47.055  32.301  47.742  0.00  0.00    +0.000 C 
ATOM     38  C   UNL     1      45.575  32.475  47.992  0.00  0.00    +0.000 C 
ATOM     39  H   UNL     1      46.306  34.083  46.616  0.00  0.00    +0.000 HD
ATOM     40  H   UNL     1      47.459  31.305  47.502  0.00  0.00    +0.000 HD
ATOM     41  H   UNL     1      47.689  32.968  48.356  0.00  0.00    +0.000 HD
ATOM     42  H   UNL     1      45.239  33.196  48.776  0.00  0.00    +0.000 HD
ATOM     43  H   UNL     1      45.013  31.514  47.956  0.00  0.00    +0.000 HD
ENDBRANCH  35  36
ENDBRANCH  32  35
ENDBRANCH  30  32
ENDBRANCH  27  30
ENDBRANCH  26  27
ENDBRANCH  24  25
ENDBRANCH   1  24
TORSDOF 12
