
     RDKit          3D

 33 34  0  0  0  0  0  0  0  0999 V2000
   44.6888   35.5189   43.6043 C   0  0  0  0  0  0  0  0  0  0  0  0
   43.9357   35.4293   42.4059 C   0  0  0  0  0  0  0  0  0  0  0  0
   43.7836   34.1722   41.8357 C   0  0  0  0  0  0  0  0  0  0  0  0
   44.3570   33.0946   42.4447 N   0  0  0  0  0  0  0  0  0  0  0  0
   45.0721   33.2162   43.5923 C   0  0  0  0  0  0  0  0  0  0  0  0
   45.2221   34.4335   44.1488 N   0  0  0  0  0  0  0  0  0  0  0  0
   44.8549   36.8442   44.2145 C   0  0  0  0  0  0  0  0  0  0  0  0
   45.2414   37.8455   43.4357 C   0  0  0  0  0  0  0  0  0  0  0  0
   45.4254   39.2116   44.0042 C   0  0  0  0  0  0  0  0  0  0  0  0
   43.4912   36.2903   41.9405 H   0  0  0  0  0  0  0  0  0  0  0  0
   43.2198   34.0242   40.9170 H   0  0  0  0  0  0  0  0  0  0  0  0
   44.6867   37.0727   45.2549 H   0  0  0  0  0  0  0  0  0  0  0  0
   45.4028   37.5906   42.3999 H   0  0  0  0  0  0  0  0  0  0  0  0
   44.4371   39.6982   44.1250 H   0  0  0  0  0  0  0  0  0  0  0  0
   45.8755   39.1765   45.0327 H   0  0  0  0  0  0  0  0  0  0  0  0
   46.0317   39.8454   43.3466 H   0  0  0  0  0  0  0  0  0  0  0  0
   43.4315   31.3010   44.0173 O   0  0  0  0  0  0  0  0  0  0  0  0
   44.6283   31.0306   44.7085 C   0  0  2  0  0  0  0  0  0  0  0  0
   45.6462   31.9911   44.1635 C   0  0  1  0  0  0  0  0  0  0  0  0
   46.4384   31.2621   43.0693 C   0  0  1  0  0  0  0  0  0  0  0  0
   45.6855   30.6641   42.4768 H   0  0  0  0  0  0  0  0  0  0  0  0
   47.1875   30.3297   43.7889 O   0  0  0  0  0  0  0  0  0  0  0  0
   46.3718   29.2819   44.1174 C   0  0  2  0  0  0  0  0  0  0  0  0
   46.9629   28.6480   44.8424 H   0  0  0  0  0  0  0  0  0  0  0  0
   45.0310   29.5999   44.6455 C   0  0  2  0  0  0  0  0  0  0  0  0
   44.0756   28.9502   43.8304 O   0  0  0  0  0  0  0  0  0  0  0  0
   43.5495   30.8811   43.1209 H   0  0  0  0  0  0  0  0  0  0  0  0
   44.4317   31.3060   45.7654 H   0  0  0  0  0  0  0  0  0  0  0  0
   46.4068   32.2862   44.9164 H   0  0  0  0  0  0  0  0  0  0  0  0
   47.0377   31.9367   42.4548 H   0  0  0  0  0  0  0  0  0  0  0  0
   46.3313   28.6228   43.2008 H   0  0  0  0  0  0  0  0  0  0  0  0
   44.9074   29.1048   45.6481 H   0  0  0  0  0  0  0  0  0  0  0  0
   43.3835   28.4970   44.3401 H   0  0  0  0  0  0  0  0  0  0  0  0
  1  6  2  0
  1  7  1  0
  2  1  1  0
  3  2  2  0
  3  4  1  0
  4  5  2  0
  5  6  1  0
  8  9  1  0
  8  7  2  0
  2 10  1  0
  3 11  1  0
  7 12  1  0
  8 13  1  0
  9 14  1  0
  9 15  1  0
  9 16  1  0
 17 18  1  0
 18 19  1  0
 19 20  1  0
 20 21  1  6
 20 22  1  0
 22 23  1  0
 23 24  1  1
 23 25  1  0
 25 26  1  0
 25 18  1  0
 17 27  1  0
 18 28  1  1
 19 29  1  1
 20 30  1  0
 23 31  1  0
 25 32  1  1
 26 33  1  0
  5 19  1  0
M  ISO  7  10  14  11  14  14   8  15   8  16   8  21   8  24   8
M  END
>  <DihAtoms>  (1) 
3,4,18,17

>  <DihDeg>  (1) 
126.43163265647952

$$$$
