
 OpenBabel03252506283D

 50 54  0  0  1  0  0  0  0  0999 V2000
   46.2690   32.9000   45.9710 C   0  0  0  0  0  0  0  0  0  0  0  0
   47.2840   31.9870   45.6360 C   0  0  0  0  0  0  0  0  0  0  0  0
   47.4500   31.1270   46.6640 C   0  0  0  0  0  0  0  0  0  0  0  0
   46.5780   31.4900   47.5990 N   0  0  0  0  0  0  0  0  0  0  0  0
   45.8670   32.5430   47.2030 N   0  0  0  0  0  0  0  0  0  0  0  0
   47.8260   31.9900   44.7060 H   0  0  0  0  0  0  0  0  0  0  0  0
   48.1620   30.3200   46.6840 H   0  0  0  0  0  0  0  0  0  0  0  0
   44.4900   35.8750   44.8190 C   0  0  0  0  0  0  0  0  0  0  0  0
   44.9230   36.0200   43.5140 C   0  0  0  0  0  0  0  0  0  0  0  0
   45.8350   35.0880   43.0220 C   0  0  0  0  0  0  0  0  0  0  0  0
   46.2260   34.1080   43.8670 N   0  0  0  0  0  0  0  0  0  0  0  0
   45.8130   33.9700   45.1160 C   0  0  0  0  0  0  0  0  0  0  0  0
   44.9350   34.8680   45.5870 N   0  0  0  0  0  0  0  0  0  0  0  0
   43.7820   36.6230   45.1600 H   0  0  0  0  0  0  0  0  0  0  0  0
   44.6240   36.7860   42.8320 H   0  0  0  0  0  0  0  0  0  0  0  0
   46.0430   33.8360   40.8980 C   0  0  2  0  0  3  0  0  0  0  0  0
   46.4100   35.0870   41.6380 C   0  0  2  0  0  3  0  0  0  0  0  0
   47.8920   35.3070   41.7740 C   0  0  0  0  0  3  0  0  0  0  0  0
   48.0230   36.3770   42.0510 H   0  0  0  0  0  0  0  0  0  0  0  0
   48.6050   35.0560   40.6220 O   0  0  0  0  0  0  0  0  0  0  0  0
   48.3260   33.8430   40.0410 C   0  0  0  0  0  3  0  0  0  0  0  0
   47.9940   33.9520   38.9770 H   0  0  0  0  0  0  0  0  0  0  0  0
   47.3080   33.0160   40.7580 C   0  0  2  0  0  3  0  0  0  0  0  0
   45.5650   34.1220   39.6300 O   0  0  0  0  0  0  0  0  0  0  0  0
   45.7410   35.0840   39.4490 H   0  0  0  0  0  0  0  0  0  0  0  0
   47.0800   31.8630   40.0130 O   0  0  0  0  0  0  0  0  0  0  0  0
   46.4410   32.0240   39.2620 H   0  0  0  0  0  0  0  0  0  0  0  0
   46.3990   30.8420   48.8930 C   0  0  0  0  0  0  0  0  0  0  0  0
   46.4800   31.6310   49.6650 H   0  0  0  0  0  0  0  0  0  0  0  0
   47.1540   30.0620   49.0400 H   0  0  0  0  0  0  0  0  0  0  0  0
   45.0540   30.2300   48.9960 C   0  0  0  0  0  0  0  0  0  0  0  0
   44.2950   31.0300   48.7630 H   0  0  0  0  0  0  0  0  0  0  0  0
   44.8700   30.0170   50.0870 H   0  0  0  0  0  0  0  0  0  0  0  0
   44.9290   27.7070   48.6400 C   0  0  0  0  0  0  0  0  0  0  0  0
   44.8150   29.0200   48.2380 C   0  0  0  0  0  0  0  0  0  0  0  0
   44.4140   29.2280   46.9220 C   0  0  0  0  0  0  0  0  0  0  0  0
   44.1480   28.1850   46.0720 C   0  0  0  0  0  0  0  0  0  0  0  0
   43.7540   28.0880   44.7820 N   0  0  0  0  0  0  0  0  0  0  0  0
   43.6290   26.8120   44.4020 C   0  0  0  0  0  0  0  0  0  0  0  0
   43.9550   25.9960   45.4850 C   0  0  0  0  0  0  0  0  0  0  0  0
   44.2620   26.8870   46.4700 C   0  0  0  0  0  0  0  0  0  0  0  0
   44.6590   26.6680   47.7740 C   0  0  0  0  0  0  0  0  0  0  0  0
   45.2430   27.5790   49.6710 H   0  0  0  0  0  0  0  0  0  0  0  0
   44.2810   30.2120   46.4700 H   0  0  0  0  0  0  0  0  0  0  0  0
   43.5620   28.9150   44.1420 H   0  0  0  0  0  0  0  0  0  0  0  0
   43.3260   26.4620   43.4170 H   0  0  0  0  0  0  0  0  0  0  0  0
   43.9380   24.9190   45.4490 H   0  0  0  0  0  0  0  0  0  0  0  0
   44.8000   25.2940   48.2650 C   0  0  0  0  0  0  0  0  0  0  0  0
   45.2410   25.0550   49.4160 O   0  0  0  0  0  0  0  0  0  0  0  0
   44.5240   24.4580   47.6350 H   0  0  0  0  0  0  0  0  0  0  0  0
  1  5  2  0  0  0  0
  2  1  1  0  0  0  0
  2  3  2  0  0  0  0
  3  7  1  0  0  0  0
  3  4  1  0  0  0  0
  4 28  1  0  0  0  0
  5  4  1  0  0  0  0
  6  2  1  0  0  0  0
  8 14  1  0  0  0  0
  8 13  1  0  0  0  0
  9  8  2  0  0  0  0
 10  9  1  0  0  0  0
 10 11  2  0  0  0  0
 11 12  1  0  0  0  0
 12 13  2  0  0  0  0
 12  1  1  0  0  0  0
 15  9  1  0  0  0  0
 16 24  1  6  0  0  0
 16 17  1  0  0  0  0
 17 18  1  0  0  0  0
 17 10  1  1  0  0  0
 18 19  1  0  0  0  0
 20 18  1  0  0  0  0
 21 20  1  0  0  0  0
 21 23  1  0  0  0  0
 22 21  1  0  0  0  0
 23 26  1  6  0  0  0
 23 16  1  0  0  0  0
 25 24  1  0  0  0  0
 27 26  1  0  0  0  0
 28 31  1  0  0  0  0
 28 30  1  0  0  0  0
 28 29  1  0  0  0  0
 31 33  1  0  0  0  0
 32 31  1  0  0  0  0
 34 43  1  0  0  0  0
 35 34  1  0  0  0  0
 35 31  1  0  0  0  0
 36 35  2  0  0  0  0
 37 41  2  0  0  0  0
 37 36  1  0  0  0  0
 38 37  1  0  0  0  0
 39 38  1  0  0  0  0
 39 40  2  0  0  0  0
 40 41  1  0  0  0  0
 41 42  1  0  0  0  0
 42 48  1  0  0  0  0
 42 34  2  0  0  0  0
 44 36  1  0  0  0  0
 45 38  1  0  0  0  0
 46 39  1  0  0  0  0
 47 40  1  0  0  0  0
 48 49  2  0  0  0  0
 50 48  1  0  0  0  0
M  END
>  <minimizedAffinity>
-6.37304211

>  <minimizedRMSD>
1.23078656

$$$$
