
     RDKit          3D

 43 45  0  0  0  0  0  0  0  0999 V2000
   41.5061   35.7154   39.8520 C   0  0  0  0  0  0  0  0  0  0  0  0
   40.6843   35.4511   37.2002 F   0  0  0  0  0  0  0  0  0  0  0  0
   39.9550   34.8100   38.1432 C   0  0  0  0  0  0  0  0  0  0  0  0
   40.3410   34.9216   39.4894 C   0  0  0  0  0  0  0  0  0  0  0  0
   39.5250   34.2302   40.3380 C   0  0  0  0  0  0  0  0  0  0  0  0
   38.4153   33.4715   40.0176 C   0  0  0  0  0  0  0  0  0  0  0  0
   38.1110   33.4212   38.6501 C   0  0  0  0  0  0  0  0  0  0  0  0
   38.8542   34.0732   37.6977 C   0  0  0  0  0  0  0  0  0  0  0  0
   43.3756   35.4980   41.4377 C   0  0  0  0  0  0  0  0  0  0  0  0
   42.1667   35.1715   41.0737 C   0  0  0  0  0  0  0  0  0  0  0  0
   44.2656   35.8200   43.7615 C   0  0  0  0  0  0  0  0  0  0  0  0
   44.0756   35.0041   42.6153 C   0  0  0  0  0  0  0  0  0  0  0  0
   44.5802   33.7077   42.6466 C   0  0  0  0  0  0  0  0  0  0  0  0
   45.2253   33.3151   43.7868 N   0  0  0  0  0  0  0  0  0  0  0  0
   45.3864   34.1040   44.8432 C   0  0  0  0  0  0  0  0  0  0  0  0
   44.9095   35.3543   44.8353 N   0  0  0  0  0  0  0  0  0  0  0  0
   42.2524   35.6433   39.0293 H   0  0  0  0  0  0  0  0  0  0  0  0
   41.2875   36.8017   39.9745 H   0  0  0  0  0  0  0  0  0  0  0  0
   39.7492   34.2621   41.3963 H   0  0  0  0  0  0  0  0  0  0  0  0
   37.8242   32.9571   40.7408 H   0  0  0  0  0  0  0  0  0  0  0  0
   37.2630   32.8563   38.2856 H   0  0  0  0  0  0  0  0  0  0  0  0
   38.6350   34.0460   36.6397 H   0  0  0  0  0  0  0  0  0  0  0  0
   43.9891   36.2043   40.8568 H   0  0  0  0  0  0  0  0  0  0  0  0
   41.7342   34.4672   41.7749 H   0  0  0  0  0  0  0  0  0  0  0  0
   43.8741   36.8131   43.7260 H   0  0  0  0  0  0  0  0  0  0  0  0
   44.4246   33.1115   41.7706 H   0  0  0  0  0  0  0  0  0  0  0  0
   48.0726   34.6618   46.8828 O   0  0  0  0  0  0  0  0  0  0  0  0
   47.5678   33.8500   45.8730 C   0  0  2  0  0  0  0  0  0  0  0  0
   46.1023   33.6155   46.0626 C   0  0  2  0  0  0  0  0  0  0  0  0
   45.8273   32.1060   46.0861 C   0  0  2  0  0  0  0  0  0  0  0  0
   44.7095   32.0147   46.0033 H   0  0  0  0  0  0  0  0  0  0  0  0
   46.3473   31.5833   44.9224 O   0  0  0  0  0  0  0  0  0  0  0  0
   47.7414   31.5179   44.9678 C   0  0  1  0  0  0  0  0  0  0  0  0
   48.0820   30.5148   45.2803 H   0  0  0  0  0  0  0  0  0  0  0  0
   48.3553   32.5570   45.8739 C   0  0  2  0  0  0  0  0  0  0  0  0
   48.5229   32.0720   47.1839 O   0  0  0  0  0  0  0  0  0  0  0  0
   47.7459   34.3632   47.7574 H   0  0  0  0  0  0  0  0  0  0  0  0
   47.7893   34.3588   44.9024 H   0  0  0  0  0  0  0  0  0  0  0  0
   45.7267   34.0989   46.9733 H   0  0  0  0  0  0  0  0  0  0  0  0
   46.1796   31.6293   47.0032 H   0  0  0  0  0  0  0  0  0  0  0  0
   48.0979   31.7298   43.9384 H   0  0  0  0  0  0  0  0  0  0  0  0
   49.3770   32.8121   45.4968 H   0  0  0  0  0  0  0  0  0  0  0  0
   48.6251   31.0797   47.0572 H   0  0  0  0  0  0  0  0  0  0  0  0
  1 10  1  0
  2  3  1  0
  3  4  2  0
  4  1  1  0
  4  5  1  0
  6  5  2  0
  7  6  1  0
  8  3  1  0
  8  7  2  0
  9 12  1  0
 10  9  2  0
 11 16  2  0
 12 13  2  0
 12 11  1  0
 13 14  1  0
 14 15  2  0
 16 15  1  0
  1 17  1  0
  1 18  1  0
  5 19  1  0
  6 20  1  0
  7 21  1  0
  8 22  1  0
  9 23  1  0
 10 24  1  0
 11 25  1  0
 13 26  1  0
 27 28  1  0
 28 29  1  0
 29 30  1  0
 30 31  1  6
 30 32  1  0
 32 33  1  0
 33 34  1  1
 33 35  1  0
 35 36  1  0
 35 28  1  0
 27 37  1  0
 28 38  1  6
 29 39  1  1
 30 40  1  0
 33 41  1  0
 35 42  1  6
 36 43  1  0
 15 29  1  0
M  ISO  8  17   8  18   8  19  14  20  14  21  14  22  14  25  14  26  14
M  ISO  2  31   8  34   8
M  END
>  <DihAtoms>  (1) 
13,14,28,27

>  <DihDeg>  (1) 
-123.5104870820292

$$$$
