
 OpenBabel03242523463D

 22 23  0  0  1  0  0  0  0  0999 V2000
   48.5170   33.7990   42.1860 C   0  0  1  0  0  3  0  0  0  0  0  0
   47.3570   32.8890   42.4450 C   0  0  2  0  0  3  0  0  0  0  0  0
   46.4150   32.7670   41.2620 C   0  0  0  0  0  3  0  0  0  0  0  0
   46.0560   31.7170   41.2480 H   0  0  0  0  0  0  0  0  0  0  0  0
   47.0400   32.9780   40.0480 O   0  0  0  0  0  0  0  0  0  0  0  0
   47.5350   34.2690   39.9090 C   0  0  0  0  0  3  0  0  0  0  0  0
   48.3420   34.2300   39.1410 H   0  0  0  0  0  0  0  0  0  0  0  0
   48.1130   34.8340   41.1660 C   0  0  2  0  0  3  0  0  0  0  0  0
   44.7970   34.9080   44.3350 C   0  0  0  0  0  0  0  0  0  0  0  0
   45.5250   34.3920   43.2500 C   0  0  0  0  0  0  0  0  0  0  0  0
   46.5560   33.4670   43.5490 C   0  0  0  0  0  0  0  0  0  0  0  0
   46.7790   33.1360   44.8430 N   0  0  0  0  0  0  0  0  0  0  0  0
   46.0530   33.6590   45.8490 C   0  0  0  0  0  0  0  0  0  0  0  0
   45.0710   34.5360   45.6020 N   0  0  0  0  0  0  0  0  0  0  0  0
   45.3250   34.6740   42.2260 H   0  0  0  0  0  0  0  0  0  0  0  0
   46.2040   33.4160   46.9010 H   0  0  0  0  0  0  0  0  0  0  0  0
   43.8010   35.8030   44.0510 O   0  0  0  0  0  0  0  0  0  0  0  0
   44.0580   36.7610   43.8490 H   0  0  0  0  0  0  0  0  0  0  0  0
   48.8000   34.5050   43.3760 O   0  0  0  0  0  0  0  0  0  0  0  0
   49.6800   34.9100   43.3950 H   0  0  0  0  0  0  0  0  0  0  0  0
   49.2480   35.5860   40.8610 O   0  0  0  0  0  0  0  0  0  0  0  0
   49.7360   35.9270   41.6260 H   0  0  0  0  0  0  0  0  0  0  0  0
  1  2  1  0  0  0  0
  1 19  1  1  0  0  0
  2 11  1  1  0  0  0
  3  2  1  0  0  0  0
  4  3  1  0  0  0  0
  5  3  1  0  0  0  0
  6  5  1  0  0  0  0
  6  8  1  0  0  0  0
  7  6  1  0  0  0  0
  8 21  1  6  0  0  0
  8  1  1  0  0  0  0
  9 14  1  0  0  0  0
 10 11  1  0  0  0  0
 10  9  2  0  0  0  0
 11 12  2  0  0  0  0
 12 13  1  0  0  0  0
 13 16  1  0  0  0  0
 14 13  2  0  0  0  0
 15 10  1  0  0  0  0
 17  9  1  0  0  0  0
 18 17  1  0  0  0  0
 19 20  1  0  0  0  0
 21 22  1  0  0  0  0
M  END
>  <minimizedAffinity>
-5.08944893

>  <minimizedRMSD>
0.683004439

$$$$
