
 OpenBabel03252506283D

 50 54  0  0  1  0  0  0  0  0999 V2000
   46.2700   32.8980   45.9720 C   0  0  0  0  0  0  0  0  0  0  0  0
   47.2870   31.9860   45.6360 C   0  0  0  0  0  0  0  0  0  0  0  0
   47.4530   31.1260   46.6640 C   0  0  0  0  0  0  0  0  0  0  0  0
   46.5810   31.4880   47.5990 N   0  0  0  0  0  0  0  0  0  0  0  0
   45.8690   32.5400   47.2040 N   0  0  0  0  0  0  0  0  0  0  0  0
   47.8290   31.9900   44.7070 H   0  0  0  0  0  0  0  0  0  0  0  0
   48.1650   30.3190   46.6830 H   0  0  0  0  0  0  0  0  0  0  0  0
   44.4910   35.8730   44.8220 C   0  0  0  0  0  0  0  0  0  0  0  0
   44.9230   36.0190   43.5160 C   0  0  0  0  0  0  0  0  0  0  0  0
   45.8350   35.0870   43.0240 C   0  0  0  0  0  0  0  0  0  0  0  0
   46.2270   34.1080   43.8680 N   0  0  0  0  0  0  0  0  0  0  0  0
   45.8140   33.9680   45.1170 C   0  0  0  0  0  0  0  0  0  0  0  0
   44.9360   34.8660   45.5890 N   0  0  0  0  0  0  0  0  0  0  0  0
   43.7820   36.6200   45.1630 H   0  0  0  0  0  0  0  0  0  0  0  0
   44.6240   36.7850   42.8350 H   0  0  0  0  0  0  0  0  0  0  0  0
   46.0440   33.8370   40.8990 C   0  0  2  0  0  3  0  0  0  0  0  0
   46.4100   35.0880   41.6400 C   0  0  2  0  0  3  0  0  0  0  0  0
   47.8920   35.3090   41.7750 C   0  0  0  0  0  3  0  0  0  0  0  0
   48.0220   36.3780   42.0530 H   0  0  0  0  0  0  0  0  0  0  0  0
   48.6060   35.0590   40.6240 O   0  0  0  0  0  0  0  0  0  0  0  0
   48.3270   33.8460   40.0430 C   0  0  0  0  0  3  0  0  0  0  0  0
   47.9960   33.9550   38.9790 H   0  0  0  0  0  0  0  0  0  0  0  0
   47.3110   33.0190   40.7590 C   0  0  2  0  0  3  0  0  0  0  0  0
   45.5660   34.1230   39.6300 O   0  0  0  0  0  0  0  0  0  0  0  0
   45.7420   35.0850   39.4510 H   0  0  0  0  0  0  0  0  0  0  0  0
   47.0830   31.8660   40.0150 O   0  0  0  0  0  0  0  0  0  0  0  0
   46.4440   32.0260   39.2630 H   0  0  0  0  0  0  0  0  0  0  0  0
   46.4020   30.8390   48.8920 C   0  0  0  0  0  0  0  0  0  0  0  0
   46.4850   31.6260   49.6650 H   0  0  0  0  0  0  0  0  0  0  0  0
   47.1560   30.0570   49.0370 H   0  0  0  0  0  0  0  0  0  0  0  0
   45.0550   30.2290   48.9960 C   0  0  0  0  0  0  0  0  0  0  0  0
   44.2980   31.0300   48.7640 H   0  0  0  0  0  0  0  0  0  0  0  0
   44.8720   30.0150   50.0870 H   0  0  0  0  0  0  0  0  0  0  0  0
   44.9220   27.7060   48.6400 C   0  0  0  0  0  0  0  0  0  0  0  0
   44.8140   29.0200   48.2380 C   0  0  0  0  0  0  0  0  0  0  0  0
   44.4160   29.2290   46.9210 C   0  0  0  0  0  0  0  0  0  0  0  0
   44.1480   28.1870   46.0710 C   0  0  0  0  0  0  0  0  0  0  0  0
   43.7560   28.0910   44.7790 N   0  0  0  0  0  0  0  0  0  0  0  0
   43.6280   26.8150   44.3990 C   0  0  0  0  0  0  0  0  0  0  0  0
   43.9490   25.9980   45.4830 C   0  0  0  0  0  0  0  0  0  0  0  0
   44.2570   26.8880   46.4690 C   0  0  0  0  0  0  0  0  0  0  0  0
   44.6500   26.6680   47.7730 C   0  0  0  0  0  0  0  0  0  0  0  0
   45.2340   27.5770   49.6720 H   0  0  0  0  0  0  0  0  0  0  0  0
   44.2880   30.2140   46.4680 H   0  0  0  0  0  0  0  0  0  0  0  0
   43.5690   28.9190   44.1400 H   0  0  0  0  0  0  0  0  0  0  0  0
   43.3260   26.4660   43.4140 H   0  0  0  0  0  0  0  0  0  0  0  0
   43.9270   24.9210   45.4470 H   0  0  0  0  0  0  0  0  0  0  0  0
   44.7850   25.2930   48.2660 C   0  0  0  0  0  0  0  0  0  0  0  0
   45.2510   25.0520   49.4060 O   0  0  0  0  0  0  0  0  0  0  0  0
   44.4830   24.4590   47.6450 H   0  0  0  0  0  0  0  0  0  0  0  0
  1  5  2  0  0  0  0
  2  1  1  0  0  0  0
  2  3  2  0  0  0  0
  3  7  1  0  0  0  0
  3  4  1  0  0  0  0
  4 28  1  0  0  0  0
  5  4  1  0  0  0  0
  6  2  1  0  0  0  0
  8 14  1  0  0  0  0
  8 13  1  0  0  0  0
  9  8  2  0  0  0  0
 10  9  1  0  0  0  0
 10 11  2  0  0  0  0
 11 12  1  0  0  0  0
 12 13  2  0  0  0  0
 12  1  1  0  0  0  0
 15  9  1  0  0  0  0
 16 24  1  6  0  0  0
 16 17  1  0  0  0  0
 17 18  1  0  0  0  0
 17 10  1  1  0  0  0
 18 19  1  0  0  0  0
 20 18  1  0  0  0  0
 21 20  1  0  0  0  0
 21 23  1  0  0  0  0
 22 21  1  0  0  0  0
 23 26  1  6  0  0  0
 23 16  1  0  0  0  0
 25 24  1  0  0  0  0
 27 26  1  0  0  0  0
 28 31  1  0  0  0  0
 28 30  1  0  0  0  0
 28 29  1  0  0  0  0
 31 33  1  0  0  0  0
 32 31  1  0  0  0  0
 34 43  1  0  0  0  0
 35 34  1  0  0  0  0
 35 31  1  0  0  0  0
 36 35  2  0  0  0  0
 37 41  2  0  0  0  0
 37 36  1  0  0  0  0
 38 37  1  0  0  0  0
 39 38  1  0  0  0  0
 39 40  2  0  0  0  0
 40 41  1  0  0  0  0
 41 42  1  0  0  0  0
 42 48  1  0  0  0  0
 42 34  2  0  0  0  0
 44 36  1  0  0  0  0
 45 38  1  0  0  0  0
 46 39  1  0  0  0  0
 47 40  1  0  0  0  0
 48 49  2  0  0  0  0
 50 48  1  0  0  0  0
M  END
>  <minimizedAffinity>
-6.37660885

>  <minimizedRMSD>
1.4043231

$$$$
