
     RDKit          3D

 33 34  0  0  0  0  0  0  0  0999 V2000
   44.2975   35.7826   44.1893 C   0  0  0  0  0  0  0  0  0  0  0  0
   44.4684   34.9313   43.0981 C   0  0  0  0  0  0  0  0  0  0  0  0
   45.0829   33.7086   43.3025 C   0  0  0  0  0  0  0  0  0  0  0  0
   45.4948   33.3909   44.5666 N   0  0  0  0  0  0  0  0  0  0  0  0
   45.3138   34.2423   45.6095 C   0  0  0  0  0  0  0  0  0  0  0  0
   44.7225   35.4117   45.3965 N   0  0  0  0  0  0  0  0  0  0  0  0
   44.0231   35.2837   41.7522 C   0  0  0  0  0  0  0  0  0  0  0  0
   43.0119   34.7609   41.1035 C   0  0  0  0  0  0  0  0  0  0  0  0
   42.6432   35.2059   39.7108 C   0  0  0  0  0  0  0  0  0  0  0  0
   43.8117   36.7479   44.0248 H   0  0  0  0  0  0  0  0  0  0  0  0
   45.2615   32.9723   42.5065 H   0  0  0  0  0  0  0  0  0  0  0  0
   44.6173   36.0578   41.2838 H   0  0  0  0  0  0  0  0  0  0  0  0
   42.4649   33.9932   41.6347 H   0  0  0  0  0  0  0  0  0  0  0  0
   42.0341   34.4646   39.1986 H   0  0  0  0  0  0  0  0  0  0  0  0
   42.0629   36.1401   39.8473 H   0  0  0  0  0  0  0  0  0  0  0  0
   43.5934   35.4795   39.2116 H   0  0  0  0  0  0  0  0  0  0  0  0
   47.8878   34.1586   46.0009 O   0  0  0  0  0  0  0  0  0  0  0  0
   47.2072   33.3577   46.9091 C   0  0  1  0  0  0  0  0  0  0  0  0
   45.7926   33.8254   46.9681 C   0  0  2  0  0  0  0  0  0  0  0  0
   44.8310   32.8414   47.5847 C   0  0  2  0  0  0  0  0  0  0  0  0
   43.9729   32.6996   46.8880 H   0  0  0  0  0  0  0  0  0  0  0  0
   45.4315   31.6462   47.9150 O   0  0  0  0  0  0  0  0  0  0  0  0
   46.1040   31.0879   46.8225 C   0  0  2  0  0  0  0  0  0  0  0  0
   45.3886   30.9504   45.9878 H   0  0  0  0  0  0  0  0  0  0  0  0
   47.2928   31.9331   46.4437 C   0  0  1  0  0  0  0  0  0  0  0  0
   47.4051   31.9566   45.0438 O   0  0  0  0  0  0  0  0  0  0  0  0
   48.2852   34.9694   46.3726 H   0  0  0  0  0  0  0  0  0  0  0  0
   47.6890   33.3992   47.9044 H   0  0  0  0  0  0  0  0  0  0  0  0
   45.7778   34.7783   47.5660 H   0  0  0  0  0  0  0  0  0  0  0  0
   44.4325   33.2583   48.5483 H   0  0  0  0  0  0  0  0  0  0  0  0
   46.4532   30.0789   47.1895 H   0  0  0  0  0  0  0  0  0  0  0  0
   48.2195   31.4404   46.8632 H   0  0  0  0  0  0  0  0  0  0  0  0
   48.0804   31.2932   44.7593 H   0  0  0  0  0  0  0  0  0  0  0  0
  1  6  2  0
  2  3  2  0
  2  1  1  0
  3  4  1  0
  4  5  2  0
  6  5  1  0
  7  2  1  0
  8  7  2  0
  9  8  1  0
  1 10  1  0
  3 11  1  0
  7 12  1  0
  8 13  1  0
  9 14  1  0
  9 15  1  0
  9 16  1  0
 17 18  1  0
 18 19  1  0
 19 20  1  0
 20 21  1  6
 20 22  1  0
 22 23  1  0
 23 24  1  6
 23 25  1  0
 25 26  1  0
 25 18  1  0
 17 27  1  0
 18 28  1  1
 19 29  1  1
 20 30  1  0
 23 31  1  0
 25 32  1  1
 26 33  1  0
  5 19  1  0
M  ISO  7  10  14  11  14  14   8  15   8  16   8  21   8  24   8
M  END
>  <DihAtoms>  (1) 
3,4,18,17

>  <DihDeg>  (1) 
-114.56970329364889

$$$$
