
     RDKit          3D

 33 34  0  0  0  0  0  0  0  0999 V2000
   44.6888   35.5189   43.6043 C   0  0  0  0  0  0  0  0  0  0  0  0
   43.9357   35.4293   42.4059 C   0  0  0  0  0  0  0  0  0  0  0  0
   43.7836   34.1722   41.8357 C   0  0  0  0  0  0  0  0  0  0  0  0
   44.3570   33.0946   42.4447 N   0  0  0  0  0  0  0  0  0  0  0  0
   45.0721   33.2162   43.5923 C   0  0  0  0  0  0  0  0  0  0  0  0
   45.2221   34.4335   44.1488 N   0  0  0  0  0  0  0  0  0  0  0  0
   44.8549   36.8442   44.2145 C   0  0  0  0  0  0  0  0  0  0  0  0
   45.2414   37.8455   43.4357 C   0  0  0  0  0  0  0  0  0  0  0  0
   45.4254   39.2116   44.0042 C   0  0  0  0  0  0  0  0  0  0  0  0
   43.4912   36.2903   41.9405 H   0  0  0  0  0  0  0  0  0  0  0  0
   43.2198   34.0242   40.9170 H   0  0  0  0  0  0  0  0  0  0  0  0
   44.6867   37.0727   45.2549 H   0  0  0  0  0  0  0  0  0  0  0  0
   45.4028   37.5906   42.3999 H   0  0  0  0  0  0  0  0  0  0  0  0
   44.4371   39.6982   44.1250 H   0  0  0  0  0  0  0  0  0  0  0  0
   45.8755   39.1765   45.0327 H   0  0  0  0  0  0  0  0  0  0  0  0
   46.0317   39.8454   43.3466 H   0  0  0  0  0  0  0  0  0  0  0  0
   46.2120   33.4668   45.8678 O   0  0  0  0  0  0  0  0  0  0  0  0
   46.5862   32.2287   45.3105 C   0  0  2  0  0  0  0  0  0  0  0  0
   45.6462   31.9911   44.1635 C   0  0  1  0  0  0  0  0  0  0  0  0
   44.5027   31.1024   44.6723 C   0  0  1  0  0  0  0  0  0  0  0  0
   44.2345   31.4868   45.6998 H   0  0  0  0  0  0  0  0  0  0  0  0
   45.1259   29.8699   44.8748 O   0  0  0  0  0  0  0  0  0  0  0  0
   45.8186   29.9252   46.0532 C   0  0  2  0  0  0  0  0  0  0  0  0
   46.4442   28.9848   46.0860 H   0  0  0  0  0  0  0  0  0  0  0  0
   46.6352   31.1274   46.3094 C   0  0  2  0  0  0  0  0  0  0  0  0
   46.2181   31.6840   47.5404 O   0  0  0  0  0  0  0  0  0  0  0  0
   45.3920   33.2738   46.4007 H   0  0  0  0  0  0  0  0  0  0  0  0
   47.6020   32.3844   44.8919 H   0  0  0  0  0  0  0  0  0  0  0  0
   46.1109   31.4118   43.3383 H   0  0  0  0  0  0  0  0  0  0  0  0
   43.6535   31.0652   43.9871 H   0  0  0  0  0  0  0  0  0  0  0  0
   45.0587   29.7360   46.8674 H   0  0  0  0  0  0  0  0  0  0  0  0
   47.6970   30.8117   46.5053 H   0  0  0  0  0  0  0  0  0  0  0  0
   46.9590   31.9337   48.1173 H   0  0  0  0  0  0  0  0  0  0  0  0
  1  6  2  0
  1  7  1  0
  2  1  1  0
  3  2  2  0
  3  4  1  0
  4  5  2  0
  5  6  1  0
  8  9  1  0
  8  7  2  0
  2 10  1  0
  3 11  1  0
  7 12  1  0
  8 13  1  0
  9 14  1  0
  9 15  1  0
  9 16  1  0
 17 18  1  0
 18 19  1  0
 19 20  1  0
 20 21  1  1
 20 22  1  0
 22 23  1  0
 23 24  1  6
 23 25  1  0
 25 26  1  0
 25 18  1  0
 17 27  1  0
 18 28  1  6
 19 29  1  6
 20 30  1  0
 23 31  1  0
 25 32  1  1
 26 33  1  0
  5 19  1  0
M  ISO  7  10  14  11  14  14   8  15   8  16   8  21   8  24   8
M  END
>  <DihAtoms>  (1) 
3,4,18,17

>  <DihDeg>  (1) 
126.43163265647952

$$$$
