
 OpenBabel03252500253D

 40 42  0  0  1  0  0  0  0  0999 V2000
   47.1380   30.0360   47.9870 C   0  0  2  0  0  0  0  0  0  0  0  0
   45.7020   30.2910   48.2450 C   0  0  2  0  0  0  0  0  0  0  0  0
   45.0040   29.4260   47.2620 C   0  0  0  0  0  0  0  0  0  0  0  0
   45.8090   28.3250   47.0360 O   0  0  0  0  0  0  0  0  0  0  0  0
   47.0250   28.5420   47.5980 C   0  0  0  0  0  0  0  0  0  0  0  0
   47.7080   30.4270   47.1960 H   0  0  0  0  0  0  0  0  0  0  0  0
   45.5230   29.9750   49.2930 H   0  0  0  0  0  0  0  0  0  0  0  0
   44.5360   29.8840   46.3980 H   0  0  0  0  0  0  0  0  0  0  0  0
   44.1160   28.9840   47.8150 H   0  0  0  0  0  0  0  0  0  0  0  0
   47.1140   27.9090   48.5020 H   0  0  0  0  0  0  0  0  0  0  0  0
   47.8200   28.2190   46.9230 H   0  0  0  0  0  0  0  0  0  0  0  0
   45.3440   31.6180   48.1500 O   0  0  0  0  0  0  0  0  0  0  0  0
   47.4500   32.9020   47.4310 O   0  0  0  0  0  0  0  0  0  0  0  0
   46.1680   32.3320   46.8900 P   0  0  1  0  0  0  0  0  0  0  0  0
   46.5430   31.1620   45.7250 O   0  0  0  0  0  0  0  0  0  0  0  0
   47.1900   31.5230   45.0670 H   0  0  0  0  0  0  0  0  0  0  0  0
   45.3070   33.6380   46.1990 O   0  0  0  0  0  0  0  0  0  0  0  0
   45.2550   35.8660   43.4090 C   0  0  0  0  0  0  0  0  0  0  0  0
   46.2630   35.3610   42.5450 C   0  0  0  0  0  0  0  0  0  0  0  0
   46.9580   34.2210   42.9720 C   0  0  0  0  0  0  0  0  0  0  0  0
   46.6210   33.6830   44.1720 N   0  0  0  0  0  0  0  0  0  0  0  0
   45.6580   34.1910   44.9620 C   0  0  0  0  0  0  0  0  0  0  0  0
   44.9810   35.2800   44.5750 N   0  0  0  0  0  0  0  0  0  0  0  0
   46.5040   35.8200   41.5920 H   0  0  0  0  0  0  0  0  0  0  0  0
   47.7360   33.7890   42.3610 H   0  0  0  0  0  0  0  0  0  0  0  0
   44.5740   36.9880   42.9890 O   0  0  0  0  0  0  0  0  0  0  0  0
   44.0980   37.6170   43.6180 H   0  0  0  0  0  0  0  0  0  0  0  0
   47.9390   30.2170   49.0830 O   0  0  0  0  0  0  0  0  0  0  0  0
   49.9950   29.1990   49.7910 C   0  0  2  0  0  3  0  0  0  0  0  0
   49.2650   30.3150   48.9990 C   0  0  2  0  0  3  0  0  0  0  0  0
   49.7240   31.5860   49.6720 C   0  0  0  0  0  3  0  0  0  0  0  0
   49.4940   32.5090   49.1540 H   0  0  0  0  0  0  0  0  0  0  0  0
   51.0780   31.5350   49.9990 O   0  0  0  0  0  0  0  0  0  0  0  0
   51.2830   30.7790   51.1490 C   0  0  0  0  0  3  0  0  0  0  0  0
   52.2800   30.3110   51.0260 H   0  0  0  0  0  0  0  0  0  0  0  0
   50.2620   29.6750   51.2250 C   0  0  2  0  0  3  0  0  0  0  0  0
   51.2670   28.9910   49.2600 O   0  0  0  0  0  0  0  0  0  0  0  0
   51.6100   28.1770   49.6830 H   0  0  0  0  0  0  0  0  0  0  0  0
   50.8880   28.5830   51.8420 O   0  0  0  0  0  0  0  0  0  0  0  0
   50.5060   28.3350   52.7040 H   0  0  0  0  0  0  0  0  0  0  0  0
  1  6  1  6  0  0  0
  1  2  1  0  0  0  0
  1 28  1  0  0  0  0
  2  7  1  1  0  0  0
  3  9  1  0  0  0  0
  3  2  1  0  0  0  0
  4  3  1  0  0  0  0
  4  5  1  0  0  0  0
  5  1  1  0  0  0  0
  5 10  1  0  0  0  0
  8  3  1  0  0  0  0
 11  5  1  0  0  0  0
 12  2  1  0  0  0  0
 14 13  2  1  0  0  0
 14 12  1  0  0  0  0
 15 14  1  0  0  0  0
 16 15  1  0  0  0  0
 17 14  1  0  0  0  0
 18 23  1  0  0  0  0
 19 20  1  0  0  0  0
 19 18  2  0  0  0  0
 20 21  2  0  0  0  0
 21 22  1  0  0  0  0
 22 17  1  0  0  0  0
 23 22  2  0  0  0  0
 24 19  1  0  0  0  0
 25 20  1  0  0  0  0
 26 18  1  0  0  0  0
 26 27  1  0  0  0  0
 29 37  1  6  0  0  0
 29 36  1  0  0  0  0
 30 28  1  1  0  0  0
 30 31  1  0  0  0  0
 30 29  1  0  0  0  0
 31 33  1  0  0  0  0
 32 31  1  0  0  0  0
 33 34  1  0  0  0  0
 34 36  1  0  0  0  0
 35 34  1  0  0  0  0
 36 39  1  1  0  0  0
 37 38  1  0  0  0  0
 39 40  1  0  0  0  0
M  END
>  <minimizedAffinity>
-5.51405001

>  <minimizedRMSD>
1.51508319

$$$$
