
     RDKit          3D

 49 53  0  0  0  0  0  0  0  0999 V2000
   45.9538   33.1712   41.6483 C   0  0  0  0  0  0  0  0  0  0  0  0
   47.1182   33.8782   41.3219 C   0  0  0  0  0  0  0  0  0  0  0  0
   48.1002   33.9618   42.2943 C   0  0  0  0  0  0  0  0  0  0  0  0
   47.8585   33.3502   43.4938 N   0  0  0  0  0  0  0  0  0  0  0  0
   46.7504   32.6827   43.7918 C   0  0  0  0  0  0  0  0  0  0  0  0
   45.7789   32.5862   42.8631 N   0  0  0  0  0  0  0  0  0  0  0  0
   46.9096   30.7643   45.3066 C   0  0  0  0  0  0  0  0  0  0  0  0
   46.5965   32.0721   45.0961 C   0  0  0  0  0  0  0  0  0  0  0  0
   46.1067   32.9083   46.1235 C   0  0  0  0  0  0  0  0  0  0  0  0
   45.9297   32.3979   47.4060 C   0  0  0  0  0  0  0  0  0  0  0  0
   45.4949   32.8865   48.6034 N   0  0  0  0  0  0  0  0  0  0  0  0
   45.5585   31.8585   49.5010 C   0  0  0  0  0  0  0  0  0  0  0  0
   46.0268   30.7611   48.8522 N   0  0  0  0  0  0  0  0  0  0  0  0
   46.2616   31.0674   47.5665 C   0  0  0  0  0  0  0  0  0  0  0  0
   46.7407   30.2309   46.5821 C   0  0  0  0  0  0  0  0  0  0  0  0
   49.3553   34.6949   42.0103 C   0  0  0  0  0  0  0  0  0  0  0  0
   49.0935   35.8221   41.2179 F   0  0  0  0  0  0  0  0  0  0  0  0
   49.9093   35.1671   43.1761 F   0  0  0  0  0  0  0  0  0  0  0  0
   50.2072   33.8550   41.3527 F   0  0  0  0  0  0  0  0  0  0  0  0
   47.2295   34.4366   40.0964 O   0  0  0  0  0  0  0  0  0  0  0  0
   47.3721   33.6774   38.9495 C   0  0  0  0  0  0  0  0  0  0  0  0
   48.3470   34.3624   38.2353 C   0  0  0  0  0  0  0  0  0  0  0  0
   48.5574   33.3727   36.7069 S   0  0  0  0  0  0  0  0  0  0  0  0
   47.2395   32.1509   37.3143 C   0  0  0  0  0  0  0  0  0  0  0  0
   47.0012   32.6346   38.2752 N   0  0  0  0  0  0  0  0  0  0  0  0
   45.1747   33.0916   40.9088 H   0  0  0  0  0  0  0  0  0  0  0  0
   47.2820   30.1561   44.4944 H   0  0  0  0  0  0  0  0  0  0  0  0
   45.8546   33.9499   45.9672 H   0  0  0  0  0  0  0  0  0  0  0  0
   45.1866   33.8704   48.7371 H   0  0  0  0  0  0  0  0  0  0  0  0
   45.2691   31.9715   50.5360 H   0  0  0  0  0  0  0  0  0  0  0  0
   46.9817   29.1954   46.7763 H   0  0  0  0  0  0  0  0  0  0  0  0
   49.1380   35.2601   38.0690 H   0  0  0  0  0  0  0  0  0  0  0  0
   44.4934   30.0826   36.6868 O   0  0  0  0  0  0  0  0  0  0  0  0
   45.7210   30.1650   37.3431 C   0  0  2  0  0  0  0  0  0  0  0  0
   46.7614   30.9232   36.5868 C   0  0  2  0  0  0  0  0  0  0  0  0
   47.9441   30.0320   36.2305 C   0  0  1  0  0  0  0  0  0  0  0  0
   47.5215   29.2549   35.5433 H   0  0  0  0  0  0  0  0  0  0  0  0
   48.5359   29.4717   37.3538 O   0  0  0  0  0  0  0  0  0  0  0  0
   47.6334   28.6821   38.0495 C   0  0  1  0  0  0  0  0  0  0  0  0
   47.9429   27.6217   37.9920 H   0  0  0  0  0  0  0  0  0  0  0  0
   46.2280   28.7404   37.5053 C   0  0  1  0  0  0  0  0  0  0  0  0
   45.4156   28.1393   38.4828 O   0  0  0  0  0  0  0  0  0  0  0  0
   44.0894   30.9485   36.4857 H   0  0  0  0  0  0  0  0  0  0  0  0
   45.5085   30.6030   38.3485 H   0  0  0  0  0  0  0  0  0  0  0  0
   46.3316   31.2313   35.6100 H   0  0  0  0  0  0  0  0  0  0  0  0
   48.6804   30.6008   35.6595 H   0  0  0  0  0  0  0  0  0  0  0  0
   47.6023   29.0834   39.0876 H   0  0  0  0  0  0  0  0  0  0  0  0
   46.0811   28.1555   36.5849 H   0  0  0  0  0  0  0  0  0  0  0  0
   45.6615   27.1738   38.5355 H   0  0  0  0  0  0  0  0  0  0  0  0
  1  6  2  0
  2  1  1  0
  2  3  2  0
  3  4  1  0
  4  5  2  0
  5  8  1  0
  6  5  1  0
  7 15  2  0
  8  7  1  0
  8  9  2  0
  9 10  1  0
 10 14  2  0
 10 11  1  0
 11 12  1  0
 13 12  2  0
 14 13  1  0
 15 14  1  0
 16  3  1  0
 16 18  1  0
 17 16  1  0
 19 16  1  0
 20  2  1  0
 21 20  1  0
 22 21  2  0
 23 24  1  0
 23 22  1  0
 24 25  2  0
 25 21  1  0
  1 26  1  0
  7 27  1  0
  9 28  1  0
 11 29  1  0
 12 30  1  0
 15 31  1  0
 22 32  1  0
 33 34  1  0
 34 35  1  0
 35 36  1  0
 36 37  1  6
 36 38  1  0
 38 39  1  0
 39 40  1  1
 39 41  1  0
 41 42  1  0
 41 34  1  0
 33 43  1  0
 34 44  1  1
 35 45  1  6
 36 46  1  0
 39 47  1  0
 41 48  1  6
 42 49  1  0
 24 35  1  0
M  ISO  8  26  14  27  14  28  14  29   9  30  14  31  14  32  14  37   8
M  ISO  1  40   8
M  END
>  <DihAtoms>  (1) 
22,23,34,33

>  <DihDeg>  (1) 
-120.51376247473753

$$$$
