REMARK  Name = 
REMARK  4 active torsions:
REMARK  status: ('A' for Active; 'I' for Inactive)
REMARK    1  A    between atoms: C_1  and  O_7
REMARK    2  A    between atoms: C_3  and  C_13
REMARK    3  A    between atoms: O_11  and  C_12
REMARK    4  A    between atoms: C_19  and  O_20
REMARK                            x       y       z     vdW  Elec       q    Type
REMARK                         _______ _______ _______ _____ _____    ______ ____
ROOT
ATOM      1  C   UNL     1      47.072  32.385  41.945  0.00  0.00    +0.000 C 
ATOM      2  C   UNL     1      47.756  33.207  42.992  0.00  0.00    +0.000 C 
ATOM      3  C   UNL     1      48.621  32.385  43.931  0.00  0.00    +0.000 C 
ATOM      4  H   UNL     1      49.510  33.005  44.169  0.00  0.00    +0.000 HD
ATOM      5  O   UNL     1      49.104  31.229  43.347  0.00  0.00    +0.000 OA
ATOM      6  C   UNL     1      48.098  30.334  43.000  0.00  0.00    +0.000 C 
ATOM      7  H   UNL     1      48.509  29.672  42.205  0.00  0.00    +0.000 HD
ATOM      8  C   UNL     1      46.862  30.988  42.474  0.00  0.00    +0.000 C 
ENDROOT
BRANCH   2  11
ATOM      9  C   UNL     1      45.002  35.485  44.187  0.00  0.00    +0.000 A 
ATOM     10  C   UNL     1      45.977  34.933  43.340  0.00  0.00    +0.000 A 
ATOM     11  C   UNL     1      46.714  33.831  43.841  0.00  0.00    +0.000 A 
ATOM     12  N   UNL     1      46.442  33.377  45.087  0.00  0.00    +0.000 NA
ATOM     13  C   UNL     1      45.496  33.941  45.861  0.00  0.00    +0.000 A 
ATOM     14  N   UNL     1      44.780  34.984  45.420  0.00  0.00    +0.000 NA
ATOM     15  H   UNL     1      46.173  35.316  42.349  0.00  0.00    +0.000 HD
ATOM     16  H   UNL     1      45.250  33.603  46.868  0.00  0.00    +0.000 HD
BRANCH   9  17
ATOM     17  O   UNL     1      44.288  36.550  43.708  0.00  0.00    +0.000 OA
ATOM     18  H   UNL     1      44.723  37.464  43.718  0.00  0.00    +0.000 HD
ENDBRANCH   9  17
ENDBRANCH   2  11
BRANCH   1  19
ATOM     19  O   UNL     1      45.786  32.924  41.729  0.00  0.00    +0.000 OA
ATOM     20  H   UNL     1      45.373  32.639  40.899  0.00  0.00    +0.000 HD
ENDBRANCH   1  19
BRANCH   8  21
ATOM     21  O   UNL     1      46.335  30.221  41.435  0.00  0.00    +0.000 OA
ATOM     22  H   UNL     1      45.575  30.610  40.978  0.00  0.00    +0.000 HD
ENDBRANCH   8  21
TORSDOF 4
