REMARK  Name = 
REMARK  12 active torsions:
REMARK  status: ('A' for Active; 'I' for Inactive)
REMARK    1  A    between atoms: C_1  and  N_2
REMARK    2  A    between atoms: C_1  and  S_8
REMARK    3  A    between atoms: N_2  and  S_3
REMARK    4  A    between atoms: S_3  and  O_4
REMARK    5  A    between atoms: S_3  and  O_5
REMARK    6  A    between atoms: S_3  and  O_6
REMARK    7  A    between atoms: O_6  and  C_7
REMARK    8  A    between atoms: S_8  and  C_10
REMARK    9  A    between atoms: C_13  and  O_15
REMARK   10  A    between atoms: O_15  and  C_28
REMARK   11  A    between atoms: O_26  and  C_27
REMARK   12  A    between atoms: C_34  and  O_35
REMARK                            x       y       z     vdW  Elec       q    Type
REMARK                         _______ _______ _______ _____ _____    ______ ____
ROOT
ATOM      1  C   UNL     1      40.880  33.027  41.370  0.00  0.00    +0.000 A 
ATOM      2  C   UNL     1      41.635  33.965  40.680  0.00  0.00    +0.000 A 
ATOM      3  C   UNL     1      41.045  34.806  39.736  0.00  0.00    +0.000 A 
ATOM      4  N   UNL     1      39.715  34.650  39.541  0.00  0.00    +0.000 NA
ATOM      5  C   UNL     1      39.002  33.738  40.218  0.00  0.00    +0.000 A 
ATOM      6  N   UNL     1      39.557  32.934  41.119  0.00  0.00    +0.000 NA
ATOM      7  H   UNL     1      41.345  32.385  42.095  0.00  0.00    +0.000 HD
ATOM      8  H   UNL     1      41.629  35.544  39.190  0.00  0.00    +0.000 HD
ENDROOT
BRANCH   2   9
ATOM      9  S   UNL     1      43.400  34.104  41.002  0.00  0.00    +0.000 S 
BRANCH   9  10
ATOM     10  C   UNL     1      43.767  35.707  41.690  0.00  0.00    +0.000 C 
ATOM     11  H   UNL     1      44.862  35.935  41.565  0.00  0.00    +0.000 HD
ATOM     12  H   UNL     1      43.171  36.478  41.146  0.00  0.00    +0.000 HD
BRANCH  10  13
ATOM     13  N   UNL     1      43.441  35.660  43.111  0.00  0.00    +0.000 NA
ATOM     14  H   UNL     1      42.877  34.832  43.377  0.00  0.00    +0.000 HD
BRANCH  13  15
ATOM     15  S   UNL     1      44.827  35.828  44.112  0.00  0.00    +0.000 S 
BRANCH  15  16
ATOM     16  O   UNL     1      46.070  35.355  43.426  0.00  0.00    +0.000 OA
ATOM     17  H   UNL     1      46.139  34.594  42.803  0.00  0.00    +0.000 HD
ENDBRANCH  15  16
BRANCH  15  18
ATOM     18  O   UNL     1      44.951  37.328  44.381  0.00  0.00    +0.000 OA
ATOM     19  H   UNL     1      45.413  37.872  43.716  0.00  0.00    +0.000 HD
ENDBRANCH  15  18
BRANCH  15  20
ATOM     20  O   UNL     1      44.586  35.094  45.573  0.00  0.00    +0.000 OA
BRANCH  20  21
ATOM     21  C   UNL     1      45.422  34.000  45.742  0.00  0.00    +0.000 C 
ATOM     22  H   UNL     1      46.470  34.366  45.712  0.00  0.00    +0.000 HD
ATOM     23  H   UNL     1      45.288  33.358  44.822  0.00  0.00    +0.000 HD
ATOM     24  H   UNL     1      45.175  33.385  46.604  0.00  0.00    +0.000 HD
ENDBRANCH  20  21
ENDBRANCH  15  20
ENDBRANCH  13  15
ENDBRANCH  10  13
ENDBRANCH   9  10
ENDBRANCH   2   9
BRANCH   5  25
ATOM     25  O   UNL     1      37.629  33.574  40.020  0.00  0.00    +0.000 OA
BRANCH  25  27
ATOM     26  C   UNL     1      36.422  33.643  37.918  0.00  0.00    +0.000 C 
ATOM     27  C   UNL     1      37.033  34.439  39.052  0.00  0.00    +0.000 C 
ATOM     28  C   UNL     1      38.045  35.377  38.454  0.00  0.00    +0.000 C 
ATOM     29  H   UNL     1      38.950  34.839  38.075  0.00  0.00    +0.000 HD
ATOM     30  O   UNL     1      37.452  36.001  37.359  0.00  0.00    +0.000 OA
ATOM     31  C   UNL     1      37.624  35.119  36.285  0.00  0.00    +0.000 C 
ATOM     32  H   UNL     1      38.729  35.097  36.115  0.00  0.00    +0.000 HD
ATOM     33  C   UNL     1      37.209  33.715  36.642  0.00  0.00    +0.000 C 
BRANCH  26  34
ATOM     34  O   UNL     1      35.124  34.106  37.675  0.00  0.00    +0.000 OA
ATOM     35  H   UNL     1      34.911  33.860  36.740  0.00  0.00    +0.000 HD
ENDBRANCH  26  34
BRANCH  33  36
ATOM     36  O   UNL     1      36.358  33.256  35.620  0.00  0.00    +0.000 OA
ATOM     37  H   UNL     1      36.773  33.332  34.732  0.00  0.00    +0.000 HD
ENDBRANCH  33  36
ENDBRANCH  25  27
ENDBRANCH   5  25
TORSDOF 12
