
 OpenBabel03252503033D

 37 38  0  0  1  0  0  0  0  0999 V2000
   41.5190   30.9210   42.5480 C   0  0  0  0  0  0  0  0  0  0  0  0
   42.7890   31.0400   42.0020 C   0  0  0  0  0  0  0  0  0  0  0  0
   42.9650   31.4370   40.6760 C   0  0  0  0  0  0  0  0  0  0  0  0
   41.8380   31.6930   39.9710 N   0  0  0  0  0  0  0  0  0  0  0  0
   40.6190   31.5740   40.5170 C   0  0  0  0  0  0  0  0  0  0  0  0
   40.4440   31.1970   41.7790 N   0  0  0  0  0  0  0  0  0  0  0  0
   41.3950   30.6150   43.5700 H   0  0  0  0  0  0  0  0  0  0  0  0
   43.9570   31.5320   40.2390 H   0  0  0  0  0  0  0  0  0  0  0  0
   44.2340   30.6780   43.0110 S   0  0  0  0  0  0  0  0  0  0  0  0
   45.3250   32.0870   43.0380 C   0  0  0  0  0  0  0  0  0  0  0  0
   46.3400   31.7780   43.4120 H   0  0  0  0  0  0  0  0  0  0  0  0
   45.4250   32.4850   42.0000 H   0  0  0  0  0  0  0  0  0  0  0  0
   44.7510   33.0700   43.9510 N   0  0  0  0  0  0  0  0  0  0  0  0
   43.8300   32.7870   44.3350 H   0  0  0  0  0  0  0  0  0  0  0  0
   45.8410   33.5290   45.1960 S   0  0  0  0  0  0  0  0  0  0  0  0
   47.2250   33.7510   44.6720 O   0  0  0  0  0  0  0  0  0  0  0  0
   47.6630   33.2430   43.9490 H   0  0  0  0  0  0  0  0  0  0  0  0
   45.3000   34.8520   45.7390 O   0  0  0  0  0  0  0  0  0  0  0  0
   45.5500   35.6710   45.2710 H   0  0  0  0  0  0  0  0  0  0  0  0
   45.7970   32.4430   46.4420 O   0  0  0  0  0  0  0  0  0  0  0  0
   46.9740   32.4560   47.1750 C   0  0  0  0  0  0  0  0  0  0  0  0
   47.0920   33.4710   47.6110 H   0  0  0  0  0  0  0  0  0  0  0  0
   47.8120   32.3380   46.4260 H   0  0  0  0  0  0  0  0  0  0  0  0
   47.0600   31.6390   47.8870 H   0  0  0  0  0  0  0  0  0  0  0  0
   39.4540   31.8380   39.7930 O   0  0  0  0  0  0  0  0  0  0  0  0
   39.6940   33.7700   38.3470 C   0  0  2  0  0  0  0  0  0  0  0  0
   39.1200   33.2180   39.6350 C   0  0  2  0  0  0  0  0  0  0  0  0
   39.6610   34.0490   40.7660 C   0  0  0  0  0  0  0  0  0  0  0  0
   40.7520   33.8700   40.9390 H   0  0  0  0  0  0  0  0  0  0  0  0
   39.5160   35.3890   40.4160 O   0  0  0  0  0  0  0  0  0  0  0  0
   40.6410   35.6990   39.6410 C   0  0  0  0  0  0  0  0  0  0  0  0
   41.5010   35.6160   40.3500 H   0  0  0  0  0  0  0  0  0  0  0  0
   40.8700   34.6790   38.5560 C   0  0  2  0  0  0  0  0  0  0  0  0
   38.6970   34.4710   37.6600 O   0  0  0  0  0  0  0  0  0  0  0  0
   39.1650   35.1100   37.0660 H   0  0  0  0  0  0  0  0  0  0  0  0
   41.0520   35.3810   37.3500 O   0  0  0  0  0  0  0  0  0  0  0  0
   41.7660   36.0530   37.4190 H   0  0  0  0  0  0  0  0  0  0  0  0
  1  7  1  0  0  0  0
  2  1  1  0  0  0  0
  2  9  1  0  0  0  0
  3  2  2  0  0  0  0
  4  5  2  0  0  0  0
  4  3  1  0  0  0  0
  5  6  1  0  0  0  0
  6  1  2  0  0  0  0
  8  3  1  0  0  0  0
  9 10  1  0  0  0  0
 10 11  1  0  0  0  0
 10 13  1  0  0  0  0
 12 10  1  0  0  0  0
 13 14  1  0  0  0  0
 13 15  1  0  0  0  0
 15 18  1  0  0  0  0
 15 20  1  0  0  0  0
 16 15  1  0  0  0  0
 17 16  1  0  0  0  0
 19 18  1  0  0  0  0
 20 21  1  0  0  0  0
 21 22  1  0  0  0  0
 21 24  1  0  0  0  0
 23 21  1  0  0  0  0
 25  5  1  0  0  0  0
 26 34  1  1  0  0  0
 26 33  1  0  0  0  0
 26 27  1  0  0  0  0
 27 25  1  1  0  0  0
 27 28  1  0  0  0  0
 28 29  1  0  0  0  0
 30 28  1  0  0  0  0
 31 32  1  0  0  0  0
 31 30  1  0  0  0  0
 33 36  1  6  0  0  0
 33 31  1  0  0  0  0
 35 34  1  0  0  0  0
 36 37  1  0  0  0  0
M  END
>  <minimizedAffinity>
-4.84651089

>  <minimizedRMSD>
3.40886068

$$$$
