
 OpenBabel03242517543D

 46 48  0  0  1  0  0  0  0  0999 V2000
   45.6120   30.0620   47.2090 C   0  0  0  0  0  0  0  0  0  0  0  0
   46.0130   31.1890   46.5760 C   0  0  0  0  0  0  0  0  0  0  0  0
   46.0420   32.3740   47.2880 C   0  0  0  0  0  0  0  0  0  0  0  0
   45.6830   32.4570   48.6130 C   0  0  0  0  0  0  0  0  0  0  0  0
   45.2760   31.3000   49.2520 C   0  0  0  0  0  0  0  0  0  0  0  0
   45.2460   30.1110   48.5380 C   0  0  0  0  0  0  0  0  0  0  0  0
   46.3490   33.3180   46.8590 H   0  0  0  0  0  0  0  0  0  0  0  0
   45.7020   33.3650   49.1730 H   0  0  0  0  0  0  0  0  0  0  0  0
   44.9760   31.2930   50.3070 H   0  0  0  0  0  0  0  0  0  0  0  0
   44.9220   29.1900   49.0470 H   0  0  0  0  0  0  0  0  0  0  0  0
   45.4800   28.6310   46.2460 S   0  0  0  0  0  0  0  0  0  0  0  0
   45.3180   27.3800   47.0120 O   0  0  0  0  0  0  0  0  0  0  0  0
   46.8410   28.4870   45.5230 O   0  0  0  0  0  0  0  0  0  0  0  0
   44.5070   27.5550   43.9350 C   0  0  2  0  0  3  0  0  0  0  0  0
   44.3610   28.7180   44.8980 C   0  0  1  0  0  3  0  0  0  0  0  0
   42.9740   28.5770   45.5100 C   0  0  0  0  0  3  0  0  0  0  0  0
   42.8810   27.6580   46.1180 H   0  0  0  0  0  0  0  0  0  0  0  0
   42.0140   28.7010   44.5380 O   0  0  0  0  0  0  0  0  0  0  0  0
   41.9880   27.5740   43.7580 C   0  0  0  0  0  3  0  0  0  0  0  0
   41.1300   26.9120   44.0410 H   0  0  0  0  0  0  0  0  0  0  0  0
   43.2370   26.7410   43.7960 C   0  0  2  0  0  3  0  0  0  0  0  0
   45.4730   26.6920   44.4580 O   0  0  0  0  0  0  0  0  0  0  0  0
   46.0970   26.3420   43.7850 H   0  0  0  0  0  0  0  0  0  0  0  0
   43.1770   25.7210   44.7440 O   0  0  0  0  0  0  0  0  0  0  0  0
   43.6920   24.9120   44.4300 H   0  0  0  0  0  0  0  0  0  0  0  0
   46.4170   31.3210   45.2550 O   0  0  0  0  0  0  0  0  0  0  0  0
   45.2800   34.2680   43.6840 C   0  0  0  0  0  0  0  0  0  0  0  0
   46.4620   34.7770   43.1090 C   0  0  0  0  0  0  0  0  0  0  0  0
   47.6390   34.0950   43.2710 C   0  0  0  0  0  0  0  0  0  0  0  0
   47.5700   32.9630   43.9870 N   0  0  0  0  0  0  0  0  0  0  0  0
   46.4620   32.4830   44.5270 C   0  0  0  0  0  0  0  0  0  0  0  0
   45.3150   33.1370   44.3760 N   0  0  0  0  0  0  0  0  0  0  0  0
   44.3440   34.8010   43.5600 H   0  0  0  0  0  0  0  0  0  0  0  0
   46.3430   35.6960   42.5640 H   0  0  0  0  0  0  0  0  0  0  0  0
   48.9180   34.5240   42.6980 C   0  0  0  0  0  0  0  0  0  0  0  0
   49.6260   34.7760   43.5140 H   0  0  0  0  0  0  0  0  0  0  0  0
   49.4060   33.6740   42.1540 H   0  0  0  0  0  0  0  0  0  0  0  0
   48.7760   35.6720   41.7470 C   0  0  0  0  0  0  0  0  0  0  0  0
   48.0590   36.4140   42.0560 H   0  0  0  0  0  0  0  0  0  0  0  0
   49.7790   36.2100   41.7980 H   0  0  0  0  0  0  0  0  0  0  0  0
   48.6330   35.2690   40.3480 C   0  0  0  0  0  3  0  0  0  0  0  0
   48.0390   34.3620   39.5840 C   0  0  0  0  0  3  0  0  0  0  0  0
   48.2110   34.1780   38.0890 C   0  0  0  0  0  0  0  0  0  0  0  0
   47.2850   34.5220   37.6010 H   0  0  0  0  0  0  0  0  0  0  0  0
   48.4120   33.1100   37.8790 H   0  0  0  0  0  0  0  0  0  0  0  0
   49.0990   34.7580   37.8230 H   0  0  0  0  0  0  0  0  0  0  0  0
  1  6  1  0  0  0  0
  2  1  2  0  0  0  0
  2  3  1  0  0  0  0
  3  4  2  0  0  0  0
  4  8  1  0  0  0  0
  4  5  1  0  0  0  0
  5  9  1  0  0  0  0
  6 10  1  0  0  0  0
  6  5  2  0  0  0  0
  7  3  1  0  0  0  0
 11 12  2  0  0  0  0
 11  1  1  0  0  0  0
 13 11  2  0  0  0  0
 14 22  1  1  0  0  0
 14 15  1  0  0  0  0
 15 16  1  0  0  0  0
 15 11  1  1  0  0  0
 16 17  1  0  0  0  0
 18 16  1  0  0  0  0
 19 21  1  0  0  0  0
 19 20  1  0  0  0  0
 19 18  1  0  0  0  0
 21 14  1  0  0  0  0
 21 24  1  1  0  0  0
 23 22  1  0  0  0  0
 25 24  1  0  0  0  0
 26  2  1  0  0  0  0
 27 32  1  0  0  0  0
 28 29  1  0  0  0  0
 28 27  2  0  0  0  0
 29 30  2  0  0  0  0
 30 31  1  0  0  0  0
 31 26  1  0  0  0  0
 32 31  2  0  0  0  0
 33 27  1  0  0  0  0
 34 28  1  0  0  0  0
 35 29  1  0  0  0  0
 35 36  1  0  0  0  0
 37 35  1  0  0  0  0
 38 40  1  0  0  0  0
 38 39  1  0  0  0  0
 38 35  1  0  0  0  0
 41 38  1  0  0  0  0
 42 41  2  0  0  0  0
 43 42  1  0  0  0  0
 44 43  1  0  0  0  0
 45 43  1  0  0  0  0
 46 43  1  0  0  0  0
M  END
>  <minimizedAffinity>
-5.7940383

>  <minimizedRMSD>
1.59958434

$$$$
