
 OpenBabel03242517543D

 46 48  0  0  1  0  0  0  0  0999 V2000
   45.5540   30.0630   47.2060 C   0  0  0  0  0  0  0  0  0  0  0  0
   45.9970   31.1820   46.5870 C   0  0  0  0  0  0  0  0  0  0  0  0
   46.0700   32.3560   47.3130 C   0  0  0  0  0  0  0  0  0  0  0  0
   45.7120   32.4370   48.6380 C   0  0  0  0  0  0  0  0  0  0  0  0
   45.2610   31.2880   49.2630 C   0  0  0  0  0  0  0  0  0  0  0  0
   45.1880   30.1110   48.5360 C   0  0  0  0  0  0  0  0  0  0  0  0
   46.4120   33.2940   46.8950 H   0  0  0  0  0  0  0  0  0  0  0  0
   45.7640   33.3370   49.2090 H   0  0  0  0  0  0  0  0  0  0  0  0
   44.9600   31.2810   50.3180 H   0  0  0  0  0  0  0  0  0  0  0  0
   44.8290   29.1960   49.0330 H   0  0  0  0  0  0  0  0  0  0  0  0
   45.3700   28.6490   46.2270 S   0  0  0  0  0  0  0  0  0  0  0  0
   45.1660   27.3960   46.9780 O   0  0  0  0  0  0  0  0  0  0  0  0
   46.7240   28.4670   45.4990 O   0  0  0  0  0  0  0  0  0  0  0  0
   44.3620   27.6390   43.9010 C   0  0  2  0  0  3  0  0  0  0  0  0
   44.2520   28.7910   44.8830 C   0  0  1  0  0  3  0  0  0  0  0  0
   42.8630   28.6820   45.4950 C   0  0  0  0  0  3  0  0  0  0  0  0
   42.7430   27.7580   46.0900 H   0  0  0  0  0  0  0  0  0  0  0  0
   41.9050   28.8510   44.5280 O   0  0  0  0  0  0  0  0  0  0  0  0
   41.8440   27.7380   43.7310 C   0  0  0  0  0  3  0  0  0  0  0  0
   40.9670   27.0980   44.0040 H   0  0  0  0  0  0  0  0  0  0  0  0
   43.0680   26.8670   43.7530 C   0  0  2  0  0  3  0  0  0  0  0  0
   45.3020   26.7400   44.4090 O   0  0  0  0  0  0  0  0  0  0  0  0
   45.9130   26.3820   43.7280 H   0  0  0  0  0  0  0  0  0  0  0  0
   42.9760   25.8340   44.6840 O   0  0  0  0  0  0  0  0  0  0  0  0
   43.4670   25.0150   44.3570 H   0  0  0  0  0  0  0  0  0  0  0  0
   46.4080   31.3140   45.2680 O   0  0  0  0  0  0  0  0  0  0  0  0
   45.2750   34.2630   43.6990 C   0  0  0  0  0  0  0  0  0  0  0  0
   46.4570   34.7690   43.1220 C   0  0  0  0  0  0  0  0  0  0  0  0
   47.6330   34.0840   43.2820 C   0  0  0  0  0  0  0  0  0  0  0  0
   47.5630   32.9530   43.9980 N   0  0  0  0  0  0  0  0  0  0  0  0
   46.4540   32.4760   44.5400 C   0  0  0  0  0  0  0  0  0  0  0  0
   45.3090   33.1320   44.3900 N   0  0  0  0  0  0  0  0  0  0  0  0
   44.3410   34.7990   43.5760 H   0  0  0  0  0  0  0  0  0  0  0  0
   46.3390   35.6890   42.5770 H   0  0  0  0  0  0  0  0  0  0  0  0
   48.9120   34.5100   42.7060 C   0  0  0  0  0  0  0  0  0  0  0  0
   49.6220   34.7600   43.5210 H   0  0  0  0  0  0  0  0  0  0  0  0
   49.3960   33.6600   42.1610 H   0  0  0  0  0  0  0  0  0  0  0  0
   48.7710   35.6600   41.7570 C   0  0  0  0  0  0  0  0  0  0  0  0
   48.0540   36.4020   42.0660 H   0  0  0  0  0  0  0  0  0  0  0  0
   49.7750   36.1970   41.8100 H   0  0  0  0  0  0  0  0  0  0  0  0
   48.6300   35.2590   40.3580 C   0  0  0  0  0  3  0  0  0  0  0  0
   48.0330   34.3560   39.5910 C   0  0  0  0  0  3  0  0  0  0  0  0
   48.2090   34.1720   38.0960 C   0  0  0  0  0  0  0  0  0  0  0  0
   47.2860   34.5220   37.6060 H   0  0  0  0  0  0  0  0  0  0  0  0
   48.4040   33.1030   37.8860 H   0  0  0  0  0  0  0  0  0  0  0  0
   49.1010   34.7480   37.8330 H   0  0  0  0  0  0  0  0  0  0  0  0
  1  6  1  0  0  0  0
  2  1  2  0  0  0  0
  2  3  1  0  0  0  0
  3  4  2  0  0  0  0
  4  8  1  0  0  0  0
  4  5  1  0  0  0  0
  5  9  1  0  0  0  0
  6 10  1  0  0  0  0
  6  5  2  0  0  0  0
  7  3  1  0  0  0  0
 11 12  2  0  0  0  0
 11  1  1  0  0  0  0
 13 11  2  0  0  0  0
 14 22  1  1  0  0  0
 14 15  1  0  0  0  0
 15 16  1  0  0  0  0
 15 11  1  1  0  0  0
 16 17  1  0  0  0  0
 18 16  1  0  0  0  0
 19 21  1  0  0  0  0
 19 20  1  0  0  0  0
 19 18  1  0  0  0  0
 21 14  1  0  0  0  0
 21 24  1  1  0  0  0
 23 22  1  0  0  0  0
 25 24  1  0  0  0  0
 26  2  1  0  0  0  0
 27 32  1  0  0  0  0
 28 29  1  0  0  0  0
 28 27  2  0  0  0  0
 29 30  2  0  0  0  0
 30 31  1  0  0  0  0
 31 26  1  0  0  0  0
 32 31  2  0  0  0  0
 33 27  1  0  0  0  0
 34 28  1  0  0  0  0
 35 29  1  0  0  0  0
 35 36  1  0  0  0  0
 37 35  1  0  0  0  0
 38 40  1  0  0  0  0
 38 39  1  0  0  0  0
 38 35  1  0  0  0  0
 41 38  1  0  0  0  0
 42 41  2  0  0  0  0
 43 42  1  0  0  0  0
 44 43  1  0  0  0  0
 45 43  1  0  0  0  0
 46 43  1  0  0  0  0
M  END
>  <minimizedAffinity>
-5.79361534

>  <minimizedRMSD>
1.65996706

$$$$
