
 OpenBabel03242522213D

 48 51  0  0  1  0  0  0  0  0999 V2000
   37.5040   30.5270   40.5490 C   0  0  0  0  0  0  0  0  0  0  0  0
   37.4380   29.6700   39.4900 C   0  0  0  0  0  0  0  0  0  0  0  0
   37.3230   28.3000   39.5500 C   0  0  0  0  0  0  0  0  0  0  0  0
   37.2710   27.7780   40.8040 C   0  0  0  0  0  0  0  0  0  0  0  0
   37.3360   28.6170   41.8830 C   0  0  0  0  0  0  0  0  0  0  0  0
   37.4480   29.9570   41.7940 N   0  0  0  0  0  0  0  0  0  0  0  0
   37.4860   30.1710   38.5200 H   0  0  0  0  0  0  0  0  0  0  0  0
   37.2800   27.7220   38.6510 H   0  0  0  0  0  0  0  0  0  0  0  0
   37.2720   27.9580   43.2220 C   0  0  0  0  0  0  0  0  0  0  0  0
   38.4430   27.1870   43.3930 F   0  0  0  0  0  0  0  0  0  0  0  0
   36.1340   27.2260   43.4260 F   0  0  0  0  0  0  0  0  0  0  0  0
   37.3180   28.9250   44.2130 F   0  0  0  0  0  0  0  0  0  0  0  0
   37.6250   31.9710   40.5840 C   0  0  0  0  0  0  0  0  0  0  0  0
   36.6350   32.3870   40.8730 H   0  0  0  0  0  0  0  0  0  0  0  0
   38.3150   32.2850   41.4180 H   0  0  0  0  0  0  0  0  0  0  0  0
   38.0760   32.6440   39.3420 C   0  0  0  0  0  0  0  0  0  0  0  0
   38.3250   31.9000   38.5600 H   0  0  0  0  0  0  0  0  0  0  0  0
   37.2640   33.3010   38.9470 H   0  0  0  0  0  0  0  0  0  0  0  0
   41.3430   34.3510   39.6820 C   0  0  0  0  0  0  0  0  0  0  0  0
   40.9380   35.4730   40.3190 C   0  0  0  0  0  0  0  0  0  0  0  0
   39.1250   35.1770   40.4640 S   0  0  0  0  0  0  0  0  0  0  0  0
   39.2470   33.5390   39.6080 C   0  0  0  0  0  0  0  0  0  0  0  0
   40.3670   33.5390   39.4260 N   0  0  0  0  0  0  0  0  0  0  0  0
   41.5300   36.3680   40.6800 H   0  0  0  0  0  0  0  0  0  0  0  0
   44.5040   33.6870   37.7560 C   0  0  0  0  0  0  0  0  0  0  0  0
   43.1480   33.9450   38.0080 C   0  0  0  0  0  0  0  0  0  0  0  0
   42.7460   34.0790   39.3150 C   0  0  0  0  0  0  0  0  0  0  0  0
   43.7240   33.9480   40.2980 N   0  0  0  0  0  0  0  0  0  0  0  0
   45.0000   33.7020   39.9950 C   0  0  0  0  0  0  0  0  0  0  0  0
   45.4010   33.5700   38.7280 N   0  0  0  0  0  0  0  0  0  0  0  0
   44.8600   33.5750   36.7340 H   0  0  0  0  0  0  0  0  0  0  0  0
   45.6030   33.6350   40.8930 H   0  0  0  0  0  0  0  0  0  0  0  0
   42.2760   34.0510   36.8950 N   0  0  0  0  0  0  0  0  0  0  0  0
   41.7170   34.9280   36.7720 H   0  0  0  0  0  0  0  0  0  0  0  0
   42.2490   33.2170   36.2480 H   0  0  0  0  0  0  0  0  0  0  0  0
   37.1210   25.9910   41.0210 S   0  0  0  0  0  0  0  0  0  0  0  0
   38.5420   23.7400   41.2510 C   0  0  2  0  0  3  0  0  0  0  0  0
   38.6770   25.1680   40.7110 C   0  0  1  0  0  3  0  0  0  0  0  0
   38.9720   25.0260   39.2370 C   0  0  0  0  0  3  0  0  0  0  0  0
   38.2890   25.6240   38.6090 H   0  0  0  0  0  0  0  0  0  0  0  0
   39.0250   23.7190   38.8120 O   0  0  0  0  0  0  0  0  0  0  0  0
   37.8900   22.9800   39.0320 C   0  0  0  0  0  3  0  0  0  0  0  0
   38.1730   21.9060   38.8350 H   0  0  0  0  0  0  0  0  0  0  0  0
   37.4510   23.0370   40.4700 C   0  0  2  0  0  3  0  0  0  0  0  0
   38.1720   23.8100   42.5760 O   0  0  0  0  0  0  0  0  0  0  0  0
   37.2130   24.0180   42.6340 H   0  0  0  0  0  0  0  0  0  0  0  0
   36.2270   23.6910   40.6110 O   0  0  0  0  0  0  0  0  0  0  0  0
   35.4650   23.0950   40.4570 H   0  0  0  0  0  0  0  0  0  0  0  0
  1 13  1  0  0  0  0
  1  6  1  0  0  0  0
  2  3  1  0  0  0  0
  2  1  2  0  0  0  0
  3  4  2  0  0  0  0
  4 36  1  0  0  0  0
  4  5  1  0  0  0  0
  5  9  1  0  0  0  0
  6  5  2  0  0  0  0
  7  2  1  0  0  0  0
  8  3  1  0  0  0  0
  9 10  1  0  0  0  0
  9 11  1  0  0  0  0
  9 12  1  0  0  0  0
 13 14  1  0  0  0  0
 13 15  1  0  0  0  0
 16 22  1  0  0  0  0
 16 13  1  0  0  0  0
 17 16  1  0  0  0  0
 18 16  1  0  0  0  0
 19 20  2  0  0  0  0
 20 21  1  0  0  0  0
 20 24  1  0  0  0  0
 22 21  1  0  0  0  0
 23 22  2  0  0  0  0
 23 19  1  0  0  0  0
 25 26  2  0  0  0  0
 25 30  1  0  0  0  0
 26 27  1  0  0  0  0
 27 19  1  0  0  0  0
 27 28  2  0  0  0  0
 29 28  1  0  0  0  0
 29 32  1  0  0  0  0
 30 29  2  0  0  0  0
 31 25  1  0  0  0  0
 33 26  1  0  0  0  0
 34 33  1  0  0  0  0
 35 33  1  0  0  0  0
 37 45  1  1  0  0  0
 38 36  1  6  0  0  0
 38 37  1  0  0  0  0
 39 38  1  0  0  0  0
 40 39  1  0  0  0  0
 41 42  1  0  0  0  0
 41 39  1  0  0  0  0
 42 44  1  0  0  0  0
 43 42  1  0  0  0  0
 44 47  1  6  0  0  0
 44 37  1  0  0  0  0
 45 46  1  0  0  0  0
 48 47  1  0  0  0  0
M  END
>  <minimizedAffinity>
-7.27381754

$$$$

 OpenBabel03242522213D

 48 51  0  0  1  0  0  0  0  0999 V2000
   37.9920   29.3670   42.8230 C   0  0  0  0  0  0  0  0  0  0  0  0
   39.2800   29.8160   42.8410 C   0  0  0  0  0  0  0  0  0  0  0  0
   39.8700   30.6510   41.9210 C   0  0  0  0  0  0  0  0  0  0  0  0
   39.0630   31.0530   40.9030 C   0  0  0  0  0  0  0  0  0  0  0  0
   37.7670   30.6160   40.8620 C   0  0  0  0  0  0  0  0  0  0  0  0
   37.2160   29.7980   41.7790 N   0  0  0  0  0  0  0  0  0  0  0  0
   39.8580   29.4460   43.6910 H   0  0  0  0  0  0  0  0  0  0  0  0
   40.8930   30.9410   42.0330 H   0  0  0  0  0  0  0  0  0  0  0  0
   36.9530   31.1070   39.7090 C   0  0  0  0  0  0  0  0  0  0  0  0
   37.5190   30.6000   38.5190 F   0  0  0  0  0  0  0  0  0  0  0  0
   36.8050   32.4670   39.6750 F   0  0  0  0  0  0  0  0  0  0  0  0
   35.6830   30.5590   39.7780 F   0  0  0  0  0  0  0  0  0  0  0  0
   37.2870   28.4930   43.7400 C   0  0  0  0  0  0  0  0  0  0  0  0
   38.0150   28.1490   44.5070 H   0  0  0  0  0  0  0  0  0  0  0  0
   36.5200   29.0770   44.3240 H   0  0  0  0  0  0  0  0  0  0  0  0
   36.6130   27.3060   43.1620 C   0  0  0  0  0  0  0  0  0  0  0  0
   35.9330   26.8410   43.9030 H   0  0  0  0  0  0  0  0  0  0  0  0
   36.0030   27.6060   42.2770 H   0  0  0  0  0  0  0  0  0  0  0  0
   39.5560   25.3230   42.1110 C   0  0  0  0  0  0  0  0  0  0  0  0
   38.9240   24.2100   41.6730 C   0  0  0  0  0  0  0  0  0  0  0  0
   37.1610   24.6470   41.9780 S   0  0  0  0  0  0  0  0  0  0  0  0
   37.6110   26.3070   42.6650 C   0  0  0  0  0  0  0  0  0  0  0  0
   38.7380   26.2230   42.5540 N   0  0  0  0  0  0  0  0  0  0  0  0
   39.3410   23.2530   41.2320 H   0  0  0  0  0  0  0  0  0  0  0  0
   43.1170   26.0610   43.0710 C   0  0  0  0  0  0  0  0  0  0  0  0
   41.7250   25.9280   43.1860 C   0  0  0  0  0  0  0  0  0  0  0  0
   41.0220   25.4950   42.0890 C   0  0  0  0  0  0  0  0  0  0  0  0
   41.7510   25.2190   40.9340 N   0  0  0  0  0  0  0  0  0  0  0  0
   43.0760   25.3660   40.8850 C   0  0  0  0  0  0  0  0  0  0  0  0
   43.7680   25.7860   41.9470 N   0  0  0  0  0  0  0  0  0  0  0  0
   43.7080   26.4020   43.9180 H   0  0  0  0  0  0  0  0  0  0  0  0
   43.4570   25.1030   39.9060 H   0  0  0  0  0  0  0  0  0  0  0  0
   41.1300   26.2500   44.4320 N   0  0  0  0  0  0  0  0  0  0  0  0
   40.5560   25.5230   44.9220 H   0  0  0  0  0  0  0  0  0  0  0  0
   41.3110   27.2250   44.7940 H   0  0  0  0  0  0  0  0  0  0  0  0
   39.7170   32.1510   39.6270 S   0  0  0  0  0  0  0  0  0  0  0  0
   41.0190   32.1600   37.2930 C   0  0  2  0  0  3  0  0  0  0  0  0
   40.8370   31.2830   38.5370 C   0  0  1  0  0  3  0  0  0  0  0  0
   42.2150   31.1220   39.1340 C   0  0  0  0  0  3  0  0  0  0  0  0
   42.2450   31.3820   40.2070 H   0  0  0  0  0  0  0  0  0  0  0  0
   43.1960   31.7830   38.4330 O   0  0  0  0  0  0  0  0  0  0  0  0
   43.0130   33.1350   38.2910 C   0  0  0  0  0  3  0  0  0  0  0  0
   43.7670   33.4750   37.5250 H   0  0  0  0  0  0  0  0  0  0  0  0
   41.6610   33.4640   37.7190 C   0  0  2  0  0  3  0  0  0  0  0  0
   39.7750   32.4240   36.7630 O   0  0  0  0  0  0  0  0  0  0  0  0
   39.3350   33.1200   37.2990 H   0  0  0  0  0  0  0  0  0  0  0  0
   40.8620   34.1440   38.6380 O   0  0  0  0  0  0  0  0  0  0  0  0
   41.0360   35.1080   38.6430 H   0  0  0  0  0  0  0  0  0  0  0  0
  1  2  1  0  0  0  0
  1 13  1  0  0  0  0
  2  7  1  0  0  0  0
  3  8  1  0  0  0  0
  3  2  2  0  0  0  0
  4  3  1  0  0  0  0
  5  4  2  0  0  0  0
  5  6  1  0  0  0  0
  6  1  2  0  0  0  0
  9 12  1  0  0  0  0
  9  5  1  0  0  0  0
 10  9  1  0  0  0  0
 11  9  1  0  0  0  0
 13 15  1  0  0  0  0
 13 14  1  0  0  0  0
 16 13  1  0  0  0  0
 16 17  1  0  0  0  0
 18 16  1  0  0  0  0
 19 23  1  0  0  0  0
 20 21  1  0  0  0  0
 20 19  2  0  0  0  0
 21 22  1  0  0  0  0
 22 16  1  0  0  0  0
 23 22  2  0  0  0  0
 24 20  1  0  0  0  0
 25 26  1  0  0  0  0
 25 31  1  0  0  0  0
 26 33  1  0  0  0  0
 27 19  1  0  0  0  0
 27 26  2  0  0  0  0
 28 27  1  0  0  0  0
 29 28  2  0  0  0  0
 29 30  1  0  0  0  0
 30 25  2  0  0  0  0
 32 29  1  0  0  0  0
 33 35  1  0  0  0  0
 33 34  1  0  0  0  0
 36  4  1  0  0  0  0
 37 45  1  1  0  0  0
 37 44  1  0  0  0  0
 37 38  1  0  0  0  0
 38 39  1  0  0  0  0
 38 36  1  1  0  0  0
 39 40  1  0  0  0  0
 41 39  1  0  0  0  0
 42 41  1  0  0  0  0
 43 42  1  0  0  0  0
 44 42  1  0  0  0  0
 44 47  1  1  0  0  0
 45 46  1  0  0  0  0
 47 48  1  0  0  0  0
M  END
>  <minimizedAffinity>
-7.0071249

$$$$

 OpenBabel03242522213D

 48 51  0  0  1  0  0  0  0  0999 V2000
   37.3340   30.6410   40.4110 C   0  0  0  0  0  0  0  0  0  0  0  0
   37.1520   29.7970   39.3570 C   0  0  0  0  0  0  0  0  0  0  0  0
   37.0280   28.4270   39.4150 C   0  0  0  0  0  0  0  0  0  0  0  0
   37.0960   27.8930   40.6630 C   0  0  0  0  0  0  0  0  0  0  0  0
   37.2790   28.7200   41.7380 C   0  0  0  0  0  0  0  0  0  0  0  0
   37.3960   30.0590   41.6500 N   0  0  0  0  0  0  0  0  0  0  0  0
   37.1080   30.3070   38.3920 H   0  0  0  0  0  0  0  0  0  0  0  0
   36.8890   27.8590   38.5200 H   0  0  0  0  0  0  0  0  0  0  0  0
   37.3420   28.0480   43.0710 C   0  0  0  0  0  0  0  0  0  0  0  0
   38.5140   27.2610   43.1150 F   0  0  0  0  0  0  0  0  0  0  0  0
   36.2220   27.3270   43.3820 F   0  0  0  0  0  0  0  0  0  0  0  0
   37.5010   29.0050   44.0600 F   0  0  0  0  0  0  0  0  0  0  0  0
   37.4740   32.0840   40.4470 C   0  0  0  0  0  0  0  0  0  0  0  0
   36.4750   32.5160   40.6800 H   0  0  0  0  0  0  0  0  0  0  0  0
   38.1220   32.3920   41.3160 H   0  0  0  0  0  0  0  0  0  0  0  0
   38.0010   32.7450   39.2290 C   0  0  0  0  0  0  0  0  0  0  0  0
   38.2640   31.9940   38.4580 H   0  0  0  0  0  0  0  0  0  0  0  0
   37.2270   33.4250   38.7980 H   0  0  0  0  0  0  0  0  0  0  0  0
   41.2920   34.3750   39.6880 C   0  0  0  0  0  0  0  0  0  0  0  0
   40.8980   35.4740   40.3710 C   0  0  0  0  0  0  0  0  0  0  0  0
   39.0790   35.2050   40.4790 S   0  0  0  0  0  0  0  0  0  0  0  0
   39.1830   33.6050   39.5500 C   0  0  0  0  0  0  0  0  0  0  0  0
   40.3060   33.5930   39.3830 N   0  0  0  0  0  0  0  0  0  0  0  0
   41.5020   36.3410   40.7800 H   0  0  0  0  0  0  0  0  0  0  0  0
   44.4540   33.6700   37.7760 C   0  0  0  0  0  0  0  0  0  0  0  0
   43.0980   33.9340   38.0230 C   0  0  0  0  0  0  0  0  0  0  0  0
   42.6960   34.0940   39.3260 C   0  0  0  0  0  0  0  0  0  0  0  0
   43.6730   33.9800   40.3130 N   0  0  0  0  0  0  0  0  0  0  0  0
   44.9490   33.7270   40.0150 C   0  0  0  0  0  0  0  0  0  0  0  0
   45.3500   33.5710   38.7510 N   0  0  0  0  0  0  0  0  0  0  0  0
   44.8100   33.5380   36.7570 H   0  0  0  0  0  0  0  0  0  0  0  0
   45.5510   33.6770   40.9140 H   0  0  0  0  0  0  0  0  0  0  0  0
   42.2270   34.0200   36.9080 N   0  0  0  0  0  0  0  0  0  0  0  0
   41.6680   34.8950   36.7680 H   0  0  0  0  0  0  0  0  0  0  0  0
   42.1980   33.1740   36.2770 H   0  0  0  0  0  0  0  0  0  0  0  0
   36.9490   26.1060   40.8780 S   0  0  0  0  0  0  0  0  0  0  0  0
   38.9370   24.5900   39.9340 C   0  0  2  0  0  3  0  0  0  0  0  0
   37.6210   25.2270   39.4740 C   0  0  1  0  0  3  0  0  0  0  0  0
   36.7400   24.0820   39.0330 C   0  0  0  0  0  3  0  0  0  0  0  0
   35.7460   24.1030   39.5130 H   0  0  0  0  0  0  0  0  0  0  0  0
   37.3340   22.8500   39.1700 O   0  0  0  0  0  0  0  0  0  0  0  0
   37.7440   22.5290   40.4400 C   0  0  0  0  0  3  0  0  0  0  0  0
   38.3910   21.6110   40.3370 H   0  0  0  0  0  0  0  0  0  0  0  0
   38.6260   23.5950   41.0330 C   0  0  2  0  0  3  0  0  0  0  0  0
   39.7440   25.5830   40.4440 O   0  0  0  0  0  0  0  0  0  0  0  0
   39.4380   25.8180   41.3480 H   0  0  0  0  0  0  0  0  0  0  0  0
   38.0200   24.2180   42.1230 O   0  0  0  0  0  0  0  0  0  0  0  0
   38.1490   23.7220   42.9580 H   0  0  0  0  0  0  0  0  0  0  0  0
  1 13  1  0  0  0  0
  1  6  1  0  0  0  0
  2  3  1  0  0  0  0
  2  1  2  0  0  0  0
  3  4  2  0  0  0  0
  4 36  1  0  0  0  0
  4  5  1  0  0  0  0
  5  9  1  0  0  0  0
  6  5  2  0  0  0  0
  7  2  1  0  0  0  0
  8  3  1  0  0  0  0
  9 10  1  0  0  0  0
  9 11  1  0  0  0  0
  9 12  1  0  0  0  0
 13 14  1  0  0  0  0
 13 15  1  0  0  0  0
 16 22  1  0  0  0  0
 16 13  1  0  0  0  0
 17 16  1  0  0  0  0
 18 16  1  0  0  0  0
 19 20  2  0  0  0  0
 20 21  1  0  0  0  0
 20 24  1  0  0  0  0
 22 21  1  0  0  0  0
 23 22  2  0  0  0  0
 23 19  1  0  0  0  0
 25 26  2  0  0  0  0
 25 30  1  0  0  0  0
 26 27  1  0  0  0  0
 27 19  1  0  0  0  0
 27 28  2  0  0  0  0
 29 28  1  0  0  0  0
 29 32  1  0  0  0  0
 30 29  2  0  0  0  0
 31 25  1  0  0  0  0
 33 26  1  0  0  0  0
 34 33  1  0  0  0  0
 35 33  1  0  0  0  0
 37 45  1  1  0  0  0
 37 44  1  0  0  0  0
 38 37  1  0  0  0  0
 38 36  1  1  0  0  0
 39 41  1  0  0  0  0
 39 38  1  0  0  0  0
 39 40  1  0  0  0  0
 41 42  1  0  0  0  0
 42 44  1  0  0  0  0
 43 42  1  0  0  0  0
 44 47  1  1  0  0  0
 45 46  1  0  0  0  0
 47 48  1  0  0  0  0
M  END
>  <minimizedAffinity>
-6.89609432

$$$$

 OpenBabel03242522213D

 48 51  0  0  1  0  0  0  0  0999 V2000
   38.2230   29.2710   42.8280 C   0  0  0  0  0  0  0  0  0  0  0  0
   39.5480   29.5700   42.7100 C   0  0  0  0  0  0  0  0  0  0  0  0
   40.1190   30.4140   41.7850 C   0  0  0  0  0  0  0  0  0  0  0  0
   39.2490   30.9930   40.9160 C   0  0  0  0  0  0  0  0  0  0  0  0
   37.9130   30.7090   41.0150 C   0  0  0  0  0  0  0  0  0  0  0  0
   37.3830   29.8780   41.9320 N   0  0  0  0  0  0  0  0  0  0  0  0
   40.1770   29.0630   43.4460 H   0  0  0  0  0  0  0  0  0  0  0  0
   41.1760   30.5760   41.7820 H   0  0  0  0  0  0  0  0  0  0  0  0
   37.0300   31.3890   40.0200 C   0  0  0  0  0  0  0  0  0  0  0  0
   37.4010   30.9560   38.7280 F   0  0  0  0  0  0  0  0  0  0  0  0
   37.0240   32.7530   40.1270 F   0  0  0  0  0  0  0  0  0  0  0  0
   35.7250   30.9590   40.1940 F   0  0  0  0  0  0  0  0  0  0  0  0
   37.5350   28.4010   43.7630 C   0  0  0  0  0  0  0  0  0  0  0  0
   38.3050   27.8970   44.3870 H   0  0  0  0  0  0  0  0  0  0  0  0
   36.9360   29.0120   44.4950 H   0  0  0  0  0  0  0  0  0  0  0  0
   36.6390   27.3670   43.1920 C   0  0  0  0  0  0  0  0  0  0  0  0
   35.9320   26.9920   43.9590 H   0  0  0  0  0  0  0  0  0  0  0  0
   36.0400   27.8000   42.3550 H   0  0  0  0  0  0  0  0  0  0  0  0
   37.9950   24.4400   41.3770 C   0  0  0  0  0  0  0  0  0  0  0  0
   39.2420   24.4170   41.9010 C   0  0  0  0  0  0  0  0  0  0  0  0
   39.1810   25.8520   43.0540 S   0  0  0  0  0  0  0  0  0  0  0  0
   37.4250   26.2360   42.6050 C   0  0  0  0  0  0  0  0  0  0  0  0
   37.2690   25.4010   41.8510 N   0  0  0  0  0  0  0  0  0  0  0  0
   40.1100   23.7160   41.7030 H   0  0  0  0  0  0  0  0  0  0  0  0
   36.2650   22.8510   38.4400 C   0  0  0  0  0  0  0  0  0  0  0  0
   36.6720   23.8400   39.3480 C   0  0  0  0  0  0  0  0  0  0  0  0
   37.5110   23.4730   40.3720 C   0  0  0  0  0  0  0  0  0  0  0  0
   37.8960   22.1350   40.4320 N   0  0  0  0  0  0  0  0  0  0  0  0
   37.4740   21.2400   39.5370 C   0  0  0  0  0  0  0  0  0  0  0  0
   36.6590   21.5880   38.5380 N   0  0  0  0  0  0  0  0  0  0  0  0
   35.6010   23.1040   37.6160 H   0  0  0  0  0  0  0  0  0  0  0  0
   37.8810   20.2600   39.7510 H   0  0  0  0  0  0  0  0  0  0  0  0
   36.1910   25.1590   39.1520 N   0  0  0  0  0  0  0  0  0  0  0  0
   36.8820   25.9390   39.0420 H   0  0  0  0  0  0  0  0  0  0  0  0
   35.1420   25.2700   39.1270 H   0  0  0  0  0  0  0  0  0  0  0  0
   39.8700   32.1230   39.6510 S   0  0  0  0  0  0  0  0  0  0  0  0
   41.0630   32.1610   37.2600 C   0  0  2  0  0  3  0  0  0  0  0  0
   40.9600   31.2820   38.5120 C   0  0  1  0  0  3  0  0  0  0  0  0
   42.3680   31.1560   39.0450 C   0  0  0  0  0  3  0  0  0  0  0  0
   42.4400   31.4170   40.1150 H   0  0  0  0  0  0  0  0  0  0  0  0
   43.2990   31.8400   38.3000 O   0  0  0  0  0  0  0  0  0  0  0  0
   43.0760   33.1870   38.1670 C   0  0  0  0  0  3  0  0  0  0  0  0
   43.7860   33.5440   37.3670 H   0  0  0  0  0  0  0  0  0  0  0  0
   41.6910   33.4810   37.6570 C   0  0  2  0  0  3  0  0  0  0  0  0
   39.7910   32.3940   36.7880 O   0  0  0  0  0  0  0  0  0  0  0  0
   39.3590   33.0800   37.3430 H   0  0  0  0  0  0  0  0  0  0  0  0
   40.9190   34.1420   38.6120 O   0  0  0  0  0  0  0  0  0  0  0  0
   41.0690   35.1100   38.6090 H   0  0  0  0  0  0  0  0  0  0  0  0
  1 13  1  0  0  0  0
  2  1  1  0  0  0  0
  2  7  1  0  0  0  0
  3  2  2  0  0  0  0
  4  5  2  0  0  0  0
  4  3  1  0  0  0  0
  5  6  1  0  0  0  0
  6  1  2  0  0  0  0
  8  3  1  0  0  0  0
  9 11  1  0  0  0  0
  9 12  1  0  0  0  0
  9  5  1  0  0  0  0
 10  9  1  0  0  0  0
 13 14  1  0  0  0  0
 13 15  1  0  0  0  0
 16 13  1  0  0  0  0
 16 17  1  0  0  0  0
 18 16  1  0  0  0  0
 19 23  1  0  0  0  0
 19 20  2  0  0  0  0
 20 21  1  0  0  0  0
 22 21  1  0  0  0  0
 22 16  1  0  0  0  0
 23 22  2  0  0  0  0
 24 20  1  0  0  0  0
 25 30  2  0  0  0  0
 25 26  1  0  0  0  0
 26 27  2  0  0  0  0
 27 28  1  0  0  0  0
 27 19  1  0  0  0  0
 29 32  1  0  0  0  0
 29 28  2  0  0  0  0
 30 29  1  0  0  0  0
 31 25  1  0  0  0  0
 33 26  1  0  0  0  0
 34 33  1  0  0  0  0
 35 33  1  0  0  0  0
 36  4  1  0  0  0  0
 37 45  1  1  0  0  0
 37 44  1  0  0  0  0
 37 38  1  0  0  0  0
 38 39  1  0  0  0  0
 38 36  1  1  0  0  0
 39 40  1  0  0  0  0
 41 39  1  0  0  0  0
 42 41  1  0  0  0  0
 43 42  1  0  0  0  0
 44 42  1  0  0  0  0
 44 47  1  1  0  0  0
 45 46  1  0  0  0  0
 48 47  1  0  0  0  0
M  END
>  <minimizedAffinity>
-6.8283453

$$$$

 OpenBabel03242522213D

 48 51  0  0  1  0  0  0  0  0999 V2000
   38.4780   29.4380   42.7210 C   0  0  0  0  0  0  0  0  0  0  0  0
   39.8250   29.5660   42.5580 C   0  0  0  0  0  0  0  0  0  0  0  0
   40.4680   30.4070   41.6790 C   0  0  0  0  0  0  0  0  0  0  0  0
   39.6510   31.1750   40.9100 C   0  0  0  0  0  0  0  0  0  0  0  0
   38.2950   31.0650   41.0550 C   0  0  0  0  0  0  0  0  0  0  0  0
   37.6930   30.2320   41.9260 N   0  0  0  0  0  0  0  0  0  0  0  0
   40.4080   28.9140   43.2140 H   0  0  0  0  0  0  0  0  0  0  0  0
   41.5360   30.4260   41.6330 H   0  0  0  0  0  0  0  0  0  0  0  0
   37.4740   31.9460   40.1710 C   0  0  0  0  0  0  0  0  0  0  0  0
   37.6350   31.5090   38.8370 F   0  0  0  0  0  0  0  0  0  0  0  0
   37.7410   33.2790   40.3160 F   0  0  0  0  0  0  0  0  0  0  0  0
   36.1320   31.7630   40.4600 F   0  0  0  0  0  0  0  0  0  0  0  0
   37.7150   28.5870   43.6140 C   0  0  0  0  0  0  0  0  0  0  0  0
   37.9140   28.9230   44.6550 H   0  0  0  0  0  0  0  0  0  0  0  0
   36.6110   28.7600   43.4690 H   0  0  0  0  0  0  0  0  0  0  0  0
   37.9610   27.1270   43.5340 C   0  0  0  0  0  0  0  0  0  0  0  0
   39.0380   26.9020   43.6710 H   0  0  0  0  0  0  0  0  0  0  0  0
   37.3940   26.6000   44.3380 H   0  0  0  0  0  0  0  0  0  0  0  0
   36.6680   26.4160   40.1400 C   0  0  0  0  0  0  0  0  0  0  0  0
   36.6900   25.0640   40.1760 C   0  0  0  0  0  0  0  0  0  0  0  0
   37.3400   24.7550   41.8720 S   0  0  0  0  0  0  0  0  0  0  0  0
   37.4690   26.5670   42.2360 C   0  0  0  0  0  0  0  0  0  0  0  0
   37.0860   26.9550   41.2400 N   0  0  0  0  0  0  0  0  0  0  0  0
   36.3940   24.3030   39.3920 H   0  0  0  0  0  0  0  0  0  0  0  0
   35.1320   29.0450   37.9320 C   0  0  0  0  0  0  0  0  0  0  0  0
   35.5180   28.3720   39.1010 C   0  0  0  0  0  0  0  0  0  0  0  0
   36.2170   27.1970   38.9710 C   0  0  0  0  0  0  0  0  0  0  0  0
   36.4900   26.7580   37.6770 N   0  0  0  0  0  0  0  0  0  0  0  0
   36.0950   27.4430   36.6020 C   0  0  0  0  0  0  0  0  0  0  0  0
   35.4160   28.5870   36.7180 N   0  0  0  0  0  0  0  0  0  0  0  0
   34.5770   29.9780   37.9950 H   0  0  0  0  0  0  0  0  0  0  0  0
   36.4010   26.9420   35.6920 H   0  0  0  0  0  0  0  0  0  0  0  0
   35.1620   28.9490   40.3460 N   0  0  0  0  0  0  0  0  0  0  0  0
   35.9190   29.1680   41.0370 H   0  0  0  0  0  0  0  0  0  0  0  0
   34.1330   29.1260   40.4970 H   0  0  0  0  0  0  0  0  0  0  0  0
   40.3700   32.3220   39.7140 S   0  0  0  0  0  0  0  0  0  0  0  0
   41.3580   32.2650   37.2320 C   0  0  2  0  0  3  0  0  0  0  0  0
   41.4080   31.4640   38.5380 C   0  0  1  0  0  3  0  0  0  0  0  0
   42.8590   31.4430   38.9550 C   0  0  0  0  0  3  0  0  0  0  0  0
   43.0050   31.7760   39.9970 H   0  0  0  0  0  0  0  0  0  0  0  0
   43.6870   32.1230   38.0930 O   0  0  0  0  0  0  0  0  0  0  0  0
   43.3800   33.4460   37.9000 C   0  0  0  0  0  3  0  0  0  0  0  0
   44.0000   33.7860   37.0210 H   0  0  0  0  0  0  0  0  0  0  0  0
   41.9430   33.6380   37.4930 C   0  0  2  0  0  3  0  0  0  0  0  0
   40.0400   32.4030   36.8570 O   0  0  0  0  0  0  0  0  0  0  0  0
   39.6180   33.1020   37.4050 H   0  0  0  0  0  0  0  0  0  0  0  0
   41.2170   34.3200   38.4690 O   0  0  0  0  0  0  0  0  0  0  0  0
   41.3130   35.2920   38.3960 H   0  0  0  0  0  0  0  0  0  0  0  0
  1 13  1  0  0  0  0
  2  1  1  0  0  0  0
  2  7  1  0  0  0  0
  3  2  2  0  0  0  0
  4  5  2  0  0  0  0
  4  3  1  0  0  0  0
  5  6  1  0  0  0  0
  6  1  2  0  0  0  0
  8  3  1  0  0  0  0
  9 11  1  0  0  0  0
  9 12  1  0  0  0  0
  9  5  1  0  0  0  0
 10  9  1  0  0  0  0
 13 14  1  0  0  0  0
 15 13  1  0  0  0  0
 16 13  1  0  0  0  0
 16 17  1  0  0  0  0
 16 18  1  0  0  0  0
 19 20  2  0  0  0  0
 19 23  1  0  0  0  0
 20 21  1  0  0  0  0
 21 22  1  0  0  0  0
 22 16  1  0  0  0  0
 23 22  2  0  0  0  0
 24 20  1  0  0  0  0
 25 31  1  0  0  0  0
 25 26  1  0  0  0  0
 26 33  1  0  0  0  0
 27 26  2  0  0  0  0
 27 19  1  0  0  0  0
 28 27  1  0  0  0  0
 29 30  1  0  0  0  0
 29 28  2  0  0  0  0
 30 25  2  0  0  0  0
 32 29  1  0  0  0  0
 33 35  1  0  0  0  0
 33 34  1  0  0  0  0
 36  4  1  0  0  0  0
 37 45  1  1  0  0  0
 37 44  1  0  0  0  0
 37 38  1  0  0  0  0
 38 39  1  0  0  0  0
 38 36  1  1  0  0  0
 39 40  1  0  0  0  0
 41 39  1  0  0  0  0
 42 41  1  0  0  0  0
 43 42  1  0  0  0  0
 44 42  1  0  0  0  0
 44 47  1  1  0  0  0
 45 46  1  0  0  0  0
 48 47  1  0  0  0  0
M  END
>  <minimizedAffinity>
-6.63755226

$$$$

 OpenBabel03242522213D

 48 51  0  0  1  0  0  0  0  0999 V2000
   36.0590   28.8950   38.1040 C   0  0  0  0  0  0  0  0  0  0  0  0
   36.9430   29.3480   37.1700 C   0  0  0  0  0  0  0  0  0  0  0  0
   37.8350   30.3850   37.3190 C   0  0  0  0  0  0  0  0  0  0  0  0
   37.8090   30.9990   38.5320 C   0  0  0  0  0  0  0  0  0  0  0  0
   36.9310   30.5630   39.4870 C   0  0  0  0  0  0  0  0  0  0  0  0
   36.0690   29.5430   39.3110 N   0  0  0  0  0  0  0  0  0  0  0  0
   36.8980   28.8000   36.2250 H   0  0  0  0  0  0  0  0  0  0  0  0
   38.4850   30.6580   36.5160 H   0  0  0  0  0  0  0  0  0  0  0  0
   36.9710   31.2950   40.7880 C   0  0  0  0  0  0  0  0  0  0  0  0
   35.8060   30.9700   41.5170 F   0  0  0  0  0  0  0  0  0  0  0  0
   37.1410   32.6460   40.6590 F   0  0  0  0  0  0  0  0  0  0  0  0
   38.0270   30.8210   41.5490 F   0  0  0  0  0  0  0  0  0  0  0  0
   35.0900   27.8180   38.0380 C   0  0  0  0  0  0  0  0  0  0  0  0
   34.5920   27.7490   39.0310 H   0  0  0  0  0  0  0  0  0  0  0  0
   34.2590   28.0850   37.3260 H   0  0  0  0  0  0  0  0  0  0  0  0
   35.5940   26.4740   37.6670 C   0  0  0  0  0  0  0  0  0  0  0  0
   34.8130   25.8940   37.1370 H   0  0  0  0  0  0  0  0  0  0  0  0
   36.4740   26.5700   36.9870 H   0  0  0  0  0  0  0  0  0  0  0  0
   37.0830   25.2370   40.8230 C   0  0  0  0  0  0  0  0  0  0  0  0
   36.6490   23.9570   40.7820 C   0  0  0  0  0  0  0  0  0  0  0  0
   35.7020   23.9420   39.2020 S   0  0  0  0  0  0  0  0  0  0  0  0
   36.0740   25.7270   38.8720 C   0  0  0  0  0  0  0  0  0  0  0  0
   36.6950   25.9320   39.8010 N   0  0  0  0  0  0  0  0  0  0  0  0
   36.8100   23.1030   41.5080 H   0  0  0  0  0  0  0  0  0  0  0  0
   38.4970   27.4530   43.5120 C   0  0  0  0  0  0  0  0  0  0  0  0
   37.6560   27.0130   42.4790 C   0  0  0  0  0  0  0  0  0  0  0  0
   37.9100   25.7880   41.9140 C   0  0  0  0  0  0  0  0  0  0  0  0
   38.9940   25.0680   42.4140 N   0  0  0  0  0  0  0  0  0  0  0  0
   39.7580   25.5410   43.4010 C   0  0  0  0  0  0  0  0  0  0  0  0
   39.5190   26.7310   43.9560 N   0  0  0  0  0  0  0  0  0  0  0  0
   38.3270   28.4190   43.9840 H   0  0  0  0  0  0  0  0  0  0  0  0
   40.5450   24.8390   43.6480 H   0  0  0  0  0  0  0  0  0  0  0  0
   36.5940   27.8640   42.0820 N   0  0  0  0  0  0  0  0  0  0  0  0
   35.6130   27.4980   42.1140 H   0  0  0  0  0  0  0  0  0  0  0  0
   36.8690   28.8350   41.7740 H   0  0  0  0  0  0  0  0  0  0  0  0
   38.9300   32.3770   38.8580 S   0  0  0  0  0  0  0  0  0  0  0  0
   41.5090   32.9300   38.4260 C   0  0  2  0  0  3  0  0  0  0  0  0
   40.6220   31.8170   38.9950 C   0  0  1  0  0  3  0  0  0  0  0  0
   41.0570   31.6360   40.4310 C   0  0  0  0  0  3  0  0  0  0  0  0
   40.2100   31.6830   41.1380 H   0  0  0  0  0  0  0  0  0  0  0  0
   42.0700   32.4860   40.8070 O   0  0  0  0  0  0  0  0  0  0  0  0
   41.8000   33.8250   40.6710 C   0  0  0  0  0  3  0  0  0  0  0  0
   42.7840   34.3570   40.8070 H   0  0  0  0  0  0  0  0  0  0  0  0
   41.3300   34.1660   39.2830 C   0  0  2  0  0  3  0  0  0  0  0  0
   41.0880   33.2070   37.1440 O   0  0  0  0  0  0  0  0  0  0  0  0
   40.2720   33.7550   37.1820 H   0  0  0  0  0  0  0  0  0  0  0  0
   40.0040   34.5980   39.2780 O   0  0  0  0  0  0  0  0  0  0  0  0
   39.9200   35.5510   39.4840 H   0  0  0  0  0  0  0  0  0  0  0  0
  1  6  1  0  0  0  0
  2  3  1  0  0  0  0
  2  1  2  0  0  0  0
  3  4  2  0  0  0  0
  4 36  1  0  0  0  0
  4  5  1  0  0  0  0
  5  9  1  0  0  0  0
  6  5  2  0  0  0  0
  7  2  1  0  0  0  0
  8  3  1  0  0  0  0
  9 10  1  0  0  0  0
  9 12  1  0  0  0  0
 11  9  1  0  0  0  0
 13  1  1  0  0  0  0
 13 14  1  0  0  0  0
 15 13  1  0  0  0  0
 16 13  1  0  0  0  0
 16 22  1  0  0  0  0
 17 16  1  0  0  0  0
 18 16  1  0  0  0  0
 19 27  1  0  0  0  0
 20 19  2  0  0  0  0
 20 24  1  0  0  0  0
 21 20  1  0  0  0  0
 22 21  1  0  0  0  0
 22 23  2  0  0  0  0
 23 19  1  0  0  0  0
 25 30  1  0  0  0  0
 25 31  1  0  0  0  0
 26 25  2  0  0  0  0
 27 28  2  0  0  0  0
 27 26  1  0  0  0  0
 28 29  1  0  0  0  0
 29 32  1  0  0  0  0
 29 30  2  0  0  0  0
 33 34  1  0  0  0  0
 33 26  1  0  0  0  0
 35 33  1  0  0  0  0
 37 45  1  6  0  0  0
 37 38  1  0  0  0  0
 37 44  1  0  0  0  0
 38 36  1  1  0  0  0
 38 39  1  0  0  0  0
 39 41  1  0  0  0  0
 39 40  1  0  0  0  0
 42 43  1  0  0  0  0
 42 41  1  0  0  0  0
 44 47  1  1  0  0  0
 44 42  1  0  0  0  0
 45 46  1  0  0  0  0
 47 48  1  0  0  0  0
M  END
>  <minimizedAffinity>
-6.59180403

$$$$

 OpenBabel03242522213D

 48 51  0  0  1  0  0  0  0  0999 V2000
   37.1370   26.2470   41.9060 C   0  0  0  0  0  0  0  0  0  0  0  0
   37.5560   27.2330   42.7490 C   0  0  0  0  0  0  0  0  0  0  0  0
   37.6180   28.5790   42.4690 C   0  0  0  0  0  0  0  0  0  0  0  0
   37.2140   28.9290   41.2190 C   0  0  0  0  0  0  0  0  0  0  0  0
   36.7880   27.9570   40.3540 C   0  0  0  0  0  0  0  0  0  0  0  0
   36.7380   26.6450   40.6570 N   0  0  0  0  0  0  0  0  0  0  0  0
   37.8620   26.8660   43.7310 H   0  0  0  0  0  0  0  0  0  0  0  0
   37.9650   29.2690   43.2080 H   0  0  0  0  0  0  0  0  0  0  0  0
   36.3630   28.4310   39.0030 C   0  0  0  0  0  0  0  0  0  0  0  0
   37.5220   28.6910   38.2390 F   0  0  0  0  0  0  0  0  0  0  0  0
   35.5120   29.5020   39.0340 F   0  0  0  0  0  0  0  0  0  0  0  0
   35.7070   27.4060   38.3420 F   0  0  0  0  0  0  0  0  0  0  0  0
   37.0370   24.8140   42.1100 C   0  0  0  0  0  0  0  0  0  0  0  0
   36.7710   24.6420   43.1760 H   0  0  0  0  0  0  0  0  0  0  0  0
   36.1650   24.3980   41.5320 H   0  0  0  0  0  0  0  0  0  0  0  0
   38.2310   23.9980   41.7840 C   0  0  0  0  0  0  0  0  0  0  0  0
   38.4630   23.2950   42.6080 H   0  0  0  0  0  0  0  0  0  0  0  0
   38.0430   23.3990   40.8610 H   0  0  0  0  0  0  0  0  0  0  0  0
   41.2190   26.1820   41.7470 C   0  0  0  0  0  0  0  0  0  0  0  0
   41.3740   26.3180   40.4100 C   0  0  0  0  0  0  0  0  0  0  0  0
   39.9720   25.3050   39.7750 S   0  0  0  0  0  0  0  0  0  0  0  0
   39.4130   24.8670   41.4870 C   0  0  0  0  0  0  0  0  0  0  0  0
   40.2080   25.4380   42.0630 N   0  0  0  0  0  0  0  0  0  0  0  0
   42.1470   26.8930   39.8140 H   0  0  0  0  0  0  0  0  0  0  0  0
   43.7790   26.7710   44.4390 C   0  0  0  0  0  0  0  0  0  0  0  0
   42.9730   26.0830   43.5190 C   0  0  0  0  0  0  0  0  0  0  0  0
   42.1080   26.8140   42.7430 C   0  0  0  0  0  0  0  0  0  0  0  0
   42.0950   28.1950   42.9300 N   0  0  0  0  0  0  0  0  0  0  0  0
   42.8870   28.7920   43.8220 C   0  0  0  0  0  0  0  0  0  0  0  0
   43.7320   28.0900   44.5810 N   0  0  0  0  0  0  0  0  0  0  0  0
   44.4770   26.2260   45.0710 H   0  0  0  0  0  0  0  0  0  0  0  0
   42.7320   29.8640   43.8180 H   0  0  0  0  0  0  0  0  0  0  0  0
   43.1030   24.6730   43.4500 N   0  0  0  0  0  0  0  0  0  0  0  0
   43.3460   24.2320   42.5310 H   0  0  0  0  0  0  0  0  0  0  0  0
   42.9440   24.1490   44.3510 H   0  0  0  0  0  0  0  0  0  0  0  0
   37.2470   30.6660   40.7240 S   0  0  0  0  0  0  0  0  0  0  0  0
   38.5970   32.2180   39.0180 C   0  0  2  0  0  3  0  0  0  0  0  0
   38.8430   31.1190   40.0580 C   0  0  1  0  0  3  0  0  0  0  0  0
   39.7510   31.7300   41.0980 C   0  0  0  0  0  3  0  0  0  0  0  0
   39.3610   31.6100   42.1240 H   0  0  0  0  0  0  0  0  0  0  0  0
   40.0790   33.0390   40.8380 O   0  0  0  0  0  0  0  0  0  0  0  0
   39.0190   33.9020   40.7240 C   0  0  0  0  0  3  0  0  0  0  0  0
   39.4390   34.8600   40.3010 H   0  0  0  0  0  0  0  0  0  0  0  0
   38.0020   33.4180   39.7260 C   0  0  2  0  0  3  0  0  0  0  0  0
   37.6900   31.7470   38.0940 O   0  0  0  0  0  0  0  0  0  0  0  0
   36.7860   31.7840   38.4790 H   0  0  0  0  0  0  0  0  0  0  0  0
   36.7910   33.0950   40.3370 O   0  0  0  0  0  0  0  0  0  0  0  0
   36.2160   33.8780   40.4640 H   0  0  0  0  0  0  0  0  0  0  0  0
  1 13  1  0  0  0  0
  1  2  1  0  0  0  0
  2  7  1  0  0  0  0
  3  2  2  0  0  0  0
  3  8  1  0  0  0  0
  4  3  1  0  0  0  0
  5  6  1  0  0  0  0
  5  4  2  0  0  0  0
  6  1  2  0  0  0  0
  9 11  1  0  0  0  0
  9  5  1  0  0  0  0
 10  9  1  0  0  0  0
 12  9  1  0  0  0  0
 13 14  1  0  0  0  0
 15 13  1  0  0  0  0
 16 13  1  0  0  0  0
 16 17  1  0  0  0  0
 18 16  1  0  0  0  0
 19 23  1  0  0  0  0
 19 27  1  0  0  0  0
 20 19  2  0  0  0  0
 21 20  1  0  0  0  0
 21 22  1  0  0  0  0
 22 16  1  0  0  0  0
 22 23  2  0  0  0  0
 24 20  1  0  0  0  0
 25 30  1  0  0  0  0
 25 31  1  0  0  0  0
 26 25  2  0  0  0  0
 27 28  2  0  0  0  0
 27 26  1  0  0  0  0
 28 29  1  0  0  0  0
 29 30  2  0  0  0  0
 32 29  1  0  0  0  0
 33 26  1  0  0  0  0
 33 35  1  0  0  0  0
 34 33  1  0  0  0  0
 36  4  1  0  0  0  0
 37 45  1  6  0  0  0
 37 44  1  0  0  0  0
 37 38  1  0  0  0  0
 38 36  1  1  0  0  0
 38 39  1  0  0  0  0
 39 40  1  0  0  0  0
 41 39  1  0  0  0  0
 42 41  1  0  0  0  0
 43 42  1  0  0  0  0
 44 47  1  1  0  0  0
 44 42  1  0  0  0  0
 45 46  1  0  0  0  0
 47 48  1  0  0  0  0
M  END
>  <minimizedAffinity>
-6.54675436

$$$$

 OpenBabel03242522213D

 48 51  0  0  1  0  0  0  0  0999 V2000
   40.7310   33.1030   40.1180 C   0  0  0  0  0  0  0  0  0  0  0  0
   41.0700   32.2480   41.1240 C   0  0  0  0  0  0  0  0  0  0  0  0
   40.2640   31.2850   41.6880 C   0  0  0  0  0  0  0  0  0  0  0  0
   39.0120   31.2010   41.1660 C   0  0  0  0  0  0  0  0  0  0  0  0
   38.6480   32.0480   40.1550 C   0  0  0  0  0  0  0  0  0  0  0  0
   39.4590   32.9820   39.6220 N   0  0  0  0  0  0  0  0  0  0  0  0
   42.0920   32.3830   41.4850 H   0  0  0  0  0  0  0  0  0  0  0  0
   40.6340   30.6670   42.4770 H   0  0  0  0  0  0  0  0  0  0  0  0
   37.2540   31.8860   39.6420 C   0  0  0  0  0  0  0  0  0  0  0  0
   36.3640   31.9960   40.7340 F   0  0  0  0  0  0  0  0  0  0  0  0
   37.0570   30.7360   38.9280 F   0  0  0  0  0  0  0  0  0  0  0  0
   36.9460   32.9450   38.8050 F   0  0  0  0  0  0  0  0  0  0  0  0
   41.5050   34.1420   39.4650 C   0  0  0  0  0  0  0  0  0  0  0  0
   40.9470   35.0980   39.5720 H   0  0  0  0  0  0  0  0  0  0  0  0
   42.4700   34.3150   40.0200 H   0  0  0  0  0  0  0  0  0  0  0  0
   41.8320   33.9440   38.0320 C   0  0  0  0  0  0  0  0  0  0  0  0
   40.9380   33.6140   37.4670 H   0  0  0  0  0  0  0  0  0  0  0  0
   42.1870   34.9040   37.5860 H   0  0  0  0  0  0  0  0  0  0  0  0
   44.0850   31.0430   37.5720 C   0  0  0  0  0  0  0  0  0  0  0  0
   45.2760   31.6820   37.6180 C   0  0  0  0  0  0  0  0  0  0  0  0
   44.7440   33.4280   37.8680 S   0  0  0  0  0  0  0  0  0  0  0  0
   42.9510   32.9640   37.8650 C   0  0  0  0  0  0  0  0  0  0  0  0
   43.0780   31.8460   37.7120 N   0  0  0  0  0  0  0  0  0  0  0  0
   46.3310   31.2780   37.5300 H   0  0  0  0  0  0  0  0  0  0  0  0
   43.5260   27.6370   36.0780 C   0  0  0  0  0  0  0  0  0  0  0  0
   43.6390   29.0330   36.1620 C   0  0  0  0  0  0  0  0  0  0  0  0
   43.9440   29.5860   37.3820 C   0  0  0  0  0  0  0  0  0  0  0  0
   44.1170   28.7110   38.4520 N   0  0  0  0  0  0  0  0  0  0  0  0
   43.9960   27.3900   38.3090 C   0  0  0  0  0  0  0  0  0  0  0  0
   43.7010   26.8430   37.1280 N   0  0  0  0  0  0  0  0  0  0  0  0
   43.2860   27.1620   35.1290 H   0  0  0  0  0  0  0  0  0  0  0  0
   44.1670   26.8840   39.2510 H   0  0  0  0  0  0  0  0  0  0  0  0
   43.4320   29.7860   34.9790 N   0  0  0  0  0  0  0  0  0  0  0  0
   44.1910   30.4280   34.6480 H   0  0  0  0  0  0  0  0  0  0  0  0
   42.5030   29.6470   34.4990 H   0  0  0  0  0  0  0  0  0  0  0  0
   37.8540   29.9770   41.8180 S   0  0  0  0  0  0  0  0  0  0  0  0
   37.6520   28.0880   43.6970 C   0  0  2  0  0  3  0  0  0  0  0  0
   38.7010   28.7370   42.7880 C   0  0  1  0  0  3  0  0  0  0  0  0
   39.2590   27.6200   41.9380 C   0  0  0  0  0  3  0  0  0  0  0  0
   39.2300   27.8540   40.8590 H   0  0  0  0  0  0  0  0  0  0  0  0
   38.6900   26.3960   42.2000 O   0  0  0  0  0  0  0  0  0  0  0  0
   37.3290   26.3320   42.0430 C   0  0  0  0  0  3  0  0  0  0  0  0
   37.0070   25.3520   42.4990 H   0  0  0  0  0  0  0  0  0  0  0  0
   36.6200   27.4060   42.8220 C   0  0  2  0  0  3  0  0  0  0  0  0
   37.0360   29.0810   44.4270 O   0  0  0  0  0  0  0  0  0  0  0  0
   36.3840   29.5450   43.8570 H   0  0  0  0  0  0  0  0  0  0  0  0
   35.9860   28.3210   41.9820 O   0  0  0  0  0  0  0  0  0  0  0  0
   35.1000   28.0160   41.6980 H   0  0  0  0  0  0  0  0  0  0  0  0
  1  2  1  0  0  0  0
  2  7  1  0  0  0  0
  2  3  2  0  0  0  0
  3  8  1  0  0  0  0
  4  3  1  0  0  0  0
  4 36  1  0  0  0  0
  5  4  2  0  0  0  0
  6  1  2  0  0  0  0
  6  5  1  0  0  0  0
  9  5  1  0  0  0  0
  9 10  1  0  0  0  0
 11  9  1  0  0  0  0
 12  9  1  0  0  0  0
 13 14  1  0  0  0  0
 13 15  1  0  0  0  0
 13  1  1  0  0  0  0
 16 13  1  0  0  0  0
 17 16  1  0  0  0  0
 18 16  1  0  0  0  0
 19 20  2  0  0  0  0
 19 23  1  0  0  0  0
 20 21  1  0  0  0  0
 22 21  1  0  0  0  0
 22 16  1  0  0  0  0
 23 22  2  0  0  0  0
 24 20  1  0  0  0  0
 25 26  2  0  0  0  0
 25 30  1  0  0  0  0
 26 27  1  0  0  0  0
 27 19  1  0  0  0  0
 27 28  2  0  0  0  0
 29 28  1  0  0  0  0
 29 32  1  0  0  0  0
 30 29  2  0  0  0  0
 31 25  1  0  0  0  0
 33 26  1  0  0  0  0
 34 33  1  0  0  0  0
 35 33  1  0  0  0  0
 37 45  1  6  0  0  0
 38 36  1  6  0  0  0
 38 37  1  0  0  0  0
 39 41  1  0  0  0  0
 39 38  1  0  0  0  0
 40 39  1  0  0  0  0
 42 41  1  0  0  0  0
 42 43  1  0  0  0  0
 42 44  1  0  0  0  0
 44 47  1  6  0  0  0
 44 37  1  0  0  0  0
 46 45  1  0  0  0  0
 48 47  1  0  0  0  0
M  END
>  <minimizedAffinity>
-6.46697617

$$$$

 OpenBabel03242522213D

 48 51  0  0  1  0  0  0  0  0999 V2000
   38.3260   31.7160   38.9340 C   0  0  0  0  0  0  0  0  0  0  0  0
   39.1920   31.1810   38.0280 C   0  0  0  0  0  0  0  0  0  0  0  0
   40.4520   31.6450   37.7260 C   0  0  0  0  0  0  0  0  0  0  0  0
   40.8440   32.7480   38.4170 C   0  0  0  0  0  0  0  0  0  0  0  0
   39.9910   33.3040   39.3330 C   0  0  0  0  0  0  0  0  0  0  0  0
   38.7620   32.8260   39.6080 N   0  0  0  0  0  0  0  0  0  0  0  0
   38.8000   30.2980   37.5180 H   0  0  0  0  0  0  0  0  0  0  0  0
   41.0500   31.1460   36.9930 H   0  0  0  0  0  0  0  0  0  0  0  0
   40.5030   34.5120   40.0460 C   0  0  0  0  0  0  0  0  0  0  0  0
   41.6720   34.1490   40.7520 F   0  0  0  0  0  0  0  0  0  0  0  0
   39.5760   35.1140   40.8530 F   0  0  0  0  0  0  0  0  0  0  0  0
   40.9110   35.4550   39.1170 F   0  0  0  0  0  0  0  0  0  0  0  0
   36.9900   31.3000   39.3170 C   0  0  0  0  0  0  0  0  0  0  0  0
   36.2730   32.0440   38.9050 H   0  0  0  0  0  0  0  0  0  0  0  0
   36.7200   30.3350   38.8040 H   0  0  0  0  0  0  0  0  0  0  0  0
   36.7200   31.1370   40.7660 C   0  0  0  0  0  0  0  0  0  0  0  0
   36.9440   32.0720   41.3150 H   0  0  0  0  0  0  0  0  0  0  0  0
   35.6430   30.8910   40.9280 H   0  0  0  0  0  0  0  0  0  0  0  0
   38.1910   27.9090   41.8250 C   0  0  0  0  0  0  0  0  0  0  0  0
   39.2100   28.3730   42.5850 C   0  0  0  0  0  0  0  0  0  0  0  0
   38.9800   30.1940   42.4330 S   0  0  0  0  0  0  0  0  0  0  0  0
   37.5020   29.9940   41.3340 C   0  0  0  0  0  0  0  0  0  0  0  0
   37.4790   28.8590   41.3070 N   0  0  0  0  0  0  0  0  0  0  0  0
   40.0040   27.8150   43.1690 H   0  0  0  0  0  0  0  0  0  0  0  0
   38.2390   24.1550   42.0390 C   0  0  0  0  0  0  0  0  0  0  0  0
   38.5650   25.4910   42.3140 C   0  0  0  0  0  0  0  0  0  0  0  0
   37.9170   26.4750   41.6080 C   0  0  0  0  0  0  0  0  0  0  0  0
   36.9780   26.0670   40.6630 N   0  0  0  0  0  0  0  0  0  0  0  0
   36.7110   24.7780   40.4460 C   0  0  0  0  0  0  0  0  0  0  0  0
   37.3350   23.8150   41.1280 N   0  0  0  0  0  0  0  0  0  0  0  0
   38.7310   23.3480   42.5780 H   0  0  0  0  0  0  0  0  0  0  0  0
   35.9560   24.6660   39.6780 H   0  0  0  0  0  0  0  0  0  0  0  0
   39.5450   25.7430   43.3070 N   0  0  0  0  0  0  0  0  0  0  0  0
   39.2950   26.3480   44.1240 H   0  0  0  0  0  0  0  0  0  0  0  0
   40.4860   25.2900   43.1530 H   0  0  0  0  0  0  0  0  0  0  0  0
   42.4770   33.4580   38.1140 S   0  0  0  0  0  0  0  0  0  0  0  0
   45.0690   32.8950   37.7950 C   0  0  2  0  0  3  0  0  0  0  0  0
   43.7280   32.1860   38.0170 C   0  0  1  0  0  3  0  0  0  0  0  0
   43.8750   31.4200   39.3100 C   0  0  0  0  0  3  0  0  0  0  0  0
   43.0600   31.6320   40.0230 H   0  0  0  0  0  0  0  0  0  0  0  0
   45.1070   31.5740   39.9010 O   0  0  0  0  0  0  0  0  0  0  0  0
   45.4640   32.8650   40.1970 C   0  0  0  0  0  3  0  0  0  0  0  0
   46.5600   32.8340   40.4610 H   0  0  0  0  0  0  0  0  0  0  0  0
   45.3500   33.7690   38.9990 C   0  0  2  0  0  3  0  0  0  0  0  0
   44.9580   33.6920   36.6770 O   0  0  0  0  0  0  0  0  0  0  0  0
   44.4630   34.5090   36.9100 H   0  0  0  0  0  0  0  0  0  0  0  0
   44.3540   34.7300   39.1700 O   0  0  0  0  0  0  0  0  0  0  0  0
   44.6710   35.5130   39.6660 H   0  0  0  0  0  0  0  0  0  0  0  0
  1 13  1  0  0  0  0
  1  6  1  0  0  0  0
  2  1  2  0  0  0  0
  3  2  1  0  0  0  0
  3  4  2  0  0  0  0
  4  5  1  0  0  0  0
  5  6  2  0  0  0  0
  5  9  1  0  0  0  0
  7  2  1  0  0  0  0
  8  3  1  0  0  0  0
  9 10  1  0  0  0  0
  9 11  1  0  0  0  0
 12  9  1  0  0  0  0
 13 16  1  0  0  0  0
 14 13  1  0  0  0  0
 15 13  1  0  0  0  0
 16 18  1  0  0  0  0
 16 17  1  0  0  0  0
 16 22  1  0  0  0  0
 19 20  2  0  0  0  0
 20 24  1  0  0  0  0
 21 20  1  0  0  0  0
 22 21  1  0  0  0  0
 23 22  2  0  0  0  0
 23 19  1  0  0  0  0
 25 26  1  0  0  0  0
 25 31  1  0  0  0  0
 26 33  1  0  0  0  0
 27 19  1  0  0  0  0
 27 26  2  0  0  0  0
 28 27  1  0  0  0  0
 29 28  2  0  0  0  0
 29 30  1  0  0  0  0
 30 25  2  0  0  0  0
 32 29  1  0  0  0  0
 33 34  1  0  0  0  0
 35 33  1  0  0  0  0
 36  4  1  0  0  0  0
 37 45  1  6  0  0  0
 37 38  1  0  0  0  0
 37 44  1  0  0  0  0
 38 36  1  1  0  0  0
 38 39  1  0  0  0  0
 39 41  1  0  0  0  0
 39 40  1  0  0  0  0
 41 42  1  0  0  0  0
 42 43  1  0  0  0  0
 44 47  1  1  0  0  0
 44 42  1  0  0  0  0
 45 46  1  0  0  0  0
 47 48  1  0  0  0  0
M  END
>  <minimizedAffinity>
-6.43185949

$$$$
