
 OpenBabel03242517583D

 46 48  0  0  1  0  0  0  0  0999 V2000
   37.4170   30.5560   38.8220 C   0  0  0  0  0  0  0  0  0  0  0  0
   36.5730   29.6400   39.3500 C   0  0  0  0  0  0  0  0  0  0  0  0
   35.8620   28.8210   38.4930 C   0  0  0  0  0  0  0  0  0  0  0  0
   35.9760   28.8970   37.1240 C   0  0  0  0  0  0  0  0  0  0  0  0
   36.8420   29.8350   36.5930 C   0  0  0  0  0  0  0  0  0  0  0  0
   37.5550   30.6560   37.4520 C   0  0  0  0  0  0  0  0  0  0  0  0
   35.1680   28.0640   38.8320 H   0  0  0  0  0  0  0  0  0  0  0  0
   35.4330   28.2700   36.4520 H   0  0  0  0  0  0  0  0  0  0  0  0
   36.9820   29.9500   35.5100 H   0  0  0  0  0  0  0  0  0  0  0  0
   38.2440   31.4030   37.0300 H   0  0  0  0  0  0  0  0  0  0  0  0
   38.1930   31.6330   39.9300 S   0  0  0  0  0  0  0  0  0  0  0  0
   39.0040   30.9730   40.9710 O   0  0  0  0  0  0  0  0  0  0  0  0
   37.0500   32.3390   40.6970 O   0  0  0  0  0  0  0  0  0  0  0  0
   39.3660   34.0810   40.2130 C   0  0  2  0  0  3  0  0  0  0  0  0
   39.0400   32.9900   39.2100 C   0  0  1  0  0  3  0  0  0  0  0  0
   40.3800   32.4360   38.7500 C   0  0  0  0  0  3  0  0  0  0  0  0
   40.9300   31.9440   39.5720 H   0  0  0  0  0  0  0  0  0  0  0  0
   41.0990   33.4110   38.1040 O   0  0  0  0  0  0  0  0  0  0  0  0
   41.5750   34.3200   39.0140 C   0  0  0  0  0  3  0  0  0  0  0  0
   42.6590   34.1410   39.2260 H   0  0  0  0  0  0  0  0  0  0  0  0
   40.8520   34.3490   40.3290 C   0  0  2  0  0  3  0  0  0  0  0  0
   38.9450   33.6380   41.4690 O   0  0  0  0  0  0  0  0  0  0  0  0
   38.5000   34.3330   42.0030 H   0  0  0  0  0  0  0  0  0  0  0  0
   41.4470   33.5300   41.2890 O   0  0  0  0  0  0  0  0  0  0  0  0
   41.3350   33.9240   42.2120 H   0  0  0  0  0  0  0  0  0  0  0  0
   36.3160   29.3990   40.6930 O   0  0  0  0  0  0  0  0  0  0  0  0
   37.7490   28.1370   43.6590 C   0  0  0  0  0  0  0  0  0  0  0  0
   38.3680   26.9510   43.2120 C   0  0  0  0  0  0  0  0  0  0  0  0
   38.2830   26.6030   41.8900 C   0  0  0  0  0  0  0  0  0  0  0  0
   37.5950   27.4420   41.1020 N   0  0  0  0  0  0  0  0  0  0  0  0
   37.0140   28.5550   41.5190 C   0  0  0  0  0  0  0  0  0  0  0  0
   37.0910   28.9030   42.7990 N   0  0  0  0  0  0  0  0  0  0  0  0
   37.8130   28.4200   44.7030 H   0  0  0  0  0  0  0  0  0  0  0  0
   38.8820   26.3930   43.9740 H   0  0  0  0  0  0  0  0  0  0  0  0
   38.9070   25.4060   41.3190 C   0  0  0  0  0  0  0  0  0  0  0  0
   38.8640   25.4560   40.2110 H   0  0  0  0  0  0  0  0  0  0  0  0
   40.0020   25.3850   41.5580 H   0  0  0  0  0  0  0  0  0  0  0  0
   38.2920   24.1340   41.8140 C   0  0  0  0  0  0  0  0  0  0  0  0
   39.0060   23.3700   42.0730 H   0  0  0  0  0  0  0  0  0  0  0  0
   37.8100   24.4180   42.8070 H   0  0  0  0  0  0  0  0  0  0  0  0
   37.1900   23.6460   40.9850 C   0  0  0  0  0  3  0  0  0  0  0  0
   36.2510   24.0720   40.1500 C   0  0  0  0  0  3  0  0  0  0  0  0
   35.1500   23.2410   39.5190 C   0  0  0  0  0  0  0  0  0  0  0  0
   35.3940   23.1200   38.4520 H   0  0  0  0  0  0  0  0  0  0  0  0
   34.1830   23.7600   39.6620 H   0  0  0  0  0  0  0  0  0  0  0  0
   35.1300   22.3040   40.0830 H   0  0  0  0  0  0  0  0  0  0  0  0
  1  2  1  0  0  0  0
  1 11  1  0  0  0  0
  2 26  1  0  0  0  0
  3  7  1  0  0  0  0
  3  2  2  0  0  0  0
  4  3  1  0  0  0  0
  5  4  2  0  0  0  0
  5  6  1  0  0  0  0
  6  1  2  0  0  0  0
  8  4  1  0  0  0  0
  9  5  1  0  0  0  0
 10  6  1  0  0  0  0
 11 13  2  0  0  0  0
 11 12  2  0  0  0  0
 14 21  1  0  0  0  0
 14 22  1  1  0  0  0
 15 11  1  1  0  0  0
 15 14  1  0  0  0  0
 16 15  1  0  0  0  0
 16 17  1  0  0  0  0
 18 16  1  0  0  0  0
 18 19  1  0  0  0  0
 19 20  1  0  0  0  0
 19 21  1  0  0  0  0
 21 24  1  1  0  0  0
 22 23  1  0  0  0  0
 24 25  1  0  0  0  0
 26 31  1  0  0  0  0
 27 33  1  0  0  0  0
 28 27  1  0  0  0  0
 28 34  1  0  0  0  0
 29 28  2  0  0  0  0
 30 31  2  0  0  0  0
 30 29  1  0  0  0  0
 31 32  1  0  0  0  0
 32 27  2  0  0  0  0
 35 37  1  0  0  0  0
 35 38  1  0  0  0  0
 35 29  1  0  0  0  0
 36 35  1  0  0  0  0
 38 39  1  0  0  0  0
 38 40  1  0  0  0  0
 41 38  1  0  0  0  0
 42 41  2  0  0  0  0
 43 45  1  0  0  0  0
 43 46  1  0  0  0  0
 43 42  1  0  0  0  0
 44 43  1  0  0  0  0
M  END
>  <minimizedAffinity>
-6.25188255

$$$$

 OpenBabel03242517583D

 46 48  0  0  1  0  0  0  0  0999 V2000
   36.5500   29.6660   38.5230 C   0  0  0  0  0  0  0  0  0  0  0  0
   35.8110   29.5240   39.6470 C   0  0  0  0  0  0  0  0  0  0  0  0
   34.4940   29.1200   39.5280 C   0  0  0  0  0  0  0  0  0  0  0  0
   33.9020   28.8560   38.3160 C   0  0  0  0  0  0  0  0  0  0  0  0
   34.6650   29.0030   37.1710 C   0  0  0  0  0  0  0  0  0  0  0  0
   35.9850   29.4080   37.2910 C   0  0  0  0  0  0  0  0  0  0  0  0
   33.8340   28.9820   40.3750 H   0  0  0  0  0  0  0  0  0  0  0  0
   32.8860   28.5440   38.2110 H   0  0  0  0  0  0  0  0  0  0  0  0
   34.2570   28.8090   36.1720 H   0  0  0  0  0  0  0  0  0  0  0  0
   36.5930   29.5250   36.3800 H   0  0  0  0  0  0  0  0  0  0  0  0
   38.1530   30.2850   38.7160 S   0  0  0  0  0  0  0  0  0  0  0  0
   38.8580   30.5870   37.4550 O   0  0  0  0  0  0  0  0  0  0  0  0
   38.9660   29.1420   39.3680 O   0  0  0  0  0  0  0  0  0  0  0  0
   39.7880   31.9500   40.1310 C   0  0  2  0  0  3  0  0  0  0  0  0
   38.3380   31.5760   39.8890 C   0  0  1  0  0  3  0  0  0  0  0  0
   37.6950   32.8000   39.2510 C   0  0  0  0  0  3  0  0  0  0  0  0
   38.1250   33.0240   38.2590 H   0  0  0  0  0  0  0  0  0  0  0  0
   37.7240   33.8590   40.1230 O   0  0  0  0  0  0  0  0  0  0  0  0
   39.0010   34.3480   40.2220 C   0  0  0  0  0  3  0  0  0  0  0  0
   39.1170   35.2840   39.6180 H   0  0  0  0  0  0  0  0  0  0  0  0
   40.0850   33.3980   39.8010 C   0  0  2  0  0  3  0  0  0  0  0  0
   40.5710   31.1790   39.2690 O   0  0  0  0  0  0  0  0  0  0  0  0
   41.3850   30.8220   39.6900 H   0  0  0  0  0  0  0  0  0  0  0  0
   40.4510   33.5550   38.4640 O   0  0  0  0  0  0  0  0  0  0  0  0
   41.4320   33.3560   38.3380 H   0  0  0  0  0  0  0  0  0  0  0  0
   36.2130   29.7340   40.9590 O   0  0  0  0  0  0  0  0  0  0  0  0
   38.1160   28.4560   43.6400 C   0  0  0  0  0  0  0  0  0  0  0  0
   37.9610   27.0640   43.4820 C   0  0  0  0  0  0  0  0  0  0  0  0
   37.2000   26.5840   42.4490 C   0  0  0  0  0  0  0  0  0  0  0  0
   36.6450   27.5050   41.6470 N   0  0  0  0  0  0  0  0  0  0  0  0
   36.7910   28.8110   41.7940 C   0  0  0  0  0  0  0  0  0  0  0  0
   37.5270   29.2880   42.7920 N   0  0  0  0  0  0  0  0  0  0  0  0
   38.7180   28.8440   44.4540 H   0  0  0  0  0  0  0  0  0  0  0  0
   38.4750   26.4640   44.2110 H   0  0  0  0  0  0  0  0  0  0  0  0
   36.9920   25.1570   42.1820 C   0  0  0  0  0  0  0  0  0  0  0  0
   37.3950   24.5580   43.0240 H   0  0  0  0  0  0  0  0  0  0  0  0
   35.8970   24.9200   42.1660 H   0  0  0  0  0  0  0  0  0  0  0  0
   37.5890   24.7140   40.8820 C   0  0  0  0  0  0  0  0  0  0  0  0
   38.5510   25.1480   40.6680 H   0  0  0  0  0  0  0  0  0  0  0  0
   37.8060   23.6050   41.0330 H   0  0  0  0  0  0  0  0  0  0  0  0
   36.6590   24.7670   39.7540 C   0  0  0  0  0  3  0  0  0  0  0  0
   36.3130   25.5350   38.7290 C   0  0  0  0  0  3  0  0  0  0  0  0
   35.1640   25.3040   37.7670 C   0  0  0  0  0  0  0  0  0  0  0  0
   35.5940   25.0010   36.7990 H   0  0  0  0  0  0  0  0  0  0  0  0
   34.5760   26.2370   37.6800 H   0  0  0  0  0  0  0  0  0  0  0  0
   34.5380   24.5400   38.2370 H   0  0  0  0  0  0  0  0  0  0  0  0
  1 11  1  0  0  0  0
  1  2  1  0  0  0  0
  2 26  1  0  0  0  0
  3  2  2  0  0  0  0
  3  7  1  0  0  0  0
  4  3  1  0  0  0  0
  5  6  1  0  0  0  0
  5  4  2  0  0  0  0
  6  1  2  0  0  0  0
  8  4  1  0  0  0  0
  9  5  1  0  0  0  0
 10  6  1  0  0  0  0
 11 13  2  0  0  0  0
 12 11  2  0  0  0  0
 14 22  1  6  0  0  0
 15 11  1  6  0  0  0
 15 14  1  0  0  0  0
 16 15  1  0  0  0  0
 16 18  1  0  0  0  0
 17 16  1  0  0  0  0
 18 19  1  0  0  0  0
 20 19  1  0  0  0  0
 21 24  1  6  0  0  0
 21 14  1  0  0  0  0
 21 19  1  0  0  0  0
 22 23  1  0  0  0  0
 25 24  1  0  0  0  0
 26 31  1  0  0  0  0
 27 33  1  0  0  0  0
 28 27  1  0  0  0  0
 28 34  1  0  0  0  0
 29 28  2  0  0  0  0
 30 31  2  0  0  0  0
 30 29  1  0  0  0  0
 31 32  1  0  0  0  0
 32 27  2  0  0  0  0
 35 29  1  0  0  0  0
 35 36  1  0  0  0  0
 37 35  1  0  0  0  0
 38 40  1  0  0  0  0
 38 35  1  0  0  0  0
 39 38  1  0  0  0  0
 41 38  1  0  0  0  0
 42 41  2  0  0  0  0
 43 46  1  0  0  0  0
 43 42  1  0  0  0  0
 44 43  1  0  0  0  0
 45 43  1  0  0  0  0
M  END
>  <minimizedAffinity>
-6.171134

$$$$

 OpenBabel03242517583D

 46 48  0  0  1  0  0  0  0  0999 V2000
   36.9860   29.6490   39.2020 C   0  0  0  0  0  0  0  0  0  0  0  0
   37.4290   28.6510   40.0010 C   0  0  0  0  0  0  0  0  0  0  0  0
   36.8760   27.3920   39.8590 C   0  0  0  0  0  0  0  0  0  0  0  0
   35.8930   27.1090   38.9400 C   0  0  0  0  0  0  0  0  0  0  0  0
   35.4460   28.1350   38.1270 C   0  0  0  0  0  0  0  0  0  0  0  0
   36.0010   29.3970   38.2690 C   0  0  0  0  0  0  0  0  0  0  0  0
   37.1730   26.5400   40.4570 H   0  0  0  0  0  0  0  0  0  0  0  0
   35.4580   26.1420   38.8210 H   0  0  0  0  0  0  0  0  0  0  0  0
   34.6650   27.9800   37.3710 H   0  0  0  0  0  0  0  0  0  0  0  0
   35.6460   30.2140   37.6220 H   0  0  0  0  0  0  0  0  0  0  0  0
   37.6250   31.2280   39.4980 S   0  0  0  0  0  0  0  0  0  0  0  0
   36.9990   31.9500   40.6230 O   0  0  0  0  0  0  0  0  0  0  0  0
   37.2780   32.0620   38.2410 O   0  0  0  0  0  0  0  0  0  0  0  0
   40.0330   30.8090   38.2860 C   0  0  2  0  0  3  0  0  0  0  0  0
   39.3740   31.3490   39.5410 C   0  0  1  0  0  3  0  0  0  0  0  0
   39.6790   32.8400   39.5610 C   0  0  0  0  0  3  0  0  0  0  0  0
   39.2090   33.3700   38.7130 H   0  0  0  0  0  0  0  0  0  0  0  0
   41.0320   33.0450   39.6650 O   0  0  0  0  0  0  0  0  0  0  0  0
   41.6430   32.7450   38.4750 C   0  0  0  0  0  3  0  0  0  0  0  0
   41.8910   33.6780   37.9080 H   0  0  0  0  0  0  0  0  0  0  0  0
   40.8590   31.8510   37.5600 C   0  0  2  0  0  3  0  0  0  0  0  0
   39.0180   30.4270   37.4080 O   0  0  0  0  0  0  0  0  0  0  0  0
   39.1920   29.5740   36.9510 H   0  0  0  0  0  0  0  0  0  0  0  0
   40.0900   32.5630   36.6390 O   0  0  0  0  0  0  0  0  0  0  0  0
   40.0190   32.0570   35.7680 H   0  0  0  0  0  0  0  0  0  0  0  0
   38.4080   28.7230   40.9830 O   0  0  0  0  0  0  0  0  0  0  0  0
   40.0020   27.1000   43.6790 C   0  0  0  0  0  0  0  0  0  0  0  0
   39.7010   25.7440   43.4330 C   0  0  0  0  0  0  0  0  0  0  0  0
   38.9510   25.4080   42.3380 C   0  0  0  0  0  0  0  0  0  0  0  0
   38.5490   26.4260   41.5630 N   0  0  0  0  0  0  0  0  0  0  0  0
   38.8310   27.6980   41.7920 C   0  0  0  0  0  0  0  0  0  0  0  0
   39.5580   28.0360   42.8510 N   0  0  0  0  0  0  0  0  0  0  0  0
   40.5960   27.3740   44.5430 H   0  0  0  0  0  0  0  0  0  0  0  0
   40.1030   25.0520   44.1520 H   0  0  0  0  0  0  0  0  0  0  0  0
   38.6000   24.0300   41.9790 C   0  0  0  0  0  0  0  0  0  0  0  0
   39.2900   23.3260   42.4870 H   0  0  0  0  0  0  0  0  0  0  0  0
   37.5860   23.7700   42.3790 H   0  0  0  0  0  0  0  0  0  0  0  0
   38.5980   23.7950   40.5000 C   0  0  0  0  0  0  0  0  0  0  0  0
   39.1400   24.5350   39.9350 H   0  0  0  0  0  0  0  0  0  0  0  0
   39.2010   22.8370   40.3640 H   0  0  0  0  0  0  0  0  0  0  0  0
   37.2780   23.4910   39.9500 C   0  0  0  0  0  3  0  0  0  0  0  0
   35.9850   23.6630   40.1960 C   0  0  0  0  0  3  0  0  0  0  0  0
   34.8250   23.0860   39.4090 C   0  0  0  0  0  0  0  0  0  0  0  0
   34.3560   23.9120   38.8520 H   0  0  0  0  0  0  0  0  0  0  0  0
   34.1150   22.6110   40.1120 H   0  0  0  0  0  0  0  0  0  0  0  0
   35.2590   22.3080   38.7740 H   0  0  0  0  0  0  0  0  0  0  0  0
  1 11  1  0  0  0  0
  1  2  1  0  0  0  0
  2 26  1  0  0  0  0
  3  2  2  0  0  0  0
  3  7  1  0  0  0  0
  4  3  1  0  0  0  0
  5  6  1  0  0  0  0
  5  4  2  0  0  0  0
  6  1  2  0  0  0  0
  8  4  1  0  0  0  0
  9  5  1  0  0  0  0
 10  6  1  0  0  0  0
 11 12  2  0  0  0  0
 13 11  2  0  0  0  0
 14 22  1  6  0  0  0
 14 15  1  0  0  0  0
 15 11  1  6  0  0  0
 15 16  1  0  0  0  0
 16 18  1  0  0  0  0
 17 16  1  0  0  0  0
 19 18  1  0  0  0  0
 20 19  1  0  0  0  0
 21 24  1  1  0  0  0
 21 14  1  0  0  0  0
 21 19  1  0  0  0  0
 23 22  1  0  0  0  0
 25 24  1  0  0  0  0
 26 31  1  0  0  0  0
 27 33  1  0  0  0  0
 28 27  1  0  0  0  0
 28 34  1  0  0  0  0
 29 28  2  0  0  0  0
 30 31  2  0  0  0  0
 30 29  1  0  0  0  0
 31 32  1  0  0  0  0
 32 27  2  0  0  0  0
 35 29  1  0  0  0  0
 35 37  1  0  0  0  0
 35 36  1  0  0  0  0
 38 35  1  0  0  0  0
 39 38  1  0  0  0  0
 40 38  1  0  0  0  0
 41 42  2  0  0  0  0
 41 38  1  0  0  0  0
 43 45  1  0  0  0  0
 43 42  1  0  0  0  0
 44 43  1  0  0  0  0
 46 43  1  0  0  0  0
M  END
>  <minimizedAffinity>
-5.93998718

$$$$

 OpenBabel03242517583D

 46 48  0  0  1  0  0  0  0  0999 V2000
   38.3880   31.0860   38.9120 C   0  0  0  0  0  0  0  0  0  0  0  0
   38.5800   29.8290   39.3740 C   0  0  0  0  0  0  0  0  0  0  0  0
   37.9720   28.7790   38.7120 C   0  0  0  0  0  0  0  0  0  0  0  0
   37.1790   28.9570   37.6020 C   0  0  0  0  0  0  0  0  0  0  0  0
   36.9890   30.2460   37.1360 C   0  0  0  0  0  0  0  0  0  0  0  0
   37.5990   31.2990   37.8010 C   0  0  0  0  0  0  0  0  0  0  0  0
   38.0730   27.7450   39.0140 H   0  0  0  0  0  0  0  0  0  0  0  0
   36.7040   28.1550   37.0820 H   0  0  0  0  0  0  0  0  0  0  0  0
   36.3700   30.4600   36.2560 H   0  0  0  0  0  0  0  0  0  0  0  0
   37.4480   32.3240   37.4300 H   0  0  0  0  0  0  0  0  0  0  0  0
   39.0730   32.3730   39.8430 S   0  0  0  0  0  0  0  0  0  0  0  0
   39.0790   32.1490   41.3020 O   0  0  0  0  0  0  0  0  0  0  0  0
   38.1410   33.5890   39.6260 O   0  0  0  0  0  0  0  0  0  0  0  0
   41.1280   34.1500   40.1080 C   0  0  2  0  0  3  0  0  0  0  0  0
   40.6130   32.9910   39.2750 C   0  0  1  0  0  3  0  0  0  0  0  0
   41.6080   31.8580   39.4820 C   0  0  0  0  0  3  0  0  0  0  0  0
   41.6210   31.5040   40.5280 H   0  0  0  0  0  0  0  0  0  0  0  0
   42.8420   32.2170   39.0010 O   0  0  0  0  0  0  0  0  0  0  0  0
   43.4230   33.1320   39.8400 C   0  0  0  0  0  3  0  0  0  0  0  0
   44.1960   32.6450   40.4870 H   0  0  0  0  0  0  0  0  0  0  0  0
   42.4740   33.8670   40.7420 C   0  0  2  0  0  3  0  0  0  0  0  0
   40.2290   34.3450   41.1580 O   0  0  0  0  0  0  0  0  0  0  0  0
   40.0350   35.2910   41.3410 H   0  0  0  0  0  0  0  0  0  0  0  0
   42.3350   33.2600   41.9900 O   0  0  0  0  0  0  0  0  0  0  0  0
   42.1770   33.9520   42.7070 H   0  0  0  0  0  0  0  0  0  0  0  0
   39.3400   29.4340   40.4670 O   0  0  0  0  0  0  0  0  0  0  0  0
   37.4510   28.5810   43.3220 C   0  0  0  0  0  0  0  0  0  0  0  0
   37.9900   27.3270   43.6740 C   0  0  0  0  0  0  0  0  0  0  0  0
   39.0000   26.7910   42.9200 C   0  0  0  0  0  0  0  0  0  0  0  0
   39.4080   27.5240   41.8740 N   0  0  0  0  0  0  0  0  0  0  0  0
   38.9040   28.7020   41.5420 C   0  0  0  0  0  0  0  0  0  0  0  0
   37.9240   29.2310   42.2670 N   0  0  0  0  0  0  0  0  0  0  0  0
   36.6520   29.0120   43.9140 H   0  0  0  0  0  0  0  0  0  0  0  0
   37.5510   26.8720   44.5440 H   0  0  0  0  0  0  0  0  0  0  0  0
   39.6450   25.5060   43.2110 C   0  0  0  0  0  0  0  0  0  0  0  0
   40.6590   25.6840   43.6230 H   0  0  0  0  0  0  0  0  0  0  0  0
   39.0970   24.9730   44.0300 H   0  0  0  0  0  0  0  0  0  0  0  0
   39.7080   24.6020   42.0190 C   0  0  0  0  0  0  0  0  0  0  0  0
   40.5220   24.8160   41.3460 H   0  0  0  0  0  0  0  0  0  0  0  0
   39.9620   23.5790   42.4520 H   0  0  0  0  0  0  0  0  0  0  0  0
   38.4240   24.4200   41.3440 C   0  0  0  0  0  3  0  0  0  0  0  0
   37.2050   23.9340   41.5430 C   0  0  0  0  0  3  0  0  0  0  0  0
   36.0940   23.8180   40.5180 C   0  0  0  0  0  0  0  0  0  0  0  0
   35.3320   24.5730   40.7650 H   0  0  0  0  0  0  0  0  0  0  0  0
   35.6800   22.7920   40.5520 H   0  0  0  0  0  0  0  0  0  0  0  0
   36.5740   23.9670   39.5470 H   0  0  0  0  0  0  0  0  0  0  0  0
  1  2  1  0  0  0  0
  1 11  1  0  0  0  0
  2 26  1  0  0  0  0
  3  7  1  0  0  0  0
  3  2  2  0  0  0  0
  4  3  1  0  0  0  0
  5  4  2  0  0  0  0
  5  6  1  0  0  0  0
  6  1  2  0  0  0  0
  8  4  1  0  0  0  0
  9  5  1  0  0  0  0
 10  6  1  0  0  0  0
 11 12  2  0  0  0  0
 13 11  2  0  0  0  0
 14 21  1  0  0  0  0
 14 22  1  1  0  0  0
 15 16  1  0  0  0  0
 15 11  1  1  0  0  0
 15 14  1  0  0  0  0
 16 17  1  0  0  0  0
 18 16  1  0  0  0  0
 18 19  1  0  0  0  0
 19 20  1  0  0  0  0
 19 21  1  0  0  0  0
 21 24  1  1  0  0  0
 22 23  1  0  0  0  0
 24 25  1  0  0  0  0
 26 31  1  0  0  0  0
 27 28  1  0  0  0  0
 27 33  1  0  0  0  0
 28 34  1  0  0  0  0
 29 35  1  0  0  0  0
 29 28  2  0  0  0  0
 30 29  1  0  0  0  0
 31 30  2  0  0  0  0
 31 32  1  0  0  0  0
 32 27  2  0  0  0  0
 35 36  1  0  0  0  0
 35 37  1  0  0  0  0
 38 40  1  0  0  0  0
 38 35  1  0  0  0  0
 39 38  1  0  0  0  0
 41 42  2  0  0  0  0
 41 38  1  0  0  0  0
 43 45  1  0  0  0  0
 43 44  1  0  0  0  0
 43 42  1  0  0  0  0
 46 43  1  0  0  0  0
M  END
>  <minimizedAffinity>
-5.93057489

$$$$

 OpenBabel03242517583D

 46 48  0  0  1  0  0  0  0  0999 V2000
   36.5400   30.0710   38.4490 C   0  0  0  0  0  0  0  0  0  0  0  0
   35.9000   29.3410   39.3910 C   0  0  0  0  0  0  0  0  0  0  0  0
   35.0640   28.3180   38.9830 C   0  0  0  0  0  0  0  0  0  0  0  0
   34.8550   28.0100   37.6600 C   0  0  0  0  0  0  0  0  0  0  0  0
   35.5130   28.7610   36.7030 C   0  0  0  0  0  0  0  0  0  0  0  0
   36.3510   29.7870   37.1120 C   0  0  0  0  0  0  0  0  0  0  0  0
   34.5160   27.6870   39.6710 H   0  0  0  0  0  0  0  0  0  0  0  0
   34.2120   27.2230   37.3320 H   0  0  0  0  0  0  0  0  0  0  0  0
   35.3920   28.5700   35.6290 H   0  0  0  0  0  0  0  0  0  0  0  0
   36.8760   30.3850   36.3500 H   0  0  0  0  0  0  0  0  0  0  0  0
   37.4810   31.4110   39.0050 S   0  0  0  0  0  0  0  0  0  0  0  0
   37.0560   31.9720   40.3020 O   0  0  0  0  0  0  0  0  0  0  0  0
   37.2420   32.5440   37.9780 O   0  0  0  0  0  0  0  0  0  0  0  0
   39.9750   32.5150   39.0910 C   0  0  2  0  0  3  0  0  0  0  0  0
   39.2210   31.2090   38.9230 C   0  0  1  0  0  3  0  0  0  0  0  0
   39.5900   30.3600   40.1320 C   0  0  0  0  0  3  0  0  0  0  0  0
   39.2290   30.8060   41.0760 H   0  0  0  0  0  0  0  0  0  0  0  0
   40.9330   30.0830   40.1240 O   0  0  0  0  0  0  0  0  0  0  0  0
   41.6440   31.2060   40.4610 C   0  0  0  0  0  3  0  0  0  0  0  0
   41.9880   31.1560   41.5250 H   0  0  0  0  0  0  0  0  0  0  0  0
   40.9140   32.5050   40.2800 C   0  0  2  0  0  3  0  0  0  0  0  0
   39.0340   33.5160   39.3380 O   0  0  0  0  0  0  0  0  0  0  0  0
   39.2130   34.3540   38.8560 H   0  0  0  0  0  0  0  0  0  0  0  0
   40.2710   32.9290   41.4430 O   0  0  0  0  0  0  0  0  0  0  0  0
   40.2630   33.9370   41.4970 H   0  0  0  0  0  0  0  0  0  0  0  0
   35.9760   29.4830   40.7700 O   0  0  0  0  0  0  0  0  0  0  0  0
   38.0230   28.7510   43.5480 C   0  0  0  0  0  0  0  0  0  0  0  0
   38.3110   27.3840   43.3560 C   0  0  0  0  0  0  0  0  0  0  0  0
   37.7950   26.7330   42.2680 C   0  0  0  0  0  0  0  0  0  0  0  0
   37.0320   27.4690   41.4470 N   0  0  0  0  0  0  0  0  0  0  0  0
   36.7600   28.7510   41.6250 C   0  0  0  0  0  0  0  0  0  0  0  0
   37.2560   29.3930   42.6770 N   0  0  0  0  0  0  0  0  0  0  0  0
   38.4280   29.2740   44.4070 H   0  0  0  0  0  0  0  0  0  0  0  0
   38.9420   26.9440   44.1070 H   0  0  0  0  0  0  0  0  0  0  0  0
   38.0500   25.3210   41.9630 C   0  0  0  0  0  0  0  0  0  0  0  0
   38.6610   25.2440   41.0390 H   0  0  0  0  0  0  0  0  0  0  0  0
   38.6870   24.8600   42.7610 H   0  0  0  0  0  0  0  0  0  0  0  0
   36.7950   24.5150   41.8360 C   0  0  0  0  0  0  0  0  0  0  0  0
   36.7180   23.7050   42.5420 H   0  0  0  0  0  0  0  0  0  0  0  0
   35.9630   25.2330   42.1380 H   0  0  0  0  0  0  0  0  0  0  0  0
   36.4780   24.1250   40.4620 C   0  0  0  0  0  3  0  0  0  0  0  0
   36.0380   24.6260   39.3150 C   0  0  0  0  0  3  0  0  0  0  0  0
   35.7150   23.8550   38.0500 C   0  0  0  0  0  0  0  0  0  0  0  0
   36.5020   24.0790   37.3130 H   0  0  0  0  0  0  0  0  0  0  0  0
   34.7150   24.1630   37.6880 H   0  0  0  0  0  0  0  0  0  0  0  0
   35.6680   22.8050   38.3510 H   0  0  0  0  0  0  0  0  0  0  0  0
  1 11  1  0  0  0  0
  1  2  1  0  0  0  0
  2 26  1  0  0  0  0
  3  2  2  0  0  0  0
  3  7  1  0  0  0  0
  4  3  1  0  0  0  0
  5  6  1  0  0  0  0
  5  4  2  0  0  0  0
  6  1  2  0  0  0  0
  8  4  1  0  0  0  0
  9  5  1  0  0  0  0
 10  6  1  0  0  0  0
 11 12  2  0  0  0  0
 13 11  2  0  0  0  0
 14 22  1  1  0  0  0
 14 21  1  0  0  0  0
 15 11  1  1  0  0  0
 15 14  1  0  0  0  0
 15 16  1  0  0  0  0
 16 17  1  0  0  0  0
 18 16  1  0  0  0  0
 18 19  1  0  0  0  0
 19 20  1  0  0  0  0
 21 19  1  0  0  0  0
 21 24  1  1  0  0  0
 23 22  1  0  0  0  0
 24 25  1  0  0  0  0
 26 31  1  0  0  0  0
 27 33  1  0  0  0  0
 28 27  1  0  0  0  0
 28 34  1  0  0  0  0
 29 28  2  0  0  0  0
 30 31  2  0  0  0  0
 30 29  1  0  0  0  0
 31 32  1  0  0  0  0
 32 27  2  0  0  0  0
 35 29  1  0  0  0  0
 35 37  1  0  0  0  0
 36 35  1  0  0  0  0
 38 35  1  0  0  0  0
 38 40  1  0  0  0  0
 38 39  1  0  0  0  0
 41 38  1  0  0  0  0
 42 41  2  0  0  0  0
 43 46  1  0  0  0  0
 43 42  1  0  0  0  0
 44 43  1  0  0  0  0
 45 43  1  0  0  0  0
M  END
>  <minimizedAffinity>
-5.90739918

$$$$

 OpenBabel03242517583D

 46 48  0  0  1  0  0  0  0  0999 V2000
   37.7460   29.8800   41.8050 C   0  0  0  0  0  0  0  0  0  0  0  0
   36.6300   29.2250   41.4100 C   0  0  0  0  0  0  0  0  0  0  0  0
   36.2220   28.1170   42.1310 C   0  0  0  0  0  0  0  0  0  0  0  0
   36.9020   27.6540   43.2330 C   0  0  0  0  0  0  0  0  0  0  0  0
   38.0410   28.3300   43.6290 C   0  0  0  0  0  0  0  0  0  0  0  0
   38.4500   29.4410   42.9070 C   0  0  0  0  0  0  0  0  0  0  0  0
   35.3430   27.5370   41.8840 H   0  0  0  0  0  0  0  0  0  0  0  0
   36.5970   26.8000   43.7970 H   0  0  0  0  0  0  0  0  0  0  0  0
   38.6310   28.0160   44.4990 H   0  0  0  0  0  0  0  0  0  0  0  0
   39.3560   29.9800   43.2220 H   0  0  0  0  0  0  0  0  0  0  0  0
   38.2790   31.1860   40.8030 S   0  0  0  0  0  0  0  0  0  0  0  0
   39.2010   32.1340   41.4580 O   0  0  0  0  0  0  0  0  0  0  0  0
   37.0100   32.0130   40.4840 O   0  0  0  0  0  0  0  0  0  0  0  0
   39.1040   31.9430   38.3140 C   0  0  2  0  0  3  0  0  0  0  0  0
   38.8340   30.7410   39.2000 C   0  0  1  0  0  3  0  0  0  0  0  0
   40.1850   30.0700   39.4080 C   0  0  0  0  0  3  0  0  0  0  0  0
   40.8860   30.7150   39.9680 H   0  0  0  0  0  0  0  0  0  0  0  0
   40.6790   29.6180   38.2110 O   0  0  0  0  0  0  0  0  0  0  0  0
   41.1110   30.6760   37.4540 C   0  0  0  0  0  3  0  0  0  0  0  0
   42.2270   30.7640   37.4920 H   0  0  0  0  0  0  0  0  0  0  0  0
   40.5380   32.0110   37.8330 C   0  0  2  0  0  3  0  0  0  0  0  0
   38.8890   33.0890   39.0830 O   0  0  0  0  0  0  0  0  0  0  0  0
   38.4080   33.8000   38.6050 H   0  0  0  0  0  0  0  0  0  0  0  0
   41.3460   32.7100   38.7290 O   0  0  0  0  0  0  0  0  0  0  0  0
   41.2780   33.7050   38.5690 H   0  0  0  0  0  0  0  0  0  0  0  0
   35.8030   29.5270   40.3370 O   0  0  0  0  0  0  0  0  0  0  0  0
   33.8920   28.2420   37.6650 C   0  0  0  0  0  0  0  0  0  0  0  0
   34.5610   27.0370   37.3710 C   0  0  0  0  0  0  0  0  0  0  0  0
   35.6650   26.6820   38.1000 C   0  0  0  0  0  0  0  0  0  0  0  0
   36.0330   27.5370   39.0650 N   0  0  0  0  0  0  0  0  0  0  0  0
   35.4070   28.6690   39.3430 C   0  0  0  0  0  0  0  0  0  0  0  0
   34.3350   29.0220   38.6420 N   0  0  0  0  0  0  0  0  0  0  0  0
   33.0180   28.5290   37.0930 H   0  0  0  0  0  0  0  0  0  0  0  0
   34.1340   26.4650   36.5670 H   0  0  0  0  0  0  0  0  0  0  0  0
   36.4190   25.4420   37.8920 C   0  0  0  0  0  0  0  0  0  0  0  0
   36.3670   25.1510   36.8230 H   0  0  0  0  0  0  0  0  0  0  0  0
   37.5100   25.6130   38.0850 H   0  0  0  0  0  0  0  0  0  0  0  0
   35.9540   24.3220   38.7690 C   0  0  0  0  0  0  0  0  0  0  0  0
   34.8930   24.3180   38.9550 H   0  0  0  0  0  0  0  0  0  0  0  0
   36.1360   23.3820   38.1510 H   0  0  0  0  0  0  0  0  0  0  0  0
   36.7590   24.1410   39.9770 C   0  0  0  0  0  3  0  0  0  0  0  0
   36.8220   24.5140   41.2490 C   0  0  0  0  0  3  0  0  0  0  0  0
   37.9250   24.1900   42.2380 C   0  0  0  0  0  0  0  0  0  0  0  0
   37.5260   23.4540   42.9540 H   0  0  0  0  0  0  0  0  0  0  0  0
   38.2400   25.1230   42.7430 H   0  0  0  0  0  0  0  0  0  0  0  0
   38.7600   23.8210   41.6350 H   0  0  0  0  0  0  0  0  0  0  0  0
  1  6  1  0  0  0  0
  2  1  2  0  0  0  0
  2  3  1  0  0  0  0
  3  4  2  0  0  0  0
  4  5  1  0  0  0  0
  4  8  1  0  0  0  0
  5  9  1  0  0  0  0
  6 10  1  0  0  0  0
  6  5  2  0  0  0  0
  7  3  1  0  0  0  0
 11 12  2  0  0  0  0
 11  1  1  0  0  0  0
 13 11  2  0  0  0  0
 14 22  1  1  0  0  0
 14 15  1  0  0  0  0
 15 16  1  0  0  0  0
 15 11  1  1  0  0  0
 16 17  1  0  0  0  0
 18 16  1  0  0  0  0
 19 20  1  0  0  0  0
 19 21  1  0  0  0  0
 19 18  1  0  0  0  0
 21 14  1  0  0  0  0
 21 24  1  1  0  0  0
 23 22  1  0  0  0  0
 25 24  1  0  0  0  0
 26  2  1  0  0  0  0
 27 32  1  0  0  0  0
 28 27  2  0  0  0  0
 28 29  1  0  0  0  0
 29 30  2  0  0  0  0
 30 31  1  0  0  0  0
 31 26  1  0  0  0  0
 32 31  2  0  0  0  0
 33 27  1  0  0  0  0
 34 28  1  0  0  0  0
 35 37  1  0  0  0  0
 35 29  1  0  0  0  0
 35 38  1  0  0  0  0
 36 35  1  0  0  0  0
 38 39  1  0  0  0  0
 38 41  1  0  0  0  0
 40 38  1  0  0  0  0
 41 42  2  0  0  0  0
 42 43  1  0  0  0  0
 43 45  1  0  0  0  0
 43 44  1  0  0  0  0
 46 43  1  0  0  0  0
M  END
>  <minimizedAffinity>
-5.89792013

$$$$

 OpenBabel03242517583D

 46 48  0  0  1  0  0  0  0  0999 V2000
   38.3950   29.3920   38.2440 C   0  0  0  0  0  0  0  0  0  0  0  0
   39.3140   28.6050   38.8490 C   0  0  0  0  0  0  0  0  0  0  0  0
   39.7400   27.4620   38.1980 C   0  0  0  0  0  0  0  0  0  0  0  0
   39.2700   27.0910   36.9600 C   0  0  0  0  0  0  0  0  0  0  0  0
   38.3320   27.9020   36.3480 C   0  0  0  0  0  0  0  0  0  0  0  0
   37.9040   29.0480   37.0010 C   0  0  0  0  0  0  0  0  0  0  0  0
   40.4700   26.7790   38.6100 H   0  0  0  0  0  0  0  0  0  0  0  0
   39.5910   26.2120   36.4470 H   0  0  0  0  0  0  0  0  0  0  0  0
   37.9150   27.6670   35.3610 H   0  0  0  0  0  0  0  0  0  0  0  0
   37.1580   29.6940   36.5140 H   0  0  0  0  0  0  0  0  0  0  0  0
   37.8090   30.7450   39.1490 S   0  0  0  0  0  0  0  0  0  0  0  0
   37.6650   30.5070   40.5980 O   0  0  0  0  0  0  0  0  0  0  0  0
   36.3700   30.9980   38.6370 O   0  0  0  0  0  0  0  0  0  0  0  0
   37.9170   33.4460   39.5200 C   0  0  2  0  0  3  0  0  0  0  0  0
   38.5870   32.2810   38.8170 C   0  0  1  0  0  3  0  0  0  0  0  0
   39.9770   32.1730   39.4280 C   0  0  0  0  0  3  0  0  0  0  0  0
   39.9400   31.9070   40.4990 H   0  0  0  0  0  0  0  0  0  0  0  0
   40.7010   33.3080   39.1620 O   0  0  0  0  0  0  0  0  0  0  0  0
   40.2400   34.3470   39.9290 C   0  0  0  0  0  3  0  0  0  0  0  0
   40.9180   34.5310   40.8000 H   0  0  0  0  0  0  0  0  0  0  0  0
   38.8470   34.1790   40.4640 C   0  0  2  0  0  3  0  0  0  0  0  0
   36.8860   32.9270   40.3060 O   0  0  0  0  0  0  0  0  0  0  0  0
   36.0590   33.4570   40.2720 H   0  0  0  0  0  0  0  0  0  0  0  0
   38.8240   33.6220   41.7420 O   0  0  0  0  0  0  0  0  0  0  0  0
   38.0480   33.9850   42.2750 H   0  0  0  0  0  0  0  0  0  0  0  0
   39.9140   28.7980   40.0860 O   0  0  0  0  0  0  0  0  0  0  0  0
   40.4220   27.4460   43.3040 C   0  0  0  0  0  0  0  0  0  0  0  0
   39.2090   26.7670   43.5390 C   0  0  0  0  0  0  0  0  0  0  0  0
   38.2300   26.7840   42.5810 C   0  0  0  0  0  0  0  0  0  0  0  0
   38.5110   27.4680   41.4620 N   0  0  0  0  0  0  0  0  0  0  0  0
   39.6490   28.1060   41.2400 C   0  0  0  0  0  0  0  0  0  0  0  0
   40.6050   28.0950   42.1620 N   0  0  0  0  0  0  0  0  0  0  0  0
   41.2020   27.4360   44.0570 H   0  0  0  0  0  0  0  0  0  0  0  0
   39.1460   26.2650   44.4880 H   0  0  0  0  0  0  0  0  0  0  0  0
   36.9430   26.0940   42.7150 C   0  0  0  0  0  0  0  0  0  0  0  0
   36.6220   26.1080   43.7760 H   0  0  0  0  0  0  0  0  0  0  0  0
   36.1410   26.6560   42.1690 H   0  0  0  0  0  0  0  0  0  0  0  0
   36.9760   24.6920   42.1900 C   0  0  0  0  0  0  0  0  0  0  0  0
   37.8720   24.1490   42.4410 H   0  0  0  0  0  0  0  0  0  0  0  0
   36.1500   24.1550   42.7630 H   0  0  0  0  0  0  0  0  0  0  0  0
   36.5960   24.5770   40.7820 C   0  0  0  0  0  3  0  0  0  0  0  0
   37.0280   24.8700   39.5630 C   0  0  0  0  0  3  0  0  0  0  0  0
   36.2750   24.6800   38.2610 C   0  0  0  0  0  0  0  0  0  0  0  0
   36.7430   23.8400   37.7240 H   0  0  0  0  0  0  0  0  0  0  0  0
   36.3250   25.6190   37.6770 H   0  0  0  0  0  0  0  0  0  0  0  0
   35.2340   24.5030   38.5480 H   0  0  0  0  0  0  0  0  0  0  0  0
  1  2  1  0  0  0  0
  1 11  1  0  0  0  0
  2 26  1  0  0  0  0
  3  7  1  0  0  0  0
  3  2  2  0  0  0  0
  4  3  1  0  0  0  0
  5  4  2  0  0  0  0
  5  6  1  0  0  0  0
  6  1  2  0  0  0  0
  8  4  1  0  0  0  0
  9  5  1  0  0  0  0
 10  6  1  0  0  0  0
 11 12  2  0  0  0  0
 13 11  2  0  0  0  0
 14 22  1  1  0  0  0
 14 21  1  0  0  0  0
 15 11  1  1  0  0  0
 15 16  1  0  0  0  0
 15 14  1  0  0  0  0
 16 17  1  0  0  0  0
 18 16  1  0  0  0  0
 18 19  1  0  0  0  0
 19 21  1  0  0  0  0
 19 20  1  0  0  0  0
 21 24  1  1  0  0  0
 23 22  1  0  0  0  0
 24 25  1  0  0  0  0
 26 31  1  0  0  0  0
 27 28  1  0  0  0  0
 27 33  1  0  0  0  0
 28 34  1  0  0  0  0
 29 35  1  0  0  0  0
 29 28  2  0  0  0  0
 30 29  1  0  0  0  0
 31 30  2  0  0  0  0
 31 32  1  0  0  0  0
 32 27  2  0  0  0  0
 35 36  1  0  0  0  0
 37 35  1  0  0  0  0
 38 39  1  0  0  0  0
 38 35  1  0  0  0  0
 38 40  1  0  0  0  0
 41 38  1  0  0  0  0
 42 41  2  0  0  0  0
 43 46  1  0  0  0  0
 43 42  1  0  0  0  0
 44 43  1  0  0  0  0
 45 43  1  0  0  0  0
M  END
>  <minimizedAffinity>
-5.8745513

$$$$

 OpenBabel03242517583D

 46 48  0  0  1  0  0  0  0  0999 V2000
   37.7090   31.1850   38.9850 C   0  0  0  0  0  0  0  0  0  0  0  0
   36.9680   30.2950   39.6860 C   0  0  0  0  0  0  0  0  0  0  0  0
   36.2100   29.3710   38.9910 C   0  0  0  0  0  0  0  0  0  0  0  0
   36.1770   29.3160   37.6170 C   0  0  0  0  0  0  0  0  0  0  0  0
   36.9380   30.2290   36.9090 C   0  0  0  0  0  0  0  0  0  0  0  0
   37.6980   31.1550   37.6060 C   0  0  0  0  0  0  0  0  0  0  0  0
   35.5910   28.6260   39.4730 H   0  0  0  0  0  0  0  0  0  0  0  0
   35.5970   28.6080   37.0690 H   0  0  0  0  0  0  0  0  0  0  0  0
   36.9590   30.2410   35.8120 H   0  0  0  0  0  0  0  0  0  0  0  0
   38.3050   31.8820   37.0430 H   0  0  0  0  0  0  0  0  0  0  0  0
   38.5460   32.3930   39.8970 S   0  0  0  0  0  0  0  0  0  0  0  0
   38.7440   32.0680   41.3230 O   0  0  0  0  0  0  0  0  0  0  0  0
   37.6240   33.6350   39.8910 O   0  0  0  0  0  0  0  0  0  0  0  0
   40.6150   34.1720   39.9530 C   0  0  2  0  0  3  0  0  0  0  0  0
   40.0100   33.0240   39.1660 C   0  0  1  0  0  3  0  0  0  0  0  0
   41.0240   31.8910   39.2420 C   0  0  0  0  0  3  0  0  0  0  0  0
   41.1570   31.5220   40.2740 H   0  0  0  0  0  0  0  0  0  0  0  0
   42.1940   32.2610   38.6290 O   0  0  0  0  0  0  0  0  0  0  0  0
   42.8660   33.1660   39.4100 C   0  0  0  0  0  3  0  0  0  0  0  0
   43.7090   32.6710   39.9570 H   0  0  0  0  0  0  0  0  0  0  0  0
   42.0250   33.8850   40.4250 C   0  0  2  0  0  3  0  0  0  0  0  0
   39.8410   34.3480   41.1020 O   0  0  0  0  0  0  0  0  0  0  0  0
   39.6680   35.2910   41.3190 H   0  0  0  0  0  0  0  0  0  0  0  0
   42.0300   33.2580   41.6710 O   0  0  0  0  0  0  0  0  0  0  0  0
   41.9540   33.9400   42.4120 H   0  0  0  0  0  0  0  0  0  0  0  0
   36.8640   30.1780   41.0650 O   0  0  0  0  0  0  0  0  0  0  0  0
   36.6250   27.2150   42.9640 C   0  0  0  0  0  0  0  0  0  0  0  0
   37.9670   26.9820   43.3270 C   0  0  0  0  0  0  0  0  0  0  0  0
   38.9390   27.8530   42.9110 C   0  0  0  0  0  0  0  0  0  0  0  0
   38.5240   28.8890   42.1680 N   0  0  0  0  0  0  0  0  0  0  0  0
   37.2650   29.1090   41.8260 C   0  0  0  0  0  0  0  0  0  0  0  0
   36.3140   28.2710   42.2250 N   0  0  0  0  0  0  0  0  0  0  0  0
   35.8500   26.5300   43.2890 H   0  0  0  0  0  0  0  0  0  0  0  0
   38.1290   26.1060   43.9290 H   0  0  0  0  0  0  0  0  0  0  0  0
   40.3590   27.7160   43.2500 C   0  0  0  0  0  0  0  0  0  0  0  0
   40.9780   28.1790   42.4550 H   0  0  0  0  0  0  0  0  0  0  0  0
   40.5980   28.3060   44.1730 H   0  0  0  0  0  0  0  0  0  0  0  0
   40.7700   26.2950   43.4810 C   0  0  0  0  0  0  0  0  0  0  0  0
   41.2550   26.1240   44.4270 H   0  0  0  0  0  0  0  0  0  0  0  0
   39.7870   25.7240   43.5590 H   0  0  0  0  0  0  0  0  0  0  0  0
   41.4690   25.6890   42.3480 C   0  0  0  0  0  3  0  0  0  0  0  0
   42.1350   26.0110   41.2460 C   0  0  0  0  0  3  0  0  0  0  0  0
   42.6630   25.0570   40.1920 C   0  0  0  0  0  0  0  0  0  0  0  0
   43.7590   25.0230   40.2900 H   0  0  0  0  0  0  0  0  0  0  0  0
   42.3530   25.4190   39.1930 H   0  0  0  0  0  0  0  0  0  0  0  0
   42.1660   24.1020   40.3850 H   0  0  0  0  0  0  0  0  0  0  0  0
  1  2  1  0  0  0  0
  1 11  1  0  0  0  0
  2 26  1  0  0  0  0
  3  7  1  0  0  0  0
  3  2  2  0  0  0  0
  4  3  1  0  0  0  0
  5  6  1  0  0  0  0
  5  4  2  0  0  0  0
  6  1  2  0  0  0  0
  8  4  1  0  0  0  0
  9  5  1  0  0  0  0
 10  6  1  0  0  0  0
 11 12  2  0  0  0  0
 13 11  2  0  0  0  0
 14 21  1  0  0  0  0
 14 22  1  1  0  0  0
 15 16  1  0  0  0  0
 15 11  1  1  0  0  0
 15 14  1  0  0  0  0
 16 17  1  0  0  0  0
 18 16  1  0  0  0  0
 18 19  1  0  0  0  0
 19 20  1  0  0  0  0
 19 21  1  0  0  0  0
 21 24  1  1  0  0  0
 22 23  1  0  0  0  0
 24 25  1  0  0  0  0
 26 31  1  0  0  0  0
 27 33  1  0  0  0  0
 27 28  1  0  0  0  0
 28 34  1  0  0  0  0
 29 35  1  0  0  0  0
 29 28  2  0  0  0  0
 30 29  1  0  0  0  0
 31 30  2  0  0  0  0
 31 32  1  0  0  0  0
 32 27  2  0  0  0  0
 35 38  1  0  0  0  0
 35 37  1  0  0  0  0
 36 35  1  0  0  0  0
 38 40  1  0  0  0  0
 38 39  1  0  0  0  0
 41 38  1  0  0  0  0
 42 41  2  0  0  0  0
 43 44  1  0  0  0  0
 43 46  1  0  0  0  0
 43 42  1  0  0  0  0
 45 43  1  0  0  0  0
M  END
>  <minimizedAffinity>
-5.84690046

$$$$

 OpenBabel03242517583D

 46 48  0  0  1  0  0  0  0  0999 V2000
   37.7040   29.8970   41.7480 C   0  0  0  0  0  0  0  0  0  0  0  0
   36.6170   29.2340   41.2900 C   0  0  0  0  0  0  0  0  0  0  0  0
   36.2000   28.1000   41.9620 C   0  0  0  0  0  0  0  0  0  0  0  0
   36.8430   27.6160   43.0780 C   0  0  0  0  0  0  0  0  0  0  0  0
   37.9530   28.3000   43.5390 C   0  0  0  0  0  0  0  0  0  0  0  0
   38.3710   29.4370   42.8650 C   0  0  0  0  0  0  0  0  0  0  0  0
   35.3420   27.5130   41.6630 H   0  0  0  0  0  0  0  0  0  0  0  0
   36.5310   26.7420   43.6050 H   0  0  0  0  0  0  0  0  0  0  0  0
   38.5130   27.9700   44.4230 H   0  0  0  0  0  0  0  0  0  0  0  0
   39.2540   29.9820   43.2330 H   0  0  0  0  0  0  0  0  0  0  0  0
   38.2540   31.2390   40.8070 S   0  0  0  0  0  0  0  0  0  0  0  0
   39.1900   32.1430   41.5020 O   0  0  0  0  0  0  0  0  0  0  0  0
   36.9960   32.0970   40.5290 O   0  0  0  0  0  0  0  0  0  0  0  0
   39.0930   32.0990   38.3560 C   0  0  2  0  0  3  0  0  0  0  0  0
   38.8000   30.8610   39.1840 C   0  0  1  0  0  3  0  0  0  0  0  0
   40.1370   30.1540   39.3590 C   0  0  0  0  0  3  0  0  0  0  0  0
   40.8510   30.7580   39.9480 H   0  0  0  0  0  0  0  0  0  0  0  0
   40.6220   29.7510   38.1410 O   0  0  0  0  0  0  0  0  0  0  0  0
   41.0760   30.8350   37.4350 C   0  0  0  0  0  3  0  0  0  0  0  0
   42.1930   30.8990   37.4750 H   0  0  0  0  0  0  0  0  0  0  0  0
   40.5280   32.1610   37.8780 C   0  0  2  0  0  3  0  0  0  0  0  0
   38.9010   33.2100   39.1790 O   0  0  0  0  0  0  0  0  0  0  0  0
   38.4340   33.9530   38.7360 H   0  0  0  0  0  0  0  0  0  0  0  0
   41.3500   32.8010   38.8050 O   0  0  0  0  0  0  0  0  0  0  0  0
   41.3010   33.8030   38.6930 H   0  0  0  0  0  0  0  0  0  0  0  0
   35.8280   29.5540   40.1940 O   0  0  0  0  0  0  0  0  0  0  0  0
   36.5840   27.2930   37.5940 C   0  0  0  0  0  0  0  0  0  0  0  0
   35.3810   27.2670   36.8600 C   0  0  0  0  0  0  0  0  0  0  0  0
   34.3220   28.0320   37.2730 C   0  0  0  0  0  0  0  0  0  0  0  0
   34.5210   28.7670   38.3770 N   0  0  0  0  0  0  0  0  0  0  0  0
   35.6490   28.7930   39.0670 C   0  0  0  0  0  0  0  0  0  0  0  0
   36.6820   28.0550   38.6750 N   0  0  0  0  0  0  0  0  0  0  0  0
   37.4270   26.6910   37.2730 H   0  0  0  0  0  0  0  0  0  0  0  0
   35.3890   26.6260   35.9970 H   0  0  0  0  0  0  0  0  0  0  0  0
   33.0360   28.0950   36.5710 C   0  0  0  0  0  0  0  0  0  0  0  0
   33.1550   27.7020   35.5400 H   0  0  0  0  0  0  0  0  0  0  0  0
   32.2960   27.4050   37.0520 H   0  0  0  0  0  0  0  0  0  0  0  0
   32.4510   29.4730   36.5480 C   0  0  0  0  0  0  0  0  0  0  0  0
   33.1610   30.2570   36.7480 H   0  0  0  0  0  0  0  0  0  0  0  0
   32.1490   29.6360   35.4610 H   0  0  0  0  0  0  0  0  0  0  0  0
   31.2080   29.6020   37.3080 C   0  0  0  0  0  3  0  0  0  0  0  0
   30.5240   30.4710   38.0410 C   0  0  0  0  0  3  0  0  0  0  0  0
   29.2400   30.2050   38.8040 C   0  0  0  0  0  0  0  0  0  0  0  0
   28.4230   30.7140   38.2700 H   0  0  0  0  0  0  0  0  0  0  0  0
   29.3530   30.5840   39.8380 H   0  0  0  0  0  0  0  0  0  0  0  0
   29.1410   29.1160   38.8410 H   0  0  0  0  0  0  0  0  0  0  0  0
  1  6  1  0  0  0  0
  2  1  2  0  0  0  0
  2  3  1  0  0  0  0
  3  4  2  0  0  0  0
  4  5  1  0  0  0  0
  4  8  1  0  0  0  0
  5  9  1  0  0  0  0
  6 10  1  0  0  0  0
  6  5  2  0  0  0  0
  7  3  1  0  0  0  0
 11 12  2  0  0  0  0
 11  1  1  0  0  0  0
 13 11  2  0  0  0  0
 14 22  1  1  0  0  0
 14 15  1  0  0  0  0
 15 16  1  0  0  0  0
 15 11  1  1  0  0  0
 16 17  1  0  0  0  0
 18 16  1  0  0  0  0
 19 20  1  0  0  0  0
 19 21  1  0  0  0  0
 19 18  1  0  0  0  0
 21 14  1  0  0  0  0
 21 24  1  1  0  0  0
 23 22  1  0  0  0  0
 25 24  1  0  0  0  0
 26  2  1  0  0  0  0
 27 32  1  0  0  0  0
 28 29  1  0  0  0  0
 28 27  2  0  0  0  0
 29 30  2  0  0  0  0
 30 31  1  0  0  0  0
 31 26  1  0  0  0  0
 32 31  2  0  0  0  0
 33 27  1  0  0  0  0
 34 28  1  0  0  0  0
 35 37  1  0  0  0  0
 35 29  1  0  0  0  0
 36 35  1  0  0  0  0
 38 35  1  0  0  0  0
 38 39  1  0  0  0  0
 38 41  1  0  0  0  0
 40 38  1  0  0  0  0
 41 42  2  0  0  0  0
 42 43  1  0  0  0  0
 43 46  1  0  0  0  0
 43 45  1  0  0  0  0
 44 43  1  0  0  0  0
M  END
>  <minimizedAffinity>
-5.78907824

$$$$
