
 OpenBabel03242517553D

 46 48  0  0  1  0  0  0  0  0999 V2000
   45.4450   30.1560   47.3280 C   0  0  0  0  0  0  0  0  0  0  0  0
   46.0390   31.2170   46.7340 C   0  0  0  0  0  0  0  0  0  0  0  0
   46.2670   32.3550   47.4860 C   0  0  0  0  0  0  0  0  0  0  0  0
   45.9150   32.4560   48.8110 C   0  0  0  0  0  0  0  0  0  0  0  0
   45.3080   31.3670   49.4100 C   0  0  0  0  0  0  0  0  0  0  0  0
   45.0800   30.2250   48.6560 C   0  0  0  0  0  0  0  0  0  0  0  0
   46.7360   33.2460   47.0900 H   0  0  0  0  0  0  0  0  0  0  0  0
   46.0850   33.3290   49.4020 H   0  0  0  0  0  0  0  0  0  0  0  0
   45.0020   31.3780   50.4630 H   0  0  0  0  0  0  0  0  0  0  0  0
   44.5970   29.3580   49.1330 H   0  0  0  0  0  0  0  0  0  0  0  0
   45.0760   28.8020   46.3170 S   0  0  0  0  0  0  0  0  0  0  0  0
   44.0440   29.0540   45.2930 O   0  0  0  0  0  0  0  0  0  0  0  0
   44.4630   27.7350   47.2550 O   0  0  0  0  0  0  0  0  0  0  0  0
   47.3950   27.4220   46.7200 C   0  0  2  0  0  3  0  0  0  0  0  0
   46.4560   27.9490   45.6510 C   0  0  1  0  0  3  0  0  0  0  0  0
   45.8820   26.7190   44.9620 C   0  0  0  0  0  3  0  0  0  0  0  0
   45.2610   26.1120   45.6460 H   0  0  0  0  0  0  0  0  0  0  0  0
   46.8810   26.0120   44.3440 O   0  0  0  0  0  0  0  0  0  0  0  0
   47.6420   25.3610   45.2800 C   0  0  0  0  0  3  0  0  0  0  0  0
   47.3720   24.2760   45.3300 H   0  0  0  0  0  0  0  0  0  0  0  0
   47.5560   25.9160   46.6730 C   0  0  2  0  0  3  0  0  0  0  0  0
   46.8310   27.7190   47.9620 O   0  0  0  0  0  0  0  0  0  0  0  0
   47.4810   28.0420   48.6230 H   0  0  0  0  0  0  0  0  0  0  0  0
   46.5920   25.2730   47.4490 O   0  0  0  0  0  0  0  0  0  0  0  0
   46.8770   25.2430   48.4180 H   0  0  0  0  0  0  0  0  0  0  0  0
   46.4730   31.3200   45.4200 O   0  0  0  0  0  0  0  0  0  0  0  0
   45.2910   34.2210   43.7980 C   0  0  0  0  0  0  0  0  0  0  0  0
   46.4540   34.7060   43.1660 C   0  0  0  0  0  0  0  0  0  0  0  0
   47.6330   34.0240   43.3070 C   0  0  0  0  0  0  0  0  0  0  0  0
   47.5860   32.9150   44.0600 N   0  0  0  0  0  0  0  0  0  0  0  0
   46.4960   32.4580   44.6540 C   0  0  0  0  0  0  0  0  0  0  0  0
   45.3470   33.1120   44.5240 N   0  0  0  0  0  0  0  0  0  0  0  0
   44.3540   34.7550   43.6910 H   0  0  0  0  0  0  0  0  0  0  0  0
   46.3180   35.6080   42.5960 H   0  0  0  0  0  0  0  0  0  0  0  0
   48.8920   34.4280   42.6750 C   0  0  0  0  0  0  0  0  0  0  0  0
   49.6500   34.6400   43.4570 H   0  0  0  0  0  0  0  0  0  0  0  0
   49.3240   33.5780   42.0870 H   0  0  0  0  0  0  0  0  0  0  0  0
   48.7350   35.6030   41.7590 C   0  0  0  0  0  0  0  0  0  0  0  0
   48.0020   36.3210   42.0860 H   0  0  0  0  0  0  0  0  0  0  0  0
   49.7280   36.1570   41.8330 H   0  0  0  0  0  0  0  0  0  0  0  0
   48.6090   35.2410   40.3470 C   0  0  0  0  0  3  0  0  0  0  0  0
   48.0410   34.3430   39.5520 C   0  0  0  0  0  3  0  0  0  0  0  0
   48.2250   34.2120   38.0520 C   0  0  0  0  0  0  0  0  0  0  0  0
   47.2930   34.5470   37.5710 H   0  0  0  0  0  0  0  0  0  0  0  0
   48.4540   33.1560   37.8100 H   0  0  0  0  0  0  0  0  0  0  0  0
   49.0990   34.8230   37.8090 H   0  0  0  0  0  0  0  0  0  0  0  0
  1  6  1  0  0  0  0
  2  1  2  0  0  0  0
  2  3  1  0  0  0  0
  3  4  2  0  0  0  0
  4  8  1  0  0  0  0
  4  5  1  0  0  0  0
  5  9  1  0  0  0  0
  6 10  1  0  0  0  0
  6  5  2  0  0  0  0
  7  3  1  0  0  0  0
 11 13  2  0  0  0  0
 11  1  1  0  0  0  0
 12 11  2  0  0  0  0
 14 22  1  1  0  0  0
 15 11  1  1  0  0  0
 15 14  1  0  0  0  0
 16 17  1  0  0  0  0
 16 15  1  0  0  0  0
 18 16  1  0  0  0  0
 18 19  1  0  0  0  0
 19 20  1  0  0  0  0
 19 21  1  0  0  0  0
 21 14  1  0  0  0  0
 21 24  1  6  0  0  0
 22 23  1  0  0  0  0
 24 25  1  0  0  0  0
 26  2  1  0  0  0  0
 27 32  1  0  0  0  0
 28 29  1  0  0  0  0
 28 27  2  0  0  0  0
 29 30  2  0  0  0  0
 30 31  1  0  0  0  0
 31 26  1  0  0  0  0
 32 31  2  0  0  0  0
 33 27  1  0  0  0  0
 34 28  1  0  0  0  0
 35 29  1  0  0  0  0
 35 36  1  0  0  0  0
 37 35  1  0  0  0  0
 38 40  1  0  0  0  0
 38 39  1  0  0  0  0
 38 35  1  0  0  0  0
 41 38  1  0  0  0  0
 42 41  2  0  0  0  0
 43 42  1  0  0  0  0
 44 43  1  0  0  0  0
 45 43  1  0  0  0  0
 46 43  1  0  0  0  0
M  END
>  <minimizedAffinity>
-5.93350315

>  <minimizedRMSD>
1.38930106

$$$$
