
 OpenBabel03242522203D

 48 51  0  0  1  0  0  0  0  0999 V2000
   42.3890   34.3950   39.8560 C   0  0  0  0  0  0  0  0  0  0  0  0
   42.2530   33.9190   38.5860 C   0  0  0  0  0  0  0  0  0  0  0  0
   41.2830   33.0530   38.1340 C   0  0  0  0  0  0  0  0  0  0  0  0
   40.3830   32.6530   39.0710 C   0  0  0  0  0  0  0  0  0  0  0  0
   40.4980   33.1180   40.3540 C   0  0  0  0  0  0  0  0  0  0  0  0
   41.4600   33.9660   40.7670 N   0  0  0  0  0  0  0  0  0  0  0  0
   43.0160   34.2900   37.8970 H   0  0  0  0  0  0  0  0  0  0  0  0
   41.2720   32.7420   37.1110 H   0  0  0  0  0  0  0  0  0  0  0  0
   39.4670   32.6260   41.3170 C   0  0  0  0  0  0  0  0  0  0  0  0
   38.1900   32.9180   40.7870 F   0  0  0  0  0  0  0  0  0  0  0  0
   39.6230   33.1060   42.5880 F   0  0  0  0  0  0  0  0  0  0  0  0
   39.5300   31.2450   41.3900 F   0  0  0  0  0  0  0  0  0  0  0  0
   43.3700   35.3020   40.4210 C   0  0  0  0  0  0  0  0  0  0  0  0
   44.3730   34.9810   40.0640 H   0  0  0  0  0  0  0  0  0  0  0  0
   43.2360   36.3360   39.9930 H   0  0  0  0  0  0  0  0  0  0  0  0
   43.4110   35.4220   41.8980 C   0  0  0  0  0  0  0  0  0  0  0  0
   43.3510   36.4840   42.2080 H   0  0  0  0  0  0  0  0  0  0  0  0
   42.5440   34.8820   42.3490 H   0  0  0  0  0  0  0  0  0  0  0  0
   46.5600   33.6160   42.6210 C   0  0  0  0  0  0  0  0  0  0  0  0
   46.6540   33.8640   43.9480 C   0  0  0  0  0  0  0  0  0  0  0  0
   45.1430   34.8760   44.2390 S   0  0  0  0  0  0  0  0  0  0  0  0
   44.6420   34.7800   42.4580 C   0  0  0  0  0  0  0  0  0  0  0  0
   45.5100   34.1500   42.0840 N   0  0  0  0  0  0  0  0  0  0  0  0
   47.4380   33.5460   44.7010 H   0  0  0  0  0  0  0  0  0  0  0  0
   49.1440   32.5050   40.1240 C   0  0  0  0  0  0  0  0  0  0  0  0
   48.2220   33.3340   40.7820 C   0  0  0  0  0  0  0  0  0  0  0  0
   47.5480   32.8230   41.8640 C   0  0  0  0  0  0  0  0  0  0  0  0
   47.8320   31.5090   42.2290 N   0  0  0  0  0  0  0  0  0  0  0  0
   48.7210   30.7690   41.5620 C   0  0  0  0  0  0  0  0  0  0  0  0
   49.3820   31.2570   40.5100 N   0  0  0  0  0  0  0  0  0  0  0  0
   49.6970   32.8750   39.2630 H   0  0  0  0  0  0  0  0  0  0  0  0
   48.8020   29.7810   41.9970 H   0  0  0  0  0  0  0  0  0  0  0  0
   48.0450   34.6510   40.2860 N   0  0  0  0  0  0  0  0  0  0  0  0
   48.2000   35.4600   40.9330 H   0  0  0  0  0  0  0  0  0  0  0  0
   47.7620   34.7290   39.2730 H   0  0  0  0  0  0  0  0  0  0  0  0
   39.0590   31.5160   38.6080 S   0  0  0  0  0  0  0  0  0  0  0  0
   39.7200   28.9590   38.2010 C   0  0  2  0  0  0  0  0  0  0  0  0
   39.6360   30.2890   37.4430 C   0  0  1  0  0  0  0  0  0  0  0  0
   38.6610   30.0600   36.3130 C   0  0  0  0  0  0  0  0  0  0  0  0
   37.8610   30.8210   36.2830 H   0  0  0  0  0  0  0  0  0  0  0  0
   38.1400   28.7870   36.2880 O   0  0  0  0  0  0  0  0  0  0  0  0
   37.4820   28.3960   37.4270 C   0  0  0  0  0  0  0  0  0  0  0  0
   37.3190   27.2850   37.3270 H   0  0  0  0  0  0  0  0  0  0  0  0
   38.3260   28.5830   38.6580 C   0  0  2  0  0  0  0  0  0  0  0  0
   40.5220   29.1390   39.3060 O   0  0  0  0  0  0  0  0  0  0  0  0
   40.0120   29.6070   40.0040 H   0  0  0  0  0  0  0  0  0  0  0  0
   37.7930   29.5540   39.5060 O   0  0  0  0  0  0  0  0  0  0  0  0
   37.1020   29.1940   40.0990 H   0  0  0  0  0  0  0  0  0  0  0  0
  1 13  1  0  0  0  0
  1  6  1  0  0  0  0
  2  1  2  0  0  0  0
  3  2  1  0  0  0  0
  3  4  2  0  0  0  0
  4  5  1  0  0  0  0
  5  6  2  0  0  0  0
  5  9  1  0  0  0  0
  7  2  1  0  0  0  0
  8  3  1  0  0  0  0
  9 12  1  0  0  0  0
  9 11  1  0  0  0  0
 10  9  1  0  0  0  0
 13 16  1  0  0  0  0
 14 13  1  0  0  0  0
 15 13  1  0  0  0  0
 16 17  1  0  0  0  0
 16 18  1  0  0  0  0
 16 22  1  0  0  0  0
 19 20  2  0  0  0  0
 20 21  1  0  0  0  0
 20 24  1  0  0  0  0
 22 21  1  0  0  0  0
 23 22  2  0  0  0  0
 23 19  1  0  0  0  0
 25 30  2  0  0  0  0
 25 26  1  0  0  0  0
 26 27  2  0  0  0  0
 27 28  1  0  0  0  0
 27 19  1  0  0  0  0
 29 32  1  0  0  0  0
 29 28  2  0  0  0  0
 30 29  1  0  0  0  0
 31 25  1  0  0  0  0
 33 26  1  0  0  0  0
 33 34  1  0  0  0  0
 35 33  1  0  0  0  0
 36  4  1  0  0  0  0
 37 44  1  0  0  0  0
 37 45  1  1  0  0  0
 38 37  1  0  0  0  0
 38 36  1  1  0  0  0
 39 38  1  0  0  0  0
 40 39  1  0  0  0  0
 41 39  1  0  0  0  0
 41 42  1  0  0  0  0
 42 44  1  0  0  0  0
 43 42  1  0  0  0  0
 44 47  1  1  0  0  0
 45 46  1  0  0  0  0
 47 48  1  0  0  0  0
M  END
>  <minimizedAffinity>
-5.3947463

>  <minimizedRMSD>
2.42089963

$$$$
