
 OpenBabel03242517543D

 46 48  0  0  1  0  0  0  0  0999 V2000
   45.4450   30.1560   47.3260 C   0  0  0  0  0  0  0  0  0  0  0  0
   46.0400   31.2170   46.7330 C   0  0  0  0  0  0  0  0  0  0  0  0
   46.2670   32.3550   47.4850 C   0  0  0  0  0  0  0  0  0  0  0  0
   45.9150   32.4560   48.8100 C   0  0  0  0  0  0  0  0  0  0  0  0
   45.3080   31.3660   49.4080 C   0  0  0  0  0  0  0  0  0  0  0  0
   45.0800   30.2250   48.6550 C   0  0  0  0  0  0  0  0  0  0  0  0
   46.7370   33.2460   47.0890 H   0  0  0  0  0  0  0  0  0  0  0  0
   46.0850   33.3280   49.4010 H   0  0  0  0  0  0  0  0  0  0  0  0
   45.0010   31.3780   50.4620 H   0  0  0  0  0  0  0  0  0  0  0  0
   44.5970   29.3580   49.1310 H   0  0  0  0  0  0  0  0  0  0  0  0
   45.0770   28.8020   46.3150 S   0  0  0  0  0  0  0  0  0  0  0  0
   44.0450   29.0550   45.2910 O   0  0  0  0  0  0  0  0  0  0  0  0
   44.4620   27.7360   47.2520 O   0  0  0  0  0  0  0  0  0  0  0  0
   47.3940   27.4210   46.7200 C   0  0  2  0  0  3  0  0  0  0  0  0
   46.4570   27.9480   45.6500 C   0  0  1  0  0  3  0  0  0  0  0  0
   45.8820   26.7180   44.9610 C   0  0  0  0  0  3  0  0  0  0  0  0
   45.2600   26.1120   45.6450 H   0  0  0  0  0  0  0  0  0  0  0  0
   46.8810   26.0110   44.3430 O   0  0  0  0  0  0  0  0  0  0  0  0
   47.6420   25.3600   45.2800 C   0  0  0  0  0  3  0  0  0  0  0  0
   47.3710   24.2750   45.3300 H   0  0  0  0  0  0  0  0  0  0  0  0
   47.5550   25.9160   46.6740 C   0  0  2  0  0  3  0  0  0  0  0  0
   46.8290   27.7200   47.9610 O   0  0  0  0  0  0  0  0  0  0  0  0
   47.4790   28.0420   48.6230 H   0  0  0  0  0  0  0  0  0  0  0  0
   46.5900   25.2740   47.4490 O   0  0  0  0  0  0  0  0  0  0  0  0
   46.8750   25.2420   48.4170 H   0  0  0  0  0  0  0  0  0  0  0  0
   46.4740   31.3210   45.4190 O   0  0  0  0  0  0  0  0  0  0  0  0
   45.2910   34.2210   43.7970 C   0  0  0  0  0  0  0  0  0  0  0  0
   46.4540   34.7070   43.1650 C   0  0  0  0  0  0  0  0  0  0  0  0
   47.6330   34.0250   43.3070 C   0  0  0  0  0  0  0  0  0  0  0  0
   47.5870   32.9160   44.0590 N   0  0  0  0  0  0  0  0  0  0  0  0
   46.4960   32.4590   44.6530 C   0  0  0  0  0  0  0  0  0  0  0  0
   45.3470   33.1120   44.5220 N   0  0  0  0  0  0  0  0  0  0  0  0
   44.3540   34.7550   43.6890 H   0  0  0  0  0  0  0  0  0  0  0  0
   46.3180   35.6090   42.5950 H   0  0  0  0  0  0  0  0  0  0  0  0
   48.8930   34.4300   42.6750 C   0  0  0  0  0  0  0  0  0  0  0  0
   49.6500   34.6430   43.4570 H   0  0  0  0  0  0  0  0  0  0  0  0
   49.3250   33.5790   42.0870 H   0  0  0  0  0  0  0  0  0  0  0  0
   48.7350   35.6040   41.7590 C   0  0  0  0  0  0  0  0  0  0  0  0
   48.0030   36.3230   42.0850 H   0  0  0  0  0  0  0  0  0  0  0  0
   49.7280   36.1580   41.8330 H   0  0  0  0  0  0  0  0  0  0  0  0
   48.6090   35.2410   40.3470 C   0  0  0  0  0  3  0  0  0  0  0  0
   48.0410   34.3430   39.5520 C   0  0  0  0  0  3  0  0  0  0  0  0
   48.2250   34.2110   38.0530 C   0  0  0  0  0  0  0  0  0  0  0  0
   47.2930   34.5460   37.5710 H   0  0  0  0  0  0  0  0  0  0  0  0
   48.4540   33.1550   37.8110 H   0  0  0  0  0  0  0  0  0  0  0  0
   49.0990   34.8220   37.8090 H   0  0  0  0  0  0  0  0  0  0  0  0
  1  6  1  0  0  0  0
  2  1  2  0  0  0  0
  2  3  1  0  0  0  0
  3  4  2  0  0  0  0
  4  8  1  0  0  0  0
  4  5  1  0  0  0  0
  5  9  1  0  0  0  0
  6 10  1  0  0  0  0
  6  5  2  0  0  0  0
  7  3  1  0  0  0  0
 11 13  2  0  0  0  0
 11  1  1  0  0  0  0
 12 11  2  0  0  0  0
 14 22  1  1  0  0  0
 15 11  1  1  0  0  0
 15 14  1  0  0  0  0
 16 17  1  0  0  0  0
 16 15  1  0  0  0  0
 18 16  1  0  0  0  0
 18 19  1  0  0  0  0
 19 20  1  0  0  0  0
 19 21  1  0  0  0  0
 21 14  1  0  0  0  0
 21 24  1  6  0  0  0
 22 23  1  0  0  0  0
 24 25  1  0  0  0  0
 26  2  1  0  0  0  0
 27 32  1  0  0  0  0
 28 29  1  0  0  0  0
 28 27  2  0  0  0  0
 29 30  2  0  0  0  0
 30 31  1  0  0  0  0
 31 26  1  0  0  0  0
 32 31  2  0  0  0  0
 33 27  1  0  0  0  0
 34 28  1  0  0  0  0
 35 29  1  0  0  0  0
 35 36  1  0  0  0  0
 37 35  1  0  0  0  0
 38 40  1  0  0  0  0
 38 39  1  0  0  0  0
 38 35  1  0  0  0  0
 41 38  1  0  0  0  0
 42 41  2  0  0  0  0
 43 42  1  0  0  0  0
 44 43  1  0  0  0  0
 45 43  1  0  0  0  0
 46 43  1  0  0  0  0
M  END
>  <minimizedAffinity>
-5.93366146

>  <minimizedRMSD>
1.14650476

$$$$
