
     RDKit          3D

 51 54  0  0  0  0  0  0  0  0999 V2000
   44.6298   34.3255   41.6136 C   0  0  0  0  0  0  0  0  0  0  0  0
   45.9016   34.4429   41.0577 C   0  0  0  0  0  0  0  0  0  0  0  0
   46.9847   34.6066   41.9150 C   0  0  0  0  0  0  0  0  0  0  0  0
   46.7738   34.6480   43.2853 N   0  0  0  0  0  0  0  0  0  0  0  0
   45.5366   34.5309   43.7732 C   0  0  0  0  0  0  0  0  0  0  0  0
   44.4683   34.3710   42.9560 N   0  0  0  0  0  0  0  0  0  0  0  0
   48.3835   34.7286   41.3544 C   0  0  0  0  0  0  0  0  0  0  0  0
   49.0773   36.0592   41.5324 C   0  0  0  0  0  0  0  0  0  0  0  0
   49.5049   34.7711   42.2568 C   0  0  0  0  0  0  0  0  0  0  0  0
   43.5529   34.1682   40.8433 O   0  0  0  0  0  0  0  0  0  0  0  0
   42.8786   34.5759   38.6394 C   0  0  1  0  0  0  0  0  0  0  0  0
   42.9673   35.1616   40.0493 C   0  0  1  0  0  0  0  0  0  0  0  0
   41.6678   35.3045   40.5701 O   0  0  0  0  0  0  0  0  0  0  0  0
   40.7255   35.6315   39.5951 C   0  0  0  0  0  0  0  0  0  0  0  0
   40.4808   34.4590   38.6530 C   0  0  2  0  0  0  0  0  0  0  0  0
   41.7305   33.5779   38.7035 C   0  0  1  0  0  0  0  0  0  0  0  0
   42.5921   35.5739   37.7115 O   0  0  0  0  0  0  0  0  0  0  0  0
   40.4638   34.9788   37.3425 O   0  0  0  0  0  0  0  0  0  0  0  0
   41.7321   32.6739   37.6609 O   0  0  0  0  0  0  0  0  0  0  0  0
   46.0825   34.4128   40.0035 H   0  0  0  0  0  0  0  0  0  0  0  0
   45.4422   34.5711   44.8454 H   0  0  0  0  0  0  0  0  0  0  0  0
   48.4378   34.3583   40.3303 H   0  0  0  0  0  0  0  0  0  0  0  0
   49.7133   36.4481   40.7345 H   0  0  0  0  0  0  0  0  0  0  0  0
   48.5676   36.8302   42.1418 H   0  0  0  0  0  0  0  0  0  0  0  0
   50.4855   34.3769   41.8724 H   0  0  0  0  0  0  0  0  0  0  0  0
   49.3978   34.7646   43.3563 H   0  0  0  0  0  0  0  0  0  0  0  0
   43.8438   34.0795   38.4571 H   0  0  0  0  0  0  0  0  0  0  0  0
   43.5105   36.1085   40.0446 H   0  0  0  0  0  0  0  0  0  0  0  0
   39.7972   35.8511   40.1622 H   0  0  0  0  0  0  0  0  0  0  0  0
   40.9592   36.5716   39.0549 H   0  0  0  0  0  0  0  0  0  0  0  0
   39.5607   33.9012   38.8999 H   0  0  0  0  0  0  0  0  0  0  0  0
   41.7384   33.0892   39.7120 H   0  0  0  0  0  0  0  0  0  0  0  0
   42.9984   35.2714   36.8495 H   0  0  0  0  0  0  0  0  0  0  0  0
   39.5236   35.2804   37.1775 H   0  0  0  0  0  0  0  0  0  0  0  0
   39.8741   29.8947   37.9391 O   0  0  0  0  0  0  0  0  0  0  0  0
   40.4175   30.9403   38.6898 C   0  0  2  0  0  0  0  0  0  0  0  0
   41.7430   31.3442   38.0514 C   0  0  2  0  0  0  0  0  0  0  0  0
   42.7895   31.2070   39.1381 C   0  0  2  0  0  0  0  0  0  0  0  0
   43.7905   31.6006   38.8046 H   0  0  0  0  0  0  0  0  0  0  0  0
   42.3935   32.0747   40.1769 O   0  0  0  0  0  0  0  0  0  0  0  0
   41.4494   31.3744   40.9302 C   0  0  1  0  0  0  0  0  0  0  0  0
   42.0114   30.8187   41.7084 H   0  0  0  0  0  0  0  0  0  0  0  0
   40.6222   30.4215   40.0969 C   0  0  1  0  0  0  0  0  0  0  0  0
   39.3509   30.2870   40.6625 O   0  0  0  0  0  0  0  0  0  0  0  0
   40.3211   29.0397   38.1555 H   0  0  0  0  0  0  0  0  0  0  0  0
   39.7176   31.7988   38.7257 H   0  0  0  0  0  0  0  0  0  0  0  0
   42.0051   30.6483   37.2401 H   0  0  0  0  0  0  0  0  0  0  0  0
   42.9080   30.1688   39.4801 H   0  0  0  0  0  0  0  0  0  0  0  0
   40.7663   32.0637   41.4905 H   0  0  0  0  0  0  0  0  0  0  0  0
   41.1088   29.4326   40.1071 H   0  0  0  0  0  0  0  0  0  0  0  0
   39.1150   29.3385   40.8503 H   0  0  0  0  0  0  0  0  0  0  0  0
  1  6  1  0
  2  1  2  0
  2  3  1  0
  3  4  2  0
  4  5  1  0
  6  5  2  0
  7  8  1  0
  7  3  1  0
  7  9  1  0
  8  9  1  0
 10  1  1  0
 11 17  1  0
 11 16  1  0
 11 12  1  0
 12 13  1  0
 12 10  1  0
 14 13  1  0
 15 18  1  0
 15 16  1  0
 15 14  1  0
 16 19  1  0
  2 20  1  0
  5 21  1  0
  7 22  1  0
  8 23  1  0
  8 24  1  0
  9 25  1  0
  9 26  1  0
 11 27  1  6
 12 28  1  6
 14 29  1  0
 14 30  1  0
 15 31  1  1
 16 32  1  1
 17 33  1  0
 18 34  1  0
 35 36  1  0
 36 37  1  0
 37 38  1  0
 38 39  1  6
 38 40  1  0
 40 41  1  0
 41 42  1  1
 41 43  1  0
 43 44  1  0
 43 36  1  0
 35 45  1  0
 36 46  1  1
 37 47  1  6
 38 48  1  0
 41 49  1  0
 43 50  1  6
 44 51  1  0
 19 37  1  0
M  ISO  8  20  14  21  14  22  13  23  13  24  13  25  13  26  13  27  13
M  ISO  8  28  13  29  13  30  13  31  13  32  13  33   3  34   3  39   8
M  ISO  1  42   8
M  END
>  <DihAtoms>  (1) 
15,18,36,35

>  <DihDeg>  (1) 
-125.42418834544425

$$$$
