
 OpenBabel03242523503D

 46 49  0  0  1  0  0  0  0  0999 V2000
   42.6960   34.5220   38.7460 C   0  0  1  0  0  0  0  0  0  0  0  0
   42.9810   35.1840   40.0950 C   0  0  1  0  0  0  0  0  0  0  0  0
   41.7610   35.5020   40.7190 O   0  0  0  0  0  0  0  0  0  0  0  0
   40.7670   35.8700   39.8110 C   0  0  0  0  0  0  0  0  0  0  0  0
   40.3110   34.6730   38.9840 C   0  0  2  0  0  0  0  0  0  0  0  0
   41.4610   33.6640   38.9870 C   0  0  1  0  0  0  0  0  0  0  0  0
   43.5810   33.9120   38.5160 H   0  0  0  0  0  0  0  0  0  0  0  0
   43.6180   36.0620   39.9720 H   0  0  0  0  0  0  0  0  0  0  0  0
   39.9260   36.2260   40.4410 H   0  0  0  0  0  0  0  0  0  0  0  0
   41.0440   36.7410   39.1840 H   0  0  0  0  0  0  0  0  0  0  0  0
   39.3670   34.2370   39.3540 H   0  0  0  0  0  0  0  0  0  0  0  0
   41.5160   33.2430   40.0250 H   0  0  0  0  0  0  0  0  0  0  0  0
   42.4250   35.4840   37.7770 O   0  0  0  0  0  0  0  0  0  0  0  0
   42.7120   35.0840   36.9060 H   0  0  0  0  0  0  0  0  0  0  0  0
   40.2210   35.1060   37.6460 O   0  0  0  0  0  0  0  0  0  0  0  0
   39.3060   35.4980   37.5440 H   0  0  0  0  0  0  0  0  0  0  0  0
   43.5350   34.1850   40.9050 O   0  0  0  0  0  0  0  0  0  0  0  0
   44.6280   34.3130   41.6590 C   0  0  0  0  0  0  0  0  0  0  0  0
   45.8890   34.4390   41.0820 C   0  0  0  0  0  0  0  0  0  0  0  0
   46.9900   34.5710   41.9220 C   0  0  0  0  0  0  0  0  0  0  0  0
   46.8050   34.5750   43.2960 N   0  0  0  0  0  0  0  0  0  0  0  0
   45.5770   34.4520   43.8050 C   0  0  0  0  0  0  0  0  0  0  0  0
   44.4920   34.3220   43.0050 N   0  0  0  0  0  0  0  0  0  0  0  0
   46.0500   34.4370   40.0240 H   0  0  0  0  0  0  0  0  0  0  0  0
   45.5030   34.4630   44.8790 H   0  0  0  0  0  0  0  0  0  0  0  0
   48.3770   34.7000   41.3370 C   0  0  0  0  0  0  0  0  0  0  0  0
   49.0750   36.0280   41.5190 C   0  0  0  0  0  0  0  0  0  0  0  0
   49.5150   34.7320   42.2210 C   0  0  0  0  0  0  0  0  0  0  0  0
   48.4140   34.3420   40.3080 H   0  0  0  0  0  0  0  0  0  0  0  0
   49.6960   36.4270   40.7140 H   0  0  0  0  0  0  0  0  0  0  0  0
   48.5770   36.7920   42.1470 H   0  0  0  0  0  0  0  0  0  0  0  0
   50.4890   34.3430   41.8140 H   0  0  0  0  0  0  0  0  0  0  0  0
   49.4280   34.7130   43.3210 H   0  0  0  0  0  0  0  0  0  0  0  0
   41.2670   32.7000   38.0190 O   0  0  0  0  0  0  0  0  0  0  0  0
   41.4020   30.4150   37.2760 C   0  0  2  0  0  3  0  0  0  0  0  0
   41.5960   31.4130   38.4130 C   0  0  2  0  0  3  0  0  0  0  0  0
   40.6110   31.0130   39.4930 C   0  0  0  0  0  3  0  0  0  0  0  0
   40.5860   31.7620   40.3330 H   0  0  0  0  0  0  0  0  0  0  0  0
   39.3310   31.0910   38.9070 O   0  0  0  0  0  0  0  0  0  0  0  0
   39.1420   29.8890   38.2220 C   0  0  0  0  0  3  0  0  0  0  0  0
   38.6880   29.1790   38.9420 H   0  0  0  0  0  0  0  0  0  0  0  0
   40.4300   29.3220   37.6640 C   0  0  1  0  0  3  0  0  0  0  0  0
   42.6310   29.8030   37.0200 O   0  0  0  0  0  0  0  0  0  0  0  0
   42.8220   29.1060   37.6940 H   0  0  0  0  0  0  0  0  0  0  0  0
   40.1570   28.5970   36.5010 O   0  0  0  0  0  0  0  0  0  0  0  0
   40.4980   27.6620   36.5460 H   0  0  0  0  0  0  0  0  0  0  0  0
  1  7  1  6  0  0  0
  1  6  1  0  0  0  0
  1  2  1  0  0  0  0
  2  8  1  6  0  0  0
  2  3  1  0  0  0  0
  2 17  1  0  0  0  0
  4  9  1  0  0  0  0
  4  3  1  0  0  0  0
  5  6  1  0  0  0  0
  5 11  1  1  0  0  0
  5  4  1  0  0  0  0
  6 12  1  1  0  0  0
 10  4  1  0  0  0  0
 13  1  1  0  0  0  0
 14 13  1  0  0  0  0
 15  5  1  0  0  0  0
 16 15  1  0  0  0  0
 17 18  1  0  0  0  0
 18 23  1  0  0  0  0
 19 18  2  0  0  0  0
 19 20  1  0  0  0  0
 20 21  2  0  0  0  0
 21 22  1  0  0  0  0
 22 25  1  0  0  0  0
 23 22  2  0  0  0  0
 24 19  1  0  0  0  0
 26 27  1  0  0  0  0
 26 20  1  0  0  0  0
 26 28  1  0  0  0  0
 27 31  1  0  0  0  0
 27 28  1  0  0  0  0
 28 33  1  0  0  0  0
 29 26  1  0  0  0  0
 30 27  1  0  0  0  0
 32 28  1  0  0  0  0
 34  6  1  0  0  0  0
 35 43  1  1  0  0  0
 35 42  1  0  0  0  0
 35 36  1  0  0  0  0
 36 34  1  6  0  0  0
 36 37  1  0  0  0  0
 37 38  1  0  0  0  0
 39 37  1  0  0  0  0
 40 39  1  0  0  0  0
 40 41  1  0  0  0  0
 42 45  1  6  0  0  0
 42 40  1  0  0  0  0
 43 44  1  0  0  0  0
 45 46  1  0  0  0  0
M  END
>  <minimizedAffinity>
-5.96937513

>  <minimizedRMSD>
0.368845761

$$$$
