
 OpenBabel03242523503D

 46 49  0  0  1  0  0  0  0  0999 V2000
   42.7520   34.3810   39.0350 C   0  0  1  0  0  0  0  0  0  0  0  0
   43.1410   35.1570   40.2950 C   0  0  1  0  0  0  0  0  0  0  0  0
   41.9800   35.6860   40.8860 O   0  0  0  0  0  0  0  0  0  0  0  0
   41.0150   36.0590   39.9500 C   0  0  0  0  0  0  0  0  0  0  0  0
   40.4070   34.8360   39.2730 C   0  0  2  0  0  0  0  0  0  0  0  0
   41.4320   33.7070   39.3860 C   0  0  1  0  0  0  0  0  0  0  0  0
   43.5570   33.6480   38.8710 H   0  0  0  0  0  0  0  0  0  0  0  0
   43.8720   35.9340   40.0640 H   0  0  0  0  0  0  0  0  0  0  0  0
   40.2350   36.5820   40.5400 H   0  0  0  0  0  0  0  0  0  0  0  0
   41.3770   36.8130   39.2220 H   0  0  0  0  0  0  0  0  0  0  0  0
   39.4270   34.5600   39.6990 H   0  0  0  0  0  0  0  0  0  0  0  0
   41.4610   33.4050   40.4650 H   0  0  0  0  0  0  0  0  0  0  0  0
   42.5740   35.2490   37.9620 O   0  0  0  0  0  0  0  0  0  0  0  0
   42.7930   34.7190   37.1420 H   0  0  0  0  0  0  0  0  0  0  0  0
   40.3380   35.1190   37.8940 O   0  0  0  0  0  0  0  0  0  0  0  0
   39.4720   35.6010   37.7550 H   0  0  0  0  0  0  0  0  0  0  0  0
   43.5940   34.2000   41.2120 O   0  0  0  0  0  0  0  0  0  0  0  0
   44.7300   34.2670   41.9070 C   0  0  0  0  0  0  0  0  0  0  0  0
   45.9530   34.4610   41.2680 C   0  0  0  0  0  0  0  0  0  0  0  0
   47.1030   34.5250   42.0480 C   0  0  0  0  0  0  0  0  0  0  0  0
   47.0040   34.3930   43.4250 N   0  0  0  0  0  0  0  0  0  0  0  0
   45.8110   34.2090   43.9940 C   0  0  0  0  0  0  0  0  0  0  0  0
   44.6780   34.1440   43.2530 N   0  0  0  0  0  0  0  0  0  0  0  0
   46.0480   34.5640   40.2070 H   0  0  0  0  0  0  0  0  0  0  0  0
   45.8030   34.1140   45.0660 H   0  0  0  0  0  0  0  0  0  0  0  0
   48.4510   34.7240   41.3950 C   0  0  0  0  0  0  0  0  0  0  0  0
   49.0940   36.0820   41.5570 C   0  0  0  0  0  0  0  0  0  0  0  0
   49.6310   34.8010   42.2190 C   0  0  0  0  0  0  0  0  0  0  0  0
   48.4510   34.3780   40.3610 H   0  0  0  0  0  0  0  0  0  0  0  0
   49.6540   36.5170   40.7270 H   0  0  0  0  0  0  0  0  0  0  0  0
   48.5950   36.8150   42.2190 H   0  0  0  0  0  0  0  0  0  0  0  0
   50.5990   34.4620   41.7580 H   0  0  0  0  0  0  0  0  0  0  0  0
   49.6010   34.7660   43.3230 H   0  0  0  0  0  0  0  0  0  0  0  0
   41.1080   32.6660   38.5400 O   0  0  0  0  0  0  0  0  0  0  0  0
   40.7320   30.3220   38.1420 C   0  0  2  0  0  3  0  0  0  0  0  0
   41.1530   31.4110   39.1250 C   0  0  2  0  0  3  0  0  0  0  0  0
   40.1180   31.3980   40.2320 C   0  0  0  0  0  3  0  0  0  0  0  0
   40.2670   32.2510   40.9520 H   0  0  0  0  0  0  0  0  0  0  0  0
   38.8790   31.6650   39.6140 O   0  0  0  0  0  0  0  0  0  0  0  0
   38.4250   30.4450   39.1080 C   0  0  0  0  0  3  0  0  0  0  0  0
   37.8350   29.9650   39.9160 H   0  0  0  0  0  0  0  0  0  0  0  0
   39.5510   29.5360   38.6670 C   0  0  1  0  0  3  0  0  0  0  0  0
   41.7950   29.4270   38.0040 O   0  0  0  0  0  0  0  0  0  0  0  0
   41.8370   28.8120   38.7780 H   0  0  0  0  0  0  0  0  0  0  0  0
   39.1120   28.7240   37.6170 O   0  0  0  0  0  0  0  0  0  0  0  0
   39.2410   27.7550   37.8050 H   0  0  0  0  0  0  0  0  0  0  0  0
  1  7  1  6  0  0  0
  1  6  1  0  0  0  0
  1  2  1  0  0  0  0
  2  8  1  6  0  0  0
  2  3  1  0  0  0  0
  2 17  1  0  0  0  0
  4  9  1  0  0  0  0
  4  3  1  0  0  0  0
  5  6  1  0  0  0  0
  5 11  1  1  0  0  0
  5  4  1  0  0  0  0
  6 12  1  1  0  0  0
 10  4  1  0  0  0  0
 13  1  1  0  0  0  0
 14 13  1  0  0  0  0
 15  5  1  0  0  0  0
 16 15  1  0  0  0  0
 17 18  1  0  0  0  0
 18 23  1  0  0  0  0
 19 18  2  0  0  0  0
 19 20  1  0  0  0  0
 20 21  2  0  0  0  0
 21 22  1  0  0  0  0
 22 25  1  0  0  0  0
 23 22  2  0  0  0  0
 24 19  1  0  0  0  0
 26 27  1  0  0  0  0
 26 20  1  0  0  0  0
 26 28  1  0  0  0  0
 27 31  1  0  0  0  0
 27 28  1  0  0  0  0
 28 33  1  0  0  0  0
 29 26  1  0  0  0  0
 30 27  1  0  0  0  0
 32 28  1  0  0  0  0
 34  6  1  0  0  0  0
 35 43  1  1  0  0  0
 35 42  1  0  0  0  0
 35 36  1  0  0  0  0
 36 34  1  6  0  0  0
 36 37  1  0  0  0  0
 37 38  1  0  0  0  0
 39 37  1  0  0  0  0
 40 39  1  0  0  0  0
 40 41  1  0  0  0  0
 42 45  1  6  0  0  0
 42 40  1  0  0  0  0
 43 44  1  0  0  0  0
 45 46  1  0  0  0  0
M  END
>  <minimizedAffinity>
-5.9077158

>  <minimizedRMSD>
1.05849838

$$$$
