
 OpenBabel03242523493D

 46 49  0  0  1  0  0  0  0  0999 V2000
   42.8200   34.5320   38.7100 C   0  0  1  0  0  0  0  0  0  0  0  0
   42.9590   35.1810   40.0880 C   0  0  1  0  0  0  0  0  0  0  0  0
   41.6770   35.4260   40.6130 O   0  0  0  0  0  0  0  0  0  0  0  0
   40.7430   35.7610   39.6310 C   0  0  0  0  0  0  0  0  0  0  0  0
   40.4190   34.5590   38.7510 C   0  0  2  0  0  0  0  0  0  0  0  0
   41.6140   33.6090   38.8350 C   0  0  1  0  0  0  0  0  0  0  0  0
   43.7510   33.9710   38.5450 H   0  0  0  0  0  0  0  0  0  0  0  0
   43.5580   36.0910   40.0320 H   0  0  0  0  0  0  0  0  0  0  0  0
   39.8370   36.0630   40.1940 H   0  0  0  0  0  0  0  0  0  0  0  0
   41.0260   36.6570   39.0420 H   0  0  0  0  0  0  0  0  0  0  0  0
   39.4710   34.0700   39.0340 H   0  0  0  0  0  0  0  0  0  0  0  0
   41.6050   33.1710   39.8670 H   0  0  0  0  0  0  0  0  0  0  0  0
   42.5810   35.4980   37.7370 O   0  0  0  0  0  0  0  0  0  0  0  0
   42.9580   35.1290   36.8860 H   0  0  0  0  0  0  0  0  0  0  0  0
   40.4180   35.0130   37.4170 O   0  0  0  0  0  0  0  0  0  0  0  0
   39.4950   35.3610   37.2450 H   0  0  0  0  0  0  0  0  0  0  0  0
   43.4940   34.1950   40.9260 O   0  0  0  0  0  0  0  0  0  0  0  0
   44.5930   34.3220   41.6710 C   0  0  0  0  0  0  0  0  0  0  0  0
   45.8510   34.4370   41.0830 C   0  0  0  0  0  0  0  0  0  0  0  0
   46.9590   34.5700   41.9140 C   0  0  0  0  0  0  0  0  0  0  0  0
   46.7850   34.5820   43.2900 N   0  0  0  0  0  0  0  0  0  0  0  0
   45.5600   34.4680   43.8080 C   0  0  0  0  0  0  0  0  0  0  0  0
   44.4680   34.3390   43.0170 N   0  0  0  0  0  0  0  0  0  0  0  0
   46.0040   34.4290   40.0240 H   0  0  0  0  0  0  0  0  0  0  0  0
   45.4950   34.4850   44.8830 H   0  0  0  0  0  0  0  0  0  0  0  0
   48.3430   34.6880   41.3180 C   0  0  0  0  0  0  0  0  0  0  0  0
   49.0590   36.0040   41.5110 C   0  0  0  0  0  0  0  0  0  0  0  0
   49.4890   34.6920   42.1910 C   0  0  0  0  0  0  0  0  0  0  0  0
   48.3650   34.3430   40.2840 H   0  0  0  0  0  0  0  0  0  0  0  0
   49.6790   36.4050   40.7070 H   0  0  0  0  0  0  0  0  0  0  0  0
   48.5780   36.7650   42.1550 H   0  0  0  0  0  0  0  0  0  0  0  0
   50.4540   34.2960   41.7690 H   0  0  0  0  0  0  0  0  0  0  0  0
   49.4120   34.6590   43.2920 H   0  0  0  0  0  0  0  0  0  0  0  0
   41.5500   32.6550   37.8390 O   0  0  0  0  0  0  0  0  0  0  0  0
   42.9200   30.8230   37.0910 C   0  0  2  0  0  3  0  0  0  0  0  0
   42.0510   31.4130   38.1970 C   0  0  2  0  0  3  0  0  0  0  0  0
   40.8660   30.4800   38.3420 C   0  0  0  0  0  3  0  0  0  0  0  0
   40.0950   30.8920   39.0520 H   0  0  0  0  0  0  0  0  0  0  0  0
   40.2230   30.4640   37.0870 O   0  0  0  0  0  0  0  0  0  0  0  0
   40.9180   29.5410   36.3050 C   0  0  0  0  0  3  0  0  0  0  0  0
   40.4420   28.5540   36.4790 H   0  0  0  0  0  0  0  0  0  0  0  0
   42.3910   29.4790   36.6380 C   0  0  1  0  0  3  0  0  0  0  0  0
   44.2000   30.6100   37.6120 O   0  0  0  0  0  0  0  0  0  0  0  0
   44.2200   29.7900   38.1640 H   0  0  0  0  0  0  0  0  0  0  0  0
   43.1160   29.1300   35.4940 O   0  0  0  0  0  0  0  0  0  0  0  0
   43.6900   28.3300   35.6350 H   0  0  0  0  0  0  0  0  0  0  0  0
  1  7  1  6  0  0  0
  1  6  1  0  0  0  0
  1  2  1  0  0  0  0
  2  8  1  6  0  0  0
  2  3  1  0  0  0  0
  2 17  1  0  0  0  0
  4  9  1  0  0  0  0
  4  3  1  0  0  0  0
  5  6  1  0  0  0  0
  5 11  1  1  0  0  0
  5  4  1  0  0  0  0
  6 12  1  1  0  0  0
 10  4  1  0  0  0  0
 13  1  1  0  0  0  0
 14 13  1  0  0  0  0
 15  5  1  0  0  0  0
 16 15  1  0  0  0  0
 17 18  1  0  0  0  0
 18 23  1  0  0  0  0
 19 18  2  0  0  0  0
 19 20  1  0  0  0  0
 20 21  2  0  0  0  0
 21 22  1  0  0  0  0
 22 25  1  0  0  0  0
 23 22  2  0  0  0  0
 24 19  1  0  0  0  0
 26 27  1  0  0  0  0
 26 20  1  0  0  0  0
 26 28  1  0  0  0  0
 27 31  1  0  0  0  0
 27 28  1  0  0  0  0
 28 33  1  0  0  0  0
 29 26  1  0  0  0  0
 30 27  1  0  0  0  0
 32 28  1  0  0  0  0
 34  6  1  0  0  0  0
 35 43  1  1  0  0  0
 35 36  1  0  0  0  0
 36 34  1  6  0  0  0
 36 37  1  0  0  0  0
 37 38  1  0  0  0  0
 39 37  1  0  0  0  0
 40 41  1  0  0  0  0
 40 42  1  0  0  0  0
 40 39  1  0  0  0  0
 42 45  1  6  0  0  0
 42 35  1  0  0  0  0
 43 44  1  0  0  0  0
 45 46  1  0  0  0  0
M  END
>  <minimizedAffinity>
-6.01988888

>  <minimizedRMSD>
0.426331908

$$$$
