
 OpenBabel03242523503D

 46 49  0  0  1  0  0  0  0  0999 V2000
   42.8170   34.5160   38.7590 C   0  0  1  0  0  0  0  0  0  0  0  0
   42.9320   35.1970   40.1230 C   0  0  1  0  0  0  0  0  0  0  0  0
   41.6410   35.4460   40.6240 O   0  0  0  0  0  0  0  0  0  0  0  0
   40.7200   35.7530   39.6210 C   0  0  0  0  0  0  0  0  0  0  0  0
   40.4160   34.5300   38.7640 C   0  0  2  0  0  0  0  0  0  0  0  0
   41.6150   33.5890   38.8860 C   0  0  1  0  0  0  0  0  0  0  0  0
   43.7540   33.9570   38.6200 H   0  0  0  0  0  0  0  0  0  0  0  0
   43.5260   36.1100   40.0550 H   0  0  0  0  0  0  0  0  0  0  0  0
   39.8030   36.0620   40.1640 H   0  0  0  0  0  0  0  0  0  0  0  0
   41.0070   36.6380   39.0160 H   0  0  0  0  0  0  0  0  0  0  0  0
   39.4660   34.0420   39.0440 H   0  0  0  0  0  0  0  0  0  0  0  0
   41.5930   33.1740   39.9280 H   0  0  0  0  0  0  0  0  0  0  0  0
   42.5870   35.4580   37.7600 O   0  0  0  0  0  0  0  0  0  0  0  0
   42.9790   35.0720   36.9240 H   0  0  0  0  0  0  0  0  0  0  0  0
   40.4310   34.9540   37.4200 O   0  0  0  0  0  0  0  0  0  0  0  0
   39.5100   35.2920   37.2270 H   0  0  0  0  0  0  0  0  0  0  0  0
   43.4600   34.2330   40.9910 O   0  0  0  0  0  0  0  0  0  0  0  0
   44.5720   34.3670   41.7160 C   0  0  0  0  0  0  0  0  0  0  0  0
   45.8210   34.4620   41.1060 C   0  0  0  0  0  0  0  0  0  0  0  0
   46.9430   34.6030   41.9170 C   0  0  0  0  0  0  0  0  0  0  0  0
   46.7910   34.6440   43.2940 N   0  0  0  0  0  0  0  0  0  0  0  0
   45.5740   34.5490   43.8350 C   0  0  0  0  0  0  0  0  0  0  0  0
   44.4680   34.4120   43.0640 N   0  0  0  0  0  0  0  0  0  0  0  0
   45.9570   34.4320   40.0450 H   0  0  0  0  0  0  0  0  0  0  0  0
   45.5260   34.5870   44.9100 H   0  0  0  0  0  0  0  0  0  0  0  0
   48.3180   34.7000   41.2970 C   0  0  0  0  0  0  0  0  0  0  0  0
   49.0650   35.9980   41.4920 C   0  0  0  0  0  0  0  0  0  0  0  0
   49.4800   34.6690   42.1480 C   0  0  0  0  0  0  0  0  0  0  0  0
   48.3140   34.3680   40.2580 H   0  0  0  0  0  0  0  0  0  0  0  0
   49.6780   36.3970   40.6810 H   0  0  0  0  0  0  0  0  0  0  0  0
   48.6120   36.7610   42.1540 H   0  0  0  0  0  0  0  0  0  0  0  0
   50.4280   34.2580   41.7030 H   0  0  0  0  0  0  0  0  0  0  0  0
   49.4220   34.6240   43.2500 H   0  0  0  0  0  0  0  0  0  0  0  0
   41.5710   32.6130   37.9120 O   0  0  0  0  0  0  0  0  0  0  0  0
   41.8730   31.2780   39.8920 C   0  0  2  0  0  3  0  0  0  0  0  0
   41.5740   31.3140   38.3960 C   0  0  2  0  0  3  0  0  0  0  0  0
   42.7220   30.5900   37.7230 C   0  0  0  0  0  3  0  0  0  0  0  0
   42.6610   30.6660   36.6010 H   0  0  0  0  0  0  0  0  0  0  0  0
   43.8900   31.3000   38.0660 O   0  0  0  0  0  0  0  0  0  0  0  0
   44.2730   30.8340   39.3270 C   0  0  0  0  0  3  0  0  0  0  0  0
   44.9400   29.9650   39.1560 H   0  0  0  0  0  0  0  0  0  0  0  0
   43.0950   30.4350   40.1860 C   0  0  1  0  0  3  0  0  0  0  0  0
   40.7900   30.6760   40.5380 O   0  0  0  0  0  0  0  0  0  0  0  0
   40.8240   29.6940   40.4350 H   0  0  0  0  0  0  0  0  0  0  0  0
   43.4080   30.6410   41.5340 O   0  0  0  0  0  0  0  0  0  0  0  0
   43.2890   29.8190   42.0830 H   0  0  0  0  0  0  0  0  0  0  0  0
  1  7  1  6  0  0  0
  1  6  1  0  0  0  0
  1  2  1  0  0  0  0
  2  8  1  6  0  0  0
  2  3  1  0  0  0  0
  2 17  1  0  0  0  0
  4  9  1  0  0  0  0
  4  3  1  0  0  0  0
  5  6  1  0  0  0  0
  5 11  1  1  0  0  0
  5  4  1  0  0  0  0
  6 12  1  1  0  0  0
 10  4  1  0  0  0  0
 13  1  1  0  0  0  0
 14 13  1  0  0  0  0
 15  5  1  0  0  0  0
 16 15  1  0  0  0  0
 17 18  1  0  0  0  0
 18 23  1  0  0  0  0
 19 18  2  0  0  0  0
 19 20  1  0  0  0  0
 20 21  2  0  0  0  0
 21 22  1  0  0  0  0
 22 25  1  0  0  0  0
 23 22  2  0  0  0  0
 24 19  1  0  0  0  0
 26 27  1  0  0  0  0
 26 20  1  0  0  0  0
 26 28  1  0  0  0  0
 27 28  1  0  0  0  0
 27 31  1  0  0  0  0
 28 33  1  0  0  0  0
 29 26  1  0  0  0  0
 30 27  1  0  0  0  0
 32 28  1  0  0  0  0
 34  6  1  0  0  0  0
 35 42  1  0  0  0  0
 35 43  1  1  0  0  0
 36 34  1  6  0  0  0
 36 35  1  0  0  0  0
 37 39  1  0  0  0  0
 37 36  1  0  0  0  0
 38 37  1  0  0  0  0
 39 40  1  0  0  0  0
 40 42  1  0  0  0  0
 41 40  1  0  0  0  0
 42 45  1  1  0  0  0
 44 43  1  0  0  0  0
 45 46  1  0  0  0  0
M  END
>  <minimizedAffinity>
-5.9310751

>  <minimizedRMSD>
0.384942293

$$$$
