
 OpenBabel03242523533D

 46 49  0  0  1  0  0  0  0  0999 V2000
   41.1880   31.2420   39.9070 C   0  0  1  0  0  0  0  0  0  0  0  0
   41.6300   31.8230   41.2510 C   0  0  1  0  0  0  0  0  0  0  0  0
   41.5160   33.2240   41.2060 O   0  0  0  0  0  0  0  0  0  0  0  0
   41.7960   33.7520   39.9440 C   0  0  0  0  0  0  0  0  0  0  0  0
   40.7050   33.3880   38.9440 C   0  0  2  0  0  0  0  0  0  0  0  0
   40.0250   32.1210   39.4660 C   0  0  1  0  0  0  0  0  0  0  0  0
   40.8680   30.2100   40.1140 H   0  0  0  0  0  0  0  0  0  0  0  0
   42.6430   31.5040   41.5000 H   0  0  0  0  0  0  0  0  0  0  0  0
   41.8090   34.8510   40.0940 H   0  0  0  0  0  0  0  0  0  0  0  0
   42.8120   33.5000   39.5780 H   0  0  0  0  0  0  0  0  0  0  0  0
   39.9890   34.2120   38.7780 H   0  0  0  0  0  0  0  0  0  0  0  0
   39.4400   32.4200   40.3740 H   0  0  0  0  0  0  0  0  0  0  0  0
   42.2220   31.3190   38.9780 O   0  0  0  0  0  0  0  0  0  0  0  0
   42.0770   30.5590   38.3430 H   0  0  0  0  0  0  0  0  0  0  0  0
   41.3500   32.9840   37.7590 O   0  0  0  0  0  0  0  0  0  0  0  0
   41.5190   33.8210   37.2380 H   0  0  0  0  0  0  0  0  0  0  0  0
   40.6600   31.4250   42.1790 O   0  0  0  0  0  0  0  0  0  0  0  0
   40.3090   30.1660   42.4440 C   0  0  0  0  0  0  0  0  0  0  0  0
   38.9880   29.7430   42.3080 C   0  0  0  0  0  0  0  0  0  0  0  0
   38.6860   28.4170   42.5970 C   0  0  0  0  0  0  0  0  0  0  0  0
   39.6950   27.5590   43.0080 N   0  0  0  0  0  0  0  0  0  0  0  0
   40.9460   28.0080   43.1240 C   0  0  0  0  0  0  0  0  0  0  0  0
   41.2620   29.2960   42.8470 N   0  0  0  0  0  0  0  0  0  0  0  0
   38.1970   30.3920   41.9930 H   0  0  0  0  0  0  0  0  0  0  0  0
   41.6820   27.2910   43.4470 H   0  0  0  0  0  0  0  0  0  0  0  0
   37.2640   27.9200   42.4730 C   0  0  0  0  0  0  0  0  0  0  0  0
   37.0500   26.4280   42.5820 C   0  0  0  0  0  0  0  0  0  0  0  0
   36.5800   27.4370   43.6450 C   0  0  0  0  0  0  0  0  0  0  0  0
   36.7610   28.3560   41.6090 H   0  0  0  0  0  0  0  0  0  0  0  0
   36.3010   25.9420   41.9530 H   0  0  0  0  0  0  0  0  0  0  0  0
   37.9220   25.7980   42.8430 H   0  0  0  0  0  0  0  0  0  0  0  0
   35.4600   27.5400   43.6620 H   0  0  0  0  0  0  0  0  0  0  0  0
   37.0570   27.3650   44.6380 H   0  0  0  0  0  0  0  0  0  0  0  0
   39.2460   31.5450   38.4830 O   0  0  0  0  0  0  0  0  0  0  0  0
   37.3430   31.9640   39.8960 C   0  0  2  0  0  3  0  0  0  0  0  0
   37.9220   31.9530   38.4840 C   0  0  2  0  0  3  0  0  0  0  0  0
   37.1340   30.9100   37.7180 C   0  0  0  0  0  3  0  0  0  0  0  0
   37.5640   30.7320   36.6920 H   0  0  0  0  0  0  0  0  0  0  0  0
   37.3280   29.6910   38.4000 O   0  0  0  0  0  0  0  0  0  0  0  0
   36.4080   29.6840   39.4510 C   0  0  0  0  0  3  0  0  0  0  0  0
   35.4770   29.2290   39.0570 H   0  0  0  0  0  0  0  0  0  0  0  0
   36.1300   31.0650   39.9980 C   0  0  1  0  0  3  0  0  0  0  0  0
   36.9200   33.2640   40.1810 O   0  0  0  0  0  0  0  0  0  0  0  0
   36.0520   33.4520   39.7470 H   0  0  0  0  0  0  0  0  0  0  0  0
   35.8120   30.9760   41.3570 O   0  0  0  0  0  0  0  0  0  0  0  0
   34.9350   31.3960   41.5720 H   0  0  0  0  0  0  0  0  0  0  0  0
  1  7  1  1  0  0  0
  1  2  1  0  0  0  0
  2  8  1  1  0  0  0
  2 17  1  0  0  0  0
  3  2  1  0  0  0  0
  4  9  1  0  0  0  0
  4  3  1  0  0  0  0
  5 11  1  6  0  0  0
  5  6  1  0  0  0  0
  5  4  1  0  0  0  0
  6  1  1  0  0  0  0
  6 12  1  1  0  0  0
 10  4  1  0  0  0  0
 13  1  1  0  0  0  0
 14 13  1  0  0  0  0
 15  5  1  0  0  0  0
 16 15  1  0  0  0  0
 17 18  1  0  0  0  0
 18 23  1  0  0  0  0
 19 18  2  0  0  0  0
 19 20  1  0  0  0  0
 20 21  2  0  0  0  0
 21 22  1  0  0  0  0
 22 25  1  0  0  0  0
 23 22  2  0  0  0  0
 24 19  1  0  0  0  0
 26 27  1  0  0  0  0
 26 20  1  0  0  0  0
 26 28  1  0  0  0  0
 27 31  1  0  0  0  0
 27 28  1  0  0  0  0
 28 32  1  0  0  0  0
 28 33  1  0  0  0  0
 29 26  1  0  0  0  0
 30 27  1  0  0  0  0
 34  6  1  0  0  0  0
 35 42  1  0  0  0  0
 35 43  1  6  0  0  0
 36 34  1  1  0  0  0
 36 35  1  0  0  0  0
 37 39  1  0  0  0  0
 37 36  1  0  0  0  0
 38 37  1  0  0  0  0
 39 40  1  0  0  0  0
 40 42  1  0  0  0  0
 41 40  1  0  0  0  0
 42 45  1  1  0  0  0
 44 43  1  0  0  0  0
 45 46  1  0  0  0  0
M  END
>  <minimizedAffinity>
-6.42871714

$$$$

 OpenBabel03242523533D

 46 49  0  0  1  0  0  0  0  0999 V2000
   40.6190   30.4460   40.2710 C   0  0  1  0  0  0  0  0  0  0  0  0
   40.8270   30.6270   41.7760 C   0  0  1  0  0  0  0  0  0  0  0  0
   41.1410   31.9730   42.0380 O   0  0  0  0  0  0  0  0  0  0  0  0
   41.8940   32.5630   41.0220 C   0  0  0  0  0  0  0  0  0  0  0  0
   41.0590   32.7510   39.7600 C   0  0  2  0  0  0  0  0  0  0  0  0
   39.9270   31.7250   39.8170 C   0  0  1  0  0  0  0  0  0  0  0  0
   39.9700   29.5650   40.1590 H   0  0  0  0  0  0  0  0  0  0  0  0
   41.5960   29.9490   42.1480 H   0  0  0  0  0  0  0  0  0  0  0  0
   42.1840   33.5550   41.4250 H   0  0  0  0  0  0  0  0  0  0  0  0
   42.8530   32.0420   40.8260 H   0  0  0  0  0  0  0  0  0  0  0  0
   40.6870   33.7840   39.6480 H   0  0  0  0  0  0  0  0  0  0  0  0
   39.2290   32.0600   40.6290 H   0  0  0  0  0  0  0  0  0  0  0  0
   41.8430   30.3110   39.6220 O   0  0  0  0  0  0  0  0  0  0  0  0
   41.6620   29.7530   38.8110 H   0  0  0  0  0  0  0  0  0  0  0  0
   41.8570   32.3410   38.6730 O   0  0  0  0  0  0  0  0  0  0  0  0
   42.3970   33.1410   38.4100 H   0  0  0  0  0  0  0  0  0  0  0  0
   39.5690   30.4430   42.3630 O   0  0  0  0  0  0  0  0  0  0  0  0
   39.0400   29.2700   42.7140 C   0  0  0  0  0  0  0  0  0  0  0  0
   39.8500   28.1740   43.0040 C   0  0  0  0  0  0  0  0  0  0  0  0
   39.2390   26.9790   43.3670 C   0  0  0  0  0  0  0  0  0  0  0  0
   37.8550   26.9080   43.4300 N   0  0  0  0  0  0  0  0  0  0  0  0
   37.1190   27.9850   43.1430 C   0  0  0  0  0  0  0  0  0  0  0  0
   37.6940   29.1590   42.7880 N   0  0  0  0  0  0  0  0  0  0  0  0
   40.9180   28.2100   42.9600 H   0  0  0  0  0  0  0  0  0  0  0  0
   36.0510   27.8630   43.2110 H   0  0  0  0  0  0  0  0  0  0  0  0
   40.0800   25.7620   43.6800 C   0  0  0  0  0  0  0  0  0  0  0  0
   39.6450   24.4540   43.0630 C   0  0  0  0  0  0  0  0  0  0  0  0
   40.9240   25.2050   42.6540 C   0  0  0  0  0  0  0  0  0  0  0  0
   40.2820   25.6790   44.7480 H   0  0  0  0  0  0  0  0  0  0  0  0
   39.7400   23.5280   43.6350 H   0  0  0  0  0  0  0  0  0  0  0  0
   38.8020   24.4750   42.3460 H   0  0  0  0  0  0  0  0  0  0  0  0
   41.8540   24.6690   42.9920 H   0  0  0  0  0  0  0  0  0  0  0  0
   40.9590   25.5930   41.6210 H   0  0  0  0  0  0  0  0  0  0  0  0
   39.3130   31.6070   38.5870 O   0  0  0  0  0  0  0  0  0  0  0  0
   37.3780   31.9730   39.9720 C   0  0  2  0  0  3  0  0  0  0  0  0
   37.9790   31.9860   38.5700 C   0  0  2  0  0  3  0  0  0  0  0  0
   37.2270   30.9320   37.7830 C   0  0  0  0  0  3  0  0  0  0  0  0
   37.6780   30.7720   36.7620 H   0  0  0  0  0  0  0  0  0  0  0  0
   37.4370   29.7120   38.4580 O   0  0  0  0  0  0  0  0  0  0  0  0
   36.5010   29.6760   39.4950 C   0  0  0  0  0  3  0  0  0  0  0  0
   35.5870   29.2050   39.0810 H   0  0  0  0  0  0  0  0  0  0  0  0
   36.1840   31.0460   40.0480 C   0  0  1  0  0  3  0  0  0  0  0  0
   36.9220   33.2610   40.2610 O   0  0  0  0  0  0  0  0  0  0  0  0
   36.0560   33.4330   39.8140 H   0  0  0  0  0  0  0  0  0  0  0  0
   35.8450   30.9390   41.4000 O   0  0  0  0  0  0  0  0  0  0  0  0
   34.9570   31.3390   41.6040 H   0  0  0  0  0  0  0  0  0  0  0  0
  1  7  1  6  0  0  0
  1  2  1  0  0  0  0
  2  3  1  0  0  0  0
  2  8  1  1  0  0  0
  2 17  1  0  0  0  0
  4  9  1  0  0  0  0
  4  3  1  0  0  0  0
  5 11  1  6  0  0  0
  5  6  1  0  0  0  0
  5  4  1  0  0  0  0
  6  1  1  0  0  0  0
  6 12  1  1  0  0  0
 10  4  1  0  0  0  0
 13  1  1  0  0  0  0
 14 13  1  0  0  0  0
 15  5  1  0  0  0  0
 16 15  1  0  0  0  0
 17 18  1  0  0  0  0
 18 23  2  0  0  0  0
 18 19  1  0  0  0  0
 19 20  2  0  0  0  0
 20 21  1  0  0  0  0
 20 26  1  0  0  0  0
 22 25  1  0  0  0  0
 22 21  2  0  0  0  0
 23 22  1  0  0  0  0
 24 19  1  0  0  0  0
 26 29  1  0  0  0  0
 27 30  1  0  0  0  0
 27 26  1  0  0  0  0
 28 32  1  0  0  0  0
 28 27  1  0  0  0  0
 28 26  1  0  0  0  0
 31 27  1  0  0  0  0
 33 28  1  0  0  0  0
 34  6  1  0  0  0  0
 35 42  1  0  0  0  0
 35 43  1  6  0  0  0
 36 34  1  1  0  0  0
 36 35  1  0  0  0  0
 37 39  1  0  0  0  0
 37 36  1  0  0  0  0
 38 37  1  0  0  0  0
 39 40  1  0  0  0  0
 40 42  1  0  0  0  0
 41 40  1  0  0  0  0
 42 45  1  1  0  0  0
 44 43  1  0  0  0  0
 45 46  1  0  0  0  0
M  END
>  <minimizedAffinity>
-6.38905954

$$$$

 OpenBabel03242523533D

 46 49  0  0  1  0  0  0  0  0999 V2000
   37.6030   29.1410   41.8180 C   0  0  1  0  0  0  0  0  0  0  0  0
   37.1490   27.7180   41.4900 C   0  0  1  0  0  0  0  0  0  0  0  0
   36.1300   27.7710   40.5220 O   0  0  0  0  0  0  0  0  0  0  0  0
   35.3080   28.8910   40.6610 C   0  0  0  0  0  0  0  0  0  0  0  0
   36.0560   30.1680   40.2960 C   0  0  2  0  0  0  0  0  0  0  0  0
   37.5460   29.8840   40.4900 C   0  0  1  0  0  0  0  0  0  0  0  0
   38.6330   29.0500   42.1950 H   0  0  0  0  0  0  0  0  0  0  0  0
   36.8280   27.1930   42.3920 H   0  0  0  0  0  0  0  0  0  0  0  0
   34.4820   28.7260   39.9390 H   0  0  0  0  0  0  0  0  0  0  0  0
   34.8130   28.9540   41.6520 H   0  0  0  0  0  0  0  0  0  0  0  0
   35.8230   30.5190   39.2760 H   0  0  0  0  0  0  0  0  0  0  0  0
   37.8470   29.1770   39.6730 H   0  0  0  0  0  0  0  0  0  0  0  0
   36.7350   29.7320   42.7320 O   0  0  0  0  0  0  0  0  0  0  0  0
   37.2850   30.3940   43.2430 H   0  0  0  0  0  0  0  0  0  0  0  0
   35.7440   31.1240   41.2830 O   0  0  0  0  0  0  0  0  0  0  0  0
   34.8950   31.5610   40.9850 H   0  0  0  0  0  0  0  0  0  0  0  0
   38.2250   27.1130   40.8280 O   0  0  0  0  0  0  0  0  0  0  0  0
   39.1930   26.4020   41.4090 C   0  0  0  0  0  0  0  0  0  0  0  0
   40.4570   26.3010   40.8310 C   0  0  0  0  0  0  0  0  0  0  0  0
   41.4240   25.5460   41.4870 C   0  0  0  0  0  0  0  0  0  0  0  0
   41.1090   24.9200   42.6830 N   0  0  0  0  0  0  0  0  0  0  0  0
   39.8850   25.0450   43.2000 C   0  0  0  0  0  0  0  0  0  0  0  0
   38.9280   25.7760   42.5780 N   0  0  0  0  0  0  0  0  0  0  0  0
   40.7160   26.7760   39.9090 H   0  0  0  0  0  0  0  0  0  0  0  0
   39.7060   24.5340   44.1310 H   0  0  0  0  0  0  0  0  0  0  0  0
   42.8050   25.4030   40.8900 C   0  0  0  0  0  0  0  0  0  0  0  0
   43.5000   26.6740   40.4610 C   0  0  0  0  0  0  0  0  0  0  0  0
   43.9520   25.8170   41.6570 C   0  0  0  0  0  0  0  0  0  0  0  0
   42.8320   24.6280   40.1230 H   0  0  0  0  0  0  0  0  0  0  0  0
   44.1120   26.6770   39.5570 H   0  0  0  0  0  0  0  0  0  0  0  0
   43.0060   27.6370   40.6950 H   0  0  0  0  0  0  0  0  0  0  0  0
   44.9230   25.2870   41.4520 H   0  0  0  0  0  0  0  0  0  0  0  0
   43.8760   26.2840   42.6550 H   0  0  0  0  0  0  0  0  0  0  0  0
   38.2710   31.0570   40.4880 O   0  0  0  0  0  0  0  0  0  0  0  0
   39.1080   31.0960   38.2310 C   0  0  2  0  0  3  0  0  0  0  0  0
   38.2320   31.7570   39.2920 C   0  0  2  0  0  3  0  0  0  0  0  0
   38.8470   33.1170   39.5520 C   0  0  0  0  0  3  0  0  0  0  0  0
   38.3470   33.6430   40.4140 H   0  0  0  0  0  0  0  0  0  0  0  0
   40.1630   32.8770   39.9990 O   0  0  0  0  0  0  0  0  0  0  0  0
   40.9350   32.6930   38.8490 C   0  0  0  0  0  3  0  0  0  0  0  0
   41.3000   33.6950   38.5480 H   0  0  0  0  0  0  0  0  0  0  0  0
   40.1640   32.0510   37.7190 C   0  0  1  0  0  3  0  0  0  0  0  0
   38.2950   30.7580   37.1470 O   0  0  0  0  0  0  0  0  0  0  0  0
   38.1020   31.5540   36.5930 H   0  0  0  0  0  0  0  0  0  0  0  0
   41.0350   31.2980   36.9260 O   0  0  0  0  0  0  0  0  0  0  0  0
   41.0010   31.5600   35.9670 H   0  0  0  0  0  0  0  0  0  0  0  0
  1  7  1  1  0  0  0
  1 13  1  0  0  0  0
  2  1  1  0  0  0  0
  2  8  1  1  0  0  0
  3  4  1  0  0  0  0
  3  2  1  0  0  0  0
  4 10  1  0  0  0  0
  5 11  1  6  0  0  0
  5  6  1  0  0  0  0
  5  4  1  0  0  0  0
  5 15  1  0  0  0  0
  6 12  1  6  0  0  0
  6  1  1  0  0  0  0
  9  4  1  0  0  0  0
 13 14  1  0  0  0  0
 16 15  1  0  0  0  0
 17 18  1  0  0  0  0
 17  2  1  0  0  0  0
 18 23  1  0  0  0  0
 19 18  2  0  0  0  0
 19 20  1  0  0  0  0
 20 21  2  0  0  0  0
 21 22  1  0  0  0  0
 22 25  1  0  0  0  0
 23 22  2  0  0  0  0
 24 19  1  0  0  0  0
 26 20  1  0  0  0  0
 26 28  1  0  0  0  0
 27 31  1  0  0  0  0
 27 26  1  0  0  0  0
 27 28  1  0  0  0  0
 28 33  1  0  0  0  0
 29 26  1  0  0  0  0
 30 27  1  0  0  0  0
 32 28  1  0  0  0  0
 34  6  1  0  0  0  0
 35 43  1  6  0  0  0
 35 36  1  0  0  0  0
 36 37  1  0  0  0  0
 36 34  1  1  0  0  0
 37 39  1  0  0  0  0
 37 38  1  0  0  0  0
 40 39  1  0  0  0  0
 41 40  1  0  0  0  0
 42 45  1  6  0  0  0
 42 35  1  0  0  0  0
 42 40  1  0  0  0  0
 44 43  1  0  0  0  0
 46 45  1  0  0  0  0
M  END
>  <minimizedAffinity>
-6.14619589

$$$$

 OpenBabel03242523533D

 46 49  0  0  1  0  0  0  0  0999 V2000
   38.7190   31.5030   39.9720 C   0  0  1  0  0  0  0  0  0  0  0  0
   39.6280   32.1950   40.9890 C   0  0  1  0  0  0  0  0  0  0  0  0
   39.1800   33.5140   41.1840 O   0  0  0  0  0  0  0  0  0  0  0  0
   38.6500   34.0840   40.0260 C   0  0  0  0  0  0  0  0  0  0  0  0
   37.3240   33.4310   39.6530 C   0  0  2  0  0  0  0  0  0  0  0  0
   37.3230   32.0340   40.2740 C   0  0  1  0  0  0  0  0  0  0  0  0
   38.8010   30.4250   40.1770 H   0  0  0  0  0  0  0  0  0  0  0  0
   40.6700   32.1610   40.6660 H   0  0  0  0  0  0  0  0  0  0  0  0
   38.4780   35.1480   40.2880 H   0  0  0  0  0  0  0  0  0  0  0  0
   39.3670   34.1100   39.1800 H   0  0  0  0  0  0  0  0  0  0  0  0
   36.4530   34.0320   39.9650 H   0  0  0  0  0  0  0  0  0  0  0  0
   37.2270   32.1750   41.3820 H   0  0  0  0  0  0  0  0  0  0  0  0
   39.0880   31.8450   38.6740 O   0  0  0  0  0  0  0  0  0  0  0  0
   38.8260   31.0670   38.1020 H   0  0  0  0  0  0  0  0  0  0  0  0
   37.3550   33.2030   38.2620 O   0  0  0  0  0  0  0  0  0  0  0  0
   37.0340   34.0500   37.8360 H   0  0  0  0  0  0  0  0  0  0  0  0
   39.3880   31.5610   42.2150 O   0  0  0  0  0  0  0  0  0  0  0  0
   39.6880   30.2950   42.5060 C   0  0  0  0  0  0  0  0  0  0  0  0
   38.6950   29.3820   42.8550 C   0  0  0  0  0  0  0  0  0  0  0  0
   39.0710   28.0750   43.1450 C   0  0  0  0  0  0  0  0  0  0  0  0
   40.4090   27.7170   43.0810 N   0  0  0  0  0  0  0  0  0  0  0  0
   41.3270   28.6260   42.7410 C   0  0  0  0  0  0  0  0  0  0  0  0
   40.9820   29.9040   42.4540 N   0  0  0  0  0  0  0  0  0  0  0  0
   37.6580   29.6410   42.9100 H   0  0  0  0  0  0  0  0  0  0  0  0
   42.3470   28.2840   42.7100 H   0  0  0  0  0  0  0  0  0  0  0  0
   38.0270   27.0560   43.5380 C   0  0  0  0  0  0  0  0  0  0  0  0
   36.5850   27.5050   43.4990 C   0  0  0  0  0  0  0  0  0  0  0  0
   37.1840   26.4800   42.5210 C   0  0  0  0  0  0  0  0  0  0  0  0
   38.2870   26.5530   44.4710 H   0  0  0  0  0  0  0  0  0  0  0  0
   35.8890   27.1550   44.2650 H   0  0  0  0  0  0  0  0  0  0  0  0
   36.3680   28.5130   43.0960 H   0  0  0  0  0  0  0  0  0  0  0  0
   36.7950   25.4410   42.7080 H   0  0  0  0  0  0  0  0  0  0  0  0
   37.2270   26.7780   41.4590 H   0  0  0  0  0  0  0  0  0  0  0  0
   36.3160   31.2610   39.7350 O   0  0  0  0  0  0  0  0  0  0  0  0
   36.4680   29.7030   37.9060 C   0  0  2  0  0  3  0  0  0  0  0  0
   36.6980   29.9740   39.3910 C   0  0  2  0  0  3  0  0  0  0  0  0
   35.7830   29.0230   40.1350 C   0  0  0  0  0  3  0  0  0  0  0  0
   35.7830   29.2260   41.2430 H   0  0  0  0  0  0  0  0  0  0  0  0
   34.4710   29.3310   39.7180 O   0  0  0  0  0  0  0  0  0  0  0  0
   34.2770   28.6510   38.5130 C   0  0  0  0  0  3  0  0  0  0  0  0
   33.8800   27.6500   38.7730 H   0  0  0  0  0  0  0  0  0  0  0  0
   35.5450   28.5210   37.7010 C   0  0  1  0  0  3  0  0  0  0  0  0
   37.6960   29.3750   37.3290 O   0  0  0  0  0  0  0  0  0  0  0  0
   37.9400   28.4390   37.5350 H   0  0  0  0  0  0  0  0  0  0  0  0
   35.2290   28.4910   36.3400 O   0  0  0  0  0  0  0  0  0  0  0  0
   35.5950   27.6880   35.8800 H   0  0  0  0  0  0  0  0  0  0  0  0
  1  7  1  1  0  0  0
  1  6  1  0  0  0  0
  1  2  1  0  0  0  0
  2  8  1  6  0  0  0
  2  3  1  0  0  0  0
  2 17  1  0  0  0  0
  4  9  1  0  0  0  0
  4  3  1  0  0  0  0
  5 11  1  1  0  0  0
  5  4  1  0  0  0  0
  5  6  1  0  0  0  0
  6 12  1  1  0  0  0
 10  4  1  0  0  0  0
 13  1  1  0  0  0  0
 14 13  1  0  0  0  0
 15  5  1  0  0  0  0
 16 15  1  0  0  0  0
 17 18  1  0  0  0  0
 18 19  1  0  0  0  0
 19 24  1  0  0  0  0
 19 20  2  0  0  0  0
 20 26  1  0  0  0  0
 21 20  1  0  0  0  0
 22 21  2  0  0  0  0
 23 18  2  0  0  0  0
 23 22  1  0  0  0  0
 25 22  1  0  0  0  0
 26 29  1  0  0  0  0
 27 26  1  0  0  0  0
 27 30  1  0  0  0  0
 28 32  1  0  0  0  0
 28 27  1  0  0  0  0
 28 26  1  0  0  0  0
 31 27  1  0  0  0  0
 33 28  1  0  0  0  0
 34  6  1  0  0  0  0
 35 43  1  6  0  0  0
 35 36  1  0  0  0  0
 36 34  1  6  0  0  0
 36 37  1  0  0  0  0
 37 38  1  0  0  0  0
 39 37  1  0  0  0  0
 40 41  1  0  0  0  0
 40 39  1  0  0  0  0
 42 45  1  6  0  0  0
 42 35  1  0  0  0  0
 42 40  1  0  0  0  0
 43 44  1  0  0  0  0
 46 45  1  0  0  0  0
M  END
>  <minimizedAffinity>
-6.08938217

$$$$

 OpenBabel03242523533D

 46 49  0  0  1  0  0  0  0  0999 V2000
   38.3760   30.5580   39.6320 C   0  0  1  0  0  0  0  0  0  0  0  0
   38.6940   30.8990   41.0890 C   0  0  1  0  0  0  0  0  0  0  0  0
   38.1950   32.1820   41.3800 O   0  0  0  0  0  0  0  0  0  0  0  0
   38.2660   33.0520   40.2920 C   0  0  0  0  0  0  0  0  0  0  0  0
   37.2790   32.6500   39.2030 C   0  0  2  0  0  0  0  0  0  0  0  0
   36.9980   31.1570   39.3830 C   0  0  1  0  0  0  0  0  0  0  0  0
   38.3630   29.4590   39.5750 H   0  0  0  0  0  0  0  0  0  0  0  0
   39.7650   30.8250   41.2820 H   0  0  0  0  0  0  0  0  0  0  0  0
   37.9810   34.0420   40.7030 H   0  0  0  0  0  0  0  0  0  0  0  0
   39.2960   33.1890   39.9050 H   0  0  0  0  0  0  0  0  0  0  0  0
   36.3570   33.2570   39.2210 H   0  0  0  0  0  0  0  0  0  0  0  0
   36.3910   31.0550   40.3200 H   0  0  0  0  0  0  0  0  0  0  0  0
   39.3100   31.1400   38.7790 O   0  0  0  0  0  0  0  0  0  0  0  0
   39.3550   30.5450   37.9760 H   0  0  0  0  0  0  0  0  0  0  0  0
   37.9620   32.7380   37.9740 O   0  0  0  0  0  0  0  0  0  0  0  0
   37.8710   33.6890   37.6750 H   0  0  0  0  0  0  0  0  0  0  0  0
   37.9110   30.0360   41.8660 O   0  0  0  0  0  0  0  0  0  0  0  0
   38.2620   28.8110   42.2590 C   0  0  0  0  0  0  0  0  0  0  0  0
   37.4510   27.7100   41.9930 C   0  0  0  0  0  0  0  0  0  0  0  0
   37.8740   26.4580   42.4280 C   0  0  0  0  0  0  0  0  0  0  0  0
   39.0770   26.3400   43.1070 N   0  0  0  0  0  0  0  0  0  0  0  0
   39.8220   27.4230   43.3390 C   0  0  0  0  0  0  0  0  0  0  0  0
   39.4290   28.6520   42.9240 N   0  0  0  0  0  0  0  0  0  0  0  0
   36.5200   27.7830   41.4710 H   0  0  0  0  0  0  0  0  0  0  0  0
   40.7440   27.2620   43.8710 H   0  0  0  0  0  0  0  0  0  0  0  0
   37.0200   25.2390   42.1690 C   0  0  0  0  0  0  0  0  0  0  0  0
   36.8600   24.8100   40.7290 C   0  0  0  0  0  0  0  0  0  0  0  0
   37.6520   24.0050   41.7740 C   0  0  0  0  0  0  0  0  0  0  0  0
   36.0700   25.2940   42.7010 H   0  0  0  0  0  0  0  0  0  0  0  0
   35.9000   24.4200   40.3840 H   0  0  0  0  0  0  0  0  0  0  0  0
   37.4490   25.3470   39.9610 H   0  0  0  0  0  0  0  0  0  0  0  0
   37.1280   23.0500   42.0560 H   0  0  0  0  0  0  0  0  0  0  0  0
   38.7390   23.9090   41.6030 H   0  0  0  0  0  0  0  0  0  0  0  0
   36.3700   30.6400   38.2690 O   0  0  0  0  0  0  0  0  0  0  0  0
   37.4290   29.4370   36.4730 C   0  0  2  0  0  3  0  0  0  0  0  0
   36.8280   29.3930   37.8760 C   0  0  2  0  0  3  0  0  0  0  0  0
   35.6200   28.4840   37.7830 C   0  0  0  0  0  3  0  0  0  0  0  0
   35.0260   28.4790   38.7410 H   0  0  0  0  0  0  0  0  0  0  0  0
   34.7570   29.0700   36.8340 O   0  0  0  0  0  0  0  0  0  0  0  0
   35.2210   28.6620   35.5820 C   0  0  0  0  0  3  0  0  0  0  0  0
   34.7080   27.7070   35.3480 H   0  0  0  0  0  0  0  0  0  0  0  0
   36.7210   28.4770   35.5420 C   0  0  1  0  0  3  0  0  0  0  0  0
   38.7610   29.0240   36.5590 O   0  0  0  0  0  0  0  0  0  0  0  0
   38.8170   28.0400   36.6300 H   0  0  0  0  0  0  0  0  0  0  0  0
   37.1930   28.7470   34.2550 O   0  0  0  0  0  0  0  0  0  0  0  0
   37.7190   27.9920   33.8740 H   0  0  0  0  0  0  0  0  0  0  0  0
  1  7  1  6  0  0  0
  1  2  1  0  0  0  0
  2  8  1  1  0  0  0
  2  3  1  0  0  0  0
  2 17  1  0  0  0  0
  4  9  1  0  0  0  0
  4  3  1  0  0  0  0
  5 11  1  1  0  0  0
  5  6  1  0  0  0  0
  5  4  1  0  0  0  0
  6  1  1  0  0  0  0
  6 12  1  1  0  0  0
 10  4  1  0  0  0  0
 13  1  1  0  0  0  0
 14 13  1  0  0  0  0
 15  5  1  0  0  0  0
 16 15  1  0  0  0  0
 17 18  1  0  0  0  0
 18 23  1  0  0  0  0
 19 18  2  0  0  0  0
 19 20  1  0  0  0  0
 20 21  2  0  0  0  0
 21 22  1  0  0  0  0
 22 25  1  0  0  0  0
 23 22  2  0  0  0  0
 24 19  1  0  0  0  0
 26 20  1  0  0  0  0
 26 29  1  0  0  0  0
 27 28  1  0  0  0  0
 27 26  1  0  0  0  0
 28 32  1  0  0  0  0
 28 26  1  0  0  0  0
 30 27  1  0  0  0  0
 31 27  1  0  0  0  0
 33 28  1  0  0  0  0
 34  6  1  0  0  0  0
 35 43  1  1  0  0  0
 35 36  1  0  0  0  0
 36 34  1  6  0  0  0
 37 36  1  0  0  0  0
 37 38  1  0  0  0  0
 39 37  1  0  0  0  0
 40 39  1  0  0  0  0
 41 40  1  0  0  0  0
 42 45  1  6  0  0  0
 42 40  1  0  0  0  0
 42 35  1  0  0  0  0
 43 44  1  0  0  0  0
 46 45  1  0  0  0  0
M  END
>  <minimizedAffinity>
-6.05321789

$$$$

 OpenBabel03242523533D

 46 49  0  0  1  0  0  0  0  0999 V2000
   37.8070   32.1600   40.5410 C   0  0  1  0  0  0  0  0  0  0  0  0
   37.0230   30.9370   41.0170 C   0  0  1  0  0  0  0  0  0  0  0  0
   36.7840   30.0880   39.9210 O   0  0  0  0  0  0  0  0  0  0  0  0
   36.5860   30.7840   38.7280 C   0  0  0  0  0  0  0  0  0  0  0  0
   37.8800   31.4350   38.2530 C   0  0  2  0  0  0  0  0  0  0  0  0
   38.7650   31.6220   39.4860 C   0  0  1  0  0  0  0  0  0  0  0  0
   38.3410   32.5400   41.4250 H   0  0  0  0  0  0  0  0  0  0  0  0
   36.0970   31.2350   41.5120 H   0  0  0  0  0  0  0  0  0  0  0  0
   36.2710   30.0100   37.9990 H   0  0  0  0  0  0  0  0  0  0  0  0
   35.7390   31.4990   38.7710 H   0  0  0  0  0  0  0  0  0  0  0  0
   38.3800   30.8530   37.4590 H   0  0  0  0  0  0  0  0  0  0  0  0
   39.1020   30.5990   39.7990 H   0  0  0  0  0  0  0  0  0  0  0  0
   36.9510   33.0980   39.9720 O   0  0  0  0  0  0  0  0  0  0  0  0
   37.3830   33.9890   40.1190 H   0  0  0  0  0  0  0  0  0  0  0  0
   37.5570   32.7440   37.8450 O   0  0  0  0  0  0  0  0  0  0  0  0
   37.2680   32.6710   36.8890 H   0  0  0  0  0  0  0  0  0  0  0  0
   37.9000   30.2110   41.8340 O   0  0  0  0  0  0  0  0  0  0  0  0
   37.7890   28.9170   42.1340 C   0  0  0  0  0  0  0  0  0  0  0  0
   38.7710   28.0030   41.7550 C   0  0  0  0  0  0  0  0  0  0  0  0
   38.5990   26.6670   42.1000 C   0  0  0  0  0  0  0  0  0  0  0  0
   37.4680   26.2820   42.8040 N   0  0  0  0  0  0  0  0  0  0  0  0
   36.5530   27.1920   43.1470 C   0  0  0  0  0  0  0  0  0  0  0  0
   36.7010   28.4990   42.8210 N   0  0  0  0  0  0  0  0  0  0  0  0
   39.6490   28.2830   41.2120 H   0  0  0  0  0  0  0  0  0  0  0  0
   35.6990   26.8270   43.6920 H   0  0  0  0  0  0  0  0  0  0  0  0
   39.6350   25.6420   41.7000 C   0  0  0  0  0  0  0  0  0  0  0  0
   40.1870   24.7640   42.7990 C   0  0  0  0  0  0  0  0  0  0  0  0
   39.2740   24.2470   41.6730 C   0  0  0  0  0  0  0  0  0  0  0  0
   40.4150   26.0820   41.0790 H   0  0  0  0  0  0  0  0  0  0  0  0
   41.2430   24.4850   42.7880 H   0  0  0  0  0  0  0  0  0  0  0  0
   39.7370   24.8530   43.8060 H   0  0  0  0  0  0  0  0  0  0  0  0
   39.8300   23.5900   40.9490 H   0  0  0  0  0  0  0  0  0  0  0  0
   38.2810   23.8730   41.9770 H   0  0  0  0  0  0  0  0  0  0  0  0
   39.8120   32.4770   39.2110 O   0  0  0  0  0  0  0  0  0  0  0  0
   41.3820   32.0040   40.9720 C   0  0  2  0  0  3  0  0  0  0  0  0
   41.0680   31.9570   39.4790 C   0  0  2  0  0  3  0  0  0  0  0  0
   42.0790   32.8670   38.8120 C   0  0  0  0  0  3  0  0  0  0  0  0
   41.8580   33.0020   37.7150 H   0  0  0  0  0  0  0  0  0  0  0  0
   41.8890   34.1470   39.3730 O   0  0  0  0  0  0  0  0  0  0  0  0
   42.6030   34.1540   40.5740 C   0  0  0  0  0  3  0  0  0  0  0  0
   43.6290   34.4950   40.3310 H   0  0  0  0  0  0  0  0  0  0  0  0
   42.6410   32.8000   41.2430 C   0  0  1  0  0  3  0  0  0  0  0  0
   41.6170   30.6970   41.4070 O   0  0  0  0  0  0  0  0  0  0  0  0
   42.5260   30.4020   41.1520 H   0  0  0  0  0  0  0  0  0  0  0  0
   42.7200   32.9640   42.6290 O   0  0  0  0  0  0  0  0  0  0  0  0
   43.4980   32.4860   43.0270 H   0  0  0  0  0  0  0  0  0  0  0  0
  1  2  1  0  0  0  0
  1  7  1  1  0  0  0
  2  8  1  1  0  0  0
  2 17  1  0  0  0  0
  3  2  1  0  0  0  0
  4 10  1  0  0  0  0
  4  3  1  0  0  0  0
  5 11  1  6  0  0  0
  5  4  1  0  0  0  0
  5  6  1  0  0  0  0
  6 12  1  1  0  0  0
  6  1  1  0  0  0  0
  9  4  1  0  0  0  0
 13 14  1  0  0  0  0
 13  1  1  0  0  0  0
 15  5  1  0  0  0  0
 16 15  1  0  0  0  0
 17 18  1  0  0  0  0
 18 23  1  0  0  0  0
 19 20  1  0  0  0  0
 19 18  2  0  0  0  0
 20 21  2  0  0  0  0
 21 22  1  0  0  0  0
 22 25  1  0  0  0  0
 23 22  2  0  0  0  0
 24 19  1  0  0  0  0
 26 20  1  0  0  0  0
 26 27  1  0  0  0  0
 27 31  1  0  0  0  0
 28 26  1  0  0  0  0
 28 33  1  0  0  0  0
 28 27  1  0  0  0  0
 29 26  1  0  0  0  0
 30 27  1  0  0  0  0
 32 28  1  0  0  0  0
 34  6  1  0  0  0  0
 35 42  1  0  0  0  0
 35 43  1  6  0  0  0
 36 34  1  1  0  0  0
 36 35  1  0  0  0  0
 37 39  1  0  0  0  0
 37 36  1  0  0  0  0
 38 37  1  0  0  0  0
 39 40  1  0  0  0  0
 40 42  1  0  0  0  0
 41 40  1  0  0  0  0
 42 45  1  1  0  0  0
 44 43  1  0  0  0  0
 45 46  1  0  0  0  0
M  END
>  <minimizedAffinity>
-6.05178928

$$$$

 OpenBabel03242523533D

 46 49  0  0  1  0  0  0  0  0999 V2000
   37.6100   29.1080   41.9870 C   0  0  1  0  0  0  0  0  0  0  0  0
   37.1790   27.6910   41.6040 C   0  0  1  0  0  0  0  0  0  0  0  0
   36.2250   27.7640   40.5720 O   0  0  0  0  0  0  0  0  0  0  0  0
   35.3960   28.8810   40.6770 C   0  0  0  0  0  0  0  0  0  0  0  0
   36.1660   30.1630   40.3850 C   0  0  2  0  0  0  0  0  0  0  0  0
   37.6400   29.8750   40.6710 C   0  0  1  0  0  0  0  0  0  0  0  0
   38.6130   29.0100   42.4280 H   0  0  0  0  0  0  0  0  0  0  0  0
   36.8000   27.1510   42.4730 H   0  0  0  0  0  0  0  0  0  0  0  0
   34.6190   28.7300   39.8990 H   0  0  0  0  0  0  0  0  0  0  0  0
   34.8370   28.9260   41.6340 H   0  0  0  0  0  0  0  0  0  0  0  0
   36.0000   30.5340   39.3580 H   0  0  0  0  0  0  0  0  0  0  0  0
   37.9940   29.1830   39.8630 H   0  0  0  0  0  0  0  0  0  0  0  0
   36.6840   29.6830   42.8520 O   0  0  0  0  0  0  0  0  0  0  0  0
   37.1990   30.3350   43.4100 H   0  0  0  0  0  0  0  0  0  0  0  0
   35.7900   31.1020   41.3670 O   0  0  0  0  0  0  0  0  0  0  0  0
   34.9620   31.5460   41.0220 H   0  0  0  0  0  0  0  0  0  0  0  0
   38.2960   27.0980   41.0030 O   0  0  0  0  0  0  0  0  0  0  0  0
   39.2320   26.3880   41.6350 C   0  0  0  0  0  0  0  0  0  0  0  0
   40.5580   26.8120   41.6660 C   0  0  0  0  0  0  0  0  0  0  0  0
   41.4870   26.0280   42.3440 C   0  0  0  0  0  0  0  0  0  0  0  0
   41.0730   24.8590   42.9640 N   0  0  0  0  0  0  0  0  0  0  0  0
   39.7910   24.4920   42.9080 C   0  0  0  0  0  0  0  0  0  0  0  0
   38.8700   25.2410   42.2540 N   0  0  0  0  0  0  0  0  0  0  0  0
   40.8950   27.7100   41.1930 H   0  0  0  0  0  0  0  0  0  0  0  0
   39.5360   23.5740   43.4100 H   0  0  0  0  0  0  0  0  0  0  0  0
   42.9380   26.4470   42.3930 C   0  0  0  0  0  0  0  0  0  0  0  0
   43.4250   27.0730   43.6790 C   0  0  0  0  0  0  0  0  0  0  0  0
   43.8660   25.6830   43.1880 C   0  0  0  0  0  0  0  0  0  0  0  0
   43.2200   27.0210   41.5100 H   0  0  0  0  0  0  0  0  0  0  0  0
   44.1430   27.8950   43.6410 H   0  0  0  0  0  0  0  0  0  0  0  0
   42.7270   27.1020   44.5370 H   0  0  0  0  0  0  0  0  0  0  0  0
   44.9400   25.6760   42.8530 H   0  0  0  0  0  0  0  0  0  0  0  0
   43.5650   24.8220   43.8100 H   0  0  0  0  0  0  0  0  0  0  0  0
   38.3630   31.0470   40.7380 O   0  0  0  0  0  0  0  0  0  0  0  0
   40.3710   32.0580   41.6000 C   0  0  2  0  0  3  0  0  0  0  0  0
   39.7310   30.8740   40.8800 C   0  0  2  0  0  3  0  0  0  0  0  0
   40.3260   30.8630   39.4870 C   0  0  0  0  0  3  0  0  0  0  0  0
   39.8280   30.0970   38.8270 H   0  0  0  0  0  0  0  0  0  0  0  0
   39.9920   32.1040   38.9050 O   0  0  0  0  0  0  0  0  0  0  0  0
   40.9490   33.0150   39.3590 C   0  0  0  0  0  3  0  0  0  0  0  0
   41.7870   32.9840   38.6340 H   0  0  0  0  0  0  0  0  0  0  0  0
   41.4460   32.7000   40.7520 C   0  0  1  0  0  3  0  0  0  0  0  0
   40.9870   31.5800   42.7590 O   0  0  0  0  0  0  0  0  0  0  0  0
   41.8530   31.1520   42.5420 H   0  0  0  0  0  0  0  0  0  0  0  0
   41.8120   33.8850   41.3970 O   0  0  0  0  0  0  0  0  0  0  0  0
   42.7480   33.8630   41.7350 H   0  0  0  0  0  0  0  0  0  0  0  0
  1  7  1  1  0  0  0
  1 13  1  0  0  0  0
  2  1  1  0  0  0  0
  2  8  1  1  0  0  0
  3  4  1  0  0  0  0
  3  2  1  0  0  0  0
  4 10  1  0  0  0  0
  5 11  1  6  0  0  0
  5  6  1  0  0  0  0
  5  4  1  0  0  0  0
  5 15  1  0  0  0  0
  6 12  1  6  0  0  0
  6 34  1  0  0  0  0
  6  1  1  0  0  0  0
  9  4  1  0  0  0  0
 13 14  1  0  0  0  0
 16 15  1  0  0  0  0
 17  2  1  0  0  0  0
 17 18  1  0  0  0  0
 18 19  2  0  0  0  0
 18 23  1  0  0  0  0
 19 20  1  0  0  0  0
 20 26  1  0  0  0  0
 20 21  2  0  0  0  0
 22 21  1  0  0  0  0
 22 25  1  0  0  0  0
 23 22  2  0  0  0  0
 24 19  1  0  0  0  0
 26 28  1  0  0  0  0
 26 27  1  0  0  0  0
 27 31  1  0  0  0  0
 28 27  1  0  0  0  0
 28 33  1  0  0  0  0
 29 26  1  0  0  0  0
 30 27  1  0  0  0  0
 32 28  1  0  0  0  0
 35 43  1  1  0  0  0
 36 34  1  6  0  0  0
 36 35  1  0  0  0  0
 37 36  1  0  0  0  0
 38 37  1  0  0  0  0
 39 40  1  0  0  0  0
 39 37  1  0  0  0  0
 40 42  1  0  0  0  0
 41 40  1  0  0  0  0
 42 45  1  1  0  0  0
 42 35  1  0  0  0  0
 44 43  1  0  0  0  0
 45 46  1  0  0  0  0
M  END
>  <minimizedAffinity>
-6.04953384

$$$$

 OpenBabel03242523533D

 46 49  0  0  1  0  0  0  0  0999 V2000
   39.7120   30.5640   39.3830 C   0  0  1  0  0  0  0  0  0  0  0  0
   40.4180   31.2320   40.5640 C   0  0  1  0  0  0  0  0  0  0  0  0
   39.9250   32.5400   40.7160 O   0  0  0  0  0  0  0  0  0  0  0  0
   39.5990   33.1410   39.4990 C   0  0  0  0  0  0  0  0  0  0  0  0
   38.3700   32.4890   38.8780 C   0  0  2  0  0  0  0  0  0  0  0  0
   38.2780   31.0730   39.4480 C   0  0  1  0  0  0  0  0  0  0  0  0
   39.7730   29.4810   39.5680 H   0  0  0  0  0  0  0  0  0  0  0  0
   41.5010   31.2170   40.4310 H   0  0  0  0  0  0  0  0  0  0  0  0
   39.3680   34.1950   39.7580 H   0  0  0  0  0  0  0  0  0  0  0  0
   40.4530   33.2000   38.7950 H   0  0  0  0  0  0  0  0  0  0  0  0
   37.4480   33.0730   39.0480 H   0  0  0  0  0  0  0  0  0  0  0  0
   37.9860   31.1790   40.5260 H   0  0  0  0  0  0  0  0  0  0  0  0
   40.3000   30.9490   38.1810 O   0  0  0  0  0  0  0  0  0  0  0  0
   40.1540   30.1870   37.5490 H   0  0  0  0  0  0  0  0  0  0  0  0
   38.6480   32.3040   37.5090 O   0  0  0  0  0  0  0  0  0  0  0  0
   38.3960   33.1610   37.0580 H   0  0  0  0  0  0  0  0  0  0  0  0
   39.9740   30.5580   41.7090 O   0  0  0  0  0  0  0  0  0  0  0  0
   40.6250   29.5760   42.3340 C   0  0  0  0  0  0  0  0  0  0  0  0
   39.9920   28.3730   42.6390 C   0  0  0  0  0  0  0  0  0  0  0  0
   40.7250   27.3860   43.2890 C   0  0  0  0  0  0  0  0  0  0  0  0
   42.0530   27.6230   43.6140 N   0  0  0  0  0  0  0  0  0  0  0  0
   42.6180   28.7910   43.3020 C   0  0  0  0  0  0  0  0  0  0  0  0
   41.9220   29.7650   42.6680 N   0  0  0  0  0  0  0  0  0  0  0  0
   38.9690   28.1740   42.3960 H   0  0  0  0  0  0  0  0  0  0  0  0
   43.6510   28.9100   43.5830 H   0  0  0  0  0  0  0  0  0  0  0  0
   40.0740   26.0700   43.6470 C   0  0  0  0  0  0  0  0  0  0  0  0
   39.0980   25.4970   42.6470 C   0  0  0  0  0  0  0  0  0  0  0  0
   40.4720   24.8730   42.9500 C   0  0  0  0  0  0  0  0  0  0  0  0
   39.6800   26.0820   44.6640 H   0  0  0  0  0  0  0  0  0  0  0  0
   38.2000   24.9850   43.0010 H   0  0  0  0  0  0  0  0  0  0  0  0
   38.9880   26.0160   41.6760 H   0  0  0  0  0  0  0  0  0  0  0  0
   40.3790   23.9020   43.5100 H   0  0  0  0  0  0  0  0  0  0  0  0
   41.2040   24.8690   42.1240 H   0  0  0  0  0  0  0  0  0  0  0  0
   37.3930   30.3080   38.7170 O   0  0  0  0  0  0  0  0  0  0  0  0
   36.4190   29.9930   40.8960 C   0  0  2  0  0  3  0  0  0  0  0  0
   36.2190   29.9900   39.3830 C   0  0  2  0  0  3  0  0  0  0  0  0
   35.8680   28.5640   39.0110 C   0  0  0  0  0  3  0  0  0  0  0  0
   35.8210   28.4240   37.8940 H   0  0  0  0  0  0  0  0  0  0  0  0
   36.9590   27.7700   39.4220 O   0  0  0  0  0  0  0  0  0  0  0  0
   36.7630   27.5160   40.7820 C   0  0  0  0  0  3  0  0  0  0  0  0
   36.1590   26.5880   40.8470 H   0  0  0  0  0  0  0  0  0  0  0  0
   36.0680   28.6500   41.4980 C   0  0  1  0  0  3  0  0  0  0  0  0
   35.5460   30.9350   41.4470 O   0  0  0  0  0  0  0  0  0  0  0  0
   34.6280   30.5720   41.4970 H   0  0  0  0  0  0  0  0  0  0  0  0
   36.4850   28.6880   42.8320 O   0  0  0  0  0  0  0  0  0  0  0  0
   35.7230   28.6480   43.4720 H   0  0  0  0  0  0  0  0  0  0  0  0
  1  6  1  0  0  0  0
  1  7  1  1  0  0  0
  1  2  1  0  0  0  0
  2  8  1  6  0  0  0
  2  3  1  0  0  0  0
  2 17  1  0  0  0  0
  4  9  1  0  0  0  0
  4  3  1  0  0  0  0
  5 11  1  1  0  0  0
  5  6  1  0  0  0  0
  5  4  1  0  0  0  0
  6 12  1  1  0  0  0
 10  4  1  0  0  0  0
 13  1  1  0  0  0  0
 14 13  1  0  0  0  0
 15  5  1  0  0  0  0
 16 15  1  0  0  0  0
 17 18  1  0  0  0  0
 18 19  2  0  0  0  0
 18 23  1  0  0  0  0
 19 20  1  0  0  0  0
 20 21  2  0  0  0  0
 20 26  1  0  0  0  0
 22 25  1  0  0  0  0
 22 21  1  0  0  0  0
 23 22  2  0  0  0  0
 24 19  1  0  0  0  0
 26 29  1  0  0  0  0
 27 28  1  0  0  0  0
 27 30  1  0  0  0  0
 27 26  1  0  0  0  0
 28 32  1  0  0  0  0
 28 26  1  0  0  0  0
 31 27  1  0  0  0  0
 33 28  1  0  0  0  0
 34  6  1  0  0  0  0
 35 43  1  1  0  0  0
 35 42  1  0  0  0  0
 36 34  1  6  0  0  0
 36 35  1  0  0  0  0
 37 36  1  0  0  0  0
 37 39  1  0  0  0  0
 38 37  1  0  0  0  0
 39 40  1  0  0  0  0
 40 41  1  0  0  0  0
 40 42  1  0  0  0  0
 42 45  1  1  0  0  0
 43 44  1  0  0  0  0
 45 46  1  0  0  0  0
M  END
>  <minimizedAffinity>
-6.04666233

$$$$

 OpenBabel03242523533D

 46 49  0  0  1  0  0  0  0  0999 V2000
   38.6350   31.7380   38.7850 C   0  0  1  0  0  0  0  0  0  0  0  0
   40.0400   32.1660   38.3590 C   0  0  1  0  0  0  0  0  0  0  0  0
   40.5060   33.1580   39.2400 O   0  0  0  0  0  0  0  0  0  0  0  0
   39.4900   33.9960   39.7000 C   0  0  0  0  0  0  0  0  0  0  0  0
   38.5540   33.2530   40.6460 C   0  0  2  0  0  0  0  0  0  0  0  0
   38.6650   31.7660   40.3080 C   0  0  1  0  0  0  0  0  0  0  0  0
   38.4990   30.7180   38.3960 H   0  0  0  0  0  0  0  0  0  0  0  0
   40.0470   32.5050   37.3220 H   0  0  0  0  0  0  0  0  0  0  0  0
   40.0160   34.8000   40.2560 H   0  0  0  0  0  0  0  0  0  0  0  0
   38.9480   34.5190   38.8860 H   0  0  0  0  0  0  0  0  0  0  0  0
   38.7700   33.4620   41.7080 H   0  0  0  0  0  0  0  0  0  0  0  0
   39.6800   31.4340   40.6510 H   0  0  0  0  0  0  0  0  0  0  0  0
   37.6850   32.6370   38.3110 O   0  0  0  0  0  0  0  0  0  0  0  0
   36.8430   32.1100   38.1930 H   0  0  0  0  0  0  0  0  0  0  0  0
   37.2380   33.6030   40.2820 O   0  0  0  0  0  0  0  0  0  0  0  0
   37.0310   34.4490   40.7760 H   0  0  0  0  0  0  0  0  0  0  0  0
   40.8700   31.0640   38.6050 O   0  0  0  0  0  0  0  0  0  0  0  0
   41.5450   30.3790   37.6820 C   0  0  0  0  0  0  0  0  0  0  0  0
   41.4040   28.9970   37.5650 C   0  0  0  0  0  0  0  0  0  0  0  0
   42.1330   28.3400   36.5800 C   0  0  0  0  0  0  0  0  0  0  0  0
   42.9720   29.0670   35.7490 N   0  0  0  0  0  0  0  0  0  0  0  0
   43.0760   30.3890   35.8980 C   0  0  0  0  0  0  0  0  0  0  0  0
   42.3740   31.0500   36.8500 N   0  0  0  0  0  0  0  0  0  0  0  0
   40.7620   28.4210   38.1980 H   0  0  0  0  0  0  0  0  0  0  0  0
   43.7440   30.8940   35.2210 H   0  0  0  0  0  0  0  0  0  0  0  0
   42.0170   26.8410   36.4260 C   0  0  0  0  0  0  0  0  0  0  0  0
   42.9640   26.1790   35.4520 C   0  0  0  0  0  0  0  0  0  0  0  0
   43.0440   25.9930   36.9770 C   0  0  0  0  0  0  0  0  0  0  0  0
   40.9810   26.5310   36.2850 H   0  0  0  0  0  0  0  0  0  0  0  0
   42.6130   25.3460   34.8390 H   0  0  0  0  0  0  0  0  0  0  0  0
   43.7460   26.8070   34.9840 H   0  0  0  0  0  0  0  0  0  0  0  0
   42.7370   24.9570   37.2920 H   0  0  0  0  0  0  0  0  0  0  0  0
   43.9490   26.3830   37.4750 H   0  0  0  0  0  0  0  0  0  0  0  0
   37.6350   31.0540   40.8880 O   0  0  0  0  0  0  0  0  0  0  0  0
   36.6090   28.9650   41.5000 C   0  0  2  0  0  3  0  0  0  0  0  0
   37.7780   29.6770   40.8240 C   0  0  2  0  0  3  0  0  0  0  0  0
   39.0080   29.3180   41.6310 C   0  0  0  0  0  3  0  0  0  0  0  0
   39.9140   29.8940   41.2890 H   0  0  0  0  0  0  0  0  0  0  0  0
   38.7680   29.7800   42.9420 O   0  0  0  0  0  0  0  0  0  0  0  0
   38.0080   28.7890   43.5690 C   0  0  0  0  0  3  0  0  0  0  0  0
   38.7260   28.0810   44.0300 H   0  0  0  0  0  0  0  0  0  0  0  0
   37.0880   28.0620   42.6150 C   0  0  1  0  0  3  0  0  0  0  0  0
   35.9870   28.1530   40.5480 O   0  0  0  0  0  0  0  0  0  0  0  0
   36.5050   27.3220   40.4060 H   0  0  0  0  0  0  0  0  0  0  0  0
   35.9480   27.6320   43.3000 O   0  0  0  0  0  0  0  0  0  0  0  0
   35.7930   26.6530   43.2080 H   0  0  0  0  0  0  0  0  0  0  0  0
  1  7  1  6  0  0  0
  1  6  1  0  0  0  0
  2  8  1  6  0  0  0
  2 17  1  0  0  0  0
  2  1  1  0  0  0  0
  2  3  1  0  0  0  0
  3  4  1  0  0  0  0
  4  9  1  0  0  0  0
  4  5  1  0  0  0  0
  5 11  1  1  0  0  0
  6  5  1  0  0  0  0
  6 12  1  1  0  0  0
  6 34  1  0  0  0  0
 10  4  1  0  0  0  0
 13  1  1  0  0  0  0
 14 13  1  0  0  0  0
 15  5  1  0  0  0  0
 15 16  1  0  0  0  0
 18 17  1  0  0  0  0
 19 18  1  0  0  0  0
 19 24  1  0  0  0  0
 20 19  2  0  0  0  0
 21 22  2  0  0  0  0
 21 20  1  0  0  0  0
 22 23  1  0  0  0  0
 23 18  2  0  0  0  0
 25 22  1  0  0  0  0
 26 20  1  0  0  0  0
 26 28  1  0  0  0  0
 27 26  1  0  0  0  0
 27 28  1  0  0  0  0
 28 32  1  0  0  0  0
 28 33  1  0  0  0  0
 29 26  1  0  0  0  0
 30 27  1  0  0  0  0
 31 27  1  0  0  0  0
 35 43  1  6  0  0  0
 35 42  1  0  0  0  0
 36 34  1  1  0  0  0
 36 35  1  0  0  0  0
 36 37  1  0  0  0  0
 37 39  1  0  0  0  0
 38 37  1  0  0  0  0
 39 40  1  0  0  0  0
 40 41  1  0  0  0  0
 42 45  1  1  0  0  0
 42 40  1  0  0  0  0
 44 43  1  0  0  0  0
 46 45  1  0  0  0  0
M  END
>  <minimizedAffinity>
-5.88759375

$$$$
