
 OpenBabel03242523503D

 46 49  0  0  1  0  0  0  0  0999 V2000
   42.8210   34.5570   38.6760 C   0  0  1  0  0  0  0  0  0  0  0  0
   42.9750   35.1780   40.0660 C   0  0  1  0  0  0  0  0  0  0  0  0
   41.6980   35.4200   40.6050 O   0  0  0  0  0  0  0  0  0  0  0  0
   40.7600   35.7800   39.6370 C   0  0  0  0  0  0  0  0  0  0  0  0
   40.4220   34.5980   38.7360 C   0  0  2  0  0  0  0  0  0  0  0  0
   41.6110   33.6390   38.7920 C   0  0  1  0  0  0  0  0  0  0  0  0
   43.7480   33.9930   38.4930 H   0  0  0  0  0  0  0  0  0  0  0  0
   43.5790   36.0850   40.0230 H   0  0  0  0  0  0  0  0  0  0  0  0
   39.8600   36.0770   40.2130 H   0  0  0  0  0  0  0  0  0  0  0  0
   41.0440   36.6860   39.0640 H   0  0  0  0  0  0  0  0  0  0  0  0
   39.4720   34.1100   39.0160 H   0  0  0  0  0  0  0  0  0  0  0  0
   41.6070   33.1810   39.8150 H   0  0  0  0  0  0  0  0  0  0  0  0
   42.5820   35.5430   37.7240 O   0  0  0  0  0  0  0  0  0  0  0  0
   42.9510   35.1880   36.8640 H   0  0  0  0  0  0  0  0  0  0  0  0
   40.4130   35.0790   37.4110 O   0  0  0  0  0  0  0  0  0  0  0  0
   39.4920   35.4360   37.2530 H   0  0  0  0  0  0  0  0  0  0  0  0
   43.5100   34.1710   40.8800 O   0  0  0  0  0  0  0  0  0  0  0  0
   44.6010   34.2850   41.6390 C   0  0  0  0  0  0  0  0  0  0  0  0
   45.8650   34.4160   41.0680 C   0  0  0  0  0  0  0  0  0  0  0  0
   46.9630   34.5330   41.9140 C   0  0  0  0  0  0  0  0  0  0  0  0
   46.7740   34.5170   43.2880 N   0  0  0  0  0  0  0  0  0  0  0  0
   45.5440   34.3900   43.7900 C   0  0  0  0  0  0  0  0  0  0  0  0
   44.4610   34.2750   42.9850 N   0  0  0  0  0  0  0  0  0  0  0  0
   46.0290   34.4300   40.0110 H   0  0  0  0  0  0  0  0  0  0  0  0
   45.4660   34.3850   44.8640 H   0  0  0  0  0  0  0  0  0  0  0  0
   48.3530   34.6670   41.3360 C   0  0  0  0  0  0  0  0  0  0  0  0
   49.0450   35.9970   41.5220 C   0  0  0  0  0  0  0  0  0  0  0  0
   49.4870   34.7010   42.2240 C   0  0  0  0  0  0  0  0  0  0  0  0
   48.3950   34.3100   40.3070 H   0  0  0  0  0  0  0  0  0  0  0  0
   49.6690   36.3980   40.7210 H   0  0  0  0  0  0  0  0  0  0  0  0
   48.5420   36.7580   42.1490 H   0  0  0  0  0  0  0  0  0  0  0  0
   50.4640   34.3150   41.8210 H   0  0  0  0  0  0  0  0  0  0  0  0
   49.3940   34.6800   43.3250 H   0  0  0  0  0  0  0  0  0  0  0  0
   41.5340   32.7060   37.7780 O   0  0  0  0  0  0  0  0  0  0  0  0
   41.7700   30.4190   37.0630 C   0  0  2  0  0  3  0  0  0  0  0  0
   41.4960   31.3890   38.2090 C   0  0  2  0  0  3  0  0  0  0  0  0
   40.0780   31.1090   38.6630 C   0  0  0  0  0  3  0  0  0  0  0  0
   39.7300   31.8580   39.4300 H   0  0  0  0  0  0  0  0  0  0  0  0
   39.2540   31.3380   37.5420 O   0  0  0  0  0  0  0  0  0  0  0  0
   39.2940   30.1660   36.7840 C   0  0  0  0  0  3  0  0  0  0  0  0
   38.4780   29.5150   37.1600 H   0  0  0  0  0  0  0  0  0  0  0  0
   40.6230   29.4500   36.8790 C   0  0  1  0  0  3  0  0  0  0  0  0
   42.9000   29.6660   37.3910 O   0  0  0  0  0  0  0  0  0  0  0  0
   42.6680   28.9510   38.0350 H   0  0  0  0  0  0  0  0  0  0  0  0
   40.8690   28.7610   35.6880 O   0  0  0  0  0  0  0  0  0  0  0  0
   41.0460   27.7920   35.8370 H   0  0  0  0  0  0  0  0  0  0  0  0
  1  7  1  6  0  0  0
  1  6  1  0  0  0  0
  1  2  1  0  0  0  0
  2  8  1  6  0  0  0
  2  3  1  0  0  0  0
  2 17  1  0  0  0  0
  4  9  1  0  0  0  0
  4  3  1  0  0  0  0
  5  6  1  0  0  0  0
  5 11  1  1  0  0  0
  5  4  1  0  0  0  0
  6 12  1  1  0  0  0
 10  4  1  0  0  0  0
 13  1  1  0  0  0  0
 14 13  1  0  0  0  0
 15  5  1  0  0  0  0
 16 15  1  0  0  0  0
 17 18  1  0  0  0  0
 18 23  1  0  0  0  0
 19 18  2  0  0  0  0
 19 20  1  0  0  0  0
 20 21  2  0  0  0  0
 21 22  1  0  0  0  0
 22 25  1  0  0  0  0
 23 22  2  0  0  0  0
 24 19  1  0  0  0  0
 26 27  1  0  0  0  0
 26 20  1  0  0  0  0
 26 28  1  0  0  0  0
 27 31  1  0  0  0  0
 27 28  1  0  0  0  0
 28 33  1  0  0  0  0
 29 26  1  0  0  0  0
 30 27  1  0  0  0  0
 32 28  1  0  0  0  0
 34  6  1  0  0  0  0
 35 43  1  1  0  0  0
 35 36  1  0  0  0  0
 36 34  1  6  0  0  0
 36 37  1  0  0  0  0
 37 38  1  0  0  0  0
 39 37  1  0  0  0  0
 40 42  1  0  0  0  0
 40 41  1  0  0  0  0
 40 39  1  0  0  0  0
 42 45  1  6  0  0  0
 42 35  1  0  0  0  0
 43 44  1  0  0  0  0
 45 46  1  0  0  0  0
M  END
>  <minimizedAffinity>
-6.10794401

>  <minimizedRMSD>
0.279582649

$$$$
