
 OpenBabel03242523493D

 46 49  0  0  1  0  0  0  0  0999 V2000
   42.8150   34.5500   38.7050 C   0  0  1  0  0  0  0  0  0  0  0  0
   42.9320   35.1890   40.0900 C   0  0  1  0  0  0  0  0  0  0  0  0
   41.6420   35.3970   40.6110 O   0  0  0  0  0  0  0  0  0  0  0  0
   40.7050   35.7180   39.6290 C   0  0  0  0  0  0  0  0  0  0  0  0
   40.4140   34.5180   38.7360 C   0  0  2  0  0  0  0  0  0  0  0  0
   41.6320   33.5970   38.8150 C   0  0  1  0  0  0  0  0  0  0  0  0
   43.7610   34.0140   38.5380 H   0  0  0  0  0  0  0  0  0  0  0  0
   43.5090   36.1140   40.0460 H   0  0  0  0  0  0  0  0  0  0  0  0
   39.7890   35.9920   40.1910 H   0  0  0  0  0  0  0  0  0  0  0  0
   40.9680   36.6270   39.0500 H   0  0  0  0  0  0  0  0  0  0  0  0
   39.4770   34.0030   39.0100 H   0  0  0  0  0  0  0  0  0  0  0  0
   41.6290   33.1480   39.8430 H   0  0  0  0  0  0  0  0  0  0  0  0
   42.5570   35.5200   37.7400 O   0  0  0  0  0  0  0  0  0  0  0  0
   42.9460   35.1690   36.8880 H   0  0  0  0  0  0  0  0  0  0  0  0
   40.4070   34.9860   37.4060 O   0  0  0  0  0  0  0  0  0  0  0  0
   39.4770   35.3130   37.2340 H   0  0  0  0  0  0  0  0  0  0  0  0
   43.4880   34.2070   40.9200 O   0  0  0  0  0  0  0  0  0  0  0  0
   44.5860   34.3510   41.6640 C   0  0  0  0  0  0  0  0  0  0  0  0
   45.8460   34.4450   41.0770 C   0  0  0  0  0  0  0  0  0  0  0  0
   46.9520   34.5950   41.9060 C   0  0  0  0  0  0  0  0  0  0  0  0
   46.7750   34.6470   43.2810 N   0  0  0  0  0  0  0  0  0  0  0  0
   45.5490   34.5530   43.7990 C   0  0  0  0  0  0  0  0  0  0  0  0
   44.4580   34.4070   43.0090 N   0  0  0  0  0  0  0  0  0  0  0  0
   46.0000   34.4060   40.0190 H   0  0  0  0  0  0  0  0  0  0  0  0
   45.4810   34.6010   44.8730 H   0  0  0  0  0  0  0  0  0  0  0  0
   48.3380   34.6910   41.3100 C   0  0  0  0  0  0  0  0  0  0  0  0
   49.0680   36.0020   41.4870 C   0  0  0  0  0  0  0  0  0  0  0  0
   49.4830   34.6950   42.1850 C   0  0  0  0  0  0  0  0  0  0  0  0
   48.3570   34.3330   40.2810 H   0  0  0  0  0  0  0  0  0  0  0  0
   49.6920   36.3860   40.6780 H   0  0  0  0  0  0  0  0  0  0  0  0
   48.5940   36.7770   42.1200 H   0  0  0  0  0  0  0  0  0  0  0  0
   50.4440   34.2830   41.7690 H   0  0  0  0  0  0  0  0  0  0  0  0
   49.4040   34.6770   43.2860 H   0  0  0  0  0  0  0  0  0  0  0  0
   41.5960   32.6520   37.8100 O   0  0  0  0  0  0  0  0  0  0  0  0
   42.0720   31.2720   39.7230 C   0  0  2  0  0  3  0  0  0  0  0  0
   41.6920   31.3400   38.2470 C   0  0  2  0  0  3  0  0  0  0  0  0
   42.8360   30.6990   37.4900 C   0  0  0  0  0  3  0  0  0  0  0  0
   42.7110   30.8090   36.3760 H   0  0  0  0  0  0  0  0  0  0  0  0
   43.9840   31.4590   37.7950 O   0  0  0  0  0  0  0  0  0  0  0  0
   44.4570   30.9740   39.0170 C   0  0  0  0  0  3  0  0  0  0  0  0
   45.1570   30.1470   38.7810 H   0  0  0  0  0  0  0  0  0  0  0  0
   43.3500   30.4850   39.9240 C   0  0  1  0  0  3  0  0  0  0  0  0
   41.0580   30.5930   40.4030 O   0  0  0  0  0  0  0  0  0  0  0  0
   41.1360   29.6170   40.2640 H   0  0  0  0  0  0  0  0  0  0  0  0
   43.7240   30.6640   41.2590 O   0  0  0  0  0  0  0  0  0  0  0  0
   43.6770   29.8200   41.7850 H   0  0  0  0  0  0  0  0  0  0  0  0
  1  7  1  6  0  0  0
  1  6  1  0  0  0  0
  1  2  1  0  0  0  0
  2  8  1  6  0  0  0
  2  3  1  0  0  0  0
  2 17  1  0  0  0  0
  4  9  1  0  0  0  0
  4  3  1  0  0  0  0
  5  6  1  0  0  0  0
  5 11  1  1  0  0  0
  5  4  1  0  0  0  0
  6 12  1  1  0  0  0
 10  4  1  0  0  0  0
 13  1  1  0  0  0  0
 14 13  1  0  0  0  0
 15  5  1  0  0  0  0
 16 15  1  0  0  0  0
 17 18  1  0  0  0  0
 18 23  1  0  0  0  0
 19 18  2  0  0  0  0
 19 20  1  0  0  0  0
 20 21  2  0  0  0  0
 21 22  1  0  0  0  0
 22 25  1  0  0  0  0
 23 22  2  0  0  0  0
 24 19  1  0  0  0  0
 26 27  1  0  0  0  0
 26 20  1  0  0  0  0
 26 28  1  0  0  0  0
 27 31  1  0  0  0  0
 27 28  1  0  0  0  0
 28 33  1  0  0  0  0
 29 26  1  0  0  0  0
 30 27  1  0  0  0  0
 32 28  1  0  0  0  0
 34  6  1  0  0  0  0
 35 42  1  0  0  0  0
 35 43  1  1  0  0  0
 36 34  1  6  0  0  0
 36 35  1  0  0  0  0
 37 39  1  0  0  0  0
 37 36  1  0  0  0  0
 38 37  1  0  0  0  0
 39 40  1  0  0  0  0
 40 42  1  0  0  0  0
 41 40  1  0  0  0  0
 42 45  1  1  0  0  0
 44 43  1  0  0  0  0
 45 46  1  0  0  0  0
M  END
>  <minimizedAffinity>
-5.91763783

>  <minimizedRMSD>
0.512001157

$$$$
