
 OpenBabel03242523503D

 46 49  0  0  1  0  0  0  0  0999 V2000
   42.8130   34.5250   38.7800 C   0  0  1  0  0  0  0  0  0  0  0  0
   42.9170   35.2160   40.1400 C   0  0  1  0  0  0  0  0  0  0  0  0
   41.6220   35.4720   40.6270 O   0  0  0  0  0  0  0  0  0  0  0  0
   40.7120   35.7740   39.6130 C   0  0  0  0  0  0  0  0  0  0  0  0
   40.4120   34.5450   38.7630 C   0  0  2  0  0  0  0  0  0  0  0  0
   41.6080   33.6020   38.9030 C   0  0  1  0  0  0  0  0  0  0  0  0
   43.7500   33.9630   38.6540 H   0  0  0  0  0  0  0  0  0  0  0  0
   43.5150   36.1270   40.0710 H   0  0  0  0  0  0  0  0  0  0  0  0
   39.7910   36.0890   40.1450 H   0  0  0  0  0  0  0  0  0  0  0  0
   41.0060   36.6530   39.0040 H   0  0  0  0  0  0  0  0  0  0  0  0
   39.4590   34.0610   39.0380 H   0  0  0  0  0  0  0  0  0  0  0  0
   41.5750   33.1950   39.9480 H   0  0  0  0  0  0  0  0  0  0  0  0
   42.5950   35.4600   37.7720 O   0  0  0  0  0  0  0  0  0  0  0  0
   42.9940   35.0670   36.9430 H   0  0  0  0  0  0  0  0  0  0  0  0
   40.4410   34.9580   37.4160 O   0  0  0  0  0  0  0  0  0  0  0  0
   39.5220   35.2980   37.2120 H   0  0  0  0  0  0  0  0  0  0  0  0
   43.4350   34.2580   41.0200 O   0  0  0  0  0  0  0  0  0  0  0  0
   44.5540   34.3850   41.7360 C   0  0  0  0  0  0  0  0  0  0  0  0
   45.7980   34.4750   41.1160 C   0  0  0  0  0  0  0  0  0  0  0  0
   46.9270   34.6080   41.9170 C   0  0  0  0  0  0  0  0  0  0  0  0
   46.7870   34.6480   43.2960 N   0  0  0  0  0  0  0  0  0  0  0  0
   45.5740   34.5590   43.8470 C   0  0  0  0  0  0  0  0  0  0  0  0
   44.4610   34.4290   43.0850 N   0  0  0  0  0  0  0  0  0  0  0  0
   45.9250   34.4450   40.0540 H   0  0  0  0  0  0  0  0  0  0  0  0
   45.5350   34.5970   44.9220 H   0  0  0  0  0  0  0  0  0  0  0  0
   48.2970   34.6990   41.2860 C   0  0  0  0  0  0  0  0  0  0  0  0
   49.0550   35.9920   41.4800 C   0  0  0  0  0  0  0  0  0  0  0  0
   49.4660   34.6580   42.1280 C   0  0  0  0  0  0  0  0  0  0  0  0
   48.2830   34.3700   40.2470 H   0  0  0  0  0  0  0  0  0  0  0  0
   49.6630   36.3890   40.6640 H   0  0  0  0  0  0  0  0  0  0  0  0
   48.6110   36.7560   42.1470 H   0  0  0  0  0  0  0  0  0  0  0  0
   50.4080   34.2430   41.6740 H   0  0  0  0  0  0  0  0  0  0  0  0
   49.4180   34.6100   43.2300 H   0  0  0  0  0  0  0  0  0  0  0  0
   41.5710   32.6190   37.9370 O   0  0  0  0  0  0  0  0  0  0  0  0
   41.8360   31.3030   39.9340 C   0  0  2  0  0  3  0  0  0  0  0  0
   41.5800   31.3230   38.4300 C   0  0  2  0  0  3  0  0  0  0  0  0
   42.7590   30.6130   37.7960 C   0  0  0  0  0  3  0  0  0  0  0  0
   42.7310   30.6810   36.6730 H   0  0  0  0  0  0  0  0  0  0  0  0
   43.9050   31.3450   38.1690 O   0  0  0  0  0  0  0  0  0  0  0  0
   44.2570   30.8960   39.4430 C   0  0  0  0  0  3  0  0  0  0  0  0
   44.9440   30.0360   39.2990 H   0  0  0  0  0  0  0  0  0  0  0  0
   43.0620   30.4820   40.2710 C   0  0  1  0  0  3  0  0  0  0  0  0
   40.7440   30.6870   40.5520 O   0  0  0  0  0  0  0  0  0  0  0  0
   40.7960   29.7050   40.4570 H   0  0  0  0  0  0  0  0  0  0  0  0
   43.3310   30.7020   41.6250 O   0  0  0  0  0  0  0  0  0  0  0  0
   43.2080   29.8840   42.1770 H   0  0  0  0  0  0  0  0  0  0  0  0
  1  7  1  6  0  0  0
  1  6  1  0  0  0  0
  1  2  1  0  0  0  0
  2  8  1  6  0  0  0
  2  3  1  0  0  0  0
  2 17  1  0  0  0  0
  4  9  1  0  0  0  0
  4  3  1  0  0  0  0
  5  6  1  0  0  0  0
  5 11  1  1  0  0  0
  5  4  1  0  0  0  0
  6 12  1  1  0  0  0
 10  4  1  0  0  0  0
 13  1  1  0  0  0  0
 14 13  1  0  0  0  0
 15  5  1  0  0  0  0
 16 15  1  0  0  0  0
 17 18  1  0  0  0  0
 18 23  1  0  0  0  0
 19 18  2  0  0  0  0
 19 20  1  0  0  0  0
 20 21  2  0  0  0  0
 21 22  1  0  0  0  0
 22 25  1  0  0  0  0
 23 22  2  0  0  0  0
 24 19  1  0  0  0  0
 26 27  1  0  0  0  0
 26 20  1  0  0  0  0
 26 28  1  0  0  0  0
 27 28  1  0  0  0  0
 27 31  1  0  0  0  0
 28 33  1  0  0  0  0
 29 26  1  0  0  0  0
 30 27  1  0  0  0  0
 32 28  1  0  0  0  0
 34  6  1  0  0  0  0
 35 42  1  0  0  0  0
 35 43  1  1  0  0  0
 36 34  1  6  0  0  0
 36 35  1  0  0  0  0
 37 39  1  0  0  0  0
 37 36  1  0  0  0  0
 38 37  1  0  0  0  0
 39 40  1  0  0  0  0
 40 42  1  0  0  0  0
 41 40  1  0  0  0  0
 42 45  1  1  0  0  0
 44 43  1  0  0  0  0
 45 46  1  0  0  0  0
M  END
>  <minimizedAffinity>
-5.93458033

>  <minimizedRMSD>
0.613057256

$$$$
