
 OpenBabel03242523503D

 46 49  0  0  1  0  0  0  0  0999 V2000
   42.6930   34.5470   38.7360 C   0  0  1  0  0  0  0  0  0  0  0  0
   42.9720   35.1920   40.0940 C   0  0  1  0  0  0  0  0  0  0  0  0
   41.7490   35.4900   40.7210 O   0  0  0  0  0  0  0  0  0  0  0  0
   40.7510   35.8600   39.8180 C   0  0  0  0  0  0  0  0  0  0  0  0
   40.3080   34.6710   38.9750 C   0  0  2  0  0  0  0  0  0  0  0  0
   41.4660   33.6730   38.9640 C   0  0  1  0  0  0  0  0  0  0  0  0
   43.5850   33.9480   38.4970 H   0  0  0  0  0  0  0  0  0  0  0  0
   43.6000   36.0780   39.9830 H   0  0  0  0  0  0  0  0  0  0  0  0
   39.9070   36.2000   40.4530 H   0  0  0  0  0  0  0  0  0  0  0  0
   41.0200   36.7440   39.2030 H   0  0  0  0  0  0  0  0  0  0  0  0
   39.3670   34.2210   39.3380 H   0  0  0  0  0  0  0  0  0  0  0  0
   41.5250   33.2380   39.9960 H   0  0  0  0  0  0  0  0  0  0  0  0
   42.4140   35.5200   37.7800 O   0  0  0  0  0  0  0  0  0  0  0  0
   42.7040   35.1340   36.9040 H   0  0  0  0  0  0  0  0  0  0  0  0
   40.2140   35.1230   37.6430 O   0  0  0  0  0  0  0  0  0  0  0  0
   39.2950   35.5070   37.5460 H   0  0  0  0  0  0  0  0  0  0  0  0
   43.5350   34.1870   40.8900 O   0  0  0  0  0  0  0  0  0  0  0  0
   44.6250   34.3160   41.6480 C   0  0  0  0  0  0  0  0  0  0  0  0
   45.8890   34.4360   41.0750 C   0  0  0  0  0  0  0  0  0  0  0  0
   46.9870   34.5700   41.9200 C   0  0  0  0  0  0  0  0  0  0  0  0
   46.7960   34.5800   43.2930 N   0  0  0  0  0  0  0  0  0  0  0  0
   45.5660   34.4620   43.7970 C   0  0  0  0  0  0  0  0  0  0  0  0
   44.4830   34.3310   42.9930 N   0  0  0  0  0  0  0  0  0  0  0  0
   46.0540   34.4300   40.0180 H   0  0  0  0  0  0  0  0  0  0  0  0
   45.4870   34.4760   44.8710 H   0  0  0  0  0  0  0  0  0  0  0  0
   48.3770   34.6930   41.3400 C   0  0  0  0  0  0  0  0  0  0  0  0
   49.0740   36.0220   41.5140 C   0  0  0  0  0  0  0  0  0  0  0  0
   49.5110   34.7320   42.2290 C   0  0  0  0  0  0  0  0  0  0  0  0
   48.4180   34.3260   40.3150 H   0  0  0  0  0  0  0  0  0  0  0  0
   49.6990   36.4140   40.7090 H   0  0  0  0  0  0  0  0  0  0  0  0
   48.5730   36.7920   42.1330 H   0  0  0  0  0  0  0  0  0  0  0  0
   50.4870   34.3390   41.8290 H   0  0  0  0  0  0  0  0  0  0  0  0
   49.4190   34.7220   43.3290 H   0  0  0  0  0  0  0  0  0  0  0  0
   41.2820   32.7220   37.9830 O   0  0  0  0  0  0  0  0  0  0  0  0
   41.5990   30.4920   37.1350 C   0  0  2  0  0  3  0  0  0  0  0  0
   41.8310   31.4820   38.2710 C   0  0  2  0  0  3  0  0  0  0  0  0
   41.0800   30.9300   39.4660 C   0  0  0  0  0  3  0  0  0  0  0  0
   41.0840   31.6520   40.3300 H   0  0  0  0  0  0  0  0  0  0  0  0
   39.7270   30.8480   39.0770 O   0  0  0  0  0  0  0  0  0  0  0  0
   39.5950   29.6470   38.3780 C   0  0  0  0  0  3  0  0  0  0  0  0
   39.3500   28.8670   39.1270 H   0  0  0  0  0  0  0  0  0  0  0  0
   40.8460   29.2700   37.6160 C   0  0  1  0  0  3  0  0  0  0  0  0
   42.8450   30.0550   36.6770 O   0  0  0  0  0  0  0  0  0  0  0  0
   43.2230   29.3760   37.2880 H   0  0  0  0  0  0  0  0  0  0  0  0
   40.4980   28.5390   36.4760 O   0  0  0  0  0  0  0  0  0  0  0  0
   40.9600   27.6580   36.4320 H   0  0  0  0  0  0  0  0  0  0  0  0
  1  7  1  6  0  0  0
  1  6  1  0  0  0  0
  1  2  1  0  0  0  0
  2  8  1  6  0  0  0
  2  3  1  0  0  0  0
  2 17  1  0  0  0  0
  4  9  1  0  0  0  0
  4  3  1  0  0  0  0
  5 11  1  1  0  0  0
  5  4  1  0  0  0  0
  6  5  1  0  0  0  0
  6 12  1  1  0  0  0
 10  4  1  0  0  0  0
 13  1  1  0  0  0  0
 14 13  1  0  0  0  0
 15  5  1  0  0  0  0
 16 15  1  0  0  0  0
 17 18  1  0  0  0  0
 18 23  1  0  0  0  0
 19 18  2  0  0  0  0
 19 20  1  0  0  0  0
 20 21  2  0  0  0  0
 21 22  1  0  0  0  0
 22 25  1  0  0  0  0
 23 22  2  0  0  0  0
 24 19  1  0  0  0  0
 26 27  1  0  0  0  0
 26 20  1  0  0  0  0
 26 28  1  0  0  0  0
 27 31  1  0  0  0  0
 27 28  1  0  0  0  0
 28 33  1  0  0  0  0
 29 26  1  0  0  0  0
 30 27  1  0  0  0  0
 32 28  1  0  0  0  0
 34  6  1  0  0  0  0
 35 43  1  1  0  0  0
 35 42  1  0  0  0  0
 35 36  1  0  0  0  0
 36 34  1  6  0  0  0
 36 37  1  0  0  0  0
 37 38  1  0  0  0  0
 39 37  1  0  0  0  0
 40 39  1  0  0  0  0
 40 41  1  0  0  0  0
 42 45  1  6  0  0  0
 42 40  1  0  0  0  0
 43 44  1  0  0  0  0
 46 45  1  0  0  0  0
M  END
>  <minimizedAffinity>
-5.95764828

>  <minimizedRMSD>
0.601088643

$$$$
