
 OpenBabel03242523503D

 46 49  0  0  1  0  0  0  0  0999 V2000
   42.7120   34.6130   38.7130 C   0  0  1  0  0  0  0  0  0  0  0  0
   42.9340   35.2210   40.0980 C   0  0  1  0  0  0  0  0  0  0  0  0
   41.6850   35.4550   40.7030 O   0  0  0  0  0  0  0  0  0  0  0  0
   40.6990   35.8220   39.7860 C   0  0  0  0  0  0  0  0  0  0  0  0
   40.3180   34.6480   38.8920 C   0  0  2  0  0  0  0  0  0  0  0  0
   41.5110   33.6910   38.8790 C   0  0  1  0  0  0  0  0  0  0  0  0
   43.6300   34.0530   38.4780 H   0  0  0  0  0  0  0  0  0  0  0  0
   43.5340   36.1300   40.0340 H   0  0  0  0  0  0  0  0  0  0  0  0
   39.8280   36.1110   40.4090 H   0  0  0  0  0  0  0  0  0  0  0  0
   40.9530   36.7340   39.2090 H   0  0  0  0  0  0  0  0  0  0  0  0
   39.3850   34.1550   39.2150 H   0  0  0  0  0  0  0  0  0  0  0  0
   41.5590   33.2230   39.8970 H   0  0  0  0  0  0  0  0  0  0  0  0
   42.4240   35.6080   37.7830 O   0  0  0  0  0  0  0  0  0  0  0  0
   42.7500   35.2620   36.9020 H   0  0  0  0  0  0  0  0  0  0  0  0
   40.2430   35.1410   37.5740 O   0  0  0  0  0  0  0  0  0  0  0  0
   39.3140   35.4980   37.4660 H   0  0  0  0  0  0  0  0  0  0  0  0
   43.5110   34.2080   40.8750 O   0  0  0  0  0  0  0  0  0  0  0  0
   44.5990   34.3380   41.6350 C   0  0  0  0  0  0  0  0  0  0  0  0
   45.8670   34.4410   41.0660 C   0  0  0  0  0  0  0  0  0  0  0  0
   46.9620   34.5760   41.9120 C   0  0  0  0  0  0  0  0  0  0  0  0
   46.7680   34.6050   43.2840 N   0  0  0  0  0  0  0  0  0  0  0  0
   45.5350   34.5030   43.7860 C   0  0  0  0  0  0  0  0  0  0  0  0
   44.4540   34.3710   42.9800 N   0  0  0  0  0  0  0  0  0  0  0  0
   46.0350   34.4200   40.0090 H   0  0  0  0  0  0  0  0  0  0  0  0
   45.4530   34.5320   44.8590 H   0  0  0  0  0  0  0  0  0  0  0  0
   48.3550   34.6810   41.3350 C   0  0  0  0  0  0  0  0  0  0  0  0
   49.0670   36.0040   41.5040 C   0  0  0  0  0  0  0  0  0  0  0  0
   49.4870   34.7120   42.2260 C   0  0  0  0  0  0  0  0  0  0  0  0
   48.3950   34.3080   40.3120 H   0  0  0  0  0  0  0  0  0  0  0  0
   49.6980   36.3840   40.6980 H   0  0  0  0  0  0  0  0  0  0  0  0
   48.5730   36.7810   42.1180 H   0  0  0  0  0  0  0  0  0  0  0  0
   50.4600   34.3060   41.8320 H   0  0  0  0  0  0  0  0  0  0  0  0
   49.3920   34.7090   43.3260 H   0  0  0  0  0  0  0  0  0  0  0  0
   41.3850   32.7680   37.8620 O   0  0  0  0  0  0  0  0  0  0  0  0
   42.2550   30.7360   36.9090 C   0  0  2  0  0  3  0  0  0  0  0  0
   41.8650   31.5040   38.1680 C   0  0  2  0  0  3  0  0  0  0  0  0
   40.7200   30.7310   38.7900 C   0  0  0  0  0  3  0  0  0  0  0  0
   40.2720   31.2810   39.6660 H   0  0  0  0  0  0  0  0  0  0  0  0
   39.6920   30.7030   37.8240 O   0  0  0  0  0  0  0  0  0  0  0  0
   39.9990   29.6490   36.9620 C   0  0  0  0  0  3  0  0  0  0  0  0
   39.5230   28.7420   37.3870 H   0  0  0  0  0  0  0  0  0  0  0  0
   41.4870   29.4360   36.7990 C   0  0  1  0  0  3  0  0  0  0  0  0
   43.6100   30.4090   37.0020 O   0  0  0  0  0  0  0  0  0  0  0  0
   43.7420   29.6340   37.6010 H   0  0  0  0  0  0  0  0  0  0  0  0
   41.7500   28.9230   35.5260 O   0  0  0  0  0  0  0  0  0  0  0  0
   42.2650   28.0710   35.5560 H   0  0  0  0  0  0  0  0  0  0  0  0
  1  7  1  6  0  0  0
  1  6  1  0  0  0  0
  1  2  1  0  0  0  0
  2  8  1  6  0  0  0
  2  3  1  0  0  0  0
  2 17  1  0  0  0  0
  4  9  1  0  0  0  0
  4  3  1  0  0  0  0
  5 11  1  1  0  0  0
  5  4  1  0  0  0  0
  6  5  1  0  0  0  0
  6 12  1  1  0  0  0
 10  4  1  0  0  0  0
 13  1  1  0  0  0  0
 14 13  1  0  0  0  0
 15  5  1  0  0  0  0
 16 15  1  0  0  0  0
 17 18  1  0  0  0  0
 18 23  1  0  0  0  0
 19 18  2  0  0  0  0
 19 20  1  0  0  0  0
 20 21  2  0  0  0  0
 21 22  1  0  0  0  0
 22 25  1  0  0  0  0
 23 22  2  0  0  0  0
 24 19  1  0  0  0  0
 26 27  1  0  0  0  0
 26 20  1  0  0  0  0
 26 28  1  0  0  0  0
 27 31  1  0  0  0  0
 27 28  1  0  0  0  0
 28 33  1  0  0  0  0
 29 26  1  0  0  0  0
 30 27  1  0  0  0  0
 32 28  1  0  0  0  0
 34  6  1  0  0  0  0
 35 43  1  1  0  0  0
 35 36  1  0  0  0  0
 36 34  1  6  0  0  0
 36 37  1  0  0  0  0
 37 38  1  0  0  0  0
 39 37  1  0  0  0  0
 40 41  1  0  0  0  0
 40 39  1  0  0  0  0
 42 45  1  6  0  0  0
 42 35  1  0  0  0  0
 42 40  1  0  0  0  0
 43 44  1  0  0  0  0
 45 46  1  0  0  0  0
M  END
>  <minimizedAffinity>
-6.0010643

>  <minimizedRMSD>
1.27883661

$$$$
