
 OpenBabel03242523493D

 46 49  0  0  1  0  0  0  0  0999 V2000
   42.8380   34.5170   38.7850 C   0  0  1  0  0  0  0  0  0  0  0  0
   42.9220   35.1840   40.1580 C   0  0  1  0  0  0  0  0  0  0  0  0
   41.6190   35.3970   40.6460 O   0  0  0  0  0  0  0  0  0  0  0  0
   40.7030   35.6940   39.6360 C   0  0  0  0  0  0  0  0  0  0  0  0
   40.4380   34.4740   38.7620 C   0  0  2  0  0  0  0  0  0  0  0  0
   41.6580   33.5600   38.8870 C   0  0  1  0  0  0  0  0  0  0  0  0
   43.7900   33.9820   38.6500 H   0  0  0  0  0  0  0  0  0  0  0  0
   43.4950   36.1110   40.1070 H   0  0  0  0  0  0  0  0  0  0  0  0
   39.7730   35.9750   40.1710 H   0  0  0  0  0  0  0  0  0  0  0  0
   40.9760   36.5920   39.0450 H   0  0  0  0  0  0  0  0  0  0  0  0
   39.4970   33.9610   39.0250 H   0  0  0  0  0  0  0  0  0  0  0  0
   41.6340   33.1330   39.9240 H   0  0  0  0  0  0  0  0  0  0  0  0
   42.5980   35.4650   37.7940 O   0  0  0  0  0  0  0  0  0  0  0  0
   43.0090   35.0980   36.9580 H   0  0  0  0  0  0  0  0  0  0  0  0
   40.4590   34.9140   37.4230 O   0  0  0  0  0  0  0  0  0  0  0  0
   39.5320   35.2330   37.2230 H   0  0  0  0  0  0  0  0  0  0  0  0
   43.4630   34.2230   41.0210 O   0  0  0  0  0  0  0  0  0  0  0  0
   44.5790   34.3630   41.7380 C   0  0  0  0  0  0  0  0  0  0  0  0
   45.8240   34.4600   41.1190 C   0  0  0  0  0  0  0  0  0  0  0  0
   46.9500   34.6080   41.9210 C   0  0  0  0  0  0  0  0  0  0  0  0
   46.8080   34.6540   43.3000 N   0  0  0  0  0  0  0  0  0  0  0  0
   45.5950   34.5570   43.8490 C   0  0  0  0  0  0  0  0  0  0  0  0
   44.4840   34.4140   43.0860 N   0  0  0  0  0  0  0  0  0  0  0  0
   45.9520   34.4260   40.0580 H   0  0  0  0  0  0  0  0  0  0  0  0
   45.5540   34.6000   44.9240 H   0  0  0  0  0  0  0  0  0  0  0  0
   48.3210   34.7070   41.2920 C   0  0  0  0  0  0  0  0  0  0  0  0
   49.0680   36.0050   41.4820 C   0  0  0  0  0  0  0  0  0  0  0  0
   49.4890   34.6770   42.1350 C   0  0  0  0  0  0  0  0  0  0  0  0
   48.3090   34.3740   40.2530 H   0  0  0  0  0  0  0  0  0  0  0  0
   49.6750   36.4050   40.6670 H   0  0  0  0  0  0  0  0  0  0  0  0
   48.6180   36.7680   42.1470 H   0  0  0  0  0  0  0  0  0  0  0  0
   50.4340   34.2670   41.6830 H   0  0  0  0  0  0  0  0  0  0  0  0
   49.4390   34.6310   43.2370 H   0  0  0  0  0  0  0  0  0  0  0  0
   41.6480   32.5950   37.9020 O   0  0  0  0  0  0  0  0  0  0  0  0
   43.5980   31.4350   37.0970 C   0  0  2  0  0  3  0  0  0  0  0  0
   42.4880   31.5180   38.1400 C   0  0  2  0  0  3  0  0  0  0  0  0
   41.6610   30.2610   37.9720 C   0  0  0  0  0  3  0  0  0  0  0  0
   40.7360   30.2810   38.6160 H   0  0  0  0  0  0  0  0  0  0  0  0
   41.1720   30.2860   36.6490 O   0  0  0  0  0  0  0  0  0  0  0  0
   42.1970   29.7770   35.8470 C   0  0  0  0  0  3  0  0  0  0  0  0
   42.0500   28.6790   35.8020 H   0  0  0  0  0  0  0  0  0  0  0  0
   43.5750   30.1040   36.3780 C   0  0  1  0  0  3  0  0  0  0  0  0
   44.8240   31.5260   37.7590 O   0  0  0  0  0  0  0  0  0  0  0  0
   45.0580   30.6630   38.1810 H   0  0  0  0  0  0  0  0  0  0  0  0
   44.4730   30.2090   35.3120 O   0  0  0  0  0  0  0  0  0  0  0  0
   45.2600   29.6080   35.4150 H   0  0  0  0  0  0  0  0  0  0  0  0
  1  7  1  6  0  0  0
  1  6  1  0  0  0  0
  1  2  1  0  0  0  0
  2  8  1  6  0  0  0
  2  3  1  0  0  0  0
  2 17  1  0  0  0  0
  4  9  1  0  0  0  0
  4  3  1  0  0  0  0
  5  6  1  0  0  0  0
  5 11  1  1  0  0  0
  5  4  1  0  0  0  0
  6 12  1  1  0  0  0
 10  4  1  0  0  0  0
 13  1  1  0  0  0  0
 14 13  1  0  0  0  0
 15  5  1  0  0  0  0
 16 15  1  0  0  0  0
 17 18  1  0  0  0  0
 18 23  1  0  0  0  0
 19 18  2  0  0  0  0
 19 20  1  0  0  0  0
 20 21  2  0  0  0  0
 21 22  1  0  0  0  0
 22 25  1  0  0  0  0
 23 22  2  0  0  0  0
 24 19  1  0  0  0  0
 26 27  1  0  0  0  0
 26 20  1  0  0  0  0
 26 28  1  0  0  0  0
 27 28  1  0  0  0  0
 27 31  1  0  0  0  0
 28 33  1  0  0  0  0
 29 26  1  0  0  0  0
 30 27  1  0  0  0  0
 32 28  1  0  0  0  0
 34  6  1  0  0  0  0
 35 43  1  1  0  0  0
 35 36  1  0  0  0  0
 36 34  1  6  0  0  0
 37 36  1  0  0  0  0
 37 38  1  0  0  0  0
 39 37  1  0  0  0  0
 40 42  1  0  0  0  0
 40 39  1  0  0  0  0
 41 40  1  0  0  0  0
 42 45  1  6  0  0  0
 42 35  1  0  0  0  0
 43 44  1  0  0  0  0
 45 46  1  0  0  0  0
M  END
>  <minimizedAffinity>
-6.06617689

>  <minimizedRMSD>
0.691529155

$$$$
