
     RDKit          3D

 27 28  0  0  0  0  0  0  0  0999 V2000
   44.6636   36.0714   44.2603 C   0  0  0  0  0  0  0  0  0  0  0  0
   45.4969   35.5591   43.2321 C   0  0  0  0  0  0  0  0  0  0  0  0
   46.2028   34.3592   43.4919 C   0  0  0  0  0  0  0  0  0  0  0  0
   46.0240   33.7917   44.7126 N   0  0  0  0  0  0  0  0  0  0  0  0
   45.2239   34.3107   45.6595 C   0  0  0  0  0  0  0  0  0  0  0  0
   44.5571   35.4378   45.4235 N   0  0  0  0  0  0  0  0  0  0  0  0
   45.0476   33.7191   46.9102 O   0  0  0  0  0  0  0  0  0  0  0  0
   44.1703   36.9717   43.9874 H   0  0  0  0  0  0  0  0  0  0  0  0
   45.6353   36.0203   42.2551 H   0  0  0  0  0  0  0  0  0  0  0  0
   46.8487   33.9320   42.7397 H   0  0  0  0  0  0  0  0  0  0  0  0
   44.8662   31.1740   45.3810 O   0  0  0  0  0  0  0  0  0  0  0  0
   46.0166   31.8131   45.8384 C   0  0  1  0  0  0  0  0  0  0  0  0
   45.7748   32.5108   47.1369 C   0  0  1  0  0  0  0  0  0  0  0  0
   47.1096   32.8062   47.8000 C   0  0  2  0  0  0  0  0  0  0  0  0
   47.3211   32.1098   48.6555 H   0  0  0  0  0  0  0  0  0  0  0  0
   48.1430   32.8409   46.8854 O   0  0  0  0  0  0  0  0  0  0  0  0
   48.4028   31.6050   46.3119 C   0  0  1  0  0  0  0  0  0  0  0  0
   48.8897   31.7945   45.3294 H   0  0  0  0  0  0  0  0  0  0  0  0
   47.1432   30.8202   46.0391 C   0  0  2  0  0  0  0  0  0  0  0  0
   47.2532   30.0999   44.8299 O   0  0  0  0  0  0  0  0  0  0  0  0
   45.0654   30.7207   44.5220 H   0  0  0  0  0  0  0  0  0  0  0  0
   46.3831   32.5301   45.0640 H   0  0  0  0  0  0  0  0  0  0  0  0
   45.2363   31.8481   47.8348 H   0  0  0  0  0  0  0  0  0  0  0  0
   47.0260   33.8246   48.2397 H   0  0  0  0  0  0  0  0  0  0  0  0
   49.0938   30.9883   46.8927 H   0  0  0  0  0  0  0  0  0  0  0  0
   46.8447   30.1611   46.8601 H   0  0  0  0  0  0  0  0  0  0  0  0
   47.0071   29.1585   45.0210 H   0  0  0  0  0  0  0  0  0  0  0  0
  1  6  2  0
  2  3  2  0
  2  1  1  0
  3  4  1  0
  4  5  2  0
  5  7  1  0
  6  5  1  0
  1  8  1  0
  2  9  1  0
  3 10  1  0
 11 12  1  0
 12 13  1  0
 13 14  1  0
 14 15  1  1
 14 16  1  0
 16 17  1  0
 17 18  1  6
 17 19  1  0
 19 20  1  0
 19 12  1  0
 11 21  1  0
 12 22  1  6
 13 23  1  1
 14 24  1  0
 17 25  1  0
 19 26  1  1
 20 27  1  0
  7 13  1  0
M  ISO  5   8  14   9  14  10  14  15   8  18   8
M  END
>  <DihAtoms>  (1) 
4,6,12,11

>  <DihDeg>  (1) 
122.44779480635822

$$$$
