
 OpenBabel03242517503D

 22 23  0  0  1  0  0  0  0  0999 V2000
   45.5900   32.1870   48.0300 C   0  0  1  0  0  3  0  0  0  0  0  0
   46.0920   32.5470   46.6710 C   0  0  1  0  0  3  0  0  0  0  0  0
   46.2100   31.2850   45.8320 C   0  0  0  0  0  3  0  0  0  0  0  0
   47.2750   30.9510   45.7160 H   0  0  0  0  0  0  0  0  0  0  0  0
   45.3930   30.2760   46.3020 O   0  0  0  0  0  0  0  0  0  0  0  0
   45.7790   29.8010   47.5470 C   0  0  0  0  0  3  0  0  0  0  0  0
   44.8770   29.3570   48.0230 H   0  0  0  0  0  0  0  0  0  0  0  0
   46.2670   30.9000   48.4570 C   0  0  2  0  0  3  0  0  0  0  0  0
   45.8310   33.2050   48.9500 O   0  0  0  0  0  0  0  0  0  0  0  0
   45.4880   32.9290   49.8380 H   0  0  0  0  0  0  0  0  0  0  0  0
   45.8600   30.6660   49.7890 O   0  0  0  0  0  0  0  0  0  0  0  0
   46.6660   30.7390   50.3640 H   0  0  0  0  0  0  0  0  0  0  0  0
   45.2020   33.4780   46.0550 O   0  0  0  0  0  0  0  0  0  0  0  0
   45.2330   35.6160   43.2040 C   0  0  0  0  0  0  0  0  0  0  0  0
   46.4560   35.3000   42.5590 C   0  0  0  0  0  0  0  0  0  0  0  0
   47.2780   34.3110   43.1530 C   0  0  0  0  0  0  0  0  0  0  0  0
   46.8240   33.7410   44.2990 N   0  0  0  0  0  0  0  0  0  0  0  0
   45.6570   34.0710   44.8780 C   0  0  0  0  0  0  0  0  0  0  0  0
   44.8790   34.9990   44.3260 N   0  0  0  0  0  0  0  0  0  0  0  0
   44.6750   36.3660   42.6970 H   0  0  0  0  0  0  0  0  0  0  0  0
   46.8130   35.7610   41.6390 H   0  0  0  0  0  0  0  0  0  0  0  0
   48.2180   34.0370   42.6980 H   0  0  0  0  0  0  0  0  0  0  0  0
  1  8  1  0  0  0  0
  1  9  1  1  0  0  0
  2 13  1  6  0  0  0
  2  1  1  0  0  0  0
  3  5  1  0  0  0  0
  3  2  1  0  0  0  0
  4  3  1  0  0  0  0
  5  6  1  0  0  0  0
  6  7  1  0  0  0  0
  6  8  1  0  0  0  0
  8 11  1  1  0  0  0
  9 10  1  0  0  0  0
 11 12  1  0  0  0  0
 14 19  1  0  0  0  0
 15 16  1  0  0  0  0
 15 14  2  0  0  0  0
 16 17  2  0  0  0  0
 17 18  1  0  0  0  0
 18 13  1  0  0  0  0
 19 18  2  0  0  0  0
 20 14  1  0  0  0  0
 21 15  1  0  0  0  0
 22 16  1  0  0  0  0
M  END
>  <minimizedAffinity>
-4.74660206

>  <minimizedRMSD>
0.919646502

$$$$
