REMARK  Name = 
REMARK  4 active torsions:
REMARK  status: ('A' for Active; 'I' for Inactive)
REMARK    1  A    between atoms: C_5  and  O_7
REMARK    2  A    between atoms: O_7  and  C_13
REMARK    3  A    between atoms: O_11  and  C_12
REMARK    4  A    between atoms: C_19  and  O_20
REMARK                            x       y       z     vdW  Elec       q    Type
REMARK                         _______ _______ _______ _____ _____    ______ ____
ROOT
ATOM      1  C   UNL     1      46.050  32.350  48.596  0.00  0.00    +0.000 C 
ATOM      2  C   UNL     1      45.775  32.511  47.137  0.00  0.00    +0.000 C 
ATOM      3  C   UNL     1      44.985  31.310  46.644  0.00  0.00    +0.000 C 
ATOM      4  H   UNL     1      45.621  30.598  46.052  0.00  0.00    +0.000 HD
ATOM      5  O   UNL     1      44.309  30.681  47.670  0.00  0.00    +0.000 OA
ATOM      6  C   UNL     1      45.156  30.078  48.588  0.00  0.00    +0.000 C 
ATOM      7  H   UNL     1      44.600  30.004  49.549  0.00  0.00    +0.000 HD
ATOM      8  C   UNL     1      46.395  30.898  48.855  0.00  0.00    +0.000 C 
ENDROOT
BRANCH   1   9
ATOM      9  O   UNL     1      47.080  33.188  49.017  0.00  0.00    +0.000 OA
ATOM     10  H   UNL     1      47.236  33.052  49.986  0.00  0.00    +0.000 HD
ENDBRANCH   1   9
BRANCH   8  11
ATOM     11  O   UNL     1      46.767  30.817  50.214  0.00  0.00    +0.000 OA
ATOM     12  H   UNL     1      47.727  30.572  50.245  0.00  0.00    +0.000 HD
ENDBRANCH   8  11
BRANCH   2  13
ATOM     13  O   UNL     1      45.048  33.719  46.910  0.00  0.00    +0.000 OA
BRANCH  13  18
ATOM     14  C   UNL     1      44.664  36.071  44.260  0.00  0.00    +0.000 A 
ATOM     15  C   UNL     1      45.497  35.559  43.232  0.00  0.00    +0.000 A 
ATOM     16  C   UNL     1      46.203  34.359  43.492  0.00  0.00    +0.000 A 
ATOM     17  N   UNL     1      46.024  33.792  44.713  0.00  0.00    +0.000 NA
ATOM     18  C   UNL     1      45.224  34.311  45.660  0.00  0.00    +0.000 A 
ATOM     19  N   UNL     1      44.557  35.438  45.423  0.00  0.00    +0.000 NA
ATOM     20  H   UNL     1      44.170  36.972  43.987  0.00  0.00    +0.000 HD
ATOM     21  H   UNL     1      45.635  36.020  42.255  0.00  0.00    +0.000 HD
ATOM     22  H   UNL     1      46.849  33.932  42.740  0.00  0.00    +0.000 HD
ENDBRANCH  13  18
ENDBRANCH   2  13
TORSDOF 4
