
     RDKit          3D

 27 28  0  0  0  0  0  0  0  0999 V2000
   44.6636   36.0714   44.2603 C   0  0  0  0  0  0  0  0  0  0  0  0
   45.4969   35.5591   43.2321 C   0  0  0  0  0  0  0  0  0  0  0  0
   46.2028   34.3592   43.4919 C   0  0  0  0  0  0  0  0  0  0  0  0
   46.0240   33.7917   44.7126 N   0  0  0  0  0  0  0  0  0  0  0  0
   45.2239   34.3107   45.6595 C   0  0  0  0  0  0  0  0  0  0  0  0
   44.5571   35.4378   45.4235 N   0  0  0  0  0  0  0  0  0  0  0  0
   45.0476   33.7191   46.9102 O   0  0  0  0  0  0  0  0  0  0  0  0
   44.1703   36.9717   43.9874 H   0  0  0  0  0  0  0  0  0  0  0  0
   45.6353   36.0203   42.2551 H   0  0  0  0  0  0  0  0  0  0  0  0
   46.8487   33.9320   42.7397 H   0  0  0  0  0  0  0  0  0  0  0  0
   44.6199   31.7177   49.0690 O   0  0  0  0  0  0  0  0  0  0  0  0
   44.8693   31.4756   47.7198 C   0  0  1  0  0  0  0  0  0  0  0  0
   45.7748   32.5108   47.1369 C   0  0  1  0  0  0  0  0  0  0  0  0
   46.3593   31.9862   45.8362 C   0  0  2  0  0  0  0  0  0  0  0  0
   47.4303   31.6681   45.9508 H   0  0  0  0  0  0  0  0  0  0  0  0
   45.5751   30.9946   45.2817 O   0  0  0  0  0  0  0  0  0  0  0  0
   45.5463   29.8354   46.0427 C   0  0  1  0  0  0  0  0  0  0  0  0
   44.6027   29.3013   45.7923 H   0  0  0  0  0  0  0  0  0  0  0  0
   45.5159   30.1194   47.5244 C   0  0  2  0  0  0  0  0  0  0  0  0
   44.6922   29.1902   48.1963 O   0  0  0  0  0  0  0  0  0  0  0  0
   44.0204   31.0110   49.4211 H   0  0  0  0  0  0  0  0  0  0  0  0
   43.9037   31.4311   47.1598 H   0  0  0  0  0  0  0  0  0  0  0  0
   46.6374   32.6851   47.8016 H   0  0  0  0  0  0  0  0  0  0  0  0
   46.3617   32.8400   45.1232 H   0  0  0  0  0  0  0  0  0  0  0  0
   46.3664   29.1463   45.8240 H   0  0  0  0  0  0  0  0  0  0  0  0
   46.5063   30.1689   47.9870 H   0  0  0  0  0  0  0  0  0  0  0  0
   45.2173   28.8187   48.9510 H   0  0  0  0  0  0  0  0  0  0  0  0
  1  6  2  0
  2  3  2  0
  2  1  1  0
  3  4  1  0
  4  5  2  0
  5  7  1  0
  6  5  1  0
  1  8  1  0
  2  9  1  0
  3 10  1  0
 11 12  1  0
 12 13  1  0
 13 14  1  0
 14 15  1  1
 14 16  1  0
 16 17  1  0
 17 18  1  6
 17 19  1  0
 19 20  1  0
 19 12  1  0
 11 21  1  0
 12 22  1  6
 13 23  1  1
 14 24  1  0
 17 25  1  0
 19 26  1  1
 20 27  1  0
  7 13  1  0
M  ISO  5   8  14   9  14  10  14  15   8  18   8
M  END
>  <DihAtoms>  (1) 
4,6,12,11

>  <DihDeg>  (1) 
122.44779480635822

$$$$
