
     RDKit          3D

 27 28  0  0  0  0  0  0  0  0999 V2000
   44.6636   36.0714   44.2603 C   0  0  0  0  0  0  0  0  0  0  0  0
   45.4969   35.5591   43.2321 C   0  0  0  0  0  0  0  0  0  0  0  0
   46.2028   34.3592   43.4919 C   0  0  0  0  0  0  0  0  0  0  0  0
   46.0240   33.7917   44.7126 N   0  0  0  0  0  0  0  0  0  0  0  0
   45.2239   34.3107   45.6595 C   0  0  0  0  0  0  0  0  0  0  0  0
   44.5571   35.4378   45.4235 N   0  0  0  0  0  0  0  0  0  0  0  0
   45.0476   33.7191   46.9102 O   0  0  0  0  0  0  0  0  0  0  0  0
   44.1703   36.9717   43.9874 H   0  0  0  0  0  0  0  0  0  0  0  0
   45.6353   36.0203   42.2551 H   0  0  0  0  0  0  0  0  0  0  0  0
   46.8487   33.9320   42.7397 H   0  0  0  0  0  0  0  0  0  0  0  0
   47.0801   33.1885   49.0165 O   0  0  0  0  0  0  0  0  0  0  0  0
   46.0495   32.3503   48.5964 C   0  0  1  0  0  0  0  0  0  0  0  0
   45.7748   32.5108   47.1369 C   0  0  1  0  0  0  0  0  0  0  0  0
   44.9847   31.3104   46.6436 C   0  0  2  0  0  0  0  0  0  0  0  0
   45.6209   30.5982   46.0524 H   0  0  0  0  0  0  0  0  0  0  0  0
   44.3093   30.6808   47.6698 O   0  0  0  0  0  0  0  0  0  0  0  0
   45.1560   30.0781   48.5883 C   0  0  1  0  0  0  0  0  0  0  0  0
   44.5996   30.0042   49.5491 H   0  0  0  0  0  0  0  0  0  0  0  0
   46.3946   30.8978   48.8545 C   0  0  2  0  0  0  0  0  0  0  0  0
   46.7666   30.8172   50.2140 O   0  0  0  0  0  0  0  0  0  0  0  0
   47.2358   33.0521   49.9861 H   0  0  0  0  0  0  0  0  0  0  0  0
   45.1303   32.5518   49.1985 H   0  0  0  0  0  0  0  0  0  0  0  0
   46.7178   32.5015   46.5650 H   0  0  0  0  0  0  0  0  0  0  0  0
   44.2188   31.7034   45.9390 H   0  0  0  0  0  0  0  0  0  0  0  0
   45.4484   29.0609   48.3140 H   0  0  0  0  0  0  0  0  0  0  0  0
   47.2387   30.6503   48.2036 H   0  0  0  0  0  0  0  0  0  0  0  0
   47.7270   30.5720   50.2455 H   0  0  0  0  0  0  0  0  0  0  0  0
  1  6  2  0
  2  3  2  0
  2  1  1  0
  3  4  1  0
  4  5  2  0
  5  7  1  0
  6  5  1  0
  1  8  1  0
  2  9  1  0
  3 10  1  0
 11 12  1  0
 12 13  1  0
 13 14  1  0
 14 15  1  6
 14 16  1  0
 16 17  1  0
 17 18  1  1
 17 19  1  0
 19 20  1  0
 19 12  1  0
 11 21  1  0
 12 22  1  1
 13 23  1  6
 14 24  1  0
 17 25  1  0
 19 26  1  6
 20 27  1  0
  7 13  1  0
M  ISO  5   8  14   9  14  10  14  15   8  18   8
M  END
>  <DihAtoms>  (1) 
4,6,12,11

>  <DihDeg>  (1) 
122.44779480635822

$$$$
