
     RDKit          3D

 27 28  0  0  0  0  0  0  0  0999 V2000
   44.6636   36.0714   44.2603 C   0  0  0  0  0  0  0  0  0  0  0  0
   45.4969   35.5591   43.2321 C   0  0  0  0  0  0  0  0  0  0  0  0
   46.2028   34.3592   43.4919 C   0  0  0  0  0  0  0  0  0  0  0  0
   46.0240   33.7917   44.7126 N   0  0  0  0  0  0  0  0  0  0  0  0
   45.2239   34.3107   45.6595 C   0  0  0  0  0  0  0  0  0  0  0  0
   44.5571   35.4378   45.4235 N   0  0  0  0  0  0  0  0  0  0  0  0
   45.0476   33.7191   46.9102 O   0  0  0  0  0  0  0  0  0  0  0  0
   44.1703   36.9717   43.9874 H   0  0  0  0  0  0  0  0  0  0  0  0
   45.6353   36.0203   42.2551 H   0  0  0  0  0  0  0  0  0  0  0  0
   46.8487   33.9320   42.7397 H   0  0  0  0  0  0  0  0  0  0  0  0
   43.9495   31.0283   47.5449 O   0  0  0  0  0  0  0  0  0  0  0  0
   44.9776   31.3417   46.6584 C   0  0  1  0  0  0  0  0  0  0  0  0
   45.7748   32.5108   47.1369 C   0  0  1  0  0  0  0  0  0  0  0  0
   47.1048   32.5411   46.4028 C   0  0  2  0  0  0  0  0  0  0  0  0
   47.9534   32.1889   47.0487 H   0  0  0  0  0  0  0  0  0  0  0  0
   47.0457   31.8645   45.2010 O   0  0  0  0  0  0  0  0  0  0  0  0
   46.8622   30.4983   45.3551 C   0  0  1  0  0  0  0  0  0  0  0  0
   46.3945   30.1218   44.4182 H   0  0  0  0  0  0  0  0  0  0  0  0
   45.9195   30.1675   46.4859 C   0  0  2  0  0  0  0  0  0  0  0  0
   45.1101   29.0588   46.1558 O   0  0  0  0  0  0  0  0  0  0  0  0
   43.4463   30.2482   47.1970 H   0  0  0  0  0  0  0  0  0  0  0  0
   44.5539   31.5379   45.6435 H   0  0  0  0  0  0  0  0  0  0  0  0
   46.0269   32.3932   48.2041 H   0  0  0  0  0  0  0  0  0  0  0  0
   47.3127   33.6086   46.1687 H   0  0  0  0  0  0  0  0  0  0  0  0
   47.7943   29.9426   45.4878 H   0  0  0  0  0  0  0  0  0  0  0  0
   46.4175   30.0143   47.4482 H   0  0  0  0  0  0  0  0  0  0  0  0
   45.1762   28.4096   46.9025 H   0  0  0  0  0  0  0  0  0  0  0  0
  1  6  2  0
  2  3  2  0
  2  1  1  0
  3  4  1  0
  4  5  2  0
  5  7  1  0
  6  5  1  0
  1  8  1  0
  2  9  1  0
  3 10  1  0
 11 12  1  0
 12 13  1  0
 13 14  1  0
 14 15  1  1
 14 16  1  0
 16 17  1  0
 17 18  1  6
 17 19  1  0
 19 20  1  0
 19 12  1  0
 11 21  1  0
 12 22  1  6
 13 23  1  1
 14 24  1  0
 17 25  1  0
 19 26  1  1
 20 27  1  0
  7 13  1  0
M  ISO  5   8  14   9  14  10  14  15   8  18   8
M  END
>  <DihAtoms>  (1) 
4,6,12,11

>  <DihDeg>  (1) 
122.44779480635822

$$$$
