
     RDKit          3D

 27 28  0  0  0  0  0  0  0  0999 V2000
   44.6636   36.0714   44.2603 C   0  0  0  0  0  0  0  0  0  0  0  0
   45.4969   35.5591   43.2321 C   0  0  0  0  0  0  0  0  0  0  0  0
   46.2028   34.3592   43.4919 C   0  0  0  0  0  0  0  0  0  0  0  0
   46.0240   33.7917   44.7126 N   0  0  0  0  0  0  0  0  0  0  0  0
   45.2239   34.3107   45.6595 C   0  0  0  0  0  0  0  0  0  0  0  0
   44.5571   35.4378   45.4235 N   0  0  0  0  0  0  0  0  0  0  0  0
   45.0476   33.7191   46.9102 O   0  0  0  0  0  0  0  0  0  0  0  0
   44.1703   36.9717   43.9874 H   0  0  0  0  0  0  0  0  0  0  0  0
   45.6353   36.0203   42.2551 H   0  0  0  0  0  0  0  0  0  0  0  0
   46.8487   33.9320   42.7397 H   0  0  0  0  0  0  0  0  0  0  0  0
   44.4646   31.0142   45.8180 O   0  0  0  0  0  0  0  0  0  0  0  0
   45.7042   31.6412   45.9244 C   0  0  1  0  0  0  0  0  0  0  0  0
   45.7748   32.5108   47.1369 C   0  0  1  0  0  0  0  0  0  0  0  0
   47.2307   32.8133   47.4491 C   0  0  2  0  0  0  0  0  0  0  0  0
   47.6081   32.2206   48.3254 H   0  0  0  0  0  0  0  0  0  0  0  0
   48.0362   32.6737   46.3368 O   0  0  0  0  0  0  0  0  0  0  0  0
   48.1296   31.3624   45.8946 C   0  0  1  0  0  0  0  0  0  0  0  0
   48.3914   31.3979   44.8137 H   0  0  0  0  0  0  0  0  0  0  0  0
   46.8207   30.6206   46.0103 C   0  0  2  0  0  0  0  0  0  0  0  0
   46.6408   29.7474   44.9156 O   0  0  0  0  0  0  0  0  0  0  0  0
   44.4563   30.4450   45.0063 H   0  0  0  0  0  0  0  0  0  0  0  0
   45.9087   32.2323   44.9987 H   0  0  0  0  0  0  0  0  0  0  0  0
   45.3871   31.9733   48.0184 H   0  0  0  0  0  0  0  0  0  0  0  0
   47.2736   33.8824   47.7535 H   0  0  0  0  0  0  0  0  0  0  0  0
   48.9157   30.7869   46.3909 H   0  0  0  0  0  0  0  0  0  0  0  0
   46.6943   30.0890   46.9584 H   0  0  0  0  0  0  0  0  0  0  0  0
   46.4184   28.8531   45.2820 H   0  0  0  0  0  0  0  0  0  0  0  0
  1  6  2  0
  2  3  2  0
  2  1  1  0
  3  4  1  0
  4  5  2  0
  5  7  1  0
  6  5  1  0
  1  8  1  0
  2  9  1  0
  3 10  1  0
 11 12  1  0
 12 13  1  0
 13 14  1  0
 14 15  1  1
 14 16  1  0
 16 17  1  0
 17 18  1  6
 17 19  1  0
 19 20  1  0
 19 12  1  0
 11 21  1  0
 12 22  1  6
 13 23  1  1
 14 24  1  0
 17 25  1  0
 19 26  1  1
 20 27  1  0
  7 13  1  0
M  ISO  5   8  14   9  14  10  14  15   8  18   8
M  END
>  <DihAtoms>  (1) 
4,6,12,11

>  <DihDeg>  (1) 
122.44779480635822

$$$$
