
     RDKit          3D

 27 28  0  0  0  0  0  0  0  0999 V2000
   44.6636   36.0714   44.2603 C   0  0  0  0  0  0  0  0  0  0  0  0
   45.4969   35.5591   43.2321 C   0  0  0  0  0  0  0  0  0  0  0  0
   46.2028   34.3592   43.4919 C   0  0  0  0  0  0  0  0  0  0  0  0
   46.0240   33.7917   44.7126 N   0  0  0  0  0  0  0  0  0  0  0  0
   45.2239   34.3107   45.6595 C   0  0  0  0  0  0  0  0  0  0  0  0
   44.5571   35.4378   45.4235 N   0  0  0  0  0  0  0  0  0  0  0  0
   45.0476   33.7191   46.9102 O   0  0  0  0  0  0  0  0  0  0  0  0
   44.1703   36.9717   43.9874 H   0  0  0  0  0  0  0  0  0  0  0  0
   45.6353   36.0203   42.2551 H   0  0  0  0  0  0  0  0  0  0  0  0
   46.8487   33.9320   42.7397 H   0  0  0  0  0  0  0  0  0  0  0  0
   43.9901   30.9388   46.9381 O   0  0  0  0  0  0  0  0  0  0  0  0
   45.1664   31.3972   46.3488 C   0  0  1  0  0  0  0  0  0  0  0  0
   45.7748   32.5108   47.1369 C   0  0  1  0  0  0  0  0  0  0  0  0
   47.2282   32.6761   46.7259 C   0  0  2  0  0  0  0  0  0  0  0  0
   47.9355   32.2616   47.4937 H   0  0  0  0  0  0  0  0  0  0  0  0
   47.4682   32.1683   45.4649 O   0  0  0  0  0  0  0  0  0  0  0  0
   47.3322   30.7895   45.3994 C   0  0  1  0  0  0  0  0  0  0  0  0
   47.0998   30.5320   44.3420 H   0  0  0  0  0  0  0  0  0  0  0  0
   46.1872   30.2828   46.2415 C   0  0  2  0  0  0  0  0  0  0  0  0
   45.5314   29.2085   45.6019 O   0  0  0  0  0  0  0  0  0  0  0  0
   43.6182   30.2004   46.3910 H   0  0  0  0  0  0  0  0  0  0  0  0
   44.9618   31.7187   45.2987 H   0  0  0  0  0  0  0  0  0  0  0  0
   45.7963   32.2555   48.2096 H   0  0  0  0  0  0  0  0  0  0  0  0
   47.4220   33.7706   46.6814 H   0  0  0  0  0  0  0  0  0  0  0  0
   48.2431   30.2456   45.6637 H   0  0  0  0  0  0  0  0  0  0  0  0
   46.4732   30.0130   47.2628 H   0  0  0  0  0  0  0  0  0  0  0  0
   45.4706   28.4655   46.2559 H   0  0  0  0  0  0  0  0  0  0  0  0
  1  6  2  0
  2  3  2  0
  2  1  1  0
  3  4  1  0
  4  5  2  0
  5  7  1  0
  6  5  1  0
  1  8  1  0
  2  9  1  0
  3 10  1  0
 11 12  1  0
 12 13  1  0
 13 14  1  0
 14 15  1  1
 14 16  1  0
 16 17  1  0
 17 18  1  6
 17 19  1  0
 19 20  1  0
 19 12  1  0
 11 21  1  0
 12 22  1  6
 13 23  1  1
 14 24  1  0
 17 25  1  0
 19 26  1  1
 20 27  1  0
  7 13  1  0
M  ISO  5   8  14   9  14  10  14  15   8  18   8
M  END
>  <DihAtoms>  (1) 
4,6,12,11

>  <DihDeg>  (1) 
122.44779480635822

$$$$
