
 OpenBabel03242517503D

 22 23  0  0  1  0  0  0  0  0999 V2000
   45.8500   32.1620   47.7730 C   0  0  1  0  0  3  0  0  0  0  0  0
   46.4070   32.6050   46.4590 C   0  0  1  0  0  3  0  0  0  0  0  0
   47.0190   31.4090   45.7490 C   0  0  0  0  0  3  0  0  0  0  0  0
   48.1410   31.4200   45.7920 H   0  0  0  0  0  0  0  0  0  0  0  0
   46.4890   30.2160   46.1990 O   0  0  0  0  0  0  0  0  0  0  0  0
   46.8200   29.9370   47.5160 C   0  0  0  0  0  3  0  0  0  0  0  0
   46.0370   29.2540   47.9140 H   0  0  0  0  0  0  0  0  0  0  0  0
   46.8170   31.1700   48.3850 C   0  0  2  0  0  3  0  0  0  0  0  0
   45.6380   33.2420   48.6270 O   0  0  0  0  0  0  0  0  0  0  0  0
   45.2720   32.9110   49.4870 H   0  0  0  0  0  0  0  0  0  0  0  0
   46.3170   30.8760   49.6730 O   0  0  0  0  0  0  0  0  0  0  0  0
   46.9720   31.2210   50.3330 H   0  0  0  0  0  0  0  0  0  0  0  0
   45.3720   33.1850   45.6640 O   0  0  0  0  0  0  0  0  0  0  0  0
   45.1290   33.6540   42.1400 C   0  0  0  0  0  0  0  0  0  0  0  0
   46.3540   34.2840   41.7990 C   0  0  0  0  0  0  0  0  0  0  0  0
   47.2750   34.5440   42.8430 C   0  0  0  0  0  0  0  0  0  0  0  0
   46.9080   34.1650   44.0950 N   0  0  0  0  0  0  0  0  0  0  0  0
   45.7370   33.5700   44.3750 C   0  0  0  0  0  0  0  0  0  0  0  0
   44.8660   33.3220   43.3990 N   0  0  0  0  0  0  0  0  0  0  0  0
   44.4940   33.4950   41.3020 H   0  0  0  0  0  0  0  0  0  0  0  0
   46.6400   34.5850   40.7920 H   0  0  0  0  0  0  0  0  0  0  0  0
   48.2190   35.0210   42.6310 H   0  0  0  0  0  0  0  0  0  0  0  0
  1  8  1  0  0  0  0
  1  9  1  1  0  0  0
  2 13  1  6  0  0  0
  2  1  1  0  0  0  0
  3  4  1  0  0  0  0
  3  5  1  0  0  0  0
  3  2  1  0  0  0  0
  5  6  1  0  0  0  0
  6  7  1  0  0  0  0
  6  8  1  0  0  0  0
  8 11  1  1  0  0  0
  9 10  1  0  0  0  0
 11 12  1  0  0  0  0
 14 19  1  0  0  0  0
 15 14  2  0  0  0  0
 15 16  1  0  0  0  0
 16 17  2  0  0  0  0
 17 18  1  0  0  0  0
 18 13  1  0  0  0  0
 19 18  2  0  0  0  0
 20 14  1  0  0  0  0
 21 15  1  0  0  0  0
 22 16  1  0  0  0  0
M  END
>  <minimizedAffinity>
-4.33481407

>  <minimizedRMSD>
2.01890564

$$$$
