
     RDKit          3D

 27 28  0  0  0  0  0  0  0  0999 V2000
   44.6636   36.0714   44.2603 C   0  0  0  0  0  0  0  0  0  0  0  0
   45.4969   35.5591   43.2321 C   0  0  0  0  0  0  0  0  0  0  0  0
   46.2028   34.3592   43.4919 C   0  0  0  0  0  0  0  0  0  0  0  0
   46.0240   33.7917   44.7126 N   0  0  0  0  0  0  0  0  0  0  0  0
   45.2239   34.3107   45.6595 C   0  0  0  0  0  0  0  0  0  0  0  0
   44.5571   35.4378   45.4235 N   0  0  0  0  0  0  0  0  0  0  0  0
   45.0476   33.7191   46.9102 O   0  0  0  0  0  0  0  0  0  0  0  0
   44.1703   36.9717   43.9874 H   0  0  0  0  0  0  0  0  0  0  0  0
   45.6353   36.0203   42.2551 H   0  0  0  0  0  0  0  0  0  0  0  0
   46.8487   33.9320   42.7397 H   0  0  0  0  0  0  0  0  0  0  0  0
   46.6030   32.9601   49.3296 O   0  0  0  0  0  0  0  0  0  0  0  0
   45.7359   32.1601   48.5884 C   0  0  1  0  0  0  0  0  0  0  0  0
   45.7748   32.5108   47.1369 C   0  0  1  0  0  0  0  0  0  0  0  0
   45.1782   31.3684   46.3321 C   0  0  2  0  0  0  0  0  0  0  0  0
   45.9659   30.7605   45.8110 H   0  0  0  0  0  0  0  0  0  0  0  0
   44.3331   30.5872   47.0944 O   0  0  0  0  0  0  0  0  0  0  0  0
   44.9935   29.8875   48.0935 C   0  0  1  0  0  0  0  0  0  0  0  0
   44.2475   29.6686   48.8896 H   0  0  0  0  0  0  0  0  0  0  0  0
   46.0976   30.6957   48.7297 C   0  0  2  0  0  0  0  0  0  0  0  0
   46.1707   30.4403   50.1163 O   0  0  0  0  0  0  0  0  0  0  0  0
   46.5527   32.6970   50.2842 H   0  0  0  0  0  0  0  0  0  0  0  0
   44.6986   32.2533   48.9923 H   0  0  0  0  0  0  0  0  0  0  0  0
   46.8181   32.6045   46.7919 H   0  0  0  0  0  0  0  0  0  0  0  0
   44.5620   31.8335   45.5312 H   0  0  0  0  0  0  0  0  0  0  0  0
   45.3945   28.9252   47.7637 H   0  0  0  0  0  0  0  0  0  0  0  0
   47.0749   30.5615   48.2561 H   0  0  0  0  0  0  0  0  0  0  0  0
   47.1137   30.2184   50.3284 H   0  0  0  0  0  0  0  0  0  0  0  0
  1  6  2  0
  2  3  2  0
  2  1  1  0
  3  4  1  0
  4  5  2  0
  5  7  1  0
  6  5  1  0
  1  8  1  0
  2  9  1  0
  3 10  1  0
 11 12  1  0
 12 13  1  0
 13 14  1  0
 14 15  1  6
 14 16  1  0
 16 17  1  0
 17 18  1  1
 17 19  1  0
 19 20  1  0
 19 12  1  0
 11 21  1  0
 12 22  1  1
 13 23  1  6
 14 24  1  0
 17 25  1  0
 19 26  1  6
 20 27  1  0
  7 13  1  0
M  ISO  5   8  14   9  14  10  14  15   8  18   8
M  END
>  <DihAtoms>  (1) 
4,6,12,11

>  <DihDeg>  (1) 
122.44779480635822

$$$$
