
 OpenBabel03242511173D

 22 23  0  0  1  0  0  0  0  0999 V2000
   36.6550   30.6100   40.3690 C   0  0  2  0  0  3  0  0  0  0  0  0
   37.5580   29.5730   40.9510 C   0  0  2  0  0  3  0  0  0  0  0  0
   38.9700   30.0230   41.1600 C   0  0  0  0  0  3  0  0  0  0  0  0
   39.6160   29.5550   40.3770 H   0  0  0  0  0  0  0  0  0  0  0  0
   39.1310   31.4060   41.1560 O   0  0  0  0  0  0  0  0  0  0  0  0
   38.7900   31.8420   39.8830 C   0  0  0  0  0  3  0  0  0  0  0  0
   39.2750   31.2940   39.0700 H   0  0  0  0  0  0  0  0  0  0  0  0
   37.2890   31.8120   39.7900 C   0  0  2  0  0  3  0  0  0  0  0  0
   35.7040   30.9880   41.3460 O   0  0  0  0  0  0  0  0  0  0  0  0
   35.2110   30.1770   41.6330 H   0  0  0  0  0  0  0  0  0  0  0  0
   36.7720   32.9700   40.3930 O   0  0  0  0  0  0  0  0  0  0  0  0
   35.7900   32.8330   40.4190 H   0  0  0  0  0  0  0  0  0  0  0  0
   37.5500   28.0650   39.9140 S   0  0  0  0  0  0  0  0  0  0  0  0
   37.1300   24.3770   41.5820 C   0  0  0  0  0  0  0  0  0  0  0  0
   36.9160   25.5220   40.7750 C   0  0  0  0  0  0  0  0  0  0  0  0
   37.7860   26.6090   40.9100 C   0  0  0  0  0  0  0  0  0  0  0  0
   38.7980   26.5090   41.8160 N   0  0  0  0  0  0  0  0  0  0  0  0
   38.9780   25.4160   42.5660 C   0  0  0  0  0  0  0  0  0  0  0  0
   38.1590   24.3540   42.4600 N   0  0  0  0  0  0  0  0  0  0  0  0
   36.3850   23.6290   41.3650 H   0  0  0  0  0  0  0  0  0  0  0  0
   36.1330   25.6310   40.0570 H   0  0  0  0  0  0  0  0  0  0  0  0
   39.7690   25.2980   43.2950 H   0  0  0  0  0  0  0  0  0  0  0  0
  1  2  1  0  0  0  0
  1  9  1  1  0  0  0
  2 13  1  6  0  0  0
  2  3  1  0  0  0  0
  4  3  1  0  0  0  0
  5  3  1  0  0  0  0
  6  5  1  0  0  0  0
  7  6  1  0  0  0  0
  8  6  1  0  0  0  0
  8  1  1  0  0  0  0
  8 11  1  1  0  0  0
  9 10  1  0  0  0  0
 11 12  1  0  0  0  0
 13 16  1  0  0  0  0
 14 19  1  0  0  0  0
 15 16  1  0  0  0  0
 15 14  2  0  0  0  0
 16 17  2  0  0  0  0
 17 18  1  0  0  0  0
 18 22  1  0  0  0  0
 19 18  2  0  0  0  0
 20 14  1  0  0  0  0
 21 15  1  0  0  0  0
M  END
>  <minimizedAffinity>
-4.6700139

$$$$

 OpenBabel03242511173D

 22 23  0  0  1  0  0  0  0  0999 V2000
   36.8470   30.9220   40.8710 C   0  0  2  0  0  3  0  0  0  0  0  0
   36.7000   30.5730   39.4280 C   0  0  2  0  0  3  0  0  0  0  0  0
   37.1790   29.2020   39.0650 C   0  0  0  0  0  3  0  0  0  0  0  0
   38.1500   29.2940   38.5200 H   0  0  0  0  0  0  0  0  0  0  0  0
   37.3150   28.3440   40.1540 O   0  0  0  0  0  0  0  0  0  0  0  0
   38.3080   28.8810   40.9620 C   0  0  0  0  0  3  0  0  0  0  0  0
   39.2280   29.1470   40.4350 H   0  0  0  0  0  0  0  0  0  0  0  0
   37.7020   30.0450   41.6970 C   0  0  2  0  0  3  0  0  0  0  0  0
   35.5600   31.0260   41.4500 O   0  0  0  0  0  0  0  0  0  0  0  0
   35.0450   31.7080   40.9480 H   0  0  0  0  0  0  0  0  0  0  0  0
   36.9790   29.5610   42.7990 O   0  0  0  0  0  0  0  0  0  0  0  0
   36.5010   30.3510   43.1620 H   0  0  0  0  0  0  0  0  0  0  0  0
   37.5530   31.8100   38.3820 S   0  0  0  0  0  0  0  0  0  0  0  0
   41.3040   32.2080   39.9070 C   0  0  0  0  0  0  0  0  0  0  0  0
   40.1700   31.6760   39.2470 C   0  0  0  0  0  0  0  0  0  0  0  0
   39.0000   32.4430   39.2020 C   0  0  0  0  0  0  0  0  0  0  0  0
   39.0160   33.6680   39.7980 N   0  0  0  0  0  0  0  0  0  0  0  0
   40.1030   34.1470   40.4150 C   0  0  0  0  0  0  0  0  0  0  0  0
   41.2410   33.4340   40.4760 N   0  0  0  0  0  0  0  0  0  0  0  0
   42.1210   31.5060   39.8590 H   0  0  0  0  0  0  0  0  0  0  0  0
   40.1250   30.7220   38.7720 H   0  0  0  0  0  0  0  0  0  0  0  0
   40.1540   35.1130   40.8990 H   0  0  0  0  0  0  0  0  0  0  0  0
  1  9  1  1  0  0  0
  1  8  1  0  0  0  0
  2 13  1  6  0  0  0
  2  1  1  0  0  0  0
  3  2  1  0  0  0  0
  3  5  1  0  0  0  0
  4  3  1  0  0  0  0
  5  6  1  0  0  0  0
  6  8  1  0  0  0  0
  7  6  1  0  0  0  0
  8 11  1  1  0  0  0
 10  9  1  0  0  0  0
 11 12  1  0  0  0  0
 13 16  1  0  0  0  0
 14 19  1  0  0  0  0
 15 14  2  0  0  0  0
 16 15  1  0  0  0  0
 16 17  2  0  0  0  0
 17 18  1  0  0  0  0
 18 19  2  0  0  0  0
 18 22  1  0  0  0  0
 20 14  1  0  0  0  0
 21 15  1  0  0  0  0
M  END
>  <minimizedAffinity>
-4.64807463

$$$$

 OpenBabel03242511173D

 22 23  0  0  1  0  0  0  0  0999 V2000
   38.5960   32.4720   40.9690 C   0  0  2  0  0  3  0  0  0  0  0  0
   39.8580   31.8930   40.4220 C   0  0  2  0  0  3  0  0  0  0  0  0
   39.8120   31.5620   38.9630 C   0  0  0  0  0  3  0  0  0  0  0  0
   39.7380   30.4520   38.8490 H   0  0  0  0  0  0  0  0  0  0  0  0
   38.7770   32.1880   38.2730 O   0  0  0  0  0  0  0  0  0  0  0  0
   37.5920   31.6950   38.8010 C   0  0  0  0  0  3  0  0  0  0  0  0
   37.5420   30.6050   38.8670 H   0  0  0  0  0  0  0  0  0  0  0  0
   37.3840   32.3690   40.1300 C   0  0  2  0  0  3  0  0  0  0  0  0
   38.8270   33.8240   41.3190 O   0  0  0  0  0  0  0  0  0  0  0  0
   39.5700   33.8550   41.9740 H   0  0  0  0  0  0  0  0  0  0  0  0
   36.8330   33.6420   39.9150 O   0  0  0  0  0  0  0  0  0  0  0  0
   36.8420   34.0820   40.8040 H   0  0  0  0  0  0  0  0  0  0  0  0
   40.3370   30.4010   41.3680 S   0  0  0  0  0  0  0  0  0  0  0  0
   37.3750   28.5560   43.4600 C   0  0  0  0  0  0  0  0  0  0  0  0
   38.5200   29.3290   43.1450 C   0  0  0  0  0  0  0  0  0  0  0  0
   38.9050   29.4390   41.8040 C   0  0  0  0  0  0  0  0  0  0  0  0
   38.1540   28.7940   40.8680 N   0  0  0  0  0  0  0  0  0  0  0  0
   37.0760   28.0710   41.1940 C   0  0  0  0  0  0  0  0  0  0  0  0
   36.6810   27.9440   42.4730 N   0  0  0  0  0  0  0  0  0  0  0  0
   37.2060   28.5650   44.5250 H   0  0  0  0  0  0  0  0  0  0  0  0
   39.1280   29.8450   43.8540 H   0  0  0  0  0  0  0  0  0  0  0  0
   36.4550   27.5450   40.4810 H   0  0  0  0  0  0  0  0  0  0  0  0
  1  9  1  6  0  0  0
  2  1  1  0  0  0  0
  2 13  1  1  0  0  0
  3  2  1  0  0  0  0
  4  3  1  0  0  0  0
  5  6  1  0  0  0  0
  5  3  1  0  0  0  0
  6  7  1  0  0  0  0
  6  8  1  0  0  0  0
  8 11  1  6  0  0  0
  8  1  1  0  0  0  0
  9 10  1  0  0  0  0
 11 12  1  0  0  0  0
 13 16  1  0  0  0  0
 14 20  1  0  0  0  0
 15 14  1  0  0  0  0
 15 21  1  0  0  0  0
 16 15  2  0  0  0  0
 17 18  2  0  0  0  0
 17 16  1  0  0  0  0
 18 19  1  0  0  0  0
 19 14  2  0  0  0  0
 22 18  1  0  0  0  0
M  END
>  <minimizedAffinity>
-4.59949732

$$$$

 OpenBabel03242511173D

 22 23  0  0  1  0  0  0  0  0999 V2000
   38.2940   31.5210   37.4930 C   0  0  2  0  0  3  0  0  0  0  0  0
   37.3440   31.8860   38.5840 C   0  0  2  0  0  3  0  0  0  0  0  0
   37.9490   32.6820   39.6980 C   0  0  0  0  0  3  0  0  0  0  0  0
   38.0730   32.0180   40.5880 H   0  0  0  0  0  0  0  0  0  0  0  0
   39.1630   33.2830   39.3700 O   0  0  0  0  0  0  0  0  0  0  0  0
   40.0610   32.2540   39.1220 C   0  0  0  0  0  3  0  0  0  0  0  0
   40.0940   31.4820   39.8960 H   0  0  0  0  0  0  0  0  0  0  0  0
   39.7360   31.7000   37.7610 C   0  0  2  0  0  3  0  0  0  0  0  0
   37.9320   32.2220   36.3180 O   0  0  0  0  0  0  0  0  0  0  0  0
   36.9940   31.9930   36.0930 H   0  0  0  0  0  0  0  0  0  0  0  0
   40.3140   32.5250   36.7830 O   0  0  0  0  0  0  0  0  0  0  0  0
   39.9600   32.1890   35.9200 H   0  0  0  0  0  0  0  0  0  0  0  0
   36.5560   30.3840   39.2720 S   0  0  0  0  0  0  0  0  0  0  0  0
   39.4680   28.4370   41.3420 C   0  0  0  0  0  0  0  0  0  0  0  0
   38.7040   28.9740   40.2780 C   0  0  0  0  0  0  0  0  0  0  0  0
   37.5430   29.6930   40.5820 C   0  0  0  0  0  0  0  0  0  0  0  0
   37.2060   29.8380   41.8940 N   0  0  0  0  0  0  0  0  0  0  0  0
   37.9470   29.3190   42.8810 C   0  0  0  0  0  0  0  0  0  0  0  0
   39.0680   28.6230   42.6210 N   0  0  0  0  0  0  0  0  0  0  0  0
   40.3270   27.9140   40.9530 H   0  0  0  0  0  0  0  0  0  0  0  0
   38.9400   28.8790   39.2410 H   0  0  0  0  0  0  0  0  0  0  0  0
   37.7140   29.4130   43.9340 H   0  0  0  0  0  0  0  0  0  0  0  0
  1  9  1  6  0  0  0
  1  8  1  0  0  0  0
  1  2  1  0  0  0  0
  2 13  1  1  0  0  0
  2  3  1  0  0  0  0
  3  4  1  0  0  0  0
  5  3  1  0  0  0  0
  6  5  1  0  0  0  0
  6  7  1  0  0  0  0
  8 11  1  6  0  0  0
  8  6  1  0  0  0  0
 10  9  1  0  0  0  0
 12 11  1  0  0  0  0
 13 16  1  0  0  0  0
 14 19  1  0  0  0  0
 15 16  1  0  0  0  0
 15 14  2  0  0  0  0
 16 17  2  0  0  0  0
 17 18  1  0  0  0  0
 18 22  1  0  0  0  0
 19 18  2  0  0  0  0
 20 14  1  0  0  0  0
 21 15  1  0  0  0  0
M  END
>  <minimizedAffinity>
-4.55840349

$$$$

 OpenBabel03242511173D

 22 23  0  0  1  0  0  0  0  0999 V2000
   39.5770   30.5990   38.0600 C   0  0  2  0  0  3  0  0  0  0  0  0
   38.9060   30.4830   39.3880 C   0  0  2  0  0  3  0  0  0  0  0  0
   38.8110   31.7660   40.1530 C   0  0  0  0  0  3  0  0  0  0  0  0
   39.5540   31.7430   40.9870 H   0  0  0  0  0  0  0  0  0  0  0  0
   38.9950   32.9060   39.3730 O   0  0  0  0  0  0  0  0  0  0  0  0
   40.2990   32.8550   38.8980 C   0  0  0  0  0  3  0  0  0  0  0  0
   41.0550   32.6630   39.6640 H   0  0  0  0  0  0  0  0  0  0  0  0
   40.3270   31.8420   37.7860 C   0  0  2  0  0  3  0  0  0  0  0  0
   38.6180   30.3800   37.0420 O   0  0  0  0  0  0  0  0  0  0  0  0
   38.2120   29.4860   37.1820 H   0  0  0  0  0  0  0  0  0  0  0  0
   39.8540   32.4450   36.6090 O   0  0  0  0  0  0  0  0  0  0  0  0
   39.7730   31.7050   35.9540 H   0  0  0  0  0  0  0  0  0  0  0  0
   39.7450   29.2240   40.4180 S   0  0  0  0  0  0  0  0  0  0  0  0
   37.4230   28.4850   43.6770 C   0  0  0  0  0  0  0  0  0  0  0  0
   38.3360   29.1020   42.7870 C   0  0  0  0  0  0  0  0  0  0  0  0
   38.6040   28.4790   41.5630 C   0  0  0  0  0  0  0  0  0  0  0  0
   37.9690   27.3050   41.2910 N   0  0  0  0  0  0  0  0  0  0  0  0
   37.1110   26.7430   42.1510 C   0  0  0  0  0  0  0  0  0  0  0  0
   36.8330   27.3170   43.3350 N   0  0  0  0  0  0  0  0  0  0  0  0
   37.3200   29.0790   44.5710 H   0  0  0  0  0  0  0  0  0  0  0  0
   38.8490   30.0200   42.9700 H   0  0  0  0  0  0  0  0  0  0  0  0
   36.5880   25.8130   41.9720 H   0  0  0  0  0  0  0  0  0  0  0  0
  1  9  1  6  0  0  0
  1  2  1  0  0  0  0
  2  3  1  0  0  0  0
  2 13  1  1  0  0  0
  3  4  1  0  0  0  0
  5  3  1  0  0  0  0
  6  5  1  0  0  0  0
  6  7  1  0  0  0  0
  8 11  1  6  0  0  0
  8  1  1  0  0  0  0
  8  6  1  0  0  0  0
  9 10  1  0  0  0  0
 12 11  1  0  0  0  0
 13 16  1  0  0  0  0
 14 20  1  0  0  0  0
 15 21  1  0  0  0  0
 15 14  2  0  0  0  0
 16 15  1  0  0  0  0
 17 16  2  0  0  0  0
 17 18  1  0  0  0  0
 18 19  2  0  0  0  0
 19 14  1  0  0  0  0
 22 18  1  0  0  0  0
M  END
>  <minimizedAffinity>
-4.4372983

$$$$

 OpenBabel03242511173D

 22 23  0  0  1  0  0  0  0  0999 V2000
   36.2020   29.7090   41.5360 C   0  0  2  0  0  3  0  0  0  0  0  0
   37.6870   29.7240   41.3860 C   0  0  2  0  0  3  0  0  0  0  0  0
   38.1950   29.0670   40.1410 C   0  0  0  0  0  3  0  0  0  0  0  0
   38.6450   28.0800   40.4130 H   0  0  0  0  0  0  0  0  0  0  0  0
   37.2270   28.9000   39.1530 O   0  0  0  0  0  0  0  0  0  0  0  0
   36.2780   28.0290   39.6700 C   0  0  0  0  0  3  0  0  0  0  0  0
   36.6900   27.1150   40.1050 H   0  0  0  0  0  0  0  0  0  0  0  0
   35.4400   28.8110   40.6430 C   0  0  2  0  0  3  0  0  0  0  0  0
   35.7170   31.0330   41.4170 O   0  0  0  0  0  0  0  0  0  0  0  0
   36.1590   31.5920   42.1060 H   0  0  0  0  0  0  0  0  0  0  0  0
   34.4750   29.5410   39.9310 O   0  0  0  0  0  0  0  0  0  0  0  0
   34.0450   30.1290   40.6040 H   0  0  0  0  0  0  0  0  0  0  0  0
   38.4830   28.9560   42.8450 S   0  0  0  0  0  0  0  0  0  0  0  0
   39.8870   25.1470   42.5700 C   0  0  0  0  0  0  0  0  0  0  0  0
   39.8340   26.5540   42.7270 C   0  0  0  0  0  0  0  0  0  0  0  0
   38.5900   27.1900   42.6530 C   0  0  0  0  0  0  0  0  0  0  0  0
   37.4900   26.4180   42.4320 N   0  0  0  0  0  0  0  0  0  0  0  0
   37.5680   25.0900   42.2880 C   0  0  0  0  0  0  0  0  0  0  0  0
   38.7490   24.4490   42.3530 N   0  0  0  0  0  0  0  0  0  0  0  0
   40.9060   24.8050   42.6520 H   0  0  0  0  0  0  0  0  0  0  0  0
   40.6760   27.1860   42.9000 H   0  0  0  0  0  0  0  0  0  0  0  0
   36.7180   24.4440   42.1120 H   0  0  0  0  0  0  0  0  0  0  0  0
  1  9  1  6  0  0  0
  2  1  1  0  0  0  0
  2 13  1  1  0  0  0
  3  4  1  0  0  0  0
  3  2  1  0  0  0  0
  5  6  1  0  0  0  0
  5  3  1  0  0  0  0
  6  7  1  0  0  0  0
  6  8  1  0  0  0  0
  8 11  1  6  0  0  0
  8  1  1  0  0  0  0
  9 10  1  0  0  0  0
 11 12  1  0  0  0  0
 14 20  1  0  0  0  0
 14 15  1  0  0  0  0
 15 21  1  0  0  0  0
 16 15  2  0  0  0  0
 16 13  1  0  0  0  0
 17 16  1  0  0  0  0
 18 19  1  0  0  0  0
 18 17  2  0  0  0  0
 19 14  2  0  0  0  0
 22 18  1  0  0  0  0
M  END
>  <minimizedAffinity>
-4.42609644

$$$$

 OpenBabel03242511173D

 22 23  0  0  1  0  0  0  0  0999 V2000
   39.4900   31.7800   38.0090 C   0  0  2  0  0  3  0  0  0  0  0  0
   38.0800   31.3010   37.9080 C   0  0  2  0  0  3  0  0  0  0  0  0
   37.1180   31.9970   38.8200 C   0  0  0  0  0  3  0  0  0  0  0  0
   36.8570   31.3080   39.6610 H   0  0  0  0  0  0  0  0  0  0  0  0
   37.5850   33.2110   39.3170 O   0  0  0  0  0  0  0  0  0  0  0  0
   38.6920   32.9190   40.1020 C   0  0  0  0  0  3  0  0  0  0  0  0
   38.5330   32.1230   40.8340 H   0  0  0  0  0  0  0  0  0  0  0  0
   39.8360   32.6290   39.1680 C   0  0  2  0  0  3  0  0  0  0  0  0
   39.8350   32.4410   36.8060 O   0  0  0  0  0  0  0  0  0  0  0  0
   39.7050   31.8100   36.0540 H   0  0  0  0  0  0  0  0  0  0  0  0
   40.3870   33.8450   38.7320 O   0  0  0  0  0  0  0  0  0  0  0  0
   41.0400   33.5950   38.0280 H   0  0  0  0  0  0  0  0  0  0  0  0
   37.9970   29.4970   38.2030 S   0  0  0  0  0  0  0  0  0  0  0  0
   36.3310   28.2920   41.7140 C   0  0  0  0  0  0  0  0  0  0  0  0
   36.5200   28.5580   40.3350 C   0  0  0  0  0  0  0  0  0  0  0  0
   37.7210   29.1470   39.9260 C   0  0  0  0  0  0  0  0  0  0  0  0
   38.6500   29.4360   40.8800 N   0  0  0  0  0  0  0  0  0  0  0  0
   38.4450   29.1740   42.1760 C   0  0  0  0  0  0  0  0  0  0  0  0
   37.3010   28.6080   42.6020 N   0  0  0  0  0  0  0  0  0  0  0  0
   35.3650   27.8400   41.8730 H   0  0  0  0  0  0  0  0  0  0  0  0
   35.8140   28.3440   39.5640 H   0  0  0  0  0  0  0  0  0  0  0  0
   39.1570   29.3880   42.9630 H   0  0  0  0  0  0  0  0  0  0  0  0
  1  9  1  6  0  0  0
  1  8  1  0  0  0  0
  2  1  1  0  0  0  0
  2 13  1  1  0  0  0
  2  3  1  0  0  0  0
  3  5  1  0  0  0  0
  3  4  1  0  0  0  0
  5  6  1  0  0  0  0
  6  7  1  0  0  0  0
  8 11  1  6  0  0  0
  8  6  1  0  0  0  0
 10  9  1  0  0  0  0
 12 11  1  0  0  0  0
 13 16  1  0  0  0  0
 14 20  1  0  0  0  0
 14 19  1  0  0  0  0
 15 14  2  0  0  0  0
 16 15  1  0  0  0  0
 16 17  2  0  0  0  0
 17 18  1  0  0  0  0
 18 19  2  0  0  0  0
 18 22  1  0  0  0  0
 21 15  1  0  0  0  0
M  END
>  <minimizedAffinity>
-4.42374325

$$$$

 OpenBabel03242511173D

 22 23  0  0  1  0  0  0  0  0999 V2000
   39.5840   31.4960   39.1560 C   0  0  2  0  0  3  0  0  0  0  0  0
   38.9000   31.9240   40.4110 C   0  0  2  0  0  3  0  0  0  0  0  0
   39.0610   33.3740   40.7460 C   0  0  0  0  0  3  0  0  0  0  0  0
   39.7820   33.4690   41.5940 H   0  0  0  0  0  0  0  0  0  0  0  0
   39.4720   34.1610   39.6720 O   0  0  0  0  0  0  0  0  0  0  0  0
   40.7400   33.7200   39.3190 C   0  0  0  0  0  3  0  0  0  0  0  0
   41.4400   33.6340   40.1540 H   0  0  0  0  0  0  0  0  0  0  0  0
   40.5680   32.4280   38.5680 C   0  0  2  0  0  3  0  0  0  0  0  0
   38.6030   31.1580   38.1930 O   0  0  0  0  0  0  0  0  0  0  0  0
   38.0270   30.4460   38.5690 H   0  0  0  0  0  0  0  0  0  0  0  0
   40.2290   32.7160   37.2370 O   0  0  0  0  0  0  0  0  0  0  0  0
   40.0030   31.8390   36.8320 H   0  0  0  0  0  0  0  0  0  0  0  0
   39.4670   30.9090   41.8250 S   0  0  0  0  0  0  0  0  0  0  0  0
   36.3570   28.2930   41.6130 C   0  0  0  0  0  0  0  0  0  0  0  0
   37.2820   29.3140   41.2820 C   0  0  0  0  0  0  0  0  0  0  0  0
   38.2860   29.6330   42.2040 C   0  0  0  0  0  0  0  0  0  0  0  0
   38.3200   28.9410   43.3770 N   0  0  0  0  0  0  0  0  0  0  0  0
   37.4330   27.9800   43.6640 C   0  0  0  0  0  0  0  0  0  0  0  0
   36.4560   27.6510   42.7990 N   0  0  0  0  0  0  0  0  0  0  0  0
   35.6500   28.1620   40.8090 H   0  0  0  0  0  0  0  0  0  0  0  0
   37.2830   29.8740   40.3730 H   0  0  0  0  0  0  0  0  0  0  0  0
   37.4270   27.4090   44.5830 H   0  0  0  0  0  0  0  0  0  0  0  0
  1  9  1  6  0  0  0
  1  2  1  0  0  0  0
  2  3  1  0  0  0  0
  2 13  1  1  0  0  0
  3  4  1  0  0  0  0
  5  3  1  0  0  0  0
  6  5  1  0  0  0  0
  6  7  1  0  0  0  0
  8 11  1  6  0  0  0
  8  1  1  0  0  0  0
  8  6  1  0  0  0  0
  9 10  1  0  0  0  0
 12 11  1  0  0  0  0
 13 16  1  0  0  0  0
 14 19  1  0  0  0  0
 15 14  2  0  0  0  0
 15 16  1  0  0  0  0
 16 17  2  0  0  0  0
 17 18  1  0  0  0  0
 18 22  1  0  0  0  0
 19 18  2  0  0  0  0
 20 14  1  0  0  0  0
 21 15  1  0  0  0  0
M  END
>  <minimizedAffinity>
-4.38824749

$$$$

 OpenBabel03242511173D

 22 23  0  0  1  0  0  0  0  0999 V2000
   36.1730   30.5320   40.3290 C   0  0  2  0  0  3  0  0  0  0  0  0
   36.9640   29.3230   40.7010 C   0  0  2  0  0  3  0  0  0  0  0  0
   38.4470   29.4830   40.5710 C   0  0  0  0  0  3  0  0  0  0  0  0
   38.7910   28.9240   39.6660 H   0  0  0  0  0  0  0  0  0  0  0  0
   38.8700   30.8080   40.5100 O   0  0  0  0  0  0  0  0  0  0  0  0
   38.3380   31.3420   39.3440 C   0  0  0  0  0  3  0  0  0  0  0  0
   38.5050   30.7360   38.4490 H   0  0  0  0  0  0  0  0  0  0  0  0
   36.8790   31.6070   39.6030 C   0  0  2  0  0  3  0  0  0  0  0  0
   35.5650   31.0570   41.4950 O   0  0  0  0  0  0  0  0  0  0  0  0
   35.0020   30.3490   41.9000 H   0  0  0  0  0  0  0  0  0  0  0  0
   36.7530   32.8240   40.2920 O   0  0  0  0  0  0  0  0  0  0  0  0
   35.7960   32.8790   40.5460 H   0  0  0  0  0  0  0  0  0  0  0  0
   36.4220   27.8790   39.7160 S   0  0  0  0  0  0  0  0  0  0  0  0
   33.7560   28.8390   36.7950 C   0  0  0  0  0  0  0  0  0  0  0  0
   34.3040   28.4210   38.0330 C   0  0  0  0  0  0  0  0  0  0  0  0
   35.6960   28.3980   38.1760 C   0  0  0  0  0  0  0  0  0  0  0  0
   36.4540   28.7800   37.1110 N   0  0  0  0  0  0  0  0  0  0  0  0
   35.9110   29.1710   35.9520 C   0  0  0  0  0  0  0  0  0  0  0  0
   34.5760   29.2040   35.7830 N   0  0  0  0  0  0  0  0  0  0  0  0
   32.6800   28.8040   36.8380 H   0  0  0  0  0  0  0  0  0  0  0  0
   33.7380   28.1160   38.8850 H   0  0  0  0  0  0  0  0  0  0  0  0
   36.4780   29.4810   35.0850 H   0  0  0  0  0  0  0  0  0  0  0  0
  1  2  1  0  0  0  0
  1  9  1  1  0  0  0
  2 13  1  6  0  0  0
  3  2  1  0  0  0  0
  4  3  1  0  0  0  0
  5  3  1  0  0  0  0
  6  8  1  0  0  0  0
  6  5  1  0  0  0  0
  7  6  1  0  0  0  0
  8 11  1  1  0  0  0
  8  1  1  0  0  0  0
  9 10  1  0  0  0  0
 11 12  1  0  0  0  0
 14 20  1  0  0  0  0
 14 15  1  0  0  0  0
 15 16  2  0  0  0  0
 15 21  1  0  0  0  0
 16 13  1  0  0  0  0
 17 16  1  0  0  0  0
 18 17  2  0  0  0  0
 19 18  1  0  0  0  0
 19 14  2  0  0  0  0
 22 18  1  0  0  0  0
M  END
>  <minimizedAffinity>
-4.37641811

$$$$
