
     RDKit          3D

 27 28  0  0  0  0  0  0  0  0999 V2000
   44.6636   36.0714   44.2603 C   0  0  0  0  0  0  0  0  0  0  0  0
   45.4969   35.5591   43.2321 C   0  0  0  0  0  0  0  0  0  0  0  0
   46.2028   34.3592   43.4919 C   0  0  0  0  0  0  0  0  0  0  0  0
   46.0240   33.7917   44.7126 N   0  0  0  0  0  0  0  0  0  0  0  0
   45.2239   34.3107   45.6595 C   0  0  0  0  0  0  0  0  0  0  0  0
   44.5571   35.4378   45.4235 N   0  0  0  0  0  0  0  0  0  0  0  0
   45.0476   33.7191   46.9102 O   0  0  0  0  0  0  0  0  0  0  0  0
   44.1703   36.9717   43.9874 H   0  0  0  0  0  0  0  0  0  0  0  0
   45.6353   36.0203   42.2551 H   0  0  0  0  0  0  0  0  0  0  0  0
   46.8487   33.9320   42.7397 H   0  0  0  0  0  0  0  0  0  0  0  0
   44.2756   31.4314   48.6479 O   0  0  0  0  0  0  0  0  0  0  0  0
   44.8238   31.3823   47.3681 C   0  0  1  0  0  0  0  0  0  0  0  0
   45.7748   32.5108   47.1369 C   0  0  1  0  0  0  0  0  0  0  0  0
   46.6550   32.1840   45.9422 C   0  0  2  0  0  0  0  0  0  0  0  0
   47.6920   31.8817   46.2500 H   0  0  0  0  0  0  0  0  0  0  0  0
   46.0658   31.2570   45.1062 O   0  0  0  0  0  0  0  0  0  0  0  0
   45.9377   30.0045   45.6881 C   0  0  1  0  0  0  0  0  0  0  0  0
   45.1019   29.4847   45.1689 H   0  0  0  0  0  0  0  0  0  0  0  0
   45.5719   30.0829   47.1500 C   0  0  2  0  0  0  0  0  0  0  0  0
   44.6757   29.0494   47.4987 O   0  0  0  0  0  0  0  0  0  0  0  0
   43.6544   30.6677   48.7655 H   0  0  0  0  0  0  0  0  0  0  0  0
   44.0062   31.3890   46.6069 H   0  0  0  0  0  0  0  0  0  0  0  0
   46.4623   32.6156   47.9929 H   0  0  0  0  0  0  0  0  0  0  0  0
   46.7639   33.1269   45.3621 H   0  0  0  0  0  0  0  0  0  0  0  0
   46.8229   29.3735   45.5708 H   0  0  0  0  0  0  0  0  0  0  0  0
   46.4346   30.0950   47.8230 H   0  0  0  0  0  0  0  0  0  0  0  0
   45.0451   28.5924   48.2976 H   0  0  0  0  0  0  0  0  0  0  0  0
  1  6  2  0
  2  3  2  0
  2  1  1  0
  3  4  1  0
  4  5  2  0
  5  7  1  0
  6  5  1  0
  1  8  1  0
  2  9  1  0
  3 10  1  0
 11 12  1  0
 12 13  1  0
 13 14  1  0
 14 15  1  1
 14 16  1  0
 16 17  1  0
 17 18  1  6
 17 19  1  0
 19 20  1  0
 19 12  1  0
 11 21  1  0
 12 22  1  6
 13 23  1  1
 14 24  1  0
 17 25  1  0
 19 26  1  1
 20 27  1  0
  7 13  1  0
M  ISO  5   8  14   9  14  10  14  15   8  18   8
M  END
>  <DihAtoms>  (1) 
4,6,12,11

>  <DihDeg>  (1) 
122.44779480635822

$$$$
