
 OpenBabel03252504263D

 25 26  0  0  1  0  0  0  0  0999 V2000
   42.7010   35.5010   41.8760 O   0  0  0  0  0  0  0  0  0  0  0  0
   40.7300   35.1900   40.6180 C   0  0  2  0  0  3  0  0  0  0  0  0
   42.2070   35.4160   40.6020 C   0  0  2  0  0  3  0  0  0  0  0  0
   42.8260   34.3370   39.7510 C   0  0  0  0  0  3  0  0  0  0  0  0
   43.9160   34.3580   39.7390 H   0  0  0  0  0  0  0  0  0  0  0  0
   42.3710   34.6110   38.4600 O   0  0  0  0  0  0  0  0  0  0  0  0
   41.0890   34.1600   38.3440 C   0  0  0  0  0  3  0  0  0  0  0  0
   41.1340   33.1080   37.9630 H   0  0  0  0  0  0  0  0  0  0  0  0
   40.2200   34.2990   39.5350 C   0  0  2  0  0  3  0  0  0  0  0  0
   40.1040   36.4370   40.5690 O   0  0  0  0  0  0  0  0  0  0  0  0
   39.2990   36.4770   41.1200 H   0  0  0  0  0  0  0  0  0  0  0  0
   38.9190   34.6800   39.2000 O   0  0  0  0  0  0  0  0  0  0  0  0
   38.8390   35.0810   38.3120 H   0  0  0  0  0  0  0  0  0  0  0  0
   44.0840   35.4360   41.9450 C   0  0  0  0  0  0  0  0  0  0  0  0
   44.5720   36.4020   41.7410 H   0  0  0  0  0  0  0  0  0  0  0  0
   44.3760   34.7220   41.1180 H   0  0  0  0  0  0  0  0  0  0  0  0
   44.3460   35.6330   44.3210 C   0  0  0  0  0  0  0  0  0  0  0  0
   44.5820   34.8660   43.1970 C   0  0  0  0  0  0  0  0  0  0  0  0
   45.2530   33.6620   43.3740 C   0  0  0  0  0  0  0  0  0  0  0  0
   45.6170   33.3400   44.6210 N   0  0  0  0  0  0  0  0  0  0  0  0
   45.3860   34.0860   45.7070 C   0  0  0  0  0  0  0  0  0  0  0  0
   44.7260   35.2900   45.5960 N   0  0  0  0  0  0  0  0  0  0  0  0
   43.8300   36.5900   44.2920 H   0  0  0  0  0  0  0  0  0  0  0  0
   45.4180   33.0970   42.4850 H   0  0  0  0  0  0  0  0  0  0  0  0
   45.7410   33.6950   46.6510 H   0  0  0  0  0  0  0  0  0  0  0  0
  1 14  1  0  0  0  0
  2 10  1  6  0  0  0
  3  2  1  0  0  0  0
  3  1  1  1  0  0  0
  4  3  1  0  0  0  0
  5  4  1  0  0  0  0
  6  4  1  0  0  0  0
  7  6  1  0  0  0  0
  7  9  1  0  0  0  0
  8  7  1  0  0  0  0
  9 12  1  6  0  0  0
  9  2  1  0  0  0  0
 10 11  1  0  0  0  0
 13 12  1  0  0  0  0
 14 18  1  0  0  0  0
 15 14  1  0  0  0  0
 16 14  1  0  0  0  0
 17 22  1  0  0  0  0
 18 19  1  0  0  0  0
 18 17  2  0  0  0  0
 19 20  2  0  0  0  0
 20 21  1  0  0  0  0
 21 25  1  0  0  0  0
 22 21  2  0  0  0  0
 23 17  1  0  0  0  0
 24 19  1  0  0  0  0
M  END
>  <minimizedAffinity>
-4.63756943

>  <minimizedRMSD>
1.65576422

$$$$
