REMARK  Name = 
REMARK  9 active torsions:
REMARK  status: ('A' for Active; 'I' for Inactive)
REMARK    1  A    between atoms: C_3  and  O_13
REMARK    2  A    between atoms: C_5  and  C_8
REMARK    3  A    between atoms: C_7  and  O_12
REMARK    4  A    between atoms: O_13  and  P_15
REMARK    5  A    between atoms: P_15  and  O_16
REMARK    6  A    between atoms: P_15  and  O_17
REMARK    7  A    between atoms: O_17  and  C_30
REMARK    8  A    between atoms: O_28  and  C_29
REMARK    9  A    between atoms: C_36  and  O_37
REMARK                            x       y       z     vdW  Elec       q    Type
REMARK                         _______ _______ _______ _____ _____    ______ ____
ROOT
ATOM      1  C   UNL     1      44.561  35.580  44.753  0.00  0.00    +0.000 A 
ATOM      2  C   UNL     1      45.147  35.730  43.478  0.00  0.00    +0.000 A 
ATOM      3  C   UNL     1      46.208  34.877  43.158  0.00  0.00    +0.000 A 
ATOM      4  N   UNL     1      46.613  33.971  44.067  0.00  0.00    +0.000 NA
ATOM      5  C   UNL     1      46.043  33.847  45.271  0.00  0.00    +0.000 A 
ATOM      6  N   UNL     1      45.008  34.662  45.611  0.00  0.00    +0.000 NA
ATOM      7  H   UNL     1      43.729  36.221  45.053  0.00  0.00    +0.000 HD
ATOM      8  H   UNL     1      44.735  36.496  42.830  0.00  0.00    +0.000 HD
ENDROOT
BRANCH   5  10
ATOM      9  C   UNL     1      45.409  32.550  47.323  0.00  0.00    +0.000 C 
ATOM     10  C   UNL     1      46.456  32.876  46.302  0.00  0.00    +0.000 C 
ATOM     11  C   UNL     1      46.606  31.479  45.665  0.00  0.00    +0.000 C 
ATOM     12  O   UNL     1      46.355  30.569  46.640  0.00  0.00    +0.000 OA
ATOM     13  C   UNL     1      45.962  31.218  47.808  0.00  0.00    +0.000 C 
ATOM     14  H   UNL     1      44.413  32.373  46.867  0.00  0.00    +0.000 HD
ATOM     15  H   UNL     1      47.391  33.200  46.749  0.00  0.00    +0.000 HD
ATOM     16  H   UNL     1      47.668  31.405  45.354  0.00  0.00    +0.000 HD
ATOM     17  H   UNL     1      45.992  31.391  44.749  0.00  0.00    +0.000 HD
ATOM     18  H   UNL     1      46.804  31.333  48.489  0.00  0.00    +0.000 HD
ATOM     19  H   UNL     1      45.100  30.652  48.219  0.00  0.00    +0.000 HD
BRANCH   9  20
ATOM     20  O   UNL     1      45.247  33.492  48.296  0.00  0.00    +0.000 OA
ATOM     21  H   UNL     1      45.692  33.138  49.131  0.00  0.00    +0.000 HD
ENDBRANCH   9  20
ENDBRANCH   5  10
BRANCH   3  22
ATOM     22  O   UNL     1      46.763  35.042  41.907  0.00  0.00    +0.000 OA
BRANCH  22  24
ATOM     23  O   UNL     1      48.570  33.251  41.126  0.00  0.00    +0.000 OA
ATOM     24  P   UNL     1      48.407  34.666  41.650  0.00  0.00    +0.000 P 
BRANCH  24  25
ATOM     25  O   UNL     1      49.049  35.801  40.600  0.00  0.00    +0.000 OA
ATOM     26  H   UNL     1      48.909  36.688  41.026  0.00  0.00    +0.000 HD
ENDBRANCH  24  25
BRANCH  24  27
ATOM     27  O   UNL     1      49.162  34.765  43.178  0.00  0.00    +0.000 OA
BRANCH  27  29
ATOM     28  C   UNL     1      50.088  32.674  42.470  0.00  0.00    +0.000 C 
ATOM     29  C   UNL     1      50.360  34.057  43.073  0.00  0.00    +0.000 C 
ATOM     30  C   UNL     1      51.406  34.745  42.257  0.00  0.00    +0.000 C 
ATOM     31  H   UNL     1      52.386  34.272  42.510  0.00  0.00    +0.000 HD
ATOM     32  O   UNL     1      51.249  34.605  40.885  0.00  0.00    +0.000 OA
ATOM     33  C   UNL     1      51.460  33.303  40.478  0.00  0.00    +0.000 C 
ATOM     34  H   UNL     1      50.685  33.051  39.725  0.00  0.00    +0.000 HD
ATOM     35  C   UNL     1      51.272  32.300  41.603  0.00  0.00    +0.000 C 
BRANCH  28  36
ATOM     36  O   UNL     1      49.971  31.703  43.462  0.00  0.00    +0.000 OA
ATOM     37  H   UNL     1      50.718  31.785  44.109  0.00  0.00    +0.000 HD
ENDBRANCH  28  36
BRANCH  35  38
ATOM     38  O   UNL     1      51.057  31.029  41.107  0.00  0.00    +0.000 OA
ATOM     39  H   UNL     1      50.379  31.089  40.383  0.00  0.00    +0.000 HD
ENDBRANCH  35  38
ENDBRANCH  27  29
ENDBRANCH  24  27
ENDBRANCH  22  24
ENDBRANCH   3  22
TORSDOF 9
