
 OpenBabel03242510483D

 42 44  0  0  1  0  0  0  0  0999 V2000
   47.2730   32.1090   40.9090 C   0  0  1  0  0  0  0  0  0  0  0  0
   48.4890   31.2730   40.8900 C   0  0  2  0  0  0  0  0  0  0  0  0
   48.6860   30.6150   42.1460 O   0  0  0  0  0  0  0  0  0  0  0  0
   49.0540   31.6300   43.0340 C   0  0  0  0  0  0  0  0  0  0  0  0
   47.8580   32.5050   43.3430 C   0  0  1  0  0  0  0  0  0  0  0  0
   46.7670   32.3680   42.3230 C   0  0  1  0  0  0  0  0  0  0  0  0
   46.4340   31.6170   40.3710 H   0  0  0  0  0  0  0  0  0  0  0  0
   48.3790   30.3960   40.2000 H   0  0  0  0  0  0  0  0  0  0  0  0
   49.8020   32.2610   42.5080 H   0  0  0  0  0  0  0  0  0  0  0  0
   49.5010   31.2150   43.9710 H   0  0  0  0  0  0  0  0  0  0  0  0
   48.1690   33.5640   43.4490 H   0  0  0  0  0  0  0  0  0  0  0  0
   46.0410   31.5600   42.6030 H   0  0  0  0  0  0  0  0  0  0  0  0
   47.4830   33.3320   40.2430 O   0  0  0  0  0  0  0  0  0  0  0  0
   48.2250   33.8420   40.6490 H   0  0  0  0  0  0  0  0  0  0  0  0
   47.3660   32.0490   44.5800 O   0  0  0  0  0  0  0  0  0  0  0  0
   47.4130   31.0480   44.5400 H   0  0  0  0  0  0  0  0  0  0  0  0
   49.7070   31.9500   40.6060 O   0  0  0  0  0  0  0  0  0  0  0  0
   52.2490   31.2620   38.1780 C   0  0  0  0  0  0  0  0  0  0  0  0
   51.5430   31.1990   36.9660 C   0  0  0  0  0  0  0  0  0  0  0  0
   50.1650   31.4020   37.0060 C   0  0  0  0  0  0  0  0  0  0  0  0
   49.5800   31.6480   38.2070 N   0  0  0  0  0  0  0  0  0  0  0  0
   50.2610   31.7040   39.3470 C   0  0  0  0  0  0  0  0  0  0  0  0
   51.6010   31.5100   39.3260 N   0  0  0  0  0  0  0  0  0  0  0  0
   51.9960   31.0050   36.0050 H   0  0  0  0  0  0  0  0  0  0  0  0
   49.5400   31.3730   36.1300 H   0  0  0  0  0  0  0  0  0  0  0  0
   53.7300   31.0390   38.1250 C   0  0  0  0  0  0  0  0  0  0  0  0
   54.2150   30.6290   39.3300 F   0  0  0  0  0  0  0  0  0  0  0  0
   53.9890   30.1260   37.1130 F   0  0  0  0  0  0  0  0  0  0  0  0
   54.3490   32.2420   37.7000 F   0  0  0  0  0  0  0  0  0  0  0  0
   46.0530   33.5760   42.3010 O   0  0  0  0  0  0  0  0  0  0  0  0
   43.8210   33.5540   41.6710 C   0  0  2  0  0  3  0  0  0  0  0  0
   44.7930   33.4760   42.8450 C   0  0  2  0  0  3  0  0  0  0  0  0
   44.5530   34.7410   43.6570 C   0  0  0  0  0  3  0  0  0  0  0  0
   43.4920   34.8610   43.9520 H   0  0  0  0  0  0  0  0  0  0  0  0
   44.9600   35.8070   42.8570 O   0  0  0  0  0  0  0  0  0  0  0  0
   44.1170   35.9790   41.7610 C   0  0  0  0  0  3  0  0  0  0  0  0
   43.0690   36.0360   42.0610 H   0  0  0  0  0  0  0  0  0  0  0  0
   44.2740   34.7580   40.8630 C   0  0  2  0  0  3  0  0  0  0  0  0
   42.5230   33.8310   42.1440 O   0  0  0  0  0  0  0  0  0  0  0  0
   41.8810   33.6310   41.4420 H   0  0  0  0  0  0  0  0  0  0  0  0
   43.6510   34.8870   39.6490 O   0  0  0  0  0  0  0  0  0  0  0  0
   44.2630   35.2820   38.9650 H   0  0  0  0  0  0  0  0  0  0  0  0
  1  7  1  6  0  0  0
  1  6  1  0  0  0  0
  2  8  1  6  0  0  0
  2  1  1  0  0  0  0
  2  3  1  0  0  0  0
  3  4  1  0  0  0  0
  4  5  1  0  0  0  0
  4 10  1  0  0  0  0
  5 11  1  1  0  0  0
  5 15  1  0  0  0  0
  6 12  1  1  0  0  0
  6  5  1  0  0  0  0
  9  4  1  0  0  0  0
 13 14  1  0  0  0  0
 13  1  1  0  0  0  0
 16 15  1  0  0  0  0
 17  2  1  0  0  0  0
 18 23  1  0  0  0  0
 19 20  1  0  0  0  0
 19 18  2  0  0  0  0
 20 21  2  0  0  0  0
 21 22  1  0  0  0  0
 22 17  1  0  0  0  0
 23 22  2  0  0  0  0
 24 19  1  0  0  0  0
 25 20  1  0  0  0  0
 26 18  1  0  0  0  0
 26 27  1  0  0  0  0
 28 26  1  0  0  0  0
 29 26  1  0  0  0  0
 30  6  1  0  0  0  0
 31 39  1  1  0  0  0
 31 32  1  0  0  0  0
 32 30  1  6  0  0  0
 32 33  1  0  0  0  0
 33 34  1  0  0  0  0
 35 33  1  0  0  0  0
 36 37  1  0  0  0  0
 36 35  1  0  0  0  0
 38 41  1  6  0  0  0
 38 31  1  0  0  0  0
 38 36  1  0  0  0  0
 40 39  1  0  0  0  0
 42 41  1  0  0  0  0
M  END
>  <minimizedAffinity>
-4.60001135

>  <minimizedRMSD>
3.04082131

$$$$
