
 OpenBabel03242510483D

 42 44  0  0  1  0  0  0  0  0999 V2000
   46.7270   33.6860   41.2930 C   0  0  1  0  0  0  0  0  0  0  0  0
   45.3720   33.3590   40.8080 C   0  0  2  0  0  0  0  0  0  0  0  0
   45.2640   31.9720   40.4680 O   0  0  0  0  0  0  0  0  0  0  0  0
   46.0260   31.8220   39.3060 C   0  0  0  0  0  0  0  0  0  0  0  0
   47.4990   31.9320   39.6350 C   0  0  1  0  0  0  0  0  0  0  0  0
   47.7450   32.6040   40.9530 C   0  0  1  0  0  0  0  0  0  0  0  0
   46.7480   33.7870   42.3990 H   0  0  0  0  0  0  0  0  0  0  0  0
   44.6070   33.4430   41.6230 H   0  0  0  0  0  0  0  0  0  0  0  0
   45.7680   32.6750   38.6410 H   0  0  0  0  0  0  0  0  0  0  0  0
   45.8000   30.8570   38.7870 H   0  0  0  0  0  0  0  0  0  0  0  0
   48.0410   32.4510   38.8200 H   0  0  0  0  0  0  0  0  0  0  0  0
   47.7800   31.8620   41.7930 H   0  0  0  0  0  0  0  0  0  0  0  0
   47.1630   34.9290   40.7930 O   0  0  0  0  0  0  0  0  0  0  0  0
   47.1680   34.9380   39.8050 H   0  0  0  0  0  0  0  0  0  0  0  0
   47.9660   30.6070   39.7210 O   0  0  0  0  0  0  0  0  0  0  0  0
   47.2540   30.0970   40.2090 H   0  0  0  0  0  0  0  0  0  0  0  0
   44.9290   34.0790   39.6650 O   0  0  0  0  0  0  0  0  0  0  0  0
   41.7880   35.0080   38.2140 C   0  0  0  0  0  0  0  0  0  0  0  0
   40.8860   34.9150   39.2860 C   0  0  0  0  0  0  0  0  0  0  0  0
   41.3890   34.5240   40.5250 C   0  0  0  0  0  0  0  0  0  0  0  0
   42.7160   34.2550   40.6320 N   0  0  0  0  0  0  0  0  0  0  0  0
   43.5590   34.3470   39.6070 C   0  0  0  0  0  0  0  0  0  0  0  0
   43.0870   34.7270   38.3970 N   0  0  0  0  0  0  0  0  0  0  0  0
   39.8300   35.1260   39.2140 H   0  0  0  0  0  0  0  0  0  0  0  0
   40.7760   34.4240   41.4040 H   0  0  0  0  0  0  0  0  0  0  0  0
   41.2370   35.4250   36.8840 C   0  0  0  0  0  0  0  0  0  0  0  0
   41.9270   36.4800   36.3680 F   0  0  0  0  0  0  0  0  0  0  0  0
   41.2580   34.3190   36.0460 F   0  0  0  0  0  0  0  0  0  0  0  0
   39.8620   35.7350   37.0460 F   0  0  0  0  0  0  0  0  0  0  0  0
   49.0060   33.2160   40.8880 O   0  0  0  0  0  0  0  0  0  0  0  0
   49.2250   31.4700   42.3990 C   0  0  2  0  0  3  0  0  0  0  0  0
   49.9420   32.6260   41.7060 C   0  0  2  0  0  3  0  0  0  0  0  0
   50.2670   33.6230   42.8090 C   0  0  0  0  0  3  0  0  0  0  0  0
   50.8390   33.1670   43.6410 H   0  0  0  0  0  0  0  0  0  0  0  0
   49.0460   34.1140   43.2700 O   0  0  0  0  0  0  0  0  0  0  0  0
   48.3190   33.1360   43.9430 C   0  0  0  0  0  3  0  0  0  0  0  0
   48.9150   32.6520   44.7200 H   0  0  0  0  0  0  0  0  0  0  0  0
   47.9330   32.0690   42.9270 C   0  0  2  0  0  3  0  0  0  0  0  0
   49.9750   31.0440   43.5150 O   0  0  0  0  0  0  0  0  0  0  0  0
   49.6560   30.1690   43.7930 H   0  0  0  0  0  0  0  0  0  0  0  0
   47.0450   31.1440   43.4140 O   0  0  0  0  0  0  0  0  0  0  0  0
   46.0990   31.4280   43.2530 H   0  0  0  0  0  0  0  0  0  0  0  0
  1  7  1  1  0  0  0
  2  1  1  0  0  0  0
  2  8  1  1  0  0  0
  3  2  1  0  0  0  0
  4  5  1  0  0  0  0
  4  3  1  0  0  0  0
  5 11  1  6  0  0  0
  5 15  1  0  0  0  0
  5  6  1  0  0  0  0
  6  1  1  0  0  0  0
  6 12  1  1  0  0  0
  9  4  1  0  0  0  0
 10  4  1  0  0  0  0
 13  1  1  0  0  0  0
 14 13  1  0  0  0  0
 15 16  1  0  0  0  0
 17  2  1  0  0  0  0
 18 23  2  0  0  0  0
 18 19  1  0  0  0  0
 19 20  2  0  0  0  0
 20 21  1  0  0  0  0
 20 25  1  0  0  0  0
 22 17  1  0  0  0  0
 22 21  2  0  0  0  0
 23 22  1  0  0  0  0
 24 19  1  0  0  0  0
 26 29  1  0  0  0  0
 26 18  1  0  0  0  0
 27 26  1  0  0  0  0
 28 26  1  0  0  0  0
 30  6  1  0  0  0  0
 31 38  1  0  0  0  0
 31 39  1  1  0  0  0
 32 30  1  6  0  0  0
 32 31  1  0  0  0  0
 32 33  1  0  0  0  0
 33 35  1  0  0  0  0
 33 34  1  0  0  0  0
 35 36  1  0  0  0  0
 36 37  1  0  0  0  0
 38 41  1  1  0  0  0
 38 36  1  0  0  0  0
 39 40  1  0  0  0  0
 42 41  1  0  0  0  0
M  END
>  <minimizedAffinity>
0.409715772

>  <minimizedRMSD>
6.87741756

$$$$
