
     RDKit          3D

 47 49  0  0  0  0  0  0  0  0999 V2000
   47.1706   33.4154   40.7022 O   0  0  0  0  0  0  0  0  0  0  0  0
   49.6478   32.3444   38.3460 C   0  0  0  0  0  0  0  0  0  0  0  0
   49.3141   33.0389   37.1735 C   0  0  0  0  0  0  0  0  0  0  0  0
   48.2106   33.8902   37.2148 C   0  0  0  0  0  0  0  0  0  0  0  0
   47.5208   34.0024   38.3790 N   0  0  0  0  0  0  0  0  0  0  0  0
   47.8492   33.3370   39.4829 C   0  0  0  0  0  0  0  0  0  0  0  0
   48.9181   32.5065   39.4601 N   0  0  0  0  0  0  0  0  0  0  0  0
   50.8330   31.4278   38.2913 C   0  0  0  0  0  0  0  0  0  0  0  0
   51.7221   31.7032   39.2846 F   0  0  0  0  0  0  0  0  0  0  0  0
   50.3672   30.1220   38.3436 F   0  0  0  0  0  0  0  0  0  0  0  0
   51.4328   31.5501   37.0113 F   0  0  0  0  0  0  0  0  0  0  0  0
   45.4756   34.7822   41.8421 C   0  0  1  0  0  0  0  0  0  0  0  0
   45.8761   34.0014   40.6551 C   0  0  2  0  0  0  0  0  0  0  0  0
   44.9638   32.9246   40.4098 O   0  0  0  0  0  0  0  0  0  0  0  0
   45.1947   32.0105   41.4423 C   0  0  0  0  0  0  0  0  0  0  0  0
   44.6609   32.5598   42.7485 C   0  0  1  0  0  0  0  0  0  0  0  0
   44.4607   34.0446   42.7076 C   0  0  1  0  0  0  0  0  0  0  0  0
   46.5950   35.1436   42.6175 O   0  0  0  0  0  0  0  0  0  0  0  0
   43.4062   31.9504   42.9293 O   0  0  0  0  0  0  0  0  0  0  0  0
   44.5967   34.5270   44.0186 O   0  0  0  0  0  0  0  0  0  0  0  0
   49.8540   32.9585   36.2415 H   0  0  0  0  0  0  0  0  0  0  0  0
   47.8781   34.4639   36.3671 H   0  0  0  0  0  0  0  0  0  0  0  0
   44.9918   35.7395   41.5527 H   0  0  0  0  0  0  0  0  0  0  0  0
   45.7689   34.5965   39.7114 H   0  0  0  0  0  0  0  0  0  0  0  0
   46.2965   31.9165   41.5464 H   0  0  0  0  0  0  0  0  0  0  0  0
   44.7488   31.0114   41.2141 H   0  0  0  0  0  0  0  0  0  0  0  0
   45.3239   32.2731   43.5890 H   0  0  0  0  0  0  0  0  0  0  0  0
   43.4276   34.3125   42.3632 H   0  0  0  0  0  0  0  0  0  0  0  0
   47.0998   34.3494   42.9151 H   0  0  0  0  0  0  0  0  0  0  0  0
   42.9694   31.9505   42.0257 H   0  0  0  0  0  0  0  0  0  0  0  0
   42.1644   37.1011   43.9257 O   0  0  0  0  0  0  0  0  0  0  0  0
   43.0665   36.1553   43.3981 C   0  0  2  0  0  0  0  0  0  0  0  0
   43.4704   35.1639   44.4860 C   0  0  2  0  0  0  0  0  0  0  0  0
   43.8955   36.0147   45.6744 C   0  0  1  0  0  0  0  0  0  0  0  0
   43.1138   36.7353   45.9832 H   0  0  0  0  0  0  0  0  0  0  0  0
   45.0517   36.6886   45.2836 O   0  0  0  0  0  0  0  0  0  0  0  0
   44.7857   37.6409   44.3019 C   0  0  1  0  0  0  0  0  0  0  0  0
   43.9704   38.3068   44.5944 H   0  0  0  0  0  0  0  0  0  0  0  0
   44.3445   36.8972   43.0474 C   0  0  2  0  0  0  0  0  0  0  0  0
   44.2406   37.7011   41.9422 O   0  0  0  0  0  0  0  0  0  0  0  0
   41.7237   37.5604   43.1908 H   0  0  0  0  0  0  0  0  0  0  0  0
   42.6219   35.6416   42.5400 H   0  0  0  0  0  0  0  0  0  0  0  0
   42.6507   34.4704   44.7558 H   0  0  0  0  0  0  0  0  0  0  0  0
   44.2150   35.3463   46.5141 H   0  0  0  0  0  0  0  0  0  0  0  0
   45.7275   38.1580   44.0808 H   0  0  0  0  0  0  0  0  0  0  0  0
   45.1467   36.1301   42.8843 H   0  0  0  0  0  0  0  0  0  0  0  0
   45.1033   37.7384   41.4359 H   0  0  0  0  0  0  0  0  0  0  0  0
  2  7  2  0
  3  4  2  0
  3  2  1  0
  4  5  1  0
  5  6  2  0
  6  1  1  0
  7  6  1  0
  8  2  1  0
  8 10  1  0
  8  9  1  0
 11  8  1  0
 12 18  1  0
 12 17  1  0
 13  1  1  0
 13 12  1  0
 14 13  1  0
 14 15  1  0
 15 16  1  0
 16 19  1  0
 17 16  1  0
 17 20  1  0
  3 21  1  0
  4 22  1  0
 12 23  1  6
 13 24  1  6
 15 25  1  0
 15 26  1  0
 16 27  1  1
 17 28  1  6
 18 29  1  0
 19 30  1  0
 31 32  1  0
 32 33  1  0
 33 34  1  0
 34 35  1  1
 34 36  1  0
 36 37  1  0
 37 38  1  1
 37 39  1  0
 39 40  1  0
 39 32  1  0
 31 41  1  0
 32 42  1  6
 33 43  1  1
 34 44  1  0
 37 45  1  0
 39 46  1  6
 40 47  1  0
 20 33  1  0
M  ISO  8  21  14  22  14  23  13  24  13  25  13  26  13  27  13  28  13
M  ISO  4  29   3  30   3  35   8  38   8
M  END
>  <DihAtoms>  (1) 
16,19,32,31

>  <DihDeg>  (1) 
-124.11752724780959

$$$$
