
 OpenBabel03252501343D

 24 25  0  0  0  0  0  0  0  0999 V2000
   44.1260   35.0600   42.4740 C   0  0  0  0  0  0  0  0  0  0  0  0
   44.1030   33.7900   42.5860 O   0  0  0  0  0  0  0  0  0  0  0  0
   44.9960   35.6950   43.4170 N   0  0  0  0  0  0  0  0  0  0  0  0
   45.1200   36.7140   43.4370 H   0  0  0  0  0  0  0  0  0  0  0  0
   45.5950   34.6550   44.2510 C   0  0  0  0  0  0  0  0  0  0  0  0
   45.2530   34.4200   45.5590 C   0  0  0  0  0  0  0  0  0  0  0  0
   45.9300   33.3840   46.1980 C   0  0  0  0  0  0  0  0  0  0  0  0
   46.8480   32.7120   45.4840 N   0  0  0  0  0  0  0  0  0  0  0  0
   47.1560   32.9690   44.2090 C   0  0  0  0  0  0  0  0  0  0  0  0
   46.5180   33.9710   43.5550 N   0  0  0  0  0  0  0  0  0  0  0  0
   45.6650   33.1920   47.2280 H   0  0  0  0  0  0  0  0  0  0  0  0
   47.9100   32.3800   43.7040 H   0  0  0  0  0  0  0  0  0  0  0  0
   44.2600   35.2340   46.1330 N   0  0  0  0  0  0  0  0  0  0  0  0
   44.2090   36.2350   46.4160 H   0  0  0  0  0  0  0  0  0  0  0  0
   43.2860   34.9930   46.4240 H   0  0  0  0  0  0  0  0  0  0  0  0
   43.3980   35.8230   41.5390 O   0  0  0  0  0  0  0  0  0  0  0  0
   42.1640   35.3400   41.1100 C   0  0  0  0  0  0  0  0  0  0  0  0
   41.0440   36.1440   41.0330 C   0  0  0  0  0  0  0  0  0  0  0  0
   41.1330   37.1810   41.3170 H   0  0  0  0  0  0  0  0  0  0  0  0
   39.8310   35.6670   40.6100 C   0  0  0  0  0  0  0  0  0  0  0  0
   38.9250   36.2520   40.5330 H   0  0  0  0  0  0  0  0  0  0  0  0
   39.6910   34.3260   40.2370 C   0  0  0  0  0  0  0  0  0  0  0  0
   40.8320   33.5530   40.3280 C   0  0  0  0  0  0  0  0  0  0  0  0
   42.0080   34.0520   40.7460 N   0  0  0  0  0  0  0  0  0  0  0  0
  1  2  2  0  0  0  0
  1  3  1  0  0  0  0
  3  4  1  0  0  0  0
  3  5  1  0  0  0  0
  5  6  1  0  0  0  0
  6 13  1  0  0  0  0
  6  7  2  0  0  0  0
  7 11  1  0  0  0  0
  8  7  1  0  0  0  0
  9  8  2  0  0  0  0
 10  9  1  0  0  0  0
 10  5  2  0  0  0  0
 12  9  1  0  0  0  0
 13 14  1  0  0  0  0
 13 15  1  0  0  0  0
 16  1  1  0  0  0  0
 17 16  1  0  0  0  0
 18 17  1  0  0  0  0
 18 19  1  0  0  0  0
 20 18  2  0  0  0  0
 21 20  1  0  0  0  0
 22 23  2  0  0  0  0
 22 20  1  0  0  0  0
 23 24  1  0  0  0  0
 24 17  2  0  0  0  0
M  END
>  <minimizedAffinity>
-5.3937645

>  <minimizedRMSD>
0.784765661

$$$$
