
 OpenBabel03242515283D

 31 33  0  0  0  0  0  0  0  0999 V2000
   44.6200   35.5420   45.0730 C   0  0  0  0  0  0  0  0  0  0  0  0
   45.3940   35.0830   43.9920 C   0  0  0  0  0  0  0  0  0  0  0  0
   46.0850   33.9030   44.1840 C   0  0  0  0  0  0  0  0  0  0  0  0
   45.9990   33.2530   45.3580 N   0  0  0  0  0  0  0  0  0  0  0  0
   45.2300   33.7520   46.3650 C   0  0  0  0  0  0  0  0  0  0  0  0
   44.5280   34.8940   46.2540 N   0  0  0  0  0  0  0  0  0  0  0  0
   44.0550   36.4600   44.9830 H   0  0  0  0  0  0  0  0  0  0  0  0
   46.6820   33.5480   43.3520 H   0  0  0  0  0  0  0  0  0  0  0  0
   45.3970   35.9060   42.7770 C   0  0  0  0  0  0  0  0  0  0  0  0
   45.1200   36.9320   42.9920 H   0  0  0  0  0  0  0  0  0  0  0  0
   46.4750   35.9510   42.4460 H   0  0  0  0  0  0  0  0  0  0  0  0
   44.6030   35.2350   41.7750 N   0  0  0  0  0  0  0  0  0  0  0  0
   43.2790   35.3140   41.7870 C   0  0  0  0  0  0  0  0  0  0  0  0
   42.5700   34.6570   40.8110 C   0  0  0  0  0  0  0  0  0  0  0  0
   43.2040   33.9220   39.8300 C   0  0  0  0  0  0  0  0  0  0  0  0
   42.5300   33.3380   38.9610 O   0  0  0  0  0  0  0  0  0  0  0  0
   44.5580   33.8530   39.8350 N   0  0  0  0  0  0  0  0  0  0  0  0
   45.2560   34.5060   40.8010 C   0  0  0  0  0  0  0  0  0  0  0  0
   46.5120   34.4020   40.7500 O   0  0  0  0  0  0  0  0  0  0  0  0
   42.7770   35.8870   42.5520 H   0  0  0  0  0  0  0  0  0  0  0  0
   41.4980   34.7330   40.8390 H   0  0  0  0  0  0  0  0  0  0  0  0
   45.0610   33.3000   39.0970 H   0  0  0  0  0  0  0  0  0  0  0  0
   45.1380   33.0870   47.5930 O   0  0  0  0  0  0  0  0  0  0  0  0
   46.0480   32.0500   47.7760 C   0  0  0  0  0  0  0  0  0  0  0  0
   47.2990   32.2980   48.3030 C   0  0  0  0  0  0  0  0  0  0  0  0
   47.5940   33.3100   48.5850 H   0  0  0  0  0  0  0  0  0  0  0  0
   48.1890   31.2610   48.4770 C   0  0  0  0  0  0  0  0  0  0  0  0
   49.1590   31.4390   48.8840 H   0  0  0  0  0  0  0  0  0  0  0  0
   47.8410   29.9770   48.1290 C   0  0  0  0  0  0  0  0  0  0  0  0
   46.5700   29.7370   47.5950 C   0  0  0  0  0  0  0  0  0  0  0  0
   45.7380   30.7990   47.4480 N   0  0  0  0  0  0  0  0  0  0  0  0
  1  6  1  0  0  0  0
  2  3  1  0  0  0  0
  2  1  2  0  0  0  0
  3  4  2  0  0  0  0
  4  5  1  0  0  0  0
  5 23  1  0  0  0  0
  6  5  2  0  0  0  0
  7  1  1  0  0  0  0
  8  3  1  0  0  0  0
  9 10  1  0  0  0  0
  9  2  1  0  0  0  0
 11  9  1  0  0  0  0
 12 13  1  0  0  0  0
 12  9  1  0  0  0  0
 13 20  1  0  0  0  0
 14 21  1  0  0  0  0
 14 13  2  0  0  0  0
 15 17  1  0  0  0  0
 15 14  1  0  0  0  0
 16 15  2  0  0  0  0
 17 18  1  0  0  0  0
 18 12  1  0  0  0  0
 19 18  2  0  0  0  0
 22 17  1  0  0  0  0
 23 24  1  0  0  0  0
 24 25  1  0  0  0  0
 25 27  2  0  0  0  0
 25 26  1  0  0  0  0
 27 28  1  0  0  0  0
 29 27  1  0  0  0  0
 30 29  2  0  0  0  0
 31 30  1  0  0  0  0
 31 24  2  0  0  0  0
M  END
>  <minimizedAffinity>
-5.55375528

>  <minimizedRMSD>
2.12039089

$$$$
