
 OpenBabel03242519533D

 39 41  0  0  1  0  0  0  0  0999 V2000
   47.3110   34.0750   42.5040 C   0  0  2  0  0  0  0  0  0  0  0  0
   48.6700   34.6380   42.6660 C   0  0  0  0  0  0  0  0  0  0  0  0
   48.9680   35.7080   41.6680 C   0  0  0  0  0  0  0  0  0  0  0  0
   48.7620   35.2760   40.2390 C   0  0  0  0  0  0  0  0  0  0  0  0
   47.6020   34.3470   40.0440 C   0  0  2  0  0  0  0  0  0  0  0  0
   46.6410   34.4120   41.2150 C   0  0  0  0  0  0  0  0  0  0  0  0
   47.4430   32.9460   42.5260 H   0  0  0  0  0  0  0  0  0  0  0  0
   48.7570   35.0690   43.6700 H   0  0  0  0  0  0  0  0  0  0  0  0
   49.4670   33.8760   42.5860 H   0  0  0  0  0  0  0  0  0  0  0  0
   48.4340   36.6580   41.9000 H   0  0  0  0  0  0  0  0  0  0  0  0
   50.0690   35.9350   41.7710 H   0  0  0  0  0  0  0  0  0  0  0  0
   49.7130   34.8970   39.7770 H   0  0  0  0  0  0  0  0  0  0  0  0
   48.5410   36.2240   39.6750 H   0  0  0  0  0  0  0  0  0  0  0  0
   46.9920   34.6660   39.1510 H   0  0  0  0  0  0  0  0  0  0  0  0
   46.1200   35.3460   41.1200 H   0  0  0  0  0  0  0  0  0  0  0  0
   45.8770   33.6030   41.0350 H   0  0  0  0  0  0  0  0  0  0  0  0
   46.4060   34.3850   43.6230 C   0  0  0  0  0  0  0  0  0  0  0  0
   45.5760   35.4780   43.3860 C   0  0  0  0  0  0  0  0  0  0  0  0
   44.6530   35.8730   44.3560 C   0  0  0  0  0  0  0  0  0  0  0  0
   44.6340   35.1230   45.5200 N   0  0  0  0  0  0  0  0  0  0  0  0
   45.4560   34.0740   45.7090 C   0  0  0  0  0  0  0  0  0  0  0  0
   46.3270   33.7190   44.7640 N   0  0  0  0  0  0  0  0  0  0  0  0
   45.4230   36.1940   42.5920 H   0  0  0  0  0  0  0  0  0  0  0  0
   43.9330   36.6630   44.3840 H   0  0  0  0  0  0  0  0  0  0  0  0
   45.4000   33.5210   46.6420 H   0  0  0  0  0  0  0  0  0  0  0  0
   48.1140   32.9900   39.7530 C   0  0  0  0  0  0  0  0  0  0  0  0
   48.9240   33.0830   39.0040 H   0  0  0  0  0  0  0  0  0  0  0  0
   48.6150   32.6010   40.6770 H   0  0  0  0  0  0  0  0  0  0  0  0
   47.0840   31.9820   39.3530 C   0  0  0  0  0  0  0  0  0  0  0  0
   46.0980   32.3030   39.7100 H   0  0  0  0  0  0  0  0  0  0  0  0
   47.2940   30.9880   39.7990 H   0  0  0  0  0  0  0  0  0  0  0  0
   47.0790   31.7760   37.8620 C   0  0  0  0  0  0  0  0  0  0  0  0
   46.6720   32.6600   36.9010 C   0  0  0  0  0  0  0  0  0  0  0  0
   46.3210   33.6000   37.2700 H   0  0  0  0  0  0  0  0  0  0  0  0
   46.7460   32.2790   35.5790 C   0  0  0  0  0  0  0  0  0  0  0  0
   46.4240   32.9800   34.8290 H   0  0  0  0  0  0  0  0  0  0  0  0
   47.2160   31.0350   35.1890 C   0  0  0  0  0  0  0  0  0  0  0  0
   47.6160   30.1760   36.2100 C   0  0  0  0  0  0  0  0  0  0  0  0
   47.5370   30.5650   37.4910 N   0  0  0  0  0  0  0  0  0  0  0  0
  1  7  1  1  0  0  0
  1  2  1  0  0  0  0
  1 17  1  0  0  0  0
  2  8  1  0  0  0  0
  3 11  1  0  0  0  0
  3 10  1  0  0  0  0
  3  2  1  0  0  0  0
  4  3  1  0  0  0  0
  5 14  1  6  0  0  0
  5  4  1  0  0  0  0
  5  6  1  0  0  0  0
  6  1  1  0  0  0  0
  9  2  1  0  0  0  0
 12  4  1  0  0  0  0
 13  4  1  0  0  0  0
 15  6  1  0  0  0  0
 16  6  1  0  0  0  0
 17 22  1  0  0  0  0
 18 17  2  0  0  0  0
 18 19  1  0  0  0  0
 19 24  1  0  0  0  0
 19 20  2  0  0  0  0
 20 21  1  0  0  0  0
 21 25  1  0  0  0  0
 22 21  2  0  0  0  0
 23 18  1  0  0  0  0
 26  5  1  0  0  0  0
 26 28  1  0  0  0  0
 27 26  1  0  0  0  0
 29 30  1  0  0  0  0
 29 26  1  0  0  0  0
 29 31  1  0  0  0  0
 32 29  1  0  0  0  0
 33 34  1  0  0  0  0
 33 32  2  0  0  0  0
 35 33  1  0  0  0  0
 36 35  1  0  0  0  0
 37 35  2  0  0  0  0
 37 38  1  0  0  0  0
 38 39  2  0  0  0  0
 39 32  1  0  0  0  0
M  END
>  <minimizedAffinity>
-5.25141668

>  <minimizedRMSD>
2.08054256

$$$$
