
 OpenBabel03252502383D

 37 39  0  0  1  0  0  0  0  0999 V2000
   37.2800   30.4680   39.4690 C   0  0  1  0  0  0  0  0  0  0  0  0
   38.0330   29.6620   39.5510 H   0  0  0  0  0  0  0  0  0  0  0  0
   36.6140   30.2530   38.2000 N   0  0  0  0  0  0  0  0  0  0  0  0
   37.5060   29.8270   37.1730 C   0  0  0  0  0  0  0  0  0  0  0  0
   36.7300   30.0130   35.8660 C   0  0  0  0  0  0  0  0  0  0  0  0
   35.7620   28.9480   35.9090 N   0  0  0  0  0  0  0  0  0  0  0  0
   34.8630   28.9860   37.0170 C   0  0  0  0  0  0  0  0  0  0  0  0
   35.4160   29.5100   38.3040 C   0  0  0  0  0  0  0  0  0  0  0  0
   37.7750   28.7570   37.2690 H   0  0  0  0  0  0  0  0  0  0  0  0
   38.3690   30.5140   37.1700 H   0  0  0  0  0  0  0  0  0  0  0  0
   37.4240   29.7920   35.0380 H   0  0  0  0  0  0  0  0  0  0  0  0
   36.2370   30.9880   35.8160 H   0  0  0  0  0  0  0  0  0  0  0  0
   36.3310   28.0570   36.0050 H   0  0  0  0  0  0  0  0  0  0  0  0
   33.9560   29.5580   36.6650 H   0  0  0  0  0  0  0  0  0  0  0  0
   34.4870   27.9490   37.1890 H   0  0  0  0  0  0  0  0  0  0  0  0
   34.6370   30.1980   38.7190 H   0  0  0  0  0  0  0  0  0  0  0  0
   35.5780   28.6700   39.0360 H   0  0  0  0  0  0  0  0  0  0  0  0
   39.3100   31.8220   39.7980 C   0  0  0  0  0  0  0  0  0  0  0  0
   37.9180   31.7420   39.6430 C   0  0  0  0  0  0  0  0  0  0  0  0
   37.1690   32.9220   39.6660 C   0  0  0  0  0  0  0  0  0  0  0  0
   37.8540   34.1010   39.8410 N   0  0  0  0  0  0  0  0  0  0  0  0
   39.1930   34.1550   39.9890 C   0  0  0  0  0  0  0  0  0  0  0  0
   39.9360   33.0150   39.9680 N   0  0  0  0  0  0  0  0  0  0  0  0
   39.8980   30.9140   39.7810 H   0  0  0  0  0  0  0  0  0  0  0  0
   36.1110   32.9500   39.5560 H   0  0  0  0  0  0  0  0  0  0  0  0
   39.6010   35.1580   40.1190 H   0  0  0  0  0  0  0  0  0  0  0  0
   36.2750   30.2410   40.6010 C   0  0  0  0  0  0  0  0  0  0  0  0
   35.3840   29.6840   40.2070 H   0  0  0  0  0  0  0  0  0  0  0  0
   36.0040   31.1900   41.0970 H   0  0  0  0  0  0  0  0  0  0  0  0
   36.8620   29.3590   41.6420 C   0  0  0  0  0  0  0  0  0  0  0  0
   36.2580   28.1110   41.7300 C   0  0  0  0  0  0  0  0  0  0  0  0
   35.4450   27.7950   41.1160 H   0  0  0  0  0  0  0  0  0  0  0  0
   36.7580   27.2260   42.6900 C   0  0  0  0  0  0  0  0  0  0  0  0
   36.3620   26.2300   42.8430 H   0  0  0  0  0  0  0  0  0  0  0  0
   37.8140   27.5990   43.5090 C   0  0  0  0  0  3  0  0  0  0  0  0
   38.3830   28.8620   43.3790 C   0  0  0  0  0  3  0  0  0  0  0  0
   37.9010   29.7140   42.4550 N   0  0  0  0  0  0  0  0  0  0  0  0
  1  2  1  1  0  0  0
  1 19  1  0  0  0  0
  1 27  1  0  0  0  0
  3  8  1  0  0  0  0
  3  1  1  0  0  0  0
  4  9  1  0  0  0  0
  4  3  1  0  0  0  0
  5  6  1  0  0  0  0
  5  4  1  0  0  0  0
  6 13  1  0  0  0  0
  6  7  1  0  0  0  0
  7 15  1  0  0  0  0
  7  8  1  0  0  0  0
  8 16  1  0  0  0  0
  8 17  1  0  0  0  0
 10  4  1  0  0  0  0
 11  5  1  0  0  0  0
 12  5  1  0  0  0  0
 14  7  1  0  0  0  0
 18 23  1  0  0  0  0
 19 20  1  0  0  0  0
 19 18  2  0  0  0  0
 20 21  2  0  0  0  0
 21 22  1  0  0  0  0
 22 26  1  0  0  0  0
 23 22  2  0  0  0  0
 24 18  1  0  0  0  0
 25 20  1  0  0  0  0
 27 29  1  0  0  0  0
 27 30  1  0  0  0  0
 28 27  1  0  0  0  0
 30 31  2  0  0  0  0
 30 37  1  0  0  0  0
 31 33  1  0  0  0  0
 32 31  1  0  0  0  0
 33 34  1  0  0  0  0
 33 35  2  0  0  0  0
 36 35  1  0  0  0  0
 37 36  2  0  0  0  0
M  END
>  <minimizedAffinity>
-4.94530153

$$$$

 OpenBabel03252502383D

 37 39  0  0  1  0  0  0  0  0999 V2000
   37.4540   29.9040   40.1860 C   0  0  1  0  0  0  0  0  0  0  0  0
   37.8160   29.3160   39.3210 H   0  0  0  0  0  0  0  0  0  0  0  0
   38.1930   31.1500   40.1490 N   0  0  0  0  0  0  0  0  0  0  0  0
   39.1340   31.2040   39.0790 C   0  0  0  0  0  0  0  0  0  0  0  0
   40.0520   32.3830   39.4120 C   0  0  0  0  0  0  0  0  0  0  0  0
   39.2160   33.5270   39.1570 N   0  0  0  0  0  0  0  0  0  0  0  0
   38.0280   33.6000   39.9440 C   0  0  0  0  0  0  0  0  0  0  0  0
   37.3800   32.2980   40.2930 C   0  0  0  0  0  0  0  0  0  0  0  0
   38.6490   31.4040   38.1040 H   0  0  0  0  0  0  0  0  0  0  0  0
   39.7290   30.2750   39.1080 H   0  0  0  0  0  0  0  0  0  0  0  0
   40.8590   32.3920   38.6610 H   0  0  0  0  0  0  0  0  0  0  0  0
   40.3840   32.3640   40.4540 H   0  0  0  0  0  0  0  0  0  0  0  0
   38.9110   33.4290   38.1450 H   0  0  0  0  0  0  0  0  0  0  0  0
   38.2900   34.2160   40.8520 H   0  0  0  0  0  0  0  0  0  0  0  0
   37.2880   34.2260   39.3890 H   0  0  0  0  0  0  0  0  0  0  0  0
   37.1020   32.3700   41.3750 H   0  0  0  0  0  0  0  0  0  0  0  0
   36.4400   32.1500   39.6920 H   0  0  0  0  0  0  0  0  0  0  0  0
   36.5540   28.2600   41.7840 C   0  0  0  0  0  0  0  0  0  0  0  0
   37.5850   29.1260   41.3860 C   0  0  0  0  0  0  0  0  0  0  0  0
   38.7300   29.2180   42.1790 C   0  0  0  0  0  0  0  0  0  0  0  0
   38.7760   28.4440   43.3160 N   0  0  0  0  0  0  0  0  0  0  0  0
   37.7740   27.6190   43.6800 C   0  0  0  0  0  0  0  0  0  0  0  0
   36.6510   27.5180   42.9160 N   0  0  0  0  0  0  0  0  0  0  0  0
   35.6640   28.1820   41.1740 H   0  0  0  0  0  0  0  0  0  0  0  0
   39.5570   29.8490   41.9500 H   0  0  0  0  0  0  0  0  0  0  0  0
   37.9460   27.0670   44.6030 H   0  0  0  0  0  0  0  0  0  0  0  0
   35.9750   30.1960   39.9240 C   0  0  0  0  0  0  0  0  0  0  0  0
   35.8230   31.3030   39.8220 H   0  0  0  0  0  0  0  0  0  0  0  0
   35.3300   29.7440   40.6990 H   0  0  0  0  0  0  0  0  0  0  0  0
   35.5590   29.6190   38.6210 C   0  0  0  0  0  0  0  0  0  0  0  0
   34.3650   28.9090   38.6750 C   0  0  0  0  0  0  0  0  0  0  0  0
   33.7850   28.7790   39.5600 H   0  0  0  0  0  0  0  0  0  0  0  0
   33.9100   28.3360   37.4840 C   0  0  0  0  0  0  0  0  0  0  0  0
   32.9930   27.7640   37.4130 H   0  0  0  0  0  0  0  0  0  0  0  0
   34.6340   28.4810   36.3100 C   0  0  0  0  0  3  0  0  0  0  0  0
   35.8250   29.2020   36.3120 C   0  0  0  0  0  3  0  0  0  0  0  0
   36.2630   29.7540   37.4590 N   0  0  0  0  0  0  0  0  0  0  0  0
  1  2  1  6  0  0  0
  1 19  1  0  0  0  0
  3  1  1  0  0  0  0
  3  8  1  0  0  0  0
  4 10  1  0  0  0  0
  4  5  1  0  0  0  0
  4  3  1  0  0  0  0
  5 12  1  0  0  0  0
  6  5  1  0  0  0  0
  6  7  1  0  0  0  0
  7  8  1  0  0  0  0
  7 14  1  0  0  0  0
  8 16  1  0  0  0  0
  9  4  1  0  0  0  0
 11  5  1  0  0  0  0
 13  6  1  0  0  0  0
 15  7  1  0  0  0  0
 17  8  1  0  0  0  0
 18 23  1  0  0  0  0
 19 18  2  0  0  0  0
 19 20  1  0  0  0  0
 20 21  2  0  0  0  0
 21 22  1  0  0  0  0
 22 26  1  0  0  0  0
 23 22  2  0  0  0  0
 24 18  1  0  0  0  0
 25 20  1  0  0  0  0
 27  1  1  0  0  0  0
 27 29  1  0  0  0  0
 28 27  1  0  0  0  0
 30 31  1  0  0  0  0
 30 27  1  0  0  0  0
 31 32  1  0  0  0  0
 33 31  2  0  0  0  0
 34 33  1  0  0  0  0
 35 36  2  0  0  0  0
 35 33  1  0  0  0  0
 36 37  1  0  0  0  0
 37 30  2  0  0  0  0
M  END
>  <minimizedAffinity>
-4.81314039

$$$$

 OpenBabel03252502383D

 37 39  0  0  1  0  0  0  0  0999 V2000
   37.8620   30.0380   39.5110 C   0  0  1  0  0  0  0  0  0  0  0  0
   36.8840   29.9240   40.0140 H   0  0  0  0  0  0  0  0  0  0  0  0
   38.1700   31.4530   39.5700 N   0  0  0  0  0  0  0  0  0  0  0  0
   37.0750   32.2370   40.0390 C   0  0  0  0  0  0  0  0  0  0  0  0
   37.4370   33.6820   39.6860 C   0  0  0  0  0  0  0  0  0  0  0  0
   38.4790   33.9960   40.6290 N   0  0  0  0  0  0  0  0  0  0  0  0
   39.6400   33.1700   40.5490 C   0  0  0  0  0  0  0  0  0  0  0  0
   39.4160   31.7410   40.1710 C   0  0  0  0  0  0  0  0  0  0  0  0
   36.9490   32.1670   41.1370 H   0  0  0  0  0  0  0  0  0  0  0  0
   36.1810   31.9470   39.4600 H   0  0  0  0  0  0  0  0  0  0  0  0
   36.5660   34.3100   39.9390 H   0  0  0  0  0  0  0  0  0  0  0  0
   37.7980   33.7770   38.6580 H   0  0  0  0  0  0  0  0  0  0  0  0
   38.0480   33.8300   41.5850 H   0  0  0  0  0  0  0  0  0  0  0  0
   40.3540   33.7010   39.8540 H   0  0  0  0  0  0  0  0  0  0  0  0
   40.1500   33.1990   41.5430 H   0  0  0  0  0  0  0  0  0  0  0  0
   40.2080   31.4910   39.4210 H   0  0  0  0  0  0  0  0  0  0  0  0
   39.5470   31.0700   41.0660 H   0  0  0  0  0  0  0  0  0  0  0  0
   36.6840   29.6790   37.3790 C   0  0  0  0  0  0  0  0  0  0  0  0
   37.8010   29.4580   38.1990 C   0  0  0  0  0  0  0  0  0  0  0  0
   38.8420   28.6610   37.7180 C   0  0  0  0  0  0  0  0  0  0  0  0
   38.7050   28.1380   36.4530 N   0  0  0  0  0  0  0  0  0  0  0  0
   37.6220   28.3630   35.6820 C   0  0  0  0  0  0  0  0  0  0  0  0
   36.5990   29.1380   36.1370 N   0  0  0  0  0  0  0  0  0  0  0  0
   35.8730   30.2950   37.7440 H   0  0  0  0  0  0  0  0  0  0  0  0
   39.7230   28.4440   38.2740 H   0  0  0  0  0  0  0  0  0  0  0  0
   37.6480   27.8850   34.7020 H   0  0  0  0  0  0  0  0  0  0  0  0
   38.8810   29.2740   40.3610 C   0  0  0  0  0  0  0  0  0  0  0  0
   39.5440   30.0020   40.8990 H   0  0  0  0  0  0  0  0  0  0  0  0
   39.4470   28.5450   39.7540 H   0  0  0  0  0  0  0  0  0  0  0  0
   38.1890   28.5080   41.4280 C   0  0  0  0  0  0  0  0  0  0  0  0
   38.0500   29.2040   42.6220 C   0  0  0  0  0  0  0  0  0  0  0  0
   38.4010   30.1980   42.7790 H   0  0  0  0  0  0  0  0  0  0  0  0
   37.4090   28.5440   43.6740 C   0  0  0  0  0  0  0  0  0  0  0  0
   37.2470   28.9930   44.6460 H   0  0  0  0  0  0  0  0  0  0  0  0
   36.9380   27.2490   43.5110 C   0  0  0  0  0  3  0  0  0  0  0  0
   37.1040   26.5970   42.2930 C   0  0  0  0  0  3  0  0  0  0  0  0
   37.7220   27.2330   41.2800 N   0  0  0  0  0  0  0  0  0  0  0  0
  1  3  1  0  0  0  0
  1  2  1  1  0  0  0
  1 27  1  0  0  0  0
  3  4  1  0  0  0  0
  3  8  1  0  0  0  0
  4  9  1  0  0  0  0
  5 11  1  0  0  0  0
  5  4  1  0  0  0  0
  5  6  1  0  0  0  0
  6 13  1  0  0  0  0
  7  6  1  0  0  0  0
  7 15  1  0  0  0  0
  8  7  1  0  0  0  0
  8 17  1  0  0  0  0
 10  4  1  0  0  0  0
 12  5  1  0  0  0  0
 14  7  1  0  0  0  0
 16  8  1  0  0  0  0
 18 24  1  0  0  0  0
 18 19  1  0  0  0  0
 19  1  1  0  0  0  0
 20 19  2  0  0  0  0
 20 25  1  0  0  0  0
 21 20  1  0  0  0  0
 22 23  1  0  0  0  0
 22 21  2  0  0  0  0
 23 18  2  0  0  0  0
 26 22  1  0  0  0  0
 27 28  1  0  0  0  0
 27 30  1  0  0  0  0
 29 27  1  0  0  0  0
 30 31  1  0  0  0  0
 31 32  1  0  0  0  0
 31 33  2  0  0  0  0
 33 34  1  0  0  0  0
 35 33  1  0  0  0  0
 36 35  2  0  0  0  0
 37 30  2  0  0  0  0
 37 36  1  0  0  0  0
M  END
>  <minimizedAffinity>
-4.79390669

$$$$

 OpenBabel03252502383D

 37 39  0  0  1  0  0  0  0  0999 V2000
   36.9460   29.7900   39.3110 C   0  0  1  0  0  0  0  0  0  0  0  0
   37.7430   29.0250   39.2580 H   0  0  0  0  0  0  0  0  0  0  0  0
   36.3310   29.8070   37.9990 N   0  0  0  0  0  0  0  0  0  0  0  0
   37.1990   29.3250   36.9760 C   0  0  0  0  0  0  0  0  0  0  0  0
   36.5450   29.7550   35.6600 C   0  0  0  0  0  0  0  0  0  0  0  0
   35.4110   28.8750   35.5560 N   0  0  0  0  0  0  0  0  0  0  0  0
   34.4670   28.9700   36.6220 C   0  0  0  0  0  0  0  0  0  0  0  0
   35.0210   29.2750   37.9770 C   0  0  0  0  0  0  0  0  0  0  0  0
   37.2780   28.2200   36.9800 H   0  0  0  0  0  0  0  0  0  0  0  0
   38.1640   29.8500   37.0780 H   0  0  0  0  0  0  0  0  0  0  0  0
   37.2410   29.4920   34.8460 H   0  0  0  0  0  0  0  0  0  0  0  0
   36.2280   30.8020   35.6820 H   0  0  0  0  0  0  0  0  0  0  0  0
   35.8170   27.8940   35.5910 H   0  0  0  0  0  0  0  0  0  0  0  0
   33.6920   29.7190   36.2870 H   0  0  0  0  0  0  0  0  0  0  0  0
   33.9120   28.0030   36.6760 H   0  0  0  0  0  0  0  0  0  0  0  0
   34.3450   30.0490   38.4210 H   0  0  0  0  0  0  0  0  0  0  0  0
   34.9950   28.3590   38.6300 H   0  0  0  0  0  0  0  0  0  0  0  0
   37.0320   32.2510   39.2480 C   0  0  0  0  0  0  0  0  0  0  0  0
   37.5020   31.0340   39.7660 C   0  0  0  0  0  0  0  0  0  0  0  0
   38.5190   31.0580   40.7230 C   0  0  0  0  0  0  0  0  0  0  0  0
   39.0010   32.2890   41.1010 N   0  0  0  0  0  0  0  0  0  0  0  0
   38.5360   33.4460   40.5900 C   0  0  0  0  0  0  0  0  0  0  0  0
   37.5440   33.4390   39.6570 N   0  0  0  0  0  0  0  0  0  0  0  0
   36.2440   32.2410   38.5060 H   0  0  0  0  0  0  0  0  0  0  0  0
   38.9320   30.1830   41.1660 H   0  0  0  0  0  0  0  0  0  0  0  0
   39.0100   34.3460   40.9820 H   0  0  0  0  0  0  0  0  0  0  0  0
   35.9240   29.2840   40.3310 C   0  0  0  0  0  0  0  0  0  0  0  0
   34.9610   29.0390   39.8090 H   0  0  0  0  0  0  0  0  0  0  0  0
   35.7920   30.0010   41.1610 H   0  0  0  0  0  0  0  0  0  0  0  0
   36.3840   28.0060   40.9300 C   0  0  0  0  0  0  0  0  0  0  0  0
   36.5210   28.0490   42.3130 C   0  0  0  0  0  0  0  0  0  0  0  0
   36.3190   28.9100   42.9080 H   0  0  0  0  0  0  0  0  0  0  0  0
   36.9520   26.8790   42.9470 C   0  0  0  0  0  0  0  0  0  0  0  0
   37.0910   26.8030   44.0180 H   0  0  0  0  0  0  0  0  0  0  0  0
   37.2250   25.7370   42.2090 C   0  0  0  0  0  3  0  0  0  0  0  0
   37.0720   25.7490   40.8260 C   0  0  0  0  0  3  0  0  0  0  0  0
   36.6570   26.8750   40.2150 N   0  0  0  0  0  0  0  0  0  0  0  0
  1  2  1  6  0  0  0
  1 19  1  0  0  0  0
  1 27  1  0  0  0  0
  3  1  1  0  0  0  0
  4  9  1  0  0  0  0
  4 10  1  0  0  0  0
  4  3  1  0  0  0  0
  5 12  1  0  0  0  0
  5  4  1  0  0  0  0
  6 13  1  0  0  0  0
  6  5  1  0  0  0  0
  6  7  1  0  0  0  0
  7 15  1  0  0  0  0
  7  8  1  0  0  0  0
  8  3  1  0  0  0  0
  8 16  1  0  0  0  0
  8 17  1  0  0  0  0
 11  5  1  0  0  0  0
 14  7  1  0  0  0  0
 18 23  2  0  0  0  0
 18 19  1  0  0  0  0
 19 20  2  0  0  0  0
 20 21  1  0  0  0  0
 20 25  1  0  0  0  0
 22 26  1  0  0  0  0
 22 21  2  0  0  0  0
 23 22  1  0  0  0  0
 24 18  1  0  0  0  0
 27 30  1  0  0  0  0
 27 29  1  0  0  0  0
 28 27  1  0  0  0  0
 30 31  1  0  0  0  0
 31 32  1  0  0  0  0
 31 33  2  0  0  0  0
 33 34  1  0  0  0  0
 35 33  1  0  0  0  0
 36 35  2  0  0  0  0
 37 36  1  0  0  0  0
 37 30  2  0  0  0  0
M  END
>  <minimizedAffinity>
-4.79000425

$$$$

 OpenBabel03252502383D

 37 39  0  0  1  0  0  0  0  0999 V2000
   39.2190   28.9570   41.4370 C   0  0  1  0  0  0  0  0  0  0  0  0
   39.3470   28.1320   40.7100 H   0  0  0  0  0  0  0  0  0  0  0  0
   38.2240   29.8370   40.8590 N   0  0  0  0  0  0  0  0  0  0  0  0
   37.1710   30.1530   41.7670 C   0  0  0  0  0  0  0  0  0  0  0  0
   36.0620   30.7550   40.9020 C   0  0  0  0  0  0  0  0  0  0  0  0
   36.5850   32.0520   40.5590 N   0  0  0  0  0  0  0  0  0  0  0  0
   37.8150   32.0400   39.8340 C   0  0  0  0  0  0  0  0  0  0  0  0
   38.7730   30.9410   40.1670 C   0  0  0  0  0  0  0  0  0  0  0  0
   37.4780   30.9080   42.5170 H   0  0  0  0  0  0  0  0  0  0  0  0
   36.8050   29.2060   42.2000 H   0  0  0  0  0  0  0  0  0  0  0  0
   35.1870   30.9160   41.5540 H   0  0  0  0  0  0  0  0  0  0  0  0
   35.8720   30.1600   40.0040 H   0  0  0  0  0  0  0  0  0  0  0  0
   36.7790   32.5280   41.4870 H   0  0  0  0  0  0  0  0  0  0  0  0
   37.5340   32.0600   38.7410 H   0  0  0  0  0  0  0  0  0  0  0  0
   38.3240   33.0190   40.0070 H   0  0  0  0  0  0  0  0  0  0  0  0
   39.1570   30.5580   39.1880 H   0  0  0  0  0  0  0  0  0  0  0  0
   39.6420   31.3410   40.7610 H   0  0  0  0  0  0  0  0  0  0  0  0
   40.6180   30.5160   42.7320 C   0  0  0  0  0  0  0  0  0  0  0  0
   40.4970   29.5470   41.7250 C   0  0  0  0  0  0  0  0  0  0  0  0
   41.6360   29.1740   41.0080 C   0  0  0  0  0  0  0  0  0  0  0  0
   42.8210   29.7900   41.3410 N   0  0  0  0  0  0  0  0  0  0  0  0
   42.9140   30.7200   42.3120 C   0  0  0  0  0  0  0  0  0  0  0  0
   41.8130   31.0920   43.0200 N   0  0  0  0  0  0  0  0  0  0  0  0
   39.7400   30.8100   43.2920 H   0  0  0  0  0  0  0  0  0  0  0  0
   41.6320   28.4480   40.2300 H   0  0  0  0  0  0  0  0  0  0  0  0
   43.9160   31.1220   42.4680 H   0  0  0  0  0  0  0  0  0  0  0  0
   38.6470   28.3300   42.7100 C   0  0  0  0  0  0  0  0  0  0  0  0
   37.6020   28.7030   42.8760 H   0  0  0  0  0  0  0  0  0  0  0  0
   39.3080   28.5030   43.5790 H   0  0  0  0  0  0  0  0  0  0  0  0
   38.5200   26.8600   42.5480 C   0  0  0  0  0  0  0  0  0  0  0  0
   37.2230   26.4310   42.2930 C   0  0  0  0  0  0  0  0  0  0  0  0
   36.3820   27.0810   42.2170 H   0  0  0  0  0  0  0  0  0  0  0  0
   37.0260   25.0560   42.1300 C   0  0  0  0  0  0  0  0  0  0  0  0
   36.0590   24.6150   41.9270 H   0  0  0  0  0  0  0  0  0  0  0  0
   38.0940   24.1760   42.2220 C   0  0  0  0  0  3  0  0  0  0  0  0
   39.3740   24.6580   42.4800 C   0  0  0  0  0  3  0  0  0  0  0  0
   39.5630   25.9820   42.6380 N   0  0  0  0  0  0  0  0  0  0  0  0
  1  2  1  6  0  0  0
  1 19  1  0  0  0  0
  1 27  1  0  0  0  0
  3  1  1  0  0  0  0
  3  4  1  0  0  0  0
  4 10  1  0  0  0  0
  4  9  1  0  0  0  0
  5 11  1  0  0  0  0
  5  4  1  0  0  0  0
  6  5  1  0  0  0  0
  6 13  1  0  0  0  0
  7 15  1  0  0  0  0
  7  8  1  0  0  0  0
  7  6  1  0  0  0  0
  8 17  1  0  0  0  0
  8  3  1  0  0  0  0
 12  5  1  0  0  0  0
 14  7  1  0  0  0  0
 16  8  1  0  0  0  0
 18 23  1  0  0  0  0
 18 24  1  0  0  0  0
 19 18  2  0  0  0  0
 20 21  2  0  0  0  0
 20 19  1  0  0  0  0
 21 22  1  0  0  0  0
 22 26  1  0  0  0  0
 22 23  2  0  0  0  0
 25 20  1  0  0  0  0
 27 28  1  0  0  0  0
 27 29  1  0  0  0  0
 30 37  1  0  0  0  0
 30 27  1  0  0  0  0
 31 30  2  0  0  0  0
 32 31  1  0  0  0  0
 33 35  2  0  0  0  0
 33 31  1  0  0  0  0
 34 33  1  0  0  0  0
 35 36  1  0  0  0  0
 36 37  2  0  0  0  0
M  END
>  <minimizedAffinity>
-4.63164616

$$$$

 OpenBabel03252502383D

 37 39  0  0  1  0  0  0  0  0999 V2000
   40.0640   30.7110   40.4790 C   0  0  1  0  0  0  0  0  0  0  0  0
   39.5240   29.7820   40.2200 H   0  0  0  0  0  0  0  0  0  0  0  0
   39.2300   31.7950   39.9980 N   0  0  0  0  0  0  0  0  0  0  0  0
   37.8700   31.4090   39.8180 C   0  0  0  0  0  0  0  0  0  0  0  0
   37.2440   32.5240   38.9780 C   0  0  0  0  0  0  0  0  0  0  0  0
   37.1440   33.6170   39.9100 N   0  0  0  0  0  0  0  0  0  0  0  0
   38.3830   34.0610   40.4610 C   0  0  0  0  0  0  0  0  0  0  0  0
   39.4250   33.0120   40.6890 C   0  0  0  0  0  0  0  0  0  0  0  0
   37.3220   31.3470   40.7790 H   0  0  0  0  0  0  0  0  0  0  0  0
   37.8600   30.4760   39.2290 H   0  0  0  0  0  0  0  0  0  0  0  0
   36.2160   32.2100   38.7280 H   0  0  0  0  0  0  0  0  0  0  0  0
   37.8700   32.7950   38.1220 H   0  0  0  0  0  0  0  0  0  0  0  0
   36.5640   33.2430   40.7160 H   0  0  0  0  0  0  0  0  0  0  0  0
   38.7410   34.8970   39.7930 H   0  0  0  0  0  0  0  0  0  0  0  0
   38.1640   34.5610   41.4360 H   0  0  0  0  0  0  0  0  0  0  0  0
   40.3880   33.4490   40.3240 H   0  0  0  0  0  0  0  0  0  0  0  0
   39.5270   32.7890   41.7870 H   0  0  0  0  0  0  0  0  0  0  0  0
   42.4980   30.9300   40.7780 C   0  0  0  0  0  0  0  0  0  0  0  0
   41.3980   30.6560   39.9510 C   0  0  0  0  0  0  0  0  0  0  0  0
   41.6270   30.3360   38.6110 C   0  0  0  0  0  0  0  0  0  0  0  0
   42.9340   30.3100   38.1820 N   0  0  0  0  0  0  0  0  0  0  0  0
   43.9760   30.5770   38.9940 C   0  0  0  0  0  0  0  0  0  0  0  0
   43.7690   30.8890   40.3030 N   0  0  0  0  0  0  0  0  0  0  0  0
   42.3300   31.1780   41.8180 H   0  0  0  0  0  0  0  0  0  0  0  0
   40.8510   30.1150   37.9170 H   0  0  0  0  0  0  0  0  0  0  0  0
   44.9550   30.5180   38.5190 H   0  0  0  0  0  0  0  0  0  0  0  0
   40.1200   30.7700   42.0070 C   0  0  0  0  0  0  0  0  0  0  0  0
   39.3930   31.5390   42.3810 H   0  0  0  0  0  0  0  0  0  0  0  0
   41.1500   30.9430   42.3670 H   0  0  0  0  0  0  0  0  0  0  0  0
   39.6660   29.4820   42.5890 C   0  0  0  0  0  0  0  0  0  0  0  0
   38.3190   29.4600   42.9270 C   0  0  0  0  0  0  0  0  0  0  0  0
   37.6540   30.2820   42.7880 H   0  0  0  0  0  0  0  0  0  0  0  0
   37.8190   28.2780   43.4820 C   0  0  0  0  0  0  0  0  0  0  0  0
   36.7860   28.1530   43.7800 H   0  0  0  0  0  0  0  0  0  0  0  0
   38.6510   27.1860   43.6790 C   0  0  0  0  0  3  0  0  0  0  0  0
   39.9950   27.2610   43.3230 C   0  0  0  0  0  3  0  0  0  0  0  0
   40.4750   28.4000   42.7890 N   0  0  0  0  0  0  0  0  0  0  0  0
  1  2  1  6  0  0  0
  1 27  1  0  0  0  0
  3  1  1  0  0  0  0
  3  8  1  0  0  0  0
  4  3  1  0  0  0  0
  4  9  1  0  0  0  0
  5  4  1  0  0  0  0
  5  6  1  0  0  0  0
  6  7  1  0  0  0  0
  6 13  1  0  0  0  0
  7  8  1  0  0  0  0
  7 15  1  0  0  0  0
  8 17  1  0  0  0  0
 10  4  1  0  0  0  0
 11  5  1  0  0  0  0
 12  5  1  0  0  0  0
 14  7  1  0  0  0  0
 16  8  1  0  0  0  0
 18 24  1  0  0  0  0
 19  1  1  0  0  0  0
 19 18  2  0  0  0  0
 20 19  1  0  0  0  0
 21 20  2  0  0  0  0
 21 22  1  0  0  0  0
 22 23  2  0  0  0  0
 23 18  1  0  0  0  0
 25 20  1  0  0  0  0
 26 22  1  0  0  0  0
 27 29  1  0  0  0  0
 27 28  1  0  0  0  0
 27 30  1  0  0  0  0
 30 37  2  0  0  0  0
 30 31  1  0  0  0  0
 31 33  2  0  0  0  0
 32 31  1  0  0  0  0
 33 35  1  0  0  0  0
 33 34  1  0  0  0  0
 36 35  2  0  0  0  0
 37 36  1  0  0  0  0
M  END
>  <minimizedAffinity>
-4.60869837

$$$$

 OpenBabel03252502383D

 37 39  0  0  1  0  0  0  0  0999 V2000
   37.4260   29.9830   40.4170 C   0  0  1  0  0  0  0  0  0  0  0  0
   36.3270   29.9020   40.5080 H   0  0  0  0  0  0  0  0  0  0  0  0
   37.9680   29.2090   41.5160 N   0  0  0  0  0  0  0  0  0  0  0  0
   36.9670   28.7800   42.4350 C   0  0  0  0  0  0  0  0  0  0  0  0
   37.7350   28.3240   43.6790 C   0  0  0  0  0  0  0  0  0  0  0  0
   38.3310   27.0830   43.2560 N   0  0  0  0  0  0  0  0  0  0  0  0
   39.2210   27.1830   42.1450 C   0  0  0  0  0  0  0  0  0  0  0  0
   38.8820   28.2100   41.1110 C   0  0  0  0  0  0  0  0  0  0  0  0
   36.3850   27.9200   42.0500 H   0  0  0  0  0  0  0  0  0  0  0  0
   36.3560   29.6590   42.7020 H   0  0  0  0  0  0  0  0  0  0  0  0
   36.9890   28.0820   44.4550 H   0  0  0  0  0  0  0  0  0  0  0  0
   38.5010   29.0450   43.9770 H   0  0  0  0  0  0  0  0  0  0  0  0
   37.5180   26.4750   42.9460 H   0  0  0  0  0  0  0  0  0  0  0  0
   40.2520   27.3250   42.5820 H   0  0  0  0  0  0  0  0  0  0  0  0
   39.2650   26.1830   41.6510 H   0  0  0  0  0  0  0  0  0  0  0  0
   39.8430   28.7250   40.8600 H   0  0  0  0  0  0  0  0  0  0  0  0
   38.4870   27.7170   40.1800 H   0  0  0  0  0  0  0  0  0  0  0  0
   37.0220   32.2930   39.6640 C   0  0  0  0  0  0  0  0  0  0  0  0
   37.8050   31.3680   40.3700 C   0  0  0  0  0  0  0  0  0  0  0  0
   38.9580   31.8180   41.0180 C   0  0  0  0  0  0  0  0  0  0  0  0
   39.2550   33.1570   40.9220 N   0  0  0  0  0  0  0  0  0  0  0  0
   38.4880   34.0290   40.2370 C   0  0  0  0  0  0  0  0  0  0  0  0
   37.3610   33.6060   39.6010 N   0  0  0  0  0  0  0  0  0  0  0  0
   36.1270   31.9530   39.1590 H   0  0  0  0  0  0  0  0  0  0  0  0
   39.6070   31.1840   41.5750 H   0  0  0  0  0  0  0  0  0  0  0  0
   38.8440   35.0600   40.2450 H   0  0  0  0  0  0  0  0  0  0  0  0
   37.8050   29.3050   39.0980 C   0  0  0  0  0  0  0  0  0  0  0  0
   38.1500   28.2560   39.3000 H   0  0  0  0  0  0  0  0  0  0  0  0
   38.5470   29.9000   38.5360 H   0  0  0  0  0  0  0  0  0  0  0  0
   36.6100   29.1670   38.2280 C   0  0  0  0  0  0  0  0  0  0  0  0
   35.4490   28.8340   38.9150 C   0  0  0  0  0  0  0  0  0  0  0  0
   35.3980   28.6870   39.9700 H   0  0  0  0  0  0  0  0  0  0  0  0
   34.2810   28.6860   38.1600 C   0  0  0  0  0  0  0  0  0  0  0  0
   33.3230   28.4290   38.5930 H   0  0  0  0  0  0  0  0  0  0  0  0
   34.3040   28.8680   36.7850 C   0  0  0  0  0  3  0  0  0  0  0  0
   35.4950   29.2010   36.1460 C   0  0  0  0  0  3  0  0  0  0  0  0
   36.6190   29.3430   36.8740 N   0  0  0  0  0  0  0  0  0  0  0  0
  1  2  1  1  0  0  0
  1  3  1  0  0  0  0
  3  4  1  0  0  0  0
  4 10  1  0  0  0  0
  4  5  1  0  0  0  0
  5 12  1  0  0  0  0
  5 11  1  0  0  0  0
  6  5  1  0  0  0  0
  7 14  1  0  0  0  0
  7  6  1  0  0  0  0
  8  3  1  0  0  0  0
  8  7  1  0  0  0  0
  9  4  1  0  0  0  0
 13  6  1  0  0  0  0
 15  7  1  0  0  0  0
 16  8  1  0  0  0  0
 17  8  1  0  0  0  0
 18 19  1  0  0  0  0
 19  1  1  0  0  0  0
 19 20  2  0  0  0  0
 20 25  1  0  0  0  0
 21 20  1  0  0  0  0
 22 26  1  0  0  0  0
 22 21  2  0  0  0  0
 23 18  2  0  0  0  0
 23 22  1  0  0  0  0
 24 18  1  0  0  0  0
 27 28  1  0  0  0  0
 27  1  1  0  0  0  0
 29 27  1  0  0  0  0
 30 31  1  0  0  0  0
 30 27  1  0  0  0  0
 31 32  1  0  0  0  0
 33 34  1  0  0  0  0
 33 31  2  0  0  0  0
 35 33  1  0  0  0  0
 36 35  2  0  0  0  0
 36 37  1  0  0  0  0
 37 30  2  0  0  0  0
M  END
>  <minimizedAffinity>
-4.58183765

$$$$

 OpenBabel03252502383D

 37 39  0  0  1  0  0  0  0  0999 V2000
   36.3530   29.2310   39.2160 C   0  0  1  0  0  0  0  0  0  0  0  0
   35.8720   29.4410   40.1890 H   0  0  0  0  0  0  0  0  0  0  0  0
   36.8840   30.5000   38.7590 N   0  0  0  0  0  0  0  0  0  0  0  0
   37.0090   31.4560   39.8090 C   0  0  0  0  0  0  0  0  0  0  0  0
   37.2140   32.8000   39.1050 C   0  0  0  0  0  0  0  0  0  0  0  0
   38.5590   32.7030   38.6010 N   0  0  0  0  0  0  0  0  0  0  0  0
   38.7890   31.6330   37.6850 C   0  0  0  0  0  0  0  0  0  0  0  0
   38.0140   30.3760   37.9200 C   0  0  0  0  0  0  0  0  0  0  0  0
   37.8910   31.2610   40.4500 H   0  0  0  0  0  0  0  0  0  0  0  0
   36.0500   31.4870   40.3540 H   0  0  0  0  0  0  0  0  0  0  0  0
   37.2100   33.5820   39.8830 H   0  0  0  0  0  0  0  0  0  0  0  0
   36.5000   32.9500   38.2900 H   0  0  0  0  0  0  0  0  0  0  0  0
   39.1620   32.5130   39.4540 H   0  0  0  0  0  0  0  0  0  0  0  0
   38.6240   32.0640   36.6540 H   0  0  0  0  0  0  0  0  0  0  0  0
   39.8780   31.3890   37.7110 H   0  0  0  0  0  0  0  0  0  0  0  0
   37.6440   30.0480   36.9160 H   0  0  0  0  0  0  0  0  0  0  0  0
   38.6830   29.5720   38.3350 H   0  0  0  0  0  0  0  0  0  0  0  0
   34.1390   29.1380   38.1430 C   0  0  0  0  0  0  0  0  0  0  0  0
   35.4130   28.5860   38.3420 C   0  0  0  0  0  0  0  0  0  0  0  0
   35.7450   27.4010   37.6820 C   0  0  0  0  0  0  0  0  0  0  0  0
   34.7870   26.8430   36.8660 N   0  0  0  0  0  0  0  0  0  0  0  0
   33.5680   27.3900   36.6900 C   0  0  0  0  0  0  0  0  0  0  0  0
   33.2310   28.5450   37.3260 N   0  0  0  0  0  0  0  0  0  0  0  0
   33.8740   30.0560   38.6510 H   0  0  0  0  0  0  0  0  0  0  0  0
   36.6880   26.9170   37.7770 H   0  0  0  0  0  0  0  0  0  0  0  0
   32.9110   26.8400   36.0160 H   0  0  0  0  0  0  0  0  0  0  0  0
   37.5190   28.2810   39.5030 C   0  0  0  0  0  0  0  0  0  0  0  0
   38.4700   28.7210   39.1010 H   0  0  0  0  0  0  0  0  0  0  0  0
   37.3180   27.2660   39.1160 H   0  0  0  0  0  0  0  0  0  0  0  0
   37.7310   28.1550   40.9670 C   0  0  0  0  0  0  0  0  0  0  0  0
   36.6350   27.6460   41.6530 C   0  0  0  0  0  0  0  0  0  0  0  0
   35.7160   27.3670   41.1910 H   0  0  0  0  0  0  0  0  0  0  0  0
   36.7620   27.5000   43.0380 C   0  0  0  0  0  0  0  0  0  0  0  0
   35.9710   27.1130   43.6690 H   0  0  0  0  0  0  0  0  0  0  0  0
   37.9400   27.8520   43.6790 C   0  0  0  0  0  3  0  0  0  0  0  0
   39.0080   28.3580   42.9430 C   0  0  0  0  0  3  0  0  0  0  0  0
   38.8850   28.4990   41.6100 N   0  0  0  0  0  0  0  0  0  0  0  0
  1 27  1  0  0  0  0
  1  2  1  1  0  0  0
  3  1  1  0  0  0  0
  3  4  1  0  0  0  0
  4 10  1  0  0  0  0
  4  9  1  0  0  0  0
  5  4  1  0  0  0  0
  5 11  1  0  0  0  0
  6  5  1  0  0  0  0
  6 13  1  0  0  0  0
  7 15  1  0  0  0  0
  7  8  1  0  0  0  0
  7  6  1  0  0  0  0
  8 17  1  0  0  0  0
  8  3  1  0  0  0  0
 12  5  1  0  0  0  0
 14  7  1  0  0  0  0
 16  8  1  0  0  0  0
 18 19  1  0  0  0  0
 18 24  1  0  0  0  0
 19  1  1  0  0  0  0
 20 25  1  0  0  0  0
 20 19  2  0  0  0  0
 21 20  1  0  0  0  0
 22 21  2  0  0  0  0
 22 23  1  0  0  0  0
 23 18  2  0  0  0  0
 26 22  1  0  0  0  0
 27 30  1  0  0  0  0
 28 27  1  0  0  0  0
 29 27  1  0  0  0  0
 30 37  2  0  0  0  0
 30 31  1  0  0  0  0
 31 33  2  0  0  0  0
 32 31  1  0  0  0  0
 33 34  1  0  0  0  0
 33 35  1  0  0  0  0
 36 35  2  0  0  0  0
 37 36  1  0  0  0  0
M  END
>  <minimizedAffinity>
-4.48425102

$$$$

 OpenBabel03252502383D

 37 39  0  0  1  0  0  0  0  0999 V2000
   40.1890   30.6750   41.3590 C   0  0  1  0  0  0  0  0  0  0  0  0
   40.1890   29.6500   40.9430 H   0  0  0  0  0  0  0  0  0  0  0  0
   39.5580   31.5050   40.3510 N   0  0  0  0  0  0  0  0  0  0  0  0
   38.9220   30.7440   39.3270 C   0  0  0  0  0  0  0  0  0  0  0  0
   38.6530   31.7400   38.1960 C   0  0  0  0  0  0  0  0  0  0  0  0
   37.5740   32.5390   38.7170 N   0  0  0  0  0  0  0  0  0  0  0  0
   37.8650   33.2420   39.9240 C   0  0  0  0  0  0  0  0  0  0  0  0
   38.7850   32.5610   40.8860 C   0  0  0  0  0  0  0  0  0  0  0  0
   37.9520   30.3240   39.6600 H   0  0  0  0  0  0  0  0  0  0  0  0
   39.6440   29.9910   38.9690 H   0  0  0  0  0  0  0  0  0  0  0  0
   38.2550   31.1670   37.3420 H   0  0  0  0  0  0  0  0  0  0  0  0
   39.5280   32.3590   37.9770 H   0  0  0  0  0  0  0  0  0  0  0  0
   36.7990   31.8490   38.9400 H   0  0  0  0  0  0  0  0  0  0  0  0
   38.2330   34.2620   39.6120 H   0  0  0  0  0  0  0  0  0  0  0  0
   36.8970   33.4450   40.4440 H   0  0  0  0  0  0  0  0  0  0  0  0
   39.5000   33.3460   41.2390 H   0  0  0  0  0  0  0  0  0  0  0  0
   38.2130   32.1730   41.7740 H   0  0  0  0  0  0  0  0  0  0  0  0
   41.8950   31.0710   43.0900 C   0  0  0  0  0  0  0  0  0  0  0  0
   41.5240   31.0420   41.7370 C   0  0  0  0  0  0  0  0  0  0  0  0
   42.4750   31.3810   40.7710 C   0  0  0  0  0  0  0  0  0  0  0  0
   43.7310   31.7250   41.2150 N   0  0  0  0  0  0  0  0  0  0  0  0
   44.0650   31.7470   42.5210 C   0  0  0  0  0  0  0  0  0  0  0  0
   43.1490   31.4190   43.4730 N   0  0  0  0  0  0  0  0  0  0  0  0
   41.1640   30.8100   43.8440 H   0  0  0  0  0  0  0  0  0  0  0  0
   42.2780   31.3840   39.7250 H   0  0  0  0  0  0  0  0  0  0  0  0
   45.0950   32.0400   42.7270 H   0  0  0  0  0  0  0  0  0  0  0  0
   39.2970   30.6410   42.6020 C   0  0  0  0  0  0  0  0  0  0  0  0
   38.4820   31.4060   42.5010 H   0  0  0  0  0  0  0  0  0  0  0  0
   39.8880   30.7620   43.5270 H   0  0  0  0  0  0  0  0  0  0  0  0
   38.6000   29.3340   42.7000 C   0  0  0  0  0  0  0  0  0  0  0  0
   39.4410   28.2660   42.9870 C   0  0  0  0  0  0  0  0  0  0  0  0
   40.4940   28.3550   43.1280 H   0  0  0  0  0  0  0  0  0  0  0  0
   38.8540   27.0020   43.0940 C   0  0  0  0  0  0  0  0  0  0  0  0
   39.4160   26.1030   43.3140 H   0  0  0  0  0  0  0  0  0  0  0  0
   37.4870   26.8430   42.9170 C   0  0  0  0  0  3  0  0  0  0  0  0
   36.6890   27.9460   42.6300 C   0  0  0  0  0  3  0  0  0  0  0  0
   37.2560   29.1630   42.5270 N   0  0  0  0  0  0  0  0  0  0  0  0
  1  2  1  6  0  0  0
  1 19  1  0  0  0  0
  1 27  1  0  0  0  0
  3  8  1  0  0  0  0
  3  1  1  0  0  0  0
  4  9  1  0  0  0  0
  4  3  1  0  0  0  0
  5  6  1  0  0  0  0
  5  4  1  0  0  0  0
  6 13  1  0  0  0  0
  6  7  1  0  0  0  0
  7 15  1  0  0  0  0
  7  8  1  0  0  0  0
  8 16  1  0  0  0  0
  8 17  1  0  0  0  0
 10  4  1  0  0  0  0
 11  5  1  0  0  0  0
 12  5  1  0  0  0  0
 14  7  1  0  0  0  0
 18 23  1  0  0  0  0
 18 24  1  0  0  0  0
 19 18  2  0  0  0  0
 20 21  2  0  0  0  0
 20 19  1  0  0  0  0
 21 22  1  0  0  0  0
 22 26  1  0  0  0  0
 22 23  2  0  0  0  0
 25 20  1  0  0  0  0
 27 30  1  0  0  0  0
 27 29  1  0  0  0  0
 28 27  1  0  0  0  0
 30 31  1  0  0  0  0
 31 33  2  0  0  0  0
 31 32  1  0  0  0  0
 33 34  1  0  0  0  0
 35 33  1  0  0  0  0
 36 35  2  0  0  0  0
 37 36  1  0  0  0  0
 37 30  2  0  0  0  0
M  END
>  <minimizedAffinity>
-4.42573738

$$$$
