
 OpenBabel03252509293D

 20 21  0  0  0  0  0  0  0  0999 V2000
   44.9810   33.9340   41.9620 C   0  0  0  0  0  0  0  0  0  0  0  0
   45.2960   34.7110   42.6750 H   0  0  0  0  0  0  0  0  0  0  0  0
   44.9910   32.9220   42.4510 H   0  0  0  0  0  0  0  0  0  0  0  0
   48.0550   34.4760   39.9370 C   0  0  0  0  0  0  0  0  0  0  0  0
   47.1520   34.5220   41.0140 C   0  0  0  0  0  0  0  0  0  0  0  0
   45.9280   33.8940   40.8520 C   0  0  0  0  0  0  0  0  0  0  0  0
   45.6520   33.2640   39.6610 N   0  0  0  0  0  0  0  0  0  0  0  0
   46.5710   33.2550   38.6520 C   0  0  0  0  0  0  0  0  0  0  0  0
   47.7580   33.8540   38.7880 N   0  0  0  0  0  0  0  0  0  0  0  0
   49.0020   34.9810   40.1100 H   0  0  0  0  0  0  0  0  0  0  0  0
   47.3990   35.0250   41.9400 H   0  0  0  0  0  0  0  0  0  0  0  0
   46.2150   32.7230   37.7770 H   0  0  0  0  0  0  0  0  0  0  0  0
   43.5890   34.2190   41.5570 C   0  0  0  0  0  0  0  0  0  0  0  0
   43.0590   35.4540   41.2470 C   0  0  0  0  0  0  0  0  0  0  0  0
   43.7610   36.2980   41.3130 H   0  0  0  0  0  0  0  0  0  0  0  0
   41.7450   35.6280   40.8780 C   0  0  0  0  0  0  0  0  0  0  0  0
   41.4120   36.6480   40.6490 H   0  0  0  0  0  0  0  0  0  0  0  0
   40.8760   34.5530   40.8010 C   0  0  0  0  0  3  0  0  0  0  0  0
   41.4360   33.3270   41.1190 C   0  0  0  0  0  3  0  0  0  0  0  0
   42.7190   33.1850   41.4750 N   0  0  0  0  0  0  0  0  0  0  0  0
  1  3  1  0  0  0  0
  1  2  1  0  0  0  0
  4 10  1  0  0  0  0
  4  5  1  0  0  0  0
  5 11  1  0  0  0  0
  6  5  2  0  0  0  0
  6  1  1  0  0  0  0
  7  6  1  0  0  0  0
  8  9  1  0  0  0  0
  8  7  2  0  0  0  0
  9  4  2  0  0  0  0
 12  8  1  0  0  0  0
 13  1  1  0  0  0  0
 14 15  1  0  0  0  0
 14 13  2  0  0  0  0
 16 14  1  0  0  0  0
 17 16  1  0  0  0  0
 18 16  2  0  0  0  0
 18 19  1  0  0  0  0
 19 20  2  0  0  0  0
 20 13  1  0  0  0  0
M  END
>  <minimizedAffinity>
-3.35633254

>  <minimizedRMSD>
6.50718927

$$$$
