
 OpenBabel03242519303D

 42 45  0  0  0  0  0  0  0  0999 V2000
   36.7800   28.1710   41.7180 C   0  0  0  0  0  0  0  0  0  0  0  0
   37.1540   29.4740   42.1630 C   0  0  0  0  0  0  0  0  0  0  0  0
   36.7750   30.6070   41.4300 C   0  0  0  0  0  0  0  0  0  0  0  0
   36.0430   30.3750   40.2880 N   0  0  0  0  0  0  0  0  0  0  0  0
   35.7010   29.0960   39.8930 C   0  0  0  0  0  0  0  0  0  0  0  0
   36.0690   28.0380   40.6010 N   0  0  0  0  0  0  0  0  0  0  0  0
   37.7270   29.7130   43.0480 H   0  0  0  0  0  0  0  0  0  0  0  0
   37.0330   31.5920   41.7260 H   0  0  0  0  0  0  0  0  0  0  0  0
   37.2410   27.0710   42.5720 C   0  0  0  0  0  0  0  0  0  0  0  0
   38.0880   27.4820   43.6770 C   0  0  0  0  0  0  0  0  0  0  0  0
   39.4870   27.0340   43.6000 C   0  0  0  0  0  0  0  0  0  0  0  0
   39.5910   25.5230   43.3930 C   0  0  0  0  0  0  0  0  0  0  0  0
   38.5740   24.9630   42.4640 C   0  0  0  0  0  0  0  0  0  0  0  0
   37.9310   26.0620   41.6150 C   0  0  0  0  0  0  0  0  0  0  0  0
   36.3390   26.5090   42.9270 H   0  0  0  0  0  0  0  0  0  0  0  0
   38.0970   28.6000   43.7370 H   0  0  0  0  0  0  0  0  0  0  0  0
   37.6740   27.1510   44.6670 H   0  0  0  0  0  0  0  0  0  0  0  0
   39.9490   27.2130   44.6160 H   0  0  0  0  0  0  0  0  0  0  0  0
   40.1530   27.5280   42.8970 H   0  0  0  0  0  0  0  0  0  0  0  0
   40.6290   25.2710   43.1020 H   0  0  0  0  0  0  0  0  0  0  0  0
   39.4290   25.0320   44.3810 H   0  0  0  0  0  0  0  0  0  0  0  0
   38.9610   24.2140   41.7450 H   0  0  0  0  0  0  0  0  0  0  0  0
   37.7160   24.4910   43.0130 H   0  0  0  0  0  0  0  0  0  0  0  0
   38.7640   26.5550   41.0880 H   0  0  0  0  0  0  0  0  0  0  0  0
   37.1730   25.6340   40.9550 H   0  0  0  0  0  0  0  0  0  0  0  0
   34.9280   29.0370   38.6580 C   0  0  0  0  0  0  0  0  0  0  0  0
   35.5860   29.1810   37.4880 N   0  0  0  0  0  0  0  0  0  0  0  0
   34.7110   29.0970   36.4700 C   0  0  0  0  0  0  0  0  0  0  0  0
   33.4830   28.8970   37.0220 N   0  0  0  0  0  0  0  0  0  0  0  0
   33.6110   28.8590   38.3590 N   0  0  0  0  0  0  0  0  0  0  0  0
   34.8830   29.1670   35.4030 H   0  0  0  0  0  0  0  0  0  0  0  0
   32.1850   28.7370   36.3630 C   0  0  0  0  0  0  0  0  0  0  0  0
   31.5980   28.0300   37.0150 H   0  0  0  0  0  0  0  0  0  0  0  0
   32.3620   28.1750   35.4280 H   0  0  0  0  0  0  0  0  0  0  0  0
   31.4960   30.0260   36.1910 C   0  0  0  0  0  0  0  0  0  0  0  0
   31.6030   30.6510   34.9520 C   0  0  0  0  0  0  0  0  0  0  0  0
   32.1710   30.2120   34.1420 H   0  0  0  0  0  0  0  0  0  0  0  0
   30.9520   31.8580   34.8090 C   0  0  0  0  0  0  0  0  0  0  0  0
   31.0400   32.3440   33.8310 H   0  0  0  0  0  0  0  0  0  0  0  0
   30.2090   32.4740   35.8110 C   0  0  0  0  0  3  0  0  0  0  0  0
   30.1440   31.7890   37.0290 C   0  0  0  0  0  3  0  0  0  0  0  0
   30.7860   30.5970   37.1760 N   0  0  0  0  0  0  0  0  0  0  0  0
  1  2  1  0  0  0  0
  1  9  1  0  0  0  0
  2  7  1  0  0  0  0
  3  8  1  0  0  0  0
  3  2  2  0  0  0  0
  4  3  1  0  0  0  0
  5  4  2  0  0  0  0
  5  6  1  0  0  0  0
  6  1  2  0  0  0  0
  9 15  1  0  0  0  0
  9 10  1  0  0  0  0
 10 16  1  0  0  0  0
 10 17  1  0  0  0  0
 11 10  1  0  0  0  0
 11 18  1  0  0  0  0
 12 11  1  0  0  0  0
 12 21  1  0  0  0  0
 13 23  1  0  0  0  0
 13 12  1  0  0  0  0
 14 13  1  0  0  0  0
 14  9  1  0  0  0  0
 19 11  1  0  0  0  0
 20 12  1  0  0  0  0
 22 13  1  0  0  0  0
 24 14  1  0  0  0  0
 25 14  1  0  0  0  0
 26  5  1  0  0  0  0
 27 26  1  0  0  0  0
 28 29  1  0  0  0  0
 28 27  2  0  0  0  0
 29 30  1  0  0  0  0
 30 26  2  0  0  0  0
 31 28  1  0  0  0  0
 32 33  1  0  0  0  0
 32 29  1  0  0  0  0
 34 32  1  0  0  0  0
 35 32  1  0  0  0  0
 35 42  1  0  0  0  0
 36 35  2  0  0  0  0
 37 36  1  0  0  0  0
 38 36  1  0  0  0  0
 38 40  2  0  0  0  0
 39 38  1  0  0  0  0
 40 41  1  0  0  0  0
 41 42  2  0  0  0  0
M  END
>  <minimizedAffinity>
-6.16992521

$$$$

 OpenBabel03242519303D

 42 45  0  0  0  0  0  0  0  0999 V2000
   37.1420   28.9820   41.7840 C   0  0  0  0  0  0  0  0  0  0  0  0
   35.9330   28.7770   41.0540 C   0  0  0  0  0  0  0  0  0  0  0  0
   35.4500   29.7740   40.1930 C   0  0  0  0  0  0  0  0  0  0  0  0
   36.2020   30.9220   40.1120 N   0  0  0  0  0  0  0  0  0  0  0  0
   37.3670   31.0800   40.8370 C   0  0  0  0  0  0  0  0  0  0  0  0
   37.8070   30.1260   41.6440 N   0  0  0  0  0  0  0  0  0  0  0  0
   35.3050   27.8980   41.0790 H   0  0  0  0  0  0  0  0  0  0  0  0
   34.5570   29.6610   39.6330 H   0  0  0  0  0  0  0  0  0  0  0  0
   37.5360   27.8650   42.6500 C   0  0  0  0  0  0  0  0  0  0  0  0
   38.8200   28.0350   43.3040 C   0  0  0  0  0  0  0  0  0  0  0  0
   39.8780   27.1110   42.8680 C   0  0  0  0  0  0  0  0  0  0  0  0
   39.4320   25.6510   42.9600 C   0  0  0  0  0  0  0  0  0  0  0  0
   38.0210   25.4180   42.5540 C   0  0  0  0  0  0  0  0  0  0  0  0
   37.4700   26.5990   41.7520 C   0  0  0  0  0  0  0  0  0  0  0  0
   36.7120   27.6960   43.3890 H   0  0  0  0  0  0  0  0  0  0  0  0
   39.1900   29.0770   43.1230 H   0  0  0  0  0  0  0  0  0  0  0  0
   38.7340   27.9590   44.4210 H   0  0  0  0  0  0  0  0  0  0  0  0
   40.7220   27.1960   43.6160 H   0  0  0  0  0  0  0  0  0  0  0  0
   40.3430   27.2720   41.9000 H   0  0  0  0  0  0  0  0  0  0  0  0
   40.1530   25.0210   42.4040 H   0  0  0  0  0  0  0  0  0  0  0  0
   39.5170   25.3360   44.0250 H   0  0  0  0  0  0  0  0  0  0  0  0
   37.8590   24.5230   41.9220 H   0  0  0  0  0  0  0  0  0  0  0  0
   37.3360   25.3330   43.4400 H   0  0  0  0  0  0  0  0  0  0  0  0
   38.1480   26.7150   40.8910 H   0  0  0  0  0  0  0  0  0  0  0  0
   36.4260   26.4180   41.4820 H   0  0  0  0  0  0  0  0  0  0  0  0
   38.0330   32.3620   40.6320 C   0  0  0  0  0  0  0  0  0  0  0  0
   37.3810   33.3120   39.9300 N   0  0  0  0  0  0  0  0  0  0  0  0
   38.1490   34.4130   39.8480 C   0  0  0  0  0  0  0  0  0  0  0  0
   39.3030   34.1380   40.5140 N   0  0  0  0  0  0  0  0  0  0  0  0
   39.2370   32.8860   40.9950 N   0  0  0  0  0  0  0  0  0  0  0  0
   37.9480   35.3610   39.3640 H   0  0  0  0  0  0  0  0  0  0  0  0
   40.4760   34.9890   40.7280 C   0  0  0  0  0  0  0  0  0  0  0  0
   40.7340   34.8830   41.8200 H   0  0  0  0  0  0  0  0  0  0  0  0
   40.1410   36.0370   40.6190 H   0  0  0  0  0  0  0  0  0  0  0  0
   41.5980   34.6030   39.8590 C   0  0  0  0  0  0  0  0  0  0  0  0
   42.7510   34.1210   40.4730 C   0  0  0  0  0  0  0  0  0  0  0  0
   42.8250   34.0310   41.5490 H   0  0  0  0  0  0  0  0  0  0  0  0
   43.7930   33.7640   39.6430 C   0  0  0  0  0  0  0  0  0  0  0  0
   44.6960   33.3850   40.1340 H   0  0  0  0  0  0  0  0  0  0  0  0
   43.7590   33.8560   38.2550 C   0  0  0  0  0  3  0  0  0  0  0  0
   42.5700   34.3480   37.7070 C   0  0  0  0  0  3  0  0  0  0  0  0
   41.5380   34.7030   38.5220 N   0  0  0  0  0  0  0  0  0  0  0  0
  1  9  1  0  0  0  0
  2  7  1  0  0  0  0
  2  1  2  0  0  0  0
  3  2  1  0  0  0  0
  4  3  2  0  0  0  0
  4  5  1  0  0  0  0
  5  6  2  0  0  0  0
  6  1  1  0  0  0  0
  8  3  1  0  0  0  0
  9 10  1  0  0  0  0
  9 15  1  0  0  0  0
 10 17  1  0  0  0  0
 11 12  1  0  0  0  0
 11 10  1  0  0  0  0
 11 18  1  0  0  0  0
 12 21  1  0  0  0  0
 13 12  1  0  0  0  0
 13 23  1  0  0  0  0
 14 13  1  0  0  0  0
 14  9  1  0  0  0  0
 16 10  1  0  0  0  0
 19 11  1  0  0  0  0
 20 12  1  0  0  0  0
 22 13  1  0  0  0  0
 24 14  1  0  0  0  0
 25 14  1  0  0  0  0
 26  5  1  0  0  0  0
 26 30  2  0  0  0  0
 27 26  1  0  0  0  0
 28 27  2  0  0  0  0
 28 29  1  0  0  0  0
 29 32  1  0  0  0  0
 29 30  1  0  0  0  0
 31 28  1  0  0  0  0
 32 33  1  0  0  0  0
 34 32  1  0  0  0  0
 35 36  1  0  0  0  0
 35 32  1  0  0  0  0
 36 37  1  0  0  0  0
 38 39  1  0  0  0  0
 38 36  2  0  0  0  0
 40 38  1  0  0  0  0
 41 40  2  0  0  0  0
 41 42  1  0  0  0  0
 42 35  2  0  0  0  0
M  END
>  <minimizedAffinity>
-6.10033798

$$$$

 OpenBabel03242519303D

 42 45  0  0  0  0  0  0  0  0999 V2000
   37.7720   27.0190   41.4880 C   0  0  0  0  0  0  0  0  0  0  0  0
   37.5460   26.8780   42.8900 C   0  0  0  0  0  0  0  0  0  0  0  0
   37.4870   28.0120   43.7130 C   0  0  0  0  0  0  0  0  0  0  0  0
   37.6600   29.2250   43.0890 N   0  0  0  0  0  0  0  0  0  0  0  0
   37.8780   29.3170   41.7280 C   0  0  0  0  0  0  0  0  0  0  0  0
   37.9290   28.2340   40.9670 N   0  0  0  0  0  0  0  0  0  0  0  0
   37.4030   25.9530   43.4300 H   0  0  0  0  0  0  0  0  0  0  0  0
   37.3200   27.9510   44.7580 H   0  0  0  0  0  0  0  0  0  0  0  0
   37.8150   25.7580   40.7400 C   0  0  0  0  0  0  0  0  0  0  0  0
   37.4250   25.8700   39.3470 C   0  0  0  0  0  0  0  0  0  0  0  0
   36.1700   25.1930   38.9860 C   0  0  0  0  0  0  0  0  0  0  0  0
   36.1720   23.7240   39.4130 C   0  0  0  0  0  0  0  0  0  0  0  0
   36.8040   23.4740   40.7350 C   0  0  0  0  0  0  0  0  0  0  0  0
   36.9290   24.7670   41.5450 C   0  0  0  0  0  0  0  0  0  0  0  0
   38.8420   25.3260   40.8500 H   0  0  0  0  0  0  0  0  0  0  0  0
   37.3080   26.9530   39.0840 H   0  0  0  0  0  0  0  0  0  0  0  0
   38.2280   25.4990   38.6560 H   0  0  0  0  0  0  0  0  0  0  0  0
   36.1240   25.1590   37.8570 H   0  0  0  0  0  0  0  0  0  0  0  0
   35.2290   25.6420   39.2920 H   0  0  0  0  0  0  0  0  0  0  0  0
   35.1400   23.3290   39.3430 H   0  0  0  0  0  0  0  0  0  0  0  0
   36.7630   23.1520   38.6610 H   0  0  0  0  0  0  0  0  0  0  0  0
   36.2580   22.7630   41.3860 H   0  0  0  0  0  0  0  0  0  0  0  0
   37.8570   23.1000   40.6350 H   0  0  0  0  0  0  0  0  0  0  0  0
   35.9050   25.1650   41.6300 H   0  0  0  0  0  0  0  0  0  0  0  0
   37.4140   24.5660   42.5040 H   0  0  0  0  0  0  0  0  0  0  0  0
   38.0450   30.6810   41.2370 C   0  0  0  0  0  0  0  0  0  0  0  0
   37.0280   31.2360   40.5440 N   0  0  0  0  0  0  0  0  0  0  0  0
   37.3670   32.4850   40.1790 C   0  0  0  0  0  0  0  0  0  0  0  0
   38.6210   32.7090   40.6570 N   0  0  0  0  0  0  0  0  0  0  0  0
   39.0390   31.6090   41.3050 N   0  0  0  0  0  0  0  0  0  0  0  0
   36.8010   33.2180   39.6170 H   0  0  0  0  0  0  0  0  0  0  0  0
   39.4580   33.9050   40.5410 C   0  0  0  0  0  0  0  0  0  0  0  0
   39.9780   34.0100   41.5350 H   0  0  0  0  0  0  0  0  0  0  0  0
   38.7770   34.7740   40.4870 H   0  0  0  0  0  0  0  0  0  0  0  0
   40.4150   33.7970   39.4290 C   0  0  0  0  0  0  0  0  0  0  0  0
   41.3570   34.8140   39.2910 C   0  0  0  0  0  0  0  0  0  0  0  0
   41.3890   35.6540   39.9720 H   0  0  0  0  0  0  0  0  0  0  0  0
   42.2460   34.6970   38.2430 C   0  0  0  0  0  0  0  0  0  0  0  0
   42.9840   35.5000   38.1400 H   0  0  0  0  0  0  0  0  0  0  0  0
   42.2550   33.6430   37.3350 C   0  0  0  0  0  3  0  0  0  0  0  0
   41.2830   32.6580   37.5340 C   0  0  0  0  0  3  0  0  0  0  0  0
   40.4020   32.7690   38.5670 N   0  0  0  0  0  0  0  0  0  0  0  0
  1  2  1  0  0  0  0
  2  7  1  0  0  0  0
  2  3  2  0  0  0  0
  3  8  1  0  0  0  0
  4  3  1  0  0  0  0
  5  4  2  0  0  0  0
  6  1  2  0  0  0  0
  6  5  1  0  0  0  0
  9 15  1  0  0  0  0
  9  1  1  0  0  0  0
  9 14  1  0  0  0  0
 10  9  1  0  0  0  0
 11 19  1  0  0  0  0
 11 10  1  0  0  0  0
 11 12  1  0  0  0  0
 12 13  1  0  0  0  0
 13 22  1  0  0  0  0
 13 14  1  0  0  0  0
 14 24  1  0  0  0  0
 14 25  1  0  0  0  0
 16 10  1  0  0  0  0
 17 10  1  0  0  0  0
 18 11  1  0  0  0  0
 20 12  1  0  0  0  0
 21 12  1  0  0  0  0
 23 13  1  0  0  0  0
 26 30  2  0  0  0  0
 26  5  1  0  0  0  0
 27 26  1  0  0  0  0
 28 27  2  0  0  0  0
 28 29  1  0  0  0  0
 29 30  1  0  0  0  0
 31 28  1  0  0  0  0
 32 29  1  0  0  0  0
 32 33  1  0  0  0  0
 34 32  1  0  0  0  0
 35 32  1  0  0  0  0
 36 35  1  0  0  0  0
 36 37  1  0  0  0  0
 38 36  2  0  0  0  0
 39 38  1  0  0  0  0
 40 41  2  0  0  0  0
 40 38  1  0  0  0  0
 41 42  1  0  0  0  0
 42 35  2  0  0  0  0
M  END
>  <minimizedAffinity>
-6.08418751

$$$$

 OpenBabel03242519303D

 42 45  0  0  0  0  0  0  0  0999 V2000
   37.9180   28.4930   42.3110 C   0  0  0  0  0  0  0  0  0  0  0  0
   36.6690   27.9600   41.8720 C   0  0  0  0  0  0  0  0  0  0  0  0
   35.8230   28.7240   41.0560 C   0  0  0  0  0  0  0  0  0  0  0  0
   36.2700   29.9820   40.7260 N   0  0  0  0  0  0  0  0  0  0  0  0
   37.4860   30.4600   41.1720 C   0  0  0  0  0  0  0  0  0  0  0  0
   38.2730   29.7220   41.9420 N   0  0  0  0  0  0  0  0  0  0  0  0
   36.2700   26.9820   42.1010 H   0  0  0  0  0  0  0  0  0  0  0  0
   34.8870   28.3640   40.7080 H   0  0  0  0  0  0  0  0  0  0  0  0
   38.7080   27.5950   43.1610 C   0  0  0  0  0  0  0  0  0  0  0  0
   40.1010   27.9740   43.3040 C   0  0  0  0  0  0  0  0  0  0  0  0
   41.0720   27.0540   42.6910 C   0  0  0  0  0  0  0  0  0  0  0  0
   40.8680   25.6140   43.1640 C   0  0  0  0  0  0  0  0  0  0  0  0
   39.4430   25.2130   43.3040 C   0  0  0  0  0  0  0  0  0  0  0  0
   38.5180   26.1770   42.5560 C   0  0  0  0  0  0  0  0  0  0  0  0
   38.1940   27.5200   44.1530 H   0  0  0  0  0  0  0  0  0  0  0  0
   40.2580   28.9820   42.8420 H   0  0  0  0  0  0  0  0  0  0  0  0
   40.3890   28.1110   44.3810 H   0  0  0  0  0  0  0  0  0  0  0  0
   42.0930   27.3380   43.0840 H   0  0  0  0  0  0  0  0  0  0  0  0
   41.1770   27.0530   41.6100 H   0  0  0  0  0  0  0  0  0  0  0  0
   41.4460   24.9350   42.5060 H   0  0  0  0  0  0  0  0  0  0  0  0
   41.3300   25.5180   44.1730 H   0  0  0  0  0  0  0  0  0  0  0  0
   39.2020   24.2040   42.9180 H   0  0  0  0  0  0  0  0  0  0  0  0
   39.0960   25.2580   44.3700 H   0  0  0  0  0  0  0  0  0  0  0  0
   38.8630   26.1670   41.5100 H   0  0  0  0  0  0  0  0  0  0  0  0
   37.4750   25.8780   42.6890 H   0  0  0  0  0  0  0  0  0  0  0  0
   37.7990   31.8140   40.7290 C   0  0  0  0  0  0  0  0  0  0  0  0
   36.9690   32.3990   39.8390 N   0  0  0  0  0  0  0  0  0  0  0  0
   37.4190   33.6340   39.5550 C   0  0  0  0  0  0  0  0  0  0  0  0
   38.5530   33.8180   40.2840 N   0  0  0  0  0  0  0  0  0  0  0  0
   38.7890   32.7090   41.0030 N   0  0  0  0  0  0  0  0  0  0  0  0
   37.0070   34.3820   38.8880 H   0  0  0  0  0  0  0  0  0  0  0  0
   39.4370   34.9840   40.3460 C   0  0  0  0  0  0  0  0  0  0  0  0
   39.2920   35.4210   41.3740 H   0  0  0  0  0  0  0  0  0  0  0  0
   39.0220   35.7430   39.6570 H   0  0  0  0  0  0  0  0  0  0  0  0
   40.8400   34.6210   40.0960 C   0  0  0  0  0  0  0  0  0  0  0  0
   41.1780   34.2130   38.8080 C   0  0  0  0  0  0  0  0  0  0  0  0
   40.4420   34.1610   38.0170 H   0  0  0  0  0  0  0  0  0  0  0  0
   42.4980   33.8760   38.5920 C   0  0  0  0  0  0  0  0  0  0  0  0
   42.7570   33.5560   37.5770 H   0  0  0  0  0  0  0  0  0  0  0  0
   43.4900   33.9210   39.5660 C   0  0  0  0  0  3  0  0  0  0  0  0
   43.0800   34.3400   40.8350 C   0  0  0  0  0  3  0  0  0  0  0  0
   41.7770   34.6730   41.0550 N   0  0  0  0  0  0  0  0  0  0  0  0
  1  9  1  0  0  0  0
  2  7  1  0  0  0  0
  2  1  2  0  0  0  0
  3  2  1  0  0  0  0
  4  3  2  0  0  0  0
  4  5  1  0  0  0  0
  5  6  2  0  0  0  0
  6  1  1  0  0  0  0
  8  3  1  0  0  0  0
  9 10  1  0  0  0  0
  9 15  1  0  0  0  0
 10 17  1  0  0  0  0
 11 18  1  0  0  0  0
 11 12  1  0  0  0  0
 11 10  1  0  0  0  0
 12 13  1  0  0  0  0
 12 21  1  0  0  0  0
 13 23  1  0  0  0  0
 14 25  1  0  0  0  0
 14  9  1  0  0  0  0
 14 13  1  0  0  0  0
 16 10  1  0  0  0  0
 19 11  1  0  0  0  0
 20 12  1  0  0  0  0
 22 13  1  0  0  0  0
 24 14  1  0  0  0  0
 26 30  2  0  0  0  0
 26  5  1  0  0  0  0
 27 26  1  0  0  0  0
 28 27  2  0  0  0  0
 28 29  1  0  0  0  0
 29 32  1  0  0  0  0
 29 30  1  0  0  0  0
 31 28  1  0  0  0  0
 32 33  1  0  0  0  0
 34 32  1  0  0  0  0
 35 32  1  0  0  0  0
 35 42  1  0  0  0  0
 36 35  2  0  0  0  0
 37 36  1  0  0  0  0
 38 36  1  0  0  0  0
 38 40  2  0  0  0  0
 39 38  1  0  0  0  0
 40 41  1  0  0  0  0
 41 42  2  0  0  0  0
M  END
>  <minimizedAffinity>
-6.03469801

$$$$

 OpenBabel03242519303D

 42 45  0  0  0  0  0  0  0  0999 V2000
   39.9610   33.3680   40.2200 C   0  0  0  0  0  0  0  0  0  0  0  0
   38.9670   34.3120   39.8240 C   0  0  0  0  0  0  0  0  0  0  0  0
   37.6110   33.9550   39.8330 C   0  0  0  0  0  0  0  0  0  0  0  0
   37.3230   32.6720   40.2370 N   0  0  0  0  0  0  0  0  0  0  0  0
   38.3160   31.7890   40.6120 C   0  0  0  0  0  0  0  0  0  0  0  0
   39.5920   32.1450   40.5970 N   0  0  0  0  0  0  0  0  0  0  0  0
   39.1370   35.3290   39.4990 H   0  0  0  0  0  0  0  0  0  0  0  0
   36.8420   34.6270   39.5470 H   0  0  0  0  0  0  0  0  0  0  0  0
   41.3400   33.8640   40.1630 C   0  0  0  0  0  0  0  0  0  0  0  0
   41.5550   34.9370   39.2090 C   0  0  0  0  0  0  0  0  0  0  0  0
   42.4060   34.5980   38.0580 C   0  0  0  0  0  0  0  0  0  0  0  0
   43.7470   34.0090   38.4950 C   0  0  0  0  0  0  0  0  0  0  0  0
   43.6590   33.0860   39.6570 C   0  0  0  0  0  0  0  0  0  0  0  0
   42.2210   32.6140   39.8850 C   0  0  0  0  0  0  0  0  0  0  0  0
   41.6430   34.1620   41.1990 H   0  0  0  0  0  0  0  0  0  0  0  0
   40.5650   35.2740   38.8060 H   0  0  0  0  0  0  0  0  0  0  0  0
   41.9850   35.8520   39.6990 H   0  0  0  0  0  0  0  0  0  0  0  0
   42.6760   35.5700   37.5480 H   0  0  0  0  0  0  0  0  0  0  0  0
   41.9920   33.9730   37.2710 H   0  0  0  0  0  0  0  0  0  0  0  0
   44.2420   33.5530   37.6160 H   0  0  0  0  0  0  0  0  0  0  0  0
   44.4050   34.8540   38.8040 H   0  0  0  0  0  0  0  0  0  0  0  0
   44.2680   32.1650   39.5690 H   0  0  0  0  0  0  0  0  0  0  0  0
   43.9470   33.5900   40.6180 H   0  0  0  0  0  0  0  0  0  0  0  0
   41.9110   32.1410   38.9400 H   0  0  0  0  0  0  0  0  0  0  0  0
   42.1730   31.9550   40.7550 H   0  0  0  0  0  0  0  0  0  0  0  0
   37.8310   30.4710   41.0060 C   0  0  0  0  0  0  0  0  0  0  0  0
   37.3190   29.6700   40.0480 N   0  0  0  0  0  0  0  0  0  0  0  0
   36.9280   28.5070   40.6010 C   0  0  0  0  0  0  0  0  0  0  0  0
   37.2040   28.5910   41.9310 N   0  0  0  0  0  0  0  0  0  0  0  0
   37.7560   29.7890   42.1830 N   0  0  0  0  0  0  0  0  0  0  0  0
   36.4770   27.6390   40.1370 H   0  0  0  0  0  0  0  0  0  0  0  0
   36.9770   27.6040   42.9890 C   0  0  0  0  0  0  0  0  0  0  0  0
   35.9540   27.1750   42.7910 H   0  0  0  0  0  0  0  0  0  0  0  0
   36.8680   28.1640   43.9370 H   0  0  0  0  0  0  0  0  0  0  0  0
   38.0170   26.5640   43.0000 C   0  0  0  0  0  0  0  0  0  0  0  0
   39.1810   26.8260   43.7180 C   0  0  0  0  0  0  0  0  0  0  0  0
   39.3220   27.7580   44.2510 H   0  0  0  0  0  0  0  0  0  0  0  0
   40.1450   25.8400   43.7170 C   0  0  0  0  0  0  0  0  0  0  0  0
   41.0580   26.0530   44.2840 H   0  0  0  0  0  0  0  0  0  0  0  0
   40.0240   24.6240   43.0530 C   0  0  0  0  0  3  0  0  0  0  0  0
   38.8300   24.4280   42.3520 C   0  0  0  0  0  3  0  0  0  0  0  0
   37.8740   25.3990   42.3500 N   0  0  0  0  0  0  0  0  0  0  0  0
  1  6  1  0  0  0  0
  2  3  1  0  0  0  0
  2  1  2  0  0  0  0
  3  4  2  0  0  0  0
  4  5  1  0  0  0  0
  5 26  1  0  0  0  0
  6  5  2  0  0  0  0
  7  2  1  0  0  0  0
  8  3  1  0  0  0  0
  9  1  1  0  0  0  0
  9 15  1  0  0  0  0
 10 17  1  0  0  0  0
 10  9  1  0  0  0  0
 11 12  1  0  0  0  0
 11 10  1  0  0  0  0
 12 21  1  0  0  0  0
 12 13  1  0  0  0  0
 13 14  1  0  0  0  0
 13 23  1  0  0  0  0
 14  9  1  0  0  0  0
 14 25  1  0  0  0  0
 16 10  1  0  0  0  0
 18 11  1  0  0  0  0
 19 11  1  0  0  0  0
 20 12  1  0  0  0  0
 22 13  1  0  0  0  0
 24 14  1  0  0  0  0
 26 30  2  0  0  0  0
 27 28  2  0  0  0  0
 27 26  1  0  0  0  0
 28 29  1  0  0  0  0
 29 30  1  0  0  0  0
 29 32  1  0  0  0  0
 31 28  1  0  0  0  0
 32 35  1  0  0  0  0
 32 34  1  0  0  0  0
 33 32  1  0  0  0  0
 35 36  1  0  0  0  0
 36 37  1  0  0  0  0
 38 36  2  0  0  0  0
 38 39  1  0  0  0  0
 40 38  1  0  0  0  0
 41 40  2  0  0  0  0
 42 41  1  0  0  0  0
 42 35  2  0  0  0  0
M  END
>  <minimizedAffinity>
-5.89653015

$$$$

 OpenBabel03242519303D

 42 45  0  0  0  0  0  0  0  0999 V2000
   37.1220   29.5250   40.4060 C   0  0  0  0  0  0  0  0  0  0  0  0
   38.3200   30.0160   39.8060 C   0  0  0  0  0  0  0  0  0  0  0  0
   38.3740   30.2490   38.4240 C   0  0  0  0  0  0  0  0  0  0  0  0
   37.2260   29.9740   37.7170 N   0  0  0  0  0  0  0  0  0  0  0  0
   36.0880   29.4990   38.3370 C   0  0  0  0  0  0  0  0  0  0  0  0
   36.0570   29.2870   39.6450 N   0  0  0  0  0  0  0  0  0  0  0  0
   39.2470   30.2480   40.3120 H   0  0  0  0  0  0  0  0  0  0  0  0
   39.2440   30.6140   37.9400 H   0  0  0  0  0  0  0  0  0  0  0  0
   37.1980   29.3220   41.8570 C   0  0  0  0  0  0  0  0  0  0  0  0
   38.5360   29.4260   42.4100 C   0  0  0  0  0  0  0  0  0  0  0  0
   39.0980   28.1750   42.9440 C   0  0  0  0  0  0  0  0  0  0  0  0
   38.1610   27.5170   43.9580 C   0  0  0  0  0  0  0  0  0  0  0  0
   36.7200   27.5970   43.5980 C   0  0  0  0  0  0  0  0  0  0  0  0
   36.5340   27.9420   42.1190 C   0  0  0  0  0  0  0  0  0  0  0  0
   36.4910   30.0410   42.3430 H   0  0  0  0  0  0  0  0  0  0  0  0
   39.2350   29.7940   41.6160 H   0  0  0  0  0  0  0  0  0  0  0  0
   38.5950   30.2040   43.2180 H   0  0  0  0  0  0  0  0  0  0  0  0
   40.0140   28.4530   43.5450 H   0  0  0  0  0  0  0  0  0  0  0  0
   39.4390   27.4180   42.2440 H   0  0  0  0  0  0  0  0  0  0  0  0
   38.5040   26.4810   44.1440 H   0  0  0  0  0  0  0  0  0  0  0  0
   38.2800   28.0520   44.9280 H   0  0  0  0  0  0  0  0  0  0  0  0
   36.1460   26.6650   43.7650 H   0  0  0  0  0  0  0  0  0  0  0  0
   36.1930   28.4210   44.1490 H   0  0  0  0  0  0  0  0  0  0  0  0
   37.0700   27.1570   41.5610 H   0  0  0  0  0  0  0  0  0  0  0  0
   35.4700   28.0170   41.8800 H   0  0  0  0  0  0  0  0  0  0  0  0
   34.9680   29.2600   37.4340 C   0  0  0  0  0  0  0  0  0  0  0  0
   35.2290   29.1330   36.1160 N   0  0  0  0  0  0  0  0  0  0  0  0
   34.0800   28.9180   35.4520 C   0  0  0  0  0  0  0  0  0  0  0  0
   33.0840   28.9120   36.3790 N   0  0  0  0  0  0  0  0  0  0  0  0
   33.6210   29.1200   37.5920 N   0  0  0  0  0  0  0  0  0  0  0  0
   33.9120   28.7710   34.3920 H   0  0  0  0  0  0  0  0  0  0  0  0
   31.6440   28.7210   36.1920 C   0  0  0  0  0  0  0  0  0  0  0  0
   31.4110   27.7120   36.6370 H   0  0  0  0  0  0  0  0  0  0  0  0
   31.4710   28.5970   35.1070 H   0  0  0  0  0  0  0  0  0  0  0  0
   30.8630   29.7950   36.8260 C   0  0  0  0  0  0  0  0  0  0  0  0
   30.9100   31.0560   36.2390 C   0  0  0  0  0  0  0  0  0  0  0  0
   31.4980   31.2470   35.3500 H   0  0  0  0  0  0  0  0  0  0  0  0
   30.1720   32.0500   36.8460 C   0  0  0  0  0  0  0  0  0  0  0  0
   30.2140   33.0400   36.3790 H   0  0  0  0  0  0  0  0  0  0  0  0
   29.3980   31.8680   37.9890 C   0  0  0  0  0  3  0  0  0  0  0  0
   29.3970   30.5760   38.5240 C   0  0  0  0  0  3  0  0  0  0  0  0
   30.1250   29.5910   37.9280 N   0  0  0  0  0  0  0  0  0  0  0  0
  1  9  1  0  0  0  0
  2  7  1  0  0  0  0
  2  1  1  0  0  0  0
  3  2  2  0  0  0  0
  4  5  2  0  0  0  0
  4  3  1  0  0  0  0
  5  6  1  0  0  0  0
  6  1  2  0  0  0  0
  8  3  1  0  0  0  0
  9 14  1  0  0  0  0
  9 15  1  0  0  0  0
  9 10  1  0  0  0  0
 10 11  1  0  0  0  0
 10 17  1  0  0  0  0
 11 18  1  0  0  0  0
 11 12  1  0  0  0  0
 12 20  1  0  0  0  0
 12 21  1  0  0  0  0
 13 22  1  0  0  0  0
 13 12  1  0  0  0  0
 13 23  1  0  0  0  0
 14 13  1  0  0  0  0
 16 10  1  0  0  0  0
 19 11  1  0  0  0  0
 24 14  1  0  0  0  0
 25 14  1  0  0  0  0
 26 30  2  0  0  0  0
 26  5  1  0  0  0  0
 27 26  1  0  0  0  0
 28 27  2  0  0  0  0
 28 29  1  0  0  0  0
 29 30  1  0  0  0  0
 31 28  1  0  0  0  0
 32 29  1  0  0  0  0
 32 33  1  0  0  0  0
 32 35  1  0  0  0  0
 34 32  1  0  0  0  0
 35 42  1  0  0  0  0
 36 35  2  0  0  0  0
 36 38  1  0  0  0  0
 37 36  1  0  0  0  0
 38 40  2  0  0  0  0
 39 38  1  0  0  0  0
 40 41  1  0  0  0  0
 42 41  2  0  0  0  0
M  END
>  <minimizedAffinity>
-5.7968483

$$$$

 OpenBabel03242519303D

 42 45  0  0  0  0  0  0  0  0999 V2000
   37.1230   26.6710   42.0640 C   0  0  0  0  0  0  0  0  0  0  0  0
   37.0640   27.0230   43.4460 C   0  0  0  0  0  0  0  0  0  0  0  0
   37.2760   28.3500   43.8470 C   0  0  0  0  0  0  0  0  0  0  0  0
   37.5380   29.2530   42.8430 N   0  0  0  0  0  0  0  0  0  0  0  0
   37.5870   28.8700   41.5160 C   0  0  0  0  0  0  0  0  0  0  0  0
   37.3830   27.6110   41.1580 N   0  0  0  0  0  0  0  0  0  0  0  0
   36.8620   26.3570   44.2730 H   0  0  0  0  0  0  0  0  0  0  0  0
   37.2390   28.6530   44.8630 H   0  0  0  0  0  0  0  0  0  0  0  0
   36.8870   25.2520   41.7790 C   0  0  0  0  0  0  0  0  0  0  0  0
   37.9310   24.3610   42.2500 C   0  0  0  0  0  0  0  0  0  0  0  0
   38.7090   23.6880   41.1980 C   0  0  0  0  0  0  0  0  0  0  0  0
   37.8070   22.9580   40.2010 C   0  0  0  0  0  0  0  0  0  0  0  0
   36.5600   23.6910   39.8570 C   0  0  0  0  0  0  0  0  0  0  0  0
   36.6580   25.1680   40.2440 C   0  0  0  0  0  0  0  0  0  0  0  0
   35.8860   24.9770   42.2000 H   0  0  0  0  0  0  0  0  0  0  0  0
   38.6530   24.9410   42.8800 H   0  0  0  0  0  0  0  0  0  0  0  0
   37.5290   23.5710   42.9400 H   0  0  0  0  0  0  0  0  0  0  0  0
   39.3020   22.8660   41.6980 H   0  0  0  0  0  0  0  0  0  0  0  0
   39.4430   24.2660   40.6430 H   0  0  0  0  0  0  0  0  0  0  0  0
   38.4060   22.6800   39.3130 H   0  0  0  0  0  0  0  0  0  0  0  0
   37.4960   21.9940   40.6670 H   0  0  0  0  0  0  0  0  0  0  0  0
   36.2930   23.6780   38.7820 H   0  0  0  0  0  0  0  0  0  0  0  0
   35.6740   23.3060   40.4290 H   0  0  0  0  0  0  0  0  0  0  0  0
   37.5410   25.5570   39.7130 H   0  0  0  0  0  0  0  0  0  0  0  0
   35.7250   25.6840   40.0040 H   0  0  0  0  0  0  0  0  0  0  0  0
   37.8810   29.9560   40.5890 C   0  0  0  0  0  0  0  0  0  0  0  0
   36.8750   30.7850   40.2410 N   0  0  0  0  0  0  0  0  0  0  0  0
   37.3380   31.7150   39.3850 C   0  0  0  0  0  0  0  0  0  0  0  0
   38.6610   31.4540   39.1990 N   0  0  0  0  0  0  0  0  0  0  0  0
   38.9980   30.3810   39.9330 N   0  0  0  0  0  0  0  0  0  0  0  0
   36.8150   32.5330   38.9050 H   0  0  0  0  0  0  0  0  0  0  0  0
   39.6370   32.1600   38.3650 C   0  0  0  0  0  0  0  0  0  0  0  0
   39.0310   32.7240   37.6000 H   0  0  0  0  0  0  0  0  0  0  0  0
   40.1810   31.3930   37.7840 H   0  0  0  0  0  0  0  0  0  0  0  0
   40.4900   33.0560   39.1610 C   0  0  0  0  0  0  0  0  0  0  0  0
   41.8190   32.6850   39.3400 C   0  0  0  0  0  0  0  0  0  0  0  0
   42.2170   31.7730   38.9150 H   0  0  0  0  0  0  0  0  0  0  0  0
   42.6040   33.5370   40.0890 C   0  0  0  0  0  0  0  0  0  0  0  0
   43.6500   33.2390   40.2260 H   0  0  0  0  0  0  0  0  0  0  0  0
   42.1530   34.7220   40.6620 C   0  0  0  0  0  3  0  0  0  0  0  0
   40.8080   35.0320   40.4400 C   0  0  0  0  0  3  0  0  0  0  0  0
   40.0270   34.1940   39.7020 N   0  0  0  0  0  0  0  0  0  0  0  0
  1  2  1  0  0  0  0
  2  3  2  0  0  0  0
  2  7  1  0  0  0  0
  3  8  1  0  0  0  0
  4  3  1  0  0  0  0
  5  4  2  0  0  0  0
  6  5  1  0  0  0  0
  6  1  2  0  0  0  0
  9  1  1  0  0  0  0
  9 15  1  0  0  0  0
  9 10  1  0  0  0  0
 10 16  1  0  0  0  0
 10 17  1  0  0  0  0
 11 18  1  0  0  0  0
 11 10  1  0  0  0  0
 12 21  1  0  0  0  0
 12 11  1  0  0  0  0
 13 12  1  0  0  0  0
 13 14  1  0  0  0  0
 13 23  1  0  0  0  0
 14  9  1  0  0  0  0
 19 11  1  0  0  0  0
 20 12  1  0  0  0  0
 22 13  1  0  0  0  0
 24 14  1  0  0  0  0
 25 14  1  0  0  0  0
 26  5  1  0  0  0  0
 27 26  1  0  0  0  0
 28 27  2  0  0  0  0
 29 28  1  0  0  0  0
 29 30  1  0  0  0  0
 30 26  2  0  0  0  0
 31 28  1  0  0  0  0
 32 35  1  0  0  0  0
 32 29  1  0  0  0  0
 33 32  1  0  0  0  0
 34 32  1  0  0  0  0
 35 36  2  0  0  0  0
 35 42  1  0  0  0  0
 36 38  1  0  0  0  0
 37 36  1  0  0  0  0
 38 39  1  0  0  0  0
 38 40  2  0  0  0  0
 41 40  1  0  0  0  0
 42 41  2  0  0  0  0
M  END
>  <minimizedAffinity>
-5.73398447

$$$$

 OpenBabel03242519303D

 42 45  0  0  0  0  0  0  0  0999 V2000
   32.9980   29.1740   37.0960 C   0  0  0  0  0  0  0  0  0  0  0  0
   33.6270   29.0640   35.8190 C   0  0  0  0  0  0  0  0  0  0  0  0
   35.0030   28.8090   35.7300 C   0  0  0  0  0  0  0  0  0  0  0  0
   35.6760   28.6810   36.9230 N   0  0  0  0  0  0  0  0  0  0  0  0
   35.0290   28.7960   38.1370 C   0  0  0  0  0  0  0  0  0  0  0  0
   33.7270   29.0360   38.2010 N   0  0  0  0  0  0  0  0  0  0  0  0
   33.1480   29.1550   34.8550 H   0  0  0  0  0  0  0  0  0  0  0  0
   35.5080   28.7190   34.8010 H   0  0  0  0  0  0  0  0  0  0  0  0
   31.5570   29.4450   37.0520 C   0  0  0  0  0  0  0  0  0  0  0  0
   31.1500   30.3700   36.0100 C   0  0  0  0  0  0  0  0  0  0  0  0
   30.6350   31.6650   36.4820 C   0  0  0  0  0  0  0  0  0  0  0  0
   29.5080   31.4930   37.5000 C   0  0  0  0  0  0  0  0  0  0  0  0
   29.7180   30.3770   38.4600 C   0  0  0  0  0  0  0  0  0  0  0  0
   31.1800   29.9280   38.4800 C   0  0  0  0  0  0  0  0  0  0  0  0
   31.0250   28.4640   36.9670 H   0  0  0  0  0  0  0  0  0  0  0  0
   32.0250   30.5810   35.3430 H   0  0  0  0  0  0  0  0  0  0  0  0
   30.3790   29.9200   35.3290 H   0  0  0  0  0  0  0  0  0  0  0  0
   30.1430   32.1690   35.5970 H   0  0  0  0  0  0  0  0  0  0  0  0
   31.3410   32.3970   36.8650 H   0  0  0  0  0  0  0  0  0  0  0  0
   29.3230   32.4640   37.9990 H   0  0  0  0  0  0  0  0  0  0  0  0
   28.5740   31.2620   36.9380 H   0  0  0  0  0  0  0  0  0  0  0  0
   29.4600   30.6110   39.5120 H   0  0  0  0  0  0  0  0  0  0  0  0
   29.1430   29.4580   38.1690 H   0  0  0  0  0  0  0  0  0  0  0  0
   31.7640   30.8270   38.7370 H   0  0  0  0  0  0  0  0  0  0  0  0
   31.3100   29.0940   39.1740 H   0  0  0  0  0  0  0  0  0  0  0  0
   35.8970   28.6360   39.2980 C   0  0  0  0  0  0  0  0  0  0  0  0
   37.2040   28.9440   39.1610 N   0  0  0  0  0  0  0  0  0  0  0  0
   37.8370   28.7340   40.3290 C   0  0  0  0  0  0  0  0  0  0  0  0
   36.9010   28.2870   41.2090 N   0  0  0  0  0  0  0  0  0  0  0  0
   35.7140   28.2250   40.5840 N   0  0  0  0  0  0  0  0  0  0  0  0
   38.8810   28.8740   40.5840 H   0  0  0  0  0  0  0  0  0  0  0  0
   37.0560   27.9080   42.6160 C   0  0  0  0  0  0  0  0  0  0  0  0
   36.0130   27.7070   42.9930 H   0  0  0  0  0  0  0  0  0  0  0  0
   37.3820   28.8140   43.1610 H   0  0  0  0  0  0  0  0  0  0  0  0
   37.9340   26.7390   42.7750 C   0  0  0  0  0  0  0  0  0  0  0  0
   37.5230   25.5430   42.1930 C   0  0  0  0  0  0  0  0  0  0  0  0
   36.5940   25.4690   41.6430 H   0  0  0  0  0  0  0  0  0  0  0  0
   38.3580   24.4570   42.3520 C   0  0  0  0  0  0  0  0  0  0  0  0
   38.0290   23.5200   41.8910 H   0  0  0  0  0  0  0  0  0  0  0  0
   39.5630   24.4880   43.0470 C   0  0  0  0  0  3  0  0  0  0  0  0
   39.9130   25.7220   43.6050 C   0  0  0  0  0  3  0  0  0  0  0  0
   39.0910   26.7970   43.4510 N   0  0  0  0  0  0  0  0  0  0  0  0
  1  6  1  0  0  0  0
  2  1  2  0  0  0  0
  3  2  1  0  0  0  0
  3  4  2  0  0  0  0
  4  5  1  0  0  0  0
  5  6  2  0  0  0  0
  5 26  1  0  0  0  0
  7  2  1  0  0  0  0
  8  3  1  0  0  0  0
  9  1  1  0  0  0  0
  9 14  1  0  0  0  0
 10 11  1  0  0  0  0
 10  9  1  0  0  0  0
 11 19  1  0  0  0  0
 11 12  1  0  0  0  0
 12 20  1  0  0  0  0
 12 13  1  0  0  0  0
 13 14  1  0  0  0  0
 13 22  1  0  0  0  0
 14 24  1  0  0  0  0
 14 25  1  0  0  0  0
 15  9  1  0  0  0  0
 16 10  1  0  0  0  0
 17 10  1  0  0  0  0
 18 11  1  0  0  0  0
 21 12  1  0  0  0  0
 23 13  1  0  0  0  0
 26 30  2  0  0  0  0
 27 26  1  0  0  0  0
 27 28  2  0  0  0  0
 28 31  1  0  0  0  0
 28 29  1  0  0  0  0
 29 32  1  0  0  0  0
 30 29  1  0  0  0  0
 32 35  1  0  0  0  0
 32 33  1  0  0  0  0
 32 34  1  0  0  0  0
 35 42  1  0  0  0  0
 36 38  1  0  0  0  0
 36 35  2  0  0  0  0
 37 36  1  0  0  0  0
 38 40  2  0  0  0  0
 39 38  1  0  0  0  0
 40 41  1  0  0  0  0
 42 41  2  0  0  0  0
M  END
>  <minimizedAffinity>
-5.70936918

$$$$

 OpenBabel03242519303D

 42 45  0  0  0  0  0  0  0  0999 V2000
   37.5660   25.4130   41.5190 C   0  0  0  0  0  0  0  0  0  0  0  0
   38.6260   25.3480   42.4730 C   0  0  0  0  0  0  0  0  0  0  0  0
   39.2750   26.5200   42.8870 C   0  0  0  0  0  0  0  0  0  0  0  0
   38.8290   27.6930   42.3240 N   0  0  0  0  0  0  0  0  0  0  0  0
   37.7990   27.7110   41.4040 C   0  0  0  0  0  0  0  0  0  0  0  0
   37.1980   26.5930   41.0250 N   0  0  0  0  0  0  0  0  0  0  0  0
   39.0150   24.4570   42.9450 H   0  0  0  0  0  0  0  0  0  0  0  0
   40.0660   26.5150   43.5940 H   0  0  0  0  0  0  0  0  0  0  0  0
   36.9740   24.1180   41.1670 C   0  0  0  0  0  0  0  0  0  0  0  0
   37.9280   23.0300   41.0530 C   0  0  0  0  0  0  0  0  0  0  0  0
   38.1090   22.4880   39.6980 C   0  0  0  0  0  0  0  0  0  0  0  0
   36.7780   22.0860   39.0630 C   0  0  0  0  0  0  0  0  0  0  0  0
   35.6570   23.0190   39.3520 C   0  0  0  0  0  0  0  0  0  0  0  0
   36.1730   24.3680   39.8600 C   0  0  0  0  0  0  0  0  0  0  0  0
   36.1730   23.8900   41.9160 H   0  0  0  0  0  0  0  0  0  0  0  0
   38.9300   23.3820   41.4100 H   0  0  0  0  0  0  0  0  0  0  0  0
   37.6720   22.1760   41.7350 H   0  0  0  0  0  0  0  0  0  0  0  0
   38.6780   21.5170   39.8020 H   0  0  0  0  0  0  0  0  0  0  0  0
   38.6760   23.0700   38.9770 H   0  0  0  0  0  0  0  0  0  0  0  0
   36.9330   21.9180   37.9800 H   0  0  0  0  0  0  0  0  0  0  0  0
   36.4870   21.0950   39.4810 H   0  0  0  0  0  0  0  0  0  0  0  0
   35.0080   23.2520   38.4850 H   0  0  0  0  0  0  0  0  0  0  0  0
   34.9950   22.6410   40.1760 H   0  0  0  0  0  0  0  0  0  0  0  0
   36.8480   24.7420   39.0740 H   0  0  0  0  0  0  0  0  0  0  0  0
   35.3350   25.0320   40.0870 H   0  0  0  0  0  0  0  0  0  0  0  0
   37.4610   29.0400   40.9080 C   0  0  0  0  0  0  0  0  0  0  0  0
   36.5520   29.7630   41.5960 N   0  0  0  0  0  0  0  0  0  0  0  0
   36.3740   30.9510   40.9890 C   0  0  0  0  0  0  0  0  0  0  0  0
   37.1900   30.9630   39.9010 N   0  0  0  0  0  0  0  0  0  0  0  0
   37.8570   29.7980   39.8470 N   0  0  0  0  0  0  0  0  0  0  0  0
   35.7260   31.7750   41.2610 H   0  0  0  0  0  0  0  0  0  0  0  0
   37.3840   32.0130   38.8980 C   0  0  0  0  0  0  0  0  0  0  0  0
   36.3630   32.4570   38.7220 H   0  0  0  0  0  0  0  0  0  0  0  0
   37.6390   31.5100   37.9470 H   0  0  0  0  0  0  0  0  0  0  0  0
   38.3540   33.0240   39.3440 C   0  0  0  0  0  0  0  0  0  0  0  0
   39.6980   32.7940   39.0620 C   0  0  0  0  0  0  0  0  0  0  0  0
   40.0240   31.9070   38.5350 H   0  0  0  0  0  0  0  0  0  0  0  0
   40.5930   33.7530   39.4880 C   0  0  0  0  0  0  0  0  0  0  0  0
   41.6490   33.5650   39.2620 H   0  0  0  0  0  0  0  0  0  0  0  0
   40.2380   34.9120   40.1700 C   0  0  0  0  0  3  0  0  0  0  0  0
   38.8720   35.0780   40.4190 C   0  0  0  0  0  3  0  0  0  0  0  0
   37.9830   34.1340   40.0010 N   0  0  0  0  0  0  0  0  0  0  0  0
  1  2  1  0  0  0  0
  2  3  2  0  0  0  0
  2  7  1  0  0  0  0
  3  8  1  0  0  0  0
  4  3  1  0  0  0  0
  5  4  2  0  0  0  0
  6  5  1  0  0  0  0
  6  1  2  0  0  0  0
  9  1  1  0  0  0  0
  9 15  1  0  0  0  0
 10  9  1  0  0  0  0
 10 16  1  0  0  0  0
 10 17  1  0  0  0  0
 11 18  1  0  0  0  0
 11 10  1  0  0  0  0
 12 13  1  0  0  0  0
 12 21  1  0  0  0  0
 12 11  1  0  0  0  0
 13 14  1  0  0  0  0
 13 23  1  0  0  0  0
 14 25  1  0  0  0  0
 14  9  1  0  0  0  0
 19 11  1  0  0  0  0
 20 12  1  0  0  0  0
 22 13  1  0  0  0  0
 24 14  1  0  0  0  0
 26  5  1  0  0  0  0
 26 27  1  0  0  0  0
 28 31  1  0  0  0  0
 28 27  2  0  0  0  0
 29 28  1  0  0  0  0
 30 29  1  0  0  0  0
 30 26  2  0  0  0  0
 32 35  1  0  0  0  0
 32 29  1  0  0  0  0
 33 32  1  0  0  0  0
 34 32  1  0  0  0  0
 35 42  1  0  0  0  0
 36 35  2  0  0  0  0
 36 38  1  0  0  0  0
 37 36  1  0  0  0  0
 38 40  2  0  0  0  0
 39 38  1  0  0  0  0
 40 41  1  0  0  0  0
 42 41  2  0  0  0  0
M  END
>  <minimizedAffinity>
-5.68893385

$$$$
