
 OpenBabel03252509283D

 20 21  0  0  0  0  0  0  0  0999 V2000
   45.8480   35.3980   42.4010 C   0  0  0  0  0  0  0  0  0  0  0  0
   46.8420   35.1180   42.0180 H   0  0  0  0  0  0  0  0  0  0  0  0
   45.7510   36.5160   42.4690 H   0  0  0  0  0  0  0  0  0  0  0  0
   46.3030   33.2680   45.4180 C   0  0  0  0  0  0  0  0  0  0  0  0
   46.4660   33.7750   44.1160 C   0  0  0  0  0  0  0  0  0  0  0  0
   45.6900   34.8610   43.7500 C   0  0  0  0  0  0  0  0  0  0  0  0
   44.8040   35.3890   44.6600 N   0  0  0  0  0  0  0  0  0  0  0  0
   44.6920   34.8520   45.9100 C   0  0  0  0  0  0  0  0  0  0  0  0
   45.4320   33.8040   46.2840 N   0  0  0  0  0  0  0  0  0  0  0  0
   46.9330   32.4170   45.6620 H   0  0  0  0  0  0  0  0  0  0  0  0
   47.1720   33.3380   43.4220 H   0  0  0  0  0  0  0  0  0  0  0  0
   43.9570   35.3700   46.5150 H   0  0  0  0  0  0  0  0  0  0  0  0
   44.8340   34.9200   41.4380 C   0  0  0  0  0  0  0  0  0  0  0  0
   44.9550   33.8480   40.5820 C   0  0  0  0  0  0  0  0  0  0  0  0
   45.9100   33.3040   40.6370 H   0  0  0  0  0  0  0  0  0  0  0  0
   43.9550   33.4720   39.7130 C   0  0  0  0  0  0  0  0  0  0  0  0
   44.1410   32.6040   39.0690 H   0  0  0  0  0  0  0  0  0  0  0  0
   42.7600   34.1670   39.6580 C   0  0  0  0  0  3  0  0  0  0  0  0
   42.6680   35.2390   40.5290 C   0  0  0  0  0  3  0  0  0  0  0  0
   43.6560   35.5830   41.3640 N   0  0  0  0  0  0  0  0  0  0  0  0
  1  3  1  0  0  0  0
  1  6  1  0  0  0  0
  2  1  1  0  0  0  0
  4 10  1  0  0  0  0
  4  9  1  0  0  0  0
  5  4  2  0  0  0  0
  6  5  1  0  0  0  0
  6  7  2  0  0  0  0
  7  8  1  0  0  0  0
  8  9  2  0  0  0  0
  8 12  1  0  0  0  0
 11  5  1  0  0  0  0
 13  1  1  0  0  0  0
 14 15  1  0  0  0  0
 14 13  2  0  0  0  0
 16 14  1  0  0  0  0
 17 16  1  0  0  0  0
 18 16  2  0  0  0  0
 18 19  1  0  0  0  0
 19 20  2  0  0  0  0
 20 13  1  0  0  0  0
M  END
>  <minimizedAffinity>
-3.8276906

>  <minimizedRMSD>
4.7019906

$$$$
