
 OpenBabel03252508573D

 23 24  0  0  0  0  0  0  0  0999 V2000
   38.9810   29.0150   42.8630 C   0  0  0  0  0  0  0  0  0  0  0  0
   39.6720   29.5180   43.5350 H   0  0  0  0  0  0  0  0  0  0  0  0
   39.4990   28.3320   42.1330 H   0  0  0  0  0  0  0  0  0  0  0  0
   38.3470   32.0110   40.6840 C   0  0  0  0  0  0  0  0  0  0  0  0
   39.0080   31.0660   41.4810 C   0  0  0  0  0  0  0  0  0  0  0  0
   38.2630   30.0050   42.0210 C   0  0  0  0  0  0  0  0  0  0  0  0
   36.9410   29.9650   41.7340 N   0  0  0  0  0  0  0  0  0  0  0  0
   36.3410   30.8930   40.9620 C   0  0  0  0  0  0  0  0  0  0  0  0
   37.0260   31.9100   40.4370 N   0  0  0  0  0  0  0  0  0  0  0  0
   39.0180   32.7860   40.3200 H   0  0  0  0  0  0  0  0  0  0  0  0
   40.0700   31.1110   41.7040 H   0  0  0  0  0  0  0  0  0  0  0  0
   35.2740   30.8280   40.7520 H   0  0  0  0  0  0  0  0  0  0  0  0
   37.9630   28.1530   43.5650 C   0  0  0  0  0  0  0  0  0  0  0  0
   38.1940   28.1600   44.6390 H   0  0  0  0  0  0  0  0  0  0  0  0
   36.9530   28.5420   43.3310 H   0  0  0  0  0  0  0  0  0  0  0  0
   38.0980   26.7420   43.0620 C   0  0  0  0  0  0  0  0  0  0  0  0
   36.9810   26.2260   42.4380 C   0  0  0  0  0  0  0  0  0  0  0  0
   36.0830   26.8010   42.3260 H   0  0  0  0  0  0  0  0  0  0  0  0
   37.1250   24.9140   41.9760 C   0  0  0  0  0  0  0  0  0  0  0  0
   36.2880   24.4410   41.4760 H   0  0  0  0  0  0  0  0  0  0  0  0
   38.3360   24.2590   42.1750 C   0  0  0  0  0  3  0  0  0  0  0  0
   39.4090   24.8660   42.8160 C   0  0  0  0  0  3  0  0  0  0  0  0
   39.2800   26.1460   43.2710 N   0  0  0  0  0  0  0  0  0  0  0  0
  1  2  1  0  0  0  0
  1 13  1  0  0  0  0
  3  1  1  0  0  0  0
  4  5  1  0  0  0  0
  5 11  1  0  0  0  0
  5  6  2  0  0  0  0
  6  1  1  0  0  0  0
  7  6  1  0  0  0  0
  8  7  2  0  0  0  0
  9  4  2  0  0  0  0
  9  8  1  0  0  0  0
 10  4  1  0  0  0  0
 12  8  1  0  0  0  0
 13 14  1  0  0  0  0
 15 13  1  0  0  0  0
 16 23  1  0  0  0  0
 16 13  1  0  0  0  0
 17 16  2  0  0  0  0
 18 17  1  0  0  0  0
 19 21  2  0  0  0  0
 19 17  1  0  0  0  0
 20 19  1  0  0  0  0
 21 22  1  0  0  0  0
 22 23  2  0  0  0  0
M  END
>  <minimizedAffinity>
-4.41731787

$$$$

 OpenBabel03252508573D

 23 24  0  0  0  0  0  0  0  0999 V2000
   37.7340   28.8730   43.2860 C   0  0  0  0  0  0  0  0  0  0  0  0
   37.2990   29.2770   44.1960 H   0  0  0  0  0  0  0  0  0  0  0  0
   38.8270   28.6240   43.3960 H   0  0  0  0  0  0  0  0  0  0  0  0
   38.8380   31.4640   40.7970 C   0  0  0  0  0  0  0  0  0  0  0  0
   38.8740   30.5130   41.8270 C   0  0  0  0  0  0  0  0  0  0  0  0
   37.6760   29.8770   42.1930 C   0  0  0  0  0  0  0  0  0  0  0  0
   36.5550   30.2280   41.5230 N   0  0  0  0  0  0  0  0  0  0  0  0
   36.5610   31.1480   40.5370 C   0  0  0  0  0  0  0  0  0  0  0  0
   37.6840   31.7660   40.1690 N   0  0  0  0  0  0  0  0  0  0  0  0
   39.8170   31.8920   40.5970 H   0  0  0  0  0  0  0  0  0  0  0  0
   39.7800   30.2410   42.3570 H   0  0  0  0  0  0  0  0  0  0  0  0
   35.6390   31.4050   40.0180 H   0  0  0  0  0  0  0  0  0  0  0  0
   37.0800   27.6020   42.8080 C   0  0  0  0  0  0  0  0  0  0  0  0
   36.2540   27.3660   43.4910 H   0  0  0  0  0  0  0  0  0  0  0  0
   36.7540   27.7490   41.7600 H   0  0  0  0  0  0  0  0  0  0  0  0
   38.0870   26.4870   42.8790 C   0  0  0  0  0  0  0  0  0  0  0  0
   39.2170   26.7560   43.6240 C   0  0  0  0  0  0  0  0  0  0  0  0
   39.3570   27.6990   44.1130 H   0  0  0  0  0  0  0  0  0  0  0  0
   40.1410   25.7070   43.6800 C   0  0  0  0  0  0  0  0  0  0  0  0
   41.0550   25.8460   44.2450 H   0  0  0  0  0  0  0  0  0  0  0  0
   39.8570   24.5230   43.0060 C   0  0  0  0  0  3  0  0  0  0  0  0
   38.6870   24.3470   42.2800 C   0  0  0  0  0  3  0  0  0  0  0  0
   37.7770   25.3630   42.2190 N   0  0  0  0  0  0  0  0  0  0  0  0
  1  3  1  0  0  0  0
  1  2  1  0  0  0  0
  4  5  1  0  0  0  0
  5  6  2  0  0  0  0
  5 11  1  0  0  0  0
  6  1  1  0  0  0  0
  7  6  1  0  0  0  0
  8  7  2  0  0  0  0
  9  8  1  0  0  0  0
  9  4  2  0  0  0  0
 10  4  1  0  0  0  0
 12  8  1  0  0  0  0
 13 16  1  0  0  0  0
 13  1  1  0  0  0  0
 13 14  1  0  0  0  0
 15 13  1  0  0  0  0
 16 17  1  0  0  0  0
 17 19  2  0  0  0  0
 17 18  1  0  0  0  0
 19 20  1  0  0  0  0
 21 19  1  0  0  0  0
 22 21  2  0  0  0  0
 23 22  1  0  0  0  0
 23 16  2  0  0  0  0
M  END
>  <minimizedAffinity>
-4.35810852

$$$$

 OpenBabel03252508573D

 23 24  0  0  0  0  0  0  0  0999 V2000
   37.4750   27.9880   43.0010 C   0  0  0  0  0  0  0  0  0  0  0  0
   36.7900   28.0100   43.8450 H   0  0  0  0  0  0  0  0  0  0  0  0
   36.9470   28.0180   42.0070 H   0  0  0  0  0  0  0  0  0  0  0  0
   40.2060   25.4960   43.6800 C   0  0  0  0  0  0  0  0  0  0  0  0
   39.4670   26.6870   43.6800 C   0  0  0  0  0  0  0  0  0  0  0  0
   38.2430   26.7170   42.9900 C   0  0  0  0  0  0  0  0  0  0  0  0
   37.8550   25.5820   42.3630 N   0  0  0  0  0  0  0  0  0  0  0  0
   38.5940   24.4560   42.3870 C   0  0  0  0  0  0  0  0  0  0  0  0
   39.7590   24.4000   43.0340 N   0  0  0  0  0  0  0  0  0  0  0  0
   41.1320   25.5850   44.2410 H   0  0  0  0  0  0  0  0  0  0  0  0
   39.7900   27.5910   44.1860 H   0  0  0  0  0  0  0  0  0  0  0  0
   38.2500   23.5600   41.8710 H   0  0  0  0  0  0  0  0  0  0  0  0
   38.4480   29.1380   42.9740 C   0  0  0  0  0  0  0  0  0  0  0  0
   38.4300   29.6230   43.9590 H   0  0  0  0  0  0  0  0  0  0  0  0
   39.4460   28.7470   42.6960 H   0  0  0  0  0  0  0  0  0  0  0  0
   37.9850   30.1350   41.9470 C   0  0  0  0  0  0  0  0  0  0  0  0
   36.6900   29.9680   41.5010 C   0  0  0  0  0  0  0  0  0  0  0  0
   36.0660   29.1770   41.8670 H   0  0  0  0  0  0  0  0  0  0  0  0
   36.2770   30.9040   40.5470 C   0  0  0  0  0  0  0  0  0  0  0  0
   35.2720   30.8350   40.1490 H   0  0  0  0  0  0  0  0  0  0  0  0
   37.1700   31.8910   40.1420 C   0  0  0  0  0  3  0  0  0  0  0  0
   38.4590   31.9780   40.6520 C   0  0  0  0  0  3  0  0  0  0  0  0
   38.8730   31.0700   41.5830 N   0  0  0  0  0  0  0  0  0  0  0  0
  1  2  1  0  0  0  0
  3  1  1  0  0  0  0
  4 10  1  0  0  0  0
  5  4  1  0  0  0  0
  5 11  1  0  0  0  0
  6  1  1  0  0  0  0
  6  5  2  0  0  0  0
  7  8  2  0  0  0  0
  7  6  1  0  0  0  0
  8  9  1  0  0  0  0
  9  4  2  0  0  0  0
 12  8  1  0  0  0  0
 13  1  1  0  0  0  0
 13 14  1  0  0  0  0
 15 13  1  0  0  0  0
 16 13  1  0  0  0  0
 17 18  1  0  0  0  0
 17 16  2  0  0  0  0
 19 17  1  0  0  0  0
 20 19  1  0  0  0  0
 21 19  2  0  0  0  0
 21 22  1  0  0  0  0
 22 23  2  0  0  0  0
 23 16  1  0  0  0  0
M  END
>  <minimizedAffinity>
-4.31754732

$$$$

 OpenBabel03252508573D

 23 24  0  0  0  0  0  0  0  0999 V2000
   35.5280   28.9980   40.1590 C   0  0  0  0  0  0  0  0  0  0  0  0
   34.5940   28.9040   39.6110 H   0  0  0  0  0  0  0  0  0  0  0  0
   35.3730   29.1610   41.2620 H   0  0  0  0  0  0  0  0  0  0  0  0
   37.3460   32.2870   40.2360 C   0  0  0  0  0  0  0  0  0  0  0  0
   36.6320   31.1550   40.6550 C   0  0  0  0  0  0  0  0  0  0  0  0
   36.2840   30.1890   39.6960 C   0  0  0  0  0  0  0  0  0  0  0  0
   36.6620   30.4180   38.4170 N   0  0  0  0  0  0  0  0  0  0  0  0
   37.3480   31.5200   38.0530 C   0  0  0  0  0  0  0  0  0  0  0  0
   37.6920   32.4510   38.9440 N   0  0  0  0  0  0  0  0  0  0  0  0
   37.5620   32.9660   41.0570 H   0  0  0  0  0  0  0  0  0  0  0  0
   36.3340   30.9840   41.6840 H   0  0  0  0  0  0  0  0  0  0  0  0
   37.6370   31.6700   37.0140 H   0  0  0  0  0  0  0  0  0  0  0  0
   36.4220   27.7890   40.0540 C   0  0  0  0  0  0  0  0  0  0  0  0
   35.7850   26.9040   39.9290 H   0  0  0  0  0  0  0  0  0  0  0  0
   37.1250   27.9460   39.2120 H   0  0  0  0  0  0  0  0  0  0  0  0
   37.1870   27.6430   41.3400 C   0  0  0  0  0  0  0  0  0  0  0  0
   36.4410   27.7850   42.4930 C   0  0  0  0  0  0  0  0  0  0  0  0
   35.3880   27.9850   42.4600 H   0  0  0  0  0  0  0  0  0  0  0  0
   37.1690   27.6450   43.6790 C   0  0  0  0  0  0  0  0  0  0  0  0
   36.6500   27.7450   44.6250 H   0  0  0  0  0  0  0  0  0  0  0  0
   38.5340   27.3850   43.6050 C   0  0  0  0  0  3  0  0  0  0  0  0
   39.1980   27.2590   42.3920 C   0  0  0  0  0  3  0  0  0  0  0  0
   38.4990   27.3930   41.2280 N   0  0  0  0  0  0  0  0  0  0  0  0
  1  3  1  0  0  0  0
  2  1  1  0  0  0  0
  4  5  1  0  0  0  0
  4 10  1  0  0  0  0
  5 11  1  0  0  0  0
  6  1  1  0  0  0  0
  6  5  2  0  0  0  0
  7  6  1  0  0  0  0
  8  7  2  0  0  0  0
  8  9  1  0  0  0  0
  9  4  2  0  0  0  0
 12  8  1  0  0  0  0
 13  1  1  0  0  0  0
 13 16  1  0  0  0  0
 14 13  1  0  0  0  0
 15 13  1  0  0  0  0
 16 17  1  0  0  0  0
 17 19  2  0  0  0  0
 18 17  1  0  0  0  0
 19 20  1  0  0  0  0
 21 19  1  0  0  0  0
 22 21  2  0  0  0  0
 23 16  2  0  0  0  0
 23 22  1  0  0  0  0
M  END
>  <minimizedAffinity>
-4.23159266

$$$$

 OpenBabel03252508573D

 23 24  0  0  0  0  0  0  0  0999 V2000
   36.9600   30.7070   39.7250 C   0  0  0  0  0  0  0  0  0  0  0  0
   37.4680   29.8380   39.3140 H   0  0  0  0  0  0  0  0  0  0  0  0
   36.2220   31.1630   39.0060 H   0  0  0  0  0  0  0  0  0  0  0  0
   38.4130   34.1520   40.1120 C   0  0  0  0  0  0  0  0  0  0  0  0
   37.5060   33.1160   39.8430 C   0  0  0  0  0  0  0  0  0  0  0  0
   37.9340   31.7890   40.0140 C   0  0  0  0  0  0  0  0  0  0  0  0
   39.2070   31.5950   40.4290 N   0  0  0  0  0  0  0  0  0  0  0  0
   40.0500   32.6180   40.6770 C   0  0  0  0  0  0  0  0  0  0  0  0
   39.6690   33.8870   40.5240 N   0  0  0  0  0  0  0  0  0  0  0  0
   37.9780   35.1340   39.9470 H   0  0  0  0  0  0  0  0  0  0  0  0
   36.4870   33.2860   39.5100 H   0  0  0  0  0  0  0  0  0  0  0  0
   41.0680   32.4240   41.0110 H   0  0  0  0  0  0  0  0  0  0  0  0
   36.1740   30.4190   40.9780 C   0  0  0  0  0  0  0  0  0  0  0  0
   36.2870   31.2760   41.6550 H   0  0  0  0  0  0  0  0  0  0  0  0
   35.1220   30.2200   40.6940 H   0  0  0  0  0  0  0  0  0  0  0  0
   36.7610   29.2070   41.6470 C   0  0  0  0  0  0  0  0  0  0  0  0
   36.4760   28.0000   41.0410 C   0  0  0  0  0  0  0  0  0  0  0  0
   35.8750   27.9430   40.1550 H   0  0  0  0  0  0  0  0  0  0  0  0
   37.0310   26.8840   41.6760 C   0  0  0  0  0  0  0  0  0  0  0  0
   36.8490   25.9010   41.2590 H   0  0  0  0  0  0  0  0  0  0  0  0
   37.7960   27.0730   42.8230 C   0  0  0  0  0  3  0  0  0  0  0  0
   38.0280   28.3340   43.3590 C   0  0  0  0  0  3  0  0  0  0  0  0
   37.4920   29.4300   42.7470 N   0  0  0  0  0  0  0  0  0  0  0  0
  1  6  1  0  0  0  0
  1 13  1  0  0  0  0
  2  1  1  0  0  0  0
  3  1  1  0  0  0  0
  4  9  1  0  0  0  0
  5  6  1  0  0  0  0
  5  4  2  0  0  0  0
  6  7  2  0  0  0  0
  7  8  1  0  0  0  0
  8 12  1  0  0  0  0
  9  8  2  0  0  0  0
 10  4  1  0  0  0  0
 11  5  1  0  0  0  0
 13 16  1  0  0  0  0
 13 14  1  0  0  0  0
 15 13  1  0  0  0  0
 16 23  1  0  0  0  0
 17 16  2  0  0  0  0
 17 19  1  0  0  0  0
 18 17  1  0  0  0  0
 19 21  2  0  0  0  0
 20 19  1  0  0  0  0
 21 22  1  0  0  0  0
 23 22  2  0  0  0  0
M  END
>  <minimizedAffinity>
-4.20679092

$$$$

 OpenBabel03252508573D

 23 24  0  0  0  0  0  0  0  0999 V2000
   36.2810   27.9810   40.1090 C   0  0  0  0  0  0  0  0  0  0  0  0
   35.6670   27.1050   39.9150 H   0  0  0  0  0  0  0  0  0  0  0  0
   36.9830   28.2210   39.2610 H   0  0  0  0  0  0  0  0  0  0  0  0
   37.4020   27.6370   43.6800 C   0  0  0  0  0  0  0  0  0  0  0  0
   36.5870   27.8530   42.5600 C   0  0  0  0  0  0  0  0  0  0  0  0
   37.1610   27.7480   41.2820 C   0  0  0  0  0  0  0  0  0  0  0  0
   38.4780   27.4430   41.2150 N   0  0  0  0  0  0  0  0  0  0  0  0
   39.2290   27.2420   42.3160 C   0  0  0  0  0  0  0  0  0  0  0  0
   38.7090   27.3350   43.5410 N   0  0  0  0  0  0  0  0  0  0  0  0
   36.8570   27.7430   44.6140 H   0  0  0  0  0  0  0  0  0  0  0  0
   35.5320   28.0980   42.6280 H   0  0  0  0  0  0  0  0  0  0  0  0
   40.2860   26.9970   42.2240 H   0  0  0  0  0  0  0  0  0  0  0  0
   35.4900   29.2420   40.3430 C   0  0  0  0  0  0  0  0  0  0  0  0
   34.5640   29.1770   39.7570 H   0  0  0  0  0  0  0  0  0  0  0  0
   35.3140   29.3480   41.4320 H   0  0  0  0  0  0  0  0  0  0  0  0
   36.2890   30.4120   39.8390 C   0  0  0  0  0  0  0  0  0  0  0  0
   36.5970   30.3830   38.4930 C   0  0  0  0  0  0  0  0  0  0  0  0
   36.2830   29.5760   37.8620 H   0  0  0  0  0  0  0  0  0  0  0  0
   37.3390   31.4790   38.0410 C   0  0  0  0  0  0  0  0  0  0  0  0
   37.6200   31.5250   36.9960 H   0  0  0  0  0  0  0  0  0  0  0  0
   37.6940   32.4720   38.9490 C   0  0  0  0  0  3  0  0  0  0  0  0
   37.3350   32.4120   40.2900 C   0  0  0  0  0  3  0  0  0  0  0  0
   36.6110   31.3480   40.7420 N   0  0  0  0  0  0  0  0  0  0  0  0
  1 13  1  0  0  0  0
  1  6  1  0  0  0  0
  2  1  1  0  0  0  0
  3  1  1  0  0  0  0
  4 10  1  0  0  0  0
  5 11  1  0  0  0  0
  5  4  2  0  0  0  0
  6  5  1  0  0  0  0
  7  6  2  0  0  0  0
  7  8  1  0  0  0  0
  8  9  2  0  0  0  0
  9  4  1  0  0  0  0
 12  8  1  0  0  0  0
 13 15  1  0  0  0  0
 14 13  1  0  0  0  0
 16 13  1  0  0  0  0
 16 23  1  0  0  0  0
 17 16  2  0  0  0  0
 18 17  1  0  0  0  0
 19 17  1  0  0  0  0
 19 21  2  0  0  0  0
 20 19  1  0  0  0  0
 21 22  1  0  0  0  0
 22 23  2  0  0  0  0
M  END
>  <minimizedAffinity>
-4.16108131

$$$$

 OpenBabel03252508573D

 23 24  0  0  0  0  0  0  0  0999 V2000
   36.2080   30.6890   40.5230 C   0  0  0  0  0  0  0  0  0  0  0  0
   36.0500   31.6370   41.0300 H   0  0  0  0  0  0  0  0  0  0  0  0
   35.2480   30.2070   40.1850 H   0  0  0  0  0  0  0  0  0  0  0  0
   36.8230   27.4840   42.3870 C   0  0  0  0  0  0  0  0  0  0  0  0
   36.2510   28.4260   41.5210 C   0  0  0  0  0  0  0  0  0  0  0  0
   36.8290   29.7040   41.4450 C   0  0  0  0  0  0  0  0  0  0  0  0
   37.9100   29.9450   42.2220 N   0  0  0  0  0  0  0  0  0  0  0  0
   38.4320   29.0110   43.0420 C   0  0  0  0  0  0  0  0  0  0  0  0
   37.9030   27.7900   43.1330 N   0  0  0  0  0  0  0  0  0  0  0  0
   36.2970   26.5320   42.3670 H   0  0  0  0  0  0  0  0  0  0  0  0
   35.3820   28.2200   40.9040 H   0  0  0  0  0  0  0  0  0  0  0  0
   39.3040   29.2400   43.6530 H   0  0  0  0  0  0  0  0  0  0  0  0
   37.0620   30.7930   39.2850 C   0  0  0  0  0  0  0  0  0  0  0  0
   37.6360   29.8620   39.1880 H   0  0  0  0  0  0  0  0  0  0  0  0
   36.4010   30.9940   38.4190 H   0  0  0  0  0  0  0  0  0  0  0  0
   38.0310   31.9300   39.4630 C   0  0  0  0  0  0  0  0  0  0  0  0
   37.4870   33.1010   39.9510 C   0  0  0  0  0  0  0  0  0  0  0  0
   36.4430   33.1830   40.1830 H   0  0  0  0  0  0  0  0  0  0  0  0
   38.4020   34.1460   40.1110 C   0  0  0  0  0  0  0  0  0  0  0  0
   38.0480   35.0980   40.4890 H   0  0  0  0  0  0  0  0  0  0  0  0
   39.7360   33.9300   39.7780 C   0  0  0  0  0  3  0  0  0  0  0  0
   40.1890   32.7100   39.2930 C   0  0  0  0  0  3  0  0  0  0  0  0
   39.3060   31.6830   39.1330 N   0  0  0  0  0  0  0  0  0  0  0  0
  1  2  1  0  0  0  0
  1  6  1  0  0  0  0
  3  1  1  0  0  0  0
  4  9  1  0  0  0  0
  5  4  2  0  0  0  0
  6  5  1  0  0  0  0
  6  7  2  0  0  0  0
  7  8  1  0  0  0  0
  8  9  2  0  0  0  0
  8 12  1  0  0  0  0
 10  4  1  0  0  0  0
 11  5  1  0  0  0  0
 13 16  1  0  0  0  0
 13  1  1  0  0  0  0
 14 13  1  0  0  0  0
 15 13  1  0  0  0  0
 16 17  1  0  0  0  0
 17 19  2  0  0  0  0
 17 18  1  0  0  0  0
 19 20  1  0  0  0  0
 21 19  1  0  0  0  0
 22 21  2  0  0  0  0
 23 22  1  0  0  0  0
 23 16  2  0  0  0  0
M  END
>  <minimizedAffinity>
-4.15339136

$$$$

 OpenBabel03252508573D

 23 24  0  0  0  0  0  0  0  0999 V2000
   35.3230   29.4450   40.0480 C   0  0  0  0  0  0  0  0  0  0  0  0
   35.2550   28.3920   40.3090 H   0  0  0  0  0  0  0  0  0  0  0  0
   34.3270   29.9690   40.0800 H   0  0  0  0  0  0  0  0  0  0  0  0
   37.3090   30.6640   37.0990 C   0  0  0  0  0  0  0  0  0  0  0  0
   36.8490   30.5010   38.4140 C   0  0  0  0  0  0  0  0  0  0  0  0
   35.7960   29.6030   38.6490 C   0  0  0  0  0  0  0  0  0  0  0  0
   35.2870   28.9470   37.5810 N   0  0  0  0  0  0  0  0  0  0  0  0
   35.7570   29.1300   36.3310 C   0  0  0  0  0  0  0  0  0  0  0  0
   36.7570   29.9770   36.0790 N   0  0  0  0  0  0  0  0  0  0  0  0
   38.1240   31.3810   37.0320 H   0  0  0  0  0  0  0  0  0  0  0  0
   37.2660   31.0340   39.2620 H   0  0  0  0  0  0  0  0  0  0  0  0
   35.3230   28.5840   35.4940 H   0  0  0  0  0  0  0  0  0  0  0  0
   36.2250   30.2420   40.9540 C   0  0  0  0  0  0  0  0  0  0  0  0
   36.9470   30.7820   40.3270 H   0  0  0  0  0  0  0  0  0  0  0  0
   35.5970   30.9100   41.5750 H   0  0  0  0  0  0  0  0  0  0  0  0
   36.9850   29.2900   41.8360 C   0  0  0  0  0  0  0  0  0  0  0  0
   36.3740   28.0720   42.0580 C   0  0  0  0  0  0  0  0  0  0  0  0
   35.4220   27.8340   41.6270 H   0  0  0  0  0  0  0  0  0  0  0  0
   37.0950   27.1990   42.8790 C   0  0  0  0  0  0  0  0  0  0  0  0
   36.6770   26.2240   43.1000 H   0  0  0  0  0  0  0  0  0  0  0  0
   38.3240   27.6120   43.3860 C   0  0  0  0  0  3  0  0  0  0  0  0
   38.8580   28.8630   43.1040 C   0  0  0  0  0  3  0  0  0  0  0  0
   38.1640   29.7230   42.3040 N   0  0  0  0  0  0  0  0  0  0  0  0
  1  3  1  0  0  0  0
  1  2  1  0  0  0  0
  1 13  1  0  0  0  0
  4  5  1  0  0  0  0
  5  6  2  0  0  0  0
  5 11  1  0  0  0  0
  6  1  1  0  0  0  0
  7  6  1  0  0  0  0
  8  7  2  0  0  0  0
  9  8  1  0  0  0  0
  9  4  2  0  0  0  0
 10  4  1  0  0  0  0
 12  8  1  0  0  0  0
 13 15  1  0  0  0  0
 13 16  1  0  0  0  0
 14 13  1  0  0  0  0
 16 17  2  0  0  0  0
 16 23  1  0  0  0  0
 17 19  1  0  0  0  0
 18 17  1  0  0  0  0
 19 20  1  0  0  0  0
 19 21  2  0  0  0  0
 22 21  1  0  0  0  0
 23 22  2  0  0  0  0
M  END
>  <minimizedAffinity>
-4.12131786

$$$$

 OpenBabel03252508573D

 23 24  0  0  0  0  0  0  0  0999 V2000
   37.3130   28.9180   42.7670 C   0  0  0  0  0  0  0  0  0  0  0  0
   37.0330   29.6760   43.4930 H   0  0  0  0  0  0  0  0  0  0  0  0
   38.4250   28.7450   42.7220 H   0  0  0  0  0  0  0  0  0  0  0  0
   35.3230   29.3090   39.6020 C   0  0  0  0  0  0  0  0  0  0  0  0
   35.6970   28.9140   40.8950 C   0  0  0  0  0  0  0  0  0  0  0  0
   36.9350   29.3480   41.3970 C   0  0  0  0  0  0  0  0  0  0  0  0
   37.6950   30.1260   40.5910 N   0  0  0  0  0  0  0  0  0  0  0  0
   37.3000   30.4850   39.3530 C   0  0  0  0  0  0  0  0  0  0  0  0
   36.1290   30.0880   38.8530 N   0  0  0  0  0  0  0  0  0  0  0  0
   34.3500   28.9180   39.3160 H   0  0  0  0  0  0  0  0  0  0  0  0
   35.0780   28.2890   41.5300 H   0  0  0  0  0  0  0  0  0  0  0  0
   37.9380   31.1130   38.7330 H   0  0  0  0  0  0  0  0  0  0  0  0
   36.7070   27.5640   43.0310 C   0  0  0  0  0  0  0  0  0  0  0  0
   36.2750   27.5750   44.0410 H   0  0  0  0  0  0  0  0  0  0  0  0
   35.9630   27.3520   42.2380 H   0  0  0  0  0  0  0  0  0  0  0  0
   37.8000   26.5320   42.9960 C   0  0  0  0  0  0  0  0  0  0  0  0
   37.5220   25.3990   42.2580 C   0  0  0  0  0  0  0  0  0  0  0  0
   36.5870   25.2750   41.7490 H   0  0  0  0  0  0  0  0  0  0  0  0
   38.5500   24.4510   42.2360 C   0  0  0  0  0  0  0  0  0  0  0  0
   38.4040   23.5340   41.6770 H   0  0  0  0  0  0  0  0  0  0  0  0
   39.7250   24.7160   42.9330 C   0  0  0  0  0  3  0  0  0  0  0  0
   39.9120   25.8900   43.6500 C   0  0  0  0  0  3  0  0  0  0  0  0
   38.9160   26.8230   43.6790 N   0  0  0  0  0  0  0  0  0  0  0  0
  1 13  1  0  0  0  0
  1  2  1  0  0  0  0
  3  1  1  0  0  0  0
  4  5  1  0  0  0  0
  5  6  2  0  0  0  0
  5 11  1  0  0  0  0
  6  1  1  0  0  0  0
  7  6  1  0  0  0  0
  8  7  2  0  0  0  0
  9  8  1  0  0  0  0
  9  4  2  0  0  0  0
 10  4  1  0  0  0  0
 12  8  1  0  0  0  0
 13 14  1  0  0  0  0
 15 13  1  0  0  0  0
 16 13  1  0  0  0  0
 16 23  1  0  0  0  0
 17 16  2  0  0  0  0
 18 17  1  0  0  0  0
 19 17  1  0  0  0  0
 19 21  2  0  0  0  0
 20 19  1  0  0  0  0
 21 22  1  0  0  0  0
 22 23  2  0  0  0  0
M  END
>  <minimizedAffinity>
-4.10523033

$$$$
