
 OpenBabel03252509283D

 20 21  0  0  0  0  0  0  0  0999 V2000
   46.8070   34.6260   43.0590 C   0  0  0  0  0  0  0  0  0  0  0  0
   47.6460   34.2780   42.4370 H   0  0  0  0  0  0  0  0  0  0  0  0
   47.0200   35.6500   43.4720 H   0  0  0  0  0  0  0  0  0  0  0  0
   47.1150   31.6240   45.2370 C   0  0  0  0  0  0  0  0  0  0  0  0
   47.2770   32.4880   44.1380 C   0  0  0  0  0  0  0  0  0  0  0  0
   46.6470   33.7200   44.1930 C   0  0  0  0  0  0  0  0  0  0  0  0
   45.9000   34.0410   45.3010 N   0  0  0  0  0  0  0  0  0  0  0  0
   45.7800   33.1590   46.3360 C   0  0  0  0  0  0  0  0  0  0  0  0
   46.3800   31.9660   46.3050 N   0  0  0  0  0  0  0  0  0  0  0  0
   47.6270   30.6700   45.1500 H   0  0  0  0  0  0  0  0  0  0  0  0
   47.8720   32.2070   43.2800 H   0  0  0  0  0  0  0  0  0  0  0  0
   45.1620   33.5490   47.1380 H   0  0  0  0  0  0  0  0  0  0  0  0
   45.6110   34.7330   42.1980 C   0  0  0  0  0  0  0  0  0  0  0  0
   44.5550   35.6030   42.3620 C   0  0  0  0  0  0  0  0  0  0  0  0
   44.6290   36.2790   43.2280 H   0  0  0  0  0  0  0  0  0  0  0  0
   43.4760   35.6350   41.5080 C   0  0  0  0  0  0  0  0  0  0  0  0
   42.6820   36.3620   41.7180 H   0  0  0  0  0  0  0  0  0  0  0  0
   43.4000   34.7780   40.4240 C   0  0  0  0  0  3  0  0  0  0  0  0
   44.4740   33.9160   40.2850 C   0  0  0  0  0  3  0  0  0  0  0  0
   45.5120   33.9050   41.1310 N   0  0  0  0  0  0  0  0  0  0  0  0
  1  3  1  0  0  0  0
  1  6  1  0  0  0  0
  2  1  1  0  0  0  0
  4  9  1  0  0  0  0
  5  6  1  0  0  0  0
  5  4  2  0  0  0  0
  6  7  2  0  0  0  0
  7  8  1  0  0  0  0
  8 12  1  0  0  0  0
  9  8  2  0  0  0  0
 10  4  1  0  0  0  0
 11  5  1  0  0  0  0
 13 14  1  0  0  0  0
 13  1  1  0  0  0  0
 14 15  1  0  0  0  0
 16 17  1  0  0  0  0
 16 14  2  0  0  0  0
 18 16  1  0  0  0  0
 19 18  2  0  0  0  0
 19 20  1  0  0  0  0
 20 13  2  0  0  0  0
M  END
>  <minimizedAffinity>
-3.66153789

>  <minimizedRMSD>
4.44837141

$$$$
