
 OpenBabel03242515293D

 31 33  0  0  0  0  0  0  0  0999 V2000
   36.4740   30.3540   41.1130 C   0  0  0  0  0  0  0  0  0  0  0  0
   36.9350   30.4230   39.7860 C   0  0  0  0  0  0  0  0  0  0  0  0
   37.3490   29.2380   39.2130 C   0  0  0  0  0  0  0  0  0  0  0  0
   37.3010   28.0940   39.9180 N   0  0  0  0  0  0  0  0  0  0  0  0
   36.8450   28.0950   41.2010 C   0  0  0  0  0  0  0  0  0  0  0  0
   36.4240   29.2080   41.8270 N   0  0  0  0  0  0  0  0  0  0  0  0
   36.1360   31.2490   41.6170 H   0  0  0  0  0  0  0  0  0  0  0  0
   37.7040   29.2900   38.1910 H   0  0  0  0  0  0  0  0  0  0  0  0
   36.9360   31.7450   39.1510 C   0  0  0  0  0  0  0  0  0  0  0  0
   36.1400   31.8370   38.4210 H   0  0  0  0  0  0  0  0  0  0  0  0
   36.6740   32.4750   39.9720 H   0  0  0  0  0  0  0  0  0  0  0  0
   38.2700   32.0130   38.6650 N   0  0  0  0  0  0  0  0  0  0  0  0
   39.2420   32.3600   39.4970 C   0  0  0  0  0  0  0  0  0  0  0  0
   40.4930   32.6050   38.9850 C   0  0  0  0  0  0  0  0  0  0  0  0
   40.7530   32.4980   37.6340 C   0  0  0  0  0  0  0  0  0  0  0  0
   41.8980   32.7280   37.2040 O   0  0  0  0  0  0  0  0  0  0  0  0
   39.7450   32.1420   36.8000 N   0  0  0  0  0  0  0  0  0  0  0  0
   38.5090   31.8990   37.3110 C   0  0  0  0  0  0  0  0  0  0  0  0
   37.6170   31.5730   36.4810 O   0  0  0  0  0  0  0  0  0  0  0  0
   39.0460   32.4460   40.5560 H   0  0  0  0  0  0  0  0  0  0  0  0
   41.2670   32.8850   39.6760 H   0  0  0  0  0  0  0  0  0  0  0  0
   39.9210   32.0540   35.7680 H   0  0  0  0  0  0  0  0  0  0  0  0
   36.7950   26.9110   41.9450 O   0  0  0  0  0  0  0  0  0  0  0  0
   38.0090   26.5020   42.4900 C   0  0  0  0  0  0  0  0  0  0  0  0
   38.4200   25.1880   42.3860 C   0  0  0  0  0  0  0  0  0  0  0  0
   37.8000   24.4500   41.8750 H   0  0  0  0  0  0  0  0  0  0  0  0
   39.6240   24.8000   42.9300 C   0  0  0  0  0  0  0  0  0  0  0  0
   39.9530   23.7880   42.8560 H   0  0  0  0  0  0  0  0  0  0  0  0
   40.4230   25.7120   43.5800 C   0  0  0  0  0  3  0  0  0  0  0  0
   39.9960   27.0410   43.6790 C   0  0  0  0  0  3  0  0  0  0  0  0
   38.8010   27.3620   43.1230 N   0  0  0  0  0  0  0  0  0  0  0  0
  1  7  1  0  0  0  0
  1  6  1  0  0  0  0
  2  1  2  0  0  0  0
  3  2  1  0  0  0  0
  3  4  2  0  0  0  0
  4  5  1  0  0  0  0
  5  6  2  0  0  0  0
  5 23  1  0  0  0  0
  8  3  1  0  0  0  0
  9  2  1  0  0  0  0
  9 11  1  0  0  0  0
 10  9  1  0  0  0  0
 12  9  1  0  0  0  0
 12 13  1  0  0  0  0
 13 20  1  0  0  0  0
 14 13  2  0  0  0  0
 14 21  1  0  0  0  0
 15 14  1  0  0  0  0
 16 15  2  0  0  0  0
 17 18  1  0  0  0  0
 17 15  1  0  0  0  0
 18 12  1  0  0  0  0
 19 18  2  0  0  0  0
 22 17  1  0  0  0  0
 23 24  1  0  0  0  0
 24 31  1  0  0  0  0
 25 24  2  0  0  0  0
 25 27  1  0  0  0  0
 26 25  1  0  0  0  0
 27 29  2  0  0  0  0
 28 27  1  0  0  0  0
 29 30  1  0  0  0  0
 31 30  2  0  0  0  0
M  END
>  <minimizedAffinity>
-5.48450327

$$$$

 OpenBabel03242515293D

 31 33  0  0  0  0  0  0  0  0999 V2000
   36.0760   29.6120   40.7470 C   0  0  0  0  0  0  0  0  0  0  0  0
   37.0550   30.6120   40.8930 C   0  0  0  0  0  0  0  0  0  0  0  0
   38.0760   30.3510   41.7850 C   0  0  0  0  0  0  0  0  0  0  0  0
   38.1000   29.1890   42.4620 N   0  0  0  0  0  0  0  0  0  0  0  0
   37.1210   28.2630   42.2740 C   0  0  0  0  0  0  0  0  0  0  0  0
   36.0950   28.4440   41.4230 N   0  0  0  0  0  0  0  0  0  0  0  0
   35.2520   29.7580   40.0620 H   0  0  0  0  0  0  0  0  0  0  0  0
   38.8310   31.1200   41.8990 H   0  0  0  0  0  0  0  0  0  0  0  0
   36.8880   31.8300   40.0930 C   0  0  0  0  0  0  0  0  0  0  0  0
   35.9720   31.8020   39.5120 H   0  0  0  0  0  0  0  0  0  0  0  0
   36.7420   32.6640   40.8400 H   0  0  0  0  0  0  0  0  0  0  0  0
   38.1020   32.0490   39.3430 N   0  0  0  0  0  0  0  0  0  0  0  0
   38.4550   31.2320   38.3600 C   0  0  0  0  0  0  0  0  0  0  0  0
   39.6210   31.4840   37.6790 C   0  0  0  0  0  0  0  0  0  0  0  0
   40.4240   32.5600   37.9970 C   0  0  0  0  0  0  0  0  0  0  0  0
   41.4750   32.7580   37.3590 O   0  0  0  0  0  0  0  0  0  0  0  0
   40.0460   33.3840   39.0050 N   0  0  0  0  0  0  0  0  0  0  0  0
   38.8910   33.1320   39.6760 C   0  0  0  0  0  0  0  0  0  0  0  0
   38.5970   33.9360   40.6030 O   0  0  0  0  0  0  0  0  0  0  0  0
   37.8310   30.3870   38.1070 H   0  0  0  0  0  0  0  0  0  0  0  0
   39.8890   30.8090   36.8860 H   0  0  0  0  0  0  0  0  0  0  0  0
   40.6420   34.2100   39.2630 H   0  0  0  0  0  0  0  0  0  0  0  0
   37.1340   27.0530   42.9780 O   0  0  0  0  0  0  0  0  0  0  0  0
   37.6300   25.9620   42.2710 C   0  0  0  0  0  0  0  0  0  0  0  0
   36.8240   24.8740   41.9990 C   0  0  0  0  0  0  0  0  0  0  0  0
   35.7850   24.8540   42.3330 H   0  0  0  0  0  0  0  0  0  0  0  0
   37.3300   23.8020   41.2980 C   0  0  0  0  0  0  0  0  0  0  0  0
   36.7170   22.9560   41.0810 H   0  0  0  0  0  0  0  0  0  0  0  0
   38.6360   23.8040   40.8660 C   0  0  0  0  0  3  0  0  0  0  0  0
   39.4440   24.9110   41.1480 C   0  0  0  0  0  3  0  0  0  0  0  0
   38.8880   25.9370   41.8410 N   0  0  0  0  0  0  0  0  0  0  0  0
  1  2  2  0  0  0  0
  1  6  1  0  0  0  0
  2  3  1  0  0  0  0
  3  8  1  0  0  0  0
  3  4  2  0  0  0  0
  5  4  1  0  0  0  0
  5 23  1  0  0  0  0
  6  5  2  0  0  0  0
  7  1  1  0  0  0  0
  9 11  1  0  0  0  0
  9  2  1  0  0  0  0
 10  9  1  0  0  0  0
 12 18  1  0  0  0  0
 12  9  1  0  0  0  0
 13 12  1  0  0  0  0
 14 15  1  0  0  0  0
 14 13  2  0  0  0  0
 15 17  1  0  0  0  0
 16 15  2  0  0  0  0
 17 22  1  0  0  0  0
 17 18  1  0  0  0  0
 18 19  2  0  0  0  0
 20 13  1  0  0  0  0
 21 14  1  0  0  0  0
 24 23  1  0  0  0  0
 25 24  1  0  0  0  0
 25 26  1  0  0  0  0
 27 25  2  0  0  0  0
 28 27  1  0  0  0  0
 29 30  2  0  0  0  0
 29 27  1  0  0  0  0
 30 31  1  0  0  0  0
 31 24  2  0  0  0  0
M  END
>  <minimizedAffinity>
-5.42690849

$$$$

 OpenBabel03242515293D

 31 33  0  0  0  0  0  0  0  0999 V2000
   37.1040   29.1040   42.4600 C   0  0  0  0  0  0  0  0  0  0  0  0
   36.8970   27.8140   41.9410 C   0  0  0  0  0  0  0  0  0  0  0  0
   36.5920   27.7300   40.5970 C   0  0  0  0  0  0  0  0  0  0  0  0
   36.5040   28.8470   39.8540 N   0  0  0  0  0  0  0  0  0  0  0  0
   36.7160   30.0670   40.4180 C   0  0  0  0  0  0  0  0  0  0  0  0
   37.0170   30.2300   41.7190 N   0  0  0  0  0  0  0  0  0  0  0  0
   37.3460   29.2350   43.5060 H   0  0  0  0  0  0  0  0  0  0  0  0
   36.4330   26.7360   40.1950 H   0  0  0  0  0  0  0  0  0  0  0  0
   37.0180   26.6920   42.8780 C   0  0  0  0  0  0  0  0  0  0  0  0
   36.5500   26.9160   43.8290 H   0  0  0  0  0  0  0  0  0  0  0  0
   36.4010   25.8580   42.4310 H   0  0  0  0  0  0  0  0  0  0  0  0
   38.4060   26.2980   42.9350 N   0  0  0  0  0  0  0  0  0  0  0  0
   39.2810   26.9830   43.6590 C   0  0  0  0  0  0  0  0  0  0  0  0
   40.5890   26.5680   43.6800 C   0  0  0  0  0  0  0  0  0  0  0  0
   41.0070   25.4620   42.9670 C   0  0  0  0  0  0  0  0  0  0  0  0
   42.2020   25.1140   43.0080 O   0  0  0  0  0  0  0  0  0  0  0  0
   40.0970   24.7750   42.2330 N   0  0  0  0  0  0  0  0  0  0  0  0
   38.8030   25.1880   42.2160 C   0  0  0  0  0  0  0  0  0  0  0  0
   38.0080   24.5060   41.5140 O   0  0  0  0  0  0  0  0  0  0  0  0
   38.9610   27.8500   44.2190 H   0  0  0  0  0  0  0  0  0  0  0  0
   41.2830   27.1370   44.2720 H   0  0  0  0  0  0  0  0  0  0  0  0
   40.3930   23.9300   41.6840 H   0  0  0  0  0  0  0  0  0  0  0  0
   36.6220   31.2370   39.6550 O   0  0  0  0  0  0  0  0  0  0  0  0
   37.7670   32.0270   39.6380 C   0  0  0  0  0  0  0  0  0  0  0  0
   37.7150   33.3490   40.0320 C   0  0  0  0  0  0  0  0  0  0  0  0
   36.7760   33.7950   40.3650 H   0  0  0  0  0  0  0  0  0  0  0  0
   38.8580   34.1180   40.0100 C   0  0  0  0  0  0  0  0  0  0  0  0
   38.8310   35.1400   40.3130 H   0  0  0  0  0  0  0  0  0  0  0  0
   40.0540   33.5790   39.5950 C   0  0  0  0  0  3  0  0  0  0  0  0
   40.0940   32.2380   39.1970 C   0  0  0  0  0  3  0  0  0  0  0  0
   38.9360   31.5330   39.2420 N   0  0  0  0  0  0  0  0  0  0  0  0
  1  7  1  0  0  0  0
  2  1  1  0  0  0  0
  2  9  1  0  0  0  0
  3  2  2  0  0  0  0
  4  5  2  0  0  0  0
  4  3  1  0  0  0  0
  5  6  1  0  0  0  0
  6  1  2  0  0  0  0
  8  3  1  0  0  0  0
  9 12  1  0  0  0  0
  9 10  1  0  0  0  0
 11  9  1  0  0  0  0
 12 13  1  0  0  0  0
 13 14  2  0  0  0  0
 13 20  1  0  0  0  0
 14 21  1  0  0  0  0
 15 16  2  0  0  0  0
 15 14  1  0  0  0  0
 17 15  1  0  0  0  0
 18 17  1  0  0  0  0
 18 12  1  0  0  0  0
 19 18  2  0  0  0  0
 22 17  1  0  0  0  0
 23  5  1  0  0  0  0
 24 23  1  0  0  0  0
 24 25  1  0  0  0  0
 25 26  1  0  0  0  0
 27 25  2  0  0  0  0
 27 28  1  0  0  0  0
 29 27  1  0  0  0  0
 30 31  1  0  0  0  0
 30 29  2  0  0  0  0
 31 24  2  0  0  0  0
M  END
>  <minimizedAffinity>
-5.22446918

$$$$

 OpenBabel03242515293D

 31 33  0  0  0  0  0  0  0  0999 V2000
   37.4710   29.3180   39.4990 C   0  0  0  0  0  0  0  0  0  0  0  0
   37.7330   30.5920   40.0350 C   0  0  0  0  0  0  0  0  0  0  0  0
   37.5670   30.7340   41.3980 C   0  0  0  0  0  0  0  0  0  0  0  0
   37.1740   29.6870   42.1440 N   0  0  0  0  0  0  0  0  0  0  0  0
   36.9370   28.4790   41.5630 C   0  0  0  0  0  0  0  0  0  0  0  0
   37.0760   28.2610   40.2430 N   0  0  0  0  0  0  0  0  0  0  0  0
   37.5840   29.1430   38.4380 H   0  0  0  0  0  0  0  0  0  0  0  0
   37.7680   31.7150   41.8120 H   0  0  0  0  0  0  0  0  0  0  0  0
   38.1450   31.6380   39.0930 C   0  0  0  0  0  0  0  0  0  0  0  0
   38.2120   31.2580   38.0800 H   0  0  0  0  0  0  0  0  0  0  0  0
   37.2940   32.3810   39.0770 H   0  0  0  0  0  0  0  0  0  0  0  0
   39.3360   32.2680   39.6100 N   0  0  0  0  0  0  0  0  0  0  0  0
   40.5130   31.6590   39.5480 C   0  0  0  0  0  0  0  0  0  0  0  0
   41.6160   32.3010   40.0550 C   0  0  0  0  0  0  0  0  0  0  0  0
   41.5230   33.5550   40.6240 C   0  0  0  0  0  0  0  0  0  0  0  0
   42.5440   34.1070   41.0750 O   0  0  0  0  0  0  0  0  0  0  0  0
   40.3110   34.1610   40.6780 N   0  0  0  0  0  0  0  0  0  0  0  0
   39.2230   33.5230   40.1750 C   0  0  0  0  0  0  0  0  0  0  0  0
   38.1260   34.1410   40.2570 O   0  0  0  0  0  0  0  0  0  0  0  0
   40.5930   30.6780   39.1040 H   0  0  0  0  0  0  0  0  0  0  0  0
   42.5600   31.7900   39.9950 H   0  0  0  0  0  0  0  0  0  0  0  0
   40.2180   35.1160   41.1070 H   0  0  0  0  0  0  0  0  0  0  0  0
   36.5220   27.3840   42.3290 O   0  0  0  0  0  0  0  0  0  0  0  0
   37.4780   26.3880   42.5050 C   0  0  0  0  0  0  0  0  0  0  0  0
   37.2470   25.1040   42.0530 C   0  0  0  0  0  0  0  0  0  0  0  0
   36.3110   24.8500   41.5500 H   0  0  0  0  0  0  0  0  0  0  0  0
   38.2030   24.1290   42.2340 C   0  0  0  0  0  0  0  0  0  0  0  0
   38.0360   23.1330   41.8890 H   0  0  0  0  0  0  0  0  0  0  0  0
   39.3890   24.4230   42.8640 C   0  0  0  0  0  3  0  0  0  0  0  0
   39.6130   25.7280   43.3180 C   0  0  0  0  0  3  0  0  0  0  0  0
   38.6340   26.6440   43.1100 N   0  0  0  0  0  0  0  0  0  0  0  0
  1  2  2  0  0  0  0
  1  6  1  0  0  0  0
  2  3  1  0  0  0  0
  3  8  1  0  0  0  0
  3  4  2  0  0  0  0
  5  4  1  0  0  0  0
  5 23  1  0  0  0  0
  6  5  2  0  0  0  0
  7  1  1  0  0  0  0
  9 12  1  0  0  0  0
  9  2  1  0  0  0  0
 10  9  1  0  0  0  0
 11  9  1  0  0  0  0
 12 18  1  0  0  0  0
 13 12  1  0  0  0  0
 13 14  2  0  0  0  0
 14 15  1  0  0  0  0
 15 17  1  0  0  0  0
 15 16  2  0  0  0  0
 17 22  1  0  0  0  0
 18 19  2  0  0  0  0
 18 17  1  0  0  0  0
 20 13  1  0  0  0  0
 21 14  1  0  0  0  0
 23 24  1  0  0  0  0
 24 31  1  0  0  0  0
 25 27  1  0  0  0  0
 25 24  2  0  0  0  0
 26 25  1  0  0  0  0
 27 29  2  0  0  0  0
 28 27  1  0  0  0  0
 29 30  1  0  0  0  0
 31 30  2  0  0  0  0
M  END
>  <minimizedAffinity>
-5.22101212

$$$$

 OpenBabel03242515293D

 31 33  0  0  0  0  0  0  0  0999 V2000
   37.7070   29.6890   39.2380 C   0  0  0  0  0  0  0  0  0  0  0  0
   37.3330   31.0130   39.5330 C   0  0  0  0  0  0  0  0  0  0  0  0
   36.6360   31.2100   40.7080 C   0  0  0  0  0  0  0  0  0  0  0  0
   36.3470   30.1670   41.5050 N   0  0  0  0  0  0  0  0  0  0  0  0
   36.7390   28.9090   41.1610 C   0  0  0  0  0  0  0  0  0  0  0  0
   37.4200   28.6370   40.0340 N   0  0  0  0  0  0  0  0  0  0  0  0
   38.2560   29.4710   38.3320 H   0  0  0  0  0  0  0  0  0  0  0  0
   36.3470   32.2290   40.9370 H   0  0  0  0  0  0  0  0  0  0  0  0
   37.7120   32.0440   38.5610 C   0  0  0  0  0  0  0  0  0  0  0  0
   37.6850   31.6630   37.5460 H   0  0  0  0  0  0  0  0  0  0  0  0
   36.8920   32.8200   38.6100 H   0  0  0  0  0  0  0  0  0  0  0  0
   38.9630   32.6260   38.9840 N   0  0  0  0  0  0  0  0  0  0  0  0
   39.0050   33.5170   39.9660 C   0  0  0  0  0  0  0  0  0  0  0  0
   40.2210   34.0420   40.3290 C   0  0  0  0  0  0  0  0  0  0  0  0
   41.3880   33.6640   39.6970 C   0  0  0  0  0  0  0  0  0  0  0  0
   42.4730   34.1610   40.0520 O   0  0  0  0  0  0  0  0  0  0  0  0
   41.3240   32.7530   38.6950 N   0  0  0  0  0  0  0  0  0  0  0  0
   40.1190   32.2350   38.3390 C   0  0  0  0  0  0  0  0  0  0  0  0
   40.1290   31.3920   37.4000 O   0  0  0  0  0  0  0  0  0  0  0  0
   38.0950   33.8170   40.4650 H   0  0  0  0  0  0  0  0  0  0  0  0
   40.2330   34.7620   41.1270 H   0  0  0  0  0  0  0  0  0  0  0  0
   42.2000   32.4500   38.2010 H   0  0  0  0  0  0  0  0  0  0  0  0
   36.4390   27.8150   41.9810 O   0  0  0  0  0  0  0  0  0  0  0  0
   37.5400   27.0970   42.4380 C   0  0  0  0  0  0  0  0  0  0  0  0
   38.4910   27.7000   43.2360 C   0  0  0  0  0  0  0  0  0  0  0  0
   38.3950   28.7490   43.5220 H   0  0  0  0  0  0  0  0  0  0  0  0
   39.5750   26.9750   43.6790 C   0  0  0  0  0  0  0  0  0  0  0  0
   40.3170   27.4300   44.2970 H   0  0  0  0  0  0  0  0  0  0  0  0
   39.7200   25.6520   43.3330 C   0  0  0  0  0  3  0  0  0  0  0  0
   38.7490   25.0520   42.5230 C   0  0  0  0  0  3  0  0  0  0  0  0
   37.7050   25.8170   42.1180 N   0  0  0  0  0  0  0  0  0  0  0  0
  1  2  2  0  0  0  0
  1  6  1  0  0  0  0
  2  3  1  0  0  0  0
  3  8  1  0  0  0  0
  3  4  2  0  0  0  0
  5  4  1  0  0  0  0
  5 23  1  0  0  0  0
  6  5  2  0  0  0  0
  7  1  1  0  0  0  0
  9 11  1  0  0  0  0
  9 12  1  0  0  0  0
  9  2  1  0  0  0  0
 10  9  1  0  0  0  0
 12 13  1  0  0  0  0
 13 14  2  0  0  0  0
 13 20  1  0  0  0  0
 14 21  1  0  0  0  0
 15 16  2  0  0  0  0
 15 14  1  0  0  0  0
 17 15  1  0  0  0  0
 18 17  1  0  0  0  0
 18 12  1  0  0  0  0
 19 18  2  0  0  0  0
 22 17  1  0  0  0  0
 23 24  1  0  0  0  0
 24 25  1  0  0  0  0
 25 26  1  0  0  0  0
 25 27  2  0  0  0  0
 27 28  1  0  0  0  0
 29 27  1  0  0  0  0
 30 29  2  0  0  0  0
 31 24  2  0  0  0  0
 31 30  1  0  0  0  0
M  END
>  <minimizedAffinity>
-5.21440363

$$$$

 OpenBabel03242515293D

 31 33  0  0  0  0  0  0  0  0999 V2000
   38.6320   29.9640   40.3480 C   0  0  0  0  0  0  0  0  0  0  0  0
   37.3910   30.6200   40.4410 C   0  0  0  0  0  0  0  0  0  0  0  0
   36.6150   30.3210   41.5420 C   0  0  0  0  0  0  0  0  0  0  0  0
   37.0550   29.4410   42.4590 N   0  0  0  0  0  0  0  0  0  0  0  0
   38.2670   28.8400   42.3090 C   0  0  0  0  0  0  0  0  0  0  0  0
   39.0790   29.0800   41.2650 N   0  0  0  0  0  0  0  0  0  0  0  0
   39.2850   30.1570   39.5080 H   0  0  0  0  0  0  0  0  0  0  0  0
   35.6590   30.8250   41.6160 H   0  0  0  0  0  0  0  0  0  0  0  0
   37.0450   31.5460   39.3570 C   0  0  0  0  0  0  0  0  0  0  0  0
   36.2570   32.2300   39.6540 H   0  0  0  0  0  0  0  0  0  0  0  0
   37.9590   32.1910   39.2080 H   0  0  0  0  0  0  0  0  0  0  0  0
   36.7910   30.7730   38.1640 N   0  0  0  0  0  0  0  0  0  0  0  0
   35.8380   29.8510   38.1380 C   0  0  0  0  0  0  0  0  0  0  0  0
   35.6370   29.1420   36.9800 C   0  0  0  0  0  0  0  0  0  0  0  0
   36.4030   29.3670   35.8540 C   0  0  0  0  0  0  0  0  0  0  0  0
   36.1940   28.7050   34.8200 O   0  0  0  0  0  0  0  0  0  0  0  0
   37.3730   30.3140   35.9010 N   0  0  0  0  0  0  0  0  0  0  0  0
   37.5670   31.0140   37.0490 C   0  0  0  0  0  0  0  0  0  0  0  0
   38.4850   31.8800   37.0260 O   0  0  0  0  0  0  0  0  0  0  0  0
   35.2350   29.6690   39.0160 H   0  0  0  0  0  0  0  0  0  0  0  0
   34.8600   28.3990   36.9790 H   0  0  0  0  0  0  0  0  0  0  0  0
   37.9670   30.5030   35.0550 H   0  0  0  0  0  0  0  0  0  0  0  0
   38.7320   27.9190   43.2550 O   0  0  0  0  0  0  0  0  0  0  0  0
   38.5680   26.5810   42.9100 C   0  0  0  0  0  0  0  0  0  0  0  0
   37.3580   26.1220   42.4270 C   0  0  0  0  0  0  0  0  0  0  0  0
   36.5130   26.8020   42.3060 H   0  0  0  0  0  0  0  0  0  0  0  0
   37.2120   24.7950   42.0900 C   0  0  0  0  0  0  0  0  0  0  0  0
   36.2830   24.4280   41.7140 H   0  0  0  0  0  0  0  0  0  0  0  0
   38.2620   23.9180   42.2320 C   0  0  0  0  0  3  0  0  0  0  0  0
   39.4830   24.3940   42.7240 C   0  0  0  0  0  3  0  0  0  0  0  0
   39.5660   25.7120   43.0380 N   0  0  0  0  0  0  0  0  0  0  0  0
  1  2  2  0  0  0  0
  1  6  1  0  0  0  0
  2  3  1  0  0  0  0
  3  8  1  0  0  0  0
  3  4  2  0  0  0  0
  5  4  1  0  0  0  0
  5 23  1  0  0  0  0
  6  5  2  0  0  0  0
  7  1  1  0  0  0  0
  9 10  1  0  0  0  0
  9  2  1  0  0  0  0
 11  9  1  0  0  0  0
 12  9  1  0  0  0  0
 13 12  1  0  0  0  0
 13 20  1  0  0  0  0
 14 13  2  0  0  0  0
 15 17  1  0  0  0  0
 15 14  1  0  0  0  0
 16 15  2  0  0  0  0
 17 18  1  0  0  0  0
 18 12  1  0  0  0  0
 19 18  2  0  0  0  0
 21 14  1  0  0  0  0
 22 17  1  0  0  0  0
 24 31  1  0  0  0  0
 24 23  1  0  0  0  0
 25 24  2  0  0  0  0
 26 25  1  0  0  0  0
 27 29  2  0  0  0  0
 27 25  1  0  0  0  0
 28 27  1  0  0  0  0
 29 30  1  0  0  0  0
 30 31  2  0  0  0  0
M  END
>  <minimizedAffinity>
-5.12963247

$$$$

 OpenBabel03242515293D

 31 33  0  0  0  0  0  0  0  0999 V2000
   36.9830   26.2390   40.4570 C   0  0  0  0  0  0  0  0  0  0  0  0
   37.3570   26.0430   41.7990 C   0  0  0  0  0  0  0  0  0  0  0  0
   37.0160   27.0430   42.6870 C   0  0  0  0  0  0  0  0  0  0  0  0
   36.3600   28.1350   42.2560 N   0  0  0  0  0  0  0  0  0  0  0  0
   36.0270   28.2630   40.9430 C   0  0  0  0  0  0  0  0  0  0  0  0
   36.3240   27.3330   40.0180 N   0  0  0  0  0  0  0  0  0  0  0  0
   37.2210   25.4910   39.7140 H   0  0  0  0  0  0  0  0  0  0  0  0
   37.3040   26.8940   43.7210 H   0  0  0  0  0  0  0  0  0  0  0  0
   38.0770   24.8050   42.1150 C   0  0  0  0  0  0  0  0  0  0  0  0
   37.5880   24.2520   42.9090 H   0  0  0  0  0  0  0  0  0  0  0  0
   37.9800   24.1560   41.1960 H   0  0  0  0  0  0  0  0  0  0  0  0
   39.4650   25.1330   42.3380 N   0  0  0  0  0  0  0  0  0  0  0  0
   39.8820   25.5710   43.5190 C   0  0  0  0  0  0  0  0  0  0  0  0
   41.2130   25.8700   43.6790 C   0  0  0  0  0  0  0  0  0  0  0  0
   42.1150   25.7270   42.6440 C   0  0  0  0  0  0  0  0  0  0  0  0
   43.3140   26.0080   42.8240 O   0  0  0  0  0  0  0  0  0  0  0  0
   41.6690   25.2780   41.4450 N   0  0  0  0  0  0  0  0  0  0  0  0
   40.3510   24.9820   41.2910 C   0  0  0  0  0  0  0  0  0  0  0  0
   40.0010   24.5700   40.1510 O   0  0  0  0  0  0  0  0  0  0  0  0
   39.1820   25.6850   44.3330 H   0  0  0  0  0  0  0  0  0  0  0  0
   41.5310   26.2230   44.6430 H   0  0  0  0  0  0  0  0  0  0  0  0
   42.3380   25.1610   40.6430 H   0  0  0  0  0  0  0  0  0  0  0  0
   35.3490   29.3980   40.4830 O   0  0  0  0  0  0  0  0  0  0  0  0
   36.1580   30.3990   39.9550 C   0  0  0  0  0  0  0  0  0  0  0  0
   36.6650   31.3940   40.7660 C   0  0  0  0  0  0  0  0  0  0  0  0
   36.4400   31.4110   41.8340 H   0  0  0  0  0  0  0  0  0  0  0  0
   37.4650   32.3780   40.2280 C   0  0  0  0  0  0  0  0  0  0  0  0
   37.8640   33.1520   40.8440 H   0  0  0  0  0  0  0  0  0  0  0  0
   37.7630   32.3780   38.8850 C   0  0  0  0  0  3  0  0  0  0  0  0
   37.2430   31.3650   38.0730 C   0  0  0  0  0  3  0  0  0  0  0  0
   36.4620   30.4240   38.6610 N   0  0  0  0  0  0  0  0  0  0  0  0
  1  2  1  0  0  0  0
  2  9  1  0  0  0  0
  2  3  2  0  0  0  0
  3  8  1  0  0  0  0
  4  3  1  0  0  0  0
  5  4  2  0  0  0  0
  6  1  2  0  0  0  0
  6  5  1  0  0  0  0
  7  1  1  0  0  0  0
  9 12  1  0  0  0  0
  9 10  1  0  0  0  0
 11  9  1  0  0  0  0
 12 13  1  0  0  0  0
 13 14  2  0  0  0  0
 13 20  1  0  0  0  0
 14 21  1  0  0  0  0
 15 16  2  0  0  0  0
 15 14  1  0  0  0  0
 17 15  1  0  0  0  0
 18 17  1  0  0  0  0
 18 12  1  0  0  0  0
 19 18  2  0  0  0  0
 22 17  1  0  0  0  0
 23  5  1  0  0  0  0
 24 23  1  0  0  0  0
 24 25  1  0  0  0  0
 25 26  1  0  0  0  0
 27 25  2  0  0  0  0
 27 28  1  0  0  0  0
 29 27  1  0  0  0  0
 30 31  1  0  0  0  0
 30 29  2  0  0  0  0
 31 24  2  0  0  0  0
M  END
>  <minimizedAffinity>
-5.0815196

$$$$

 OpenBabel03242515293D

 31 33  0  0  0  0  0  0  0  0999 V2000
   35.8730   29.3130   36.4770 C   0  0  0  0  0  0  0  0  0  0  0  0
   35.9230   28.8730   37.8120 C   0  0  0  0  0  0  0  0  0  0  0  0
   34.7420   28.4090   38.3540 C   0  0  0  0  0  0  0  0  0  0  0  0
   33.6190   28.3950   37.6150 N   0  0  0  0  0  0  0  0  0  0  0  0
   33.6380   28.8350   36.3270 C   0  0  0  0  0  0  0  0  0  0  0  0
   34.7480   29.3000   35.7280 N   0  0  0  0  0  0  0  0  0  0  0  0
   36.7660   29.6860   35.9950 H   0  0  0  0  0  0  0  0  0  0  0  0
   34.7790   28.0700   39.3830 H   0  0  0  0  0  0  0  0  0  0  0  0
   37.2200   28.9590   38.4920 C   0  0  0  0  0  0  0  0  0  0  0  0
   37.9950   28.4410   37.9380 H   0  0  0  0  0  0  0  0  0  0  0  0
   37.5070   30.0500   38.4570 H   0  0  0  0  0  0  0  0  0  0  0  0
   37.0400   28.5430   39.8630 N   0  0  0  0  0  0  0  0  0  0  0  0
   37.1620   27.2690   40.2110 C   0  0  0  0  0  0  0  0  0  0  0  0
   36.9800   26.9240   41.5280 C   0  0  0  0  0  0  0  0  0  0  0  0
   36.6750   27.8700   42.4860 C   0  0  0  0  0  0  0  0  0  0  0  0
   36.5150   27.5230   43.6700 O   0  0  0  0  0  0  0  0  0  0  0  0
   36.5550   29.1670   42.1090 N   0  0  0  0  0  0  0  0  0  0  0  0
   36.7370   29.5040   40.8060 C   0  0  0  0  0  0  0  0  0  0  0  0
   36.6110   30.7270   40.5220 O   0  0  0  0  0  0  0  0  0  0  0  0
   37.4000   26.5230   39.4670 H   0  0  0  0  0  0  0  0  0  0  0  0
   37.0820   25.8870   41.7900 H   0  0  0  0  0  0  0  0  0  0  0  0
   36.3240   29.9040   42.8220 H   0  0  0  0  0  0  0  0  0  0  0  0
   32.4730   28.8290   35.5510 O   0  0  0  0  0  0  0  0  0  0  0  0
   31.8050   30.0470   35.4750 C   0  0  0  0  0  0  0  0  0  0  0  0
   31.8350   30.7950   34.3150 C   0  0  0  0  0  0  0  0  0  0  0  0
   32.3820   30.4420   33.4390 H   0  0  0  0  0  0  0  0  0  0  0  0
   31.1680   31.9990   34.2560 C   0  0  0  0  0  0  0  0  0  0  0  0
   31.1830   32.5850   33.3650 H   0  0  0  0  0  0  0  0  0  0  0  0
   30.4710   32.4650   35.3460 C   0  0  0  0  0  3  0  0  0  0  0  0
   30.4480   31.6980   36.5160 C   0  0  0  0  0  3  0  0  0  0  0  0
   31.1230   30.5220   36.5130 N   0  0  0  0  0  0  0  0  0  0  0  0
  1  2  1  0  0  0  0
  2  3  2  0  0  0  0
  2  9  1  0  0  0  0
  3  8  1  0  0  0  0
  4  3  1  0  0  0  0
  5  4  2  0  0  0  0
  6  5  1  0  0  0  0
  6  1  2  0  0  0  0
  7  1  1  0  0  0  0
  9 12  1  0  0  0  0
 10  9  1  0  0  0  0
 11  9  1  0  0  0  0
 12 13  1  0  0  0  0
 12 18  1  0  0  0  0
 13 14  2  0  0  0  0
 14 21  1  0  0  0  0
 14 15  1  0  0  0  0
 15 16  2  0  0  0  0
 17 15  1  0  0  0  0
 17 22  1  0  0  0  0
 18 17  1  0  0  0  0
 19 18  2  0  0  0  0
 20 13  1  0  0  0  0
 23  5  1  0  0  0  0
 24 23  1  0  0  0  0
 24 31  1  0  0  0  0
 25 24  2  0  0  0  0
 26 25  1  0  0  0  0
 27 25  1  0  0  0  0
 27 29  2  0  0  0  0
 28 27  1  0  0  0  0
 29 30  1  0  0  0  0
 31 30  2  0  0  0  0
M  END
>  <minimizedAffinity>
-5.07648563

$$$$

 OpenBabel03242515293D

 31 33  0  0  0  0  0  0  0  0999 V2000
   35.2580   28.7910   36.1400 C   0  0  0  0  0  0  0  0  0  0  0  0
   35.0690   28.8220   37.5330 C   0  0  0  0  0  0  0  0  0  0  0  0
   33.7640   28.8900   37.9780 C   0  0  0  0  0  0  0  0  0  0  0  0
   32.7500   28.9240   37.0940 N   0  0  0  0  0  0  0  0  0  0  0  0
   33.0020   28.8920   35.7570 C   0  0  0  0  0  0  0  0  0  0  0  0
   34.2450   28.8250   35.2470 N   0  0  0  0  0  0  0  0  0  0  0  0
   36.2580   28.7370   35.7310 H   0  0  0  0  0  0  0  0  0  0  0  0
   33.6150   28.9140   39.0510 H   0  0  0  0  0  0  0  0  0  0  0  0
   36.2730   28.7880   38.3700 C   0  0  0  0  0  0  0  0  0  0  0  0
   36.1660   28.0890   39.1920 H   0  0  0  0  0  0  0  0  0  0  0  0
   37.0840   28.3550   37.7140 H   0  0  0  0  0  0  0  0  0  0  0  0
   36.6090   30.1430   38.7350 N   0  0  0  0  0  0  0  0  0  0  0  0
   37.2260   30.9470   37.8800 C   0  0  0  0  0  0  0  0  0  0  0  0
   37.5260   32.2280   38.2760 C   0  0  0  0  0  0  0  0  0  0  0  0
   37.2000   32.6880   39.5360 C   0  0  0  0  0  0  0  0  0  0  0  0
   37.4870   33.8550   39.8620 O   0  0  0  0  0  0  0  0  0  0  0  0
   36.5690   31.8500   40.3960 N   0  0  0  0  0  0  0  0  0  0  0  0
   36.2740   30.5850   39.9990 C   0  0  0  0  0  0  0  0  0  0  0  0
   35.6880   29.8560   40.8460 O   0  0  0  0  0  0  0  0  0  0  0  0
   37.4850   30.5940   36.8930 H   0  0  0  0  0  0  0  0  0  0  0  0
   38.0260   32.8640   37.5690 H   0  0  0  0  0  0  0  0  0  0  0  0
   36.3110   32.1800   41.3590 H   0  0  0  0  0  0  0  0  0  0  0  0
   31.9550   28.9320   34.8290 O   0  0  0  0  0  0  0  0  0  0  0  0
   31.1900   30.0940   34.8490 C   0  0  0  0  0  0  0  0  0  0  0  0
   31.6800   31.2680   34.3150 C   0  0  0  0  0  0  0  0  0  0  0  0
   32.6750   31.3040   33.8670 H   0  0  0  0  0  0  0  0  0  0  0  0
   30.9090   32.4100   34.3420 C   0  0  0  0  0  0  0  0  0  0  0  0
   31.2770   33.3230   33.9320 H   0  0  0  0  0  0  0  0  0  0  0  0
   29.6530   32.3900   34.9000 C   0  0  0  0  0  3  0  0  0  0  0  0
   29.1660   31.1940   35.4390 C   0  0  0  0  0  3  0  0  0  0  0  0
   29.9720   30.1040   35.3820 N   0  0  0  0  0  0  0  0  0  0  0  0
  1  2  1  0  0  0  0
  2  3  2  0  0  0  0
  2  9  1  0  0  0  0
  3  8  1  0  0  0  0
  4  3  1  0  0  0  0
  5  4  2  0  0  0  0
  6  5  1  0  0  0  0
  6  1  2  0  0  0  0
  7  1  1  0  0  0  0
  9 12  1  0  0  0  0
  9 10  1  0  0  0  0
 11  9  1  0  0  0  0
 12 18  1  0  0  0  0
 13 14  2  0  0  0  0
 13 12  1  0  0  0  0
 14 15  1  0  0  0  0
 15 16  2  0  0  0  0
 15 17  1  0  0  0  0
 17 22  1  0  0  0  0
 18 17  1  0  0  0  0
 18 19  2  0  0  0  0
 20 13  1  0  0  0  0
 21 14  1  0  0  0  0
 23 24  1  0  0  0  0
 23  5  1  0  0  0  0
 24 31  1  0  0  0  0
 25 27  1  0  0  0  0
 25 24  2  0  0  0  0
 26 25  1  0  0  0  0
 27 29  2  0  0  0  0
 28 27  1  0  0  0  0
 29 30  1  0  0  0  0
 31 30  2  0  0  0  0
M  END
>  <minimizedAffinity>
-5.05212784

$$$$
