
 OpenBabel03252508463D

 44 46  0  0  0  0  0  0  0  0999 V2000
   42.9710   32.4560   41.6490 C   0  0  0  0  0  0  0  0  0  0  0  0
   43.4440   32.0010   40.7380 H   0  0  0  0  0  0  0  0  0  0  0  0
   42.0270   32.9340   41.2880 H   0  0  0  0  0  0  0  0  0  0  0  0
   43.6550   34.8540   41.9010 C   0  0  0  0  0  0  0  0  0  0  0  0
   43.8640   33.5140   42.2000 C   0  0  0  0  0  0  0  0  0  0  0  0
   44.9170   33.1810   43.0170 C   0  0  0  0  0  0  0  0  0  0  0  0
   45.7360   34.1550   43.5210 C   0  0  0  0  0  0  0  0  0  0  0  0
   45.5550   35.4760   43.2460 C   0  0  0  0  0  0  0  0  0  0  0  0
   44.4860   35.7690   42.4210 C   0  0  0  0  0  0  0  0  0  0  0  0
   45.1220   32.1500   43.2780 H   0  0  0  0  0  0  0  0  0  0  0  0
   46.5570   33.8610   44.1610 H   0  0  0  0  0  0  0  0  0  0  0  0
   46.1690   36.2820   43.6170 H   0  0  0  0  0  0  0  0  0  0  0  0
   44.2670   36.8000   42.1500 H   0  0  0  0  0  0  0  0  0  0  0  0
   40.2680   35.8180   40.5290 C   0  0  0  0  0  0  0  0  0  0  0  0
   41.2850   35.5590   41.4650 C   0  0  0  0  0  0  0  0  0  0  0  0
   42.5300   35.1500   41.0350 C   0  0  0  0  0  0  0  0  0  0  0  0
   42.7010   35.0180   39.6880 N   0  0  0  0  0  0  0  0  0  0  0  0
   41.7150   35.2690   38.7930 C   0  0  0  0  0  0  0  0  0  0  0  0
   40.5050   35.6680   39.2340 N   0  0  0  0  0  0  0  0  0  0  0  0
   39.3340   36.1320   40.9840 H   0  0  0  0  0  0  0  0  0  0  0  0
   41.1740   35.6570   42.5400 H   0  0  0  0  0  0  0  0  0  0  0  0
   41.9410   35.1370   37.7380 H   0  0  0  0  0  0  0  0  0  0  0  0
   42.6130   31.4270   42.5630 N   0  0  0  0  0  0  0  0  0  0  0  0
   43.0990   30.5270   42.3990 H   0  0  0  0  0  0  0  0  0  0  0  0
   40.9350   31.1430   42.6450 S   0  0  0  0  0  0  0  0  0  0  0  0
   40.1610   32.3730   42.2110 O   0  0  0  0  0  0  0  0  0  0  0  0
   39.8780   32.4520   41.2610 H   0  0  0  0  0  0  0  0  0  0  0  0
   40.5190   30.7260   44.0100 O   0  0  0  0  0  0  0  0  0  0  0  0
   41.1100   30.2520   44.6540 H   0  0  0  0  0  0  0  0  0  0  0  0
   40.5630   29.9060   41.5590 O   0  0  0  0  0  0  0  0  0  0  0  0
   40.0310   28.8630   42.2990 C   0  0  0  0  0  0  0  0  0  0  0  0
   39.6010   29.1350   43.2610 H   0  0  0  0  0  0  0  0  0  0  0  0
   39.1800   28.4670   41.6710 H   0  0  0  0  0  0  0  0  0  0  0  0
   41.0190   27.7260   42.3760 C   0  0  0  0  0  0  0  0  0  0  0  0
   41.7540   27.9000   41.5360 H   0  0  0  0  0  0  0  0  0  0  0  0
   40.4620   26.8110   42.0430 H   0  0  0  0  0  0  0  0  0  0  0  0
   41.6770   27.5540   43.6680 C   0  0  0  0  0  0  0  0  0  0  0  0
   41.3150   26.5920   44.5870 C   0  0  0  0  0  0  0  0  0  0  0  0
   40.4990   25.9200   44.3580 H   0  0  0  0  0  0  0  0  0  0  0  0
   42.0490   26.5590   45.7770 C   0  0  0  0  0  0  0  0  0  0  0  0
   41.7890   25.8160   46.5200 H   0  0  0  0  0  0  0  0  0  0  0  0
   43.0800   27.4550   45.9960 C   0  0  0  0  0  3  0  0  0  0  0  0
   43.4240   28.4190   45.0430 C   0  0  0  0  0  3  0  0  0  0  0  0
   42.6980   28.4310   43.9000 N   0  0  0  0  0  0  0  0  0  0  0  0
  1  5  1  0  0  0  0
  1 23  1  0  0  0  0
  2  1  1  0  0  0  0
  3  1  1  0  0  0  0
  4  5  2  0  0  0  0
  4  9  1  0  0  0  0
  5  6  1  0  0  0  0
  6 10  1  0  0  0  0
  6  7  2  0  0  0  0
  7 11  1  0  0  0  0
  8  7  1  0  0  0  0
  8 12  1  0  0  0  0
  9  8  2  0  0  0  0
 13  9  1  0  0  0  0
 14 20  1  0  0  0  0
 14 15  1  0  0  0  0
 15 21  1  0  0  0  0
 16 15  2  0  0  0  0
 16  4  1  0  0  0  0
 17 16  1  0  0  0  0
 18 19  1  0  0  0  0
 18 17  2  0  0  0  0
 19 14  2  0  0  0  0
 22 18  1  0  0  0  0
 23 25  1  0  0  0  0
 24 23  1  0  0  0  0
 25 28  1  0  0  0  0
 26 25  1  0  0  0  0
 27 26  1  0  0  0  0
 28 29  1  0  0  0  0
 30 31  1  0  0  0  0
 30 25  1  0  0  0  0
 31 34  1  0  0  0  0
 31 32  1  0  0  0  0
 33 31  1  0  0  0  0
 34 37  1  0  0  0  0
 35 34  1  0  0  0  0
 36 34  1  0  0  0  0
 37 44  2  0  0  0  0
 37 38  1  0  0  0  0
 38 40  2  0  0  0  0
 39 38  1  0  0  0  0
 40 42  1  0  0  0  0
 40 41  1  0  0  0  0
 43 42  2  0  0  0  0
 44 43  1  0  0  0  0
M  END
>  <minimizedAffinity>
-5.04617739

>  <minimizedRMSD>
1.65452254

$$$$
