
 OpenBabel03252508463D

 44 46  0  0  0  0  0  0  0  0999 V2000
   43.0110   32.4800   41.6420 C   0  0  0  0  0  0  0  0  0  0  0  0
   43.4880   32.0350   40.7270 H   0  0  0  0  0  0  0  0  0  0  0  0
   42.0590   32.9440   41.2870 H   0  0  0  0  0  0  0  0  0  0  0  0
   43.6610   34.8870   41.8970 C   0  0  0  0  0  0  0  0  0  0  0  0
   43.8890   33.5490   42.1940 C   0  0  0  0  0  0  0  0  0  0  0  0
   44.9480   33.2300   43.0110 C   0  0  0  0  0  0  0  0  0  0  0  0
   45.7520   34.2150   43.5150 C   0  0  0  0  0  0  0  0  0  0  0  0
   45.5530   35.5330   43.2420 C   0  0  0  0  0  0  0  0  0  0  0  0
   44.4800   35.8120   42.4180 C   0  0  0  0  0  0  0  0  0  0  0  0
   45.1670   32.2020   43.2710 H   0  0  0  0  0  0  0  0  0  0  0  0
   46.5780   33.9320   44.1550 H   0  0  0  0  0  0  0  0  0  0  0  0
   46.1560   36.3480   43.6130 H   0  0  0  0  0  0  0  0  0  0  0  0
   44.2460   36.8410   42.1470 H   0  0  0  0  0  0  0  0  0  0  0  0
   40.2580   35.7910   40.5280 C   0  0  0  0  0  0  0  0  0  0  0  0
   41.2780   35.5440   41.4630 C   0  0  0  0  0  0  0  0  0  0  0  0
   42.5320   35.1670   41.0320 C   0  0  0  0  0  0  0  0  0  0  0  0
   42.7090   35.0540   39.6840 N   0  0  0  0  0  0  0  0  0  0  0  0
   41.7200   35.2930   38.7890 C   0  0  0  0  0  0  0  0  0  0  0  0
   40.5000   35.6610   39.2320 N   0  0  0  0  0  0  0  0  0  0  0  0
   39.3160   36.0800   40.9840 H   0  0  0  0  0  0  0  0  0  0  0  0
   41.1630   35.6280   42.5390 H   0  0  0  0  0  0  0  0  0  0  0  0
   41.9500   35.1780   37.7330 H   0  0  0  0  0  0  0  0  0  0  0  0
   42.6740   31.4400   42.5540 N   0  0  0  0  0  0  0  0  0  0  0  0
   43.1890   30.5560   42.3980 H   0  0  0  0  0  0  0  0  0  0  0  0
   41.0040   31.1050   42.6150 S   0  0  0  0  0  0  0  0  0  0  0  0
   40.1960   32.3840   42.5030 O   0  0  0  0  0  0  0  0  0  0  0  0
   39.8790   32.6760   41.6060 H   0  0  0  0  0  0  0  0  0  0  0  0
   40.6410   30.3710   43.8550 O   0  0  0  0  0  0  0  0  0  0  0  0
   41.2610   29.7740   44.3530 H   0  0  0  0  0  0  0  0  0  0  0  0
   40.6170   30.1480   41.2800 O   0  0  0  0  0  0  0  0  0  0  0  0
   39.6510   29.2460   41.6940 C   0  0  0  0  0  0  0  0  0  0  0  0
   39.8550   28.1990   41.4780 H   0  0  0  0  0  0  0  0  0  0  0  0
   39.6280   29.3400   42.8200 H   0  0  0  0  0  0  0  0  0  0  0  0
   38.2870   29.7030   41.2390 C   0  0  0  0  0  0  0  0  0  0  0  0
   38.4740   30.4770   40.4370 H   0  0  0  0  0  0  0  0  0  0  0  0
   37.8670   30.3090   42.0850 H   0  0  0  0  0  0  0  0  0  0  0  0
   37.3860   28.6430   40.7940 C   0  0  0  0  0  0  0  0  0  0  0  0
   37.4980   27.3300   41.1960 C   0  0  0  0  0  0  0  0  0  0  0  0
   38.2890   27.0470   41.8770 H   0  0  0  0  0  0  0  0  0  0  0  0
   36.5520   26.4370   40.6780 C   0  0  0  0  0  0  0  0  0  0  0  0
   36.6110   25.3980   40.9740 H   0  0  0  0  0  0  0  0  0  0  0  0
   35.5680   26.8760   39.8100 C   0  0  0  0  0  3  0  0  0  0  0  0
   35.4820   28.2170   39.4220 C   0  0  0  0  0  3  0  0  0  0  0  0
   36.4090   29.0600   39.9360 N   0  0  0  0  0  0  0  0  0  0  0  0
  1  5  1  0  0  0  0
  1 23  1  0  0  0  0
  2  1  1  0  0  0  0
  3  1  1  0  0  0  0
  4  5  2  0  0  0  0
  4  9  1  0  0  0  0
  5  6  1  0  0  0  0
  6 10  1  0  0  0  0
  6  7  2  0  0  0  0
  7 11  1  0  0  0  0
  8  7  1  0  0  0  0
  8 12  1  0  0  0  0
  9  8  2  0  0  0  0
 13  9  1  0  0  0  0
 14 20  1  0  0  0  0
 14 15  1  0  0  0  0
 15 21  1  0  0  0  0
 16 15  2  0  0  0  0
 16  4  1  0  0  0  0
 17 16  1  0  0  0  0
 18 19  1  0  0  0  0
 18 17  2  0  0  0  0
 19 14  2  0  0  0  0
 22 18  1  0  0  0  0
 23 25  1  0  0  0  0
 24 23  1  0  0  0  0
 25 28  1  0  0  0  0
 26 25  1  0  0  0  0
 27 26  1  0  0  0  0
 28 29  1  0  0  0  0
 30 31  1  0  0  0  0
 30 25  1  0  0  0  0
 31 33  1  0  0  0  0
 32 31  1  0  0  0  0
 34 31  1  0  0  0  0
 34 36  1  0  0  0  0
 35 34  1  0  0  0  0
 37 38  1  0  0  0  0
 37 34  1  0  0  0  0
 38 39  1  0  0  0  0
 40 41  1  0  0  0  0
 40 38  2  0  0  0  0
 42 40  1  0  0  0  0
 43 42  2  0  0  0  0
 43 44  1  0  0  0  0
 44 37  2  0  0  0  0
M  END
>  <minimizedAffinity>
-5.46254587

>  <minimizedRMSD>
3.75581765

$$$$
