
 OpenBabel03252508463D

 44 46  0  0  0  0  0  0  0  0999 V2000
   43.0210   32.4830   41.6630 C   0  0  0  0  0  0  0  0  0  0  0  0
   43.5070   32.0150   40.7640 H   0  0  0  0  0  0  0  0  0  0  0  0
   42.0790   32.9490   41.2840 H   0  0  0  0  0  0  0  0  0  0  0  0
   43.6740   34.8920   41.8980 C   0  0  0  0  0  0  0  0  0  0  0  0
   43.9020   33.5560   42.2040 C   0  0  0  0  0  0  0  0  0  0  0  0
   44.9640   33.2420   43.0190 C   0  0  0  0  0  0  0  0  0  0  0  0
   45.7710   34.2310   43.5130 C   0  0  0  0  0  0  0  0  0  0  0  0
   45.5710   35.5470   43.2310 C   0  0  0  0  0  0  0  0  0  0  0  0
   44.4950   35.8210   42.4090 C   0  0  0  0  0  0  0  0  0  0  0  0
   45.1840   32.2160   43.2850 H   0  0  0  0  0  0  0  0  0  0  0  0
   46.5980   33.9510   44.1520 H   0  0  0  0  0  0  0  0  0  0  0  0
   46.1760   36.3640   43.5950 H   0  0  0  0  0  0  0  0  0  0  0  0
   44.2600   36.8470   42.1320 H   0  0  0  0  0  0  0  0  0  0  0  0
   40.2660   35.7900   40.5360 C   0  0  0  0  0  0  0  0  0  0  0  0
   41.2900   35.5500   41.4680 C   0  0  0  0  0  0  0  0  0  0  0  0
   42.5410   35.1670   41.0350 C   0  0  0  0  0  0  0  0  0  0  0  0
   42.7130   35.0410   39.6880 N   0  0  0  0  0  0  0  0  0  0  0  0
   41.7200   35.2750   38.7950 C   0  0  0  0  0  0  0  0  0  0  0  0
   40.5030   35.6480   39.2390 N   0  0  0  0  0  0  0  0  0  0  0  0
   39.3270   36.0850   40.9930 H   0  0  0  0  0  0  0  0  0  0  0  0
   41.1790   35.6430   42.5440 H   0  0  0  0  0  0  0  0  0  0  0  0
   41.9460   35.1500   37.7390 H   0  0  0  0  0  0  0  0  0  0  0  0
   42.6620   31.4670   42.5910 N   0  0  0  0  0  0  0  0  0  0  0  0
   43.1940   30.5860   42.4830 H   0  0  0  0  0  0  0  0  0  0  0  0
   40.9960   31.1110   42.5980 S   0  0  0  0  0  0  0  0  0  0  0  0
   40.1760   32.3770   42.4350 O   0  0  0  0  0  0  0  0  0  0  0  0
   39.8890   32.6500   41.5230 H   0  0  0  0  0  0  0  0  0  0  0  0
   40.5970   30.3920   43.8360 O   0  0  0  0  0  0  0  0  0  0  0  0
   41.2060   29.8110   44.3660 H   0  0  0  0  0  0  0  0  0  0  0  0
   40.6690   30.1270   41.2660 O   0  0  0  0  0  0  0  0  0  0  0  0
   40.3900   28.8620   41.7550 C   0  0  0  0  0  0  0  0  0  0  0  0
   40.1160   28.8090   42.8060 H   0  0  0  0  0  0  0  0  0  0  0  0
   39.4860   28.5180   41.1710 H   0  0  0  0  0  0  0  0  0  0  0  0
   41.4900   27.9040   41.3680 C   0  0  0  0  0  0  0  0  0  0  0  0
   41.7510   28.1510   40.2970 H   0  0  0  0  0  0  0  0  0  0  0  0
   41.0040   26.8950   41.2850 H   0  0  0  0  0  0  0  0  0  0  0  0
   42.6580   27.9030   42.2440 C   0  0  0  0  0  0  0  0  0  0  0  0
   42.6820   27.3000   43.4830 C   0  0  0  0  0  0  0  0  0  0  0  0
   41.7960   26.7970   43.8460 H   0  0  0  0  0  0  0  0  0  0  0  0
   43.8830   27.3890   44.1970 C   0  0  0  0  0  0  0  0  0  0  0  0
   43.9340   26.9270   45.1730 H   0  0  0  0  0  0  0  0  0  0  0  0
   44.9740   28.0520   43.6620 C   0  0  0  0  0  3  0  0  0  0  0  0
   44.9180   28.6520   42.4010 C   0  0  0  0  0  3  0  0  0  0  0  0
   43.7450   28.5530   41.7310 N   0  0  0  0  0  0  0  0  0  0  0  0
  1  5  1  0  0  0  0
  1 23  1  0  0  0  0
  2  1  1  0  0  0  0
  3  1  1  0  0  0  0
  4  5  2  0  0  0  0
  4  9  1  0  0  0  0
  5  6  1  0  0  0  0
  6 10  1  0  0  0  0
  6  7  2  0  0  0  0
  7 11  1  0  0  0  0
  8  7  1  0  0  0  0
  8 12  1  0  0  0  0
  9  8  2  0  0  0  0
 13  9  1  0  0  0  0
 14 20  1  0  0  0  0
 14 15  1  0  0  0  0
 15 21  1  0  0  0  0
 16 15  2  0  0  0  0
 16  4  1  0  0  0  0
 17 16  1  0  0  0  0
 18 19  1  0  0  0  0
 18 17  2  0  0  0  0
 19 14  2  0  0  0  0
 22 18  1  0  0  0  0
 23 25  1  0  0  0  0
 24 23  1  0  0  0  0
 25 28  1  0  0  0  0
 26 25  1  0  0  0  0
 27 26  1  0  0  0  0
 28 29  1  0  0  0  0
 30 31  1  0  0  0  0
 30 25  1  0  0  0  0
 31 32  1  0  0  0  0
 33 31  1  0  0  0  0
 34 31  1  0  0  0  0
 34 37  1  0  0  0  0
 35 34  1  0  0  0  0
 36 34  1  0  0  0  0
 37 38  1  0  0  0  0
 38 39  1  0  0  0  0
 38 40  2  0  0  0  0
 40 41  1  0  0  0  0
 42 40  1  0  0  0  0
 43 42  2  0  0  0  0
 44 37  2  0  0  0  0
 44 43  1  0  0  0  0
M  END
>  <minimizedAffinity>
-4.63547039

>  <minimizedRMSD>
0.517720759

$$$$
