
 OpenBabel03252506453D

 41 44  0  0  1  0  0  0  0  0999 V2000
   49.5420   33.4550   41.5190 N   0  0  1  0  0  0  0  0  0  0  0  0
   50.7520   33.1770   42.2420 C   0  0  0  0  0  0  0  0  0  0  0  0
   51.3730   31.8620   41.8620 C   0  0  0  0  0  0  0  0  0  0  0  0
   50.4570   30.7590   42.3650 C   0  0  0  0  0  0  0  0  0  0  0  0
   49.0160   31.1400   42.1610 C   0  0  0  0  0  0  0  0  0  0  0  0
   48.9050   32.2280   41.1160 C   0  0  2  0  0  0  0  0  0  0  0  0
   50.5290   33.1390   43.3270 H   0  0  0  0  0  0  0  0  0  0  0  0
   51.4860   33.9950   42.0370 H   0  0  0  0  0  0  0  0  0  0  0  0
   51.6700   31.7590   40.8230 H   0  0  0  0  0  0  0  0  0  0  0  0
   52.3040   31.7810   42.4770 H   0  0  0  0  0  0  0  0  0  0  0  0
   50.6270   30.6010   43.4580 H   0  0  0  0  0  0  0  0  0  0  0  0
   50.6710   29.8140   41.8370 H   0  0  0  0  0  0  0  0  0  0  0  0
   48.3710   30.2950   41.8970 H   0  0  0  0  0  0  0  0  0  0  0  0
   48.6410   31.5830   43.1080 H   0  0  0  0  0  0  0  0  0  0  0  0
   47.8200   32.4540   41.0070 H   0  0  0  0  0  0  0  0  0  0  0  0
   47.3170   34.6760   42.0200 C   0  0  1  0  0  0  0  0  0  0  0  0
   48.4080   35.6480   41.7730 C   0  0  0  0  0  0  0  0  0  0  0  0
   48.7280   34.3050   42.3080 C   0  0  2  0  0  0  0  0  0  0  0  0
   46.8310   34.2140   41.1160 H   0  0  0  0  0  0  0  0  0  0  0  0
   48.3740   36.5510   42.4300 H   0  0  0  0  0  0  0  0  0  0  0  0
   48.6270   35.8890   40.7180 H   0  0  0  0  0  0  0  0  0  0  0  0
   48.9600   34.3030   43.4140 H   0  0  0  0  0  0  0  0  0  0  0  0
   45.5520   36.0520   43.1570 C   0  0  0  0  0  0  0  0  0  0  0  0
   46.3750   34.9160   43.1180 C   0  0  0  0  0  0  0  0  0  0  0  0
   46.2560   33.9940   44.1830 C   0  0  0  0  0  0  0  0  0  0  0  0
   45.3650   34.2560   45.1680 N   0  0  0  0  0  0  0  0  0  0  0  0
   44.5870   35.3570   45.1770 C   0  0  0  0  0  0  0  0  0  0  0  0
   44.6750   36.2760   44.1600 N   0  0  0  0  0  0  0  0  0  0  0  0
   45.6030   36.7920   42.3670 H   0  0  0  0  0  0  0  0  0  0  0  0
   46.8710   33.1060   44.1920 H   0  0  0  0  0  0  0  0  0  0  0  0
   43.9430   35.3730   46.0520 H   0  0  0  0  0  0  0  0  0  0  0  0
   49.3350   31.7170   39.8470 N   0  0  0  0  0  0  0  0  0  0  0  0
   49.8900   30.9360   39.4330 H   0  0  0  0  0  0  0  0  0  0  0  0
   48.9340   32.4300   38.6570 C   0  0  0  0  0  0  0  0  0  0  0  0
   48.2810   33.6130   38.4030 C   0  0  0  0  0  0  0  0  0  0  0  0
   48.0120   34.0690   39.3180 H   0  0  0  0  0  0  0  0  0  0  0  0
   48.0860   33.9860   37.0950 C   0  0  0  0  0  0  0  0  0  0  0  0
   47.5610   34.9350   36.9960 H   0  0  0  0  0  0  0  0  0  0  0  0
   48.5230   33.2160   36.0340 C   0  0  0  0  0  0  0  0  0  0  0  0
   49.1740   32.0370   36.3370 C   0  0  0  0  0  0  0  0  0  0  0  0
   49.3770   31.6490   37.6260 N   0  0  0  0  0  0  0  0  0  0  0  0
  1  2  1  1  0  0  0
  1 18  1  0  0  0  0
  2  7  1  0  0  0  0
  3  2  1  0  0  0  0
  3  4  1  0  0  0  0
  3 10  1  0  0  0  0
  4 11  1  0  0  0  0
  5  4  1  0  0  0  0
  5 14  1  0  0  0  0
  6 15  1  6  0  0  0
  6  1  1  0  0  0  0
  6  5  1  0  0  0  0
  8  2  1  0  0  0  0
  9  3  1  0  0  0  0
 12  4  1  0  0  0  0
 13  5  1  0  0  0  0
 16 19  1  6  0  0  0
 16 18  1  0  0  0  0
 16 24  1  0  0  0  0
 17 16  1  0  0  0  0
 17 18  1  0  0  0  0
 17 20  1  0  0  0  0
 18 22  1  1  0  0  0
 21 17  1  0  0  0  0
 23 28  1  0  0  0  0
 24 23  2  0  0  0  0
 24 25  1  0  0  0  0
 25 30  1  0  0  0  0
 25 26  2  0  0  0  0
 26 27  1  0  0  0  0
 27 31  1  0  0  0  0
 28 27  2  0  0  0  0
 29 23  1  0  0  0  0
 32  6  1  0  0  0  0
 33 32  1  0  0  0  0
 34 32  1  0  0  0  0
 35 34  1  0  0  0  0
 35 36  1  0  0  0  0
 37 35  2  0  0  0  0
 38 37  1  0  0  0  0
 39 40  2  0  0  0  0
 39 37  1  0  0  0  0
 40 41  1  0  0  0  0
 41 34  2  0  0  0  0
M  END
>  <minimizedAffinity>
-5.39127111

>  <minimizedRMSD>
2.5277586

$$$$
