
 OpenBabel03252508463D

 44 46  0  0  0  0  0  0  0  0999 V2000
   43.0110   32.4600   41.6610 C   0  0  0  0  0  0  0  0  0  0  0  0
   43.4960   31.9970   40.7600 H   0  0  0  0  0  0  0  0  0  0  0  0
   42.0680   32.9290   41.2850 H   0  0  0  0  0  0  0  0  0  0  0  0
   43.6680   34.8660   41.9070 C   0  0  0  0  0  0  0  0  0  0  0  0
   43.8920   33.5290   42.2090 C   0  0  0  0  0  0  0  0  0  0  0  0
   44.9500   33.2100   43.0270 C   0  0  0  0  0  0  0  0  0  0  0  0
   45.7570   34.1950   43.5280 C   0  0  0  0  0  0  0  0  0  0  0  0
   45.5610   35.5120   43.2500 C   0  0  0  0  0  0  0  0  0  0  0  0
   44.4890   35.7920   42.4240 C   0  0  0  0  0  0  0  0  0  0  0  0
   45.1660   32.1820   43.2910 H   0  0  0  0  0  0  0  0  0  0  0  0
   46.5810   33.9110   44.1690 H   0  0  0  0  0  0  0  0  0  0  0  0
   46.1670   36.3260   43.6180 H   0  0  0  0  0  0  0  0  0  0  0  0
   44.2590   36.8200   42.1500 H   0  0  0  0  0  0  0  0  0  0  0  0
   40.2720   35.7900   40.5330 C   0  0  0  0  0  0  0  0  0  0  0  0
   41.2920   35.5460   41.4690 C   0  0  0  0  0  0  0  0  0  0  0  0
   42.5400   35.1470   41.0410 C   0  0  0  0  0  0  0  0  0  0  0  0
   42.7120   35.0110   39.6940 N   0  0  0  0  0  0  0  0  0  0  0  0
   41.7230   35.2490   38.7990 C   0  0  0  0  0  0  0  0  0  0  0  0
   40.5090   35.6370   39.2380 N   0  0  0  0  0  0  0  0  0  0  0  0
   39.3350   36.0970   40.9870 H   0  0  0  0  0  0  0  0  0  0  0  0
   41.1800   35.6470   42.5440 H   0  0  0  0  0  0  0  0  0  0  0  0
   41.9490   35.1140   37.7430 H   0  0  0  0  0  0  0  0  0  0  0  0
   42.6500   31.4390   42.5830 N   0  0  0  0  0  0  0  0  0  0  0  0
   43.1680   30.5520   42.4560 H   0  0  0  0  0  0  0  0  0  0  0  0
   40.9790   31.1060   42.6100 S   0  0  0  0  0  0  0  0  0  0  0  0
   40.1760   32.3800   42.4270 O   0  0  0  0  0  0  0  0  0  0  0  0
   39.8850   32.6370   41.5110 H   0  0  0  0  0  0  0  0  0  0  0  0
   40.5800   30.4190   43.8660 O   0  0  0  0  0  0  0  0  0  0  0  0
   41.1850   29.8410   44.4030 H   0  0  0  0  0  0  0  0  0  0  0  0
   40.6290   30.0990   41.3020 O   0  0  0  0  0  0  0  0  0  0  0  0
   39.8760   29.0450   41.7910 C   0  0  0  0  0  0  0  0  0  0  0  0
   39.5080   29.1570   42.8090 H   0  0  0  0  0  0  0  0  0  0  0  0
   38.9660   29.0030   41.1250 H   0  0  0  0  0  0  0  0  0  0  0  0
   40.5940   27.7400   41.5490 C   0  0  0  0  0  0  0  0  0  0  0  0
   40.7470   27.6760   40.4320 H   0  0  0  0  0  0  0  0  0  0  0  0
   39.8410   26.9320   41.7510 H   0  0  0  0  0  0  0  0  0  0  0  0
   41.8370   27.5590   42.2950 C   0  0  0  0  0  0  0  0  0  0  0  0
   43.0650   27.3760   41.6950 C   0  0  0  0  0  0  0  0  0  0  0  0
   43.1330   27.3590   40.6160 H   0  0  0  0  0  0  0  0  0  0  0  0
   44.1590   27.2180   42.5530 C   0  0  0  0  0  0  0  0  0  0  0  0
   45.1380   27.0720   42.1140 H   0  0  0  0  0  0  0  0  0  0  0  0
   43.9900   27.2500   43.9250 C   0  0  0  0  0  3  0  0  0  0  0  0
   42.7300   27.4380   44.5020 C   0  0  0  0  0  3  0  0  0  0  0  0
   41.6880   27.5880   43.6510 N   0  0  0  0  0  0  0  0  0  0  0  0
  1  5  1  0  0  0  0
  1 23  1  0  0  0  0
  2  1  1  0  0  0  0
  3  1  1  0  0  0  0
  4  5  2  0  0  0  0
  4  9  1  0  0  0  0
  5  6  1  0  0  0  0
  6 10  1  0  0  0  0
  6  7  2  0  0  0  0
  7 11  1  0  0  0  0
  8  7  1  0  0  0  0
  8 12  1  0  0  0  0
  9  8  2  0  0  0  0
 13  9  1  0  0  0  0
 14 20  1  0  0  0  0
 14 15  1  0  0  0  0
 15 21  1  0  0  0  0
 16 15  2  0  0  0  0
 16  4  1  0  0  0  0
 17 16  1  0  0  0  0
 18 19  1  0  0  0  0
 18 17  2  0  0  0  0
 19 14  2  0  0  0  0
 22 18  1  0  0  0  0
 23 25  1  0  0  0  0
 24 23  1  0  0  0  0
 25 28  1  0  0  0  0
 26 25  1  0  0  0  0
 27 26  1  0  0  0  0
 28 29  1  0  0  0  0
 30 31  1  0  0  0  0
 30 25  1  0  0  0  0
 31 32  1  0  0  0  0
 33 31  1  0  0  0  0
 34 36  1  0  0  0  0
 34 31  1  0  0  0  0
 34 37  1  0  0  0  0
 35 34  1  0  0  0  0
 37 44  1  0  0  0  0
 38 37  2  0  0  0  0
 38 40  1  0  0  0  0
 39 38  1  0  0  0  0
 40 42  2  0  0  0  0
 41 40  1  0  0  0  0
 42 43  1  0  0  0  0
 44 43  2  0  0  0  0
M  END
>  <minimizedAffinity>
-4.72343016

>  <minimizedRMSD>
0.537577152

$$$$
