
 OpenBabel03252508463D

 44 46  0  0  0  0  0  0  0  0999 V2000
   43.0160   32.4680   41.6700 C   0  0  0  0  0  0  0  0  0  0  0  0
   43.5010   31.9950   40.7740 H   0  0  0  0  0  0  0  0  0  0  0  0
   42.0760   32.9360   41.2890 H   0  0  0  0  0  0  0  0  0  0  0  0
   43.6760   34.8750   41.9030 C   0  0  0  0  0  0  0  0  0  0  0  0
   43.9000   33.5390   42.2100 C   0  0  0  0  0  0  0  0  0  0  0  0
   44.9600   33.2230   43.0260 C   0  0  0  0  0  0  0  0  0  0  0  0
   45.7700   34.2090   43.5190 C   0  0  0  0  0  0  0  0  0  0  0  0
   45.5750   35.5260   43.2360 C   0  0  0  0  0  0  0  0  0  0  0  0
   44.5000   35.8020   42.4130 C   0  0  0  0  0  0  0  0  0  0  0  0
   45.1770   32.1960   43.2930 H   0  0  0  0  0  0  0  0  0  0  0  0
   46.5970   33.9280   44.1580 H   0  0  0  0  0  0  0  0  0  0  0  0
   46.1820   36.3410   43.5980 H   0  0  0  0  0  0  0  0  0  0  0  0
   44.2690   36.8290   42.1340 H   0  0  0  0  0  0  0  0  0  0  0  0
   40.2710   35.7790   40.5380 C   0  0  0  0  0  0  0  0  0  0  0  0
   41.2930   35.5370   41.4710 C   0  0  0  0  0  0  0  0  0  0  0  0
   42.5450   35.1520   41.0390 C   0  0  0  0  0  0  0  0  0  0  0  0
   42.7170   35.0270   39.6920 N   0  0  0  0  0  0  0  0  0  0  0  0
   41.7250   35.2630   38.7980 C   0  0  0  0  0  0  0  0  0  0  0  0
   40.5080   35.6380   39.2420 N   0  0  0  0  0  0  0  0  0  0  0  0
   39.3320   36.0750   40.9950 H   0  0  0  0  0  0  0  0  0  0  0  0
   41.1820   35.6290   42.5470 H   0  0  0  0  0  0  0  0  0  0  0  0
   41.9520   35.1390   37.7420 H   0  0  0  0  0  0  0  0  0  0  0  0
   42.6510   31.4560   42.6010 N   0  0  0  0  0  0  0  0  0  0  0  0
   43.1820   30.5730   42.4980 H   0  0  0  0  0  0  0  0  0  0  0  0
   40.9840   31.1020   42.6010 S   0  0  0  0  0  0  0  0  0  0  0  0
   40.1680   32.3660   42.4110 O   0  0  0  0  0  0  0  0  0  0  0  0
   39.8870   32.6230   41.4930 H   0  0  0  0  0  0  0  0  0  0  0  0
   40.5760   30.4050   43.8500 O   0  0  0  0  0  0  0  0  0  0  0  0
   41.1800   29.8330   44.3930 H   0  0  0  0  0  0  0  0  0  0  0  0
   40.6660   30.0950   41.2850 O   0  0  0  0  0  0  0  0  0  0  0  0
   40.3550   28.8460   41.7950 C   0  0  0  0  0  0  0  0  0  0  0  0
   40.0300   28.8250   42.8330 H   0  0  0  0  0  0  0  0  0  0  0  0
   39.4780   28.4900   41.1780 H   0  0  0  0  0  0  0  0  0  0  0  0
   41.4650   27.8710   41.4890 C   0  0  0  0  0  0  0  0  0  0  0  0
   41.7910   28.0970   40.4310 H   0  0  0  0  0  0  0  0  0  0  0  0
   40.9750   26.8660   41.3960 H   0  0  0  0  0  0  0  0  0  0  0  0
   42.5820   27.8760   42.4310 C   0  0  0  0  0  0  0  0  0  0  0  0
   42.5190   27.3180   43.6900 C   0  0  0  0  0  0  0  0  0  0  0  0
   41.6030   26.8480   44.0180 H   0  0  0  0  0  0  0  0  0  0  0  0
   43.6800   27.4060   44.4680 C   0  0  0  0  0  0  0  0  0  0  0  0
   43.6640   26.9770   45.4610 H   0  0  0  0  0  0  0  0  0  0  0  0
   44.8140   28.0250   43.9750 C   0  0  0  0  0  3  0  0  0  0  0  0
   44.8460   28.5800   42.6930 C   0  0  0  0  0  3  0  0  0  0  0  0
   43.7100   28.4830   41.9600 N   0  0  0  0  0  0  0  0  0  0  0  0
  1  5  1  0  0  0  0
  1 23  1  0  0  0  0
  2  1  1  0  0  0  0
  3  1  1  0  0  0  0
  4  5  2  0  0  0  0
  4  9  1  0  0  0  0
  5  6  1  0  0  0  0
  6 10  1  0  0  0  0
  6  7  2  0  0  0  0
  7 11  1  0  0  0  0
  8  7  1  0  0  0  0
  8 12  1  0  0  0  0
  9  8  2  0  0  0  0
 13  9  1  0  0  0  0
 14 20  1  0  0  0  0
 14 15  1  0  0  0  0
 15 21  1  0  0  0  0
 16 15  2  0  0  0  0
 16  4  1  0  0  0  0
 17 16  1  0  0  0  0
 18 19  1  0  0  0  0
 18 17  2  0  0  0  0
 19 14  2  0  0  0  0
 22 18  1  0  0  0  0
 23 25  1  0  0  0  0
 24 23  1  0  0  0  0
 25 28  1  0  0  0  0
 26 25  1  0  0  0  0
 27 26  1  0  0  0  0
 28 29  1  0  0  0  0
 30 31  1  0  0  0  0
 30 25  1  0  0  0  0
 31 32  1  0  0  0  0
 33 31  1  0  0  0  0
 34 31  1  0  0  0  0
 34 37  1  0  0  0  0
 35 34  1  0  0  0  0
 36 34  1  0  0  0  0
 37 38  1  0  0  0  0
 38 39  1  0  0  0  0
 38 40  2  0  0  0  0
 40 41  1  0  0  0  0
 42 40  1  0  0  0  0
 43 42  2  0  0  0  0
 44 37  2  0  0  0  0
 44 43  1  0  0  0  0
M  END
>  <minimizedAffinity>
-4.65236473

>  <minimizedRMSD>
0.648584664

$$$$
