
 OpenBabel03252507103D

 35 37  0  0  1  0  0  0  0  0999 V2000
   40.5390   29.1060   37.4030 C   0  0  0  0  0  0  0  0  0  0  0  0
   39.3690   29.7170   37.8920 C   0  0  0  0  0  0  0  0  0  0  0  0
   39.4180   31.0880   38.0950 C   0  0  0  0  0  0  0  0  0  0  0  0
   40.5520   31.7660   37.8250 N   0  0  0  0  0  0  0  0  0  0  0  0
   41.6520   31.1630   37.3610 C   0  0  0  0  0  0  0  0  0  0  0  0
   41.6500   29.8260   37.1490 N   0  0  0  0  0  0  0  0  0  0  0  0
   40.4930   28.0270   37.2470 H   0  0  0  0  0  0  0  0  0  0  0  0
   38.5040   29.0870   38.0800 H   0  0  0  0  0  0  0  0  0  0  0  0
   43.0110   33.2700   37.5090 C   0  0  1  0  0  0  0  0  0  0  0  0
   42.9230   31.8420   37.0580 C   0  0  1  0  0  0  0  0  0  0  0  0
   44.0550   31.2470   37.9130 C   0  0  0  0  0  0  0  0  0  0  0  0
   44.9600   32.2390   38.1200 O   0  0  0  0  0  0  0  0  0  0  0  0
   44.5330   33.4110   37.5150 C   0  0  0  0  0  0  0  0  0  0  0  0
   42.7070   33.3650   38.5910 H   0  0  0  0  0  0  0  0  0  0  0  0
   43.1780   31.7750   35.9890 H   0  0  0  0  0  0  0  0  0  0  0  0
   44.5450   30.4960   37.2470 H   0  0  0  0  0  0  0  0  0  0  0  0
   43.6770   30.7100   38.7790 H   0  0  0  0  0  0  0  0  0  0  0  0
   44.9370   33.4570   36.4840 H   0  0  0  0  0  0  0  0  0  0  0  0
   44.8290   34.2760   38.1430 H   0  0  0  0  0  0  0  0  0  0  0  0
   42.3620   34.1610   36.7060 O   0  0  0  0  0  0  0  0  0  0  0  0
   41.8750   34.8430   37.2240 H   0  0  0  0  0  0  0  0  0  0  0  0
   38.2580   31.6830   38.5760 O   0  0  0  0  0  0  0  0  0  0  0  0
   38.9790   33.4850   40.3950 O   0  0  0  0  0  0  0  0  0  0  0  0
   38.1790   32.2050   40.2110 P   0  0  1  0  0  0  0  0  0  0  0  0
   36.5680   32.4030   40.6160 O   0  0  0  0  0  0  0  0  0  0  0  0
   36.2840   31.8640   41.3890 H   0  0  0  0  0  0  0  0  0  0  0  0
   38.8900   30.9780   41.1350 O   0  0  0  0  0  0  0  0  0  0  0  0
   38.1160   29.9270   41.6170 C   0  0  0  0  0  0  0  0  0  0  0  0
   38.4860   29.4650   42.8710 C   0  0  0  0  0  0  0  0  0  0  0  0
   39.3160   29.8920   43.4300 H   0  0  0  0  0  0  0  0  0  0  0  0
   37.8150   28.4300   43.4800 C   0  0  0  0  0  0  0  0  0  0  0  0
   38.1290   28.0840   44.4730 H   0  0  0  0  0  0  0  0  0  0  0  0
   36.7630   27.8410   42.8450 C   0  0  0  0  0  3  0  0  0  0  0  0
   36.4320   28.3370   41.5960 C   0  0  0  0  0  3  0  0  0  0  0  0
   37.0760   29.3510   40.9810 N   0  0  0  0  0  0  0  0  0  0  0  0
  1  2  1  0  0  0  0
  2  8  1  0  0  0  0
  2  3  2  0  0  0  0
  3 22  1  0  0  0  0
  4  3  1  0  0  0  0
  5  4  2  0  0  0  0
  6  5  1  0  0  0  0
  6  1  2  0  0  0  0
  7  1  1  0  0  0  0
  9 13  1  0  0  0  0
  9 14  1  1  0  0  0
 10 15  1  6  0  0  0
 10  5  1  0  0  0  0
 10  9  1  0  0  0  0
 10 11  1  0  0  0  0
 11 12  1  0  0  0  0
 11 17  1  0  0  0  0
 13 12  1  0  0  0  0
 13 19  1  0  0  0  0
 16 11  1  0  0  0  0
 18 13  1  0  0  0  0
 20 21  1  0  0  0  0
 20  9  1  0  0  0  0
 22 24  1  0  0  0  0
 24 23  2  1  0  0  0
 24 25  1  0  0  0  0
 24 27  1  0  0  0  0
 25 26  1  0  0  0  0
 27 28  1  0  0  0  0
 28 29  1  0  0  0  0
 29 30  1  0  0  0  0
 29 31  2  0  0  0  0
 31 32  1  0  0  0  0
 33 31  1  0  0  0  0
 34 33  2  0  0  0  0
 35 34  1  0  0  0  0
 35 28  2  0  0  0  0
M  END
>  <minimizedAffinity>
-5.81088543

$$$$

 OpenBabel03252507103D

 35 37  0  0  1  0  0  0  0  0999 V2000
   36.9060   30.4920   37.9590 C   0  0  0  0  0  0  0  0  0  0  0  0
   36.3560   29.8610   39.0910 C   0  0  0  0  0  0  0  0  0  0  0  0
   36.7540   30.3430   40.3290 C   0  0  0  0  0  0  0  0  0  0  0  0
   37.6280   31.3670   40.4020 N   0  0  0  0  0  0  0  0  0  0  0  0
   38.1370   31.9510   39.3120 C   0  0  0  0  0  0  0  0  0  0  0  0
   37.7780   31.5130   38.0820 N   0  0  0  0  0  0  0  0  0  0  0  0
   36.5890   30.1070   36.9890 H   0  0  0  0  0  0  0  0  0  0  0  0
   35.6600   29.0430   38.9320 H   0  0  0  0  0  0  0  0  0  0  0  0
   39.6630   33.4140   40.6680 C   0  0  1  0  0  0  0  0  0  0  0  0
   39.1020   33.0640   39.3220 C   0  0  1  0  0  0  0  0  0  0  0  0
   40.4020   32.6400   38.6200 C   0  0  0  0  0  0  0  0  0  0  0  0
   41.4130   33.3410   39.1960 O   0  0  0  0  0  0  0  0  0  0  0  0
   40.9170   34.1540   40.2040 C   0  0  0  0  0  0  0  0  0  0  0  0
   40.0470   32.4920   41.1910 H   0  0  0  0  0  0  0  0  0  0  0  0
   38.6890   33.9670   38.8470 H   0  0  0  0  0  0  0  0  0  0  0  0
   40.2960   33.0240   37.5760 H   0  0  0  0  0  0  0  0  0  0  0  0
   40.5010   31.5590   38.5550 H   0  0  0  0  0  0  0  0  0  0  0  0
   40.6650   35.1460   39.7810 H   0  0  0  0  0  0  0  0  0  0  0  0
   41.6540   34.2020   41.0310 H   0  0  0  0  0  0  0  0  0  0  0  0
   38.8300   34.1500   41.4580 O   0  0  0  0  0  0  0  0  0  0  0  0
   38.8430   33.8500   42.3950 H   0  0  0  0  0  0  0  0  0  0  0  0
   36.2050   29.7160   41.4410 O   0  0  0  0  0  0  0  0  0  0  0  0
   38.2330   29.4480   43.1430 O   0  0  0  0  0  0  0  0  0  0  0  0
   37.1710   28.6600   42.3920 P   0  0  1  0  0  0  0  0  0  0  0  0
   36.1590   27.8190   43.4260 O   0  0  0  0  0  0  0  0  0  0  0  0
   36.2220   26.8420   43.3340 H   0  0  0  0  0  0  0  0  0  0  0  0
   37.9350   27.6100   41.3060 O   0  0  0  0  0  0  0  0  0  0  0  0
   37.4000   26.3510   41.0550 C   0  0  0  0  0  0  0  0  0  0  0  0
   36.8580   26.1940   39.7880 C   0  0  0  0  0  0  0  0  0  0  0  0
   36.8540   26.9950   39.0510 H   0  0  0  0  0  0  0  0  0  0  0  0
   36.2910   25.0040   39.3940 C   0  0  0  0  0  0  0  0  0  0  0  0
   35.8700   24.9080   38.3850 H   0  0  0  0  0  0  0  0  0  0  0  0
   36.2580   23.9530   40.2590 C   0  0  0  0  0  3  0  0  0  0  0  0
   36.8110   24.1580   41.5110 C   0  0  0  0  0  3  0  0  0  0  0  0
   37.3710   25.3160   41.9180 N   0  0  0  0  0  0  0  0  0  0  0  0
  1  6  2  0  0  0  0
  1  2  1  0  0  0  0
  2  3  2  0  0  0  0
  3  4  1  0  0  0  0
  3 22  1  0  0  0  0
  5 10  1  0  0  0  0
  5  4  2  0  0  0  0
  6  5  1  0  0  0  0
  7  1  1  0  0  0  0
  8  2  1  0  0  0  0
  9 14  1  1  0  0  0
  9 20  1  0  0  0  0
 10 15  1  6  0  0  0
 10  9  1  0  0  0  0
 11 12  1  0  0  0  0
 11 10  1  0  0  0  0
 12 13  1  0  0  0  0
 13  9  1  0  0  0  0
 13 19  1  0  0  0  0
 16 11  1  0  0  0  0
 17 11  1  0  0  0  0
 18 13  1  0  0  0  0
 20 21  1  0  0  0  0
 22 24  1  0  0  0  0
 24 23  2  1  0  0  0
 24 25  1  0  0  0  0
 26 25  1  0  0  0  0
 27 24  1  0  0  0  0
 28 27  1  0  0  0  0
 28 35  1  0  0  0  0
 29 28  2  0  0  0  0
 30 29  1  0  0  0  0
 31 29  1  0  0  0  0
 31 33  2  0  0  0  0
 32 31  1  0  0  0  0
 33 34  1  0  0  0  0
 34 35  2  0  0  0  0
M  END
>  <minimizedAffinity>
-5.54837513

$$$$

 OpenBabel03252507103D

 35 37  0  0  1  0  0  0  0  0999 V2000
   38.9850   27.9570   43.3010 C   0  0  0  0  0  0  0  0  0  0  0  0
   38.4120   29.1960   42.9540 C   0  0  0  0  0  0  0  0  0  0  0  0
   37.3070   29.1600   42.1180 C   0  0  0  0  0  0  0  0  0  0  0  0
   36.8340   27.9760   41.6790 N   0  0  0  0  0  0  0  0  0  0  0  0
   37.3950   26.8110   42.0220 C   0  0  0  0  0  0  0  0  0  0  0  0
   38.4770   26.7980   42.8360 N   0  0  0  0  0  0  0  0  0  0  0  0
   39.8550   27.9930   43.9580 H   0  0  0  0  0  0  0  0  0  0  0  0
   38.8640   30.0980   43.3570 H   0  0  0  0  0  0  0  0  0  0  0  0
   37.1220   25.2090   40.1080 C   0  0  1  0  0  0  0  0  0  0  0  0
   36.9360   25.4870   41.5700 C   0  0  1  0  0  0  0  0  0  0  0  0
   37.8470   24.3900   42.1440 C   0  0  0  0  0  0  0  0  0  0  0  0
   37.8460   23.3650   41.2530 O   0  0  0  0  0  0  0  0  0  0  0  0
   37.0540   23.6830   40.1600 C   0  0  0  0  0  0  0  0  0  0  0  0
   38.1770   25.4420   39.7900 H   0  0  0  0  0  0  0  0  0  0  0  0
   35.8880   25.2990   41.8530 H   0  0  0  0  0  0  0  0  0  0  0  0
   37.3120   24.0280   43.0550 H   0  0  0  0  0  0  0  0  0  0  0  0
   38.8070   24.7820   42.4710 H   0  0  0  0  0  0  0  0  0  0  0  0
   36.0200   23.3310   40.3440 H   0  0  0  0  0  0  0  0  0  0  0  0
   37.5080   23.2540   39.2430 H   0  0  0  0  0  0  0  0  0  0  0  0
   36.1930   25.7900   39.2960 O   0  0  0  0  0  0  0  0  0  0  0  0
   36.5950   26.1650   38.4800 H   0  0  0  0  0  0  0  0  0  0  0  0
   36.7470   30.3870   41.7820 O   0  0  0  0  0  0  0  0  0  0  0  0
   36.3140   30.3440   39.1570 O   0  0  0  0  0  0  0  0  0  0  0  0
   37.0730   31.0850   40.2460 P   0  0  1  0  0  0  0  0  0  0  0  0
   36.6600   32.7050   40.3140 O   0  0  0  0  0  0  0  0  0  0  0  0
   37.4020   33.3130   40.0930 H   0  0  0  0  0  0  0  0  0  0  0  0
   38.7340   30.8940   39.9830 O   0  0  0  0  0  0  0  0  0  0  0  0
   39.5420   32.0070   39.7710 C   0  0  0  0  0  0  0  0  0  0  0  0
   40.2530   31.9870   38.5800 C   0  0  0  0  0  0  0  0  0  0  0  0
   40.1820   31.1640   37.8710 H   0  0  0  0  0  0  0  0  0  0  0  0
   41.0950   33.0170   38.2310 C   0  0  0  0  0  0  0  0  0  0  0  0
   41.6450   32.9750   37.2820 H   0  0  0  0  0  0  0  0  0  0  0  0
   41.2390   34.0840   39.0650 C   0  0  0  0  0  3  0  0  0  0  0  0
   40.5100   34.0580   40.2410 C   0  0  0  0  0  3  0  0  0  0  0  0
   39.6790   33.0580   40.6030 N   0  0  0  0  0  0  0  0  0  0  0  0
  1  7  1  0  0  0  0
  2  1  1  0  0  0  0
  2  8  1  0  0  0  0
  3  2  2  0  0  0  0
  4  5  2  0  0  0  0
  4  3  1  0  0  0  0
  5  6  1  0  0  0  0
  6  1  2  0  0  0  0
  9 14  1  6  0  0  0
  9 13  1  0  0  0  0
  9 10  1  0  0  0  0
 10 15  1  1  0  0  0
 10  5  1  0  0  0  0
 10 11  1  0  0  0  0
 11 17  1  0  0  0  0
 11 16  1  0  0  0  0
 12 11  1  0  0  0  0
 13 18  1  0  0  0  0
 13 12  1  0  0  0  0
 19 13  1  0  0  0  0
 20  9  1  0  0  0  0
 21 20  1  0  0  0  0
 22  3  1  0  0  0  0
 24 23  2  6  0  0  0
 24 25  1  0  0  0  0
 24 22  1  0  0  0  0
 26 25  1  0  0  0  0
 27 24  1  0  0  0  0
 28 27  1  0  0  0  0
 28 35  1  0  0  0  0
 29 28  2  0  0  0  0
 30 29  1  0  0  0  0
 31 29  1  0  0  0  0
 31 33  2  0  0  0  0
 32 31  1  0  0  0  0
 33 34  1  0  0  0  0
 34 35  2  0  0  0  0
M  END
>  <minimizedAffinity>
-5.4851594

$$$$

 OpenBabel03252507103D

 35 37  0  0  1  0  0  0  0  0999 V2000
   39.5330   28.9590   37.5880 C   0  0  0  0  0  0  0  0  0  0  0  0
   39.8250   30.1190   38.3310 C   0  0  0  0  0  0  0  0  0  0  0  0
   38.8740   31.1290   38.3090 C   0  0  0  0  0  0  0  0  0  0  0  0
   37.7410   30.9690   37.5980 N   0  0  0  0  0  0  0  0  0  0  0  0
   37.4860   29.8570   36.8990 C   0  0  0  0  0  0  0  0  0  0  0  0
   38.3860   28.8450   36.8910 N   0  0  0  0  0  0  0  0  0  0  0  0
   40.2860   28.1700   37.6090 H   0  0  0  0  0  0  0  0  0  0  0  0
   40.7650   30.1560   38.8730 H   0  0  0  0  0  0  0  0  0  0  0  0
   36.4110   28.5910   35.0160 C   0  0  1  0  0  0  0  0  0  0  0  0
   36.2750   29.6240   36.0940 C   0  0  1  0  0  0  0  0  0  0  0  0
   35.1970   28.9400   36.9510 C   0  0  0  0  0  0  0  0  0  0  0  0
   34.4460   28.1790   36.1130 O   0  0  0  0  0  0  0  0  0  0  0  0
   34.9280   28.2780   34.8170 C   0  0  0  0  0  0  0  0  0  0  0  0
   36.8560   27.6410   35.4280 H   0  0  0  0  0  0  0  0  0  0  0  0
   35.8840   30.5600   35.6650 H   0  0  0  0  0  0  0  0  0  0  0  0
   34.5440   29.7760   37.3020 H   0  0  0  0  0  0  0  0  0  0  0  0
   35.6140   28.4670   37.8360 H   0  0  0  0  0  0  0  0  0  0  0  0
   34.4070   29.1050   34.2960 H   0  0  0  0  0  0  0  0  0  0  0  0
   34.8150   27.2970   34.3100 H   0  0  0  0  0  0  0  0  0  0  0  0
   37.0540   29.0230   33.8930 O   0  0  0  0  0  0  0  0  0  0  0  0
   37.6770   28.3480   33.5380 H   0  0  0  0  0  0  0  0  0  0  0  0
   39.1690   32.2700   39.0470 O   0  0  0  0  0  0  0  0  0  0  0  0
   38.8650   33.8460   41.1680 O   0  0  0  0  0  0  0  0  0  0  0  0
   38.4250   32.5170   40.5750 P   0  0  1  0  0  0  0  0  0  0  0  0
   36.7670   32.4350   40.3660 O   0  0  0  0  0  0  0  0  0  0  0  0
   36.3300   31.7510   40.9210 H   0  0  0  0  0  0  0  0  0  0  0  0
   38.9720   31.2650   41.5750 O   0  0  0  0  0  0  0  0  0  0  0  0
   38.1590   30.1640   41.8270 C   0  0  0  0  0  0  0  0  0  0  0  0
   38.4400   29.4950   43.0090 C   0  0  0  0  0  0  0  0  0  0  0  0
   39.2360   29.8090   43.6830 H   0  0  0  0  0  0  0  0  0  0  0  0
   37.7220   28.3870   43.3930 C   0  0  0  0  0  0  0  0  0  0  0  0
   37.9670   27.8770   44.3340 H   0  0  0  0  0  0  0  0  0  0  0  0
   36.7100   27.9310   42.6040 C   0  0  0  0  0  3  0  0  0  0  0  0
   36.4670   28.6310   41.4350 C   0  0  0  0  0  3  0  0  0  0  0  0
   37.1590   29.7200   41.0390 N   0  0  0  0  0  0  0  0  0  0  0  0
  1  7  1  0  0  0  0
  1  2  1  0  0  0  0
  2  8  1  0  0  0  0
  3  2  2  0  0  0  0
  3 22  1  0  0  0  0
  4  3  1  0  0  0  0
  5  4  2  0  0  0  0
  6  5  1  0  0  0  0
  6  1  2  0  0  0  0
  9 14  1  1  0  0  0
  9 10  1  0  0  0  0
 10 15  1  6  0  0  0
 10  5  1  0  0  0  0
 10 11  1  0  0  0  0
 11 16  1  0  0  0  0
 11 17  1  0  0  0  0
 12 11  1  0  0  0  0
 13  9  1  0  0  0  0
 13 12  1  0  0  0  0
 18 13  1  0  0  0  0
 19 13  1  0  0  0  0
 20  9  1  0  0  0  0
 21 20  1  0  0  0  0
 22 24  1  0  0  0  0
 24 23  2  1  0  0  0
 24 27  1  0  0  0  0
 25 24  1  0  0  0  0
 25 26  1  0  0  0  0
 27 28  1  0  0  0  0
 28 29  1  0  0  0  0
 29 31  2  0  0  0  0
 29 30  1  0  0  0  0
 31 32  1  0  0  0  0
 33 31  1  0  0  0  0
 34 33  2  0  0  0  0
 35 34  1  0  0  0  0
 35 28  2  0  0  0  0
M  END
>  <minimizedAffinity>
-5.41513538

$$$$

 OpenBabel03252507103D

 35 37  0  0  1  0  0  0  0  0999 V2000
   35.2480   28.3650   36.7400 C   0  0  0  0  0  0  0  0  0  0  0  0
   35.4260   27.1310   37.3930 C   0  0  0  0  0  0  0  0  0  0  0  0
   36.0060   27.1690   38.6520 C   0  0  0  0  0  0  0  0  0  0  0  0
   36.3660   28.3510   39.1900 N   0  0  0  0  0  0  0  0  0  0  0  0
   36.1860   29.5120   38.5500 C   0  0  0  0  0  0  0  0  0  0  0  0
   35.6250   29.5230   37.3180 N   0  0  0  0  0  0  0  0  0  0  0  0
   34.7930   28.3270   35.7490 H   0  0  0  0  0  0  0  0  0  0  0  0
   35.1040   26.2290   36.8790 H   0  0  0  0  0  0  0  0  0  0  0  0
   36.7940   30.8940   40.5570 C   0  0  1  0  0  0  0  0  0  0  0  0
   36.5670   30.8340   39.0750 C   0  0  1  0  0  0  0  0  0  0  0  0
   37.9820   31.2020   38.5980 C   0  0  0  0  0  0  0  0  0  0  0  0
   38.5300   31.9960   39.5540 O   0  0  0  0  0  0  0  0  0  0  0  0
   37.6390   32.1660   40.6030 C   0  0  0  0  0  0  0  0  0  0  0  0
   37.4890   30.0710   40.8870 H   0  0  0  0  0  0  0  0  0  0  0  0
   35.8500   31.6140   38.7780 H   0  0  0  0  0  0  0  0  0  0  0  0
   37.8170   31.8440   37.6990 H   0  0  0  0  0  0  0  0  0  0  0  0
   38.5450   30.3320   38.2720 H   0  0  0  0  0  0  0  0  0  0  0  0
   37.0230   33.0670   40.4150 H   0  0  0  0  0  0  0  0  0  0  0  0
   38.2030   32.2100   41.5580 H   0  0  0  0  0  0  0  0  0  0  0  0
   35.6540   30.9440   41.3050 O   0  0  0  0  0  0  0  0  0  0  0  0
   35.7090   30.3740   42.1050 H   0  0  0  0  0  0  0  0  0  0  0  0
   36.1770   25.9460   39.2900 O   0  0  0  0  0  0  0  0  0  0  0  0
   37.9150   23.9400   39.1130 O   0  0  0  0  0  0  0  0  0  0  0  0
   37.7610   25.3660   39.6170 P   0  0  1  0  0  0  0  0  0  0  0  0
   38.8550   26.4110   38.9030 O   0  0  0  0  0  0  0  0  0  0  0  0
   39.5010   26.8000   39.5350 H   0  0  0  0  0  0  0  0  0  0  0  0
   37.9280   25.3720   41.3020 O   0  0  0  0  0  0  0  0  0  0  0  0
   38.0080   26.5760   41.9930 C   0  0  0  0  0  0  0  0  0  0  0  0
   36.9910   26.7830   42.9130 C   0  0  0  0  0  0  0  0  0  0  0  0
   36.1950   26.0590   43.0770 H   0  0  0  0  0  0  0  0  0  0  0  0
   36.9340   27.9280   43.6730 C   0  0  0  0  0  0  0  0  0  0  0  0
   36.1180   28.0670   44.3930 H   0  0  0  0  0  0  0  0  0  0  0  0
   37.8940   28.8840   43.5260 C   0  0  0  0  0  3  0  0  0  0  0  0
   38.8870   28.6320   42.5960 C   0  0  0  0  0  3  0  0  0  0  0  0
   38.9620   27.5160   41.8410 N   0  0  0  0  0  0  0  0  0  0  0  0
  1  6  2  0  0  0  0
  1  2  1  0  0  0  0
  2  3  2  0  0  0  0
  3  4  1  0  0  0  0
  3 22  1  0  0  0  0
  5 10  1  0  0  0  0
  5  4  2  0  0  0  0
  6  5  1  0  0  0  0
  7  1  1  0  0  0  0
  8  2  1  0  0  0  0
  9 13  1  0  0  0  0
  9 14  1  1  0  0  0
  9 20  1  0  0  0  0
 10 15  1  6  0  0  0
 10  9  1  0  0  0  0
 11 10  1  0  0  0  0
 11 12  1  0  0  0  0
 12 13  1  0  0  0  0
 13 19  1  0  0  0  0
 16 11  1  0  0  0  0
 17 11  1  0  0  0  0
 18 13  1  0  0  0  0
 20 21  1  0  0  0  0
 22 24  1  0  0  0  0
 24 23  2  6  0  0  0
 24 27  1  0  0  0  0
 25 26  1  0  0  0  0
 25 24  1  0  0  0  0
 27 28  1  0  0  0  0
 28 29  1  0  0  0  0
 29 30  1  0  0  0  0
 29 31  2  0  0  0  0
 31 32  1  0  0  0  0
 33 31  1  0  0  0  0
 34 33  2  0  0  0  0
 35 28  2  0  0  0  0
 35 34  1  0  0  0  0
M  END
>  <minimizedAffinity>
-5.35440874

$$$$

 OpenBabel03252507103D

 35 37  0  0  1  0  0  0  0  0999 V2000
   37.8800   28.9270   43.4510 C   0  0  0  0  0  0  0  0  0  0  0  0
   37.9530   27.5230   43.5320 C   0  0  0  0  0  0  0  0  0  0  0  0
   37.6000   26.8130   42.3940 C   0  0  0  0  0  0  0  0  0  0  0  0
   37.2120   27.4730   41.2850 N   0  0  0  0  0  0  0  0  0  0  0  0
   37.1510   28.8080   41.2320 C   0  0  0  0  0  0  0  0  0  0  0  0
   37.4850   29.5420   42.3190 N   0  0  0  0  0  0  0  0  0  0  0  0
   38.1580   29.4780   44.3510 H   0  0  0  0  0  0  0  0  0  0  0  0
   38.2770   27.0810   44.4700 H   0  0  0  0  0  0  0  0  0  0  0  0
   37.0660   31.0480   40.0990 C   0  0  1  0  0  0  0  0  0  0  0  0
   36.7250   29.5880   40.0570 C   0  0  1  0  0  0  0  0  0  0  0  0
   37.5530   29.1810   38.8270 C   0  0  0  0  0  0  0  0  0  0  0  0
   37.6350   30.2730   38.0230 O   0  0  0  0  0  0  0  0  0  0  0  0
   36.9720   31.3440   38.6030 C   0  0  0  0  0  0  0  0  0  0  0  0
   38.1530   31.1960   40.3570 H   0  0  0  0  0  0  0  0  0  0  0  0
   35.6510   29.4640   39.8510 H   0  0  0  0  0  0  0  0  0  0  0  0
   36.9170   28.4340   38.2940 H   0  0  0  0  0  0  0  0  0  0  0  0
   38.4770   28.6780   39.1010 H   0  0  0  0  0  0  0  0  0  0  0  0
   35.9190   31.3510   38.2580 H   0  0  0  0  0  0  0  0  0  0  0  0
   37.5170   32.2810   38.3690 H   0  0  0  0  0  0  0  0  0  0  0  0
   36.2390   31.8030   40.8790 O   0  0  0  0  0  0  0  0  0  0  0  0
   36.7330   32.4700   41.4080 H   0  0  0  0  0  0  0  0  0  0  0  0
   37.6760   25.4280   42.4830 O   0  0  0  0  0  0  0  0  0  0  0  0
   40.1490   25.6190   41.5210 O   0  0  0  0  0  0  0  0  0  0  0  0
   39.1060   24.6160   41.9880 P   0  0  1  0  0  0  0  0  0  0  0  0
   39.6490   23.6920   43.2730 O   0  0  0  0  0  0  0  0  0  0  0  0
   39.7360   22.7340   43.0650 H   0  0  0  0  0  0  0  0  0  0  0  0
   38.6650   23.6350   40.6810 O   0  0  0  0  0  0  0  0  0  0  0  0
   37.6560   24.0370   39.8120 C   0  0  0  0  0  0  0  0  0  0  0  0
   36.4620   23.3450   39.9520 C   0  0  0  0  0  0  0  0  0  0  0  0
   36.3300   22.5500   40.6840 H   0  0  0  0  0  0  0  0  0  0  0  0
   35.3720   23.6290   39.1630 C   0  0  0  0  0  0  0  0  0  0  0  0
   34.4400   23.0660   39.2950 H   0  0  0  0  0  0  0  0  0  0  0  0
   35.4580   24.6120   38.2230 C   0  0  0  0  0  3  0  0  0  0  0  0
   36.6680   25.2730   38.1210 C   0  0  0  0  0  3  0  0  0  0  0  0
   37.7500   25.0110   38.8840 N   0  0  0  0  0  0  0  0  0  0  0  0
  1  2  1  0  0  0  0
  1  7  1  0  0  0  0
  2  8  1  0  0  0  0
  3 22  1  0  0  0  0
  3  2  2  0  0  0  0
  4  3  1  0  0  0  0
  5  4  2  0  0  0  0
  5  6  1  0  0  0  0
  6  1  2  0  0  0  0
  9 14  1  1  0  0  0
  9 20  1  0  0  0  0
 10 15  1  6  0  0  0
 10  9  1  0  0  0  0
 10  5  1  0  0  0  0
 11 17  1  0  0  0  0
 11 10  1  0  0  0  0
 12 13  1  0  0  0  0
 12 11  1  0  0  0  0
 13  9  1  0  0  0  0
 16 11  1  0  0  0  0
 18 13  1  0  0  0  0
 19 13  1  0  0  0  0
 20 21  1  0  0  0  0
 24 23  2  6  0  0  0
 24 22  1  0  0  0  0
 24 25  1  0  0  0  0
 26 25  1  0  0  0  0
 27 24  1  0  0  0  0
 28 29  1  0  0  0  0
 28 27  1  0  0  0  0
 29 30  1  0  0  0  0
 31 32  1  0  0  0  0
 31 29  2  0  0  0  0
 33 31  1  0  0  0  0
 34 33  2  0  0  0  0
 34 35  1  0  0  0  0
 35 28  2  0  0  0  0
M  END
>  <minimizedAffinity>
-5.3415494

$$$$

 OpenBabel03252507103D

 35 37  0  0  1  0  0  0  0  0999 V2000
   36.9330   27.4900   43.4940 C   0  0  0  0  0  0  0  0  0  0  0  0
   37.4520   28.7980   43.4310 C   0  0  0  0  0  0  0  0  0  0  0  0
   38.5350   28.9990   42.5890 C   0  0  0  0  0  0  0  0  0  0  0  0
   39.0380   27.9670   41.8830 N   0  0  0  0  0  0  0  0  0  0  0  0
   38.5280   26.7330   41.9590 C   0  0  0  0  0  0  0  0  0  0  0  0
   37.4700   26.4900   42.7690 N   0  0  0  0  0  0  0  0  0  0  0  0
   36.0820   27.3390   44.1590 H   0  0  0  0  0  0  0  0  0  0  0  0
   36.9800   29.5650   44.0390 H   0  0  0  0  0  0  0  0  0  0  0  0
   38.3150   24.2750   41.4920 C   0  0  1  0  0  0  0  0  0  0  0  0
   39.0360   25.5620   41.2230 C   0  0  1  0  0  0  0  0  0  0  0  0
   38.7250   25.7070   39.7250 C   0  0  0  0  0  0  0  0  0  0  0  0
   38.5780   24.4520   39.2260 O   0  0  0  0  0  0  0  0  0  0  0  0
   38.7380   23.5150   40.2350 C   0  0  0  0  0  0  0  0  0  0  0  0
   37.2010   24.4120   41.3870 H   0  0  0  0  0  0  0  0  0  0  0  0
   40.1170   25.4210   41.3770 H   0  0  0  0  0  0  0  0  0  0  0  0
   39.6620   26.1240   39.2820 H   0  0  0  0  0  0  0  0  0  0  0  0
   37.9330   26.4280   39.5360 H   0  0  0  0  0  0  0  0  0  0  0  0
   39.8020   23.2120   40.2860 H   0  0  0  0  0  0  0  0  0  0  0  0
   38.0470   22.6650   40.0580 H   0  0  0  0  0  0  0  0  0  0  0  0
   38.6560   23.6660   42.6640 O   0  0  0  0  0  0  0  0  0  0  0  0
   37.8730   23.2980   43.1340 H   0  0  0  0  0  0  0  0  0  0  0  0
   39.0400   30.2930   42.5320 O   0  0  0  0  0  0  0  0  0  0  0  0
   39.6870   32.5060   41.2050 O   0  0  0  0  0  0  0  0  0  0  0  0
   38.9550   31.1820   41.0640 P   0  0  1  0  0  0  0  0  0  0  0  0
   39.5940   30.2320   39.8440 O   0  0  0  0  0  0  0  0  0  0  0  0
   38.9710   30.0720   39.0990 H   0  0  0  0  0  0  0  0  0  0  0  0
   37.3120   31.4910   40.7940 O   0  0  0  0  0  0  0  0  0  0  0  0
   36.5850   30.6940   39.9150 C   0  0  0  0  0  0  0  0  0  0  0  0
   35.5560   29.9740   40.5040 C   0  0  0  0  0  0  0  0  0  0  0  0
   35.3390   30.0300   41.5700 H   0  0  0  0  0  0  0  0  0  0  0  0
   34.7500   29.1410   39.7640 C   0  0  0  0  0  0  0  0  0  0  0  0
   33.9430   28.5830   40.2560 H   0  0  0  0  0  0  0  0  0  0  0  0
   34.9570   29.0160   38.4240 C   0  0  0  0  0  3  0  0  0  0  0  0
   35.9950   29.7540   37.8830 C   0  0  0  0  0  3  0  0  0  0  0  0
   36.7980   30.5760   38.5900 N   0  0  0  0  0  0  0  0  0  0  0  0
  1  7  1  0  0  0  0
  2  1  1  0  0  0  0
  2  8  1  0  0  0  0
  3  2  2  0  0  0  0
  4  5  2  0  0  0  0
  4  3  1  0  0  0  0
  5  6  1  0  0  0  0
  6  1  2  0  0  0  0
  9 14  1  6  0  0  0
  9 20  1  0  0  0  0
 10 15  1  1  0  0  0
 10  9  1  0  0  0  0
 10  5  1  0  0  0  0
 11 10  1  0  0  0  0
 12 11  1  0  0  0  0
 12 13  1  0  0  0  0
 13 18  1  0  0  0  0
 13  9  1  0  0  0  0
 16 11  1  0  0  0  0
 17 11  1  0  0  0  0
 19 13  1  0  0  0  0
 20 21  1  0  0  0  0
 22  3  1  0  0  0  0
 24 23  2  1  0  0  0
 24 22  1  0  0  0  0
 25 24  1  0  0  0  0
 26 25  1  0  0  0  0
 27 24  1  0  0  0  0
 28 29  1  0  0  0  0
 28 27  1  0  0  0  0
 29 30  1  0  0  0  0
 31 32  1  0  0  0  0
 31 29  2  0  0  0  0
 33 31  1  0  0  0  0
 34 33  2  0  0  0  0
 34 35  1  0  0  0  0
 35 28  2  0  0  0  0
M  END
>  <minimizedAffinity>
-5.28170633

$$$$

 OpenBabel03252507103D

 35 37  0  0  1  0  0  0  0  0999 V2000
   40.7720   30.3300   42.2520 C   0  0  0  0  0  0  0  0  0  0  0  0
   40.4170   28.9990   42.5440 C   0  0  0  0  0  0  0  0  0  0  0  0
   39.1180   28.6190   42.2390 C   0  0  0  0  0  0  0  0  0  0  0  0
   38.2690   29.5100   41.6910 N   0  0  0  0  0  0  0  0  0  0  0  0
   38.6300   30.7700   41.4230 C   0  0  0  0  0  0  0  0  0  0  0  0
   39.8870   31.1860   41.7040 N   0  0  0  0  0  0  0  0  0  0  0  0
   41.7950   30.6220   42.4960 H   0  0  0  0  0  0  0  0  0  0  0  0
   41.1710   28.3540   42.9860 H   0  0  0  0  0  0  0  0  0  0  0  0
   38.4270   33.0700   40.4340 C   0  0  1  0  0  0  0  0  0  0  0  0
   37.7490   31.7950   40.8360 C   0  0  1  0  0  0  0  0  0  0  0  0
   37.2560   31.3350   39.4540 C   0  0  0  0  0  0  0  0  0  0  0  0
   37.0520   32.4550   38.7120 O   0  0  0  0  0  0  0  0  0  0  0  0
   37.3770   33.5830   39.4500 C   0  0  0  0  0  0  0  0  0  0  0  0
   39.3360   32.8550   39.8020 H   0  0  0  0  0  0  0  0  0  0  0  0
   36.8920   32.0210   41.4910 H   0  0  0  0  0  0  0  0  0  0  0  0
   36.2500   30.8880   39.6480 H   0  0  0  0  0  0  0  0  0  0  0  0
   37.8790   30.5510   39.0340 H   0  0  0  0  0  0  0  0  0  0  0  0
   36.4730   33.9460   39.9780 H   0  0  0  0  0  0  0  0  0  0  0  0
   37.8280   34.3420   38.7780 H   0  0  0  0  0  0  0  0  0  0  0  0
   38.7000   33.9190   41.4660 O   0  0  0  0  0  0  0  0  0  0  0  0
   39.5900   34.3320   41.3830 H   0  0  0  0  0  0  0  0  0  0  0  0
   38.7760   27.3030   42.5290 O   0  0  0  0  0  0  0  0  0  0  0  0
   36.2860   27.3560   43.4640 O   0  0  0  0  0  0  0  0  0  0  0  0
   37.1490   26.7830   42.3510 P   0  0  1  0  0  0  0  0  0  0  0  0
   36.6170   27.2500   40.8350 O   0  0  0  0  0  0  0  0  0  0  0  0
   36.2990   26.5030   40.2790 H   0  0  0  0  0  0  0  0  0  0  0  0
   37.1740   25.0960   42.4920 O   0  0  0  0  0  0  0  0  0  0  0  0
   37.1660   24.2980   41.3520 C   0  0  0  0  0  0  0  0  0  0  0  0
   38.2940   23.5080   41.1910 C   0  0  0  0  0  0  0  0  0  0  0  0
   39.1180   23.5150   41.9020 H   0  0  0  0  0  0  0  0  0  0  0  0
   38.4320   22.6670   40.1120 C   0  0  0  0  0  0  0  0  0  0  0  0
   39.3350   22.0530   40.0100 H   0  0  0  0  0  0  0  0  0  0  0  0
   37.4430   22.6000   39.1770 C   0  0  0  0  0  3  0  0  0  0  0  0
   36.3380   23.4070   39.3810 C   0  0  0  0  0  3  0  0  0  0  0  0
   36.1820   24.2400   40.4320 N   0  0  0  0  0  0  0  0  0  0  0  0
  1  7  1  0  0  0  0
  1  2  1  0  0  0  0
  2  8  1  0  0  0  0
  3 22  1  0  0  0  0
  3  2  2  0  0  0  0
  4  3  1  0  0  0  0
  5  4  2  0  0  0  0
  5  6  1  0  0  0  0
  6  1  2  0  0  0  0
  9 14  1  6  0  0  0
  9 10  1  0  0  0  0
  9 20  1  0  0  0  0
 10  5  1  0  0  0  0
 10 15  1  1  0  0  0
 11 16  1  0  0  0  0
 11 10  1  0  0  0  0
 12 13  1  0  0  0  0
 12 11  1  0  0  0  0
 13 18  1  0  0  0  0
 13  9  1  0  0  0  0
 17 11  1  0  0  0  0
 19 13  1  0  0  0  0
 21 20  1  0  0  0  0
 24 27  1  0  0  0  0
 24 22  1  0  0  0  0
 24 23  2  1  0  0  0
 25 24  1  0  0  0  0
 26 25  1  0  0  0  0
 28 27  1  0  0  0  0
 29 28  1  0  0  0  0
 29 30  1  0  0  0  0
 31 29  2  0  0  0  0
 32 31  1  0  0  0  0
 33 34  2  0  0  0  0
 33 31  1  0  0  0  0
 34 35  1  0  0  0  0
 35 28  2  0  0  0  0
M  END
>  <minimizedAffinity>
-5.25022554

$$$$

 OpenBabel03252507103D

 35 37  0  0  1  0  0  0  0  0999 V2000
   38.7250   26.8140   43.1500 C   0  0  0  0  0  0  0  0  0  0  0  0
   39.7780   27.7450   43.2290 C   0  0  0  0  0  0  0  0  0  0  0  0
   39.5840   28.9620   42.5930 C   0  0  0  0  0  0  0  0  0  0  0  0
   38.4290   29.2020   41.9400 N   0  0  0  0  0  0  0  0  0  0  0  0
   37.4430   28.3000   41.8770 C   0  0  0  0  0  0  0  0  0  0  0  0
   37.5880   27.0990   42.4840 N   0  0  0  0  0  0  0  0  0  0  0  0
   38.8850   25.8590   43.6520 H   0  0  0  0  0  0  0  0  0  0  0  0
   40.6710   27.4610   43.7790 H   0  0  0  0  0  0  0  0  0  0  0  0
   35.9680   29.8510   40.5630 C   0  0  1  0  0  0  0  0  0  0  0  0
   36.1640   28.4950   41.1730 C   0  0  1  0  0  0  0  0  0  0  0  0
   36.1350   27.6460   39.8910 C   0  0  0  0  0  0  0  0  0  0  0  0
   35.3500   28.3010   38.9970 O   0  0  0  0  0  0  0  0  0  0  0  0
   34.8860   29.4860   39.5470 C   0  0  0  0  0  0  0  0  0  0  0  0
   36.8630   30.1410   39.9420 H   0  0  0  0  0  0  0  0  0  0  0  0
   35.3030   28.2480   41.8130 H   0  0  0  0  0  0  0  0  0  0  0  0
   35.5880   26.7160   40.1820 H   0  0  0  0  0  0  0  0  0  0  0  0
   37.1310   27.3450   39.5740 H   0  0  0  0  0  0  0  0  0  0  0  0
   33.9130   29.3010   40.0440 H   0  0  0  0  0  0  0  0  0  0  0  0
   34.8350   30.2620   38.7560 H   0  0  0  0  0  0  0  0  0  0  0  0
   35.6100   30.8260   41.4470 O   0  0  0  0  0  0  0  0  0  0  0  0
   36.0780   31.6750   41.2750 H   0  0  0  0  0  0  0  0  0  0  0  0
   40.6280   29.8760   42.6770 O   0  0  0  0  0  0  0  0  0  0  0  0
   42.8520   30.6300   41.4270 O   0  0  0  0  0  0  0  0  0  0  0  0
   41.3490   30.4870   41.2430 P   0  0  1  0  0  0  0  0  0  0  0  0
   40.9620   29.4530   39.9860 O   0  0  0  0  0  0  0  0  0  0  0  0
   40.4970   29.8930   39.2390 H   0  0  0  0  0  0  0  0  0  0  0  0
   40.6800   32.0210   40.9930 O   0  0  0  0  0  0  0  0  0  0  0  0
   39.5800   32.1770   40.1560 C   0  0  0  0  0  0  0  0  0  0  0  0
   38.6420   33.0990   40.5980 C   0  0  0  0  0  0  0  0  0  0  0  0
   38.7620   33.6540   41.5270 H   0  0  0  0  0  0  0  0  0  0  0  0
   37.5000   33.3620   39.8780 C   0  0  0  0  0  0  0  0  0  0  0  0
   36.7750   34.0960   40.2520 H   0  0  0  0  0  0  0  0  0  0  0  0
   37.2780   32.7080   38.7040 C   0  0  0  0  0  3  0  0  0  0  0  0
   38.2410   31.7980   38.3050 C   0  0  0  0  0  3  0  0  0  0  0  0
   39.3670   31.5260   38.9950 N   0  0  0  0  0  0  0  0  0  0  0  0
  1  2  1  0  0  0  0
  1  7  1  0  0  0  0
  2  8  1  0  0  0  0
  3 22  1  0  0  0  0
  3  2  2  0  0  0  0
  4  3  1  0  0  0  0
  5  4  2  0  0  0  0
  5  6  1  0  0  0  0
  6  1  2  0  0  0  0
  9 14  1  6  0  0  0
  9 10  1  0  0  0  0
  9 20  1  0  0  0  0
 10 15  1  1  0  0  0
 10  5  1  0  0  0  0
 11 16  1  0  0  0  0
 11 10  1  0  0  0  0
 12 13  1  0  0  0  0
 12 11  1  0  0  0  0
 13 18  1  0  0  0  0
 13  9  1  0  0  0  0
 17 11  1  0  0  0  0
 19 13  1  0  0  0  0
 21 20  1  0  0  0  0
 24 23  2  1  0  0  0
 24 22  1  0  0  0  0
 25 24  1  0  0  0  0
 26 25  1  0  0  0  0
 27 24  1  0  0  0  0
 28 29  1  0  0  0  0
 28 27  1  0  0  0  0
 29 30  1  0  0  0  0
 31 32  1  0  0  0  0
 31 29  2  0  0  0  0
 33 31  1  0  0  0  0
 34 33  2  0  0  0  0
 34 35  1  0  0  0  0
 35 28  2  0  0  0  0
M  END
>  <minimizedAffinity>
-5.23937225

$$$$
