
 OpenBabel03252502513D

 33 35  0  0  0  0  0  0  0  0999 V2000
   37.7050   32.9040   40.0180 C   0  0  0  0  0  0  0  0  0  0  0  0
   38.6850   32.3190   40.8180 C   0  0  0  0  0  0  0  0  0  0  0  0
   38.8870   30.9540   40.7050 C   0  0  0  0  0  0  0  0  0  0  0  0
   38.1240   30.2660   39.8280 N   0  0  0  0  0  0  0  0  0  0  0  0
   37.1750   30.8560   39.0610 C   0  0  0  0  0  0  0  0  0  0  0  0
   36.9650   32.1760   39.1560 N   0  0  0  0  0  0  0  0  0  0  0  0
   37.5430   33.9850   40.1070 H   0  0  0  0  0  0  0  0  0  0  0  0
   39.2750   32.9010   41.5060 H   0  0  0  0  0  0  0  0  0  0  0  0
   34.9640   29.2880   40.3010 Cl  0  0  0  0  0  0  0  0  0  0  0  0
   35.3590   29.2850   38.5960 C   0  0  0  0  0  0  0  0  0  0  0  0
   36.3890   30.0370   38.1340 C   0  0  0  0  0  0  0  0  0  0  0  0
   36.7190   30.0460   36.7730 C   0  0  0  0  0  0  0  0  0  0  0  0
   35.9490   29.2580   35.9490 C   0  0  0  0  0  0  0  0  0  0  0  0
   34.9170   28.5070   36.4270 C   0  0  0  0  0  0  0  0  0  0  0  0
   34.6040   28.5050   37.7480 C   0  0  0  0  0  0  0  0  0  0  0  0
   37.5580   30.6710   36.4650 H   0  0  0  0  0  0  0  0  0  0  0  0
   36.2600   29.3120   34.9050 H   0  0  0  0  0  0  0  0  0  0  0  0
   34.3980   27.9370   35.6640 H   0  0  0  0  0  0  0  0  0  0  0  0
   33.7710   27.8870   38.0690 H   0  0  0  0  0  0  0  0  0  0  0  0
   39.9270   30.3180   41.5480 C   0  0  0  0  0  0  0  0  0  0  0  0
   40.4330   29.4790   41.0170 H   0  0  0  0  0  0  0  0  0  0  0  0
   40.6970   31.1030   41.7160 H   0  0  0  0  0  0  0  0  0  0  0  0
   39.4160   29.8910   42.9060 C   0  0  0  0  0  0  0  0  0  0  0  0
   38.8690   30.7830   43.3250 H   0  0  0  0  0  0  0  0  0  0  0  0
   40.3060   29.7640   43.5600 H   0  0  0  0  0  0  0  0  0  0  0  0
   38.5610   28.7030   42.8500 C   0  0  0  0  0  0  0  0  0  0  0  0
   37.3260   28.6170   43.4620 C   0  0  0  0  0  0  0  0  0  0  0  0
   36.9440   29.4560   44.0190 H   0  0  0  0  0  0  0  0  0  0  0  0
   36.6330   27.4110   43.3140 C   0  0  0  0  0  0  0  0  0  0  0  0
   35.6640   27.2980   43.7750 H   0  0  0  0  0  0  0  0  0  0  0  0
   37.2310   26.4120   42.5760 C   0  0  0  0  0  3  0  0  0  0  0  0
   38.4650   26.4990   41.9650 C   0  0  0  0  0  3  0  0  0  0  0  0
   39.0890   27.6820   42.1400 N   0  0  0  0  0  0  0  0  0  0  0  0
  1  7  1  0  0  0  0
  1  2  1  0  0  0  0
  2  8  1  0  0  0  0
  3  2  2  0  0  0  0
  3 20  1  0  0  0  0
  4  3  1  0  0  0  0
  5  6  1  0  0  0  0
  5  4  2  0  0  0  0
  6  1  2  0  0  0  0
 10  9  1  0  0  0  0
 11 10  1  0  0  0  0
 11  5  1  0  0  0  0
 12 11  2  0  0  0  0
 13 14  2  0  0  0  0
 13 12  1  0  0  0  0
 14 15  1  0  0  0  0
 15 19  1  0  0  0  0
 15 10  2  0  0  0  0
 16 12  1  0  0  0  0
 17 13  1  0  0  0  0
 18 14  1  0  0  0  0
 20 22  1  0  0  0  0
 20 23  1  0  0  0  0
 21 20  1  0  0  0  0
 23 24  1  0  0  0  0
 23 25  1  0  0  0  0
 26 23  1  0  0  0  0
 26 27  1  0  0  0  0
 27 28  1  0  0  0  0
 29 27  2  0  0  0  0
 29 30  1  0  0  0  0
 31 29  1  0  0  0  0
 32 33  1  0  0  0  0
 32 31  2  0  0  0  0
 33 26  2  0  0  0  0
M  END
>  <minimizedAffinity>
-5.52320862

$$$$

 OpenBabel03252502513D

 33 35  0  0  0  0  0  0  0  0999 V2000
   36.0740   30.4550   39.8170 C   0  0  0  0  0  0  0  0  0  0  0  0
   36.2730   29.8010   41.0310 C   0  0  0  0  0  0  0  0  0  0  0  0
   37.5260   29.8790   41.6150 C   0  0  0  0  0  0  0  0  0  0  0  0
   38.4840   30.5840   40.9770 N   0  0  0  0  0  0  0  0  0  0  0  0
   38.2690   31.2130   39.7960 C   0  0  0  0  0  0  0  0  0  0  0  0
   37.0630   31.1490   39.2150 N   0  0  0  0  0  0  0  0  0  0  0  0
   35.0830   30.3940   39.3520 H   0  0  0  0  0  0  0  0  0  0  0  0
   35.4820   29.2480   41.5110 H   0  0  0  0  0  0  0  0  0  0  0  0
   38.7970   33.9140   40.9390 Cl  0  0  0  0  0  0  0  0  0  0  0  0
   39.6870   33.1980   39.6130 C   0  0  0  0  0  0  0  0  0  0  0  0
   39.3640   31.9570   39.1680 C   0  0  0  0  0  0  0  0  0  0  0  0
   40.0650   31.3690   38.1080 C   0  0  0  0  0  0  0  0  0  0  0  0
   41.0820   32.1130   37.5560 C   0  0  0  0  0  0  0  0  0  0  0  0
   41.3950   33.3580   38.0140 C   0  0  0  0  0  0  0  0  0  0  0  0
   40.7100   33.9210   39.0410 C   0  0  0  0  0  0  0  0  0  0  0  0
   39.7570   30.3710   37.7960 H   0  0  0  0  0  0  0  0  0  0  0  0
   41.5840   31.5970   36.7370 H   0  0  0  0  0  0  0  0  0  0  0  0
   42.2180   33.8270   37.4840 H   0  0  0  0  0  0  0  0  0  0  0  0
   41.0060   34.9150   39.3620 H   0  0  0  0  0  0  0  0  0  0  0  0
   37.7510   29.1890   42.9070 C   0  0  0  0  0  0  0  0  0  0  0  0
   38.8330   29.1370   43.1650 H   0  0  0  0  0  0  0  0  0  0  0  0
   37.2680   29.8290   43.6770 H   0  0  0  0  0  0  0  0  0  0  0  0
   37.0950   27.8280   42.9790 C   0  0  0  0  0  0  0  0  0  0  0  0
   36.4110   27.7660   42.0850 H   0  0  0  0  0  0  0  0  0  0  0  0
   36.4170   27.8430   43.8610 H   0  0  0  0  0  0  0  0  0  0  0  0
   38.0600   26.7260   43.0060 C   0  0  0  0  0  0  0  0  0  0  0  0
   39.2640   26.7770   43.6790 C   0  0  0  0  0  0  0  0  0  0  0  0
   39.5360   27.6660   44.2240 H   0  0  0  0  0  0  0  0  0  0  0  0
   40.0740   25.6390   43.6070 C   0  0  0  0  0  0  0  0  0  0  0  0
   41.0240   25.6340   44.1180 H   0  0  0  0  0  0  0  0  0  0  0  0
   39.6110   24.5660   42.8760 C   0  0  0  0  0  3  0  0  0  0  0  0
   38.4080   24.5160   42.2040 C   0  0  0  0  0  3  0  0  0  0  0  0
   37.6670   25.6380   42.3070 N   0  0  0  0  0  0  0  0  0  0  0  0
  1  2  1  0  0  0  0
  2  8  1  0  0  0  0
  2  3  2  0  0  0  0
  3 20  1  0  0  0  0
  4  3  1  0  0  0  0
  5  4  2  0  0  0  0
  6  5  1  0  0  0  0
  6  1  2  0  0  0  0
  7  1  1  0  0  0  0
 10  9  1  0  0  0  0
 11 10  1  0  0  0  0
 11  5  1  0  0  0  0
 12 11  2  0  0  0  0
 13 14  2  0  0  0  0
 13 12  1  0  0  0  0
 14 15  1  0  0  0  0
 15 19  1  0  0  0  0
 15 10  2  0  0  0  0
 16 12  1  0  0  0  0
 17 13  1  0  0  0  0
 18 14  1  0  0  0  0
 20 23  1  0  0  0  0
 20 21  1  0  0  0  0
 20 22  1  0  0  0  0
 23 26  1  0  0  0  0
 23 25  1  0  0  0  0
 24 23  1  0  0  0  0
 26 27  1  0  0  0  0
 27 28  1  0  0  0  0
 29 27  2  0  0  0  0
 29 30  1  0  0  0  0
 31 29  1  0  0  0  0
 32 33  1  0  0  0  0
 32 31  2  0  0  0  0
 33 26  2  0  0  0  0
M  END
>  <minimizedAffinity>
-5.49469662

$$$$

 OpenBabel03252502513D

 33 35  0  0  0  0  0  0  0  0999 V2000
   35.4030   28.9110   40.7140 C   0  0  0  0  0  0  0  0  0  0  0  0
   35.9100   29.5400   39.5780 C   0  0  0  0  0  0  0  0  0  0  0  0
   37.2500   29.3600   39.2790 C   0  0  0  0  0  0  0  0  0  0  0  0
   37.9900   28.5870   40.1020 N   0  0  0  0  0  0  0  0  0  0  0  0
   37.4750   27.9840   41.2020 C   0  0  0  0  0  0  0  0  0  0  0  0
   36.1810   28.1460   41.5090 N   0  0  0  0  0  0  0  0  0  0  0  0
   34.3420   29.0520   40.9530 H   0  0  0  0  0  0  0  0  0  0  0  0
   35.2870   30.1500   38.9450 H   0  0  0  0  0  0  0  0  0  0  0  0
   37.1430   25.0390   40.8890 Cl  0  0  0  0  0  0  0  0  0  0  0  0
   38.2760   25.8070   41.9790 C   0  0  0  0  0  0  0  0  0  0  0  0
   38.3470   27.1610   42.0440 C   0  0  0  0  0  0  0  0  0  0  0  0
   39.2470   27.7920   42.9110 C   0  0  0  0  0  0  0  0  0  0  0  0
   40.0400   26.9710   43.6790 C   0  0  0  0  0  0  0  0  0  0  0  0
   39.9580   25.6120   43.6030 C   0  0  0  0  0  0  0  0  0  0  0  0
   39.0820   25.0090   42.7600 C   0  0  0  0  0  0  0  0  0  0  0  0
   39.2550   28.8820   42.9180 H   0  0  0  0  0  0  0  0  0  0  0  0
   40.7160   27.5270   44.3300 H   0  0  0  0  0  0  0  0  0  0  0  0
   40.6420   25.0930   44.2650 H   0  0  0  0  0  0  0  0  0  0  0  0
   39.0630   23.9240   42.7430 H   0  0  0  0  0  0  0  0  0  0  0  0
   37.8030   30.0230   38.0740 C   0  0  0  0  0  0  0  0  0  0  0  0
   38.9110   29.9260   38.0210 H   0  0  0  0  0  0  0  0  0  0  0  0
   37.3900   29.4610   37.2070 H   0  0  0  0  0  0  0  0  0  0  0  0
   37.3610   31.4620   37.9280 C   0  0  0  0  0  0  0  0  0  0  0  0
   36.2630   31.4760   38.1820 H   0  0  0  0  0  0  0  0  0  0  0  0
   37.4110   31.7070   36.8440 H   0  0  0  0  0  0  0  0  0  0  0  0
   38.1270   32.3860   38.7690 C   0  0  0  0  0  0  0  0  0  0  0  0
   37.5510   33.3580   39.5620 C   0  0  0  0  0  0  0  0  0  0  0  0
   36.4800   33.4670   39.5850 H   0  0  0  0  0  0  0  0  0  0  0  0
   38.4230   34.1610   40.3050 C   0  0  0  0  0  0  0  0  0  0  0  0
   38.0180   34.9340   40.9400 H   0  0  0  0  0  0  0  0  0  0  0  0
   39.7760   33.9200   40.1890 C   0  0  0  0  0  3  0  0  0  0  0  0
   40.3490   32.9490   39.3960 C   0  0  0  0  0  3  0  0  0  0  0  0
   39.4650   32.2050   38.7010 N   0  0  0  0  0  0  0  0  0  0  0  0
  1  7  1  0  0  0  0
  1  6  1  0  0  0  0
  2  1  2  0  0  0  0
  3  2  1  0  0  0  0
  3  4  2  0  0  0  0
  4  5  1  0  0  0  0
  5  6  2  0  0  0  0
  5 11  1  0  0  0  0
  8  2  1  0  0  0  0
  9 10  1  0  0  0  0
 10 11  2  0  0  0  0
 10 15  1  0  0  0  0
 11 12  1  0  0  0  0
 12 16  1  0  0  0  0
 12 13  2  0  0  0  0
 13 17  1  0  0  0  0
 14 13  1  0  0  0  0
 14 18  1  0  0  0  0
 15 14  2  0  0  0  0
 19 15  1  0  0  0  0
 20  3  1  0  0  0  0
 21 20  1  0  0  0  0
 22 20  1  0  0  0  0
 23 20  1  0  0  0  0
 23 24  1  0  0  0  0
 23 26  1  0  0  0  0
 25 23  1  0  0  0  0
 26 27  1  0  0  0  0
 27 28  1  0  0  0  0
 27 29  2  0  0  0  0
 29 30  1  0  0  0  0
 31 29  1  0  0  0  0
 32 31  2  0  0  0  0
 33 26  2  0  0  0  0
 33 32  1  0  0  0  0
M  END
>  <minimizedAffinity>
-5.48492098

$$$$

 OpenBabel03252502513D

 33 35  0  0  0  0  0  0  0  0999 V2000
   35.7720   29.4690   38.6660 C   0  0  0  0  0  0  0  0  0  0  0  0
   35.6300   28.6580   39.7910 C   0  0  0  0  0  0  0  0  0  0  0  0
   36.4070   28.9460   40.9010 C   0  0  0  0  0  0  0  0  0  0  0  0
   37.2560   29.9930   40.8330 N   0  0  0  0  0  0  0  0  0  0  0  0
   37.3770   30.7680   39.7280 C   0  0  0  0  0  0  0  0  0  0  0  0
   36.6350   30.5060   38.6430 N   0  0  0  0  0  0  0  0  0  0  0  0
   35.1580   29.2430   37.7860 H   0  0  0  0  0  0  0  0  0  0  0  0
   34.9410   27.8310   39.8080 H   0  0  0  0  0  0  0  0  0  0  0  0
   40.1340   30.1160   38.8000 Cl  0  0  0  0  0  0  0  0  0  0  0  0
   39.6060   31.6970   39.3310 C   0  0  0  0  0  0  0  0  0  0  0  0
   38.3240   31.8870   39.7350 C   0  0  0  0  0  0  0  0  0  0  0  0
   37.8840   33.1450   40.1640 C   0  0  0  0  0  0  0  0  0  0  0  0
   38.8150   34.1590   40.1510 C   0  0  0  0  0  0  0  0  0  0  0  0
   40.0990   33.9530   39.7430 C   0  0  0  0  0  0  0  0  0  0  0  0
   40.5170   32.7300   39.3290 C   0  0  0  0  0  0  0  0  0  0  0  0
   36.8430   33.2320   40.4760 H   0  0  0  0  0  0  0  0  0  0  0  0
   38.4060   35.1090   40.4970 H   0  0  0  0  0  0  0  0  0  0  0  0
   40.7200   34.8410   39.7860 H   0  0  0  0  0  0  0  0  0  0  0  0
   41.5510   32.6280   39.0150 H   0  0  0  0  0  0  0  0  0  0  0  0
   36.2660   28.0930   42.1050 C   0  0  0  0  0  0  0  0  0  0  0  0
   35.3720   28.3720   42.7080 H   0  0  0  0  0  0  0  0  0  0  0  0
   36.0870   27.0630   41.7230 H   0  0  0  0  0  0  0  0  0  0  0  0
   37.5180   28.0460   42.9530 C   0  0  0  0  0  0  0  0  0  0  0  0
   37.1960   28.3230   43.9970 H   0  0  0  0  0  0  0  0  0  0  0  0
   38.1660   28.8850   42.6180 H   0  0  0  0  0  0  0  0  0  0  0  0
   38.1880   26.7430   42.9160 C   0  0  0  0  0  0  0  0  0  0  0  0
   37.6840   25.6400   42.2570 C   0  0  0  0  0  0  0  0  0  0  0  0
   36.7460   25.7110   41.7310 H   0  0  0  0  0  0  0  0  0  0  0  0
   38.4460   24.4680   42.3170 C   0  0  0  0  0  0  0  0  0  0  0  0
   38.0920   23.5810   41.8160 H   0  0  0  0  0  0  0  0  0  0  0  0
   39.6300   24.5080   43.0220 C   0  0  0  0  0  3  0  0  0  0  0  0
   40.1330   25.6110   43.6800 C   0  0  0  0  0  3  0  0  0  0  0  0
   39.3590   26.7110   43.5900 N   0  0  0  0  0  0  0  0  0  0  0  0
  1  2  1  0  0  0  0
  2  8  1  0  0  0  0
  2  3  2  0  0  0  0
  3 20  1  0  0  0  0
  4  3  1  0  0  0  0
  5 11  1  0  0  0  0
  5  4  2  0  0  0  0
  6  1  2  0  0  0  0
  6  5  1  0  0  0  0
  7  1  1  0  0  0  0
  9 10  1  0  0  0  0
 10 11  1  0  0  0  0
 11 12  2  0  0  0  0
 12 16  1  0  0  0  0
 13 12  1  0  0  0  0
 13 17  1  0  0  0  0
 14 18  1  0  0  0  0
 14 13  2  0  0  0  0
 15 10  2  0  0  0  0
 15 14  1  0  0  0  0
 19 15  1  0  0  0  0
 20 21  1  0  0  0  0
 20 23  1  0  0  0  0
 22 20  1  0  0  0  0
 23 24  1  0  0  0  0
 25 23  1  0  0  0  0
 26 23  1  0  0  0  0
 26 33  1  0  0  0  0
 27 29  1  0  0  0  0
 27 26  2  0  0  0  0
 28 27  1  0  0  0  0
 29 31  2  0  0  0  0
 30 29  1  0  0  0  0
 31 32  1  0  0  0  0
 33 32  2  0  0  0  0
M  END
>  <minimizedAffinity>
-5.37838984

$$$$

 OpenBabel03252502513D

 33 35  0  0  0  0  0  0  0  0999 V2000
   36.5280   29.1950   36.8980 C   0  0  0  0  0  0  0  0  0  0  0  0
   35.1710   29.2200   36.5840 C   0  0  0  0  0  0  0  0  0  0  0  0
   34.2680   28.8770   37.5770 C   0  0  0  0  0  0  0  0  0  0  0  0
   34.7510   28.5390   38.7910 N   0  0  0  0  0  0  0  0  0  0  0  0
   36.0770   28.5220   39.0740 C   0  0  0  0  0  0  0  0  0  0  0  0
   36.9660   28.8500   38.1270 N   0  0  0  0  0  0  0  0  0  0  0  0
   37.2450   29.4660   36.1140 H   0  0  0  0  0  0  0  0  0  0  0  0
   34.8230   29.4960   35.6030 H   0  0  0  0  0  0  0  0  0  0  0  0
   36.2570   30.7560   41.0380 Cl  0  0  0  0  0  0  0  0  0  0  0  0
   36.6360   29.0840   41.3880 C   0  0  0  0  0  0  0  0  0  0  0  0
   36.5200   28.1420   40.4180 C   0  0  0  0  0  0  0  0  0  0  0  0
   36.8190   26.8000   40.6810 C   0  0  0  0  0  0  0  0  0  0  0  0
   37.2310   26.5000   41.9590 C   0  0  0  0  0  0  0  0  0  0  0  0
   37.3430   27.4570   42.9230 C   0  0  0  0  0  0  0  0  0  0  0  0
   37.0510   28.7560   42.6600 C   0  0  0  0  0  0  0  0  0  0  0  0
   36.7070   26.0920   39.8590 H   0  0  0  0  0  0  0  0  0  0  0  0
   37.4470   25.4390   42.0930 H   0  0  0  0  0  0  0  0  0  0  0  0
   37.6780   27.0770   43.8820 H   0  0  0  0  0  0  0  0  0  0  0  0
   37.1590   29.4720   43.4680 H   0  0  0  0  0  0  0  0  0  0  0  0
   32.8210   28.9000   37.2580 C   0  0  0  0  0  0  0  0  0  0  0  0
   32.3040   27.9800   37.6140 H   0  0  0  0  0  0  0  0  0  0  0  0
   32.3990   29.7500   37.8380 H   0  0  0  0  0  0  0  0  0  0  0  0
   32.5360   29.1690   35.7970 C   0  0  0  0  0  0  0  0  0  0  0  0
   32.0180   28.2460   35.4070 H   0  0  0  0  0  0  0  0  0  0  0  0
   33.5180   29.1910   35.2750 H   0  0  0  0  0  0  0  0  0  0  0  0
   31.7350   30.3770   35.5810 C   0  0  0  0  0  0  0  0  0  0  0  0
   31.7120   31.0790   34.3920 C   0  0  0  0  0  0  0  0  0  0  0  0
   32.3060   30.7420   33.5580 H   0  0  0  0  0  0  0  0  0  0  0  0
   30.8950   32.2130   34.3470 C   0  0  0  0  0  0  0  0  0  0  0  0
   30.8440   32.7930   33.4390 H   0  0  0  0  0  0  0  0  0  0  0  0
   30.1830   32.5380   35.4830 C   0  0  0  0  0  3  0  0  0  0  0  0
   30.2080   31.8360   36.6700 C   0  0  0  0  0  3  0  0  0  0  0  0
   31.0110   30.7530   36.6580 N   0  0  0  0  0  0  0  0  0  0  0  0
  1  6  1  0  0  0  0
  2  1  2  0  0  0  0
  2  3  1  0  0  0  0
  3  4  2  0  0  0  0
  4  5  1  0  0  0  0
  5 11  1  0  0  0  0
  6  5  2  0  0  0  0
  7  1  1  0  0  0  0
  8  2  1  0  0  0  0
  9 10  1  0  0  0  0
 10 15  1  0  0  0  0
 11 12  1  0  0  0  0
 11 10  2  0  0  0  0
 12 13  2  0  0  0  0
 13 17  1  0  0  0  0
 13 14  1  0  0  0  0
 14 18  1  0  0  0  0
 15 14  2  0  0  0  0
 15 19  1  0  0  0  0
 16 12  1  0  0  0  0
 20  3  1  0  0  0  0
 20 21  1  0  0  0  0
 20 22  1  0  0  0  0
 23 20  1  0  0  0  0
 24 23  1  0  0  0  0
 25 23  1  0  0  0  0
 26 23  1  0  0  0  0
 26 33  1  0  0  0  0
 27 26  2  0  0  0  0
 28 27  1  0  0  0  0
 29 27  1  0  0  0  0
 29 31  2  0  0  0  0
 30 29  1  0  0  0  0
 31 32  1  0  0  0  0
 33 32  2  0  0  0  0
M  END
>  <minimizedAffinity>
-5.36389732

$$$$

 OpenBabel03252502513D

 33 35  0  0  0  0  0  0  0  0999 V2000
   40.9510   28.9490   41.5480 C   0  0  0  0  0  0  0  0  0  0  0  0
   40.2000   28.1800   42.4360 C   0  0  0  0  0  0  0  0  0  0  0  0
   38.9160   28.6030   42.7370 C   0  0  0  0  0  0  0  0  0  0  0  0
   38.4630   29.7330   42.1540 N   0  0  0  0  0  0  0  0  0  0  0  0
   39.2110   30.4650   41.2930 C   0  0  0  0  0  0  0  0  0  0  0  0
   40.4560   30.0730   40.9890 N   0  0  0  0  0  0  0  0  0  0  0  0
   41.9680   28.6160   41.3080 H   0  0  0  0  0  0  0  0  0  0  0  0
   40.5970   27.2830   42.8810 H   0  0  0  0  0  0  0  0  0  0  0  0
   37.0400   30.0260   39.2980 Cl  0  0  0  0  0  0  0  0  0  0  0  0
   37.6500   31.5930   39.7840 C   0  0  0  0  0  0  0  0  0  0  0  0
   38.6440   31.6810   40.7030 C   0  0  0  0  0  0  0  0  0  0  0  0
   39.1440   32.9260   41.1030 C   0  0  0  0  0  0  0  0  0  0  0  0
   38.5770   34.0340   40.5170 C   0  0  0  0  0  0  0  0  0  0  0  0
   37.5780   33.9300   39.5950 C   0  0  0  0  0  0  0  0  0  0  0  0
   37.1000   32.7190   39.2130 C   0  0  0  0  0  0  0  0  0  0  0  0
   39.9440   32.9300   41.8450 H   0  0  0  0  0  0  0  0  0  0  0  0
   39.0130   34.9680   40.8730 H   0  0  0  0  0  0  0  0  0  0  0  0
   37.2270   34.8840   39.2180 H   0  0  0  0  0  0  0  0  0  0  0  0
   36.3040   32.7000   38.4750 H   0  0  0  0  0  0  0  0  0  0  0  0
   38.1060   27.7950   43.6790 C   0  0  0  0  0  0  0  0  0  0  0  0
   38.6790   26.9260   44.0770 H   0  0  0  0  0  0  0  0  0  0  0  0
   37.8960   28.4640   44.5430 H   0  0  0  0  0  0  0  0  0  0  0  0
   36.7730   27.3690   43.1070 C   0  0  0  0  0  0  0  0  0  0  0  0
   36.2610   28.3170   42.7750 H   0  0  0  0  0  0  0  0  0  0  0  0
   36.1620   26.9930   43.9580 H   0  0  0  0  0  0  0  0  0  0  0  0
   36.8990   26.4040   42.0120 C   0  0  0  0  0  0  0  0  0  0  0  0
   37.2880   25.0910   42.1880 C   0  0  0  0  0  0  0  0  0  0  0  0
   37.5170   24.7270   43.1760 H   0  0  0  0  0  0  0  0  0  0  0  0
   37.3600   24.2970   41.0390 C   0  0  0  0  0  0  0  0  0  0  0  0
   37.6590   23.2640   41.1280 H   0  0  0  0  0  0  0  0  0  0  0  0
   37.0400   24.8820   39.8320 C   0  0  0  0  0  3  0  0  0  0  0  0
   36.6520   26.1940   39.6580 C   0  0  0  0  0  3  0  0  0  0  0  0
   36.6000   26.9140   40.7970 N   0  0  0  0  0  0  0  0  0  0  0  0
  1  2  1  0  0  0  0
  2  3  2  0  0  0  0
  2  8  1  0  0  0  0
  3 20  1  0  0  0  0
  4  3  1  0  0  0  0
  5  4  2  0  0  0  0
  6  5  1  0  0  0  0
  6  1  2  0  0  0  0
  7  1  1  0  0  0  0
  9 10  1  0  0  0  0
 10 11  1  0  0  0  0
 11 12  2  0  0  0  0
 11  5  1  0  0  0  0
 12 16  1  0  0  0  0
 13 17  1  0  0  0  0
 13 12  1  0  0  0  0
 14 13  2  0  0  0  0
 15 14  1  0  0  0  0
 15 10  2  0  0  0  0
 18 14  1  0  0  0  0
 19 15  1  0  0  0  0
 20 21  1  0  0  0  0
 20 22  1  0  0  0  0
 23 20  1  0  0  0  0
 23 25  1  0  0  0  0
 24 23  1  0  0  0  0
 26 27  1  0  0  0  0
 26 23  1  0  0  0  0
 27 28  1  0  0  0  0
 29 30  1  0  0  0  0
 29 27  2  0  0  0  0
 31 29  1  0  0  0  0
 32 31  2  0  0  0  0
 32 33  1  0  0  0  0
 33 26  2  0  0  0  0
M  END
>  <minimizedAffinity>
-5.34005117

$$$$

 OpenBabel03252502513D

 33 35  0  0  0  0  0  0  0  0999 V2000
   32.3960   26.8320   35.8870 C   0  0  0  0  0  0  0  0  0  0  0  0
   33.5530   26.7940   36.6640 C   0  0  0  0  0  0  0  0  0  0  0  0
   33.9740   27.9700   37.2610 C   0  0  0  0  0  0  0  0  0  0  0  0
   33.2420   29.0860   37.0590 N   0  0  0  0  0  0  0  0  0  0  0  0
   32.1200   29.1000   36.2990 C   0  0  0  0  0  0  0  0  0  0  0  0
   31.6960   27.9720   35.7120 N   0  0  0  0  0  0  0  0  0  0  0  0
   32.0620   25.9010   35.4130 H   0  0  0  0  0  0  0  0  0  0  0  0
   34.1110   25.8820   36.8030 H   0  0  0  0  0  0  0  0  0  0  0  0
   30.5590   29.9960   38.6740 Cl  0  0  0  0  0  0  0  0  0  0  0  0
   30.6390   30.8520   37.1500 C   0  0  0  0  0  0  0  0  0  0  0  0
   31.3820   30.3550   36.1290 C   0  0  0  0  0  0  0  0  0  0  0  0
   31.4580   31.0260   34.9020 C   0  0  0  0  0  0  0  0  0  0  0  0
   30.7450   32.1980   34.7980 C   0  0  0  0  0  0  0  0  0  0  0  0
   30.0030   32.6850   35.8320 C   0  0  0  0  0  0  0  0  0  0  0  0
   29.9350   32.0280   37.0180 C   0  0  0  0  0  0  0  0  0  0  0  0
   32.0700   30.5740   34.1210 H   0  0  0  0  0  0  0  0  0  0  0  0
   30.8480   32.6660   33.8180 H   0  0  0  0  0  0  0  0  0  0  0  0
   29.4950   33.6160   35.6080 H   0  0  0  0  0  0  0  0  0  0  0  0
   29.3280   32.4650   37.8040 H   0  0  0  0  0  0  0  0  0  0  0  0
   35.2020   27.9450   38.0910 C   0  0  0  0  0  0  0  0  0  0  0  0
   35.4790   26.9070   38.3870 H   0  0  0  0  0  0  0  0  0  0  0  0
   36.0160   28.3180   37.4320 H   0  0  0  0  0  0  0  0  0  0  0  0
   35.1330   28.8670   39.2870 C   0  0  0  0  0  0  0  0  0  0  0  0
   35.3620   28.2270   40.1860 H   0  0  0  0  0  0  0  0  0  0  0  0
   34.0670   29.1630   39.4060 H   0  0  0  0  0  0  0  0  0  0  0  0
   36.0450   30.0100   39.1840 C   0  0  0  0  0  0  0  0  0  0  0  0
   36.7190   30.3510   38.0290 C   0  0  0  0  0  0  0  0  0  0  0  0
   36.5870   29.7610   37.1370 H   0  0  0  0  0  0  0  0  0  0  0  0
   37.5540   31.4720   38.0950 C   0  0  0  0  0  0  0  0  0  0  0  0
   38.1000   31.7760   37.2170 H   0  0  0  0  0  0  0  0  0  0  0  0
   37.6350   32.1420   39.2970 C   0  0  0  0  0  3  0  0  0  0  0  0
   36.9610   31.8000   40.4500 C   0  0  0  0  0  3  0  0  0  0  0  0
   36.1720   30.7130   40.3310 N   0  0  0  0  0  0  0  0  0  0  0  0
  1  2  1  0  0  0  0
  2  8  1  0  0  0  0
  2  3  2  0  0  0  0
  3 20  1  0  0  0  0
  4  3  1  0  0  0  0
  5  4  2  0  0  0  0
  6  1  2  0  0  0  0
  6  5  1  0  0  0  0
  7  1  1  0  0  0  0
 10  9  1  0  0  0  0
 11  5  1  0  0  0  0
 11 10  2  0  0  0  0
 12 11  1  0  0  0  0
 13 12  2  0  0  0  0
 13 14  1  0  0  0  0
 14 15  2  0  0  0  0
 15 10  1  0  0  0  0
 15 19  1  0  0  0  0
 16 12  1  0  0  0  0
 17 13  1  0  0  0  0
 18 14  1  0  0  0  0
 20 21  1  0  0  0  0
 20 23  1  0  0  0  0
 22 20  1  0  0  0  0
 23 25  1  0  0  0  0
 23 24  1  0  0  0  0
 26 23  1  0  0  0  0
 26 33  1  0  0  0  0
 27 29  1  0  0  0  0
 27 26  2  0  0  0  0
 28 27  1  0  0  0  0
 29 31  2  0  0  0  0
 30 29  1  0  0  0  0
 31 32  1  0  0  0  0
 33 32  2  0  0  0  0
M  END
>  <minimizedAffinity>
-5.31949043

$$$$

 OpenBabel03252502513D

 33 35  0  0  0  0  0  0  0  0999 V2000
   32.7870   26.7630   36.2350 C   0  0  0  0  0  0  0  0  0  0  0  0
   33.9660   26.8840   36.9690 C   0  0  0  0  0  0  0  0  0  0  0  0
   34.3530   28.1500   37.3740 C   0  0  0  0  0  0  0  0  0  0  0  0
   33.5670   29.1960   37.0370 N   0  0  0  0  0  0  0  0  0  0  0  0
   32.4240   29.0540   36.3230 C   0  0  0  0  0  0  0  0  0  0  0  0
   32.0340   27.8370   35.9210 N   0  0  0  0  0  0  0  0  0  0  0  0
   32.4790   25.7610   35.9130 H   0  0  0  0  0  0  0  0  0  0  0  0
   34.5670   26.0250   37.2190 H   0  0  0  0  0  0  0  0  0  0  0  0
   30.6750   30.0590   38.5170 Cl  0  0  0  0  0  0  0  0  0  0  0  0
   30.7980   30.7800   36.9270 C   0  0  0  0  0  0  0  0  0  0  0  0
   31.6280   30.2410   35.9980 C   0  0  0  0  0  0  0  0  0  0  0  0
   31.7390   30.8040   34.7210 C   0  0  0  0  0  0  0  0  0  0  0  0
   30.9680   31.9160   34.4710 C   0  0  0  0  0  0  0  0  0  0  0  0
   30.1390   32.4460   35.4140 C   0  0  0  0  0  0  0  0  0  0  0  0
   30.0380   31.8940   36.6490 C   0  0  0  0  0  0  0  0  0  0  0  0
   32.4220   30.3250   34.0200 H   0  0  0  0  0  0  0  0  0  0  0  0
   31.1030   32.3020   33.4590 H   0  0  0  0  0  0  0  0  0  0  0  0
   29.5940   33.3210   35.0770 H   0  0  0  0  0  0  0  0  0  0  0  0
   29.3610   32.3610   37.3580 H   0  0  0  0  0  0  0  0  0  0  0  0
   35.6040   28.2940   38.1550 C   0  0  0  0  0  0  0  0  0  0  0  0
   36.3790   28.8630   37.5930 H   0  0  0  0  0  0  0  0  0  0  0  0
   35.3340   28.9100   39.0420 H   0  0  0  0  0  0  0  0  0  0  0  0
   36.1420   26.9770   38.6690 C   0  0  0  0  0  0  0  0  0  0  0  0
   37.0540   26.7520   38.0480 H   0  0  0  0  0  0  0  0  0  0  0  0
   35.4010   26.1960   38.3900 H   0  0  0  0  0  0  0  0  0  0  0  0
   36.4490   27.0030   40.1010 C   0  0  0  0  0  0  0  0  0  0  0  0
   36.3000   28.1200   40.8980 C   0  0  0  0  0  0  0  0  0  0  0  0
   35.9400   29.0410   40.4690 H   0  0  0  0  0  0  0  0  0  0  0  0
   36.6370   27.9800   42.2490 C   0  0  0  0  0  0  0  0  0  0  0  0
   36.5370   28.8260   42.9090 H   0  0  0  0  0  0  0  0  0  0  0  0
   37.0860   26.7480   42.6740 C   0  0  0  0  0  3  0  0  0  0  0  0
   37.2340   25.6320   41.8770 C   0  0  0  0  0  3  0  0  0  0  0  0
   36.8960   25.8230   40.5850 N   0  0  0  0  0  0  0  0  0  0  0  0
  1  2  1  0  0  0  0
  2  8  1  0  0  0  0
  2  3  2  0  0  0  0
  3 20  1  0  0  0  0
  4  3  1  0  0  0  0
  5  4  2  0  0  0  0
  6  1  2  0  0  0  0
  6  5  1  0  0  0  0
  7  1  1  0  0  0  0
 10  9  1  0  0  0  0
 11  5  1  0  0  0  0
 11 10  2  0  0  0  0
 12 11  1  0  0  0  0
 13 12  2  0  0  0  0
 13 14  1  0  0  0  0
 14 15  2  0  0  0  0
 15 10  1  0  0  0  0
 15 19  1  0  0  0  0
 16 12  1  0  0  0  0
 17 13  1  0  0  0  0
 18 14  1  0  0  0  0
 20 23  1  0  0  0  0
 20 22  1  0  0  0  0
 21 20  1  0  0  0  0
 23 26  1  0  0  0  0
 24 23  1  0  0  0  0
 25 23  1  0  0  0  0
 26 33  2  0  0  0  0
 26 27  1  0  0  0  0
 27 29  2  0  0  0  0
 28 27  1  0  0  0  0
 29 31  1  0  0  0  0
 29 30  1  0  0  0  0
 32 31  2  0  0  0  0
 33 32  1  0  0  0  0
M  END
>  <minimizedAffinity>
-5.26559258

$$$$

 OpenBabel03252502513D

 33 35  0  0  0  0  0  0  0  0999 V2000
   34.8710   26.7750   37.4310 C   0  0  0  0  0  0  0  0  0  0  0  0
   35.5790   25.7660   38.0810 C   0  0  0  0  0  0  0  0  0  0  0  0
   36.6710   26.1300   38.8500 C   0  0  0  0  0  0  0  0  0  0  0  0
   36.9890   27.4400   38.9280 N   0  0  0  0  0  0  0  0  0  0  0  0
   36.2860   28.4050   38.2860 C   0  0  0  0  0  0  0  0  0  0  0  0
   35.2260   28.0720   37.5360 N   0  0  0  0  0  0  0  0  0  0  0  0
   34.0060   26.4880   36.8210 H   0  0  0  0  0  0  0  0  0  0  0  0
   35.2940   24.7300   37.9950 H   0  0  0  0  0  0  0  0  0  0  0  0
   35.7580   29.6400   40.9470 Cl  0  0  0  0  0  0  0  0  0  0  0  0
   36.5020   30.4620   39.5930 C   0  0  0  0  0  0  0  0  0  0  0  0
   36.6980   29.8050   38.4210 C   0  0  0  0  0  0  0  0  0  0  0  0
   37.2910   30.4470   37.3280 C   0  0  0  0  0  0  0  0  0  0  0  0
   37.6570   31.7610   37.5110 C   0  0  0  0  0  0  0  0  0  0  0  0
   37.4540   32.4070   38.6930 C   0  0  0  0  0  0  0  0  0  0  0  0
   36.8780   31.7780   39.7480 C   0  0  0  0  0  0  0  0  0  0  0  0
   37.4190   29.8650   36.4150 H   0  0  0  0  0  0  0  0  0  0  0  0
   38.1110   32.1980   36.6210 H   0  0  0  0  0  0  0  0  0  0  0  0
   37.7920   33.4380   38.6930 H   0  0  0  0  0  0  0  0  0  0  0  0
   36.7430   32.3440   40.6640 H   0  0  0  0  0  0  0  0  0  0  0  0
   37.4340   25.0680   39.5480 C   0  0  0  0  0  0  0  0  0  0  0  0
   37.4620   24.1240   38.9580 H   0  0  0  0  0  0  0  0  0  0  0  0
   38.4800   25.4410   39.6090 H   0  0  0  0  0  0  0  0  0  0  0  0
   36.9610   24.8260   40.9640 C   0  0  0  0  0  0  0  0  0  0  0  0
   37.1660   23.7390   41.1780 H   0  0  0  0  0  0  0  0  0  0  0  0
   35.8520   24.9150   40.9530 H   0  0  0  0  0  0  0  0  0  0  0  0
   37.6040   25.7070   41.9430 C   0  0  0  0  0  0  0  0  0  0  0  0
   36.9620   26.7580   42.5660 C   0  0  0  0  0  0  0  0  0  0  0  0
   35.9300   26.9670   42.3400 H   0  0  0  0  0  0  0  0  0  0  0  0
   37.7180   27.5050   43.4770 C   0  0  0  0  0  0  0  0  0  0  0  0
   37.2580   28.3360   43.9890 H   0  0  0  0  0  0  0  0  0  0  0  0
   39.0300   27.1350   43.6790 C   0  0  0  0  0  3  0  0  0  0  0  0
   39.6700   26.0840   43.0550 C   0  0  0  0  0  3  0  0  0  0  0  0
   38.8970   25.3990   42.1880 N   0  0  0  0  0  0  0  0  0  0  0  0
  1  6  2  0  0  0  0
  1  2  1  0  0  0  0
  2  3  2  0  0  0  0
  3  4  1  0  0  0  0
  3 20  1  0  0  0  0
  5 11  1  0  0  0  0
  5  4  2  0  0  0  0
  6  5  1  0  0  0  0
  7  1  1  0  0  0  0
  8  2  1  0  0  0  0
 10 15  1  0  0  0  0
 10  9  1  0  0  0  0
 11 10  2  0  0  0  0
 12 13  2  0  0  0  0
 12 11  1  0  0  0  0
 13 14  1  0  0  0  0
 14 18  1  0  0  0  0
 14 15  2  0  0  0  0
 15 19  1  0  0  0  0
 16 12  1  0  0  0  0
 17 13  1  0  0  0  0
 20 22  1  0  0  0  0
 20 23  1  0  0  0  0
 21 20  1  0  0  0  0
 23 24  1  0  0  0  0
 23 26  1  0  0  0  0
 25 23  1  0  0  0  0
 26 33  2  0  0  0  0
 26 27  1  0  0  0  0
 27 29  2  0  0  0  0
 28 27  1  0  0  0  0
 29 31  1  0  0  0  0
 29 30  1  0  0  0  0
 32 31  2  0  0  0  0
 33 32  1  0  0  0  0
M  END
>  <minimizedAffinity>
-5.24176693

$$$$
