
     RDKit          3D

 25 26  0  0  0  0  0  0  0  0999 V2000
   47.2822   34.1982   43.2829 C   0  0  0  0  0  0  0  0  0  0  0  0
   46.6183   35.1806   42.5611 C   0  0  0  0  0  0  0  0  0  0  0  0
   45.3668   35.6376   43.0344 C   0  0  0  0  0  0  0  0  0  0  0  0
   44.8863   35.0798   44.1807 N   0  0  0  0  0  0  0  0  0  0  0  0
   45.5626   34.1323   44.8462 C   0  0  0  0  0  0  0  0  0  0  0  0
   46.7399   33.6949   44.4108 N   0  0  0  0  0  0  0  0  0  0  0  0
   48.5782   33.6614   42.8619 C   0  0  0  0  0  0  0  0  0  0  0  0
   49.4998   34.8121   42.5839 C   0  0  0  0  0  0  0  0  0  0  0  0
   47.0499   35.5899   41.6523 H   0  0  0  0  0  0  0  0  0  0  0  0
   44.8226   36.4012   42.4973 H   0  0  0  0  0  0  0  0  0  0  0  0
   45.1706   33.6870   45.7687 H   0  0  0  0  0  0  0  0  0  0  0  0
   48.3797   33.0467   41.9469 H   0  0  0  0  0  0  0  0  0  0  0  0
   49.0564   33.0632   43.6451 H   0  0  0  0  0  0  0  0  0  0  0  0
   49.6398   35.3796   43.5272 H   0  0  0  0  0  0  0  0  0  0  0  0
   49.1029   35.5270   41.8266 H   0  0  0  0  0  0  0  0  0  0  0  0
   50.8518   34.4057   42.1469 C   0  0  0  0  0  0  0  0  0  0  0  0
   51.3060   33.1170   42.3016 C   0  0  0  0  0  0  0  0  0  0  0  0
   50.6595   32.3757   42.7556 H   0  0  0  0  0  0  0  0  0  0  0  0
   52.5865   32.7691   41.8781 C   0  0  0  0  0  0  0  0  0  0  0  0
   52.9244   31.7574   42.0070 H   0  0  0  0  0  0  0  0  0  0  0  0
   53.3439   33.7906   41.3062 C   0  0  0  0  0  0  0  0  0  0  0  0
   52.8487   35.0745   41.1691 C   0  0  0  0  0  0  0  0  0  0  0  0
   51.6072   35.3814   41.5878 N   0  0  0  0  0  0  0  0  0  0  0  0
   54.3347   33.5644   40.9671 H   0  0  0  0  0  0  0  0  0  0  0  0
   53.4436   35.8556   40.7256 H   0  0  0  0  0  0  0  0  0  0  0  0
  1  6  2  0
  2  3  2  0
  2  1  1  0
  3  4  1  0
  4  5  2  0
  6  5  1  0
  7  1  1  0
  8  7  1  0
  2  9  1  0
  3 10  1  0
  5 11  1  0
  7 12  1  0
  7 13  1  0
  8 14  1  0
  8 15  1  0
 16 17  2  0
 17 18  1  0
 17 19  1  0
 19 20  1  0
 19 21  2  0
 21 22  1  0
 22 23  2  0
 23 16  1  0
 21 24  1  0
 22 25  1  0
  8 16  1  0
M  ISO  8   9  14  10  14  11  14  12   8  13   8  14   8  15   8  18  15
M  ISO  1  20  16
M  END
>  <DihAtoms>  (1) 
6,7,15,16

>  <DihDeg>  (1) 
0.0016519201906661576

$$$$
