REMARK  Name = 
REMARK  6 active torsions:
REMARK  status: ('A' for Active; 'I' for Inactive)
REMARK    1  A    between atoms: C_5  and  O_7
REMARK    2  A    between atoms: O_7  and  P_9
REMARK    3  A    between atoms: P_9  and  O_10
REMARK    4  A    between atoms: P_9  and  O_11
REMARK    5  A    between atoms: O_11  and  C_12
REMARK    6  A    between atoms: C_12  and  C_19
REMARK                            x       y       z     vdW  Elec       q    Type
REMARK                         _______ _______ _______ _____ _____    ______ ____
ROOT
ATOM      1  O   UNL     1      46.979  32.297  48.442  0.00  0.00    +0.000 OA
ATOM      2  P   UNL     1      45.928  32.399  47.349  0.00  0.00    +0.000 P 
ENDROOT
BRANCH   2   3
ATOM      3  O   UNL     1      44.625  33.354  47.852  0.00  0.00    +0.000 OA
ATOM      4  H   UNL     1      44.422  33.085  48.799  0.00  0.00    +0.000 HD
ENDBRANCH   2   3
BRANCH   2   5
ATOM      5  O   UNL     1      46.662  33.050  45.977  0.00  0.00    +0.000 OA
BRANCH   5  10
ATOM      6  C   UNL     1      44.522  35.620  44.785  0.00  0.00    +0.000 A 
ATOM      7  C   UNL     1      44.912  35.828  43.443  0.00  0.00    +0.000 A 
ATOM      8  C   UNL     1      45.972  35.008  42.986  0.00  0.00    +0.000 A 
ATOM      9  N   UNL     1      46.519  34.110  43.849  0.00  0.00    +0.000 NA
ATOM     10  C   UNL     1      46.099  33.967  45.107  0.00  0.00    +0.000 A 
ATOM     11  N   UNL     1      45.110  34.709  45.583  0.00  0.00    +0.000 NA
ATOM     12  H   UNL     1      43.714  36.212  45.206  0.00  0.00    +0.000 HD
ATOM     13  H   UNL     1      44.415  36.563  42.846  0.00  0.00    +0.000 HD
ATOM     14  H   UNL     1      46.299  35.136  41.969  0.00  0.00    +0.000 HD
ENDBRANCH   5  10
ENDBRANCH   2   5
BRANCH   2  15
ATOM     15  O   UNL     1      45.341  30.845  47.080  0.00  0.00    +0.000 OA
BRANCH  15  16
ATOM     16  C   UNL     1      45.109  30.243  48.303  0.00  0.00    +0.000 C 
ATOM     17  H   UNL     1      44.326  30.860  48.826  0.00  0.00    +0.000 HD
ATOM     18  H   UNL     1      45.990  30.238  48.960  0.00  0.00    +0.000 HD
BRANCH  16  19
ATOM     19  C   UNL     1      44.589  28.867  48.083  0.00  0.00    +0.000 A 
ATOM     20  C   UNL     1      45.110  27.966  47.177  0.00  0.00    +0.000 A 
ATOM     21  H   UNL     1      45.956  28.288  46.587  0.00  0.00    +0.000 HD
ATOM     22  C   UNL     1      44.593  26.697  47.007  0.00  0.00    +0.000 A 
ATOM     23  H   UNL     1      45.024  26.008  46.285  0.00  0.00    +0.000 HD
ATOM     24  C   UNL     1      43.498  26.334  47.797  0.00  0.00    +0.000 A 
ATOM     25  C   UNL     1      42.971  27.246  48.716  0.00  0.00    +0.000 A 
ATOM     26  N   UNL     1      43.520  28.472  48.836  0.00  0.00    +0.000 NA
ENDBRANCH  16  19
ENDBRANCH  15  16
ENDBRANCH   2  15
TORSDOF 6
