
 OpenBabel03252508433D

 30 32  0  0  0  0  0  0  0  0999 V2000
   46.3040   32.4340   43.5980 C   0  0  0  0  0  0  0  0  0  0  0  0
   47.6750   32.4150   43.4000 C   0  0  0  0  0  0  0  0  0  0  0  0
   48.3690   31.2890   43.8250 C   0  0  0  0  0  0  0  0  0  0  0  0
   47.7060   30.2510   44.4120 C   0  0  0  0  0  0  0  0  0  0  0  0
   46.3550   30.2510   44.6150 C   0  0  0  0  0  0  0  0  0  0  0  0
   45.6650   31.3940   44.1820 C   0  0  0  0  0  0  0  0  0  0  0  0
   49.4520   31.2880   43.6620 H   0  0  0  0  0  0  0  0  0  0  0  0
   48.2740   29.3900   44.7310 H   0  0  0  0  0  0  0  0  0  0  0  0
   45.8390   29.4230   45.0810 H   0  0  0  0  0  0  0  0  0  0  0  0
   44.5850   31.4570   44.3150 H   0  0  0  0  0  0  0  0  0  0  0  0
   44.2670   34.9560   41.6470 C   0  0  0  0  0  0  0  0  0  0  0  0
   44.8970   33.7510   41.9890 C   0  0  0  0  0  0  0  0  0  0  0  0
   45.6170   33.6370   43.1580 C   0  0  0  0  0  0  0  0  0  0  0  0
   45.6500   34.7480   43.9000 N   0  0  0  0  0  0  0  0  0  0  0  0
   45.0580   35.9180   43.6040 C   0  0  0  0  0  0  0  0  0  0  0  0
   44.3610   36.0180   42.4630 N   0  0  0  0  0  0  0  0  0  0  0  0
   43.7340   34.9390   40.7170 H   0  0  0  0  0  0  0  0  0  0  0  0
   44.8290   32.8890   41.3410 H   0  0  0  0  0  0  0  0  0  0  0  0
   45.1210   36.7840   44.2450 H   0  0  0  0  0  0  0  0  0  0  0  0
   48.3850   33.5380   42.7670 C   0  0  0  0  0  0  0  0  0  0  0  0
   47.9590   34.5020   43.1490 H   0  0  0  0  0  0  0  0  0  0  0  0
   49.4450   33.4850   43.1370 H   0  0  0  0  0  0  0  0  0  0  0  0
   48.3950   33.6170   41.3170 C   0  0  0  0  0  0  0  0  0  0  0  0
   48.0760   34.5890   40.3600 C   0  0  0  0  0  0  0  0  0  0  0  0
   47.7570   35.4950   40.9030 H   0  0  0  0  0  0  0  0  0  0  0  0
   48.1650   34.4060   39.0020 C   0  0  0  0  0  0  0  0  0  0  0  0
   47.8720   35.2740   38.4300 H   0  0  0  0  0  0  0  0  0  0  0  0
   48.5930   33.1940   38.5430 C   0  0  0  0  0  3  0  0  0  0  0  0
   48.9070   32.2410   39.4850 C   0  0  0  0  0  3  0  0  0  0  0  0
   48.8150   32.4360   40.8240 N   0  0  0  0  0  0  0  0  0  0  0  0
  1  6  1  0  0  0  0
  2  1  2  0  0  0  0
  2  3  1  0  0  0  0
  3  4  2  0  0  0  0
  4  5  1  0  0  0  0
  4  8  1  0  0  0  0
  5  9  1  0  0  0  0
  6 10  1  0  0  0  0
  6  5  2  0  0  0  0
  7  3  1  0  0  0  0
 11 12  2  0  0  0  0
 11 16  1  0  0  0  0
 12 13  1  0  0  0  0
 13  1  1  0  0  0  0
 13 14  2  0  0  0  0
 15 14  1  0  0  0  0
 15 19  1  0  0  0  0
 16 15  2  0  0  0  0
 17 11  1  0  0  0  0
 18 12  1  0  0  0  0
 20 22  1  0  0  0  0
 20 21  1  0  0  0  0
 20  2  1  0  0  0  0
 23 20  1  0  0  0  0
 24 25  1  0  0  0  0
 24 23  2  0  0  0  0
 26 24  1  0  0  0  0
 27 26  1  0  0  0  0
 28 26  2  0  0  0  0
 28 29  1  0  0  0  0
 29 30  2  0  0  0  0
 30 23  1  0  0  0  0
M  END
>  <minimizedAffinity>
-4.0143218

>  <minimizedRMSD>
4.58571529

$$$$
