REMARK  Name = 
REMARK  4 active torsions:
REMARK  status: ('A' for Active; 'I' for Inactive)
REMARK    1  A    between atoms: C_1  and  C_10
REMARK    2  A    between atoms: C_8  and  C_21
REMARK    3  A    between atoms: C_11  and  C_15
REMARK    4  A    between atoms: C_21  and  C_39
REMARK                            x       y       z     vdW  Elec       q    Type
REMARK                         _______ _______ _______ _____ _____    ______ ____
ROOT
ATOM      1  C   UNL     1      47.327  33.630  42.840  0.00  0.00    +0.000 C 
ATOM      2  O   UNL     1      48.413  33.422  43.445  0.00  0.00    +0.000 OA
ATOM      3  N   UNL     1      47.036  33.122  41.549  0.00  0.00    +0.000 N 
ATOM      4  C   UNL     1      45.809  32.495  41.027  0.00  0.00    +0.000 C 
ATOM      5  C   UNL     1      45.386  33.209  39.748  0.00  0.00    +0.000 C 
ATOM      6  C   UNL     1      46.413  32.989  38.687  0.00  0.00    +0.000 C 
ATOM      7  C   UNL     1      47.697  32.485  39.302  0.00  0.00    +0.000 C 
ATOM      8  C   UNL     1      48.067  33.195  40.554  0.00  0.00    +0.000 C 
ATOM      9  H   UNL     1      46.017  31.441  40.753  0.00  0.00    +0.000 HD
ATOM     10  H   UNL     1      44.979  32.569  41.763  0.00  0.00    +0.000 HD
ATOM     11  H   UNL     1      44.372  32.916  39.478  0.00  0.00    +0.000 HD
ATOM     12  H   UNL     1      45.396  34.297  40.023  0.00  0.00    +0.000 HD
ATOM     13  H   UNL     1      46.562  33.885  38.081  0.00  0.00    +0.000 HD
ATOM     14  H   UNL     1      46.012  32.173  38.036  0.00  0.00    +0.000 HD
ATOM     15  H   UNL     1      47.727  31.383  39.377  0.00  0.00    +0.000 HD
ATOM     16  H   UNL     1      48.494  32.754  38.545  0.00  0.00    +0.000 HD
ATOM     17  H   UNL     1      48.134  34.293  40.281  0.00  0.00    +0.000 HD
ENDROOT
BRANCH   1  19
ATOM     18  C   UNL     1      45.969  35.663  42.918  0.00  0.00    +0.000 A 
ATOM     19  C   UNL     1      46.332  34.433  43.513  0.00  0.00    +0.000 A 
ATOM     20  C   UNL     1      45.745  34.026  44.703  0.00  0.00    +0.000 A 
ATOM     21  N   UNL     1      44.824  34.849  45.254  0.00  0.00    +0.000 NA
ATOM     22  C   UNL     1      44.458  36.038  44.699  0.00  0.00    +0.000 A 
ATOM     23  N   UNL     1      45.042  36.421  43.536  0.00  0.00    +0.000 NA
ATOM     24  H   UNL     1      46.442  35.957  41.991  0.00  0.00    +0.000 HD
ATOM     25  H   UNL     1      43.718  36.672  45.167  0.00  0.00    +0.000 HD
BRANCH  20  26
ATOM     26  C   UNL     1      46.145  32.770  45.281  0.00  0.00    +0.000 A 
ATOM     27  C   UNL     1      45.773  31.599  44.716  0.00  0.00    +0.000 A 
ATOM     28  C   UNL     1      46.172  30.409  45.291  0.00  0.00    +0.000 A 
ATOM     29  C   UNL     1      46.951  30.357  46.446  0.00  0.00    +0.000 A 
ATOM     30  C   UNL     1      47.306  31.586  46.987  0.00  0.00    +0.000 A 
ATOM     31  N   UNL     1      46.900  32.720  46.400  0.00  0.00    +0.000 NA
ATOM     32  H   UNL     1      45.173  31.470  43.833  0.00  0.00    +0.000 HD
ATOM     33  H   UNL     1      45.904  29.438  44.883  0.00  0.00    +0.000 HD
ATOM     34  H   UNL     1      47.262  29.426  46.895  0.00  0.00    +0.000 HD
ATOM     35  H   UNL     1      47.906  31.649  47.878  0.00  0.00    +0.000 HD
ENDBRANCH  20  26
ENDBRANCH   1  19
BRANCH   8  36
ATOM     36  C   UNL     1      49.418  32.783  41.010  0.00  0.00    +0.000 C 
ATOM     37  H   UNL     1      49.836  33.226  41.907  0.00  0.00    +0.000 HD
ATOM     38  H   UNL     1      49.396  31.697  41.245  0.00  0.00    +0.000 HD
BRANCH  36  39
ATOM     39  C   UNL     1      50.431  32.864  39.880  0.00  0.00    +0.000 A 
ATOM     40  C   UNL     1      50.068  33.268  38.608  0.00  0.00    +0.000 A 
ATOM     41  H   UNL     1      49.037  33.536  38.422  0.00  0.00    +0.000 HD
ATOM     42  C   UNL     1      51.098  33.283  37.697  0.00  0.00    +0.000 A 
ATOM     43  H   UNL     1      50.853  33.597  36.678  0.00  0.00    +0.000 HD
ATOM     44  C   UNL     1      52.358  32.914  38.089  0.00  0.00    +0.000 A 
ATOM     45  C   UNL     1      52.660  32.516  39.385  0.00  0.00    +0.000 A 
ATOM     46  N   UNL     1      51.659  32.496  40.292  0.00  0.00    +0.000 NA
ENDBRANCH  36  39
ENDBRANCH   8  36
TORSDOF 4
