
 OpenBabel03252506593D

 23 24  0  0  0  0  0  0  0  0999 V2000
   46.2920   31.4350   44.1750 C   0  0  0  0  0  0  0  0  0  0  0  0
   45.7590   30.8920   43.3540 H   0  0  0  0  0  0  0  0  0  0  0  0
   46.2020   30.9010   45.1270 H   0  0  0  0  0  0  0  0  0  0  0  0
   45.7030   32.7750   44.2290 C   0  0  0  0  0  0  0  0  0  0  0  0
   45.9450   33.7300   43.2500 C   0  0  0  0  0  0  0  0  0  0  0  0
   45.3300   34.9960   43.3750 C   0  0  0  0  0  0  0  0  0  0  0  0
   44.5310   35.2040   44.4600 N   0  0  0  0  0  0  0  0  0  0  0  0
   44.3270   34.2510   45.3820 C   0  0  0  0  0  0  0  0  0  0  0  0
   44.9000   33.0570   45.2750 N   0  0  0  0  0  0  0  0  0  0  0  0
   46.5910   33.5080   42.4060 H   0  0  0  0  0  0  0  0  0  0  0  0
   45.4960   35.7620   42.6320 H   0  0  0  0  0  0  0  0  0  0  0  0
   43.6830   34.4240   46.2530 H   0  0  0  0  0  0  0  0  0  0  0  0
   47.7610   31.5740   43.9030 C   0  0  0  0  0  0  0  0  0  0  0  0
   48.0210   32.6520   43.9420 H   0  0  0  0  0  0  0  0  0  0  0  0
   48.0640   31.2000   42.8980 H   0  0  0  0  0  0  0  0  0  0  0  0
   48.6220   30.9090   44.9030 C   0  0  0  0  0  0  0  0  0  0  0  0
   48.1150   30.4210   46.0850 C   0  0  0  0  0  0  0  0  0  0  0  0
   47.0570   30.5250   46.2930 H   0  0  0  0  0  0  0  0  0  0  0  0
   48.9560   29.8000   47.0050 C   0  0  0  0  0  0  0  0  0  0  0  0
   48.5430   29.4260   47.9230 H   0  0  0  0  0  0  0  0  0  0  0  0
   50.3010   29.7140   46.6490 C   0  0  0  0  0  3  0  0  0  0  0  0
   50.7700   30.2180   45.4490 C   0  0  0  0  0  3  0  0  0  0  0  0
   49.9340   30.8140   44.5790 N   0  0  0  0  0  0  0  0  0  0  0  0
  1  4  1  0  0  0  0
  1  3  1  0  0  0  0
  2  1  1  0  0  0  0
  4  9  1  0  0  0  0
  5  6  1  0  0  0  0
  5  4  2  0  0  0  0
  6  7  2  0  0  0  0
  7  8  1  0  0  0  0
  8 12  1  0  0  0  0
  9  8  2  0  0  0  0
 10  5  1  0  0  0  0
 11  6  1  0  0  0  0
 13 14  1  0  0  0  0
 13  1  1  0  0  0  0
 13 16  1  0  0  0  0
 15 13  1  0  0  0  0
 16 17  1  0  0  0  0
 17 18  1  0  0  0  0
 17 19  2  0  0  0  0
 19 20  1  0  0  0  0
 21 19  1  0  0  0  0
 22 21  2  0  0  0  0
 23 16  2  0  0  0  0
 23 22  1  0  0  0  0
M  END
>  <minimizedAffinity>
2.74643755

>  <minimizedRMSD>
4.48623991

$$$$
