
 OpenBabel03252508433D

 30 32  0  0  0  0  0  0  0  0999 V2000
   46.0540   34.4130   41.2520 C   0  0  0  0  0  0  0  0  0  0  0  0
   46.8200   34.0320   40.1630 C   0  0  0  0  0  0  0  0  0  0  0  0
   48.1620   34.3950   40.1630 C   0  0  0  0  0  0  0  0  0  0  0  0
   48.6850   35.0990   41.2070 C   0  0  0  0  0  0  0  0  0  0  0  0
   47.9460   35.4840   42.2900 C   0  0  0  0  0  0  0  0  0  0  0  0
   46.5930   35.1130   42.2780 C   0  0  0  0  0  0  0  0  0  0  0  0
   48.7550   34.0860   39.2960 H   0  0  0  0  0  0  0  0  0  0  0  0
   49.7310   35.3650   41.1780 H   0  0  0  0  0  0  0  0  0  0  0  0
   48.3710   36.0420   43.1130 H   0  0  0  0  0  0  0  0  0  0  0  0
   45.9490   35.3890   43.1130 H   0  0  0  0  0  0  0  0  0  0  0  0
   42.7700   32.5670   41.5970 C   0  0  0  0  0  0  0  0  0  0  0  0
   44.1410   32.8480   41.6870 C   0  0  0  0  0  0  0  0  0  0  0  0
   44.6530   34.0330   41.2050 C   0  0  0  0  0  0  0  0  0  0  0  0
   43.7440   34.8520   40.6670 N   0  0  0  0  0  0  0  0  0  0  0  0
   42.4240   34.6150   40.5640 C   0  0  0  0  0  0  0  0  0  0  0  0
   41.9370   33.4580   41.0350 N   0  0  0  0  0  0  0  0  0  0  0  0
   42.4750   31.6180   42.0000 H   0  0  0  0  0  0  0  0  0  0  0  0
   44.8210   32.1390   42.1370 H   0  0  0  0  0  0  0  0  0  0  0  0
   41.7380   35.3180   40.1170 H   0  0  0  0  0  0  0  0  0  0  0  0
   46.2500   33.2730   39.0390 C   0  0  0  0  0  0  0  0  0  0  0  0
   45.8030   32.3210   39.4290 H   0  0  0  0  0  0  0  0  0  0  0  0
   45.3960   33.8910   38.6470 H   0  0  0  0  0  0  0  0  0  0  0  0
   47.1220   32.9180   37.9330 C   0  0  0  0  0  0  0  0  0  0  0  0
   47.7070   33.5960   36.8570 C   0  0  0  0  0  0  0  0  0  0  0  0
   47.4040   34.6540   36.9290 H   0  0  0  0  0  0  0  0  0  0  0  0
   48.5110   33.0110   35.9110 C   0  0  0  0  0  0  0  0  0  0  0  0
   48.8660   33.7010   35.1590 H   0  0  0  0  0  0  0  0  0  0  0  0
   48.7640   31.6740   36.0180 C   0  0  0  0  0  3  0  0  0  0  0  0
   48.1880   31.0100   37.0770 C   0  0  0  0  0  3  0  0  0  0  0  0
   47.3950   31.6010   38.0060 N   0  0  0  0  0  0  0  0  0  0  0  0
  1  6  1  0  0  0  0
  2  3  1  0  0  0  0
  2  1  2  0  0  0  0
  3  4  2  0  0  0  0
  4  5  1  0  0  0  0
  5  9  1  0  0  0  0
  6  5  2  0  0  0  0
  6 10  1  0  0  0  0
  7  3  1  0  0  0  0
  8  4  1  0  0  0  0
 11 12  1  0  0  0  0
 11 17  1  0  0  0  0
 12 18  1  0  0  0  0
 13  1  1  0  0  0  0
 13 12  2  0  0  0  0
 14 13  1  0  0  0  0
 15 14  2  0  0  0  0
 15 16  1  0  0  0  0
 16 11  2  0  0  0  0
 19 15  1  0  0  0  0
 20 21  1  0  0  0  0
 20  2  1  0  0  0  0
 22 20  1  0  0  0  0
 23 30  1  0  0  0  0
 23 20  1  0  0  0  0
 24 25  1  0  0  0  0
 24 23  2  0  0  0  0
 26 28  2  0  0  0  0
 26 24  1  0  0  0  0
 27 26  1  0  0  0  0
 28 29  1  0  0  0  0
 29 30  2  0  0  0  0
M  END
>  <minimizedAffinity>
-4.5288806

>  <minimizedRMSD>
5.66547489

$$$$
