
 OpenBabel03252507223D

 46 49  0  0  1  0  0  0  0  0999 V2000
   47.1180   33.1930   43.0750 C   0  0  0  0  0  0  0  0  0  0  0  0
   48.3110   33.1880   43.4810 O   0  0  0  0  0  0  0  0  0  0  0  0
   46.6270   32.3280   42.0640 N   0  0  0  0  0  0  0  0  0  0  0  0
   45.3750   31.5550   41.9980 C   0  0  0  0  0  0  0  0  0  0  0  0
   44.6650   31.8610   40.6840 C   0  0  0  0  0  0  0  0  0  0  0  0
   45.4870   31.3610   39.5420 C   0  0  0  0  0  0  0  0  0  0  0  0
   46.8980   31.0800   40.0000 C   0  0  0  0  0  0  0  0  0  0  0  0
   47.4430   32.1280   40.9010 C   0  0  2  0  0  0  0  0  0  0  0  0
   45.6060   30.4710   41.9940 H   0  0  0  0  0  0  0  0  0  0  0  0
   44.6950   31.8240   42.8360 H   0  0  0  0  0  0  0  0  0  0  0  0
   43.6430   31.4840   40.7180 H   0  0  0  0  0  0  0  0  0  0  0  0
   44.6450   32.9820   40.6350 H   0  0  0  0  0  0  0  0  0  0  0  0
   45.4510   32.0460   38.6920 H   0  0  0  0  0  0  0  0  0  0  0  0
   45.0330   30.3850   39.2400 H   0  0  0  0  0  0  0  0  0  0  0  0
   47.0250   30.0480   40.3730 H   0  0  0  0  0  0  0  0  0  0  0  0
   47.5150   31.1330   39.0530 H   0  0  0  0  0  0  0  0  0  0  0  0
   47.3750   33.1020   40.3240 H   0  0  0  0  0  0  0  0  0  0  0  0
   45.8310   35.2680   42.9220 C   0  0  0  0  0  0  0  0  0  0  0  0
   46.2100   34.1380   43.6830 C   0  0  0  0  0  0  0  0  0  0  0  0
   45.7190   33.9590   44.9690 C   0  0  0  0  0  0  0  0  0  0  0  0
   44.8750   34.9010   45.4480 N   0  0  0  0  0  0  0  0  0  0  0  0
   44.4960   35.9970   44.7330 C   0  0  0  0  0  0  0  0  0  0  0  0
   44.9850   36.1570   43.4780 N   0  0  0  0  0  0  0  0  0  0  0  0
   46.2290   35.3840   41.9230 H   0  0  0  0  0  0  0  0  0  0  0  0
   43.8190   36.7310   45.1470 H   0  0  0  0  0  0  0  0  0  0  0  0
   46.1320   32.7990   45.7140 C   0  0  0  0  0  0  0  0  0  0  0  0
   45.6510   31.5730   45.4080 C   0  0  0  0  0  0  0  0  0  0  0  0
   46.0660   30.4780   46.1390 C   0  0  0  0  0  0  0  0  0  0  0  0
   46.9690   30.5780   47.1970 C   0  0  0  0  0  0  0  0  0  0  0  0
   47.4320   31.8590   47.4710 C   0  0  0  0  0  0  0  0  0  0  0  0
   47.0070   32.8970   46.7390 N   0  0  0  0  0  0  0  0  0  0  0  0
   44.9500   31.3300   44.6300 H   0  0  0  0  0  0  0  0  0  0  0  0
   45.7140   29.4690   45.9400 H   0  0  0  0  0  0  0  0  0  0  0  0
   47.2910   29.7210   47.7680 H   0  0  0  0  0  0  0  0  0  0  0  0
   48.1320   32.0380   48.2690 H   0  0  0  0  0  0  0  0  0  0  0  0
   48.8830   31.8900   41.1710 C   0  0  0  0  0  0  0  0  0  0  0  0
   49.3950   32.4990   41.9080 H   0  0  0  0  0  0  0  0  0  0  0  0
   49.0040   30.8570   41.5610 H   0  0  0  0  0  0  0  0  0  0  0  0
   49.6890   31.8620   39.8830 C   0  0  0  0  0  0  0  0  0  0  0  0
   49.1810   32.3640   38.6980 C   0  0  0  0  0  0  0  0  0  0  0  0
   48.1870   32.7890   38.6980 H   0  0  0  0  0  0  0  0  0  0  0  0
   50.0310   32.2590   37.6220 C   0  0  0  0  0  0  0  0  0  0  0  0
   49.6670   32.6450   36.6650 H   0  0  0  0  0  0  0  0  0  0  0  0
   51.2670   31.6910   37.7840 C   0  0  0  0  0  3  0  0  0  0  0  0
   51.7210   31.2040   39.0030 C   0  0  0  0  0  3  0  0  0  0  0  0
   50.8980   31.2990   40.0700 N   0  0  0  0  0  0  0  0  0  0  0  0
  1  2  2  0  0  0  0
  1 19  1  0  0  0  0
  3  1  1  0  0  0  0
  4  3  1  0  0  0  0
  4 10  1  0  0  0  0
  5 11  1  0  0  0  0
  5  4  1  0  0  0  0
  6  7  1  0  0  0  0
  6  5  1  0  0  0  0
  7 15  1  0  0  0  0
  7  8  1  0  0  0  0
  8 17  1  6  0  0  0
  8 36  1  0  0  0  0
  8  3  1  0  0  0  0
  9  4  1  0  0  0  0
 12  5  1  0  0  0  0
 13  6  1  0  0  0  0
 14  6  1  0  0  0  0
 16  7  1  0  0  0  0
 18 23  2  0  0  0  0
 18 19  1  0  0  0  0
 19 20  2  0  0  0  0
 20 21  1  0  0  0  0
 20 26  1  0  0  0  0
 22 25  1  0  0  0  0
 22 21  2  0  0  0  0
 23 22  1  0  0  0  0
 24 18  1  0  0  0  0
 26 31  1  0  0  0  0
 27 26  2  0  0  0  0
 27 28  1  0  0  0  0
 28 29  2  0  0  0  0
 29 30  1  0  0  0  0
 29 34  1  0  0  0  0
 30 35  1  0  0  0  0
 31 30  2  0  0  0  0
 32 27  1  0  0  0  0
 33 28  1  0  0  0  0
 36 38  1  0  0  0  0
 36 37  1  0  0  0  0
 39 46  1  0  0  0  0
 39 36  1  0  0  0  0
 40 41  1  0  0  0  0
 40 39  2  0  0  0  0
 42 44  2  0  0  0  0
 42 40  1  0  0  0  0
 43 42  1  0  0  0  0
 44 45  1  0  0  0  0
 45 46  2  0  0  0  0
M  END
>  <minimizedAffinity>
-5.15603256

>  <minimizedRMSD>
1.10061443

$$$$
