
 OpenBabel03252506593D

 23 24  0  0  0  0  0  0  0  0999 V2000
   45.7960   32.4840   44.1810 C   0  0  0  0  0  0  0  0  0  0  0  0
   45.8320   32.1150   43.1240 H   0  0  0  0  0  0  0  0  0  0  0  0
   45.0730   31.9160   44.7750 H   0  0  0  0  0  0  0  0  0  0  0  0
   45.4610   33.9080   44.1060 C   0  0  0  0  0  0  0  0  0  0  0  0
   45.6530   34.6540   42.9510 C   0  0  0  0  0  0  0  0  0  0  0  0
   45.2950   36.0210   42.9620 C   0  0  0  0  0  0  0  0  0  0  0  0
   44.7780   36.5270   44.1180 N   0  0  0  0  0  0  0  0  0  0  0  0
   44.6090   35.7670   45.2100 C   0  0  0  0  0  0  0  0  0  0  0  0
   44.9430   34.4810   45.2110 N   0  0  0  0  0  0  0  0  0  0  0  0
   46.0700   34.1980   42.0570 H   0  0  0  0  0  0  0  0  0  0  0  0
   45.4310   36.6310   42.0810 H   0  0  0  0  0  0  0  0  0  0  0  0
   44.1930   36.1800   46.1380 H   0  0  0  0  0  0  0  0  0  0  0  0
   47.1200   32.3460   44.8750 C   0  0  0  0  0  0  0  0  0  0  0  0
   47.5450   33.3610   45.0160 H   0  0  0  0  0  0  0  0  0  0  0  0
   47.8660   31.7550   44.2950 H   0  0  0  0  0  0  0  0  0  0  0  0
   47.0300   31.7480   46.2240 C   0  0  0  0  0  0  0  0  0  0  0  0
   46.8610   30.3960   46.4060 C   0  0  0  0  0  0  0  0  0  0  0  0
   46.7910   29.7460   45.5430 H   0  0  0  0  0  0  0  0  0  0  0  0
   46.7810   29.8660   47.6930 C   0  0  0  0  0  0  0  0  0  0  0  0
   46.6500   28.8070   47.8160 H   0  0  0  0  0  0  0  0  0  0  0  0
   46.8820   30.7810   48.7410 C   0  0  0  0  0  3  0  0  0  0  0  0
   47.0510   32.1340   48.5130 C   0  0  0  0  0  3  0  0  0  0  0  0
   47.1250   32.6160   47.2590 N   0  0  0  0  0  0  0  0  0  0  0  0
  1  3  1  0  0  0  0
  1 13  1  0  0  0  0
  2  1  1  0  0  0  0
  4  1  1  0  0  0  0
  4  9  1  0  0  0  0
  5  6  1  0  0  0  0
  5  4  2  0  0  0  0
  6  7  2  0  0  0  0
  7  8  1  0  0  0  0
  8  9  2  0  0  0  0
  8 12  1  0  0  0  0
 10  5  1  0  0  0  0
 11  6  1  0  0  0  0
 13 14  1  0  0  0  0
 13 16  1  0  0  0  0
 15 13  1  0  0  0  0
 16 17  2  0  0  0  0
 16 23  1  0  0  0  0
 17 19  1  0  0  0  0
 18 17  1  0  0  0  0
 19 20  1  0  0  0  0
 19 21  2  0  0  0  0
 22 21  1  0  0  0  0
 23 22  2  0  0  0  0
M  END
>  <minimizedAffinity>
-3.88337255

>  <minimizedRMSD>
5.75817251

$$$$
