
 OpenBabel03242523443D

 30 32  0  0  1  0  0  0  0  0999 V2000
   46.2050   33.4270   39.6420 C   0  0  2  0  0  0  0  0  0  0  0  0
   45.9910   34.4770   39.8410 H   0  0  0  0  0  0  0  0  0  0  0  0
   44.9210   33.3250   41.7290 C   0  0  0  0  0  0  0  0  0  0  0  0
   45.6780   32.6270   40.7620 C   0  0  0  0  0  0  0  0  0  0  0  0
   45.8960   31.2460   40.9170 C   0  0  0  0  0  0  0  0  0  0  0  0
   45.3470   30.6910   42.0080 N   0  0  0  0  0  0  0  0  0  0  0  0
   44.6320   31.3570   42.9190 C   0  0  0  0  0  0  0  0  0  0  0  0
   44.4130   32.6730   42.7910 N   0  0  0  0  0  0  0  0  0  0  0  0
   44.7450   34.3860   41.6250 H   0  0  0  0  0  0  0  0  0  0  0  0
   46.4760   30.7380   40.1640 H   0  0  0  0  0  0  0  0  0  0  0  0
   44.2020   30.8920   43.7850 H   0  0  0  0  0  0  0  0  0  0  0  0
   45.5520   32.9550   38.3800 C   0  0  0  0  0  0  0  0  0  0  0  0
   44.2120   32.9600   38.0300 C   0  0  0  0  0  0  0  0  0  0  0  0
   44.0740   32.4460   36.7910 N   0  0  0  0  0  0  0  0  0  0  0  0
   45.3270   32.1180   36.3580 C   0  0  0  0  0  0  0  0  0  0  0  0
   46.2220   32.4320   37.3370 N   0  0  0  0  0  0  0  0  0  0  0  0
   43.4030   33.3280   38.6730 H   0  0  0  0  0  0  0  0  0  0  0  0
   43.1470   32.3500   36.3160 H   0  0  0  0  0  0  0  0  0  0  0  0
   45.4490   31.6830   35.3750 H   0  0  0  0  0  0  0  0  0  0  0  0
   47.6750   33.2020   39.5550 C   0  0  0  0  0  0  0  0  0  0  0  0
   47.9600   32.1350   39.6400 H   0  0  0  0  0  0  0  0  0  0  0  0
   48.0560   33.5550   38.5510 H   0  0  0  0  0  0  0  0  0  0  0  0
   48.4400   33.9640   40.5720 C   0  0  0  0  0  0  0  0  0  0  0  0
   49.2480   33.1490   41.3660 C   0  0  0  0  0  0  0  0  0  0  0  0
   49.3170   32.0660   41.2600 H   0  0  0  0  0  0  0  0  0  0  0  0
   50.0280   33.6860   42.3630 C   0  0  0  0  0  0  0  0  0  0  0  0
   50.6670   33.0870   43.0000 H   0  0  0  0  0  0  0  0  0  0  0  0
   49.9700   35.0690   42.5350 C   0  0  0  0  0  0  0  0  0  0  0  0
   49.1610   35.8700   41.7360 C   0  0  0  0  0  0  0  0  0  0  0  0
   48.4230   35.3080   40.7840 N   0  0  0  0  0  0  0  0  0  0  0  0
  1  2  1  1  0  0  0
  1  4  1  0  0  0  0
  3  8  1  0  0  0  0
  4  5  1  0  0  0  0
  4  3  2  0  0  0  0
  5  6  2  0  0  0  0
  6  7  1  0  0  0  0
  7 11  1  0  0  0  0
  8  7  2  0  0  0  0
  9  3  1  0  0  0  0
 10  5  1  0  0  0  0
 12  1  1  0  0  0  0
 13 12  2  0  0  0  0
 13 17  1  0  0  0  0
 14 13  1  0  0  0  0
 15 14  1  0  0  0  0
 15 16  2  0  0  0  0
 16 12  1  0  0  0  0
 18 14  1  0  0  0  0
 19 15  1  0  0  0  0
 20 21  1  0  0  0  0
 20  1  1  0  0  0  0
 20 23  1  0  0  0  0
 22 20  1  0  0  0  0
 23 30  2  0  0  0  0
 23 24  1  0  0  0  0
 24 26  2  0  0  0  0
 25 24  1  0  0  0  0
 26 28  1  0  0  0  0
 26 27  1  0  0  0  0
 29 28  2  0  0  0  0
 30 29  1  0  0  0  0
M  END
>  <minimizedAffinity>
-3.88114858

>  <minimizedRMSD>
3.39583278

$$$$
