
 OpenBabel03242513353D

 20 21  0  0  0  0  0  0  0  0999 V2000
   38.4590   28.3140   42.3140 C   0  0  0  0  0  0  0  0  0  0  0  0
   37.2820   27.6310   42.0300 C   0  0  0  0  0  0  0  0  0  0  0  0
   36.3180   28.3100   41.3070 C   0  0  0  0  0  0  0  0  0  0  0  0
   36.5380   29.5880   40.9060 N   0  0  0  0  0  0  0  0  0  0  0  0
   37.7060   30.2140   41.2080 C   0  0  0  0  0  0  0  0  0  0  0  0
   38.6580   29.5810   41.9070 N   0  0  0  0  0  0  0  0  0  0  0  0
   39.2630   27.8370   42.8820 H   0  0  0  0  0  0  0  0  0  0  0  0
   35.4040   27.7710   41.0900 H   0  0  0  0  0  0  0  0  0  0  0  0
   37.9400   31.5880   40.7750 C   0  0  0  0  0  0  0  0  0  0  0  0
   37.0600   32.2430   39.9420 C   0  0  0  0  0  0  0  0  0  0  0  0
   36.1790   31.6850   39.6210 H   0  0  0  0  0  0  0  0  0  0  0  0
   37.2220   33.5510   39.4910 C   0  0  0  0  0  0  0  0  0  0  0  0
   36.5240   34.0400   38.8440 H   0  0  0  0  0  0  0  0  0  0  0  0
   38.3750   34.1580   39.9640 C   0  0  0  0  0  3  0  0  0  0  0  0
   39.2790   33.5360   40.7970 C   0  0  0  0  0  3  0  0  0  0  0  0
   39.0490   32.2650   41.1890 N   0  0  0  0  0  0  0  0  0  0  0  0
   37.1670   26.2340   42.5290 C   0  0  0  0  0  0  0  0  0  0  0  0
   38.4340   25.8880   42.9930 F   0  0  0  0  0  0  0  0  0  0  0  0
   36.7830   25.4250   41.5050 F   0  0  0  0  0  0  0  0  0  0  0  0
   36.2220   26.2380   43.5710 F   0  0  0  0  0  0  0  0  0  0  0  0
  1  7  1  0  0  0  0
  2  1  1  0  0  0  0
  2 17  1  0  0  0  0
  3  2  2  0  0  0  0
  4  5  2  0  0  0  0
  4  3  1  0  0  0  0
  5  6  1  0  0  0  0
  6  1  2  0  0  0  0
  8  3  1  0  0  0  0
  9 16  1  0  0  0  0
  9  5  1  0  0  0  0
 10  9  2  0  0  0  0
 11 10  1  0  0  0  0
 12 10  1  0  0  0  0
 12 14  2  0  0  0  0
 13 12  1  0  0  0  0
 14 15  1  0  0  0  0
 15 16  2  0  0  0  0
 17 18  1  0  0  0  0
 17 20  1  0  0  0  0
 19 17  1  0  0  0  0
M  END
>  <minimizedAffinity>
-4.82561398

$$$$

 OpenBabel03242513353D

 20 21  0  0  0  0  0  0  0  0999 V2000
   38.1530   28.5110   42.7120 C   0  0  0  0  0  0  0  0  0  0  0  0
   37.4350   27.6070   41.9370 C   0  0  0  0  0  0  0  0  0  0  0  0
   36.9340   28.0670   40.7330 C   0  0  0  0  0  0  0  0  0  0  0  0
   37.1480   29.3510   40.3500 N   0  0  0  0  0  0  0  0  0  0  0  0
   37.8570   30.1980   41.1420 C   0  0  0  0  0  0  0  0  0  0  0  0
   38.3550   29.7800   42.3130 N   0  0  0  0  0  0  0  0  0  0  0  0
   38.5780   28.2140   43.6760 H   0  0  0  0  0  0  0  0  0  0  0  0
   36.3760   27.3560   40.1360 H   0  0  0  0  0  0  0  0  0  0  0  0
   38.0860   31.5780   40.7260 C   0  0  0  0  0  0  0  0  0  0  0  0
   37.1530   32.2770   39.9930 C   0  0  0  0  0  0  0  0  0  0  0  0
   36.2320   31.7490   39.7380 H   0  0  0  0  0  0  0  0  0  0  0  0
   37.3070   33.5940   39.5650 C   0  0  0  0  0  0  0  0  0  0  0  0
   36.5660   34.1170   38.9960 H   0  0  0  0  0  0  0  0  0  0  0  0
   38.5120   34.1610   39.9490 C   0  0  0  0  0  3  0  0  0  0  0  0
   39.4710   33.4940   40.6820 C   0  0  0  0  0  3  0  0  0  0  0  0
   39.2440   32.2180   41.0580 N   0  0  0  0  0  0  0  0  0  0  0  0
   37.2720   26.2290   42.4740 C   0  0  0  0  0  0  0  0  0  0  0  0
   36.2060   26.2890   43.3680 F   0  0  0  0  0  0  0  0  0  0  0  0
   38.4190   25.8580   43.1040 F   0  0  0  0  0  0  0  0  0  0  0  0
   36.9830   25.3870   41.3840 F   0  0  0  0  0  0  0  0  0  0  0  0
  1  7  1  0  0  0  0
  2 17  1  0  0  0  0
  2  1  2  0  0  0  0
  3  2  1  0  0  0  0
  4  3  2  0  0  0  0
  4  5  1  0  0  0  0
  5  6  2  0  0  0  0
  6  1  1  0  0  0  0
  8  3  1  0  0  0  0
  9 16  1  0  0  0  0
  9  5  1  0  0  0  0
 10  9  2  0  0  0  0
 11 10  1  0  0  0  0
 12 14  2  0  0  0  0
 12 10  1  0  0  0  0
 13 12  1  0  0  0  0
 14 15  1  0  0  0  0
 15 16  2  0  0  0  0
 17 19  1  0  0  0  0
 17 18  1  0  0  0  0
 20 17  1  0  0  0  0
M  END
>  <minimizedAffinity>
-4.73906422

$$$$

 OpenBabel03242513353D

 20 21  0  0  0  0  0  0  0  0999 V2000
   38.2870   26.8450   40.5840 C   0  0  0  0  0  0  0  0  0  0  0  0
   37.6250   26.4150   41.7290 C   0  0  0  0  0  0  0  0  0  0  0  0
   37.0320   27.3850   42.5160 C   0  0  0  0  0  0  0  0  0  0  0  0
   37.1090   28.6930   42.1620 N   0  0  0  0  0  0  0  0  0  0  0  0
   37.7680   29.0650   41.0330 C   0  0  0  0  0  0  0  0  0  0  0  0
   38.3520   28.1470   40.2510 N   0  0  0  0  0  0  0  0  0  0  0  0
   38.7780   26.1300   39.9170 H   0  0  0  0  0  0  0  0  0  0  0  0
   36.5170   27.0420   43.4050 H   0  0  0  0  0  0  0  0  0  0  0  0
   37.8500   30.4720   40.6550 C   0  0  0  0  0  0  0  0  0  0  0  0
   37.0420   31.0060   39.6750 C   0  0  0  0  0  0  0  0  0  0  0  0
   36.3370   30.3250   39.1940 H   0  0  0  0  0  0  0  0  0  0  0  0
   37.0680   32.3370   39.2660 C   0  0  0  0  0  0  0  0  0  0  0  0
   36.4290   32.7300   38.5020 H   0  0  0  0  0  0  0  0  0  0  0  0
   38.0000   33.1050   39.9480 C   0  0  0  0  0  3  0  0  0  0  0  0
   38.8250   32.6070   40.9330 C   0  0  0  0  0  3  0  0  0  0  0  0
   38.7380   31.3040   41.2710 N   0  0  0  0  0  0  0  0  0  0  0  0
   37.6140   24.9520   42.0010 C   0  0  0  0  0  0  0  0  0  0  0  0
   38.6440   24.7250   42.9110 F   0  0  0  0  0  0  0  0  0  0  0  0
   37.8320   24.2810   40.8380 F   0  0  0  0  0  0  0  0  0  0  0  0
   36.3600   24.6390   42.5550 F   0  0  0  0  0  0  0  0  0  0  0  0
  1  2  1  0  0  0  0
  2 17  1  0  0  0  0
  2  3  2  0  0  0  0
  3  8  1  0  0  0  0
  4  3  1  0  0  0  0
  5  4  2  0  0  0  0
  6  1  2  0  0  0  0
  6  5  1  0  0  0  0
  7  1  1  0  0  0  0
  9  5  1  0  0  0  0
  9 16  1  0  0  0  0
 10  9  2  0  0  0  0
 11 10  1  0  0  0  0
 12 10  1  0  0  0  0
 12 14  2  0  0  0  0
 13 12  1  0  0  0  0
 14 15  1  0  0  0  0
 15 16  2  0  0  0  0
 17 20  1  0  0  0  0
 17 18  1  0  0  0  0
 19 17  1  0  0  0  0
M  END
>  <minimizedAffinity>
-4.51880026

$$$$

 OpenBabel03242513353D

 20 21  0  0  0  0  0  0  0  0999 V2000
   38.2530   30.0040   39.4300 C   0  0  0  0  0  0  0  0  0  0  0  0
   37.5320   30.9610   40.1360 C   0  0  0  0  0  0  0  0  0  0  0  0
   36.6040   30.5020   41.0520 C   0  0  0  0  0  0  0  0  0  0  0  0
   36.4240   29.1680   41.2330 N   0  0  0  0  0  0  0  0  0  0  0  0
   37.1530   28.2710   40.5190 C   0  0  0  0  0  0  0  0  0  0  0  0
   38.0600   28.6870   39.6240 N   0  0  0  0  0  0  0  0  0  0  0  0
   39.0030   30.2990   38.6900 H   0  0  0  0  0  0  0  0  0  0  0  0
   36.0470   31.2530   41.5980 H   0  0  0  0  0  0  0  0  0  0  0  0
   36.9580   26.8380   40.7150 C   0  0  0  0  0  0  0  0  0  0  0  0
   37.1560   26.2430   41.9420 C   0  0  0  0  0  0  0  0  0  0  0  0
   37.4660   26.8950   42.7600 H   0  0  0  0  0  0  0  0  0  0  0  0
   36.9880   24.8840   42.1980 C   0  0  0  0  0  0  0  0  0  0  0  0
   37.1470   24.4440   43.1610 H   0  0  0  0  0  0  0  0  0  0  0  0
   36.5920   24.1580   41.0860 C   0  0  0  0  0  3  0  0  0  0  0  0
   36.3840   24.7170   39.8430 C   0  0  0  0  0  3  0  0  0  0  0  0
   36.5700   26.0440   39.6770 N   0  0  0  0  0  0  0  0  0  0  0  0
   37.8260   32.3900   39.8420 C   0  0  0  0  0  0  0  0  0  0  0  0
   38.2060   32.9600   41.0550 F   0  0  0  0  0  0  0  0  0  0  0  0
   36.7050   32.9830   39.3510 F   0  0  0  0  0  0  0  0  0  0  0  0
   38.8800   32.4160   38.9100 F   0  0  0  0  0  0  0  0  0  0  0  0
  1  6  2  0  0  0  0
  1  2  1  0  0  0  0
  2  3  2  0  0  0  0
  3  4  1  0  0  0  0
  3  8  1  0  0  0  0
  5  9  1  0  0  0  0
  5  4  2  0  0  0  0
  6  5  1  0  0  0  0
  7  1  1  0  0  0  0
  9 10  1  0  0  0  0
 10 12  2  0  0  0  0
 10 11  1  0  0  0  0
 12 13  1  0  0  0  0
 14 12  1  0  0  0  0
 15 14  2  0  0  0  0
 16 15  1  0  0  0  0
 16  9  2  0  0  0  0
 17  2  1  0  0  0  0
 17 18  1  0  0  0  0
 19 17  1  0  0  0  0
 20 17  1  0  0  0  0
M  END
>  <minimizedAffinity>
-4.40722704

$$$$

 OpenBabel03242513353D

 20 21  0  0  0  0  0  0  0  0999 V2000
   36.8460   26.5250   40.0850 C   0  0  0  0  0  0  0  0  0  0  0  0
   37.2490   26.2020   41.3760 C   0  0  0  0  0  0  0  0  0  0  0  0
   37.6870   27.2400   42.1780 C   0  0  0  0  0  0  0  0  0  0  0  0
   37.7110   28.5090   41.6990 N   0  0  0  0  0  0  0  0  0  0  0  0
   37.3070   28.7760   40.4290 C   0  0  0  0  0  0  0  0  0  0  0  0
   36.8780   27.7910   39.6300 N   0  0  0  0  0  0  0  0  0  0  0  0
   36.4890   25.7520   39.3970 H   0  0  0  0  0  0  0  0  0  0  0  0
   37.9980   26.9790   43.1820 H   0  0  0  0  0  0  0  0  0  0  0  0
   37.3350   30.1430   39.9180 C   0  0  0  0  0  0  0  0  0  0  0  0
   37.3460   30.4080   38.5660 C   0  0  0  0  0  0  0  0  0  0  0  0
   37.3340   29.5470   37.8950 H   0  0  0  0  0  0  0  0  0  0  0  0
   37.3730   31.6860   38.0110 C   0  0  0  0  0  0  0  0  0  0  0  0
   37.3810   31.8680   36.9560 H   0  0  0  0  0  0  0  0  0  0  0  0
   37.3860   32.6980   38.9580 C   0  0  0  0  0  3  0  0  0  0  0  0
   37.3750   32.4720   40.3170 C   0  0  0  0  0  3  0  0  0  0  0  0
   37.3500   31.2030   40.7750 N   0  0  0  0  0  0  0  0  0  0  0  0
   37.1720   24.7700   41.7750 C   0  0  0  0  0  0  0  0  0  0  0  0
   36.7320   24.0810   40.6480 F   0  0  0  0  0  0  0  0  0  0  0  0
   36.2910   24.6420   42.8030 F   0  0  0  0  0  0  0  0  0  0  0  0
   38.4680   24.3710   42.1490 F   0  0  0  0  0  0  0  0  0  0  0  0
  1  2  1  0  0  0  0
  2 17  1  0  0  0  0
  2  3  2  0  0  0  0
  3  8  1  0  0  0  0
  4  3  1  0  0  0  0
  5  4  2  0  0  0  0
  6  1  2  0  0  0  0
  6  5  1  0  0  0  0
  7  1  1  0  0  0  0
  9  5  1  0  0  0  0
  9 16  1  0  0  0  0
 10  9  2  0  0  0  0
 11 10  1  0  0  0  0
 12 10  1  0  0  0  0
 12 14  2  0  0  0  0
 13 12  1  0  0  0  0
 14 15  1  0  0  0  0
 15 16  2  0  0  0  0
 17 20  1  0  0  0  0
 17 19  1  0  0  0  0
 18 17  1  0  0  0  0
M  END
>  <minimizedAffinity>
-4.36655903

$$$$

 OpenBabel03242513353D

 20 21  0  0  0  0  0  0  0  0999 V2000
   35.9480   28.6750   41.2630 C   0  0  0  0  0  0  0  0  0  0  0  0
   36.6940   27.5130   41.4310 C   0  0  0  0  0  0  0  0  0  0  0  0
   36.8470   26.6970   40.3250 C   0  0  0  0  0  0  0  0  0  0  0  0
   36.2810   27.0400   39.1400 N   0  0  0  0  0  0  0  0  0  0  0  0
   35.5610   28.1860   39.0240 C   0  0  0  0  0  0  0  0  0  0  0  0
   35.3960   28.9960   40.0780 N   0  0  0  0  0  0  0  0  0  0  0  0
   35.7870   29.3650   42.0960 H   0  0  0  0  0  0  0  0  0  0  0  0
   37.4300   25.7950   40.4640 H   0  0  0  0  0  0  0  0  0  0  0  0
   34.9540   28.5510   37.7480 C   0  0  0  0  0  0  0  0  0  0  0  0
   33.6050   28.8070   37.6360 C   0  0  0  0  0  0  0  0  0  0  0  0
   33.0110   28.7230   38.5470 H   0  0  0  0  0  0  0  0  0  0  0  0
   32.9630   29.1590   36.4510 C   0  0  0  0  0  0  0  0  0  0  0  0
   31.9120   29.3540   36.3880 H   0  0  0  0  0  0  0  0  0  0  0  0
   33.8170   29.2360   35.3620 C   0  0  0  0  0  3  0  0  0  0  0  0
   35.1710   28.9870   35.4350 C   0  0  0  0  0  3  0  0  0  0  0  0
   35.7170   28.6490   36.6220 N   0  0  0  0  0  0  0  0  0  0  0  0
   37.2590   27.2560   42.7830 C   0  0  0  0  0  0  0  0  0  0  0  0
   38.0560   26.1210   42.6560 F   0  0  0  0  0  0  0  0  0  0  0  0
   36.2390   27.0430   43.6580 F   0  0  0  0  0  0  0  0  0  0  0  0
   38.0220   28.3830   43.1390 F   0  0  0  0  0  0  0  0  0  0  0  0
  1  2  1  0  0  0  0
  1  7  1  0  0  0  0
  2 17  1  0  0  0  0
  3  8  1  0  0  0  0
  3  2  2  0  0  0  0
  4  3  1  0  0  0  0
  5  4  2  0  0  0  0
  5  6  1  0  0  0  0
  6  1  2  0  0  0  0
  9  5  1  0  0  0  0
 10  9  1  0  0  0  0
 10 11  1  0  0  0  0
 12 10  2  0  0  0  0
 13 12  1  0  0  0  0
 14 15  2  0  0  0  0
 14 12  1  0  0  0  0
 15 16  1  0  0  0  0
 16  9  2  0  0  0  0
 17 20  1  0  0  0  0
 17 19  1  0  0  0  0
 18 17  1  0  0  0  0
M  END
>  <minimizedAffinity>
-4.25494003

$$$$

 OpenBabel03242513353D

 20 21  0  0  0  0  0  0  0  0999 V2000
   36.7340   26.9620   40.3740 C   0  0  0  0  0  0  0  0  0  0  0  0
   36.5710   27.8100   41.4640 C   0  0  0  0  0  0  0  0  0  0  0  0
   35.8290   28.9590   41.2640 C   0  0  0  0  0  0  0  0  0  0  0  0
   35.2950   29.2230   40.0450 N   0  0  0  0  0  0  0  0  0  0  0  0
   35.4810   28.3640   39.0080 C   0  0  0  0  0  0  0  0  0  0  0  0
   36.1960   27.2430   39.1730 N   0  0  0  0  0  0  0  0  0  0  0  0
   37.3100   26.0360   40.4620 H   0  0  0  0  0  0  0  0  0  0  0  0
   35.7070   29.6130   42.1190 H   0  0  0  0  0  0  0  0  0  0  0  0
   34.9050   28.6510   37.6990 C   0  0  0  0  0  0  0  0  0  0  0  0
   33.5520   28.8480   37.5310 C   0  0  0  0  0  0  0  0  0  0  0  0
   32.9310   28.7790   38.4260 H   0  0  0  0  0  0  0  0  0  0  0  0
   32.9380   29.1250   36.3120 C   0  0  0  0  0  0  0  0  0  0  0  0
   31.8830   29.2750   36.2060 H   0  0  0  0  0  0  0  0  0  0  0  0
   33.8260   29.1900   35.2500 C   0  0  0  0  0  3  0  0  0  0  0  0
   35.1850   28.9990   35.3770 C   0  0  0  0  0  3  0  0  0  0  0  0
   35.7020   28.7330   36.5950 N   0  0  0  0  0  0  0  0  0  0  0  0
   37.2100   27.4020   42.7450 C   0  0  0  0  0  0  0  0  0  0  0  0
   38.0060   28.4750   43.1350 F   0  0  0  0  0  0  0  0  0  0  0  0
   37.9590   26.2870   42.5340 F   0  0  0  0  0  0  0  0  0  0  0  0
   36.1760   27.1660   43.6700 F   0  0  0  0  0  0  0  0  0  0  0  0
  1  7  1  0  0  0  0
  1  2  1  0  0  0  0
  2 17  1  0  0  0  0
  3  2  2  0  0  0  0
  3  8  1  0  0  0  0
  4  3  1  0  0  0  0
  5  6  1  0  0  0  0
  5  4  2  0  0  0  0
  6  1  2  0  0  0  0
  9  5  1  0  0  0  0
 10  9  1  0  0  0  0
 10 11  1  0  0  0  0
 12 10  2  0  0  0  0
 13 12  1  0  0  0  0
 14 15  2  0  0  0  0
 14 12  1  0  0  0  0
 15 16  1  0  0  0  0
 16  9  2  0  0  0  0
 17 18  1  0  0  0  0
 17 20  1  0  0  0  0
 19 17  1  0  0  0  0
M  END
>  <minimizedAffinity>
-4.22876453

$$$$

 OpenBabel03242513353D

 20 21  0  0  0  0  0  0  0  0999 V2000
   37.7410   28.9710   37.4160 C   0  0  0  0  0  0  0  0  0  0  0  0
   36.4830   29.2440   36.8910 C   0  0  0  0  0  0  0  0  0  0  0  0
   35.4320   29.3290   37.7860 C   0  0  0  0  0  0  0  0  0  0  0  0
   35.6490   29.1480   39.1140 N   0  0  0  0  0  0  0  0  0  0  0  0
   36.8980   28.8830   39.5790 C   0  0  0  0  0  0  0  0  0  0  0  0
   37.9350   28.7950   38.7360 N   0  0  0  0  0  0  0  0  0  0  0  0
   38.6170   28.8900   36.7640 H   0  0  0  0  0  0  0  0  0  0  0  0
   34.4550   29.5430   37.3700 H   0  0  0  0  0  0  0  0  0  0  0  0
   37.1280   28.6890   41.0070 C   0  0  0  0  0  0  0  0  0  0  0  0
   36.4850   27.6970   41.7150 C   0  0  0  0  0  0  0  0  0  0  0  0
   35.7950   27.0620   41.1560 H   0  0  0  0  0  0  0  0  0  0  0  0
   36.6570   27.4580   43.0760 C   0  0  0  0  0  0  0  0  0  0  0  0
   36.1470   26.6800   43.6050 H   0  0  0  0  0  0  0  0  0  0  0  0
   37.5560   28.3240   43.6790 C   0  0  0  0  0  3  0  0  0  0  0  0
   38.2180   29.3280   43.0050 C   0  0  0  0  0  3  0  0  0  0  0  0
   37.9950   29.4950   41.6850 N   0  0  0  0  0  0  0  0  0  0  0  0
   36.3820   29.4200   35.4170 C   0  0  0  0  0  0  0  0  0  0  0  0
   36.6530   30.7640   35.1730 F   0  0  0  0  0  0  0  0  0  0  0  0
   35.1250   29.0930   35.0140 F   0  0  0  0  0  0  0  0  0  0  0  0
   37.3510   28.5850   34.8300 F   0  0  0  0  0  0  0  0  0  0  0  0
  1  6  1  0  0  0  0
  2  1  2  0  0  0  0
  2  3  1  0  0  0  0
  3  4  2  0  0  0  0
  4  5  1  0  0  0  0
  5  9  1  0  0  0  0
  6  5  2  0  0  0  0
  7  1  1  0  0  0  0
  8  3  1  0  0  0  0
  9 16  2  0  0  0  0
  9 10  1  0  0  0  0
 10 12  2  0  0  0  0
 11 10  1  0  0  0  0
 12 13  1  0  0  0  0
 12 14  1  0  0  0  0
 15 14  2  0  0  0  0
 16 15  1  0  0  0  0
 17  2  1  0  0  0  0
 18 17  1  0  0  0  0
 19 17  1  0  0  0  0
 20 17  1  0  0  0  0
M  END
>  <minimizedAffinity>
-4.21215248

$$$$

 OpenBabel03242513353D

 20 21  0  0  0  0  0  0  0  0999 V2000
   37.6240   29.8470   41.5570 C   0  0  0  0  0  0  0  0  0  0  0  0
   37.7630   28.6510   42.2530 C   0  0  0  0  0  0  0  0  0  0  0  0
   38.9930   28.3970   42.8330 C   0  0  0  0  0  0  0  0  0  0  0  0
   40.0030   29.2950   42.7110 N   0  0  0  0  0  0  0  0  0  0  0  0
   39.8200   30.4520   42.0210 C   0  0  0  0  0  0  0  0  0  0  0  0
   38.6390   30.7240   41.4490 N   0  0  0  0  0  0  0  0  0  0  0  0
   36.6780   30.1100   41.0740 H   0  0  0  0  0  0  0  0  0  0  0  0
   39.0920   27.4640   43.3730 H   0  0  0  0  0  0  0  0  0  0  0  0
   40.9080   31.4150   41.8920 C   0  0  0  0  0  0  0  0  0  0  0  0
   40.8830   32.4120   40.9420 C   0  0  0  0  0  0  0  0  0  0  0  0
   40.0080   32.4480   40.2900 H   0  0  0  0  0  0  0  0  0  0  0  0
   41.8860   33.3620   40.7650 C   0  0  0  0  0  0  0  0  0  0  0  0
   41.8440   34.1290   40.0190 H   0  0  0  0  0  0  0  0  0  0  0  0
   42.9430   33.2190   41.6500 C   0  0  0  0  0  3  0  0  0  0  0  0
   43.0050   32.2350   42.6120 C   0  0  0  0  0  3  0  0  0  0  0  0
   41.9910   31.3510   42.7190 N   0  0  0  0  0  0  0  0  0  0  0  0
   36.5760   27.7550   42.3100 C   0  0  0  0  0  0  0  0  0  0  0  0
   36.2590   27.6250   43.6600 F   0  0  0  0  0  0  0  0  0  0  0  0
   36.9000   26.5520   41.7650 F   0  0  0  0  0  0  0  0  0  0  0  0
   35.5410   28.3870   41.5980 F   0  0  0  0  0  0  0  0  0  0  0  0
  1  2  1  0  0  0  0
  2 17  1  0  0  0  0
  2  3  2  0  0  0  0
  3  8  1  0  0  0  0
  4  3  1  0  0  0  0
  5  4  2  0  0  0  0
  6  1  2  0  0  0  0
  6  5  1  0  0  0  0
  7  1  1  0  0  0  0
  9  5  1  0  0  0  0
  9 16  1  0  0  0  0
 10  9  2  0  0  0  0
 11 10  1  0  0  0  0
 12 10  1  0  0  0  0
 12 14  2  0  0  0  0
 13 12  1  0  0  0  0
 14 15  1  0  0  0  0
 15 16  2  0  0  0  0
 17 18  1  0  0  0  0
 19 17  1  0  0  0  0
 20 17  1  0  0  0  0
M  END
>  <minimizedAffinity>
-4.17626286

$$$$
