
 OpenBabel03252502043D

 45 49  0  0  0  0  0  0  0  0999 V2000
   47.4800   31.8830   47.7690 C   0  0  0  0  0  0  0  0  0  0  0  0
   46.9290   30.6070   47.8060 C   0  0  0  0  0  0  0  0  0  0  0  0
   45.9140   30.3570   46.9480 C   0  0  0  0  0  0  0  0  0  0  0  0
   45.4790   31.3040   46.1040 N   0  0  0  0  0  0  0  0  0  0  0  0
   46.0060   32.5340   46.0560 C   0  0  0  0  0  0  0  0  0  0  0  0
   47.0110   32.7870   46.9130 N   0  0  0  0  0  0  0  0  0  0  0  0
   45.2760   29.1250   46.9280 N   0  0  0  0  0  0  0  0  0  0  0  0
   44.0250   28.8180   46.2020 C   0  0  0  0  0  0  0  0  0  0  0  0
   43.8420   27.3330   46.3030 C   0  0  0  0  0  0  0  0  0  0  0  0
   44.5880   26.9670   47.5560 C   0  0  0  0  0  0  0  0  0  0  0  0
   45.7160   27.9390   47.6140 C   0  0  0  0  0  0  0  0  0  0  0  0
   48.2980   32.1020   48.4610 H   0  0  0  0  0  0  0  0  0  0  0  0
   44.2960   29.0290   45.1290 H   0  0  0  0  0  0  0  0  0  0  0  0
   43.1910   29.4180   46.5640 H   0  0  0  0  0  0  0  0  0  0  0  0
   42.7480   27.1380   46.4000 H   0  0  0  0  0  0  0  0  0  0  0  0
   44.2240   26.7660   45.4300 H   0  0  0  0  0  0  0  0  0  0  0  0
   44.9340   25.9020   47.5430 H   0  0  0  0  0  0  0  0  0  0  0  0
   43.8590   27.0230   48.3830 H   0  0  0  0  0  0  0  0  0  0  0  0
   45.7890   28.0820   48.7370 H   0  0  0  0  0  0  0  0  0  0  0  0
   46.5990   27.4500   47.1840 H   0  0  0  0  0  0  0  0  0  0  0  0
   45.7080   33.6990   45.2180 C   0  0  0  0  0  0  0  0  0  0  0  0
   44.9300   34.7340   45.6480 N   0  0  0  0  0  0  0  0  0  0  0  0
   44.6300   35.8110   44.9330 C   0  0  0  0  0  0  0  0  0  0  0  0
   45.1130   35.9310   43.6790 N   0  0  0  0  0  0  0  0  0  0  0  0
   45.8990   34.9660   43.1400 C   0  0  0  0  0  0  0  0  0  0  0  0
   46.3640   35.0930   41.8620 C   0  0  0  0  0  0  0  0  0  0  0  0
   47.1370   34.1220   41.3010 C   0  0  0  0  0  0  0  0  0  0  0  0
   47.4300   33.0060   42.0760 C   0  0  0  0  0  0  0  0  0  0  0  0
   46.9290   32.9360   43.3650 C   0  0  0  0  0  0  0  0  0  0  0  0
   46.1590   33.8890   43.9440 C   0  0  0  0  0  0  0  0  0  0  0  0
   44.0000   36.5620   45.3920 H   0  0  0  0  0  0  0  0  0  0  0  0
   46.0850   35.9900   41.3450 H   0  0  0  0  0  0  0  0  0  0  0  0
   47.4470   34.3300   40.2790 H   0  0  0  0  0  0  0  0  0  0  0  0
   48.0480   32.3260   41.4980 H   0  0  0  0  0  0  0  0  0  0  0  0
   47.3860   31.6370   43.8380 C   0  0  0  0  0  0  0  0  0  0  0  0
   46.5690   30.5890   43.3500 C   0  0  0  0  0  0  0  0  0  0  0  0
   45.6930   30.7730   42.7000 H   0  0  0  0  0  0  0  0  0  0  0  0
   46.7110   29.2330   43.5850 C   0  0  0  0  0  0  0  0  0  0  0  0
   46.0620   28.4730   43.1910 H   0  0  0  0  0  0  0  0  0  0  0  0
   47.7610   28.8390   44.3800 C   0  0  0  0  0  0  0  0  0  0  0  0
   48.5660   29.8400   44.8630 C   0  0  0  0  0  0  0  0  0  0  0  0
   48.3620   31.1280   44.5910 N   0  0  0  0  0  0  0  0  0  0  0  0
   47.4970   29.6520   48.6400 N   0  0  0  0  0  0  0  0  0  0  0  0
   47.3570   29.6280   49.6900 H   0  0  0  0  0  0  0  0  0  0  0  0
   48.1200   28.8370   48.4160 H   0  0  0  0  0  0  0  0  0  0  0  0
  1  2  1  0  0  0  0
  1 12  1  0  0  0  0
  2 43  1  0  0  0  0
  3  2  2  0  0  0  0
  4  3  1  0  0  0  0
  5  4  2  0  0  0  0
  5  6  1  0  0  0  0
  6  1  2  0  0  0  0
  7  3  1  0  0  0  0
  7 11  1  0  0  0  0
  8  9  1  0  0  0  0
  8 14  1  0  0  0  0
  8  7  1  0  0  0  0
  9 15  1  0  0  0  0
  9 10  1  0  0  0  0
 10 11  1  0  0  0  0
 10 18  1  0  0  0  0
 11 19  1  0  0  0  0
 13  8  1  0  0  0  0
 16  9  1  0  0  0  0
 17 10  1  0  0  0  0
 20 11  1  0  0  0  0
 21 22  1  0  0  0  0
 21  5  1  0  0  0  0
 23 31  1  0  0  0  0
 23 22  2  0  0  0  0
 24 23  1  0  0  0  0
 25 24  2  0  0  0  0
 25 30  1  0  0  0  0
 26 25  1  0  0  0  0
 27 26  2  0  0  0  0
 27 28  1  0  0  0  0
 28 29  2  0  0  0  0
 29 35  1  0  0  0  0
 29 30  1  0  0  0  0
 30 21  2  0  0  0  0
 32 26  1  0  0  0  0
 33 27  1  0  0  0  0
 34 28  1  0  0  0  0
 35 42  1  0  0  0  0
 36 38  1  0  0  0  0
 36 35  2  0  0  0  0
 37 36  1  0  0  0  0
 38 40  2  0  0  0  0
 39 38  1  0  0  0  0
 40 41  1  0  0  0  0
 42 41  2  0  0  0  0
 43 44  1  0  0  0  0
 45 43  1  0  0  0  0
M  END
>  <minimizedAffinity>
-6.12541819

>  <minimizedRMSD>
0.647258699

$$$$
