
 OpenBabel03252509233D

 26 28  0  0  1  0  0  0  0  0999 V2000
   47.1900   34.0880   41.6950 C   0  0  1  0  0  0  0  0  0  0  0  0
   48.3100   35.1600   41.6050 C   0  0  0  0  0  0  0  0  0  0  0  0
   48.2510   34.0010   42.6290 C   0  0  2  0  0  0  0  0  0  0  0  0
   47.1290   33.4650   40.7850 H   0  0  0  0  0  0  0  0  0  0  0  0
   48.1190   36.1680   41.9460 H   0  0  0  0  0  0  0  0  0  0  0  0
   49.0700   35.0190   40.8150 H   0  0  0  0  0  0  0  0  0  0  0  0
   48.1580   34.3780   43.6690 H   0  0  0  0  0  0  0  0  0  0  0  0
   43.6310   35.2660   41.7530 C   0  0  0  0  0  0  0  0  0  0  0  0
   44.8480   34.7190   41.2370 C   0  0  0  0  0  0  0  0  0  0  0  0
   45.8920   34.7290   42.1200 C   0  0  0  0  0  0  0  0  0  0  0  0
   45.7700   35.2370   43.4140 N   0  0  0  0  0  0  0  0  0  0  0  0
   44.6020   35.7320   43.8280 C   0  0  0  0  0  0  0  0  0  0  0  0
   43.5250   35.7500   43.0010 N   0  0  0  0  0  0  0  0  0  0  0  0
   42.7680   35.2860   41.1040 H   0  0  0  0  0  0  0  0  0  0  0  0
   44.6870   36.0780   44.8490 H   0  0  0  0  0  0  0  0  0  0  0  0
   44.9620   34.2450   39.9100 N   0  0  0  0  0  0  0  0  0  0  0  0
   44.5470   34.8790   39.1660 H   0  0  0  0  0  0  0  0  0  0  0  0
   45.4060   33.3600   39.6460 H   0  0  0  0  0  0  0  0  0  0  0  0
   49.2560   32.9060   42.4410 C   0  0  0  0  0  0  0  0  0  0  0  0
   48.8930   31.6490   42.8790 C   0  0  0  0  0  0  0  0  0  0  0  0
   47.9470   31.4580   43.3300 H   0  0  0  0  0  0  0  0  0  0  0  0
   49.8520   30.6660   42.6860 C   0  0  0  0  0  0  0  0  0  0  0  0
   49.5640   29.6640   43.0340 H   0  0  0  0  0  0  0  0  0  0  0  0
   51.0730   30.9400   42.0980 C   0  0  0  0  0  3  0  0  0  0  0  0
   51.3860   32.2300   41.6750 C   0  0  0  0  0  3  0  0  0  0  0  0
   50.4420   33.1820   41.8680 N   0  0  0  0  0  0  0  0  0  0  0  0
  1  4  1  6  0  0  0
  1 10  1  0  0  0  0
  1  3  1  0  0  0  0
  2  1  1  0  0  0  0
  2  5  1  0  0  0  0
  2  3  1  0  0  0  0
  3  7  1  1  0  0  0
  6  2  1  0  0  0  0
  8 13  1  0  0  0  0
  9  8  2  0  0  0  0
  9 10  1  0  0  0  0
 10 11  2  0  0  0  0
 11 12  1  0  0  0  0
 12 15  1  0  0  0  0
 13 12  2  0  0  0  0
 14  8  1  0  0  0  0
 16  9  1  0  0  0  0
 17 16  1  0  0  0  0
 18 16  1  0  0  0  0
 19  3  1  0  0  0  0
 19 20  1  0  0  0  0
 20 21  1  0  0  0  0
 22 20  2  0  0  0  0
 22 23  1  0  0  0  0
 24 22  1  0  0  0  0
 25 26  1  0  0  0  0
 25 24  2  0  0  0  0
 26 19  2  0  0  0  0
M  END
>  <minimizedAffinity>
-4.1724205

>  <minimizedRMSD>
3.79365087

$$$$
