
 OpenBabel03252502053D

 45 49  0  0  0  0  0  0  0  0999 V2000
   35.6960   30.1550   40.5680 C   0  0  0  0  0  0  0  0  0  0  0  0
   36.7660   30.9470   40.1670 C   0  0  0  0  0  0  0  0  0  0  0  0
   37.6690   30.3760   39.3380 C   0  0  0  0  0  0  0  0  0  0  0  0
   37.5180   29.1070   38.9270 N   0  0  0  0  0  0  0  0  0  0  0  0
   36.4890   28.3380   39.3030 C   0  0  0  0  0  0  0  0  0  0  0  0
   35.5940   28.9020   40.1320 N   0  0  0  0  0  0  0  0  0  0  0  0
   38.7890   31.0700   38.9040 N   0  0  0  0  0  0  0  0  0  0  0  0
   39.9420   30.4810   38.1910 C   0  0  0  0  0  0  0  0  0  0  0  0
   40.7910   31.6370   37.7510 C   0  0  0  0  0  0  0  0  0  0  0  0
   40.4530   32.7210   38.7360 C   0  0  0  0  0  0  0  0  0  0  0  0
   39.0240   32.4790   39.0810 C   0  0  0  0  0  0  0  0  0  0  0  0
   34.9610   30.6020   41.2430 H   0  0  0  0  0  0  0  0  0  0  0  0
   39.4740   30.0600   37.2560 H   0  0  0  0  0  0  0  0  0  0  0  0
   40.4510   29.7320   38.7960 H   0  0  0  0  0  0  0  0  0  0  0  0
   41.8560   31.3190   37.8330 H   0  0  0  0  0  0  0  0  0  0  0  0
   40.6030   31.9700   36.7100 H   0  0  0  0  0  0  0  0  0  0  0  0
   40.6310   33.7430   38.3130 H   0  0  0  0  0  0  0  0  0  0  0  0
   41.1730   32.6250   39.5670 H   0  0  0  0  0  0  0  0  0  0  0  0
   39.0340   32.7910   40.1720 H   0  0  0  0  0  0  0  0  0  0  0  0
   38.4140   33.1380   38.4500 H   0  0  0  0  0  0  0  0  0  0  0  0
   36.1190   26.9600   38.9700 C   0  0  0  0  0  0  0  0  0  0  0  0
   35.3010   26.6510   37.9230 N   0  0  0  0  0  0  0  0  0  0  0  0
   34.9350   25.4240   37.5760 C   0  0  0  0  0  0  0  0  0  0  0  0
   35.3850   24.3710   38.2890 N   0  0  0  0  0  0  0  0  0  0  0  0
   36.2050   24.5500   39.3540 C   0  0  0  0  0  0  0  0  0  0  0  0
   36.6380   23.4750   40.0780 C   0  0  0  0  0  0  0  0  0  0  0  0
   37.4450   23.6430   41.1620 C   0  0  0  0  0  0  0  0  0  0  0  0
   37.8070   24.9420   41.4980 C   0  0  0  0  0  0  0  0  0  0  0  0
   37.3370   25.9900   40.7260 C   0  0  0  0  0  0  0  0  0  0  0  0
   36.5340   25.8470   39.6430 C   0  0  0  0  0  0  0  0  0  0  0  0
   34.2790   25.3150   36.7220 H   0  0  0  0  0  0  0  0  0  0  0  0
   36.3050   22.5140   39.7390 H   0  0  0  0  0  0  0  0  0  0  0  0
   37.7240   22.7170   41.6610 H   0  0  0  0  0  0  0  0  0  0  0  0
   38.4460   24.9150   42.3770 H   0  0  0  0  0  0  0  0  0  0  0  0
   37.8660   27.1700   41.3950 C   0  0  0  0  0  0  0  0  0  0  0  0
   37.1030   27.5040   42.5400 C   0  0  0  0  0  0  0  0  0  0  0  0
   36.2160   26.9230   42.8520 H   0  0  0  0  0  0  0  0  0  0  0  0
   37.3200   28.5510   43.4170 C   0  0  0  0  0  0  0  0  0  0  0  0
   36.7110   28.7650   44.2760 H   0  0  0  0  0  0  0  0  0  0  0  0
   38.3940   29.3720   43.1650 C   0  0  0  0  0  3  0  0  0  0  0  0
   39.1470   29.0660   42.0590 C   0  0  0  0  0  3  0  0  0  0  0  0
   38.8710   28.0350   41.2590 N   0  0  0  0  0  0  0  0  0  0  0  0
   36.8020   32.2790   40.5570 N   0  0  0  0  0  0  0  0  0  0  0  0
   37.0660   32.6020   41.5320 H   0  0  0  0  0  0  0  0  0  0  0  0
   36.5940   33.1540   40.0140 H   0  0  0  0  0  0  0  0  0  0  0  0
  1 12  1  0  0  0  0
  2 43  1  0  0  0  0
  2  1  1  0  0  0  0
  3  2  2  0  0  0  0
  4  5  2  0  0  0  0
  4  3  1  0  0  0  0
  5  6  1  0  0  0  0
  6  1  2  0  0  0  0
  7 11  1  0  0  0  0
  7  3  1  0  0  0  0
  8 14  1  0  0  0  0
  8  7  1  0  0  0  0
  9 15  1  0  0  0  0
  9  8  1  0  0  0  0
  9 10  1  0  0  0  0
 10 11  1  0  0  0  0
 10 18  1  0  0  0  0
 11 19  1  0  0  0  0
 13  8  1  0  0  0  0
 16  9  1  0  0  0  0
 17 10  1  0  0  0  0
 20 11  1  0  0  0  0
 21  5  1  0  0  0  0
 21 30  1  0  0  0  0
 22 21  2  0  0  0  0
 23 22  1  0  0  0  0
 23 24  2  0  0  0  0
 24 25  1  0  0  0  0
 25 30  2  0  0  0  0
 25 26  1  0  0  0  0
 26 27  2  0  0  0  0
 27 28  1  0  0  0  0
 27 33  1  0  0  0  0
 28 34  1  0  0  0  0
 29 35  1  0  0  0  0
 29 28  2  0  0  0  0
 30 29  1  0  0  0  0
 31 23  1  0  0  0  0
 32 26  1  0  0  0  0
 35 36  1  0  0  0  0
 36 37  1  0  0  0  0
 36 38  2  0  0  0  0
 38 39  1  0  0  0  0
 40 38  1  0  0  0  0
 41 40  2  0  0  0  0
 42 35  2  0  0  0  0
 42 41  1  0  0  0  0
 43 44  1  0  0  0  0
 45 43  1  0  0  0  0
M  END
>  <minimizedAffinity>
-7.05034304

$$$$

 OpenBabel03252502053D

 45 49  0  0  0  0  0  0  0  0999 V2000
   37.5280   30.6210   37.5230 C   0  0  0  0  0  0  0  0  0  0  0  0
   38.7870   31.1960   37.4010 C   0  0  0  0  0  0  0  0  0  0  0  0
   39.8010   30.5880   38.0610 C   0  0  0  0  0  0  0  0  0  0  0  0
   39.5820   29.4810   38.7850 N   0  0  0  0  0  0  0  0  0  0  0  0
   38.3740   28.9160   38.9050 C   0  0  0  0  0  0  0  0  0  0  0  0
   37.3650   29.5220   38.2550 N   0  0  0  0  0  0  0  0  0  0  0  0
   41.0890   31.1000   38.0290 N   0  0  0  0  0  0  0  0  0  0  0  0
   42.2110   30.6560   38.8830 C   0  0  0  0  0  0  0  0  0  0  0  0
   43.4340   31.3410   38.3490 C   0  0  0  0  0  0  0  0  0  0  0  0
   42.8880   32.5720   37.6810 C   0  0  0  0  0  0  0  0  0  0  0  0
   41.5530   32.1560   37.1680 C   0  0  0  0  0  0  0  0  0  0  0  0
   36.6980   31.1040   37.0000 H   0  0  0  0  0  0  0  0  0  0  0  0
   42.3180   29.5670   38.6140 H   0  0  0  0  0  0  0  0  0  0  0  0
   42.0050   30.8230   39.9390 H   0  0  0  0  0  0  0  0  0  0  0  0
   44.0810   31.5950   39.2210 H   0  0  0  0  0  0  0  0  0  0  0  0
   44.0260   30.7290   37.6390 H   0  0  0  0  0  0  0  0  0  0  0  0
   43.5670   32.9460   36.8720 H   0  0  0  0  0  0  0  0  0  0  0  0
   42.8850   33.3680   38.4450 H   0  0  0  0  0  0  0  0  0  0  0  0
   40.9810   33.1250   37.3110 H   0  0  0  0  0  0  0  0  0  0  0  0
   41.6750   31.8800   36.1120 H   0  0  0  0  0  0  0  0  0  0  0  0
   37.9150   27.7180   39.6130 C   0  0  0  0  0  0  0  0  0  0  0  0
   37.7710   26.5100   38.9970 N   0  0  0  0  0  0  0  0  0  0  0  0
   37.3610   25.3950   39.5890 C   0  0  0  0  0  0  0  0  0  0  0  0
   37.0520   25.4160   40.9020 N   0  0  0  0  0  0  0  0  0  0  0  0
   37.1550   26.5600   41.6240 C   0  0  0  0  0  0  0  0  0  0  0  0
   36.8200   26.5700   42.9480 C   0  0  0  0  0  0  0  0  0  0  0  0
   36.8980   27.7160   43.6790 C   0  0  0  0  0  0  0  0  0  0  0  0
   37.3290   28.8650   43.0270 C   0  0  0  0  0  0  0  0  0  0  0  0
   37.6540   28.7920   41.6840 C   0  0  0  0  0  0  0  0  0  0  0  0
   37.5850   27.6630   40.9360 C   0  0  0  0  0  0  0  0  0  0  0  0
   37.2900   24.4990   38.9850 H   0  0  0  0  0  0  0  0  0  0  0  0
   36.5000   25.6330   43.3610 H   0  0  0  0  0  0  0  0  0  0  0  0
   36.6050   27.6050   44.7210 H   0  0  0  0  0  0  0  0  0  0  0  0
   37.3390   29.6900   43.7340 H   0  0  0  0  0  0  0  0  0  0  0  0
   38.0010   30.1630   41.3410 C   0  0  0  0  0  0  0  0  0  0  0  0
   39.3290   30.4730   41.7210 C   0  0  0  0  0  0  0  0  0  0  0  0
   39.9900   29.7420   42.2230 H   0  0  0  0  0  0  0  0  0  0  0  0
   39.9960   31.6720   41.5420 C   0  0  0  0  0  0  0  0  0  0  0  0
   41.0090   31.8600   41.8490 H   0  0  0  0  0  0  0  0  0  0  0  0
   39.3070   32.6910   40.9280 C   0  0  0  0  0  3  0  0  0  0  0  0
   38.0170   32.4110   40.5510 C   0  0  0  0  0  3  0  0  0  0  0  0
   37.4430   31.2260   40.7600 N   0  0  0  0  0  0  0  0  0  0  0  0
   38.9520   32.2860   36.5570 N   0  0  0  0  0  0  0  0  0  0  0  0
   38.6420   33.2710   36.7970 H   0  0  0  0  0  0  0  0  0  0  0  0
   39.3780   32.3470   35.5990 H   0  0  0  0  0  0  0  0  0  0  0  0
  1  6  1  0  0  0  0
  2  1  2  0  0  0  0
  2  3  1  0  0  0  0
  3  4  2  0  0  0  0
  4  5  1  0  0  0  0
  5 21  1  0  0  0  0
  6  5  2  0  0  0  0
  7  3  1  0  0  0  0
  7  8  1  0  0  0  0
  8 14  1  0  0  0  0
  9  8  1  0  0  0  0
  9 15  1  0  0  0  0
 10  9  1  0  0  0  0
 10 18  1  0  0  0  0
 11 19  1  0  0  0  0
 11 10  1  0  0  0  0
 11  7  1  0  0  0  0
 12  1  1  0  0  0  0
 13  8  1  0  0  0  0
 16  9  1  0  0  0  0
 17 10  1  0  0  0  0
 20 11  1  0  0  0  0
 21 30  1  0  0  0  0
 22 23  1  0  0  0  0
 22 21  2  0  0  0  0
 23 24  2  0  0  0  0
 24 25  1  0  0  0  0
 25 26  1  0  0  0  0
 26 32  1  0  0  0  0
 26 27  2  0  0  0  0
 27 33  1  0  0  0  0
 28 27  1  0  0  0  0
 28 34  1  0  0  0  0
 29 28  2  0  0  0  0
 30 25  2  0  0  0  0
 30 29  1  0  0  0  0
 31 23  1  0  0  0  0
 35 29  1  0  0  0  0
 35 36  1  0  0  0  0
 36 37  1  0  0  0  0
 38 36  2  0  0  0  0
 38 39  1  0  0  0  0
 40 38  1  0  0  0  0
 41 42  1  0  0  0  0
 41 40  2  0  0  0  0
 42 35  2  0  0  0  0
 43 44  1  0  0  0  0
 43  2  1  0  0  0  0
 45 43  1  0  0  0  0
M  END
>  <minimizedAffinity>
-6.80821085

$$$$

 OpenBabel03252502053D

 45 49  0  0  0  0  0  0  0  0999 V2000
   37.3490   32.2820   40.2660 C   0  0  0  0  0  0  0  0  0  0  0  0
   37.0740   31.1180   40.9750 C   0  0  0  0  0  0  0  0  0  0  0  0
   38.1360   30.3850   41.3790 C   0  0  0  0  0  0  0  0  0  0  0  0
   39.3880   30.7820   41.1060 N   0  0  0  0  0  0  0  0  0  0  0  0
   39.6650   31.9030   40.4290 C   0  0  0  0  0  0  0  0  0  0  0  0
   38.6100   32.6300   40.0220 N   0  0  0  0  0  0  0  0  0  0  0  0
   37.9670   29.1920   42.0660 N   0  0  0  0  0  0  0  0  0  0  0  0
   39.0330   28.2080   42.3530 C   0  0  0  0  0  0  0  0  0  0  0  0
   38.4270   27.2000   43.2840 C   0  0  0  0  0  0  0  0  0  0  0  0
   36.9560   27.2780   42.9830 C   0  0  0  0  0  0  0  0  0  0  0  0
   36.7280   28.7020   42.6090 C   0  0  0  0  0  0  0  0  0  0  0  0
   36.5000   32.8820   39.9290 H   0  0  0  0  0  0  0  0  0  0  0  0
   39.7680   28.8020   42.9660 H   0  0  0  0  0  0  0  0  0  0  0  0
   39.4630   27.8000   41.4380 H   0  0  0  0  0  0  0  0  0  0  0  0
   38.8530   26.2040   43.0200 H   0  0  0  0  0  0  0  0  0  0  0  0
   38.6270   27.3940   44.3570 H   0  0  0  0  0  0  0  0  0  0  0  0
   36.3320   26.9520   43.8540 H   0  0  0  0  0  0  0  0  0  0  0  0
   36.7580   26.5340   42.1930 H   0  0  0  0  0  0  0  0  0  0  0  0
   35.9240   28.5670   41.8200 H   0  0  0  0  0  0  0  0  0  0  0  0
   36.3690   29.2270   43.5040 H   0  0  0  0  0  0  0  0  0  0  0  0
   40.9310   32.5300   40.0410 C   0  0  0  0  0  0  0  0  0  0  0  0
   41.4880   33.5580   40.7430 N   0  0  0  0  0  0  0  0  0  0  0  0
   42.6310   34.1600   40.4380 C   0  0  0  0  0  0  0  0  0  0  0  0
   43.3260   33.7540   39.3570 N   0  0  0  0  0  0  0  0  0  0  0  0
   42.8750   32.7400   38.5780 C   0  0  0  0  0  0  0  0  0  0  0  0
   43.5810   32.3520   37.4740 C   0  0  0  0  0  0  0  0  0  0  0  0
   43.1280   31.3490   36.6730 C   0  0  0  0  0  0  0  0  0  0  0  0
   41.9280   30.7420   37.0200 C   0  0  0  0  0  0  0  0  0  0  0  0
   41.2570   31.1790   38.1500 C   0  0  0  0  0  0  0  0  0  0  0  0
   41.6890   32.1730   38.9630 C   0  0  0  0  0  0  0  0  0  0  0  0
   42.9630   34.9670   41.0800 H   0  0  0  0  0  0  0  0  0  0  0  0
   44.4960   32.8810   37.2910 H   0  0  0  0  0  0  0  0  0  0  0  0
   43.7720   31.1280   35.8230 H   0  0  0  0  0  0  0  0  0  0  0  0
   41.6990   29.9690   36.2920 H   0  0  0  0  0  0  0  0  0  0  0  0
   40.0490   30.3680   38.1640 C   0  0  0  0  0  0  0  0  0  0  0  0
   40.3000   29.0680   38.6640 C   0  0  0  0  0  0  0  0  0  0  0  0
   41.3060   28.7400   38.9860 H   0  0  0  0  0  0  0  0  0  0  0  0
   39.3890   28.0400   38.8290 C   0  0  0  0  0  0  0  0  0  0  0  0
   39.6300   27.0660   39.2140 H   0  0  0  0  0  0  0  0  0  0  0  0
   38.0850   28.2910   38.4730 C   0  0  0  0  0  3  0  0  0  0  0  0
   37.8190   29.5470   37.9850 C   0  0  0  0  0  3  0  0  0  0  0  0
   38.7560   30.4860   37.8550 N   0  0  0  0  0  0  0  0  0  0  0  0
   35.7560   30.8240   41.3020 N   0  0  0  0  0  0  0  0  0  0  0  0
   35.0470   30.4450   40.6110 H   0  0  0  0  0  0  0  0  0  0  0  0
   35.2450   30.9110   42.2150 H   0  0  0  0  0  0  0  0  0  0  0  0
  1  2  1  0  0  0  0
  2 43  1  0  0  0  0
  2  3  2  0  0  0  0
  3  7  1  0  0  0  0
  4  3  1  0  0  0  0
  5  4  2  0  0  0  0
  6  1  2  0  0  0  0
  6  5  1  0  0  0  0
  7  8  1  0  0  0  0
  7 11  1  0  0  0  0
  8 13  1  0  0  0  0
  8  9  1  0  0  0  0
  9 16  1  0  0  0  0
 10  9  1  0  0  0  0
 10 17  1  0  0  0  0
 11 10  1  0  0  0  0
 11 20  1  0  0  0  0
 12  1  1  0  0  0  0
 14  8  1  0  0  0  0
 15  9  1  0  0  0  0
 18 10  1  0  0  0  0
 19 11  1  0  0  0  0
 21  5  1  0  0  0  0
 21 22  1  0  0  0  0
 23 22  2  0  0  0  0
 23 31  1  0  0  0  0
 24 23  1  0  0  0  0
 25 30  1  0  0  0  0
 25 24  2  0  0  0  0
 26 25  1  0  0  0  0
 27 28  1  0  0  0  0
 27 26  2  0  0  0  0
 28 29  2  0  0  0  0
 29 35  1  0  0  0  0
 29 30  1  0  0  0  0
 30 21  2  0  0  0  0
 32 26  1  0  0  0  0
 33 27  1  0  0  0  0
 34 28  1  0  0  0  0
 35 36  1  0  0  0  0
 36 38  2  0  0  0  0
 36 37  1  0  0  0  0
 38 39  1  0  0  0  0
 40 38  1  0  0  0  0
 41 40  2  0  0  0  0
 42 41  1  0  0  0  0
 42 35  2  0  0  0  0
 43 45  1  0  0  0  0
 44 43  1  0  0  0  0
M  END
>  <minimizedAffinity>
-6.65930319

$$$$

 OpenBabel03252502053D

 45 49  0  0  0  0  0  0  0  0999 V2000
   36.7680   30.1370   41.6920 C   0  0  0  0  0  0  0  0  0  0  0  0
   37.5250   31.0540   40.9700 C   0  0  0  0  0  0  0  0  0  0  0  0
   38.7670   30.6640   40.6030 C   0  0  0  0  0  0  0  0  0  0  0  0
   39.2260   29.4450   40.9230 N   0  0  0  0  0  0  0  0  0  0  0  0
   38.5040   28.5520   41.6120 C   0  0  0  0  0  0  0  0  0  0  0  0
   37.2720   28.9410   41.9830 N   0  0  0  0  0  0  0  0  0  0  0  0
   39.6130   31.5150   39.9080 N   0  0  0  0  0  0  0  0  0  0  0  0
   41.0510   31.2810   39.6580 C   0  0  0  0  0  0  0  0  0  0  0  0
   41.4850   32.3530   38.7020 C   0  0  0  0  0  0  0  0  0  0  0  0
   40.5060   33.4670   38.9500 C   0  0  0  0  0  0  0  0  0  0  0  0
   39.2400   32.7740   39.3200 C   0  0  0  0  0  0  0  0  0  0  0  0
   35.7640   30.4410   42.0000 H   0  0  0  0  0  0  0  0  0  0  0  0
   41.0530   30.3180   39.0720 H   0  0  0  0  0  0  0  0  0  0  0  0
   41.6180   31.2250   40.5860 H   0  0  0  0  0  0  0  0  0  0  0  0
   42.5250   32.6450   38.9790 H   0  0  0  0  0  0  0  0  0  0  0  0
   41.4780   32.0440   37.6380 H   0  0  0  0  0  0  0  0  0  0  0  0
   40.3930   34.1320   38.0560 H   0  0  0  0  0  0  0  0  0  0  0  0
   40.9510   34.1080   39.7310 H   0  0  0  0  0  0  0  0  0  0  0  0
   38.8310   33.5120   40.0780 H   0  0  0  0  0  0  0  0  0  0  0  0
   38.6240   32.7040   38.4140 H   0  0  0  0  0  0  0  0  0  0  0  0
   38.7890   27.1830   42.0470 C   0  0  0  0  0  0  0  0  0  0  0  0
   39.4100   26.9010   43.2280 N   0  0  0  0  0  0  0  0  0  0  0  0
   39.6910   25.6820   43.6720 C   0  0  0  0  0  0  0  0  0  0  0  0
   39.3530   24.6110   42.9250 N   0  0  0  0  0  0  0  0  0  0  0  0
   38.7310   24.7620   41.7300 C   0  0  0  0  0  0  0  0  0  0  0  0
   38.4130   23.6680   40.9760 C   0  0  0  0  0  0  0  0  0  0  0  0
   37.8060   23.8070   39.7650 C   0  0  0  0  0  0  0  0  0  0  0  0
   37.5280   25.0980   39.3300 C   0  0  0  0  0  0  0  0  0  0  0  0
   37.8760   26.1670   40.1390 C   0  0  0  0  0  0  0  0  0  0  0  0
   38.4780   26.0520   41.3480 C   0  0  0  0  0  0  0  0  0  0  0  0
   40.1890   25.5950   44.6290 H   0  0  0  0  0  0  0  0  0  0  0  0
   38.6660   22.7150   41.3980 H   0  0  0  0  0  0  0  0  0  0  0  0
   37.6020   22.8680   39.2540 H   0  0  0  0  0  0  0  0  0  0  0  0
   37.0500   25.0480   38.3570 H   0  0  0  0  0  0  0  0  0  0  0  0
   37.4890   27.3290   39.3530 C   0  0  0  0  0  0  0  0  0  0  0  0
   36.0970   27.5730   39.4370 C   0  0  0  0  0  0  0  0  0  0  0  0
   35.4160   26.9340   40.0290 H   0  0  0  0  0  0  0  0  0  0  0  0
   35.3850   28.5940   38.8310 C   0  0  0  0  0  0  0  0  0  0  0  0
   34.3250   28.7380   38.9260 H   0  0  0  0  0  0  0  0  0  0  0  0
   36.0930   29.4810   38.0550 C   0  0  0  0  0  3  0  0  0  0  0  0
   37.4440   29.2620   37.9600 C   0  0  0  0  0  3  0  0  0  0  0  0
   38.0590   28.2520   38.5760 N   0  0  0  0  0  0  0  0  0  0  0  0
   36.9460   32.2600   40.5960 N   0  0  0  0  0  0  0  0  0  0  0  0
   36.7900   33.0710   41.2600 H   0  0  0  0  0  0  0  0  0  0  0  0
   36.5800   32.5790   39.6650 H   0  0  0  0  0  0  0  0  0  0  0  0
  1  6  1  0  0  0  0
  1 12  1  0  0  0  0
  2  1  2  0  0  0  0
  3  4  2  0  0  0  0
  3  2  1  0  0  0  0
  4  5  1  0  0  0  0
  5  6  2  0  0  0  0
  5 21  1  0  0  0  0
  7  3  1  0  0  0  0
  8  7  1  0  0  0  0
  8 14  1  0  0  0  0
  9 10  1  0  0  0  0
  9 15  1  0  0  0  0
  9  8  1  0  0  0  0
 10 11  1  0  0  0  0
 10 18  1  0  0  0  0
 11  7  1  0  0  0  0
 11 19  1  0  0  0  0
 13  8  1  0  0  0  0
 16  9  1  0  0  0  0
 17 10  1  0  0  0  0
 20 11  1  0  0  0  0
 21 22  1  0  0  0  0
 22 23  2  0  0  0  0
 23 31  1  0  0  0  0
 24 23  1  0  0  0  0
 25 24  2  0  0  0  0
 26 32  1  0  0  0  0
 26 25  1  0  0  0  0
 27 26  2  0  0  0  0
 28 27  1  0  0  0  0
 28 29  2  0  0  0  0
 29 30  1  0  0  0  0
 30 25  1  0  0  0  0
 30 21  2  0  0  0  0
 33 27  1  0  0  0  0
 34 28  1  0  0  0  0
 35 36  1  0  0  0  0
 35 29  1  0  0  0  0
 36 37  1  0  0  0  0
 38 39  1  0  0  0  0
 38 36  2  0  0  0  0
 40 38  1  0  0  0  0
 41 40  2  0  0  0  0
 41 42  1  0  0  0  0
 42 35  2  0  0  0  0
 43  2  1  0  0  0  0
 43 44  1  0  0  0  0
 45 43  1  0  0  0  0
M  END
>  <minimizedAffinity>
-6.47538996

$$$$

 OpenBabel03252502053D

 45 49  0  0  0  0  0  0  0  0999 V2000
   38.4130   28.0410   37.0540 C   0  0  0  0  0  0  0  0  0  0  0  0
   37.8620   27.0750   37.8880 C   0  0  0  0  0  0  0  0  0  0  0  0
   38.0260   27.2530   39.2190 C   0  0  0  0  0  0  0  0  0  0  0  0
   38.6850   28.3220   39.6910 N   0  0  0  0  0  0  0  0  0  0  0  0
   39.2150   29.2610   38.8980 C   0  0  0  0  0  0  0  0  0  0  0  0
   39.0570   29.0820   37.5750 N   0  0  0  0  0  0  0  0  0  0  0  0
   37.5420   26.3310   40.1340 N   0  0  0  0  0  0  0  0  0  0  0  0
   37.8570   26.3080   41.5790 C   0  0  0  0  0  0  0  0  0  0  0  0
   36.9510   25.2760   42.1830 C   0  0  0  0  0  0  0  0  0  0  0  0
   36.6490   24.3530   41.0360 C   0  0  0  0  0  0  0  0  0  0  0  0
   36.6590   25.2350   39.8360 C   0  0  0  0  0  0  0  0  0  0  0  0
   38.2920   27.9070   35.9760 H   0  0  0  0  0  0  0  0  0  0  0  0
   37.4790   27.3070   41.9370 H   0  0  0  0  0  0  0  0  0  0  0  0
   38.9210   26.1580   41.7570 H   0  0  0  0  0  0  0  0  0  0  0  0
   37.5240   24.7620   42.9910 H   0  0  0  0  0  0  0  0  0  0  0  0
   36.0190   25.6890   42.6210 H   0  0  0  0  0  0  0  0  0  0  0  0
   35.6750   23.8170   41.1740 H   0  0  0  0  0  0  0  0  0  0  0  0
   37.4180   23.5620   41.0600 H   0  0  0  0  0  0  0  0  0  0  0  0
   37.0910   24.5160   39.0720 H   0  0  0  0  0  0  0  0  0  0  0  0
   35.6190   25.5160   39.6220 H   0  0  0  0  0  0  0  0  0  0  0  0
   39.9440   30.4980   39.1890 C   0  0  0  0  0  0  0  0  0  0  0  0
   41.3060   30.5510   39.2520 N   0  0  0  0  0  0  0  0  0  0  0  0
   42.0170   31.6420   39.5100 C   0  0  0  0  0  0  0  0  0  0  0  0
   41.3800   32.8100   39.7340 N   0  0  0  0  0  0  0  0  0  0  0  0
   40.0270   32.8850   39.6990 C   0  0  0  0  0  0  0  0  0  0  0  0
   39.3970   34.0710   39.9470 C   0  0  0  0  0  0  0  0  0  0  0  0
   38.0370   34.1550   39.9350 C   0  0  0  0  0  0  0  0  0  0  0  0
   37.3240   32.9940   39.6630 C   0  0  0  0  0  0  0  0  0  0  0  0
   38.0200   31.8220   39.4200 C   0  0  0  0  0  0  0  0  0  0  0  0
   39.3710   31.7140   39.4250 C   0  0  0  0  0  0  0  0  0  0  0  0
   43.0950   31.5480   39.5320 H   0  0  0  0  0  0  0  0  0  0  0  0
   40.0330   34.9110   40.1440 H   0  0  0  0  0  0  0  0  0  0  0  0
   37.6470   35.1490   40.1470 H   0  0  0  0  0  0  0  0  0  0  0  0
   36.2620   33.2170   39.6890 H   0  0  0  0  0  0  0  0  0  0  0  0
   36.9680   30.8330   39.2330 C   0  0  0  0  0  0  0  0  0  0  0  0
   36.4800   30.3530   40.4720 C   0  0  0  0  0  0  0  0  0  0  0  0
   36.8800   30.7000   41.4430 H   0  0  0  0  0  0  0  0  0  0  0  0
   35.4790   29.4200   40.6760 C   0  0  0  0  0  0  0  0  0  0  0  0
   35.1420   29.0860   41.6400 H   0  0  0  0  0  0  0  0  0  0  0  0
   34.8760   28.8890   39.5600 C   0  0  0  0  0  3  0  0  0  0  0  0
   35.3340   29.3420   38.3480 C   0  0  0  0  0  3  0  0  0  0  0  0
   36.3080   30.2450   38.2340 N   0  0  0  0  0  0  0  0  0  0  0  0
   37.1120   26.0490   37.3280 N   0  0  0  0  0  0  0  0  0  0  0  0
   37.5340   25.2190   36.8210 H   0  0  0  0  0  0  0  0  0  0  0  0
   36.0730   25.9030   37.2980 H   0  0  0  0  0  0  0  0  0  0  0  0
  1  6  2  0  0  0  0
  1  2  1  0  0  0  0
  2  3  2  0  0  0  0
  3  4  1  0  0  0  0
  3  7  1  0  0  0  0
  5 21  1  0  0  0  0
  5  4  2  0  0  0  0
  6  5  1  0  0  0  0
  7  8  1  0  0  0  0
  8 14  1  0  0  0  0
  8 13  1  0  0  0  0
  8  9  1  0  0  0  0
  9 16  1  0  0  0  0
  9 15  1  0  0  0  0
 10 18  1  0  0  0  0
 10 17  1  0  0  0  0
 10  9  1  0  0  0  0
 11  7  1  0  0  0  0
 11 10  1  0  0  0  0
 12  1  1  0  0  0  0
 19 11  1  0  0  0  0
 20 11  1  0  0  0  0
 21 22  2  0  0  0  0
 21 30  1  0  0  0  0
 22 23  1  0  0  0  0
 23 31  1  0  0  0  0
 23 24  2  0  0  0  0
 25 24  1  0  0  0  0
 25 26  1  0  0  0  0
 26 32  1  0  0  0  0
 27 26  2  0  0  0  0
 27 33  1  0  0  0  0
 28 34  1  0  0  0  0
 28 27  1  0  0  0  0
 29 30  1  0  0  0  0
 29 28  2  0  0  0  0
 30 25  2  0  0  0  0
 35 29  1  0  0  0  0
 35 36  1  0  0  0  0
 36 38  2  0  0  0  0
 36 37  1  0  0  0  0
 38 39  1  0  0  0  0
 40 38  1  0  0  0  0
 41 40  2  0  0  0  0
 42 41  1  0  0  0  0
 42 35  2  0  0  0  0
 43  2  1  0  0  0  0
 44 43  1  0  0  0  0
 45 43  1  0  0  0  0
M  END
>  <minimizedAffinity>
-6.38877344

$$$$

 OpenBabel03252502053D

 45 49  0  0  0  0  0  0  0  0999 V2000
   36.2720   30.4800   41.2460 C   0  0  0  0  0  0  0  0  0  0  0  0
   37.2550   31.2200   40.5990 C   0  0  0  0  0  0  0  0  0  0  0  0
   38.3230   30.5350   40.1300 C   0  0  0  0  0  0  0  0  0  0  0  0
   38.4070   29.2060   40.2840 N   0  0  0  0  0  0  0  0  0  0  0  0
   37.4640   28.4830   40.9010 C   0  0  0  0  0  0  0  0  0  0  0  0
   36.4050   29.1630   41.3730 N   0  0  0  0  0  0  0  0  0  0  0  0
   39.3720   31.1840   39.4960 N   0  0  0  0  0  0  0  0  0  0  0  0
   40.6750   30.5760   39.1510 C   0  0  0  0  0  0  0  0  0  0  0  0
   41.3930   31.5860   38.3060 C   0  0  0  0  0  0  0  0  0  0  0  0
   40.7870   32.8960   38.7270 C   0  0  0  0  0  0  0  0  0  0  0  0
   39.3780   32.5600   39.0760 C   0  0  0  0  0  0  0  0  0  0  0  0
   35.4050   31.0210   41.6360 H   0  0  0  0  0  0  0  0  0  0  0  0
   40.3870   29.7340   38.4600 H   0  0  0  0  0  0  0  0  0  0  0  0
   41.2120   30.2430   40.0390 H   0  0  0  0  0  0  0  0  0  0  0  0
   42.4760   31.5270   38.5640 H   0  0  0  0  0  0  0  0  0  0  0  0
   41.2820   31.4270   37.2140 H   0  0  0  0  0  0  0  0  0  0  0  0
   40.8630   33.6710   37.9220 H   0  0  0  0  0  0  0  0  0  0  0  0
   41.4110   33.2780   39.5540 H   0  0  0  0  0  0  0  0  0  0  0  0
   39.2140   33.2850   39.9330 H   0  0  0  0  0  0  0  0  0  0  0  0
   38.7580   32.7840   38.1990 H   0  0  0  0  0  0  0  0  0  0  0  0
   37.3400   27.0460   41.1610 C   0  0  0  0  0  0  0  0  0  0  0  0
   37.7240   26.4770   42.3390 N   0  0  0  0  0  0  0  0  0  0  0  0
   37.6330   25.1850   42.6290 C   0  0  0  0  0  0  0  0  0  0  0  0
   37.1270   24.3340   41.7120 N   0  0  0  0  0  0  0  0  0  0  0  0
   36.7100   24.7810   40.5020 C   0  0  0  0  0  0  0  0  0  0  0  0
   36.2180   23.9040   39.5770 C   0  0  0  0  0  0  0  0  0  0  0  0
   35.8150   24.3370   38.3500 C   0  0  0  0  0  0  0  0  0  0  0  0
   35.9260   25.6950   38.0800 C   0  0  0  0  0  0  0  0  0  0  0  0
   36.4330   26.5340   39.0580 C   0  0  0  0  0  0  0  0  0  0  0  0
   36.8390   26.1270   40.2850 C   0  0  0  0  0  0  0  0  0  0  0  0
   37.9740   24.8600   43.6040 H   0  0  0  0  0  0  0  0  0  0  0  0
   36.1700   22.8770   39.8800 H   0  0  0  0  0  0  0  0  0  0  0  0
   35.4430   23.5500   37.6970 H   0  0  0  0  0  0  0  0  0  0  0  0
   35.5710   25.8860   37.0710 H   0  0  0  0  0  0  0  0  0  0  0  0
   36.4500   27.8390   38.4130 C   0  0  0  0  0  0  0  0  0  0  0  0
   37.5970   28.0030   37.6010 C   0  0  0  0  0  0  0  0  0  0  0  0
   38.3710   27.2190   37.5000 H   0  0  0  0  0  0  0  0  0  0  0  0
   37.9350   29.1050   36.8350 C   0  0  0  0  0  0  0  0  0  0  0  0
   38.8210   29.1830   36.2330 H   0  0  0  0  0  0  0  0  0  0  0  0
   37.0680   30.1730   36.8530 C   0  0  0  0  0  3  0  0  0  0  0  0
   35.9490   30.0340   37.6340 C   0  0  0  0  0  3  0  0  0  0  0  0
   35.6940   28.9360   38.3460 N   0  0  0  0  0  0  0  0  0  0  0  0
   37.0510   32.5790   40.3940 N   0  0  0  0  0  0  0  0  0  0  0  0
   37.1490   33.3110   41.1540 H   0  0  0  0  0  0  0  0  0  0  0  0
   36.7830   33.1040   39.5250 H   0  0  0  0  0  0  0  0  0  0  0  0
  1  6  1  0  0  0  0
  1 12  1  0  0  0  0
  2  1  2  0  0  0  0
  3  4  2  0  0  0  0
  3  2  1  0  0  0  0
  4  5  1  0  0  0  0
  5 21  1  0  0  0  0
  5  6  2  0  0  0  0
  7  3  1  0  0  0  0
  8  7  1  0  0  0  0
  8 14  1  0  0  0  0
  9 15  1  0  0  0  0
  9 10  1  0  0  0  0
  9  8  1  0  0  0  0
 10 11  1  0  0  0  0
 10 18  1  0  0  0  0
 11  7  1  0  0  0  0
 11 19  1  0  0  0  0
 13  8  1  0  0  0  0
 16  9  1  0  0  0  0
 17 10  1  0  0  0  0
 20 11  1  0  0  0  0
 21 22  1  0  0  0  0
 22 23  2  0  0  0  0
 23 31  1  0  0  0  0
 24 23  1  0  0  0  0
 25 24  2  0  0  0  0
 26 32  1  0  0  0  0
 26 25  1  0  0  0  0
 27 26  2  0  0  0  0
 28 27  1  0  0  0  0
 28 29  2  0  0  0  0
 29 30  1  0  0  0  0
 30 25  1  0  0  0  0
 30 21  2  0  0  0  0
 33 27  1  0  0  0  0
 34 28  1  0  0  0  0
 35 29  1  0  0  0  0
 36 35  2  0  0  0  0
 37 36  1  0  0  0  0
 38 40  2  0  0  0  0
 38 36  1  0  0  0  0
 39 38  1  0  0  0  0
 40 41  1  0  0  0  0
 41 42  2  0  0  0  0
 42 35  1  0  0  0  0
 43  2  1  0  0  0  0
 43 44  1  0  0  0  0
 45 43  1  0  0  0  0
M  END
>  <minimizedAffinity>
-6.28577948

$$$$

 OpenBabel03252502053D

 45 49  0  0  0  0  0  0  0  0999 V2000
   39.8650   32.9040   39.8860 C   0  0  0  0  0  0  0  0  0  0  0  0
   40.8340   32.5670   38.9480 C   0  0  0  0  0  0  0  0  0  0  0  0
   40.7490   31.3330   38.3990 C   0  0  0  0  0  0  0  0  0  0  0  0
   39.7650   30.4930   38.7520 N   0  0  0  0  0  0  0  0  0  0  0  0
   38.8240   30.8080   39.6500 C   0  0  0  0  0  0  0  0  0  0  0  0
   38.9110   32.0320   40.2000 N   0  0  0  0  0  0  0  0  0  0  0  0
   41.6840   30.8900   37.4760 N   0  0  0  0  0  0  0  0  0  0  0  0
   41.8180   29.5000   36.9900 C   0  0  0  0  0  0  0  0  0  0  0  0
   42.8110   29.5480   35.8670 C   0  0  0  0  0  0  0  0  0  0  0  0
   43.6370   30.7650   36.1760 C   0  0  0  0  0  0  0  0  0  0  0  0
   42.6880   31.7010   36.8410 C   0  0  0  0  0  0  0  0  0  0  0  0
   39.9250   33.8960   40.3410 H   0  0  0  0  0  0  0  0  0  0  0  0
   40.8160   29.2990   36.5160 H   0  0  0  0  0  0  0  0  0  0  0  0
   42.0600   28.8110   37.7990 H   0  0  0  0  0  0  0  0  0  0  0  0
   43.4160   28.6120   35.9150 H   0  0  0  0  0  0  0  0  0  0  0  0
   42.3550   29.6200   34.8590 H   0  0  0  0  0  0  0  0  0  0  0  0
   44.1030   31.2010   35.2550 H   0  0  0  0  0  0  0  0  0  0  0  0
   44.4860   30.4200   36.7910 H   0  0  0  0  0  0  0  0  0  0  0  0
   43.3920   32.1930   37.5830 H   0  0  0  0  0  0  0  0  0  0  0  0
   42.3160   32.3940   36.0770 H   0  0  0  0  0  0  0  0  0  0  0  0
   37.6670   30.0700   40.1630 C   0  0  0  0  0  0  0  0  0  0  0  0
   36.4170   30.2000   39.6320 N   0  0  0  0  0  0  0  0  0  0  0  0
   35.3360   29.5560   40.0550 C   0  0  0  0  0  0  0  0  0  0  0  0
   35.4400   28.6960   41.0890 N   0  0  0  0  0  0  0  0  0  0  0  0
   36.6300   28.4810   41.7010 C   0  0  0  0  0  0  0  0  0  0  0  0
   36.7150   27.6220   42.7600 C   0  0  0  0  0  0  0  0  0  0  0  0
   37.9010   27.4130   43.3960 C   0  0  0  0  0  0  0  0  0  0  0  0
   39.0120   28.1050   42.9280 C   0  0  0  0  0  0  0  0  0  0  0  0
   38.8630   28.9620   41.8520 C   0  0  0  0  0  0  0  0  0  0  0  0
   37.6940   29.1850   41.2020 C   0  0  0  0  0  0  0  0  0  0  0  0
   34.4010   29.7500   39.5460 H   0  0  0  0  0  0  0  0  0  0  0  0
   35.8040   27.1340   43.0450 H   0  0  0  0  0  0  0  0  0  0  0  0
   37.8470   26.7090   44.2250 H   0  0  0  0  0  0  0  0  0  0  0  0
   39.8750   27.8370   43.5310 H   0  0  0  0  0  0  0  0  0  0  0  0
   40.1910   29.5330   41.6840 C   0  0  0  0  0  0  0  0  0  0  0  0
   40.4170   30.5970   42.5900 C   0  0  0  0  0  0  0  0  0  0  0  0
   39.6530   30.9330   43.3150 H   0  0  0  0  0  0  0  0  0  0  0  0
   41.5650   31.3590   42.7220 C   0  0  0  0  0  0  0  0  0  0  0  0
   41.6880   32.1600   43.4280 H   0  0  0  0  0  0  0  0  0  0  0  0
   42.6150   31.0640   41.8860 C   0  0  0  0  0  3  0  0  0  0  0  0
   42.4170   30.0350   41.0000 C   0  0  0  0  0  3  0  0  0  0  0  0
   41.2780   29.3470   40.9340 N   0  0  0  0  0  0  0  0  0  0  0  0
   41.7630   33.5260   38.5650 N   0  0  0  0  0  0  0  0  0  0  0  0
   42.5920   33.8150   39.1600 H   0  0  0  0  0  0  0  0  0  0  0  0
   41.8260   34.1030   37.6900 H   0  0  0  0  0  0  0  0  0  0  0  0
  1  6  1  0  0  0  0
  1 12  1  0  0  0  0
  2  1  2  0  0  0  0
  3  4  2  0  0  0  0
  3  2  1  0  0  0  0
  4  5  1  0  0  0  0
  5 21  1  0  0  0  0
  5  6  2  0  0  0  0
  7  3  1  0  0  0  0
  8  7  1  0  0  0  0
  8 14  1  0  0  0  0
  9 15  1  0  0  0  0
  9 10  1  0  0  0  0
  9  8  1  0  0  0  0
 10 18  1  0  0  0  0
 10 11  1  0  0  0  0
 11  7  1  0  0  0  0
 11 19  1  0  0  0  0
 13  8  1  0  0  0  0
 16  9  1  0  0  0  0
 17 10  1  0  0  0  0
 20 11  1  0  0  0  0
 21 30  1  0  0  0  0
 22 23  1  0  0  0  0
 22 21  2  0  0  0  0
 23 24  2  0  0  0  0
 24 25  1  0  0  0  0
 25 26  1  0  0  0  0
 26 32  1  0  0  0  0
 26 27  2  0  0  0  0
 27 33  1  0  0  0  0
 28 27  1  0  0  0  0
 28 34  1  0  0  0  0
 29 28  2  0  0  0  0
 30 25  2  0  0  0  0
 30 29  1  0  0  0  0
 31 23  1  0  0  0  0
 35 29  1  0  0  0  0
 35 36  1  0  0  0  0
 36 38  2  0  0  0  0
 36 37  1  0  0  0  0
 38 39  1  0  0  0  0
 40 38  1  0  0  0  0
 41 40  2  0  0  0  0
 42 41  1  0  0  0  0
 42 35  2  0  0  0  0
 43  2  1  0  0  0  0
 43 44  1  0  0  0  0
 45 43  1  0  0  0  0
M  END
>  <minimizedAffinity>
-6.2791791

$$$$

 OpenBabel03252502053D

 45 49  0  0  0  0  0  0  0  0999 V2000
   38.0280   29.5830   37.5770 C   0  0  0  0  0  0  0  0  0  0  0  0
   38.7080   30.6630   38.1270 C   0  0  0  0  0  0  0  0  0  0  0  0
   39.5950   30.3890   39.1110 C   0  0  0  0  0  0  0  0  0  0  0  0
   39.8000   29.1270   39.5170 N   0  0  0  0  0  0  0  0  0  0  0  0
   39.1550   28.0790   38.9910 C   0  0  0  0  0  0  0  0  0  0  0  0
   38.2690   28.3500   38.0180 N   0  0  0  0  0  0  0  0  0  0  0  0
   40.3010   31.4000   39.7450 N   0  0  0  0  0  0  0  0  0  0  0  0
   41.1160   31.2400   40.9690 C   0  0  0  0  0  0  0  0  0  0  0  0
   41.8440   32.5390   41.1530 C   0  0  0  0  0  0  0  0  0  0  0  0
   40.9700   33.5390   40.4510 C   0  0  0  0  0  0  0  0  0  0  0  0
   40.3570   32.7760   39.3280 C   0  0  0  0  0  0  0  0  0  0  0  0
   37.3040   29.7900   36.7850 H   0  0  0  0  0  0  0  0  0  0  0  0
   41.8920   30.4840   40.6610 H   0  0  0  0  0  0  0  0  0  0  0  0
   40.5110   30.9190   41.8170 H   0  0  0  0  0  0  0  0  0  0  0  0
   41.9030   32.7350   42.2500 H   0  0  0  0  0  0  0  0  0  0  0  0
   42.8730   32.5460   40.7390 H   0  0  0  0  0  0  0  0  0  0  0  0
   41.5500   34.4330   40.1040 H   0  0  0  0  0  0  0  0  0  0  0  0
   40.2680   33.9290   41.2090 H   0  0  0  0  0  0  0  0  0  0  0  0
   39.3360   33.2680   39.2950 H   0  0  0  0  0  0  0  0  0  0  0  0
   40.9570   32.9690   38.4300 H   0  0  0  0  0  0  0  0  0  0  0  0
   39.2330   26.6400   39.2610 C   0  0  0  0  0  0  0  0  0  0  0  0
   40.0180   25.7970   38.5300 N   0  0  0  0  0  0  0  0  0  0  0  0
   40.1280   24.4900   38.7310 C   0  0  0  0  0  0  0  0  0  0  0  0
   39.4240   23.9110   39.7250 N   0  0  0  0  0  0  0  0  0  0  0  0
   38.6070   24.6440   40.5210 C   0  0  0  0  0  0  0  0  0  0  0  0
   37.8860   24.0400   41.5110 C   0  0  0  0  0  0  0  0  0  0  0  0
   37.0470   24.7630   42.3040 C   0  0  0  0  0  0  0  0  0  0  0  0
   36.9540   26.1280   42.0650 C   0  0  0  0  0  0  0  0  0  0  0  0
   37.7100   26.6830   41.0460 C   0  0  0  0  0  0  0  0  0  0  0  0
   38.5530   25.9850   40.2460 C   0  0  0  0  0  0  0  0  0  0  0  0
   40.7870   23.9330   38.0780 H   0  0  0  0  0  0  0  0  0  0  0  0
   38.0260   22.9820   41.6180 H   0  0  0  0  0  0  0  0  0  0  0  0
   36.5240   24.1750   43.0560 H   0  0  0  0  0  0  0  0  0  0  0  0
   36.2520   26.5640   42.7690 H   0  0  0  0  0  0  0  0  0  0  0  0
   37.3230   28.0860   41.0590 C   0  0  0  0  0  0  0  0  0  0  0  0
   36.1200   28.2990   40.3440 C   0  0  0  0  0  0  0  0  0  0  0  0
   35.5740   27.4800   39.8410 H   0  0  0  0  0  0  0  0  0  0  0  0
   35.4540   29.4980   40.1580 C   0  0  0  0  0  0  0  0  0  0  0  0
   34.5400   29.6100   39.6040 H   0  0  0  0  0  0  0  0  0  0  0  0
   36.0090   30.6210   40.7260 C   0  0  0  0  0  3  0  0  0  0  0  0
   37.1750   30.4360   41.4240 C   0  0  0  0  0  3  0  0  0  0  0  0
   37.7580   29.2440   41.5580 N   0  0  0  0  0  0  0  0  0  0  0  0
   38.5110   31.9280   37.5880 N   0  0  0  0  0  0  0  0  0  0  0  0
   37.6470   32.5170   37.7650 H   0  0  0  0  0  0  0  0  0  0  0  0
   39.1220   32.5020   36.9550 H   0  0  0  0  0  0  0  0  0  0  0  0
  1  6  2  0  0  0  0
  1  2  1  0  0  0  0
  2  3  2  0  0  0  0
  3  4  1  0  0  0  0
  3  7  1  0  0  0  0
  5 21  1  0  0  0  0
  5  4  2  0  0  0  0
  6  5  1  0  0  0  0
  7  8  1  0  0  0  0
  8  9  1  0  0  0  0
  8 14  1  0  0  0  0
  9 15  1  0  0  0  0
 10  9  1  0  0  0  0
 10 18  1  0  0  0  0
 11  7  1  0  0  0  0
 11 10  1  0  0  0  0
 12  1  1  0  0  0  0
 13  8  1  0  0  0  0
 16  9  1  0  0  0  0
 17 10  1  0  0  0  0
 19 11  1  0  0  0  0
 20 11  1  0  0  0  0
 21 30  1  0  0  0  0
 22 23  1  0  0  0  0
 22 21  2  0  0  0  0
 23 24  2  0  0  0  0
 24 25  1  0  0  0  0
 25 26  1  0  0  0  0
 26 32  1  0  0  0  0
 26 27  2  0  0  0  0
 27 33  1  0  0  0  0
 28 27  1  0  0  0  0
 28 34  1  0  0  0  0
 29 35  1  0  0  0  0
 29 28  2  0  0  0  0
 30 25  2  0  0  0  0
 30 29  1  0  0  0  0
 31 23  1  0  0  0  0
 35 42  1  0  0  0  0
 36 35  2  0  0  0  0
 37 36  1  0  0  0  0
 38 36  1  0  0  0  0
 38 40  2  0  0  0  0
 39 38  1  0  0  0  0
 40 41  1  0  0  0  0
 41 42  2  0  0  0  0
 43 44  1  0  0  0  0
 43  2  1  0  0  0  0
 45 43  1  0  0  0  0
M  END
>  <minimizedAffinity>
-6.26466036

$$$$

 OpenBabel03252502053D

 45 49  0  0  0  0  0  0  0  0999 V2000
   37.6680   27.5990   38.6150 C   0  0  0  0  0  0  0  0  0  0  0  0
   37.9720   26.7370   39.6620 C   0  0  0  0  0  0  0  0  0  0  0  0
   39.0580   27.0430   40.4080 C   0  0  0  0  0  0  0  0  0  0  0  0
   39.7900   28.1340   40.1390 N   0  0  0  0  0  0  0  0  0  0  0  0
   39.5040   28.9730   39.1360 C   0  0  0  0  0  0  0  0  0  0  0  0
   38.4290   28.6670   38.3900 N   0  0  0  0  0  0  0  0  0  0  0  0
   39.4630   26.2300   41.4570 N   0  0  0  0  0  0  0  0  0  0  0  0
   40.7450   26.3430   42.1840 C   0  0  0  0  0  0  0  0  0  0  0  0
   40.6440   25.4020   43.3490 C   0  0  0  0  0  0  0  0  0  0  0  0
   39.6430   24.3780   42.8930 C   0  0  0  0  0  0  0  0  0  0  0  0
   38.7110   25.1360   42.0110 C   0  0  0  0  0  0  0  0  0  0  0  0
   36.7960   27.3610   38.0000 H   0  0  0  0  0  0  0  0  0  0  0  0
   40.7030   27.3830   42.6150 H   0  0  0  0  0  0  0  0  0  0  0  0
   41.5980   26.1810   41.5260 H   0  0  0  0  0  0  0  0  0  0  0  0
   41.6540   24.9550   43.5050 H   0  0  0  0  0  0  0  0  0  0  0  0
   40.3220   25.8830   44.2950 H   0  0  0  0  0  0  0  0  0  0  0  0
   39.1220   23.8870   43.7550 H   0  0  0  0  0  0  0  0  0  0  0  0
   40.2180   23.5720   42.4070 H   0  0  0  0  0  0  0  0  0  0  0  0
   38.4730   24.3320   41.2460 H   0  0  0  0  0  0  0  0  0  0  0  0
   37.8420   25.4230   42.6160 H   0  0  0  0  0  0  0  0  0  0  0  0
   40.1400   30.2120   38.6790 C   0  0  0  0  0  0  0  0  0  0  0  0
   41.0320   30.2420   37.6480 N   0  0  0  0  0  0  0  0  0  0  0  0
   41.6360   31.3340   37.1920 C   0  0  0  0  0  0  0  0  0  0  0  0
   41.3750   32.5250   37.7680 N   0  0  0  0  0  0  0  0  0  0  0  0
   40.5050   32.6230   38.8030 C   0  0  0  0  0  0  0  0  0  0  0  0
   40.2650   33.8340   39.3890 C   0  0  0  0  0  0  0  0  0  0  0  0
   39.4090   33.9430   40.4420 C   0  0  0  0  0  0  0  0  0  0  0  0
   38.7960   32.7810   40.8950 C   0  0  0  0  0  0  0  0  0  0  0  0
   39.0800   31.5830   40.2610 C   0  0  0  0  0  0  0  0  0  0  0  0
   39.9260   31.4500   39.2100 C   0  0  0  0  0  0  0  0  0  0  0  0
   42.3260   31.2210   36.3650 H   0  0  0  0  0  0  0  0  0  0  0  0
   40.7840   34.6720   38.9670 H   0  0  0  0  0  0  0  0  0  0  0  0
   39.2980   34.9550   40.8270 H   0  0  0  0  0  0  0  0  0  0  0  0
   38.1490   33.0250   41.7320 H   0  0  0  0  0  0  0  0  0  0  0  0
   38.3160   30.6050   41.0220 C   0  0  0  0  0  0  0  0  0  0  0  0
   38.9900   30.2300   42.2090 C   0  0  0  0  0  0  0  0  0  0  0  0
   39.9780   30.6410   42.4870 H   0  0  0  0  0  0  0  0  0  0  0  0
   38.5590   29.3350   43.1730 C   0  0  0  0  0  0  0  0  0  0  0  0
   39.1090   29.0820   44.0610 H   0  0  0  0  0  0  0  0  0  0  0  0
   37.3390   28.7340   42.9740 C   0  0  0  0  0  3  0  0  0  0  0  0
   36.6690   29.0850   41.8290 C   0  0  0  0  0  3  0  0  0  0  0  0
   37.1530   29.9570   40.9450 N   0  0  0  0  0  0  0  0  0  0  0  0
   37.1110   25.6820   39.9370 N   0  0  0  0  0  0  0  0  0  0  0  0
   37.0630   24.7940   39.3610 H   0  0  0  0  0  0  0  0  0  0  0  0
   36.4010   25.5640   40.7020 H   0  0  0  0  0  0  0  0  0  0  0  0
  1  2  1  0  0  0  0
  2 43  1  0  0  0  0
  2  3  2  0  0  0  0
  3  7  1  0  0  0  0
  4  3  1  0  0  0  0
  5  4  2  0  0  0  0
  6  1  2  0  0  0  0
  6  5  1  0  0  0  0
  7 11  1  0  0  0  0
  7  8  1  0  0  0  0
  8 13  1  0  0  0  0
  8  9  1  0  0  0  0
  9 15  1  0  0  0  0
  9 16  1  0  0  0  0
 10  9  1  0  0  0  0
 10 17  1  0  0  0  0
 11 20  1  0  0  0  0
 11 10  1  0  0  0  0
 12  1  1  0  0  0  0
 14  8  1  0  0  0  0
 18 10  1  0  0  0  0
 19 11  1  0  0  0  0
 21  5  1  0  0  0  0
 21 30  1  0  0  0  0
 22 21  2  0  0  0  0
 23 22  1  0  0  0  0
 23 24  2  0  0  0  0
 24 25  1  0  0  0  0
 25 30  2  0  0  0  0
 25 26  1  0  0  0  0
 26 27  2  0  0  0  0
 27 33  1  0  0  0  0
 27 28  1  0  0  0  0
 28 34  1  0  0  0  0
 29 28  2  0  0  0  0
 29 35  1  0  0  0  0
 30 29  1  0  0  0  0
 31 23  1  0  0  0  0
 32 26  1  0  0  0  0
 35 36  1  0  0  0  0
 36 37  1  0  0  0  0
 36 38  2  0  0  0  0
 38 39  1  0  0  0  0
 40 38  1  0  0  0  0
 41 40  2  0  0  0  0
 42 35  2  0  0  0  0
 42 41  1  0  0  0  0
 43 45  1  0  0  0  0
 44 43  1  0  0  0  0
M  END
>  <minimizedAffinity>
-6.18705082

$$$$
