
 OpenBabel03252509233D

 26 28  0  0  1  0  0  0  0  0999 V2000
   46.5130   35.0290   41.9400 C   0  0  1  0  0  0  0  0  0  0  0  0
   48.0390   35.3200   41.9150 C   0  0  0  0  0  0  0  0  0  0  0  0
   47.3550   34.0470   41.3600 C   0  0  2  0  0  0  0  0  0  0  0  0
   45.9350   35.7600   41.3480 H   0  0  0  0  0  0  0  0  0  0  0  0
   48.6150   35.2470   42.8270 H   0  0  0  0  0  0  0  0  0  0  0  0
   48.4000   36.0100   41.1320 H   0  0  0  0  0  0  0  0  0  0  0  0
   47.6720   33.1380   41.9100 H   0  0  0  0  0  0  0  0  0  0  0  0
   44.6630   35.4150   45.1780 C   0  0  0  0  0  0  0  0  0  0  0  0
   45.1190   35.7180   43.8560 C   0  0  0  0  0  0  0  0  0  0  0  0
   46.0440   34.8410   43.3610 C   0  0  0  0  0  0  0  0  0  0  0  0
   46.5010   33.7460   44.0960 N   0  0  0  0  0  0  0  0  0  0  0  0
   46.0320   33.5250   45.3250 C   0  0  0  0  0  0  0  0  0  0  0  0
   45.1090   34.3570   45.8740 N   0  0  0  0  0  0  0  0  0  0  0  0
   43.9290   36.0700   45.6250 H   0  0  0  0  0  0  0  0  0  0  0  0
   46.4910   32.6400   45.7440 H   0  0  0  0  0  0  0  0  0  0  0  0
   44.6710   36.8540   43.1440 N   0  0  0  0  0  0  0  0  0  0  0  0
   44.6530   37.7590   43.6990 H   0  0  0  0  0  0  0  0  0  0  0  0
   44.3770   36.8450   42.1620 H   0  0  0  0  0  0  0  0  0  0  0  0
   47.3370   33.9090   39.8680 C   0  0  0  0  0  0  0  0  0  0  0  0
   46.3110   33.1610   39.3280 C   0  0  0  0  0  0  0  0  0  0  0  0
   45.5650   32.7010   39.9340 H   0  0  0  0  0  0  0  0  0  0  0  0
   46.3300   33.0560   37.9460 C   0  0  0  0  0  0  0  0  0  0  0  0
   45.5140   32.4600   37.5140 H   0  0  0  0  0  0  0  0  0  0  0  0
   47.3110   33.6630   37.1800 C   0  0  0  0  0  3  0  0  0  0  0  0
   48.3240   34.4080   37.7800 C   0  0  0  0  0  3  0  0  0  0  0  0
   48.2940   34.5020   39.1310 N   0  0  0  0  0  0  0  0  0  0  0  0
  1  4  1  6  0  0  0
  1 10  1  0  0  0  0
  2  1  1  0  0  0  0
  2  5  1  0  0  0  0
  3  7  1  1  0  0  0
  3  2  1  0  0  0  0
  3  1  1  0  0  0  0
  6  2  1  0  0  0  0
  8 14  1  0  0  0  0
  8 13  1  0  0  0  0
  9  8  2  0  0  0  0
 10  9  1  0  0  0  0
 10 11  2  0  0  0  0
 11 12  1  0  0  0  0
 12 15  1  0  0  0  0
 12 13  2  0  0  0  0
 16 17  1  0  0  0  0
 16  9  1  0  0  0  0
 18 16  1  0  0  0  0
 19  3  1  0  0  0  0
 20 19  1  0  0  0  0
 20 21  1  0  0  0  0
 22 20  2  0  0  0  0
 23 22  1  0  0  0  0
 24 25  2  0  0  0  0
 24 22  1  0  0  0  0
 25 26  1  0  0  0  0
 26 19  2  0  0  0  0
M  END
>  <minimizedAffinity>
-5.30169106

>  <minimizedRMSD>
0.486796826

$$$$
