
 OpenBabel03252508133D

 36 39  0  0  1  0  0  0  0  0999 V2000
   47.0560   30.6910   46.8280 C   0  0  0  0  0  0  0  0  0  0  0  0
   48.0620   30.2670   46.8810 H   0  0  0  0  0  0  0  0  0  0  0  0
   46.2650   29.9150   46.8430 H   0  0  0  0  0  0  0  0  0  0  0  0
   46.8520   31.5530   48.0510 C   0  0  1  0  0  0  0  0  0  0  0  0
   46.2600   30.8880   49.2440 C   0  0  0  0  0  0  0  0  0  0  0  0
   47.6530   31.2920   49.2680 C   0  0  1  0  0  0  0  0  0  0  0  0
   46.5520   32.6000   47.8610 H   0  0  0  0  0  0  0  0  0  0  0  0
   45.5200   31.4840   49.8470 H   0  0  0  0  0  0  0  0  0  0  0  0
   45.9290   29.8240   49.1980 H   0  0  0  0  0  0  0  0  0  0  0  0
   47.8980   32.2100   49.8840 H   0  0  0  0  0  0  0  0  0  0  0  0
   48.8000   30.3650   49.1600 C   0  0  0  0  0  0  0  0  0  0  0  0
   49.6760   30.2880   50.4400 C   0  0  0  0  0  0  0  0  0  0  0  0
   50.2050   31.0180   49.2530 C   0  0  0  0  0  0  0  0  0  0  0  0
   48.7040   29.4400   48.5700 H   0  0  0  0  0  0  0  0  0  0  0  0
   49.3620   30.8890   51.3120 H   0  0  0  0  0  0  0  0  0  0  0  0
   50.0540   29.2740   50.6550 H   0  0  0  0  0  0  0  0  0  0  0  0
   50.2180   32.1280   49.2450 H   0  0  0  0  0  0  0  0  0  0  0  0
   50.9610   30.4930   48.6430 H   0  0  0  0  0  0  0  0  0  0  0  0
   46.4590   32.7160   45.7780 C   0  0  0  0  0  2  0  0  0  0  0  0
   46.8820   31.5320   45.5710 C   0  0  0  0  0  2  0  0  0  0  0  0
   45.2670   35.4600   43.6330 C   0  0  0  0  0  0  0  0  0  0  0  0
   45.8710   35.2050   42.4070 C   0  0  0  0  0  0  0  0  0  0  0  0
   46.6870   34.0870   42.3520 C   0  0  0  0  0  0  0  0  0  0  0  0
   46.8250   33.3580   43.4600 N   0  0  0  0  0  0  0  0  0  0  0  0
   46.2480   33.6020   44.6260 C   0  0  0  0  0  0  0  0  0  0  0  0
   45.4700   34.6650   44.6880 N   0  0  0  0  0  0  0  0  0  0  0  0
   44.6180   36.3410   43.6960 H   0  0  0  0  0  0  0  0  0  0  0  0
   45.7580   35.7930   41.5220 H   0  0  0  0  0  0  0  0  0  0  0  0
   47.4140   33.6510   41.1520 C   0  0  0  0  0  0  0  0  0  0  0  0
   47.4570   34.3820   39.9860 C   0  0  0  0  0  0  0  0  0  0  0  0
   46.9490   35.3130   39.9240 H   0  0  0  0  0  0  0  0  0  0  0  0
   48.1290   33.9900   38.8600 C   0  0  0  0  0  0  0  0  0  0  0  0
   48.1440   34.5850   37.9600 H   0  0  0  0  0  0  0  0  0  0  0  0
   48.8130   32.7940   38.8620 C   0  0  0  0  0  3  0  0  0  0  0  0
   48.7550   32.0780   40.0430 C   0  0  0  0  0  3  0  0  0  0  0  0
   48.0950   32.4840   41.1190 N   0  0  0  0  0  0  0  0  0  0  0  0
  1  3  1  0  0  0  0
  1  2  1  0  0  0  0
  1  4  1  0  0  0  0
  4  7  1  6  0  0  0
  4  5  1  0  0  0  0
  4  6  1  0  0  0  0
  5  6  1  0  0  0  0
  5  8  1  0  0  0  0
  6 10  1  1  0  0  0
  9  5  1  0  0  0  0
 11 13  1  0  0  0  0
 11  6  1  0  0  0  0
 11 12  1  0  0  0  0
 12 16  1  0  0  0  0
 12 15  1  0  0  0  0
 13 12  1  0  0  0  0
 14 11  1  0  0  0  0
 17 13  1  0  0  0  0
 18 13  1  0  0  0  0
 20 19  1  0  0  0  0
 20  1  1  0  0  0  0
 21 27  1  0  0  0  0
 21 26  1  0  0  0  0
 22 21  2  0  0  0  0
 23 22  1  0  0  0  0
 23 24  2  0  0  0  0
 24 25  1  0  0  0  0
 25 26  2  0  0  0  0
 25 19  1  0  0  0  0
 28 22  1  0  0  0  0
 29 23  1  0  0  0  0
 30 29  2  0  0  0  0
 31 30  1  0  0  0  0
 32 34  2  0  0  0  0
 32 30  1  0  0  0  0
 33 32  1  0  0  0  0
 34 35  1  0  0  0  0
 35 36  2  0  0  0  0
 36 29  1  0  0  0  0
M  END
>  <minimizedAffinity>
-4.83877277

>  <minimizedRMSD>
1.26758277

$$$$
