
 OpenBabel03242513023D

 30 33  0  0  0  0  0  0  0  0999 V2000
   47.0160   34.9760   42.5670 C   0  0  0  0  0  0  0  0  0  0  0  0
   48.0100   34.4420   41.7460 C   0  0  0  0  0  0  0  0  0  0  0  0
   48.5140   33.1800   42.0840 C   0  0  0  0  0  0  0  0  0  0  0  0
   48.0190   32.5340   43.1890 N   0  0  0  0  0  0  0  0  0  0  0  0
   47.0520   33.0920   43.9570 C   0  0  0  0  0  0  0  0  0  0  0  0
   46.5600   34.2980   43.6470 N   0  0  0  0  0  0  0  0  0  0  0  0
   46.5950   35.9400   42.3530 H   0  0  0  0  0  0  0  0  0  0  0  0
   48.3460   35.0010   40.9060 H   0  0  0  0  0  0  0  0  0  0  0  0
   46.2990   31.0040   45.0120 C   0  0  0  0  0  0  0  0  0  0  0  0
   46.5730   32.3480   45.1160 C   0  0  0  0  0  0  0  0  0  0  0  0
   46.4160   33.0770   46.3010 C   0  0  0  0  0  0  0  0  0  0  0  0
   45.9590   32.4180   47.4470 C   0  0  0  0  0  0  0  0  0  0  0  0
   45.6900   32.7620   48.7270 N   0  0  0  0  0  0  0  0  0  0  0  0
   45.2620   31.6660   49.3980 C   0  0  0  0  0  0  0  0  0  0  0  0
   45.2720   30.6340   48.5090 N   0  0  0  0  0  0  0  0  0  0  0  0
   45.6930   31.0770   47.3170 C   0  0  0  0  0  0  0  0  0  0  0  0
   45.8400   30.3400   46.1590 C   0  0  0  0  0  0  0  0  0  0  0  0
   46.4490   30.5190   44.0530 H   0  0  0  0  0  0  0  0  0  0  0  0
   46.6280   34.1280   46.3850 H   0  0  0  0  0  0  0  0  0  0  0  0
   45.8310   33.7650   49.0380 H   0  0  0  0  0  0  0  0  0  0  0  0
   44.9900   31.7070   50.4400 H   0  0  0  0  0  0  0  0  0  0  0  0
   45.6330   29.3000   46.0640 H   0  0  0  0  0  0  0  0  0  0  0  0
   49.5550   32.5810   41.2550 C   0  0  0  0  0  0  0  0  0  0  0  0
   50.8100   32.4060   41.7900 C   0  0  0  0  0  0  0  0  0  0  0  0
   51.0060   32.7110   42.8080 H   0  0  0  0  0  0  0  0  0  0  0  0
   51.7370   31.8320   40.9400 C   0  0  0  0  0  0  0  0  0  0  0  0
   52.7360   31.6710   41.3040 H   0  0  0  0  0  0  0  0  0  0  0  0
   51.3860   31.4710   39.6370 C   0  0  0  0  0  0  0  0  0  0  0  0
   50.0890   31.6770   39.1520 C   0  0  0  0  0  0  0  0  0  0  0  0
   49.1890   32.2440   40.0070 N   0  0  0  0  0  0  0  0  0  0  0  0
  1  6  1  0  0  0  0
  2  3  1  0  0  0  0
  2  1  2  0  0  0  0
  3  4  2  0  0  0  0
  4  5  1  0  0  0  0
  5 10  1  0  0  0  0
  6  5  2  0  0  0  0
  7  1  1  0  0  0  0
  8  2  1  0  0  0  0
  9 10  2  0  0  0  0
  9 17  1  0  0  0  0
 10 11  1  0  0  0  0
 11 19  1  0  0  0  0
 11 12  2  0  0  0  0
 12 13  1  0  0  0  0
 13 20  1  0  0  0  0
 13 14  1  0  0  0  0
 14 21  1  0  0  0  0
 15 14  2  0  0  0  0
 16 12  1  0  0  0  0
 16 15  1  0  0  0  0
 17 16  2  0  0  0  0
 18  9  1  0  0  0  0
 22 17  1  0  0  0  0
 23 24  1  0  0  0  0
 23  3  1  0  0  0  0
 24 25  1  0  0  0  0
 26 27  1  0  0  0  0
 26 24  2  0  0  0  0
 28 26  1  0  0  0  0
 29 28  2  0  0  0  0
 29 30  1  0  0  0  0
 30 23  2  0  0  0  0
M  END
>  <minimizedAffinity>
-5.71605968

>  <minimizedRMSD>
1.14902616

$$$$
