
 OpenBabel03252503303D

 36 38  0  0  1  0  0  0  0  0999 V2000
   41.1820   30.2830   39.1820 C   0  0  0  0  0  0  0  0  0  0  0  0
   41.3200   31.6700   39.4420 C   0  0  0  0  0  0  0  0  0  0  0  0
   41.7030   32.4720   38.3560 C   0  0  0  0  0  0  0  0  0  0  0  0
   41.9090   31.8850   37.1630 N   0  0  0  0  0  0  0  0  0  0  0  0
   41.7650   30.5510   36.9620 C   0  0  0  0  0  0  0  0  0  0  0  0
   41.4000   29.7570   37.9790 N   0  0  0  0  0  0  0  0  0  0  0  0
   39.4090   29.5170   40.5000 C   0  0  0  0  0  0  0  0  0  0  0  0
   38.7150   30.3650   39.8620 O   0  0  0  0  0  0  0  0  0  0  0  0
   40.7940   29.4010   40.2390 N   0  0  0  0  0  0  0  0  0  0  0  0
   38.6980   28.7410   41.4500 N   0  0  0  0  0  0  0  0  0  0  0  0
   37.3630   29.1060   41.9150 C   0  0  0  0  0  0  0  0  0  0  0  0
   37.4040   28.6550   43.3530 C   0  0  0  0  0  0  0  0  0  0  0  0
   38.6450   27.8370   43.5340 C   0  0  0  0  0  0  0  0  0  0  0  0
   39.0740   27.5030   42.1400 C   0  0  1  0  0  0  0  0  0  0  0  0
   41.1390   32.0710   40.4200 H   0  0  0  0  0  0  0  0  0  0  0  0
   41.9380   30.1080   35.9890 H   0  0  0  0  0  0  0  0  0  0  0  0
   41.3520   28.7420   40.7930 H   0  0  0  0  0  0  0  0  0  0  0  0
   36.5780   28.5070   41.3820 H   0  0  0  0  0  0  0  0  0  0  0  0
   37.1430   30.1670   41.7830 H   0  0  0  0  0  0  0  0  0  0  0  0
   37.5430   29.5990   43.9570 H   0  0  0  0  0  0  0  0  0  0  0  0
   36.4870   28.1560   43.6850 H   0  0  0  0  0  0  0  0  0  0  0  0
   39.4640   28.3850   44.0220 H   0  0  0  0  0  0  0  0  0  0  0  0
   38.4340   26.9140   44.1200 H   0  0  0  0  0  0  0  0  0  0  0  0
   40.1500   27.3260   42.0160 H   0  0  0  0  0  0  0  0  0  0  0  0
   38.2220   26.4470   41.5170 C   0  0  0  0  0  0  0  0  0  0  0  0
   37.6910   25.4350   42.2970 C   0  0  0  0  0  0  0  0  0  0  0  0
   37.9300   25.4620   43.3500 H   0  0  0  0  0  0  0  0  0  0  0  0
   36.8910   24.4030   41.8350 C   0  0  0  0  0  0  0  0  0  0  0  0
   36.5240   23.6560   42.5300 H   0  0  0  0  0  0  0  0  0  0  0  0
   36.6150   24.4150   40.4650 C   0  0  0  0  0  3  0  0  0  0  0  0
   37.1430   25.4250   39.6860 C   0  0  0  0  0  3  0  0  0  0  0  0
   37.9140   26.3980   40.1940 N   0  0  0  0  0  0  0  0  0  0  0  0
   41.8370   33.8960   38.6600 C   0  0  0  0  0  0  0  0  0  0  0  0
   40.6010   34.4050   39.0300 F   0  0  0  0  0  0  0  0  0  0  0  0
   42.1670   34.5350   37.4590 F   0  0  0  0  0  0  0  0  0  0  0  0
   42.7290   34.1740   39.6580 F   0  0  0  0  0  0  0  0  0  0  0  0
  1  2  1  0  0  0  0
  1  9  1  0  0  0  0
  2 15  1  0  0  0  0
  3 33  1  0  0  0  0
  3  2  2  0  0  0  0
  4  3  1  0  0  0  0
  5  4  2  0  0  0  0
  5  6  1  0  0  0  0
  6  1  2  0  0  0  0
  7 10  1  0  0  0  0
  8  7  2  0  0  0  0
  9  7  1  0  0  0  0
  9 17  1  0  0  0  0
 10 11  1  0  0  0  0
 10 14  1  0  0  0  0
 11 12  1  0  0  0  0
 12 13  1  0  0  0  0
 12 21  1  0  0  0  0
 12 20  1  0  0  0  0
 13 22  1  0  0  0  0
 13 23  1  0  0  0  0
 14 24  1  6  0  0  0
 14 13  1  0  0  0  0
 16  5  1  0  0  0  0
 18 11  1  0  0  0  0
 19 11  1  0  0  0  0
 25 14  1  0  0  0  0
 25 26  1  0  0  0  0
 26 27  1  0  0  0  0
 28 26  2  0  0  0  0
 28 29  1  0  0  0  0
 30 28  1  0  0  0  0
 31 32  1  0  0  0  0
 31 30  2  0  0  0  0
 32 25  2  0  0  0  0
 33 34  1  0  0  0  0
 33 36  1  0  0  0  0
 35 33  1  0  0  0  0
M  END
>  <minimizedAffinity>
-5.60297585

$$$$

 OpenBabel03252503303D

 36 38  0  0  1  0  0  0  0  0999 V2000
   36.7810   28.9140   36.4490 C   0  0  0  0  0  0  0  0  0  0  0  0
   36.9530   29.9640   35.5130 C   0  0  0  0  0  0  0  0  0  0  0  0
   35.9810   30.0680   34.5070 C   0  0  0  0  0  0  0  0  0  0  0  0
   34.9690   29.1820   34.4960 N   0  0  0  0  0  0  0  0  0  0  0  0
   34.8450   28.1920   35.4140 C   0  0  0  0  0  0  0  0  0  0  0  0
   35.7570   28.0650   36.3890 N   0  0  0  0  0  0  0  0  0  0  0  0
   37.5310   29.7130   38.5150 C   0  0  0  0  0  0  0  0  0  0  0  0
   36.6370   30.6000   38.3700 O   0  0  0  0  0  0  0  0  0  0  0  0
   37.7310   28.7440   37.5040 N   0  0  0  0  0  0  0  0  0  0  0  0
   38.2690   29.7840   39.7230 N   0  0  0  0  0  0  0  0  0  0  0  0
   38.2550   30.9680   40.5770 C   0  0  0  0  0  0  0  0  0  0  0  0
   39.6650   30.9780   41.1110 C   0  0  0  0  0  0  0  0  0  0  0  0
   40.2970   29.6720   40.7400 C   0  0  0  0  0  0  0  0  0  0  0  0
   39.1430   28.7980   40.3640 C   0  0  1  0  0  0  0  0  0  0  0  0
   37.7870   30.6360   35.5810 H   0  0  0  0  0  0  0  0  0  0  0  0
   34.0180   27.4940   35.3790 H   0  0  0  0  0  0  0  0  0  0  0  0
   38.4870   28.0580   37.6130 H   0  0  0  0  0  0  0  0  0  0  0  0
   37.5540   30.8280   41.4420 H   0  0  0  0  0  0  0  0  0  0  0  0
   37.9720   31.8750   40.0410 H   0  0  0  0  0  0  0  0  0  0  0  0
   40.2000   31.7810   40.5230 H   0  0  0  0  0  0  0  0  0  0  0  0
   39.7300   31.2200   42.1770 H   0  0  0  0  0  0  0  0  0  0  0  0
   40.9720   29.7430   39.8740 H   0  0  0  0  0  0  0  0  0  0  0  0
   40.8620   29.2430   41.5990 H   0  0  0  0  0  0  0  0  0  0  0  0
   39.3820   27.9990   39.6490 H   0  0  0  0  0  0  0  0  0  0  0  0
   38.3750   28.3220   41.5520 C   0  0  0  0  0  0  0  0  0  0  0  0
   39.0410   27.9500   42.7060 C   0  0  0  0  0  0  0  0  0  0  0  0
   40.1190   28.0250   42.6860 H   0  0  0  0  0  0  0  0  0  0  0  0
   38.4400   27.4940   43.8670 C   0  0  0  0  0  0  0  0  0  0  0  0
   39.0530   27.2270   44.7200 H   0  0  0  0  0  0  0  0  0  0  0  0
   37.0440   27.4150   43.8380 C   0  0  0  0  0  3  0  0  0  0  0  0
   36.3780   27.7860   42.6880 C   0  0  0  0  0  3  0  0  0  0  0  0
   37.0200   28.2210   41.5920 N   0  0  0  0  0  0  0  0  0  0  0  0
   36.1900   31.1630   33.5590 C   0  0  0  0  0  0  0  0  0  0  0  0
   36.9980   32.1280   34.1420 F   0  0  0  0  0  0  0  0  0  0  0  0
   34.9450   31.7730   33.3680 F   0  0  0  0  0  0  0  0  0  0  0  0
   36.7660   30.7780   32.3800 F   0  0  0  0  0  0  0  0  0  0  0  0
  1  9  1  0  0  0  0
  2 15  1  0  0  0  0
  2  1  2  0  0  0  0
  3  2  1  0  0  0  0
  4  3  2  0  0  0  0
  4  5  1  0  0  0  0
  5  6  2  0  0  0  0
  6  1  1  0  0  0  0
  7 10  1  0  0  0  0
  8  7  2  0  0  0  0
  9 17  1  0  0  0  0
  9  7  1  0  0  0  0
 10 14  1  0  0  0  0
 10 11  1  0  0  0  0
 11 12  1  0  0  0  0
 11 18  1  0  0  0  0
 12 21  1  0  0  0  0
 13 12  1  0  0  0  0
 13 23  1  0  0  0  0
 14 24  1  6  0  0  0
 14 13  1  0  0  0  0
 14 25  1  0  0  0  0
 16  5  1  0  0  0  0
 19 11  1  0  0  0  0
 20 12  1  0  0  0  0
 22 13  1  0  0  0  0
 25 32  2  0  0  0  0
 25 26  1  0  0  0  0
 26 28  2  0  0  0  0
 27 26  1  0  0  0  0
 28 29  1  0  0  0  0
 30 28  1  0  0  0  0
 31 30  2  0  0  0  0
 32 31  1  0  0  0  0
 33 34  1  0  0  0  0
 33  3  1  0  0  0  0
 35 33  1  0  0  0  0
 36 33  1  0  0  0  0
M  END
>  <minimizedAffinity>
-5.5715394

$$$$

 OpenBabel03252503303D

 36 38  0  0  1  0  0  0  0  0999 V2000
   40.1770   28.4200   42.0340 C   0  0  0  0  0  0  0  0  0  0  0  0
   38.8140   28.0440   41.9300 C   0  0  0  0  0  0  0  0  0  0  0  0
   38.3490   27.1220   42.8790 C   0  0  0  0  0  0  0  0  0  0  0  0
   39.2080   26.6640   43.8070 N   0  0  0  0  0  0  0  0  0  0  0  0
   40.5060   27.0530   43.8670 C   0  0  0  0  0  0  0  0  0  0  0  0
   40.9820   27.9330   42.9750 N   0  0  0  0  0  0  0  0  0  0  0  0
   40.3110   30.6720   41.4180 C   0  0  0  0  0  0  0  0  0  0  0  0
   39.5130   30.8680   42.3830 O   0  0  0  0  0  0  0  0  0  0  0  0
   40.7250   29.3570   41.1020 N   0  0  0  0  0  0  0  0  0  0  0  0
   40.7240   31.8370   40.7240 N   0  0  0  0  0  0  0  0  0  0  0  0
   40.0350   33.1170   40.8680 C   0  0  0  0  0  0  0  0  0  0  0  0
   40.1630   33.6920   39.4810 C   0  0  0  0  0  0  0  0  0  0  0  0
   41.1290   32.8350   38.7230 C   0  0  0  0  0  0  0  0  0  0  0  0
   41.8280   32.0430   39.7830 C   0  0  1  0  0  0  0  0  0  0  0  0
   38.1840   28.4510   41.1630 H   0  0  0  0  0  0  0  0  0  0  0  0
   41.1730   26.6650   44.6270 H   0  0  0  0  0  0  0  0  0  0  0  0
   41.3360   29.2080   40.2920 H   0  0  0  0  0  0  0  0  0  0  0  0
   40.5860   33.7890   41.5780 H   0  0  0  0  0  0  0  0  0  0  0  0
   39.0070   33.0090   41.2170 H   0  0  0  0  0  0  0  0  0  0  0  0
   39.1500   33.5460   39.0030 H   0  0  0  0  0  0  0  0  0  0  0  0
   40.4070   34.7600   39.4680 H   0  0  0  0  0  0  0  0  0  0  0  0
   40.6410   32.1300   38.0340 H   0  0  0  0  0  0  0  0  0  0  0  0
   41.8500   33.4580   38.1460 H   0  0  0  0  0  0  0  0  0  0  0  0
   42.2160   31.0700   39.4530 H   0  0  0  0  0  0  0  0  0  0  0  0
   42.8270   32.8560   40.5390 C   0  0  0  0  0  0  0  0  0  0  0  0
   43.6920   33.6970   39.8620 C   0  0  0  0  0  0  0  0  0  0  0  0
   43.5980   33.7210   38.7860 H   0  0  0  0  0  0  0  0  0  0  0  0
   44.6580   34.4960   40.4510 C   0  0  0  0  0  0  0  0  0  0  0  0
   45.2880   35.1220   39.8310 H   0  0  0  0  0  0  0  0  0  0  0  0
   44.7370   34.4250   41.8450 C   0  0  0  0  0  3  0  0  0  0  0  0
   43.8740   33.5880   42.5220 C   0  0  0  0  0  3  0  0  0  0  0  0
   42.9580   32.8360   41.8920 N   0  0  0  0  0  0  0  0  0  0  0  0
   36.9390   26.7570   42.7430 C   0  0  0  0  0  0  0  0  0  0  0  0
   36.4390   27.2840   41.5610 F   0  0  0  0  0  0  0  0  0  0  0  0
   36.2510   27.4110   43.7710 F   0  0  0  0  0  0  0  0  0  0  0  0
   36.7090   25.4090   42.7400 F   0  0  0  0  0  0  0  0  0  0  0  0
  1  6  1  0  0  0  0
  2  1  2  0  0  0  0
  2  3  1  0  0  0  0
  3  4  2  0  0  0  0
  4  5  1  0  0  0  0
  5 16  1  0  0  0  0
  6  5  2  0  0  0  0
  7  8  2  0  0  0  0
  9  7  1  0  0  0  0
  9  1  1  0  0  0  0
 10 11  1  0  0  0  0
 10  7  1  0  0  0  0
 11 19  1  0  0  0  0
 11 18  1  0  0  0  0
 12 11  1  0  0  0  0
 13 12  1  0  0  0  0
 13 14  1  0  0  0  0
 14 24  1  6  0  0  0
 14 25  1  0  0  0  0
 14 10  1  0  0  0  0
 15  2  1  0  0  0  0
 17  9  1  0  0  0  0
 20 12  1  0  0  0  0
 21 12  1  0  0  0  0
 22 13  1  0  0  0  0
 23 13  1  0  0  0  0
 25 32  1  0  0  0  0
 26 28  1  0  0  0  0
 26 25  2  0  0  0  0
 27 26  1  0  0  0  0
 28 30  2  0  0  0  0
 29 28  1  0  0  0  0
 30 31  1  0  0  0  0
 32 31  2  0  0  0  0
 33  3  1  0  0  0  0
 33 35  1  0  0  0  0
 34 33  1  0  0  0  0
 36 33  1  0  0  0  0
M  END
>  <minimizedAffinity>
-5.56265593

$$$$

 OpenBabel03252503303D

 36 38  0  0  1  0  0  0  0  0999 V2000
   39.3740   27.0510   40.2810 C   0  0  0  0  0  0  0  0  0  0  0  0
   38.1880   26.2980   40.4740 C   0  0  0  0  0  0  0  0  0  0  0  0
   38.3250   25.0890   41.1720 C   0  0  0  0  0  0  0  0  0  0  0  0
   39.5470   24.7300   41.6050 N   0  0  0  0  0  0  0  0  0  0  0  0
   40.6550   25.4840   41.3960 C   0  0  0  0  0  0  0  0  0  0  0  0
   40.5590   26.6450   40.7330 N   0  0  0  0  0  0  0  0  0  0  0  0
   38.7750   29.3080   40.4050 C   0  0  0  0  0  0  0  0  0  0  0  0
   38.3760   29.0220   41.5740 O   0  0  0  0  0  0  0  0  0  0  0  0
   39.3150   28.2950   39.5780 N   0  0  0  0  0  0  0  0  0  0  0  0
   38.6340   30.6680   40.0300 N   0  0  0  0  0  0  0  0  0  0  0  0
   37.7900   31.5990   40.7730 C   0  0  0  0  0  0  0  0  0  0  0  0
   37.2600   32.4790   39.6700 C   0  0  0  0  0  0  0  0  0  0  0  0
   38.0320   32.1610   38.4270 C   0  0  0  0  0  0  0  0  0  0  0  0
   39.2320   31.4150   38.9190 C   0  0  1  0  0  0  0  0  0  0  0  0
   37.2450   26.6450   40.1010 H   0  0  0  0  0  0  0  0  0  0  0  0
   41.6250   25.1670   41.7580 H   0  0  0  0  0  0  0  0  0  0  0  0
   39.5940   28.5300   38.6200 H   0  0  0  0  0  0  0  0  0  0  0  0
   38.4080   32.2340   41.4610 H   0  0  0  0  0  0  0  0  0  0  0  0
   37.0180   31.0980   41.3580 H   0  0  0  0  0  0  0  0  0  0  0  0
   36.1990   32.1320   39.4950 H   0  0  0  0  0  0  0  0  0  0  0  0
   37.2430   33.5440   39.9260 H   0  0  0  0  0  0  0  0  0  0  0  0
   37.4870   31.5120   37.7270 H   0  0  0  0  0  0  0  0  0  0  0  0
   38.3300   33.0920   37.8920 H   0  0  0  0  0  0  0  0  0  0  0  0
   39.6680   30.7130   38.1970 H   0  0  0  0  0  0  0  0  0  0  0  0
   40.2390   32.3110   39.5610 C   0  0  0  0  0  0  0  0  0  0  0  0
   40.4020   33.6080   39.1090 C   0  0  0  0  0  0  0  0  0  0  0  0
   39.7720   33.9150   38.2860 H   0  0  0  0  0  0  0  0  0  0  0  0
   41.3010   34.5280   39.6220 C   0  0  0  0  0  0  0  0  0  0  0  0
   41.3520   35.5240   39.1960 H   0  0  0  0  0  0  0  0  0  0  0  0
   42.0920   34.0790   40.6840 C   0  0  0  0  0  3  0  0  0  0  0  0
   41.9290   32.7850   41.1370 C   0  0  0  0  0  3  0  0  0  0  0  0
   41.0390   31.9390   40.5960 N   0  0  0  0  0  0  0  0  0  0  0  0
   37.0820   24.3380   41.3530 C   0  0  0  0  0  0  0  0  0  0  0  0
   37.3460   22.9810   41.2460 F   0  0  0  0  0  0  0  0  0  0  0  0
   36.2600   24.6530   40.2650 F   0  0  0  0  0  0  0  0  0  0  0  0
   36.4650   24.5610   42.5520 F   0  0  0  0  0  0  0  0  0  0  0  0
  1  2  2  0  0  0  0
  1  6  1  0  0  0  0
  2  3  1  0  0  0  0
  3 33  1  0  0  0  0
  3  4  2  0  0  0  0
  5  4  1  0  0  0  0
  5 16  1  0  0  0  0
  6  5  2  0  0  0  0
  7  8  2  0  0  0  0
  9  1  1  0  0  0  0
  9  7  1  0  0  0  0
 10  7  1  0  0  0  0
 10 11  1  0  0  0  0
 11 19  1  0  0  0  0
 11 18  1  0  0  0  0
 12 21  1  0  0  0  0
 12 11  1  0  0  0  0
 13 14  1  0  0  0  0
 13 12  1  0  0  0  0
 14 24  1  6  0  0  0
 14 25  1  0  0  0  0
 14 10  1  0  0  0  0
 15  2  1  0  0  0  0
 17  9  1  0  0  0  0
 20 12  1  0  0  0  0
 22 13  1  0  0  0  0
 23 13  1  0  0  0  0
 25 32  1  0  0  0  0
 26 25  2  0  0  0  0
 26 28  1  0  0  0  0
 27 26  1  0  0  0  0
 28 30  2  0  0  0  0
 29 28  1  0  0  0  0
 30 31  1  0  0  0  0
 32 31  2  0  0  0  0
 33 36  1  0  0  0  0
 34 33  1  0  0  0  0
 35 33  1  0  0  0  0
M  END
>  <minimizedAffinity>
-5.46432114

$$$$

 OpenBabel03252503303D

 36 38  0  0  1  0  0  0  0  0999 V2000
   36.8080   28.6600   37.9850 C   0  0  0  0  0  0  0  0  0  0  0  0
   35.4290   28.9070   37.7660 C   0  0  0  0  0  0  0  0  0  0  0  0
   34.9550   28.6810   36.4650 C   0  0  0  0  0  0  0  0  0  0  0  0
   35.8220   28.2520   35.5290 N   0  0  0  0  0  0  0  0  0  0  0  0
   37.1350   28.0300   35.7870 C   0  0  0  0  0  0  0  0  0  0  0  0
   37.6200   28.2360   37.0200 N   0  0  0  0  0  0  0  0  0  0  0  0
   37.0090   27.8080   40.1540 C   0  0  0  0  0  0  0  0  0  0  0  0
   36.2470   26.8840   39.7420 O   0  0  0  0  0  0  0  0  0  0  0  0
   37.3650   28.8680   39.2860 N   0  0  0  0  0  0  0  0  0  0  0  0
   37.4470   27.6830   41.4970 N   0  0  0  0  0  0  0  0  0  0  0  0
   36.8120   26.7700   42.4430 C   0  0  0  0  0  0  0  0  0  0  0  0
   36.9220   27.5390   43.7340 C   0  0  0  0  0  0  0  0  0  0  0  0
   37.8340   28.7020   43.4900 C   0  0  0  0  0  0  0  0  0  0  0  0
   38.5320   28.3620   42.2110 C   0  0  1  0  0  0  0  0  0  0  0  0
   34.7940   29.2480   38.5600 H   0  0  0  0  0  0  0  0  0  0  0  0
   37.8080   27.6840   35.0120 H   0  0  0  0  0  0  0  0  0  0  0  0
   37.9470   29.6320   39.6450 H   0  0  0  0  0  0  0  0  0  0  0  0
   37.4070   25.8250   42.5460 H   0  0  0  0  0  0  0  0  0  0  0  0
   35.7900   26.5100   42.1610 H   0  0  0  0  0  0  0  0  0  0  0  0
   35.8910   27.9640   43.9170 H   0  0  0  0  0  0  0  0  0  0  0  0
   37.2060   26.9210   44.5920 H   0  0  0  0  0  0  0  0  0  0  0  0
   37.3010   29.6540   43.3480 H   0  0  0  0  0  0  0  0  0  0  0  0
   38.5620   28.8220   44.3250 H   0  0  0  0  0  0  0  0  0  0  0  0
   38.8730   29.2260   41.6260 H   0  0  0  0  0  0  0  0  0  0  0  0
   39.5810   27.3150   42.3940 C   0  0  0  0  0  0  0  0  0  0  0  0
   40.2880   27.2410   43.5800 C   0  0  0  0  0  0  0  0  0  0  0  0
   40.0370   27.9690   44.3380 H   0  0  0  0  0  0  0  0  0  0  0  0
   41.2810   26.3180   43.8650 C   0  0  0  0  0  0  0  0  0  0  0  0
   41.7770   26.3430   44.8290 H   0  0  0  0  0  0  0  0  0  0  0  0
   41.5670   25.4000   42.8500 C   0  0  0  0  0  3  0  0  0  0  0  0
   40.8620   25.4730   41.6660 C   0  0  0  0  0  3  0  0  0  0  0  0
   39.9090   26.3930   41.4500 N   0  0  0  0  0  0  0  0  0  0  0  0
   33.5300   28.9450   36.2740 C   0  0  0  0  0  0  0  0  0  0  0  0
   32.8700   27.7520   36.0210 F   0  0  0  0  0  0  0  0  0  0  0  0
   33.4140   29.7000   35.1010 F   0  0  0  0  0  0  0  0  0  0  0  0
   32.9250   29.5490   37.3420 F   0  0  0  0  0  0  0  0  0  0  0  0
  1  9  1  0  0  0  0
  2  1  1  0  0  0  0
  2 15  1  0  0  0  0
  3  2  2  0  0  0  0
  4  5  2  0  0  0  0
  4  3  1  0  0  0  0
  5  6  1  0  0  0  0
  6  1  2  0  0  0  0
  7 10  1  0  0  0  0
  8  7  2  0  0  0  0
  9 17  1  0  0  0  0
  9  7  1  0  0  0  0
 10 14  1  0  0  0  0
 10 11  1  0  0  0  0
 11 18  1  0  0  0  0
 11 12  1  0  0  0  0
 12 20  1  0  0  0  0
 12 21  1  0  0  0  0
 13 12  1  0  0  0  0
 13 23  1  0  0  0  0
 14 24  1  6  0  0  0
 14 25  1  0  0  0  0
 14 13  1  0  0  0  0
 16  5  1  0  0  0  0
 19 11  1  0  0  0  0
 22 13  1  0  0  0  0
 25 26  1  0  0  0  0
 26 28  2  0  0  0  0
 26 27  1  0  0  0  0
 28 29  1  0  0  0  0
 30 28  1  0  0  0  0
 31 30  2  0  0  0  0
 32 31  1  0  0  0  0
 32 25  2  0  0  0  0
 33  3  1  0  0  0  0
 33 36  1  0  0  0  0
 34 33  1  0  0  0  0
 35 33  1  0  0  0  0
M  END
>  <minimizedAffinity>
-5.43523264

$$$$

 OpenBabel03252503303D

 36 38  0  0  1  0  0  0  0  0999 V2000
   38.2670   27.2530   39.4160 C   0  0  0  0  0  0  0  0  0  0  0  0
   37.5930   26.7130   40.5400 C   0  0  0  0  0  0  0  0  0  0  0  0
   37.7400   25.3350   40.7520 C   0  0  0  0  0  0  0  0  0  0  0  0
   38.4970   24.6290   39.8920 N   0  0  0  0  0  0  0  0  0  0  0  0
   39.1240   25.1900   38.8280 C   0  0  0  0  0  0  0  0  0  0  0  0
   39.0040   26.5050   38.5980 N   0  0  0  0  0  0  0  0  0  0  0  0
   38.9820   29.3970   40.0170 C   0  0  0  0  0  0  0  0  0  0  0  0
   39.6280   28.8040   40.9320 O   0  0  0  0  0  0  0  0  0  0  0  0
   38.1650   28.6520   39.1350 N   0  0  0  0  0  0  0  0  0  0  0  0
   39.1510   30.8040   39.9670 N   0  0  0  0  0  0  0  0  0  0  0  0
   39.7320   31.5600   41.0730 C   0  0  0  0  0  0  0  0  0  0  0  0
   38.9540   32.8490   41.0060 C   0  0  0  0  0  0  0  0  0  0  0  0
   38.1800   32.8440   39.7240 C   0  0  0  0  0  0  0  0  0  0  0  0
   38.8220   31.7650   38.9100 C   0  0  1  0  0  0  0  0  0  0  0  0
   37.0050   27.3370   41.1850 H   0  0  0  0  0  0  0  0  0  0  0  0
   39.7270   24.5940   38.1540 H   0  0  0  0  0  0  0  0  0  0  0  0
   37.6140   29.1480   38.4270 H   0  0  0  0  0  0  0  0  0  0  0  0
   40.8120   31.7920   40.8730 H   0  0  0  0  0  0  0  0  0  0  0  0
   39.6570   31.0390   42.0290 H   0  0  0  0  0  0  0  0  0  0  0  0
   38.2000   32.7860   41.8450 H   0  0  0  0  0  0  0  0  0  0  0  0
   39.5690   33.7440   41.1540 H   0  0  0  0  0  0  0  0  0  0  0  0
   37.1180   32.5890   39.8550 H   0  0  0  0  0  0  0  0  0  0  0  0
   38.2500   33.8300   39.2100 H   0  0  0  0  0  0  0  0  0  0  0  0
   38.1640   31.2890   38.1720 H   0  0  0  0  0  0  0  0  0  0  0  0
   40.1420   32.1810   38.3500 C   0  0  0  0  0  0  0  0  0  0  0  0
   40.9050   31.2800   37.6290 C   0  0  0  0  0  0  0  0  0  0  0  0
   40.4930   30.2880   37.5070 H   0  0  0  0  0  0  0  0  0  0  0  0
   42.1400   31.5480   37.0630 C   0  0  0  0  0  0  0  0  0  0  0  0
   42.6600   30.7700   36.5160 H   0  0  0  0  0  0  0  0  0  0  0  0
   42.6270   32.8440   37.2530 C   0  0  0  0  0  3  0  0  0  0  0  0
   41.8670   33.7450   37.9710 C   0  0  0  0  0  3  0  0  0  0  0  0
   40.6740   33.4240   38.4960 N   0  0  0  0  0  0  0  0  0  0  0  0
   37.0310   24.8110   41.9190 C   0  0  0  0  0  0  0  0  0  0  0  0
   37.8720   23.9640   42.6260 F   0  0  0  0  0  0  0  0  0  0  0  0
   35.9970   24.0030   41.4340 F   0  0  0  0  0  0  0  0  0  0  0  0
   36.5780   25.7760   42.7760 F   0  0  0  0  0  0  0  0  0  0  0  0
  1  2  1  0  0  0  0
  2  3  2  0  0  0  0
  2 15  1  0  0  0  0
  3 33  1  0  0  0  0
  4  3  1  0  0  0  0
  5  4  2  0  0  0  0
  6  5  1  0  0  0  0
  6  1  2  0  0  0  0
  7  8  2  0  0  0  0
  9  1  1  0  0  0  0
  9  7  1  0  0  0  0
 10  7  1  0  0  0  0
 10 11  1  0  0  0  0
 11 19  1  0  0  0  0
 12 11  1  0  0  0  0
 12 21  1  0  0  0  0
 12 20  1  0  0  0  0
 13 22  1  0  0  0  0
 13 12  1  0  0  0  0
 14 24  1  6  0  0  0
 14 13  1  0  0  0  0
 14 10  1  0  0  0  0
 16  5  1  0  0  0  0
 17  9  1  0  0  0  0
 18 11  1  0  0  0  0
 23 13  1  0  0  0  0
 25 32  1  0  0  0  0
 25 14  1  0  0  0  0
 26 25  2  0  0  0  0
 27 26  1  0  0  0  0
 28 30  2  0  0  0  0
 28 26  1  0  0  0  0
 29 28  1  0  0  0  0
 30 31  1  0  0  0  0
 31 32  2  0  0  0  0
 33 34  1  0  0  0  0
 33 36  1  0  0  0  0
 35 33  1  0  0  0  0
M  END
>  <minimizedAffinity>
-5.40555

$$$$

 OpenBabel03252503303D

 36 38  0  0  1  0  0  0  0  0999 V2000
   38.7680   30.1180   39.0830 C   0  0  0  0  0  0  0  0  0  0  0  0
   39.0180   31.3160   39.7990 C   0  0  0  0  0  0  0  0  0  0  0  0
   38.4760   32.4900   39.2580 C   0  0  0  0  0  0  0  0  0  0  0  0
   37.7680   32.4060   38.1170 N   0  0  0  0  0  0  0  0  0  0  0  0
   37.5540   31.2360   37.4650 C   0  0  0  0  0  0  0  0  0  0  0  0
   38.0590   30.0950   37.9570 N   0  0  0  0  0  0  0  0  0  0  0  0
   38.5210   28.4160   40.6670 C   0  0  0  0  0  0  0  0  0  0  0  0
   37.5610   29.1180   41.1060 O   0  0  0  0  0  0  0  0  0  0  0  0
   39.2890   28.8800   39.5730 N   0  0  0  0  0  0  0  0  0  0  0  0
   38.7390   27.1900   41.3450 N   0  0  0  0  0  0  0  0  0  0  0  0
   38.1470   26.9030   42.6490 C   0  0  0  0  0  0  0  0  0  0  0  0
   39.2290   26.0810   43.3020 C   0  0  0  0  0  0  0  0  0  0  0  0
   40.2340   25.7370   42.2470 C   0  0  0  0  0  0  0  0  0  0  0  0
   39.5270   26.0160   40.9590 C   0  0  1  0  0  0  0  0  0  0  0  0
   39.5930   31.3100   40.7050 H   0  0  0  0  0  0  0  0  0  0  0  0
   36.9790   31.2010   36.5490 H   0  0  0  0  0  0  0  0  0  0  0  0
   40.0900   28.3240   39.2560 H   0  0  0  0  0  0  0  0  0  0  0  0
   37.2350   26.2590   42.5400 H   0  0  0  0  0  0  0  0  0  0  0  0
   37.8750   27.8050   43.1990 H   0  0  0  0  0  0  0  0  0  0  0  0
   39.7390   26.7820   44.0260 H   0  0  0  0  0  0  0  0  0  0  0  0
   38.8490   25.2160   43.8580 H   0  0  0  0  0  0  0  0  0  0  0  0
   41.1390   26.3620   42.2850 H   0  0  0  0  0  0  0  0  0  0  0  0
   40.5360   24.6670   42.3150 H   0  0  0  0  0  0  0  0  0  0  0  0
   40.1830   26.2750   40.1170 H   0  0  0  0  0  0  0  0  0  0  0  0
   38.5150   24.9710   40.6240 C   0  0  0  0  0  0  0  0  0  0  0  0
   38.8270   23.6310   40.7690 C   0  0  0  0  0  0  0  0  0  0  0  0
   39.8200   23.4040   41.1280 H   0  0  0  0  0  0  0  0  0  0  0  0
   37.9750   22.5750   40.4910 C   0  0  0  0  0  0  0  0  0  0  0  0
   38.3160   21.5570   40.6390 H   0  0  0  0  0  0  0  0  0  0  0  0
   36.7030   22.9260   40.0290 C   0  0  0  0  0  3  0  0  0  0  0  0
   36.3900   24.2620   39.8840 C   0  0  0  0  0  3  0  0  0  0  0  0
   37.2620   25.2410   40.1700 N   0  0  0  0  0  0  0  0  0  0  0  0
   38.7530   33.7070   40.0220 C   0  0  0  0  0  0  0  0  0  0  0  0
   38.8220   33.3960   41.3720 F   0  0  0  0  0  0  0  0  0  0  0  0
   37.6350   34.5360   39.8790 F   0  0  0  0  0  0  0  0  0  0  0  0
   39.9140   34.3360   39.6680 F   0  0  0  0  0  0  0  0  0  0  0  0
  1  9  1  0  0  0  0
  1  2  1  0  0  0  0
  2 15  1  0  0  0  0
  3  2  2  0  0  0  0
  3 33  1  0  0  0  0
  4  3  1  0  0  0  0
  5  6  1  0  0  0  0
  5  4  2  0  0  0  0
  6  1  2  0  0  0  0
  7  8  2  0  0  0  0
  7 10  1  0  0  0  0
  9  7  1  0  0  0  0
 10 11  1  0  0  0  0
 11 19  1  0  0  0  0
 11 12  1  0  0  0  0
 12 21  1  0  0  0  0
 12 20  1  0  0  0  0
 13 22  1  0  0  0  0
 13 23  1  0  0  0  0
 13 12  1  0  0  0  0
 14 24  1  6  0  0  0
 14 10  1  0  0  0  0
 14 13  1  0  0  0  0
 16  5  1  0  0  0  0
 17  9  1  0  0  0  0
 18 11  1  0  0  0  0
 25 26  1  0  0  0  0
 25 14  1  0  0  0  0
 26 27  1  0  0  0  0
 28 29  1  0  0  0  0
 28 26  2  0  0  0  0
 30 28  1  0  0  0  0
 31 30  2  0  0  0  0
 31 32  1  0  0  0  0
 32 25  2  0  0  0  0
 33 34  1  0  0  0  0
 35 33  1  0  0  0  0
 36 33  1  0  0  0  0
M  END
>  <minimizedAffinity>
-5.35979557

$$$$

 OpenBabel03252503303D

 36 38  0  0  1  0  0  0  0  0999 V2000
   42.3610   32.3060   40.6900 C   0  0  0  0  0  0  0  0  0  0  0  0
   42.7690   32.9720   39.5060 C   0  0  0  0  0  0  0  0  0  0  0  0
   44.1520   33.0730   39.2930 C   0  0  0  0  0  0  0  0  0  0  0  0
   44.9840   32.5420   40.2080 N   0  0  0  0  0  0  0  0  0  0  0  0
   44.5470   31.9130   41.3270 C   0  0  0  0  0  0  0  0  0  0  0  0
   43.2310   31.8000   41.5600 N   0  0  0  0  0  0  0  0  0  0  0  0
   40.3970   31.1460   40.1750 C   0  0  0  0  0  0  0  0  0  0  0  0
   41.1080   30.5490   39.3120 O   0  0  0  0  0  0  0  0  0  0  0  0
   40.9670   32.1640   40.9750 N   0  0  0  0  0  0  0  0  0  0  0  0
   39.0480   30.7170   40.2530 N   0  0  0  0  0  0  0  0  0  0  0  0
   38.4230   29.9090   39.2100 C   0  0  0  0  0  0  0  0  0  0  0  0
   37.0090   30.4290   39.2230 C   0  0  0  0  0  0  0  0  0  0  0  0
   36.8590   31.2980   40.4330 C   0  0  0  0  0  0  0  0  0  0  0  0
   38.0350   30.9460   41.2880 C   0  0  1  0  0  0  0  0  0  0  0  0
   42.0490   33.3720   38.8190 H   0  0  0  0  0  0  0  0  0  0  0  0
   45.2420   31.4960   42.0440 H   0  0  0  0  0  0  0  0  0  0  0  0
   40.3700   32.6690   41.6390 H   0  0  0  0  0  0  0  0  0  0  0  0
   38.4010   28.8260   39.5040 H   0  0  0  0  0  0  0  0  0  0  0  0
   38.9260   29.9990   38.2450 H   0  0  0  0  0  0  0  0  0  0  0  0
   36.9320   31.1060   38.3220 H   0  0  0  0  0  0  0  0  0  0  0  0
   36.2500   29.6440   39.1380 H   0  0  0  0  0  0  0  0  0  0  0  0
   36.9070   32.3730   40.2090 H   0  0  0  0  0  0  0  0  0  0  0  0
   35.9010   31.0860   40.9620 H   0  0  0  0  0  0  0  0  0  0  0  0
   38.3720   31.7440   41.9620 H   0  0  0  0  0  0  0  0  0  0  0  0
   37.8760   29.6250   41.9640 C   0  0  0  0  0  0  0  0  0  0  0  0
   38.9630   29.0170   42.5650 C   0  0  0  0  0  0  0  0  0  0  0  0
   39.9030   29.5470   42.5100 H   0  0  0  0  0  0  0  0  0  0  0  0
   38.9400   27.7960   43.2200 C   0  0  0  0  0  0  0  0  0  0  0  0
   39.8500   27.4050   43.6590 H   0  0  0  0  0  0  0  0  0  0  0  0
   37.6990   27.1530   43.2600 C   0  0  0  0  0  3  0  0  0  0  0  0
   36.6130   27.7580   42.6620 C   0  0  0  0  0  3  0  0  0  0  0  0
   36.7010   28.9450   42.0410 N   0  0  0  0  0  0  0  0  0  0  0  0
   44.5370   33.7650   38.0640 C   0  0  0  0  0  0  0  0  0  0  0  0
   44.9610   32.8350   37.1260 F   0  0  0  0  0  0  0  0  0  0  0  0
   45.6640   34.5350   38.3720 F   0  0  0  0  0  0  0  0  0  0  0  0
   43.5360   34.5090   37.5040 F   0  0  0  0  0  0  0  0  0  0  0  0
  1  9  1  0  0  0  0
  1  6  1  0  0  0  0
  2  1  2  0  0  0  0
  3  2  1  0  0  0  0
  3  4  2  0  0  0  0
  4  5  1  0  0  0  0
  5  6  2  0  0  0  0
  5 16  1  0  0  0  0
  7 10  1  0  0  0  0
  7  9  1  0  0  0  0
  8  7  2  0  0  0  0
  9 17  1  0  0  0  0
 10 14  1  0  0  0  0
 11 12  1  0  0  0  0
 11 18  1  0  0  0  0
 11 10  1  0  0  0  0
 12 13  1  0  0  0  0
 13 23  1  0  0  0  0
 13 14  1  0  0  0  0
 14 24  1  1  0  0  0
 14 25  1  0  0  0  0
 15  2  1  0  0  0  0
 19 11  1  0  0  0  0
 20 12  1  0  0  0  0
 21 12  1  0  0  0  0
 22 13  1  0  0  0  0
 25 32  2  0  0  0  0
 25 26  1  0  0  0  0
 26 28  2  0  0  0  0
 27 26  1  0  0  0  0
 28 30  1  0  0  0  0
 28 29  1  0  0  0  0
 31 30  2  0  0  0  0
 32 31  1  0  0  0  0
 33 35  1  0  0  0  0
 33  3  1  0  0  0  0
 34 33  1  0  0  0  0
 36 33  1  0  0  0  0
M  END
>  <minimizedAffinity>
-5.32017469

$$$$

 OpenBabel03252503303D

 36 38  0  0  1  0  0  0  0  0999 V2000
   38.2190   30.5000   37.9950 C   0  0  0  0  0  0  0  0  0  0  0  0
   37.2790   30.5460   39.0550 C   0  0  0  0  0  0  0  0  0  0  0  0
   36.4070   29.4520   39.1620 C   0  0  0  0  0  0  0  0  0  0  0  0
   36.5190   28.4510   38.2710 N   0  0  0  0  0  0  0  0  0  0  0  0
   37.4360   28.4500   37.2720 C   0  0  0  0  0  0  0  0  0  0  0  0
   38.2840   29.4810   37.1420 N   0  0  0  0  0  0  0  0  0  0  0  0
   40.1790   31.5060   38.7810 C   0  0  0  0  0  0  0  0  0  0  0  0
   40.1580   30.5970   39.6640 O   0  0  0  0  0  0  0  0  0  0  0  0
   39.1420   31.5790   37.8210 N   0  0  0  0  0  0  0  0  0  0  0  0
   41.2830   32.3930   38.8460 N   0  0  0  0  0  0  0  0  0  0  0  0
   42.1430   32.4850   40.0220 C   0  0  0  0  0  0  0  0  0  0  0  0
   42.4910   33.9510   40.0350 C   0  0  0  0  0  0  0  0  0  0  0  0
   42.0300   34.5360   38.7360 C   0  0  0  0  0  0  0  0  0  0  0  0
   41.7970   33.3470   37.8580 C   0  0  1  0  0  0  0  0  0  0  0  0
   37.2460   31.3790   39.7310 H   0  0  0  0  0  0  0  0  0  0  0  0
   37.5010   27.6280   36.5700 H   0  0  0  0  0  0  0  0  0  0  0  0
   39.1470   32.3450   37.1390 H   0  0  0  0  0  0  0  0  0  0  0  0
   43.0890   31.9010   39.8710 H   0  0  0  0  0  0  0  0  0  0  0  0
   41.6560   32.1310   40.9320 H   0  0  0  0  0  0  0  0  0  0  0  0
   41.8470   34.4030   40.8460 H   0  0  0  0  0  0  0  0  0  0  0  0
   43.5420   34.1520   40.2690 H   0  0  0  0  0  0  0  0  0  0  0  0
   41.0850   35.0930   38.8180 H   0  0  0  0  0  0  0  0  0  0  0  0
   42.8050   35.2090   38.3030 H   0  0  0  0  0  0  0  0  0  0  0  0
   41.0500   33.4950   37.0670 H   0  0  0  0  0  0  0  0  0  0  0  0
   43.0690   32.7400   37.3680 C   0  0  0  0  0  0  0  0  0  0  0  0
   44.2490   33.4600   37.4250 C   0  0  0  0  0  0  0  0  0  0  0  0
   44.1850   34.4590   37.8340 H   0  0  0  0  0  0  0  0  0  0  0  0
   45.4870   33.0060   37.0010 C   0  0  0  0  0  0  0  0  0  0  0  0
   46.3540   33.6500   37.0890 H   0  0  0  0  0  0  0  0  0  0  0  0
   45.5120   31.7090   36.4800 C   0  0  0  0  0  3  0  0  0  0  0  0
   44.3370   30.9890   36.4240 C   0  0  0  0  0  3  0  0  0  0  0  0
   43.1660   31.4860   36.8510 N   0  0  0  0  0  0  0  0  0  0  0  0
   35.4510   29.5330   40.2660 C   0  0  0  0  0  0  0  0  0  0  0  0
   35.6890   28.4980   41.1580 F   0  0  0  0  0  0  0  0  0  0  0  0
   34.1860   29.2820   39.7210 F   0  0  0  0  0  0  0  0  0  0  0  0
   35.4930   30.7110   40.9580 F   0  0  0  0  0  0  0  0  0  0  0  0
  1  2  1  0  0  0  0
  2  3  2  0  0  0  0
  2 15  1  0  0  0  0
  3 33  1  0  0  0  0
  4  3  1  0  0  0  0
  5  4  2  0  0  0  0
  6  5  1  0  0  0  0
  6  1  2  0  0  0  0
  7 10  1  0  0  0  0
  7  8  2  0  0  0  0
  9  1  1  0  0  0  0
  9  7  1  0  0  0  0
 10 11  1  0  0  0  0
 11 12  1  0  0  0  0
 11 19  1  0  0  0  0
 12 21  1  0  0  0  0
 12 20  1  0  0  0  0
 13 22  1  0  0  0  0
 13 12  1  0  0  0  0
 14 24  1  6  0  0  0
 14 13  1  0  0  0  0
 14 10  1  0  0  0  0
 16  5  1  0  0  0  0
 17  9  1  0  0  0  0
 18 11  1  0  0  0  0
 23 13  1  0  0  0  0
 25 26  1  0  0  0  0
 25 14  1  0  0  0  0
 26 27  1  0  0  0  0
 28 29  1  0  0  0  0
 28 26  2  0  0  0  0
 30 28  1  0  0  0  0
 31 30  2  0  0  0  0
 31 32  1  0  0  0  0
 32 25  2  0  0  0  0
 33 36  1  0  0  0  0
 33 34  1  0  0  0  0
 35 33  1  0  0  0  0
M  END
>  <minimizedAffinity>
-5.31387377

$$$$
