
 OpenBabel03252504143D

 34 36  0  0  0  0  0  0  0  0999 V2000
   47.1860   29.8780   45.0550 F   0  0  0  0  0  0  0  0  0  0  0  0
   47.2390   30.6980   46.1370 C   0  0  0  0  0  0  0  0  0  0  0  0
   46.8750   32.0150   46.0010 C   0  0  0  0  0  0  0  0  0  0  0  0
   46.9480   32.8170   47.1450 C   0  0  0  0  0  0  0  0  0  0  0  0
   47.3670   32.2910   48.3380 C   0  0  0  0  0  0  0  0  0  0  0  0
   47.7220   30.9560   48.4170 C   0  0  0  0  0  0  0  0  0  0  0  0
   47.6630   30.1180   47.2960 C   0  0  0  0  0  0  0  0  0  0  0  0
   46.6690   33.8590   47.0730 H   0  0  0  0  0  0  0  0  0  0  0  0
   47.4090   32.9450   49.1960 H   0  0  0  0  0  0  0  0  0  0  0  0
   48.0360   30.6500   49.4050 H   0  0  0  0  0  0  0  0  0  0  0  0
   48.0670   28.7500   47.5360 C   0  0  0  0  0  0  0  0  0  0  0  0
   47.3350   27.6000   47.3730 C   0  0  0  0  0  0  0  0  0  0  0  0
   46.3280   27.6960   47.0210 H   0  0  0  0  0  0  0  0  0  0  0  0
   47.7600   26.3280   47.6130 C   0  0  0  0  0  0  0  0  0  0  0  0
   47.1120   25.4750   47.4560 H   0  0  0  0  0  0  0  0  0  0  0  0
   49.0370   26.1270   48.0640 C   0  0  0  0  0  0  0  0  0  0  0  0
   49.7760   27.2730   48.2310 C   0  0  0  0  0  0  0  0  0  0  0  0
   49.3100   28.5080   47.9790 N   0  0  0  0  0  0  0  0  0  0  0  0
   46.7730   34.0930   43.0000 C   0  0  0  0  0  0  0  0  0  0  0  0
   45.6480   33.6480   42.3180 C   0  0  0  0  0  0  0  0  0  0  0  0
   44.9070   32.6110   42.9060 C   0  0  0  0  0  0  0  0  0  0  0  0
   45.3180   32.1040   44.0900 N   0  0  0  0  0  0  0  0  0  0  0  0
   46.4280   32.5740   44.7200 C   0  0  0  0  0  0  0  0  0  0  0  0
   47.1540   33.5680   44.1720 N   0  0  0  0  0  0  0  0  0  0  0  0
   44.0440   32.2630   42.3930 H   0  0  0  0  0  0  0  0  0  0  0  0
   45.2790   34.2630   41.0290 C   0  0  0  0  0  0  0  0  0  0  0  0
   44.9810   35.5970   41.2120 F   0  0  0  0  0  0  0  0  0  0  0  0
   46.4010   34.2210   40.1970 F   0  0  0  0  0  0  0  0  0  0  0  0
   44.2470   33.6670   40.3810 F   0  0  0  0  0  0  0  0  0  0  0  0
   47.4870   35.0970   42.4250 O   0  0  0  0  0  0  0  0  0  0  0  0
   48.8110   35.0190   41.9300 C   0  0  0  0  0  0  0  0  0  0  0  0
   49.6550   35.3170   43.0110 F   0  0  0  0  0  0  0  0  0  0  0  0
   49.0350   33.7920   41.3830 F   0  0  0  0  0  0  0  0  0  0  0  0
   49.0220   36.0540   41.0420 F   0  0  0  0  0  0  0  0  0  0  0  0
  1  2  1  0  0  0  0
  2  7  1  0  0  0  0
  3  2  2  0  0  0  0
  3  4  1  0  0  0  0
  4  5  2  0  0  0  0
  5  6  1  0  0  0  0
  5  9  1  0  0  0  0
  6 10  1  0  0  0  0
  7 11  1  0  0  0  0
  7  6  2  0  0  0  0
  8  4  1  0  0  0  0
 11 18  1  0  0  0  0
 12 11  2  0  0  0  0
 12 14  1  0  0  0  0
 13 12  1  0  0  0  0
 14 16  2  0  0  0  0
 15 14  1  0  0  0  0
 16 17  1  0  0  0  0
 18 17  2  0  0  0  0
 19 24  1  0  0  0  0
 20 21  1  0  0  0  0
 20 19  2  0  0  0  0
 21 22  2  0  0  0  0
 22 23  1  0  0  0  0
 23  3  1  0  0  0  0
 24 23  2  0  0  0  0
 25 21  1  0  0  0  0
 26 27  1  0  0  0  0
 26 20  1  0  0  0  0
 28 26  1  0  0  0  0
 29 26  1  0  0  0  0
 30 19  1  0  0  0  0
 31 30  1  0  0  0  0
 31 32  1  0  0  0  0
 33 31  1  0  0  0  0
 34 31  1  0  0  0  0
M  END
>  <minimizedAffinity>
-5.67113495

>  <minimizedRMSD>
0.5320158

$$$$
