
 OpenBabel03252508143D

 36 39  0  0  1  0  0  0  0  0999 V2000
   46.1740   30.8750   46.8810 C   0  0  0  0  0  0  0  0  0  0  0  0
   47.1780   30.4440   46.8650 H   0  0  0  0  0  0  0  0  0  0  0  0
   45.3790   30.1120   46.7600 H   0  0  0  0  0  0  0  0  0  0  0  0
   45.9670   31.5170   48.2330 C   0  0  1  0  0  0  0  0  0  0  0  0
   45.7250   30.5970   49.3770 C   0  0  0  0  0  0  0  0  0  0  0  0
   46.9790   31.3200   49.2940 C   0  0  1  0  0  0  0  0  0  0  0  0
   45.4140   32.4740   48.2350 H   0  0  0  0  0  0  0  0  0  0  0  0
   44.9690   30.9220   50.1440 H   0  0  0  0  0  0  0  0  0  0  0  0
   45.6390   29.4960   49.2150 H   0  0  0  0  0  0  0  0  0  0  0  0
   47.1010   32.1950   50.0040 H   0  0  0  0  0  0  0  0  0  0  0  0
   48.2750   30.7190   48.9160 C   0  0  0  0  0  0  0  0  0  0  0  0
   49.2200   30.4400   50.1170 C   0  0  0  0  0  0  0  0  0  0  0  0
   49.5310   31.5820   49.2120 C   0  0  0  0  0  0  0  0  0  0  0  0
   48.3280   30.0130   48.0730 H   0  0  0  0  0  0  0  0  0  0  0  0
   48.8450   30.6770   51.1280 H   0  0  0  0  0  0  0  0  0  0  0  0
   49.7980   29.5060   50.0170 H   0  0  0  0  0  0  0  0  0  0  0  0
   49.3290   32.6220   49.5410 H   0  0  0  0  0  0  0  0  0  0  0  0
   50.3390   31.4270   48.4750 H   0  0  0  0  0  0  0  0  0  0  0  0
   45.7020   33.0840   46.2020 C   0  0  0  0  0  2  0  0  0  0  0  0
   46.0090   31.9200   45.7860 C   0  0  0  0  0  2  0  0  0  0  0  0
   44.5320   36.1540   44.5440 C   0  0  0  0  0  0  0  0  0  0  0  0
   45.1700   36.1260   43.3100 C   0  0  0  0  0  0  0  0  0  0  0  0
   46.0030   35.0420   43.0820 C   0  0  0  0  0  0  0  0  0  0  0  0
   46.1210   34.1300   44.0460 N   0  0  0  0  0  0  0  0  0  0  0  0
   45.5100   34.1580   45.2200 C   0  0  0  0  0  0  0  0  0  0  0  0
   44.7170   35.1870   45.4470 N   0  0  0  0  0  0  0  0  0  0  0  0
   43.8690   37.0050   44.7440 H   0  0  0  0  0  0  0  0  0  0  0  0
   45.0730   36.8600   42.5400 H   0  0  0  0  0  0  0  0  0  0  0  0
   46.7660   34.8320   41.8440 C   0  0  0  0  0  0  0  0  0  0  0  0
   46.3170   34.0590   40.7990 C   0  0  0  0  0  0  0  0  0  0  0  0
   45.3720   33.5770   40.8640 H   0  0  0  0  0  0  0  0  0  0  0  0
   47.0160   33.8530   39.6400 C   0  0  0  0  0  0  0  0  0  0  0  0
   46.6370   33.2390   38.8370 H   0  0  0  0  0  0  0  0  0  0  0  0
   48.2510   34.4440   39.4810 C   0  0  0  0  0  3  0  0  0  0  0  0
   48.6800   35.2170   40.5440 C   0  0  0  0  0  3  0  0  0  0  0  0
   47.9800   35.3980   41.6540 N   0  0  0  0  0  0  0  0  0  0  0  0
  1  4  1  0  0  0  0
  2  1  1  0  0  0  0
  3  1  1  0  0  0  0
  4  7  1  1  0  0  0
  4  6  1  0  0  0  0
  4  5  1  0  0  0  0
  5  8  1  0  0  0  0
  6  5  1  0  0  0  0
  6 10  1  1  0  0  0
  9  5  1  0  0  0  0
 11 13  1  0  0  0  0
 11  6  1  0  0  0  0
 11 12  1  0  0  0  0
 12 15  1  0  0  0  0
 13 17  1  0  0  0  0
 13 12  1  0  0  0  0
 14 11  1  0  0  0  0
 16 12  1  0  0  0  0
 18 13  1  0  0  0  0
 20 19  1  0  0  0  0
 20  1  1  0  0  0  0
 21 27  1  0  0  0  0
 21 26  1  0  0  0  0
 22 21  2  0  0  0  0
 23 22  1  0  0  0  0
 23 24  2  0  0  0  0
 24 25  1  0  0  0  0
 25 26  2  0  0  0  0
 25 19  1  0  0  0  0
 28 22  1  0  0  0  0
 29 23  1  0  0  0  0
 30 31  1  0  0  0  0
 30 29  2  0  0  0  0
 32 30  1  0  0  0  0
 33 32  1  0  0  0  0
 34 32  2  0  0  0  0
 34 35  1  0  0  0  0
 35 36  2  0  0  0  0
 36 29  1  0  0  0  0
M  END
>  <minimizedAffinity>
-5.87680435

>  <minimizedRMSD>
0.76456064

$$$$
