
 OpenBabel03252508133D

 36 39  0  0  1  0  0  0  0  0999 V2000
   46.1850   30.8760   46.8730 C   0  0  0  0  0  0  0  0  0  0  0  0
   47.1900   30.4470   46.8590 H   0  0  0  0  0  0  0  0  0  0  0  0
   45.3920   30.1120   46.7530 H   0  0  0  0  0  0  0  0  0  0  0  0
   45.9760   31.5220   48.2220 C   0  0  1  0  0  0  0  0  0  0  0  0
   45.7290   30.6050   49.3680 C   0  0  0  0  0  0  0  0  0  0  0  0
   46.9840   31.3260   49.2870 C   0  0  1  0  0  0  0  0  0  0  0  0
   45.4250   32.4810   48.2200 H   0  0  0  0  0  0  0  0  0  0  0  0
   44.9710   30.9350   50.1320 H   0  0  0  0  0  0  0  0  0  0  0  0
   45.6410   29.5050   49.2090 H   0  0  0  0  0  0  0  0  0  0  0  0
   47.1060   32.2020   49.9950 H   0  0  0  0  0  0  0  0  0  0  0  0
   48.2810   30.7210   48.9140 C   0  0  0  0  0  0  0  0  0  0  0  0
   49.2210   30.4420   50.1190 C   0  0  0  0  0  0  0  0  0  0  0  0
   49.5370   31.5820   49.2120 C   0  0  0  0  0  0  0  0  0  0  0  0
   48.3340   30.0130   48.0730 H   0  0  0  0  0  0  0  0  0  0  0  0
   48.8430   30.6830   51.1290 H   0  0  0  0  0  0  0  0  0  0  0  0
   49.7970   29.5070   50.0220 H   0  0  0  0  0  0  0  0  0  0  0  0
   49.3370   32.6230   49.5380 H   0  0  0  0  0  0  0  0  0  0  0  0
   50.3470   31.4230   48.4790 H   0  0  0  0  0  0  0  0  0  0  0  0
   45.7120   33.0830   46.1870 C   0  0  0  0  0  2  0  0  0  0  0  0
   46.0200   31.9170   45.7740 C   0  0  0  0  0  2  0  0  0  0  0  0
   44.5450   36.1500   44.5200 C   0  0  0  0  0  0  0  0  0  0  0  0
   45.1790   36.1140   43.2840 C   0  0  0  0  0  0  0  0  0  0  0  0
   46.0070   35.0270   43.0570 C   0  0  0  0  0  0  0  0  0  0  0  0
   46.1260   34.1180   44.0240 N   0  0  0  0  0  0  0  0  0  0  0  0
   45.5200   34.1530   45.2000 C   0  0  0  0  0  0  0  0  0  0  0  0
   44.7310   35.1850   45.4270 N   0  0  0  0  0  0  0  0  0  0  0  0
   43.8860   37.0040   44.7190 H   0  0  0  0  0  0  0  0  0  0  0  0
   45.0810   36.8460   42.5110 H   0  0  0  0  0  0  0  0  0  0  0  0
   46.7650   34.8100   41.8170 C   0  0  0  0  0  0  0  0  0  0  0  0
   48.0020   35.3650   41.5780 C   0  0  0  0  0  0  0  0  0  0  0  0
   48.4550   35.9880   42.3100 H   0  0  0  0  0  0  0  0  0  0  0  0
   48.7200   35.1720   40.4280 C   0  0  0  0  0  0  0  0  0  0  0  0
   49.6880   35.6220   40.2700 H   0  0  0  0  0  0  0  0  0  0  0  0
   48.1980   34.3770   39.4310 C   0  0  0  0  0  3  0  0  0  0  0  0
   46.9570   33.8310   39.6940 C   0  0  0  0  0  3  0  0  0  0  0  0
   46.2850   34.0360   40.8180 N   0  0  0  0  0  0  0  0  0  0  0  0
  1  4  1  0  0  0  0
  2  1  1  0  0  0  0
  3  1  1  0  0  0  0
  4  7  1  1  0  0  0
  4  6  1  0  0  0  0
  4  5  1  0  0  0  0
  5  8  1  0  0  0  0
  6  5  1  0  0  0  0
  6 10  1  1  0  0  0
  9  5  1  0  0  0  0
 11 13  1  0  0  0  0
 11  6  1  0  0  0  0
 11 12  1  0  0  0  0
 12 15  1  0  0  0  0
 13 17  1  0  0  0  0
 13 12  1  0  0  0  0
 14 11  1  0  0  0  0
 16 12  1  0  0  0  0
 18 13  1  0  0  0  0
 20 19  1  0  0  0  0
 20  1  1  0  0  0  0
 21 27  1  0  0  0  0
 21 26  1  0  0  0  0
 22 21  2  0  0  0  0
 23 22  1  0  0  0  0
 23 24  2  0  0  0  0
 24 25  1  0  0  0  0
 25 26  2  0  0  0  0
 25 19  1  0  0  0  0
 28 22  1  0  0  0  0
 29 23  1  0  0  0  0
 30 29  1  0  0  0  0
 30 31  1  0  0  0  0
 32 30  2  0  0  0  0
 33 32  1  0  0  0  0
 34 35  2  0  0  0  0
 34 32  1  0  0  0  0
 35 36  1  0  0  0  0
 36 29  2  0  0  0  0
M  END
>  <minimizedAffinity>
-6.06381989

>  <minimizedRMSD>
0.577792346

$$$$
