REMARK  Name = 
REMARK  6 active torsions:
REMARK  status: ('A' for Active; 'I' for Inactive)
REMARK    1  A    between atoms: C_1  and  C_7
REMARK    2  A    between atoms: C_2  and  C_15
REMARK    3  A    between atoms: C_5  and  C_9
REMARK    4  A    between atoms: C_15  and  C_16
REMARK    5  A    between atoms: C_18  and  C_19
REMARK    6  A    between atoms: C_21  and  C_41
REMARK                            x       y       z     vdW  Elec       q    Type
REMARK                         _______ _______ _______ _____ _____    ______ ____
ROOT
ATOM      1  C   UNL     1      46.096  30.896  46.908  0.00  0.00    +0.000 C 
ATOM      2  H   UNL     1      45.352  30.069  46.716  0.00  0.00    +0.000 HD
ATOM      3  H   UNL     1      47.064  30.467  46.691  0.00  0.00    +0.000 HD
ENDROOT
BRANCH   1   4
ATOM      4  C   UNL     1      45.892  31.492  48.251  0.00  0.00    +0.000 C 
ATOM      5  C   UNL     1      45.707  30.523  49.370  0.00  0.00    +0.000 C 
ATOM      6  C   UNL     1      46.924  31.334  49.303  0.00  0.00    +0.000 C 
ATOM      7  H   UNL     1      45.066  32.265  48.319  0.00  0.00    +0.000 HD
ATOM      8  H   UNL     1      45.004  30.676  50.195  0.00  0.00    +0.000 HD
ATOM      9  H   UNL     1      45.835  29.433  49.139  0.00  0.00    +0.000 HD
ATOM     10  H   UNL     1      46.962  32.187  50.010  0.00  0.00    +0.000 HD
BRANCH   6  11
ATOM     11  C   UNL     1      48.227  30.752  48.918  0.00  0.00    +0.000 C 
ATOM     12  C   UNL     1      49.194  30.486  50.094  0.00  0.00    +0.000 C 
ATOM     13  C   UNL     1      49.501  31.566  49.169  0.00  0.00    +0.000 C 
ATOM     14  H   UNL     1      48.266  29.888  48.217  0.00  0.00    +0.000 HD
ATOM     15  H   UNL     1      48.846  30.790  51.102  0.00  0.00    +0.000 HD
ATOM     16  H   UNL     1      49.818  29.598  50.111  0.00  0.00    +0.000 HD
ATOM     17  H   UNL     1      50.244  31.342  48.342  0.00  0.00    +0.000 HD
BRANCH  13  18
ATOM     18  C   UNL     1      49.364  32.985  49.486  0.00  0.00    +0.000 A 
ATOM     19  C   UNL     1      49.992  33.680  50.487  0.00  0.00    +0.000 A 
ATOM     20  H   UNL     1      50.689  33.142  51.116  0.00  0.00    +0.000 HD
ATOM     21  C   UNL     1      49.837  35.008  50.772  0.00  0.00    +0.000 A 
ATOM     22  H   UNL     1      50.373  35.478  51.582  0.00  0.00    +0.000 HD
ATOM     23  C   UNL     1      48.971  35.745  49.991  0.00  0.00    +0.000 A 
ATOM     24  C   UNL     1      48.331  35.069  48.982  0.00  0.00    +0.000 A 
ATOM     25  N   UNL     1      48.520  33.759  48.745  0.00  0.00    +0.000 NA
ENDBRANCH  13  18
ENDBRANCH   6  11
ENDBRANCH   1   4
BRANCH   1  27
ATOM     26  C   UNL     1      45.749  33.131  46.233  0.00  0.00    +0.000 C 
ATOM     27  C   UNL     1      45.913  31.943  45.830  0.00  0.00    +0.000 C 
BRANCH  26  32
ATOM     28  C   UNL     1      44.548  36.151  44.495  0.00  0.00    +0.000 A 
ATOM     29  C   UNL     1      45.213  36.100  43.280  0.00  0.00    +0.000 A 
ATOM     30  C   UNL     1      46.047  35.035  43.087  0.00  0.00    +0.000 A 
ATOM     31  N   UNL     1      46.193  34.094  44.058  0.00  0.00    +0.000 NA
ATOM     32  C   UNL     1      45.524  34.180  45.235  0.00  0.00    +0.000 A 
ATOM     33  N   UNL     1      44.719  35.209  45.420  0.00  0.00    +0.000 NA
ATOM     34  H   UNL     1      43.887  36.993  44.652  0.00  0.00    +0.000 HD
ATOM     35  H   UNL     1      45.138  36.808  42.484  0.00  0.00    +0.000 HD
BRANCH  30  36
ATOM     36  C   UNL     1      46.812  34.848  41.862  0.00  0.00    +0.000 A 
ATOM     37  C   UNL     1      48.049  35.410  41.633  0.00  0.00    +0.000 A 
ATOM     38  C   UNL     1      48.773  35.231  40.471  0.00  0.00    +0.000 A 
ATOM     39  C   UNL     1      48.254  34.455  39.469  0.00  0.00    +0.000 A 
ATOM     40  C   UNL     1      47.025  33.871  39.646  0.00  0.00    +0.000 A 
ATOM     41  C   UNL     1      46.339  34.081  40.829  0.00  0.00    +0.000 A 
ATOM     42  H   UNL     1      48.489  36.036  42.417  0.00  0.00    +0.000 HD
ATOM     43  H   UNL     1      49.744  35.696  40.337  0.00  0.00    +0.000 HD
ATOM     44  H   UNL     1      48.824  34.316  38.557  0.00  0.00    +0.000 HD
ATOM     45  H   UNL     1      46.583  33.248  38.871  0.00  0.00    +0.000 HD
ATOM     46  H   UNL     1      45.373  33.596  40.916  0.00  0.00    +0.000 HD
ENDBRANCH  30  36
ENDBRANCH  26  32
ENDBRANCH   1  27
TORSDOF 6
