
 OpenBabel03242522583D

 30 32  0  0  0  0  0  0  0  0999 V2000
   45.0140   33.6910   47.0230 C   0  0  0  0  0  0  0  0  0  0  0  0
   45.2690   34.0420   45.6920 C   0  0  0  0  0  0  0  0  0  0  0  0
   46.3080   33.4790   44.9760 C   0  0  0  0  0  0  0  0  0  0  0  0
   47.0680   32.5660   45.6380 N   0  0  0  0  0  0  0  0  0  0  0  0
   46.8140   32.2360   46.9150 C   0  0  0  0  0  0  0  0  0  0  0  0
   45.7940   32.7940   47.6060 N   0  0  0  0  0  0  0  0  0  0  0  0
   44.1750   34.2280   47.4050 H   0  0  0  0  0  0  0  0  0  0  0  0
   44.6930   34.7650   45.1170 H   0  0  0  0  0  0  0  0  0  0  0  0
   44.3760   32.3620   42.9830 Cl  0  0  0  0  0  0  0  0  0  0  0  0
   45.7660   33.3530   42.6170 C   0  0  0  0  0  0  0  0  0  0  0  0
   46.5990   33.8240   43.5870 C   0  0  0  0  0  0  0  0  0  0  0  0
   47.6490   34.5880   43.1600 C   0  0  0  0  0  0  0  0  0  0  0  0
   47.8920   34.8900   41.8680 C   0  0  0  0  0  0  0  0  0  0  0  0
   47.0520   34.4140   40.8930 C   0  0  0  0  0  0  0  0  0  0  0  0
   45.9830   33.6410   41.2820 C   0  0  0  0  0  0  0  0  0  0  0  0
   48.3330   34.9780   43.9290 H   0  0  0  0  0  0  0  0  0  0  0  0
   47.1980   34.6250   39.8360 H   0  0  0  0  0  0  0  0  0  0  0  0
   45.3250   33.2710   40.5020 H   0  0  0  0  0  0  0  0  0  0  0  0
   49.0420   35.7240   41.4330 C   0  0  0  0  0  0  0  0  0  0  0  0
   50.1950   35.0840   41.7890 F   0  0  0  0  0  0  0  0  0  0  0  0
   48.9610   37.0030   41.9740 F   0  0  0  0  0  0  0  0  0  0  0  0
   48.9850   35.8490   40.0530 F   0  0  0  0  0  0  0  0  0  0  0  0
   47.6470   31.2510   47.6010 C   0  0  0  0  0  0  0  0  0  0  0  0
   48.1580   31.5530   48.8650 C   0  0  0  0  0  0  0  0  0  0  0  0
   47.9500   32.4880   49.3410 H   0  0  0  0  0  0  0  0  0  0  0  0
   48.9450   30.5590   49.4530 C   0  0  0  0  0  0  0  0  0  0  0  0
   49.3440   30.7900   50.4370 H   0  0  0  0  0  0  0  0  0  0  0  0
   49.2320   29.3560   48.8810 C   0  0  0  0  0  0  0  0  0  0  0  0
   48.6960   29.1150   47.6230 C   0  0  0  0  0  0  0  0  0  0  0  0
   47.9380   30.0610   47.0460 N   0  0  0  0  0  0  0  0  0  0  0  0
  1  7  1  0  0  0  0
  1  6  1  0  0  0  0
  2  1  2  0  0  0  0
  3  4  2  0  0  0  0
  3  2  1  0  0  0  0
  4  5  1  0  0  0  0
  5 23  1  0  0  0  0
  5  6  2  0  0  0  0
  8  2  1  0  0  0  0
 10  9  1  0  0  0  0
 10 11  1  0  0  0  0
 11  3  1  0  0  0  0
 12 11  2  0  0  0  0
 12 16  1  0  0  0  0
 13 12  1  0  0  0  0
 14 15  1  0  0  0  0
 14 13  2  0  0  0  0
 15 10  2  0  0  0  0
 17 14  1  0  0  0  0
 18 15  1  0  0  0  0
 19 20  1  0  0  0  0
 19 13  1  0  0  0  0
 19 21  1  0  0  0  0
 22 19  1  0  0  0  0
 23 24  1  0  0  0  0
 24 25  1  0  0  0  0
 24 26  2  0  0  0  0
 26 27  1  0  0  0  0
 28 26  1  0  0  0  0
 29 28  2  0  0  0  0
 30 23  2  0  0  0  0
 30 29  1  0  0  0  0
M  END
>  <minimizedAffinity>
-6.13581085

>  <minimizedRMSD>
1.01741123

$$$$
