
 OpenBabel03242523013D

 30 32  0  0  0  0  0  0  0  0999 V2000
   37.5300   33.4120   39.9700 C   0  0  0  0  0  0  0  0  0  0  0  0
   37.0750   32.1020   40.1650 C   0  0  0  0  0  0  0  0  0  0  0  0
   37.9020   31.0100   39.9850 C   0  0  0  0  0  0  0  0  0  0  0  0
   39.1800   31.2790   39.6070 N   0  0  0  0  0  0  0  0  0  0  0  0
   39.6050   32.5410   39.4230 C   0  0  0  0  0  0  0  0  0  0  0  0
   38.7880   33.6020   39.6020 N   0  0  0  0  0  0  0  0  0  0  0  0
   36.7510   34.1170   40.1560 H   0  0  0  0  0  0  0  0  0  0  0  0
   36.0650   31.8310   40.4670 H   0  0  0  0  0  0  0  0  0  0  0  0
   36.9160   29.6530   37.5080 Cl  0  0  0  0  0  0  0  0  0  0  0  0
   36.9940   28.9440   39.1000 C   0  0  0  0  0  0  0  0  0  0  0  0
   37.4590   29.6320   40.1810 C   0  0  0  0  0  0  0  0  0  0  0  0
   37.4650   28.9550   41.3680 C   0  0  0  0  0  0  0  0  0  0  0  0
   37.0480   27.6820   41.5180 C   0  0  0  0  0  0  0  0  0  0  0  0
   36.5800   26.9900   40.4280 C   0  0  0  0  0  0  0  0  0  0  0  0
   36.5580   27.6360   39.2150 C   0  0  0  0  0  0  0  0  0  0  0  0
   37.8370   29.4940   42.2530 H   0  0  0  0  0  0  0  0  0  0  0  0
   36.2320   25.9620   40.4900 H   0  0  0  0  0  0  0  0  0  0  0  0
   36.1860   27.0800   38.3600 H   0  0  0  0  0  0  0  0  0  0  0  0
   37.0670   26.9700   42.8230 C   0  0  0  0  0  0  0  0  0  0  0  0
   38.2420   27.2650   43.4550 F   0  0  0  0  0  0  0  0  0  0  0  0
   36.8950   25.6010   42.6450 F   0  0  0  0  0  0  0  0  0  0  0  0
   36.0020   27.4320   43.5800 F   0  0  0  0  0  0  0  0  0  0  0  0
   40.9850   32.8010   39.0160 C   0  0  0  0  0  0  0  0  0  0  0  0
   42.0050   32.6990   39.9640 C   0  0  0  0  0  0  0  0  0  0  0  0
   41.7970   32.4320   40.9790 H   0  0  0  0  0  0  0  0  0  0  0  0
   43.2940   32.9630   39.4950 C   0  0  0  0  0  0  0  0  0  0  0  0
   44.0920   32.8840   40.2300 H   0  0  0  0  0  0  0  0  0  0  0  0
   43.6010   33.3040   38.2120 C   0  0  0  0  0  3  0  0  0  0  0  0
   42.5430   33.3890   37.3160 C   0  0  0  0  0  3  0  0  0  0  0  0
   41.2980   33.1380   37.7530 N   0  0  0  0  0  0  0  0  0  0  0  0
  1  7  1  0  0  0  0
  1  2  1  0  0  0  0
  2  8  1  0  0  0  0
  3  2  2  0  0  0  0
  3 11  1  0  0  0  0
  4  3  1  0  0  0  0
  5  6  1  0  0  0  0
  5  4  2  0  0  0  0
  6  1  2  0  0  0  0
  9 10  1  0  0  0  0
 10 15  2  0  0  0  0
 10 11  1  0  0  0  0
 11 12  2  0  0  0  0
 12 13  1  0  0  0  0
 12 16  1  0  0  0  0
 13 19  1  0  0  0  0
 14 17  1  0  0  0  0
 14 13  2  0  0  0  0
 15 14  1  0  0  0  0
 18 15  1  0  0  0  0
 19 20  1  0  0  0  0
 19 22  1  0  0  0  0
 21 19  1  0  0  0  0
 23  5  1  0  0  0  0
 23 24  1  0  0  0  0
 24 25  1  0  0  0  0
 26 24  2  0  0  0  0
 26 27  1  0  0  0  0
 28 26  1  0  0  0  0
 29 30  1  0  0  0  0
 29 28  2  0  0  0  0
 30 23  2  0  0  0  0
M  END
>  <minimizedAffinity>
-5.78252602

$$$$

 OpenBabel03242523013D

 30 32  0  0  0  0  0  0  0  0999 V2000
   40.7630   29.1930   42.8210 C   0  0  0  0  0  0  0  0  0  0  0  0
   40.1700   27.9370   42.6440 C   0  0  0  0  0  0  0  0  0  0  0  0
   39.0420   27.7670   41.8640 C   0  0  0  0  0  0  0  0  0  0  0  0
   38.5410   28.8880   41.2800 N   0  0  0  0  0  0  0  0  0  0  0  0
   39.1190   30.0890   41.4570 C   0  0  0  0  0  0  0  0  0  0  0  0
   40.2230   30.2430   42.2220 N   0  0  0  0  0  0  0  0  0  0  0  0
   41.6200   29.1230   43.4530 H   0  0  0  0  0  0  0  0  0  0  0  0
   40.5290   27.0100   43.0870 H   0  0  0  0  0  0  0  0  0  0  0  0
   36.6070   27.3030   43.5400 Cl  0  0  0  0  0  0  0  0  0  0  0  0
   37.2840   26.1820   42.3870 C   0  0  0  0  0  0  0  0  0  0  0  0
   38.4000   26.4710   41.6600 C   0  0  0  0  0  0  0  0  0  0  0  0
   38.8210   25.5030   40.7930 C   0  0  0  0  0  0  0  0  0  0  0  0
   38.2070   24.3140   40.6260 C   0  0  0  0  0  0  0  0  0  0  0  0
   37.0840   24.0240   41.3590 C   0  0  0  0  0  0  0  0  0  0  0  0
   36.6270   24.9740   42.2430 C   0  0  0  0  0  0  0  0  0  0  0  0
   39.7210   25.7180   40.1970 H   0  0  0  0  0  0  0  0  0  0  0  0
   36.5470   23.0830   41.2660 H   0  0  0  0  0  0  0  0  0  0  0  0
   35.7380   24.7340   42.8170 H   0  0  0  0  0  0  0  0  0  0  0  0
   38.6880   23.2780   39.6740 C   0  0  0  0  0  0  0  0  0  0  0  0
   39.9930   23.5480   39.3720 F   0  0  0  0  0  0  0  0  0  0  0  0
   37.8840   23.2340   38.5400 F   0  0  0  0  0  0  0  0  0  0  0  0
   38.5990   22.0450   40.3000 F   0  0  0  0  0  0  0  0  0  0  0  0
   38.5590   31.2770   40.8160 C   0  0  0  0  0  0  0  0  0  0  0  0
   37.5140   31.1300   39.9030 C   0  0  0  0  0  0  0  0  0  0  0  0
   37.1150   30.1670   39.6640 H   0  0  0  0  0  0  0  0  0  0  0  0
   37.0360   32.3140   39.3350 C   0  0  0  0  0  0  0  0  0  0  0  0
   36.2210   32.2040   38.6230 H   0  0  0  0  0  0  0  0  0  0  0  0
   37.5160   33.5580   39.6120 C   0  0  0  0  0  3  0  0  0  0  0  0
   38.5560   33.6400   40.5290 C   0  0  0  0  0  3  0  0  0  0  0  0
   39.0270   32.5100   41.0820 N   0  0  0  0  0  0  0  0  0  0  0  0
  1  7  1  0  0  0  0
  2  1  1  0  0  0  0
  2  8  1  0  0  0  0
  3  2  2  0  0  0  0
  4  5  2  0  0  0  0
  4  3  1  0  0  0  0
  5  6  1  0  0  0  0
  6  1  2  0  0  0  0
 10  9  1  0  0  0  0
 11  3  1  0  0  0  0
 11 10  2  0  0  0  0
 12 11  1  0  0  0  0
 13 12  2  0  0  0  0
 13 14  1  0  0  0  0
 14 15  2  0  0  0  0
 15 10  1  0  0  0  0
 15 18  1  0  0  0  0
 16 12  1  0  0  0  0
 17 14  1  0  0  0  0
 19 22  1  0  0  0  0
 19 13  1  0  0  0  0
 20 19  1  0  0  0  0
 21 19  1  0  0  0  0
 23 30  1  0  0  0  0
 23  5  1  0  0  0  0
 24 23  2  0  0  0  0
 25 24  1  0  0  0  0
 26 28  2  0  0  0  0
 26 24  1  0  0  0  0
 27 26  1  0  0  0  0
 28 29  1  0  0  0  0
 29 30  2  0  0  0  0
M  END
>  <minimizedAffinity>
-5.73580027

$$$$

 OpenBabel03242523013D

 30 32  0  0  0  0  0  0  0  0999 V2000
   40.9070   32.7410   40.7460 C   0  0  0  0  0  0  0  0  0  0  0  0
   39.7610   32.0060   41.0720 C   0  0  0  0  0  0  0  0  0  0  0  0
   39.3770   30.8940   40.3460 C   0  0  0  0  0  0  0  0  0  0  0  0
   40.1750   30.5550   39.2990 N   0  0  0  0  0  0  0  0  0  0  0  0
   41.2740   31.2670   38.9960 C   0  0  0  0  0  0  0  0  0  0  0  0
   41.6400   32.3530   39.7130 N   0  0  0  0  0  0  0  0  0  0  0  0
   41.0380   33.5590   41.4170 H   0  0  0  0  0  0  0  0  0  0  0  0
   39.0880   32.2330   41.8970 H   0  0  0  0  0  0  0  0  0  0  0  0
   36.9310   31.6610   38.8020 Cl  0  0  0  0  0  0  0  0  0  0  0  0
   37.0300   30.3950   39.9990 C   0  0  0  0  0  0  0  0  0  0  0  0
   38.1870   30.1070   40.6600 C   0  0  0  0  0  0  0  0  0  0  0  0
   38.1230   29.0910   41.5720 C   0  0  0  0  0  0  0  0  0  0  0  0
   37.0080   28.3820   41.8410 C   0  0  0  0  0  0  0  0  0  0  0  0
   35.8440   28.6740   41.1740 C   0  0  0  0  0  0  0  0  0  0  0  0
   35.8670   29.6900   40.2480 C   0  0  0  0  0  0  0  0  0  0  0  0
   39.0470   28.8440   42.1150 H   0  0  0  0  0  0  0  0  0  0  0  0
   34.9150   28.1350   41.3500 H   0  0  0  0  0  0  0  0  0  0  0  0
   34.9410   29.9120   39.7280 H   0  0  0  0  0  0  0  0  0  0  0  0
   36.9680   27.2810   42.8380 C   0  0  0  0  0  0  0  0  0  0  0  0
   36.9640   26.0930   42.1640 F   0  0  0  0  0  0  0  0  0  0  0  0
   35.8670   27.4120   43.6800 F   0  0  0  0  0  0  0  0  0  0  0  0
   38.1080   27.3690   43.6220 F   0  0  0  0  0  0  0  0  0  0  0  0
   42.1140   30.8800   37.8650 C   0  0  0  0  0  0  0  0  0  0  0  0
   43.2630   31.6210   37.5840 C   0  0  0  0  0  0  0  0  0  0  0  0
   43.5410   32.4640   38.1810 H   0  0  0  0  0  0  0  0  0  0  0  0
   44.0110   31.1850   36.4870 C   0  0  0  0  0  0  0  0  0  0  0  0
   44.9070   31.7600   36.2660 H   0  0  0  0  0  0  0  0  0  0  0  0
   43.6920   30.1180   35.7040 C   0  0  0  0  0  3  0  0  0  0  0  0
   42.5370   29.4200   36.0330 C   0  0  0  0  0  3  0  0  0  0  0  0
   41.8080   29.8280   37.0850 N   0  0  0  0  0  0  0  0  0  0  0  0
  1  2  1  0  0  0  0
  1  7  1  0  0  0  0
  2  8  1  0  0  0  0
  3 11  1  0  0  0  0
  3  2  2  0  0  0  0
  4  3  1  0  0  0  0
  5  4  2  0  0  0  0
  5  6  1  0  0  0  0
  6  1  2  0  0  0  0
  9 10  1  0  0  0  0
 10 15  2  0  0  0  0
 10 11  1  0  0  0  0
 11 12  2  0  0  0  0
 12 13  1  0  0  0  0
 12 16  1  0  0  0  0
 13 19  1  0  0  0  0
 14 17  1  0  0  0  0
 14 13  2  0  0  0  0
 15 14  1  0  0  0  0
 18 15  1  0  0  0  0
 19 22  1  0  0  0  0
 19 21  1  0  0  0  0
 20 19  1  0  0  0  0
 23  5  1  0  0  0  0
 24 23  1  0  0  0  0
 24 25  1  0  0  0  0
 26 24  2  0  0  0  0
 27 26  1  0  0  0  0
 28 29  2  0  0  0  0
 28 26  1  0  0  0  0
 29 30  1  0  0  0  0
 30 23  2  0  0  0  0
M  END
>  <minimizedAffinity>
-5.69225407

$$$$

 OpenBabel03242523013D

 30 32  0  0  0  0  0  0  0  0999 V2000
   36.7690   29.9470   36.9940 C   0  0  0  0  0  0  0  0  0  0  0  0
   36.5680   29.0530   38.0520 C   0  0  0  0  0  0  0  0  0  0  0  0
   37.3700   29.0640   39.1780 C   0  0  0  0  0  0  0  0  0  0  0  0
   38.3640   29.9920   39.1980 N   0  0  0  0  0  0  0  0  0  0  0  0
   38.5470   30.8450   38.1760 C   0  0  0  0  0  0  0  0  0  0  0  0
   37.7570   30.8250   37.0800 N   0  0  0  0  0  0  0  0  0  0  0  0
   36.0540   29.7860   36.2180 H   0  0  0  0  0  0  0  0  0  0  0  0
   35.7890   28.2930   38.0880 H   0  0  0  0  0  0  0  0  0  0  0  0
   36.5530   30.3730   41.7410 Cl  0  0  0  0  0  0  0  0  0  0  0  0
   36.8140   28.6640   41.5030 C   0  0  0  0  0  0  0  0  0  0  0  0
   37.1860   28.1460   40.2980 C   0  0  0  0  0  0  0  0  0  0  0  0
   37.3550   26.7910   40.2530 C   0  0  0  0  0  0  0  0  0  0  0  0
   37.1780   25.9670   41.3060 C   0  0  0  0  0  0  0  0  0  0  0  0
   36.8030   26.4910   42.5180 C   0  0  0  0  0  0  0  0  0  0  0  0
   36.6220   27.8510   42.6050 C   0  0  0  0  0  0  0  0  0  0  0  0
   37.6560   26.3530   39.2880 H   0  0  0  0  0  0  0  0  0  0  0  0
   36.6450   25.8760   43.4010 H   0  0  0  0  0  0  0  0  0  0  0  0
   36.3260   28.2540   43.5680 H   0  0  0  0  0  0  0  0  0  0  0  0
   37.3690   24.4950   41.2260 C   0  0  0  0  0  0  0  0  0  0  0  0
   36.2040   23.9360   40.7820 F   0  0  0  0  0  0  0  0  0  0  0  0
   37.7650   23.9790   42.4560 F   0  0  0  0  0  0  0  0  0  0  0  0
   38.3850   24.2420   40.3180 F   0  0  0  0  0  0  0  0  0  0  0  0
   39.6240   31.8320   38.2250 C   0  0  0  0  0  0  0  0  0  0  0  0
   39.6410   32.7710   39.2570 C   0  0  0  0  0  0  0  0  0  0  0  0
   38.8840   32.7820   40.0120 H   0  0  0  0  0  0  0  0  0  0  0  0
   40.7030   33.6790   39.2310 C   0  0  0  0  0  0  0  0  0  0  0  0
   40.7200   34.4130   40.0340 H   0  0  0  0  0  0  0  0  0  0  0  0
   41.6870   33.6980   38.2890 C   0  0  0  0  0  3  0  0  0  0  0  0
   41.6160   32.7380   37.2880 C   0  0  0  0  0  3  0  0  0  0  0  0
   40.6000   31.8590   37.2990 N   0  0  0  0  0  0  0  0  0  0  0  0
  1  6  2  0  0  0  0
  1  2  1  0  0  0  0
  2  8  1  0  0  0  0
  2  3  2  0  0  0  0
  3  4  1  0  0  0  0
  3 11  1  0  0  0  0
  5 23  1  0  0  0  0
  5  4  2  0  0  0  0
  6  5  1  0  0  0  0
  7  1  1  0  0  0  0
 10  9  1  0  0  0  0
 10 15  1  0  0  0  0
 11 10  2  0  0  0  0
 12 11  1  0  0  0  0
 12 13  2  0  0  0  0
 13 14  1  0  0  0  0
 14 15  2  0  0  0  0
 14 17  1  0  0  0  0
 15 18  1  0  0  0  0
 16 12  1  0  0  0  0
 19 13  1  0  0  0  0
 19 21  1  0  0  0  0
 20 19  1  0  0  0  0
 22 19  1  0  0  0  0
 23 24  1  0  0  0  0
 24 25  1  0  0  0  0
 26 24  2  0  0  0  0
 26 27  1  0  0  0  0
 28 26  1  0  0  0  0
 29 30  1  0  0  0  0
 29 28  2  0  0  0  0
 30 23  2  0  0  0  0
M  END
>  <minimizedAffinity>
-5.61989117

$$$$

 OpenBabel03242523013D

 30 32  0  0  0  0  0  0  0  0999 V2000
   37.0130   31.6250   40.5930 C   0  0  0  0  0  0  0  0  0  0  0  0
   37.2030   30.3770   41.1980 C   0  0  0  0  0  0  0  0  0  0  0  0
   38.3740   29.6600   41.0380 C   0  0  0  0  0  0  0  0  0  0  0  0
   39.3290   30.2360   40.2600 N   0  0  0  0  0  0  0  0  0  0  0  0
   39.1360   31.4350   39.6850 C   0  0  0  0  0  0  0  0  0  0  0  0
   37.9860   32.1270   39.8490 N   0  0  0  0  0  0  0  0  0  0  0  0
   36.0520   32.0220   40.8320 H   0  0  0  0  0  0  0  0  0  0  0  0
   36.4740   29.8720   41.8290 H   0  0  0  0  0  0  0  0  0  0  0  0
   40.7050   29.5600   42.9110 Cl  0  0  0  0  0  0  0  0  0  0  0  0
   39.6480   28.2280   42.5210 C   0  0  0  0  0  0  0  0  0  0  0  0
   38.6030   28.3570   41.6550 C   0  0  0  0  0  0  0  0  0  0  0  0
   37.8560   27.2330   41.4420 C   0  0  0  0  0  0  0  0  0  0  0  0
   38.0920   26.0410   42.0270 C   0  0  0  0  0  0  0  0  0  0  0  0
   39.1450   25.9130   42.8990 C   0  0  0  0  0  0  0  0  0  0  0  0
   39.9210   27.0220   43.1410 C   0  0  0  0  0  0  0  0  0  0  0  0
   37.0080   27.3170   40.7450 H   0  0  0  0  0  0  0  0  0  0  0  0
   39.3820   24.9780   43.4010 H   0  0  0  0  0  0  0  0  0  0  0  0
   40.7500   26.9090   43.8320 H   0  0  0  0  0  0  0  0  0  0  0  0
   37.2610   24.8350   41.7760 C   0  0  0  0  0  0  0  0  0  0  0  0
   36.7520   24.9210   40.5110 F   0  0  0  0  0  0  0  0  0  0  0  0
   36.2640   24.7090   42.7380 F   0  0  0  0  0  0  0  0  0  0  0  0
   38.0810   23.7210   41.8740 F   0  0  0  0  0  0  0  0  0  0  0  0
   40.1800   32.0300   38.8530 C   0  0  0  0  0  0  0  0  0  0  0  0
   40.5840   33.3430   39.1030 C   0  0  0  0  0  0  0  0  0  0  0  0
   40.1460   33.9200   39.8900 H   0  0  0  0  0  0  0  0  0  0  0  0
   41.5860   33.8370   38.2640 C   0  0  0  0  0  0  0  0  0  0  0  0
   41.9040   34.8590   38.4550 H   0  0  0  0  0  0  0  0  0  0  0  0
   42.1690   33.1350   37.2520 C   0  0  0  0  0  3  0  0  0  0  0  0
   41.7250   31.8350   37.0530 C   0  0  0  0  0  3  0  0  0  0  0  0
   40.7620   31.3470   37.8510 N   0  0  0  0  0  0  0  0  0  0  0  0
  1  7  1  0  0  0  0
  1  2  1  0  0  0  0
  2  8  1  0  0  0  0
  3  2  2  0  0  0  0
  3 11  1  0  0  0  0
  4  3  1  0  0  0  0
  5  6  1  0  0  0  0
  5  4  2  0  0  0  0
  6  1  2  0  0  0  0
 10  9  1  0  0  0  0
 10 15  1  0  0  0  0
 11 10  2  0  0  0  0
 12 11  1  0  0  0  0
 12 13  2  0  0  0  0
 13 14  1  0  0  0  0
 14 15  2  0  0  0  0
 14 17  1  0  0  0  0
 15 18  1  0  0  0  0
 16 12  1  0  0  0  0
 19 22  1  0  0  0  0
 19 13  1  0  0  0  0
 19 21  1  0  0  0  0
 20 19  1  0  0  0  0
 23 24  1  0  0  0  0
 23  5  1  0  0  0  0
 24 25  1  0  0  0  0
 26 27  1  0  0  0  0
 26 24  2  0  0  0  0
 28 26  1  0  0  0  0
 29 28  2  0  0  0  0
 29 30  1  0  0  0  0
 30 23  2  0  0  0  0
M  END
>  <minimizedAffinity>
-5.54689455

$$$$

 OpenBabel03242523013D

 30 32  0  0  0  0  0  0  0  0999 V2000
   36.8070   31.7530   40.1240 C   0  0  0  0  0  0  0  0  0  0  0  0
   36.6380   30.4650   40.6440 C   0  0  0  0  0  0  0  0  0  0  0  0
   37.5820   29.4730   40.4550 C   0  0  0  0  0  0  0  0  0  0  0  0
   38.6830   29.8200   39.7370 N   0  0  0  0  0  0  0  0  0  0  0  0
   38.8350   31.0600   39.2430 C   0  0  0  0  0  0  0  0  0  0  0  0
   37.9050   32.0230   39.4340 N   0  0  0  0  0  0  0  0  0  0  0  0
   35.9780   32.3760   40.3720 H   0  0  0  0  0  0  0  0  0  0  0  0
   35.7780   30.1340   41.2240 H   0  0  0  0  0  0  0  0  0  0  0  0
   38.2350   29.1930   43.3610 Cl  0  0  0  0  0  0  0  0  0  0  0  0
   37.7140   27.9080   42.3010 C   0  0  0  0  0  0  0  0  0  0  0  0
   37.4340   28.1190   40.9840 C   0  0  0  0  0  0  0  0  0  0  0  0
   37.0360   27.0250   40.2700 C   0  0  0  0  0  0  0  0  0  0  0  0
   36.9090   25.7860   40.7870 C   0  0  0  0  0  0  0  0  0  0  0  0
   37.1910   25.5750   42.1140 C   0  0  0  0  0  0  0  0  0  0  0  0
   37.5950   26.6520   42.8670 C   0  0  0  0  0  0  0  0  0  0  0  0
   36.8050   27.1760   39.2040 H   0  0  0  0  0  0  0  0  0  0  0  0
   37.1060   24.5980   42.5850 H   0  0  0  0  0  0  0  0  0  0  0  0
   37.8150   26.4730   43.9150 H   0  0  0  0  0  0  0  0  0  0  0  0
   36.4720   24.6130   39.9860 C   0  0  0  0  0  0  0  0  0  0  0  0
   35.7410   23.7900   40.7950 F   0  0  0  0  0  0  0  0  0  0  0  0
   37.5650   23.9610   39.4220 F   0  0  0  0  0  0  0  0  0  0  0  0
   35.6770   25.0730   38.9470 F   0  0  0  0  0  0  0  0  0  0  0  0
   40.0290   31.4060   38.4740 C   0  0  0  0  0  0  0  0  0  0  0  0
   40.7590   30.3890   37.8560 C   0  0  0  0  0  0  0  0  0  0  0  0
   40.4610   29.3640   37.9320 H   0  0  0  0  0  0  0  0  0  0  0  0
   41.8860   30.8020   37.1410 C   0  0  0  0  0  0  0  0  0  0  0  0
   42.4570   30.0130   36.6580 H   0  0  0  0  0  0  0  0  0  0  0  0
   42.2990   32.0950   37.0190 C   0  0  0  0  0  3  0  0  0  0  0  0
   41.5310   33.0610   37.6570 C   0  0  0  0  0  3  0  0  0  0  0  0
   40.4450   32.6780   38.3480 N   0  0  0  0  0  0  0  0  0  0  0  0
  1  7  1  0  0  0  0
  1  2  1  0  0  0  0
  2  8  1  0  0  0  0
  3  2  2  0  0  0  0
  3 11  1  0  0  0  0
  4  3  1  0  0  0  0
  5  6  1  0  0  0  0
  5  4  2  0  0  0  0
  6  1  2  0  0  0  0
 10 15  1  0  0  0  0
 10  9  1  0  0  0  0
 11 10  2  0  0  0  0
 12 13  2  0  0  0  0
 12 11  1  0  0  0  0
 13 14  1  0  0  0  0
 14 17  1  0  0  0  0
 14 15  2  0  0  0  0
 15 18  1  0  0  0  0
 16 12  1  0  0  0  0
 19 13  1  0  0  0  0
 19 20  1  0  0  0  0
 21 19  1  0  0  0  0
 22 19  1  0  0  0  0
 23  5  1  0  0  0  0
 24 25  1  0  0  0  0
 24 23  2  0  0  0  0
 26 24  1  0  0  0  0
 27 26  1  0  0  0  0
 28 26  2  0  0  0  0
 28 29  1  0  0  0  0
 29 30  2  0  0  0  0
 30 23  1  0  0  0  0
M  END
>  <minimizedAffinity>
-5.52315903

$$$$

 OpenBabel03242523013D

 30 32  0  0  0  0  0  0  0  0999 V2000
   34.9000   27.4770   36.2080 C   0  0  0  0  0  0  0  0  0  0  0  0
   35.7140   27.6370   37.3360 C   0  0  0  0  0  0  0  0  0  0  0  0
   35.3460   28.4530   38.3890 C   0  0  0  0  0  0  0  0  0  0  0  0
   34.1510   29.0890   38.2680 N   0  0  0  0  0  0  0  0  0  0  0  0
   33.3780   28.9270   37.1800 C   0  0  0  0  0  0  0  0  0  0  0  0
   33.7480   28.1270   36.1560 N   0  0  0  0  0  0  0  0  0  0  0  0
   35.3500   26.8120   35.5060 H   0  0  0  0  0  0  0  0  0  0  0  0
   36.6770   27.1520   37.4850 H   0  0  0  0  0  0  0  0  0  0  0  0
   37.0770   30.8930   38.3330 Cl  0  0  0  0  0  0  0  0  0  0  0  0
   36.9900   29.7300   39.6310 C   0  0  0  0  0  0  0  0  0  0  0  0
   36.1720   28.6410   39.5800 C   0  0  0  0  0  0  0  0  0  0  0  0
   36.2030   27.8120   40.6660 C   0  0  0  0  0  0  0  0  0  0  0  0
   36.9770   28.0120   41.7510 C   0  0  0  0  0  0  0  0  0  0  0  0
   37.8010   29.1100   41.8020 C   0  0  0  0  0  0  0  0  0  0  0  0
   37.7980   29.9690   40.7280 C   0  0  0  0  0  0  0  0  0  0  0  0
   35.5490   26.9270   40.6420 H   0  0  0  0  0  0  0  0  0  0  0  0
   38.4460   29.3220   42.6510 H   0  0  0  0  0  0  0  0  0  0  0  0
   38.4530   30.8330   40.7790 H   0  0  0  0  0  0  0  0  0  0  0  0
   36.9900   27.0940   42.9200 C   0  0  0  0  0  0  0  0  0  0  0  0
   38.1090   27.3560   43.6580 F   0  0  0  0  0  0  0  0  0  0  0  0
   36.9300   25.7660   42.5080 F   0  0  0  0  0  0  0  0  0  0  0  0
   35.8590   27.3490   43.6800 F   0  0  0  0  0  0  0  0  0  0  0  0
   32.0980   29.6250   37.0760 C   0  0  0  0  0  0  0  0  0  0  0  0
   31.7050   30.1480   35.8430 C   0  0  0  0  0  0  0  0  0  0  0  0
   32.3210   30.0470   34.9740 H   0  0  0  0  0  0  0  0  0  0  0  0
   30.4690   30.7990   35.8280 C   0  0  0  0  0  0  0  0  0  0  0  0
   30.1600   31.2080   34.8690 H   0  0  0  0  0  0  0  0  0  0  0  0
   29.6550   30.9470   36.9100 C   0  0  0  0  0  3  0  0  0  0  0  0
   30.1010   30.4050   38.1090 C   0  0  0  0  0  3  0  0  0  0  0  0
   31.2870   29.7770   38.1390 N   0  0  0  0  0  0  0  0  0  0  0  0
  1  2  1  0  0  0  0
  2  8  1  0  0  0  0
  2  3  2  0  0  0  0
  3 11  1  0  0  0  0
  4  3  1  0  0  0  0
  5  4  2  0  0  0  0
  6  1  2  0  0  0  0
  6  5  1  0  0  0  0
  7  1  1  0  0  0  0
  9 10  1  0  0  0  0
 10 15  1  0  0  0  0
 11 10  2  0  0  0  0
 11 12  1  0  0  0  0
 12 13  2  0  0  0  0
 13 14  1  0  0  0  0
 13 19  1  0  0  0  0
 14 17  1  0  0  0  0
 15 18  1  0  0  0  0
 15 14  2  0  0  0  0
 16 12  1  0  0  0  0
 19 20  1  0  0  0  0
 19 22  1  0  0  0  0
 21 19  1  0  0  0  0
 23  5  1  0  0  0  0
 23 30  1  0  0  0  0
 24 23  2  0  0  0  0
 25 24  1  0  0  0  0
 26 24  1  0  0  0  0
 26 28  2  0  0  0  0
 27 26  1  0  0  0  0
 28 29  1  0  0  0  0
 29 30  2  0  0  0  0
M  END
>  <minimizedAffinity>
-5.49028587

$$$$

 OpenBabel03242523013D

 30 32  0  0  0  0  0  0  0  0999 V2000
   37.6600   27.7800   43.6800 C   0  0  0  0  0  0  0  0  0  0  0  0
   38.0520   29.0250   43.1750 C   0  0  0  0  0  0  0  0  0  0  0  0
   38.0770   29.2860   41.8180 C   0  0  0  0  0  0  0  0  0  0  0  0
   37.6990   28.2650   41.0030 N   0  0  0  0  0  0  0  0  0  0  0  0
   37.3240   27.0740   41.4990 C   0  0  0  0  0  0  0  0  0  0  0  0
   37.3030   26.8300   42.8280 N   0  0  0  0  0  0  0  0  0  0  0  0
   37.7050   27.7700   44.7450 H   0  0  0  0  0  0  0  0  0  0  0  0
   38.3630   29.8740   43.7810 H   0  0  0  0  0  0  0  0  0  0  0  0
   35.8430   30.8930   40.6460 Cl  0  0  0  0  0  0  0  0  0  0  0  0
   37.5210   31.3670   40.7050 C   0  0  0  0  0  0  0  0  0  0  0  0
   38.4810   30.5740   41.2600 C   0  0  0  0  0  0  0  0  0  0  0  0
   39.7550   31.0680   41.2400 C   0  0  0  0  0  0  0  0  0  0  0  0
   40.0980   32.2620   40.7160 C   0  0  0  0  0  0  0  0  0  0  0  0
   39.1300   33.0590   40.1590 C   0  0  0  0  0  0  0  0  0  0  0  0
   37.8340   32.5980   40.1590 C   0  0  0  0  0  0  0  0  0  0  0  0
   40.5450   30.4420   41.6830 H   0  0  0  0  0  0  0  0  0  0  0  0
   39.3470   34.0320   39.7230 H   0  0  0  0  0  0  0  0  0  0  0  0
   37.0770   33.2360   39.7160 H   0  0  0  0  0  0  0  0  0  0  0  0
   41.4930   32.7750   40.7090 C   0  0  0  0  0  0  0  0  0  0  0  0
   42.1120   32.3490   41.8510 F   0  0  0  0  0  0  0  0  0  0  0  0
   41.5130   34.1610   40.5850 F   0  0  0  0  0  0  0  0  0  0  0  0
   42.1400   32.2460   39.6030 F   0  0  0  0  0  0  0  0  0  0  0  0
   36.9220   25.9950   40.5990 C   0  0  0  0  0  0  0  0  0  0  0  0
   36.9560   24.6770   41.0580 C   0  0  0  0  0  0  0  0  0  0  0  0
   37.2680   24.4430   42.0540 H   0  0  0  0  0  0  0  0  0  0  0  0
   36.5570   23.7060   40.1360 C   0  0  0  0  0  0  0  0  0  0  0  0
   36.5820   22.6770   40.4900 H   0  0  0  0  0  0  0  0  0  0  0  0
   36.1530   23.9630   38.8610 C   0  0  0  0  0  3  0  0  0  0  0  0
   36.1400   25.2930   38.4630 C   0  0  0  0  0  3  0  0  0  0  0  0
   36.5210   26.2380   39.3380 N   0  0  0  0  0  0  0  0  0  0  0  0
  1  7  1  0  0  0  0
  2  1  1  0  0  0  0
  2  8  1  0  0  0  0
  3  2  2  0  0  0  0
  4  5  2  0  0  0  0
  4  3  1  0  0  0  0
  5  6  1  0  0  0  0
  6  1  2  0  0  0  0
  9 10  1  0  0  0  0
 10 11  1  0  0  0  0
 11  3  1  0  0  0  0
 12 11  2  0  0  0  0
 12 16  1  0  0  0  0
 13 12  1  0  0  0  0
 14 15  1  0  0  0  0
 14 13  2  0  0  0  0
 15 10  2  0  0  0  0
 17 14  1  0  0  0  0
 18 15  1  0  0  0  0
 19 13  1  0  0  0  0
 19 20  1  0  0  0  0
 21 19  1  0  0  0  0
 22 19  1  0  0  0  0
 23 24  1  0  0  0  0
 23  5  1  0  0  0  0
 24 25  1  0  0  0  0
 26 27  1  0  0  0  0
 26 24  2  0  0  0  0
 28 26  1  0  0  0  0
 29 28  2  0  0  0  0
 29 30  1  0  0  0  0
 30 23  2  0  0  0  0
M  END
>  <minimizedAffinity>
-5.39215374

$$$$

 OpenBabel03242523013D

 30 32  0  0  0  0  0  0  0  0999 V2000
   36.6360   30.1880   41.5010 C   0  0  0  0  0  0  0  0  0  0  0  0
   35.9250   30.2040   40.2950 C   0  0  0  0  0  0  0  0  0  0  0  0
   35.7740   29.0680   39.5230 C   0  0  0  0  0  0  0  0  0  0  0  0
   36.3550   27.9350   40.0010 N   0  0  0  0  0  0  0  0  0  0  0  0
   37.0350   27.9320   41.1600 C   0  0  0  0  0  0  0  0  0  0  0  0
   37.1760   29.0490   41.9070 N   0  0  0  0  0  0  0  0  0  0  0  0
   36.6440   31.1550   41.9510 H   0  0  0  0  0  0  0  0  0  0  0  0
   35.4420   31.0810   39.8680 H   0  0  0  0  0  0  0  0  0  0  0  0
   37.4760   28.6870   37.0920 Cl  0  0  0  0  0  0  0  0  0  0  0  0
   35.7420   28.8830   37.1060 C   0  0  0  0  0  0  0  0  0  0  0  0
   35.0390   29.0520   38.2610 C   0  0  0  0  0  0  0  0  0  0  0  0
   33.6860   29.1930   38.1270 C   0  0  0  0  0  0  0  0  0  0  0  0
   33.0340   29.1740   36.9470 C   0  0  0  0  0  0  0  0  0  0  0  0
   33.7450   29.0050   35.7850 C   0  0  0  0  0  0  0  0  0  0  0  0
   35.1090   28.8580   35.8770 C   0  0  0  0  0  0  0  0  0  0  0  0
   33.1010   29.3300   39.0490 H   0  0  0  0  0  0  0  0  0  0  0  0
   33.2730   28.9810   34.8050 H   0  0  0  0  0  0  0  0  0  0  0  0
   35.6600   28.7250   34.9520 H   0  0  0  0  0  0  0  0  0  0  0  0
   31.5610   29.3300   36.8310 C   0  0  0  0  0  0  0  0  0  0  0  0
   31.3060   30.3530   35.9610 F   0  0  0  0  0  0  0  0  0  0  0  0
   30.9840   29.5440   38.0790 F   0  0  0  0  0  0  0  0  0  0  0  0
   31.0420   28.1480   36.3260 F   0  0  0  0  0  0  0  0  0  0  0  0
   37.6500   26.6990   41.6500 C   0  0  0  0  0  0  0  0  0  0  0  0
   37.0000   25.4830   41.4360 C   0  0  0  0  0  0  0  0  0  0  0  0
   36.0640   25.4340   40.9200 H   0  0  0  0  0  0  0  0  0  0  0  0
   37.6530   24.3530   41.9350 C   0  0  0  0  0  0  0  0  0  0  0  0
   37.1500   23.4020   41.7700 H   0  0  0  0  0  0  0  0  0  0  0  0
   38.8440   24.3710   42.5950 C   0  0  0  0  0  3  0  0  0  0  0  0
   39.4410   25.6110   42.7770 C   0  0  0  0  0  3  0  0  0  0  0  0
   38.8250   26.7070   42.3040 N   0  0  0  0  0  0  0  0  0  0  0  0
  1  6  1  0  0  0  0
  1  7  1  0  0  0  0
  2  1  2  0  0  0  0
  3  4  2  0  0  0  0
  3  2  1  0  0  0  0
  4  5  1  0  0  0  0
  5 23  1  0  0  0  0
  5  6  2  0  0  0  0
  8  2  1  0  0  0  0
  9 10  1  0  0  0  0
 10 11  1  0  0  0  0
 11  3  1  0  0  0  0
 12 11  2  0  0  0  0
 12 16  1  0  0  0  0
 13 12  1  0  0  0  0
 14 15  1  0  0  0  0
 14 13  2  0  0  0  0
 15 10  2  0  0  0  0
 17 14  1  0  0  0  0
 18 15  1  0  0  0  0
 19 13  1  0  0  0  0
 19 21  1  0  0  0  0
 20 19  1  0  0  0  0
 22 19  1  0  0  0  0
 23 30  1  0  0  0  0
 24 23  2  0  0  0  0
 24 26  1  0  0  0  0
 25 24  1  0  0  0  0
 26 28  2  0  0  0  0
 27 26  1  0  0  0  0
 28 29  1  0  0  0  0
 30 29  2  0  0  0  0
M  END
>  <minimizedAffinity>
-5.38998795

$$$$
