
 OpenBabel03252506413D

 39 42  0  0  1  0  0  0  0  0999 V2000
   49.5540   33.5550   41.3440 N   0  0  1  0  0  0  0  0  0  0  0  0
   50.6830   33.0540   42.0760 C   0  0  0  0  0  0  0  0  0  0  0  0
   51.2010   31.7250   41.6690 C   0  0  0  0  0  0  0  0  0  0  0  0
   50.1510   30.6680   41.8600 C   0  0  0  0  0  0  0  0  0  0  0  0
   48.7820   31.2110   41.6300 C   0  0  0  0  0  0  0  0  0  0  0  0
   48.8260   32.4380   40.7850 C   0  0  2  0  0  0  0  0  0  0  0  0
   51.5010   33.8110   41.9370 H   0  0  0  0  0  0  0  0  0  0  0  0
   50.5150   33.0290   43.1750 H   0  0  0  0  0  0  0  0  0  0  0  0
   51.7370   31.6520   40.7250 H   0  0  0  0  0  0  0  0  0  0  0  0
   52.0050   31.4820   42.4440 H   0  0  0  0  0  0  0  0  0  0  0  0
   50.1830   30.3160   42.9180 H   0  0  0  0  0  0  0  0  0  0  0  0
   50.3570   29.7540   41.2490 H   0  0  0  0  0  0  0  0  0  0  0  0
   48.1470   30.4770   41.0920 H   0  0  0  0  0  0  0  0  0  0  0  0
   48.2310   31.4250   42.5710 H   0  0  0  0  0  0  0  0  0  0  0  0
   47.7310   32.8310   40.8960 H   0  0  0  0  0  0  0  0  0  0  0  0
   48.9440   32.2600   39.3400 C   0  0  0  0  0  0  0  0  0  0  0  0
   49.3100   31.1410   38.6220 C   0  0  0  0  0  0  0  0  0  0  0  0
   49.5760   30.2670   39.1950 H   0  0  0  0  0  0  0  0  0  0  0  0
   49.3840   31.0260   37.2530 C   0  0  0  0  0  0  0  0  0  0  0  0
   49.6850   30.0900   36.8050 H   0  0  0  0  0  0  0  0  0  0  0  0
   49.0680   32.1270   36.4930 C   0  0  0  0  0  0  0  0  0  0  0  0
   48.7010   33.2550   37.1880 C   0  0  0  0  0  0  0  0  0  0  0  0
   48.6430   33.3180   38.5280 N   0  0  0  0  0  0  0  0  0  0  0  0
   47.3720   34.7940   41.9460 C   0  0  1  0  0  0  0  0  0  0  0  0
   48.4660   35.7250   41.7640 C   0  0  0  0  0  0  0  0  0  0  0  0
   48.7920   34.3490   42.2690 C   0  0  2  0  0  0  0  0  0  0  0  0
   46.9590   34.2000   41.0960 H   0  0  0  0  0  0  0  0  0  0  0  0
   48.5280   36.5880   42.4650 H   0  0  0  0  0  0  0  0  0  0  0  0
   48.7250   35.9940   40.7030 H   0  0  0  0  0  0  0  0  0  0  0  0
   49.0860   34.3090   43.3360 H   0  0  0  0  0  0  0  0  0  0  0  0
   45.5470   36.0420   43.1590 C   0  0  0  0  0  0  0  0  0  0  0  0
   46.4200   34.9190   43.0840 C   0  0  0  0  0  0  0  0  0  0  0  0
   46.3450   33.9780   44.0920 C   0  0  0  0  0  0  0  0  0  0  0  0
   45.4410   34.1870   45.0900 N   0  0  0  0  0  0  0  0  0  0  0  0
   44.6270   35.2570   45.1370 C   0  0  0  0  0  0  0  0  0  0  0  0
   44.6680   36.1960   44.1750 N   0  0  0  0  0  0  0  0  0  0  0  0
   45.5960   36.7960   42.3650 H   0  0  0  0  0  0  0  0  0  0  0  0
   46.9880   33.1190   44.0700 H   0  0  0  0  0  0  0  0  0  0  0  0
   43.9320   35.3550   45.9640 H   0  0  0  0  0  0  0  0  0  0  0  0
  1  2  1  1  0  0  0
  1 26  1  0  0  0  0
  2  8  1  0  0  0  0
  3  4  1  0  0  0  0
  3  2  1  0  0  0  0
  3 10  1  0  0  0  0
  4 11  1  0  0  0  0
  5  4  1  0  0  0  0
  5 14  1  0  0  0  0
  6 15  1  1  0  0  0
  6  1  1  0  0  0  0
  6  5  1  0  0  0  0
  7  2  1  0  0  0  0
  9  3  1  0  0  0  0
 12  4  1  0  0  0  0
 13  5  1  0  0  0  0
 16  6  1  0  0  0  0
 17 18  1  0  0  0  0
 17 16  1  0  0  0  0
 19 17  2  0  0  0  0
 20 19  1  0  0  0  0
 21 22  2  0  0  0  0
 21 19  1  0  0  0  0
 22 23  1  0  0  0  0
 23 16  2  0  0  0  0
 24 27  1  6  0  0  0
 24 26  1  0  0  0  0
 24 32  1  0  0  0  0
 25 24  1  0  0  0  0
 25 26  1  0  0  0  0
 25 28  1  0  0  0  0
 26 30  1  1  0  0  0
 29 25  1  0  0  0  0
 31 36  1  0  0  0  0
 32 31  2  0  0  0  0
 32 33  1  0  0  0  0
 33 34  2  0  0  0  0
 34 35  1  0  0  0  0
 35 39  1  0  0  0  0
 36 35  2  0  0  0  0
 37 31  1  0  0  0  0
 38 33  1  0  0  0  0
M  END
>  <minimizedAffinity>
-5.09446573

>  <minimizedRMSD>
1.11733735

$$$$
