
 OpenBabel03252500113D

 30 32  0  0  0  0  0  0  0  0999 V2000
   38.5930   27.0620   39.5340 Cl  0  0  0  0  0  0  0  0  0  0  0  0
   37.9350   27.2950   41.1320 C   0  0  0  0  0  0  0  0  0  0  0  0
   37.9700   28.5370   41.7130 C   0  0  0  0  0  0  0  0  0  0  0  0
   37.4570   28.7790   42.9890 C   0  0  0  0  0  0  0  0  0  0  0  0
   36.9120   27.6900   43.6330 C   0  0  0  0  0  0  0  0  0  0  0  0
   36.8760   26.4540   43.0550 C   0  0  0  0  0  0  0  0  0  0  0  0
   37.3750   26.2380   41.8250 C   0  0  0  0  0  0  0  0  0  0  0  0
   37.4920   29.7670   43.4360 H   0  0  0  0  0  0  0  0  0  0  0  0
   36.5110   27.8590   44.6200 H   0  0  0  0  0  0  0  0  0  0  0  0
   36.4340   25.6490   43.6180 H   0  0  0  0  0  0  0  0  0  0  0  0
   40.3460   31.1510   40.6360 C   0  0  0  0  0  0  0  0  0  0  0  0
   39.6590   31.7700   39.5780 C   0  0  0  0  0  0  0  0  0  0  0  0
   38.3890   31.2810   39.2520 C   0  0  0  0  0  0  0  0  0  0  0  0
   37.8740   30.2390   39.9580 N   0  0  0  0  0  0  0  0  0  0  0  0
   38.5660   29.6630   40.9760 C   0  0  0  0  0  0  0  0  0  0  0  0
   39.7950   30.1240   41.3060 N   0  0  0  0  0  0  0  0  0  0  0  0
   41.3240   31.5400   40.8760 H   0  0  0  0  0  0  0  0  0  0  0  0
   40.0560   32.6010   39.0070 H   0  0  0  0  0  0  0  0  0  0  0  0
   37.5600   31.8570   38.1450 C   0  0  0  0  0  0  0  0  0  0  0  0
   38.3000   32.0340   37.0160 F   0  0  0  0  0  0  0  0  0  0  0  0
   36.5250   30.9680   37.8630 F   0  0  0  0  0  0  0  0  0  0  0  0
   37.0420   33.0410   38.6040 F   0  0  0  0  0  0  0  0  0  0  0  0
   37.3690   24.9430   41.1500 C   0  0  0  0  0  0  0  0  0  0  0  0
   36.3310   24.4870   40.3700 C   0  0  0  0  0  0  0  0  0  0  0  0
   35.4610   25.1160   40.2440 H   0  0  0  0  0  0  0  0  0  0  0  0
   36.3170   23.2670   39.7290 C   0  0  0  0  0  0  0  0  0  0  0  0
   35.4400   22.9910   39.1280 H   0  0  0  0  0  0  0  0  0  0  0  0
   37.4030   22.4260   39.8590 C   0  0  0  0  0  3  0  0  0  0  0  0
   38.4440   22.8810   40.6390 C   0  0  0  0  0  3  0  0  0  0  0  0
   38.4030   24.0640   41.2320 N   0  0  0  0  0  0  0  0  0  0  0  0
  1  2  1  0  0  0  0
  2  3  2  0  0  0  0
  2  7  1  0  0  0  0
  3  4  1  0  0  0  0
  4  8  1  0  0  0  0
  4  5  2  0  0  0  0
  5  9  1  0  0  0  0
  6 10  1  0  0  0  0
  6  5  1  0  0  0  0
  7  6  2  0  0  0  0
 11 17  1  0  0  0  0
 11 16  1  0  0  0  0
 12 11  2  0  0  0  0
 13 12  1  0  0  0  0
 13 14  2  0  0  0  0
 14 15  1  0  0  0  0
 15 16  2  0  0  0  0
 15  3  1  0  0  0  0
 18 12  1  0  0  0  0
 19 22  1  0  0  0  0
 19 13  1  0  0  0  0
 20 19  1  0  0  0  0
 21 19  1  0  0  0  0
 23 30  1  0  0  0  0
 23  7  1  0  0  0  0
 24 23  2  0  0  0  0
 25 24  1  0  0  0  0
 26 28  2  0  0  0  0
 26 24  1  0  0  0  0
 27 26  1  0  0  0  0
 28 29  1  0  0  0  0
 29 30  2  0  0  0  0
M  END
>  <minimizedAffinity>
-5.59075546

$$$$

 OpenBabel03252500113D

 30 32  0  0  0  0  0  0  0  0999 V2000
   40.3310   30.0860   40.5330 Cl  0  0  0  0  0  0  0  0  0  0  0  0
   38.9060   30.2350   39.5390 C   0  0  0  0  0  0  0  0  0  0  0  0
   37.7360   29.6330   39.9250 C   0  0  0  0  0  0  0  0  0  0  0  0
   36.5660   29.7200   39.1670 C   0  0  0  0  0  0  0  0  0  0  0  0
   36.6590   30.4510   38.0030 C   0  0  0  0  0  0  0  0  0  0  0  0
   37.8230   31.0500   37.6190 C   0  0  0  0  0  0  0  0  0  0  0  0
   38.9410   30.9560   38.3600 C   0  0  0  0  0  0  0  0  0  0  0  0
   35.6480   29.2390   39.4850 H   0  0  0  0  0  0  0  0  0  0  0  0
   35.7640   30.5290   37.4050 H   0  0  0  0  0  0  0  0  0  0  0  0
   37.8210   31.6060   36.6950 H   0  0  0  0  0  0  0  0  0  0  0  0
   37.6400   28.8070   43.5230 C   0  0  0  0  0  0  0  0  0  0  0  0
   37.6260   27.4010   43.5130 C   0  0  0  0  0  0  0  0  0  0  0  0
   37.6500   26.7590   42.2700 C   0  0  0  0  0  0  0  0  0  0  0  0
   37.6850   27.5060   41.1340 N   0  0  0  0  0  0  0  0  0  0  0  0
   37.6980   28.8640   41.1800 C   0  0  0  0  0  0  0  0  0  0  0  0
   37.6750   29.5020   42.3730 N   0  0  0  0  0  0  0  0  0  0  0  0
   37.6220   29.2870   44.4900 H   0  0  0  0  0  0  0  0  0  0  0  0
   37.5980   26.7940   44.4090 H   0  0  0  0  0  0  0  0  0  0  0  0
   37.6370   25.2680   42.1290 C   0  0  0  0  0  0  0  0  0  0  0  0
   36.4550   24.7430   42.5570 F   0  0  0  0  0  0  0  0  0  0  0  0
   37.8020   24.9520   40.7820 F   0  0  0  0  0  0  0  0  0  0  0  0
   38.6990   24.7860   42.8520 F   0  0  0  0  0  0  0  0  0  0  0  0
   40.2170   31.5720   38.0080 C   0  0  0  0  0  0  0  0  0  0  0  0
   40.5690   32.8600   38.3420 C   0  0  0  0  0  0  0  0  0  0  0  0
   39.8640   33.4630   38.8980 H   0  0  0  0  0  0  0  0  0  0  0  0
   41.7700   33.4490   38.0150 C   0  0  0  0  0  0  0  0  0  0  0  0
   41.9590   34.4850   38.3260 H   0  0  0  0  0  0  0  0  0  0  0  0
   42.7030   32.7230   37.3040 C   0  0  0  0  0  3  0  0  0  0  0  0
   42.3550   31.4320   36.9680 C   0  0  0  0  0  3  0  0  0  0  0  0
   41.1840   30.9180   37.3110 N   0  0  0  0  0  0  0  0  0  0  0  0
  2  3  1  0  0  0  0
  2  1  1  0  0  0  0
  3 15  1  0  0  0  0
  4  8  1  0  0  0  0
  4  3  2  0  0  0  0
  5  4  1  0  0  0  0
  6  5  2  0  0  0  0
  6  7  1  0  0  0  0
  7  2  2  0  0  0  0
  9  5  1  0  0  0  0
 10  6  1  0  0  0  0
 11 17  1  0  0  0  0
 12 11  1  0  0  0  0
 12 18  1  0  0  0  0
 13 12  2  0  0  0  0
 14 15  2  0  0  0  0
 14 13  1  0  0  0  0
 15 16  1  0  0  0  0
 16 11  2  0  0  0  0
 19 13  1  0  0  0  0
 19 20  1  0  0  0  0
 19 22  1  0  0  0  0
 21 19  1  0  0  0  0
 23 24  1  0  0  0  0
 23  7  1  0  0  0  0
 24 25  1  0  0  0  0
 26 27  1  0  0  0  0
 26 24  2  0  0  0  0
 28 26  1  0  0  0  0
 29 28  2  0  0  0  0
 29 30  1  0  0  0  0
 30 23  2  0  0  0  0
M  END
>  <minimizedAffinity>
-5.5880537

$$$$

 OpenBabel03252500113D

 30 32  0  0  0  0  0  0  0  0999 V2000
   40.4440   30.1120   39.3170 Cl  0  0  0  0  0  0  0  0  0  0  0  0
   39.2360   31.3470   39.5520 C   0  0  0  0  0  0  0  0  0  0  0  0
   37.9600   30.9980   39.9120 C   0  0  0  0  0  0  0  0  0  0  0  0
   36.9550   31.9460   40.1130 C   0  0  0  0  0  0  0  0  0  0  0  0
   37.3240   33.2600   39.9280 C   0  0  0  0  0  0  0  0  0  0  0  0
   38.5940   33.6080   39.5700 C   0  0  0  0  0  0  0  0  0  0  0  0
   39.5510   32.6830   39.3800 C   0  0  0  0  0  0  0  0  0  0  0  0
   35.9490   31.6550   40.3980 H   0  0  0  0  0  0  0  0  0  0  0  0
   36.5600   34.0060   40.0790 H   0  0  0  0  0  0  0  0  0  0  0  0
   38.8110   34.6570   39.4420 H   0  0  0  0  0  0  0  0  0  0  0  0
   36.9670   27.5140   39.1960 C   0  0  0  0  0  0  0  0  0  0  0  0
   37.0040   26.9190   40.4690 C   0  0  0  0  0  0  0  0  0  0  0  0
   37.3680   27.7240   41.5530 C   0  0  0  0  0  0  0  0  0  0  0  0
   37.6700   29.0330   41.3410 N   0  0  0  0  0  0  0  0  0  0  0  0
   37.6240   29.5770   40.0960 C   0  0  0  0  0  0  0  0  0  0  0  0
   37.2740   28.8120   39.0350 N   0  0  0  0  0  0  0  0  0  0  0  0
   36.6830   26.8790   38.3690 H   0  0  0  0  0  0  0  0  0  0  0  0
   36.7650   25.8780   40.6530 H   0  0  0  0  0  0  0  0  0  0  0  0
   37.4440   27.2050   42.9570 C   0  0  0  0  0  0  0  0  0  0  0  0
   36.2000   27.0330   43.4860 F   0  0  0  0  0  0  0  0  0  0  0  0
   38.0930   25.9730   42.9360 F   0  0  0  0  0  0  0  0  0  0  0  0
   38.1830   28.1070   43.6800 F   0  0  0  0  0  0  0  0  0  0  0  0
   40.9270   32.9860   38.9970 C   0  0  0  0  0  0  0  0  0  0  0  0
   41.9350   33.2510   39.8960 C   0  0  0  0  0  0  0  0  0  0  0  0
   41.7050   33.2390   40.9520 H   0  0  0  0  0  0  0  0  0  0  0  0
   43.2360   33.5390   39.5440 C   0  0  0  0  0  0  0  0  0  0  0  0
   43.9700   33.7380   40.3350 H   0  0  0  0  0  0  0  0  0  0  0  0
   43.5800   33.5690   38.2080 C   0  0  0  0  0  3  0  0  0  0  0  0
   42.5730   33.3020   37.3060 C   0  0  0  0  0  3  0  0  0  0  0  0
   41.3390   33.0320   37.7020 N   0  0  0  0  0  0  0  0  0  0  0  0
  1  2  1  0  0  0  0
  2  3  1  0  0  0  0
  3 15  1  0  0  0  0
  3  4  2  0  0  0  0
  4  8  1  0  0  0  0
  5  9  1  0  0  0  0
  5  4  1  0  0  0  0
  6  5  2  0  0  0  0
  7  2  2  0  0  0  0
  7  6  1  0  0  0  0
 10  6  1  0  0  0  0
 11 12  1  0  0  0  0
 12 18  1  0  0  0  0
 12 13  2  0  0  0  0
 13 19  1  0  0  0  0
 14 13  1  0  0  0  0
 15 14  2  0  0  0  0
 16 11  2  0  0  0  0
 16 15  1  0  0  0  0
 17 11  1  0  0  0  0
 19 20  1  0  0  0  0
 19 22  1  0  0  0  0
 21 19  1  0  0  0  0
 23  7  1  0  0  0  0
 23 24  1  0  0  0  0
 24 25  1  0  0  0  0
 26 24  2  0  0  0  0
 26 27  1  0  0  0  0
 28 26  1  0  0  0  0
 29 30  1  0  0  0  0
 29 28  2  0  0  0  0
 30 23  2  0  0  0  0
M  END
>  <minimizedAffinity>
-5.52711535

$$$$

 OpenBabel03252500113D

 30 32  0  0  0  0  0  0  0  0999 V2000
   39.1440   27.4920   40.0200 Cl  0  0  0  0  0  0  0  0  0  0  0  0
   38.1370   27.4620   41.4430 C   0  0  0  0  0  0  0  0  0  0  0  0
   38.1230   28.5350   42.2980 C   0  0  0  0  0  0  0  0  0  0  0  0
   37.3360   28.5620   43.4500 C   0  0  0  0  0  0  0  0  0  0  0  0
   36.5690   27.4410   43.6790 C   0  0  0  0  0  0  0  0  0  0  0  0
   36.5810   26.3730   42.8300 C   0  0  0  0  0  0  0  0  0  0  0  0
   37.3460   26.3620   41.7240 C   0  0  0  0  0  0  0  0  0  0  0  0
   37.3350   29.4180   44.1160 H   0  0  0  0  0  0  0  0  0  0  0  0
   35.9540   27.4460   44.5650 H   0  0  0  0  0  0  0  0  0  0  0  0
   35.9550   25.5300   43.0730 H   0  0  0  0  0  0  0  0  0  0  0  0
   41.0380   30.7940   42.1090 C   0  0  0  0  0  0  0  0  0  0  0  0
   40.5170   31.9080   41.4270 C   0  0  0  0  0  0  0  0  0  0  0  0
   39.1720   31.8650   41.0440 C   0  0  0  0  0  0  0  0  0  0  0  0
   38.4290   30.7650   41.3390 N   0  0  0  0  0  0  0  0  0  0  0  0
   38.9650   29.7050   42.0000 C   0  0  0  0  0  0  0  0  0  0  0  0
   40.2640   29.7290   42.3790 N   0  0  0  0  0  0  0  0  0  0  0  0
   42.0770   30.8430   42.3990 H   0  0  0  0  0  0  0  0  0  0  0  0
   41.0970   32.7910   41.1860 H   0  0  0  0  0  0  0  0  0  0  0  0
   38.5030   32.9880   40.3130 C   0  0  0  0  0  0  0  0  0  0  0  0
   37.1660   32.7640   40.1840 F   0  0  0  0  0  0  0  0  0  0  0  0
   38.6900   34.1610   41.0410 F   0  0  0  0  0  0  0  0  0  0  0  0
   39.1200   33.0980   39.0920 F   0  0  0  0  0  0  0  0  0  0  0  0
   37.4060   25.2550   40.7750 C   0  0  0  0  0  0  0  0  0  0  0  0
   38.2020   24.1430   40.9380 C   0  0  0  0  0  0  0  0  0  0  0  0
   38.8260   24.0770   41.8190 H   0  0  0  0  0  0  0  0  0  0  0  0
   38.2660   23.0930   40.0490 C   0  0  0  0  0  0  0  0  0  0  0  0
   38.9330   22.2490   40.2660 H   0  0  0  0  0  0  0  0  0  0  0  0
   37.4900   23.1310   38.9080 C   0  0  0  0  0  3  0  0  0  0  0  0
   36.6910   24.2410   38.7420 C   0  0  0  0  0  3  0  0  0  0  0  0
   36.6710   25.2210   39.6320 N   0  0  0  0  0  0  0  0  0  0  0  0
  1  2  1  0  0  0  0
  2  7  2  0  0  0  0
  2  3  1  0  0  0  0
  3  4  2  0  0  0  0
  4  5  1  0  0  0  0
  4  8  1  0  0  0  0
  5  9  1  0  0  0  0
  6 10  1  0  0  0  0
  6  5  2  0  0  0  0
  7  6  1  0  0  0  0
 11 16  1  0  0  0  0
 11 17  1  0  0  0  0
 12 11  2  0  0  0  0
 13 14  2  0  0  0  0
 13 12  1  0  0  0  0
 14 15  1  0  0  0  0
 15  3  1  0  0  0  0
 15 16  2  0  0  0  0
 18 12  1  0  0  0  0
 19 21  1  0  0  0  0
 19 13  1  0  0  0  0
 20 19  1  0  0  0  0
 22 19  1  0  0  0  0
 23 24  1  0  0  0  0
 23  7  1  0  0  0  0
 24 25  1  0  0  0  0
 26 27  1  0  0  0  0
 26 24  2  0  0  0  0
 28 26  1  0  0  0  0
 29 28  2  0  0  0  0
 29 30  1  0  0  0  0
 30 23  2  0  0  0  0
M  END
>  <minimizedAffinity>
-5.46710587

$$$$

 OpenBabel03252500113D

 30 32  0  0  0  0  0  0  0  0999 V2000
   37.9670   27.6770   39.2250 Cl  0  0  0  0  0  0  0  0  0  0  0  0
   37.6750   27.8150   40.9390 C   0  0  0  0  0  0  0  0  0  0  0  0
   37.4830   26.6870   41.6960 C   0  0  0  0  0  0  0  0  0  0  0  0
   37.2470   26.7420   43.0700 C   0  0  0  0  0  0  0  0  0  0  0  0
   37.2170   28.0030   43.6250 C   0  0  0  0  0  0  0  0  0  0  0  0
   37.4080   29.1250   42.8730 C   0  0  0  0  0  0  0  0  0  0  0  0
   37.6350   29.0560   41.5490 C   0  0  0  0  0  0  0  0  0  0  0  0
   37.0970   25.8410   43.6560 H   0  0  0  0  0  0  0  0  0  0  0  0
   37.0360   28.0630   44.6860 H   0  0  0  0  0  0  0  0  0  0  0  0
   37.3720   30.0790   43.3740 H   0  0  0  0  0  0  0  0  0  0  0  0
   38.7260   23.4560   40.4120 C   0  0  0  0  0  0  0  0  0  0  0  0
   37.5760   22.8970   39.8280 C   0  0  0  0  0  0  0  0  0  0  0  0
   36.3920   23.6400   39.8830 C   0  0  0  0  0  0  0  0  0  0  0  0
   36.3950   24.8560   40.4910 N   0  0  0  0  0  0  0  0  0  0  0  0
   37.5260   25.3670   41.0470 C   0  0  0  0  0  0  0  0  0  0  0  0
   38.6800   24.6620   41.0020 N   0  0  0  0  0  0  0  0  0  0  0  0
   39.6320   22.8700   40.3600 H   0  0  0  0  0  0  0  0  0  0  0  0
   37.5590   21.9300   39.3400 H   0  0  0  0  0  0  0  0  0  0  0  0
   35.1020   23.1520   39.2980 C   0  0  0  0  0  0  0  0  0  0  0  0
   35.2530   21.9230   38.7310 F   0  0  0  0  0  0  0  0  0  0  0  0
   34.1620   23.0570   40.3220 F   0  0  0  0  0  0  0  0  0  0  0  0
   34.6960   24.0880   38.3810 F   0  0  0  0  0  0  0  0  0  0  0  0
   37.8470   30.2150   40.6870 C   0  0  0  0  0  0  0  0  0  0  0  0
   36.8300   30.9560   40.1290 C   0  0  0  0  0  0  0  0  0  0  0  0
   35.8080   30.6690   40.3320 H   0  0  0  0  0  0  0  0  0  0  0  0
   37.0210   32.0510   39.3150 C   0  0  0  0  0  0  0  0  0  0  0  0
   36.1440   32.5770   38.9160 H   0  0  0  0  0  0  0  0  0  0  0  0
   38.3070   32.4560   39.0240 C   0  0  0  0  0  3  0  0  0  0  0  0
   39.3280   31.7170   39.5820 C   0  0  0  0  0  3  0  0  0  0  0  0
   39.0840   30.6730   40.3580 N   0  0  0  0  0  0  0  0  0  0  0  0
  1  2  1  0  0  0  0
  2  7  2  0  0  0  0
  2  3  1  0  0  0  0
  3  4  2  0  0  0  0
  4  5  1  0  0  0  0
  4  8  1  0  0  0  0
  5  9  1  0  0  0  0
  6 10  1  0  0  0  0
  6  5  2  0  0  0  0
  7  6  1  0  0  0  0
 11 16  1  0  0  0  0
 12 13  1  0  0  0  0
 12 11  2  0  0  0  0
 13 14  2  0  0  0  0
 14 15  1  0  0  0  0
 15  3  1  0  0  0  0
 16 15  2  0  0  0  0
 17 11  1  0  0  0  0
 18 12  1  0  0  0  0
 19 13  1  0  0  0  0
 19 21  1  0  0  0  0
 20 19  1  0  0  0  0
 22 19  1  0  0  0  0
 23  7  1  0  0  0  0
 24 25  1  0  0  0  0
 24 23  2  0  0  0  0
 26 24  1  0  0  0  0
 27 26  1  0  0  0  0
 28 26  2  0  0  0  0
 28 29  1  0  0  0  0
 29 30  2  0  0  0  0
 30 23  1  0  0  0  0
M  END
>  <minimizedAffinity>
-5.40462112

$$$$

 OpenBabel03252500113D

 30 32  0  0  0  0  0  0  0  0999 V2000
   40.2620   29.3790   40.1720 Cl  0  0  0  0  0  0  0  0  0  0  0  0
   38.9500   30.4530   39.7650 C   0  0  0  0  0  0  0  0  0  0  0  0
   39.1390   31.4480   38.8410 C   0  0  0  0  0  0  0  0  0  0  0  0
   38.1230   32.3340   38.4780 C   0  0  0  0  0  0  0  0  0  0  0  0
   36.9120   32.1480   39.1080 C   0  0  0  0  0  0  0  0  0  0  0  0
   36.7220   31.1580   40.0270 C   0  0  0  0  0  0  0  0  0  0  0  0
   37.7120   30.3120   40.3660 C   0  0  0  0  0  0  0  0  0  0  0  0
   38.2880   33.1170   37.7450 H   0  0  0  0  0  0  0  0  0  0  0  0
   36.1150   32.8240   38.8390 H   0  0  0  0  0  0  0  0  0  0  0  0
   35.7480   31.0720   40.4800 H   0  0  0  0  0  0  0  0  0  0  0  0
   42.3350   32.9110   37.7070 C   0  0  0  0  0  0  0  0  0  0  0  0
   42.9210   31.8500   36.9950 C   0  0  0  0  0  0  0  0  0  0  0  0
   42.2080   30.6490   36.9150 C   0  0  0  0  0  0  0  0  0  0  0  0
   40.9940   30.5520   37.5200 N   0  0  0  0  0  0  0  0  0  0  0  0
   40.4560   31.5980   38.2010 C   0  0  0  0  0  0  0  0  0  0  0  0
   41.1320   32.7680   38.2890 N   0  0  0  0  0  0  0  0  0  0  0  0
   42.8970   33.8320   37.7600 H   0  0  0  0  0  0  0  0  0  0  0  0
   43.8860   31.9130   36.5090 H   0  0  0  0  0  0  0  0  0  0  0  0
   42.7260   29.4470   36.1860 C   0  0  0  0  0  0  0  0  0  0  0  0
   41.7930   28.4560   36.1440 F   0  0  0  0  0  0  0  0  0  0  0  0
   43.0340   29.8240   34.8800 F   0  0  0  0  0  0  0  0  0  0  0  0
   43.8670   29.0440   36.8330 F   0  0  0  0  0  0  0  0  0  0  0  0
   37.5770   29.2340   41.3400 C   0  0  0  0  0  0  0  0  0  0  0  0
   37.7920   29.3860   42.6920 C   0  0  0  0  0  0  0  0  0  0  0  0
   38.0800   30.3580   43.0650 H   0  0  0  0  0  0  0  0  0  0  0  0
   37.6660   28.3740   43.6180 C   0  0  0  0  0  0  0  0  0  0  0  0
   37.8600   28.5930   44.6760 H   0  0  0  0  0  0  0  0  0  0  0  0
   37.3020   27.1130   43.1920 C   0  0  0  0  0  3  0  0  0  0  0  0
   37.0850   26.9580   41.8400 C   0  0  0  0  0  3  0  0  0  0  0  0
   37.2200   27.9680   40.9950 N   0  0  0  0  0  0  0  0  0  0  0  0
  2  1  1  0  0  0  0
  2  7  1  0  0  0  0
  3  2  2  0  0  0  0
  4  3  1  0  0  0  0
  4  5  2  0  0  0  0
  5  6  1  0  0  0  0
  6  7  2  0  0  0  0
  6 10  1  0  0  0  0
  7 23  1  0  0  0  0
  8  4  1  0  0  0  0
  9  5  1  0  0  0  0
 11 17  1  0  0  0  0
 11 16  1  0  0  0  0
 12 11  2  0  0  0  0
 13 12  1  0  0  0  0
 13 14  2  0  0  0  0
 14 15  1  0  0  0  0
 15 16  2  0  0  0  0
 15  3  1  0  0  0  0
 18 12  1  0  0  0  0
 19 22  1  0  0  0  0
 19 13  1  0  0  0  0
 20 19  1  0  0  0  0
 21 19  1  0  0  0  0
 23 24  1  0  0  0  0
 24 25  1  0  0  0  0
 24 26  2  0  0  0  0
 26 27  1  0  0  0  0
 28 26  1  0  0  0  0
 29 28  2  0  0  0  0
 30 23  2  0  0  0  0
 30 29  1  0  0  0  0
M  END
>  <minimizedAffinity>
-5.3687377

$$$$

 OpenBabel03252500113D

 30 32  0  0  0  0  0  0  0  0999 V2000
   36.3370   26.3650   38.7610 Cl  0  0  0  0  0  0  0  0  0  0  0  0
   36.3740   27.7880   39.7680 C   0  0  0  0  0  0  0  0  0  0  0  0
   35.7260   28.9290   39.3680 C   0  0  0  0  0  0  0  0  0  0  0  0
   35.7240   30.0950   40.1360 C   0  0  0  0  0  0  0  0  0  0  0  0
   36.4160   30.0320   41.3250 C   0  0  0  0  0  0  0  0  0  0  0  0
   37.0620   28.8970   41.7230 C   0  0  0  0  0  0  0  0  0  0  0  0
   37.0550   27.7820   40.9720 C   0  0  0  0  0  0  0  0  0  0  0  0
   35.2060   30.9890   39.8060 H   0  0  0  0  0  0  0  0  0  0  0  0
   36.4250   30.9240   41.9300 H   0  0  0  0  0  0  0  0  0  0  0  0
   37.5840   28.9210   42.6660 H   0  0  0  0  0  0  0  0  0  0  0  0
   32.9840   28.8540   36.8950 C   0  0  0  0  0  0  0  0  0  0  0  0
   33.6730   28.9530   35.6740 C   0  0  0  0  0  0  0  0  0  0  0  0
   35.0680   29.0430   35.7190 C   0  0  0  0  0  0  0  0  0  0  0  0
   35.6990   29.0330   36.9230 N   0  0  0  0  0  0  0  0  0  0  0  0
   35.0020   28.9360   38.0860 C   0  0  0  0  0  0  0  0  0  0  0  0
   33.6510   28.8470   38.0620 N   0  0  0  0  0  0  0  0  0  0  0  0
   31.9080   28.7840   36.8430 H   0  0  0  0  0  0  0  0  0  0  0  0
   33.1840   28.9630   34.7070 H   0  0  0  0  0  0  0  0  0  0  0  0
   35.9120   29.1540   34.4860 C   0  0  0  0  0  0  0  0  0  0  0  0
   37.2270   28.9380   34.7690 F   0  0  0  0  0  0  0  0  0  0  0  0
   35.4890   28.1890   33.5750 F   0  0  0  0  0  0  0  0  0  0  0  0
   35.7030   30.4060   33.9660 F   0  0  0  0  0  0  0  0  0  0  0  0
   37.7230   26.5370   41.3390 C   0  0  0  0  0  0  0  0  0  0  0  0
   37.0900   25.4690   41.9330 C   0  0  0  0  0  0  0  0  0  0  0  0
   36.0330   25.5460   42.1470 H   0  0  0  0  0  0  0  0  0  0  0  0
   37.7120   24.2910   42.2820 C   0  0  0  0  0  0  0  0  0  0  0  0
   37.1220   23.4950   42.7530 H   0  0  0  0  0  0  0  0  0  0  0  0
   39.0610   24.1430   42.0310 C   0  0  0  0  0  3  0  0  0  0  0  0
   39.6980   25.2100   41.4360 C   0  0  0  0  0  3  0  0  0  0  0  0
   39.0480   26.3200   41.1210 N   0  0  0  0  0  0  0  0  0  0  0  0
  1  2  1  0  0  0  0
  2  7  1  0  0  0  0
  3  2  2  0  0  0  0
  3  4  1  0  0  0  0
  4  5  2  0  0  0  0
  5  6  1  0  0  0  0
  5  9  1  0  0  0  0
  6 10  1  0  0  0  0
  7 23  1  0  0  0  0
  7  6  2  0  0  0  0
  8  4  1  0  0  0  0
 11 16  1  0  0  0  0
 12 13  1  0  0  0  0
 12 11  2  0  0  0  0
 13 14  2  0  0  0  0
 14 15  1  0  0  0  0
 15  3  1  0  0  0  0
 16 15  2  0  0  0  0
 17 11  1  0  0  0  0
 18 12  1  0  0  0  0
 19 20  1  0  0  0  0
 19 13  1  0  0  0  0
 21 19  1  0  0  0  0
 22 19  1  0  0  0  0
 23 24  1  0  0  0  0
 24 25  1  0  0  0  0
 24 26  2  0  0  0  0
 26 27  1  0  0  0  0
 28 26  1  0  0  0  0
 29 28  2  0  0  0  0
 30 23  2  0  0  0  0
 30 29  1  0  0  0  0
M  END
>  <minimizedAffinity>
-5.35307789

$$$$

 OpenBabel03252500113D

 30 32  0  0  0  0  0  0  0  0999 V2000
   36.1250   26.3330   38.6970 Cl  0  0  0  0  0  0  0  0  0  0  0  0
   36.2550   27.7360   39.7240 C   0  0  0  0  0  0  0  0  0  0  0  0
   35.6190   28.9010   39.3790 C   0  0  0  0  0  0  0  0  0  0  0  0
   35.6910   30.0520   40.1650 C   0  0  0  0  0  0  0  0  0  0  0  0
   36.4420   29.9480   41.3140 C   0  0  0  0  0  0  0  0  0  0  0  0
   37.0750   28.7890   41.6590 C   0  0  0  0  0  0  0  0  0  0  0  0
   36.9970   27.6880   40.8910 C   0  0  0  0  0  0  0  0  0  0  0  0
   35.1820   30.9660   39.8780 H   0  0  0  0  0  0  0  0  0  0  0  0
   36.5080   30.8280   41.9340 H   0  0  0  0  0  0  0  0  0  0  0  0
   37.6460   28.7820   42.5740 H   0  0  0  0  0  0  0  0  0  0  0  0
   34.7020   28.7510   35.8050 C   0  0  0  0  0  0  0  0  0  0  0  0
   33.3290   29.0510   35.8290 C   0  0  0  0  0  0  0  0  0  0  0  0
   32.7400   29.3010   37.0730 C   0  0  0  0  0  0  0  0  0  0  0  0
   33.5040   29.2440   38.1970 N   0  0  0  0  0  0  0  0  0  0  0  0
   34.8300   28.9510   38.1370 C   0  0  0  0  0  0  0  0  0  0  0  0
   35.4170   28.7080   36.9420 N   0  0  0  0  0  0  0  0  0  0  0  0
   35.1420   28.5620   34.8360 H   0  0  0  0  0  0  0  0  0  0  0  0
   32.7080   29.1000   34.9430 H   0  0  0  0  0  0  0  0  0  0  0  0
   31.2870   29.6300   37.2300 C   0  0  0  0  0  0  0  0  0  0  0  0
   30.9600   29.8050   38.5400 F   0  0  0  0  0  0  0  0  0  0  0  0
   31.0280   30.8150   36.5440 F   0  0  0  0  0  0  0  0  0  0  0  0
   30.5780   28.6010   36.6620 F   0  0  0  0  0  0  0  0  0  0  0  0
   37.6480   26.4190   41.2010 C   0  0  0  0  0  0  0  0  0  0  0  0
   37.0400   25.3880   41.8800 C   0  0  0  0  0  0  0  0  0  0  0  0
   36.0180   25.5150   42.2100 H   0  0  0  0  0  0  0  0  0  0  0  0
   37.6460   24.1870   42.1770 C   0  0  0  0  0  0  0  0  0  0  0  0
   37.0780   23.4240   42.7240 H   0  0  0  0  0  0  0  0  0  0  0  0
   38.9500   23.9750   41.7790 C   0  0  0  0  0  3  0  0  0  0  0  0
   39.5620   25.0060   41.0980 C   0  0  0  0  0  3  0  0  0  0  0  0
   38.9290   26.1400   40.8400 N   0  0  0  0  0  0  0  0  0  0  0  0
  1  2  1  0  0  0  0
  2  7  1  0  0  0  0
  3  2  2  0  0  0  0
  3  4  1  0  0  0  0
  4  5  2  0  0  0  0
  5  6  1  0  0  0  0
  5  9  1  0  0  0  0
  6 10  1  0  0  0  0
  7 23  1  0  0  0  0
  7  6  2  0  0  0  0
  8  4  1  0  0  0  0
 11 12  2  0  0  0  0
 11 16  1  0  0  0  0
 12 13  1  0  0  0  0
 13 19  1  0  0  0  0
 13 14  2  0  0  0  0
 15 14  1  0  0  0  0
 15  3  1  0  0  0  0
 16 15  2  0  0  0  0
 17 11  1  0  0  0  0
 18 12  1  0  0  0  0
 19 20  1  0  0  0  0
 21 19  1  0  0  0  0
 22 19  1  0  0  0  0
 23 24  1  0  0  0  0
 24 26  2  0  0  0  0
 24 25  1  0  0  0  0
 26 27  1  0  0  0  0
 28 26  1  0  0  0  0
 29 28  2  0  0  0  0
 30 29  1  0  0  0  0
 30 23  2  0  0  0  0
M  END
>  <minimizedAffinity>
-5.34265471

$$$$

 OpenBabel03252500113D

 30 32  0  0  0  0  0  0  0  0999 V2000
   37.9740   27.7980   39.2330 Cl  0  0  0  0  0  0  0  0  0  0  0  0
   37.8120   27.8960   40.9660 C   0  0  0  0  0  0  0  0  0  0  0  0
   37.7910   29.1190   41.5860 C   0  0  0  0  0  0  0  0  0  0  0  0
   37.6630   29.2530   42.9700 C   0  0  0  0  0  0  0  0  0  0  0  0
   37.5600   28.0770   43.6800 C   0  0  0  0  0  0  0  0  0  0  0  0
   37.5810   26.8600   43.0640 C   0  0  0  0  0  0  0  0  0  0  0  0
   37.7050   26.7470   41.7300 C   0  0  0  0  0  0  0  0  0  0  0  0
   37.6470   30.2280   43.4460 H   0  0  0  0  0  0  0  0  0  0  0  0
   37.4600   28.1630   44.7500 H   0  0  0  0  0  0  0  0  0  0  0  0
   37.4950   25.9820   43.6840 H   0  0  0  0  0  0  0  0  0  0  0  0
   36.9010   32.0280   39.4920 C   0  0  0  0  0  0  0  0  0  0  0  0
   38.1490   32.6300   39.2610 C   0  0  0  0  0  0  0  0  0  0  0  0
   39.2780   32.0270   39.8270 C   0  0  0  0  0  0  0  0  0  0  0  0
   39.1290   30.8980   40.5700 N   0  0  0  0  0  0  0  0  0  0  0  0
   37.9060   30.3420   40.7740 C   0  0  0  0  0  0  0  0  0  0  0  0
   36.8030   30.9110   40.2340 N   0  0  0  0  0  0  0  0  0  0  0  0
   36.0400   32.5050   39.0480 H   0  0  0  0  0  0  0  0  0  0  0  0
   38.2830   33.5290   38.6710 H   0  0  0  0  0  0  0  0  0  0  0  0
   40.6610   32.5740   39.6520 C   0  0  0  0  0  0  0  0  0  0  0  0
   41.5820   31.5730   39.5840 F   0  0  0  0  0  0  0  0  0  0  0  0
   40.7020   33.2970   38.4620 F   0  0  0  0  0  0  0  0  0  0  0  0
   40.9000   33.4130   40.7120 F   0  0  0  0  0  0  0  0  0  0  0  0
   37.7340   25.4780   41.0090 C   0  0  0  0  0  0  0  0  0  0  0  0
   36.6090   24.7950   40.6060 C   0  0  0  0  0  0  0  0  0  0  0  0
   35.6380   25.2150   40.8330 H   0  0  0  0  0  0  0  0  0  0  0  0
   36.6270   23.5980   39.9250 C   0  0  0  0  0  0  0  0  0  0  0  0
   35.6740   23.1280   39.6470 H   0  0  0  0  0  0  0  0  0  0  0  0
   37.8400   23.0200   39.6130 C   0  0  0  0  0  3  0  0  0  0  0  0
   38.9690   23.7010   40.0140 C   0  0  0  0  0  3  0  0  0  0  0  0
   38.8910   24.8510   40.6660 N   0  0  0  0  0  0  0  0  0  0  0  0
  1  2  1  0  0  0  0
  2  3  2  0  0  0  0
  2  7  1  0  0  0  0
  3  4  1  0  0  0  0
  4  8  1  0  0  0  0
  4  5  2  0  0  0  0
  5  9  1  0  0  0  0
  6  5  1  0  0  0  0
  6 10  1  0  0  0  0
  7  6  2  0  0  0  0
 11 16  1  0  0  0  0
 12 11  2  0  0  0  0
 12 13  1  0  0  0  0
 13 14  2  0  0  0  0
 14 15  1  0  0  0  0
 15  3  1  0  0  0  0
 16 15  2  0  0  0  0
 17 11  1  0  0  0  0
 18 12  1  0  0  0  0
 19 13  1  0  0  0  0
 19 22  1  0  0  0  0
 20 19  1  0  0  0  0
 21 19  1  0  0  0  0
 23  7  1  0  0  0  0
 24 25  1  0  0  0  0
 24 23  2  0  0  0  0
 26 24  1  0  0  0  0
 27 26  1  0  0  0  0
 28 26  2  0  0  0  0
 28 29  1  0  0  0  0
 29 30  2  0  0  0  0
 30 23  1  0  0  0  0
M  END
>  <minimizedAffinity>
-5.29999638

$$$$
