
 OpenBabel03252508173D

 46 50  0  0  1  0  0  0  0  0999 V2000
   47.2450   31.0650   46.9200 C   0  0  0  0  0  0  0  0  0  0  0  0
   46.4070   30.3090   46.8940 H   0  0  0  0  0  0  0  0  0  0  0  0
   48.1100   30.5490   46.5300 H   0  0  0  0  0  0  0  0  0  0  0  0
   47.3600   31.6840   48.2640 C   0  0  1  0  0  0  0  0  0  0  0  0
   47.0620   30.7870   49.4190 C   0  0  0  0  0  0  0  0  0  0  0  0
   48.4310   31.2550   49.1940 C   0  0  1  0  0  0  0  0  0  0  0  0
   46.7750   32.6440   48.4080 H   0  0  0  0  0  0  0  0  0  0  0  0
   46.5230   31.1110   50.3150 H   0  0  0  0  0  0  0  0  0  0  0  0
   46.8760   29.7030   49.2000 H   0  0  0  0  0  0  0  0  0  0  0  0
   48.7700   32.0640   49.8730 H   0  0  0  0  0  0  0  0  0  0  0  0
   49.4850   30.3580   48.6760 C   0  0  2  0  0  0  0  0  0  0  0  0
   49.9560   29.2680   49.6660 C   0  0  0  0  0  0  0  0  0  0  0  0
   50.8590   30.3660   49.3560 C   0  0  2  0  0  0  0  0  0  0  0  0
   49.3840   29.9060   47.6640 H   0  0  0  0  0  0  0  0  0  0  0  0
   49.4980   29.2820   50.6760 H   0  0  0  0  0  0  0  0  0  0  0  0
   50.1880   28.2660   49.3200 H   0  0  0  0  0  0  0  0  0  0  0  0
   51.6540   30.1740   48.5700 H   0  0  0  0  0  0  0  0  0  0  0  0
   51.1710   31.4580   50.2730 C   0  0  0  0  0  0  0  0  0  0  0  0
   51.1310   31.4350   51.6430 C   0  0  0  0  0  0  0  0  0  0  0  0
   50.8570   30.5050   52.1250 H   0  0  0  0  0  0  0  0  0  0  0  0
   51.4160   32.4770   52.4810 C   0  0  0  0  0  0  0  0  0  0  0  0
   51.3580   32.3710   53.5520 H   0  0  0  0  0  0  0  0  0  0  0  0
   51.7840   33.6820   51.9200 C   0  0  0  0  0  3  0  0  0  0  0  0
   51.8330   33.7280   50.5470 C   0  0  0  0  0  3  0  0  0  0  0  0
   51.5410   32.6710   49.7690 N   0  0  0  0  0  0  0  0  0  0  0  0
   46.1050   33.0030   46.2020 C   0  0  0  0  0  3  0  0  0  0  0  0
   46.9500   32.1200   45.8750 C   0  0  0  0  0  3  0  0  0  0  0  0
   44.5390   35.8710   44.4970 C   0  0  0  0  0  0  0  0  0  0  0  0
   45.1930   35.9060   43.2760 C   0  0  0  0  0  0  0  0  0  0  0  0
   46.1450   34.9480   43.0670 C   0  0  0  0  0  0  0  0  0  0  0  0
   46.4110   34.0250   44.0300 N   0  0  0  0  0  0  0  0  0  0  0  0
   45.7480   34.0240   45.2140 C   0  0  0  0  0  0  0  0  0  0  0  0
   44.8290   34.9500   45.4140 N   0  0  0  0  0  0  0  0  0  0  0  0
   43.7860   36.6290   44.6660 H   0  0  0  0  0  0  0  0  0  0  0  0
   45.0280   36.6050   42.4850 H   0  0  0  0  0  0  0  0  0  0  0  0
   46.9140   34.8600   41.8340 C   0  0  0  0  0  0  0  0  0  0  0  0
   48.1230   35.4900   41.6330 C   0  0  0  0  0  0  0  0  0  0  0  0
   48.8510   35.4050   40.4630 C   0  0  0  0  0  0  0  0  0  0  0  0
   48.3660   34.6580   39.4230 C   0  0  0  0  0  0  0  0  0  0  0  0
   47.1660   34.0090   39.5700 C   0  0  0  0  0  0  0  0  0  0  0  0
   46.4750   34.1250   40.7630 C   0  0  0  0  0  0  0  0  0  0  0  0
   48.5350   36.0950   42.4480 H   0  0  0  0  0  0  0  0  0  0  0  0
   49.7990   35.9210   40.3520 H   0  0  0  0  0  0  0  0  0  0  0  0
   48.9390   34.5920   38.5050 H   0  0  0  0  0  0  0  0  0  0  0  0
   46.7510   33.4060   38.7650 H   0  0  0  0  0  0  0  0  0  0  0  0
   45.5330   33.5920   40.8260 H   0  0  0  0  0  0  0  0  0  0  0  0
  1  4  1  0  0  0  0
  2  1  1  0  0  0  0
  3  1  1  0  0  0  0
  4  7  1  1  0  0  0
  4  6  1  0  0  0  0
  4  5  1  0  0  0  0
  5  8  1  0  0  0  0
  6  5  1  0  0  0  0
  6 10  1  1  0  0  0
  9  5  1  0  0  0  0
 11 14  1  6  0  0  0
 11  6  1  0  0  0  0
 11 13  1  0  0  0  0
 11 12  1  0  0  0  0
 12 15  1  0  0  0  0
 13 17  1  6  0  0  0
 13 12  1  0  0  0  0
 13 18  1  0  0  0  0
 16 12  1  0  0  0  0
 18 19  1  0  0  0  0
 19 20  1  0  0  0  0
 19 21  2  0  0  0  0
 21 22  1  0  0  0  0
 23 21  1  0  0  0  0
 24 23  2  0  0  0  0
 25 18  2  0  0  0  0
 25 24  1  0  0  0  0
 27 26  2  0  0  0  0
 27  1  1  0  0  0  0
 28 34  1  0  0  0  0
 28 33  1  0  0  0  0
 29 28  2  0  0  0  0
 30 29  1  0  0  0  0
 30 31  2  0  0  0  0
 31 32  1  0  0  0  0
 32 33  2  0  0  0  0
 32 26  1  0  0  0  0
 35 29  1  0  0  0  0
 36 30  1  0  0  0  0
 37 36  1  0  0  0  0
 37 42  1  0  0  0  0
 38 37  2  0  0  0  0
 39 40  2  0  0  0  0
 39 38  1  0  0  0  0
 40 41  1  0  0  0  0
 41 46  1  0  0  0  0
 41 36  2  0  0  0  0
 43 38  1  0  0  0  0
 44 39  1  0  0  0  0
 45 40  1  0  0  0  0
M  END
>  <minimizedAffinity>
-7.01495981

>  <minimizedRMSD>
1.76752698

$$$$
