
 OpenBabel03252507253D

 26 28  0  0  0  0  0  0  0  0999 V2000
   45.9500   33.5470   45.7170 C   0  0  0  0  0  0  0  0  0  0  0  0
   44.9530   34.4620   46.0610 C   0  0  0  0  0  0  0  0  0  0  0  0
   44.6070   35.4240   45.0890 C   0  0  0  0  0  0  0  0  0  0  0  0
   45.2530   35.4160   43.8780 N   0  0  0  0  0  0  0  0  0  0  0  0
   46.2040   34.5060   43.6140 C   0  0  0  0  0  0  0  0  0  0  0  0
   46.5640   33.5730   44.5090 N   0  0  0  0  0  0  0  0  0  0  0  0
   44.4570   34.4480   47.0230 H   0  0  0  0  0  0  0  0  0  0  0  0
   43.8350   36.1690   45.2910 H   0  0  0  0  0  0  0  0  0  0  0  0
   46.8660   34.5350   42.3090 C   0  0  0  0  0  0  0  0  0  0  0  0
   48.0020   35.2910   42.1130 C   0  0  0  0  0  0  0  0  0  0  0  0
   48.6920   35.3820   40.9210 C   0  0  0  0  0  0  0  0  0  0  0  0
   48.1450   34.6300   39.8870 C   0  0  0  0  0  0  0  0  0  0  0  0
   47.0040   33.8600   40.0590 C   0  0  0  0  0  0  0  0  0  0  0  0
   46.3810   33.8280   41.2740 N   0  0  0  0  0  0  0  0  0  0  0  0
   48.3740   35.8560   42.9650 H   0  0  0  0  0  0  0  0  0  0  0  0
   49.5780   35.9910   40.8240 H   0  0  0  0  0  0  0  0  0  0  0  0
   48.6310   34.6470   38.9160 H   0  0  0  0  0  0  0  0  0  0  0  0
   46.6250   33.2940   39.2100 H   0  0  0  0  0  0  0  0  0  0  0  0
   46.3270   32.5470   46.6930 C   0  0  0  0  0  0  0  0  0  0  0  0
   45.6600   31.3420   46.7650 C   0  0  0  0  0  0  0  0  0  0  0  0
   44.8300   31.1320   46.0720 H   0  0  0  0  0  0  0  0  0  0  0  0
   45.9670   30.3590   47.6620 C   0  0  0  0  0  0  0  0  0  0  0  0
   45.4780   29.4000   47.7590 H   0  0  0  0  0  0  0  0  0  0  0  0
   47.0210   30.6780   48.5100 C   0  0  0  0  0  3  0  0  0  0  0  0
   47.7300   31.8840   48.4790 C   0  0  0  0  0  3  0  0  0  0  0  0
   47.3360   32.7770   47.5490 N   0  0  0  0  0  0  0  0  0  0  0  0
  1  2  1  0  0  0  0
  1 19  1  0  0  0  0
  2  7  1  0  0  0  0
  3  8  1  0  0  0  0
  3  2  2  0  0  0  0
  4  3  1  0  0  0  0
  5  4  2  0  0  0  0
  5  6  1  0  0  0  0
  6  1  2  0  0  0  0
  9  5  1  0  0  0  0
 10  9  1  0  0  0  0
 10 15  1  0  0  0  0
 11 10  2  0  0  0  0
 12 13  2  0  0  0  0
 12 11  1  0  0  0  0
 13 14  1  0  0  0  0
 14  9  2  0  0  0  0
 16 11  1  0  0  0  0
 17 12  1  0  0  0  0
 18 13  1  0  0  0  0
 19 20  2  0  0  0  0
 19 26  1  0  0  0  0
 20 22  1  0  0  0  0
 21 20  1  0  0  0  0
 22 23  1  0  0  0  0
 22 24  2  0  0  0  0
 25 24  1  0  0  0  0
 26 25  2  0  0  0  0
M  END
>  <minimizedAffinity>
-5.78685379

>  <minimizedRMSD>
0.601788282

$$$$
