
 OpenBabel03252507253D

 26 28  0  0  0  0  0  0  0  0999 V2000
   45.9350   33.5910   45.6090 C   0  0  0  0  0  0  0  0  0  0  0  0
   44.9410   34.5140   45.9450 C   0  0  0  0  0  0  0  0  0  0  0  0
   44.6170   35.4840   44.9720 C   0  0  0  0  0  0  0  0  0  0  0  0
   45.2790   35.4760   43.7700 N   0  0  0  0  0  0  0  0  0  0  0  0
   46.2250   34.5580   43.5140 C   0  0  0  0  0  0  0  0  0  0  0  0
   46.5640   33.6180   44.4090 N   0  0  0  0  0  0  0  0  0  0  0  0
   44.4330   34.5010   46.8990 H   0  0  0  0  0  0  0  0  0  0  0  0
   43.8500   36.2360   45.1680 H   0  0  0  0  0  0  0  0  0  0  0  0
   46.9040   34.5870   42.2170 C   0  0  0  0  0  0  0  0  0  0  0  0
   48.0460   35.3380   42.0390 C   0  0  0  0  0  0  0  0  0  0  0  0
   48.7520   35.4280   40.8560 C   0  0  0  0  0  0  0  0  0  0  0  0
   48.2160   34.6820   39.8140 C   0  0  0  0  0  0  0  0  0  0  0  0
   47.0680   33.9170   39.9680 C   0  0  0  0  0  0  0  0  0  0  0  0
   46.4290   33.8850   41.1740 N   0  0  0  0  0  0  0  0  0  0  0  0
   48.4100   35.8980   42.8970 H   0  0  0  0  0  0  0  0  0  0  0  0
   49.6430   36.0320   40.7730 H   0  0  0  0  0  0  0  0  0  0  0  0
   48.7150   34.6990   38.8480 H   0  0  0  0  0  0  0  0  0  0  0  0
   46.6980   33.3550   39.1130 H   0  0  0  0  0  0  0  0  0  0  0  0
   46.2890   32.5830   46.5850 C   0  0  0  0  0  0  0  0  0  0  0  0
   45.6430   31.3640   46.6110 C   0  0  0  0  0  0  0  0  0  0  0  0
   44.8460   31.1510   45.8810 H   0  0  0  0  0  0  0  0  0  0  0  0
   45.9310   30.3750   47.5050 C   0  0  0  0  0  0  0  0  0  0  0  0
   45.4560   29.4060   47.5680 H   0  0  0  0  0  0  0  0  0  0  0  0
   46.9430   30.6990   48.4010 C   0  0  0  0  0  3  0  0  0  0  0  0
   47.6290   31.9190   48.4180 C   0  0  0  0  0  3  0  0  0  0  0  0
   47.2570   32.8190   47.4850 N   0  0  0  0  0  0  0  0  0  0  0  0
  1  2  1  0  0  0  0
  1 19  1  0  0  0  0
  2  7  1  0  0  0  0
  3  8  1  0  0  0  0
  3  2  2  0  0  0  0
  4  3  1  0  0  0  0
  5  4  2  0  0  0  0
  5  6  1  0  0  0  0
  6  1  2  0  0  0  0
  9  5  1  0  0  0  0
 10  9  1  0  0  0  0
 10 15  1  0  0  0  0
 11 10  2  0  0  0  0
 12 13  2  0  0  0  0
 12 11  1  0  0  0  0
 13 14  1  0  0  0  0
 14  9  2  0  0  0  0
 16 11  1  0  0  0  0
 17 12  1  0  0  0  0
 18 13  1  0  0  0  0
 19 20  2  0  0  0  0
 19 26  1  0  0  0  0
 20 22  1  0  0  0  0
 21 20  1  0  0  0  0
 22 23  1  0  0  0  0
 22 24  2  0  0  0  0
 24 25  1  0  0  0  0
 26 25  2  0  0  0  0
M  END
>  <minimizedAffinity>
-5.79157114

>  <minimizedRMSD>
0.502918184

$$$$
