
 OpenBabel03252505093D

 42 45  0  0  1  0  0  0  0  0999 V2000
   37.7710   32.8390   40.0760 C   0  0  0  0  0  0  0  0  0  0  0  0
   37.3940   31.6700   40.7840 C   0  0  0  0  0  0  0  0  0  0  0  0
   38.3650   30.6290   40.8870 C   0  0  0  0  0  0  0  0  0  0  0  0
   39.5750   30.8030   40.3140 N   0  0  0  0  0  0  0  0  0  0  0  0
   39.8840   31.9290   39.6530 C   0  0  0  0  0  0  0  0  0  0  0  0
   38.9910   32.9550   39.5280 N   0  0  0  0  0  0  0  0  0  0  0  0
   37.0160   33.6070   40.0160 H   0  0  0  0  0  0  0  0  0  0  0  0
   36.4180   31.5520   41.2350 H   0  0  0  0  0  0  0  0  0  0  0  0
   41.2420   32.0520   39.0410 C   0  0  2  0  0  0  0  0  0  0  0  0
   42.1180   32.6540   40.1050 C   0  0  0  0  0  0  0  0  0  0  0  0
   42.4690   34.0700   39.9510 C   0  0  0  0  0  0  0  0  0  0  0  0
   43.0950   34.1850   38.5590 C   0  0  0  0  0  0  0  0  0  0  0  0
   42.1400   33.8900   37.4940 C   0  0  0  0  0  0  0  0  0  0  0  0
   41.1990   32.7770   37.7910 C   0  0  0  0  0  0  0  0  0  0  0  0
   41.5590   31.0050   38.8500 H   0  0  0  0  0  0  0  0  0  0  0  0
   43.0590   32.0650   40.1400 H   0  0  0  0  0  0  0  0  0  0  0  0
   41.6840   32.5120   41.1360 H   0  0  0  0  0  0  0  0  0  0  0  0
   41.5890   34.7390   39.9600 H   0  0  0  0  0  0  0  0  0  0  0  0
   43.2320   34.3350   40.6810 H   0  0  0  0  0  0  0  0  0  0  0  0
   43.3010   35.2840   38.4600 H   0  0  0  0  0  0  0  0  0  0  0  0
   44.0000   33.5580   38.4920 H   0  0  0  0  0  0  0  0  0  0  0  0
   41.9850   34.3240   36.5380 H   0  0  0  0  0  0  0  0  0  0  0  0
   40.2140   32.3930   36.8300 N   0  0  0  0  0  0  0  0  0  0  0  0
   40.3550   31.4230   36.4940 H   0  0  0  0  0  0  0  0  0  0  0  0
   39.5400   33.1880   36.6600 H   0  0  0  0  0  0  0  0  0  0  0  0
   38.0050   29.4190   41.6110 C   0  0  0  0  0  0  0  0  0  0  0  0
   38.0760   29.4290   42.9670 C   0  0  0  0  0  0  0  0  0  0  0  0
   37.7190   28.2410   43.6190 C   0  0  0  0  0  0  0  0  0  0  0  0
   37.3340   27.1830   42.8240 C   0  0  0  0  0  0  0  0  0  0  0  0
   37.2650   27.1750   41.4620 C   0  0  0  0  0  0  0  0  0  0  0  0
   37.6220   28.3550   40.8790 N   0  0  0  0  0  0  0  0  0  0  0  0
   38.3840   30.2850   43.5490 H   0  0  0  0  0  0  0  0  0  0  0  0
   37.7570   28.1950   44.6960 H   0  0  0  0  0  0  0  0  0  0  0  0
   37.0700   26.2890   43.3840 H   0  0  0  0  0  0  0  0  0  0  0  0
   36.8470   26.0130   40.6850 C   0  0  0  0  0  0  0  0  0  0  0  0
   36.8770   24.7650   41.2720 C   0  0  0  0  0  0  0  0  0  0  0  0
   37.2100   24.6850   42.2900 H   0  0  0  0  0  0  0  0  0  0  0  0
   36.4620   23.7400   40.4470 C   0  0  0  0  0  0  0  0  0  0  0  0
   36.4720   22.7310   40.8790 H   0  0  0  0  0  0  0  0  0  0  0  0
   36.0530   23.9690   39.1440 C   0  0  0  0  0  3  0  0  0  0  0  0
   36.0430   25.2580   38.6010 C   0  0  0  0  0  3  0  0  0  0  0  0
   36.4530   26.2530   39.4210 N   0  0  0  0  0  0  0  0  0  0  0  0
  1  2  1  0  0  0  0
  2  3  2  0  0  0  0
  2  8  1  0  0  0  0
  3 26  1  0  0  0  0
  4  3  1  0  0  0  0
  5  4  2  0  0  0  0
  6  5  1  0  0  0  0
  6  1  2  0  0  0  0
  7  1  1  0  0  0  0
  9 15  1  6  0  0  0
  9  5  1  0  0  0  0
  9 10  1  0  0  0  0
 10 16  1  0  0  0  0
 10 17  1  0  0  0  0
 11 18  1  0  0  0  0
 11 10  1  0  0  0  0
 11 19  1  0  0  0  0
 12 11  1  0  0  0  0
 13 14  2  0  0  0  0
 13 12  1  0  0  0  0
 14  9  1  0  0  0  0
 20 12  1  0  0  0  0
 21 12  1  0  0  0  0
 22 13  1  0  0  0  0
 23 14  1  0  0  0  0
 24 23  1  0  0  0  0
 25 23  1  0  0  0  0
 26 27  1  0  0  0  0
 27 32  1  0  0  0  0
 27 28  2  0  0  0  0
 28 33  1  0  0  0  0
 29 34  1  0  0  0  0
 29 28  1  0  0  0  0
 30 29  2  0  0  0  0
 31 30  1  0  0  0  0
 31 26  2  0  0  0  0
 35 36  1  0  0  0  0
 35 30  1  0  0  0  0
 36 37  1  0  0  0  0
 38 39  1  0  0  0  0
 38 36  2  0  0  0  0
 40 38  1  0  0  0  0
 41 40  2  0  0  0  0
 41 42  1  0  0  0  0
 42 35  2  0  0  0  0
M  END
>  <minimizedAffinity>
-6.79656029

$$$$

 OpenBabel03252505093D

 42 45  0  0  1  0  0  0  0  0999 V2000
   32.8270   26.7520   36.1740 C   0  0  0  0  0  0  0  0  0  0  0  0
   34.0310   27.2450   36.7350 C   0  0  0  0  0  0  0  0  0  0  0  0
   34.0130   28.5770   37.2470 C   0  0  0  0  0  0  0  0  0  0  0  0
   32.8700   29.2920   37.1740 N   0  0  0  0  0  0  0  0  0  0  0  0
   31.7540   28.7790   36.6330 C   0  0  0  0  0  0  0  0  0  0  0  0
   31.7190   27.5090   36.1300 N   0  0  0  0  0  0  0  0  0  0  0  0
   32.8720   25.7430   35.7960 H   0  0  0  0  0  0  0  0  0  0  0  0
   34.9370   26.6550   36.7820 H   0  0  0  0  0  0  0  0  0  0  0  0
   30.5260   29.6280   36.5830 C   0  0  2  0  0  0  0  0  0  0  0  0
   30.5830   30.3550   35.2680 C   0  0  0  0  0  0  0  0  0  0  0  0
   30.9560   31.7730   35.3120 C   0  0  0  0  0  0  0  0  0  0  0  0
   29.9690   32.4230   36.2840 C   0  0  0  0  0  0  0  0  0  0  0  0
   30.1240   31.9260   37.6480 C   0  0  0  0  0  0  0  0  0  0  0  0
   30.4130   30.4700   37.7520 C   0  0  0  0  0  0  0  0  0  0  0  0
   29.6840   28.9030   36.5680 H   0  0  0  0  0  0  0  0  0  0  0  0
   29.5820   30.2730   34.7930 H   0  0  0  0  0  0  0  0  0  0  0  0
   31.2630   29.8380   34.5320 H   0  0  0  0  0  0  0  0  0  0  0  0
   31.9670   31.9440   35.7230 H   0  0  0  0  0  0  0  0  0  0  0  0
   30.7980   32.2190   34.3300 H   0  0  0  0  0  0  0  0  0  0  0  0
   30.3170   33.4900   36.3280 H   0  0  0  0  0  0  0  0  0  0  0  0
   28.9360   32.3110   35.9150 H   0  0  0  0  0  0  0  0  0  0  0  0
   30.0710   32.4100   38.5910 H   0  0  0  0  0  0  0  0  0  0  0  0
   30.5880   29.8630   39.0330 N   0  0  0  0  0  0  0  0  0  0  0  0
   29.8620   29.1500   39.2290 H   0  0  0  0  0  0  0  0  0  0  0  0
   31.4310   30.2720   39.5190 H   0  0  0  0  0  0  0  0  0  0  0  0
   35.2360   29.1080   37.8310 C   0  0  0  0  0  0  0  0  0  0  0  0
   36.0350   29.8930   37.0630 C   0  0  0  0  0  0  0  0  0  0  0  0
   37.2000   30.3800   37.6700 C   0  0  0  0  0  0  0  0  0  0  0  0
   37.4210   30.0150   38.9810 C   0  0  0  0  0  0  0  0  0  0  0  0
   36.6190   29.2250   39.7500 C   0  0  0  0  0  0  0  0  0  0  0  0
   35.4990   28.7790   39.1110 N   0  0  0  0  0  0  0  0  0  0  0  0
   35.8190   30.1530   36.0380 H   0  0  0  0  0  0  0  0  0  0  0  0
   37.8690   31.0100   37.1050 H   0  0  0  0  0  0  0  0  0  0  0  0
   38.3400   30.4210   39.3980 H   0  0  0  0  0  0  0  0  0  0  0  0
   36.9190   28.8800   41.1350 C   0  0  0  0  0  0  0  0  0  0  0  0
   36.1970   27.8800   41.7510 C   0  0  0  0  0  0  0  0  0  0  0  0
   35.4300   27.3800   41.1890 H   0  0  0  0  0  0  0  0  0  0  0  0
   36.5650   27.6390   43.0590 C   0  0  0  0  0  0  0  0  0  0  0  0
   36.0120   26.8480   43.5840 H   0  0  0  0  0  0  0  0  0  0  0  0
   37.5760   28.3540   43.6800 C   0  0  0  0  0  3  0  0  0  0  0  0
   38.2750   29.3590   43.0040 C   0  0  0  0  0  3  0  0  0  0  0  0
   37.9040   29.5850   41.7230 N   0  0  0  0  0  0  0  0  0  0  0  0
  1  2  1  0  0  0  0
  2  8  1  0  0  0  0
  2  3  2  0  0  0  0
  3 26  1  0  0  0  0
  4  3  1  0  0  0  0
  5  4  2  0  0  0  0
  6  1  2  0  0  0  0
  6  5  1  0  0  0  0
  7  1  1  0  0  0  0
  9 15  1  6  0  0  0
  9  5  1  0  0  0  0
  9 14  1  0  0  0  0
 10 11  1  0  0  0  0
 10  9  1  0  0  0  0
 11 18  1  0  0  0  0
 11 12  1  0  0  0  0
 12 20  1  0  0  0  0
 12 13  1  0  0  0  0
 13 14  2  0  0  0  0
 13 22  1  0  0  0  0
 14 23  1  0  0  0  0
 16 10  1  0  0  0  0
 17 10  1  0  0  0  0
 19 11  1  0  0  0  0
 21 12  1  0  0  0  0
 23 24  1  0  0  0  0
 23 25  1  0  0  0  0
 26 31  1  0  0  0  0
 27 28  1  0  0  0  0
 27 26  2  0  0  0  0
 28 29  2  0  0  0  0
 29 34  1  0  0  0  0
 29 30  1  0  0  0  0
 30 35  1  0  0  0  0
 31 30  2  0  0  0  0
 32 27  1  0  0  0  0
 33 28  1  0  0  0  0
 35 42  2  0  0  0  0
 35 36  1  0  0  0  0
 36 38  2  0  0  0  0
 37 36  1  0  0  0  0
 38 39  1  0  0  0  0
 38 40  1  0  0  0  0
 41 40  2  0  0  0  0
 42 41  1  0  0  0  0
M  END
>  <minimizedAffinity>
-6.488904

$$$$

 OpenBabel03252505093D

 42 45  0  0  1  0  0  0  0  0999 V2000
   35.8320   24.5330   38.8250 C   0  0  0  0  0  0  0  0  0  0  0  0
   35.9900   25.7710   38.1530 C   0  0  0  0  0  0  0  0  0  0  0  0
   36.6170   26.8300   38.8770 C   0  0  0  0  0  0  0  0  0  0  0  0
   37.0230   26.6070   40.1450 N   0  0  0  0  0  0  0  0  0  0  0  0
   36.8500   25.4150   40.7380 C   0  0  0  0  0  0  0  0  0  0  0  0
   36.2570   24.3700   40.0880 N   0  0  0  0  0  0  0  0  0  0  0  0
   35.3560   23.7540   38.2520 H   0  0  0  0  0  0  0  0  0  0  0  0
   35.6570   25.9280   37.1360 H   0  0  0  0  0  0  0  0  0  0  0  0
   37.3210   25.2390   42.1450 C   0  0  2  0  0  0  0  0  0  0  0  0
   37.4720   26.6270   42.7030 C   0  0  0  0  0  0  0  0  0  0  0  0
   38.8390   27.1410   42.8380 C   0  0  0  0  0  0  0  0  0  0  0  0
   39.5830   26.1010   43.6790 C   0  0  0  0  0  0  0  0  0  0  0  0
   39.7030   24.8160   42.9950 C   0  0  0  0  0  0  0  0  0  0  0  0
   38.5050   24.4130   42.2120 C   0  0  0  0  0  0  0  0  0  0  0  0
   36.4820   24.7240   42.6590 H   0  0  0  0  0  0  0  0  0  0  0  0
   36.9940   26.6420   43.7060 H   0  0  0  0  0  0  0  0  0  0  0  0
   36.8720   27.3830   42.1180 H   0  0  0  0  0  0  0  0  0  0  0  0
   39.3750   27.2130   41.8740 H   0  0  0  0  0  0  0  0  0  0  0  0
   38.8220   28.0730   43.4030 H   0  0  0  0  0  0  0  0  0  0  0  0
   40.6310   26.5030   43.7170 H   0  0  0  0  0  0  0  0  0  0  0  0
   39.1120   26.0010   44.6720 H   0  0  0  0  0  0  0  0  0  0  0  0
   40.4910   24.1070   42.9480 H   0  0  0  0  0  0  0  0  0  0  0  0
   38.4990   23.1770   41.4940 N   0  0  0  0  0  0  0  0  0  0  0  0
   37.7780   22.5240   41.8510 H   0  0  0  0  0  0  0  0  0  0  0  0
   39.2390   23.1880   40.7410 H   0  0  0  0  0  0  0  0  0  0  0  0
   36.7940   28.1110   38.2090 C   0  0  0  0  0  0  0  0  0  0  0  0
   36.5330   28.1910   36.8790 C   0  0  0  0  0  0  0  0  0  0  0  0
   36.7180   29.4450   36.2820 C   0  0  0  0  0  0  0  0  0  0  0  0
   37.1470   30.4700   37.0990 C   0  0  0  0  0  0  0  0  0  0  0  0
   37.4100   30.3860   38.4340 C   0  0  0  0  0  0  0  0  0  0  0  0
   37.2130   29.1450   38.9640 N   0  0  0  0  0  0  0  0  0  0  0  0
   36.1980   27.3590   36.2780 H   0  0  0  0  0  0  0  0  0  0  0  0
   36.5240   29.5650   35.2270 H   0  0  0  0  0  0  0  0  0  0  0  0
   37.2730   31.4170   36.5810 H   0  0  0  0  0  0  0  0  0  0  0  0
   37.8620   31.5180   39.2370 C   0  0  0  0  0  0  0  0  0  0  0  0
   37.2580   32.7460   39.0680 C   0  0  0  0  0  0  0  0  0  0  0  0
   36.4670   32.8340   38.3460 H   0  0  0  0  0  0  0  0  0  0  0  0
   37.7640   33.7420   39.8770 C   0  0  0  0  0  0  0  0  0  0  0  0
   37.3080   34.7360   39.7710 H   0  0  0  0  0  0  0  0  0  0  0  0
   38.7920   33.5060   40.7750 C   0  0  0  0  0  3  0  0  0  0  0  0
   39.3670   32.2380   40.9030 C   0  0  0  0  0  3  0  0  0  0  0  0
   38.8610   31.2700   40.1040 N   0  0  0  0  0  0  0  0  0  0  0  0
  1  6  1  0  0  0  0
  2  1  2  0  0  0  0
  2  3  1  0  0  0  0
  3  4  2  0  0  0  0
  4  5  1  0  0  0  0
  5  9  1  0  0  0  0
  6  5  2  0  0  0  0
  7  1  1  0  0  0  0
  8  2  1  0  0  0  0
  9 14  1  0  0  0  0
  9 15  1  1  0  0  0
  9 10  1  0  0  0  0
 10 11  1  0  0  0  0
 10 16  1  0  0  0  0
 11 19  1  0  0  0  0
 11 12  1  0  0  0  0
 12 20  1  0  0  0  0
 12 21  1  0  0  0  0
 13 12  1  0  0  0  0
 14 13  2  0  0  0  0
 17 10  1  0  0  0  0
 18 11  1  0  0  0  0
 22 13  1  0  0  0  0
 23 24  1  0  0  0  0
 23 14  1  0  0  0  0
 25 23  1  0  0  0  0
 26  3  1  0  0  0  0
 26 31  1  0  0  0  0
 27 26  2  0  0  0  0
 28 27  1  0  0  0  0
 28 29  2  0  0  0  0
 29 30  1  0  0  0  0
 30 31  2  0  0  0  0
 30 35  1  0  0  0  0
 32 27  1  0  0  0  0
 33 28  1  0  0  0  0
 34 29  1  0  0  0  0
 35 42  1  0  0  0  0
 36 35  2  0  0  0  0
 36 38  1  0  0  0  0
 37 36  1  0  0  0  0
 38 40  2  0  0  0  0
 39 38  1  0  0  0  0
 40 41  1  0  0  0  0
 42 41  2  0  0  0  0
M  END
>  <minimizedAffinity>
-6.44851303

$$$$

 OpenBabel03252505093D

 42 45  0  0  1  0  0  0  0  0999 V2000
   34.3480   28.6390   35.2660 C   0  0  0  0  0  0  0  0  0  0  0  0
   35.0880   28.4430   36.4590 C   0  0  0  0  0  0  0  0  0  0  0  0
   34.4110   28.6860   37.6910 C   0  0  0  0  0  0  0  0  0  0  0  0
   33.1220   29.0850   37.6640 N   0  0  0  0  0  0  0  0  0  0  0  0
   32.4640   29.2560   36.5060 C   0  0  0  0  0  0  0  0  0  0  0  0
   33.0670   29.0360   35.3000 N   0  0  0  0  0  0  0  0  0  0  0  0
   34.8870   28.4470   34.3510 H   0  0  0  0  0  0  0  0  0  0  0  0
   36.1220   28.1230   36.4580 H   0  0  0  0  0  0  0  0  0  0  0  0
   31.0390   29.7020   36.5500 C   0  0  2  0  0  0  0  0  0  0  0  0
   30.8250   30.5150   35.3040 C   0  0  0  0  0  0  0  0  0  0  0  0
   30.7640   31.9720   35.4670 C   0  0  0  0  0  0  0  0  0  0  0  0
   29.6700   32.2190   36.5080 C   0  0  0  0  0  0  0  0  0  0  0  0
   30.0210   31.6840   37.8200 C   0  0  0  0  0  0  0  0  0  0  0  0
   30.7300   30.3770   37.7910 C   0  0  0  0  0  0  0  0  0  0  0  0
   30.4490   28.7630   36.4850 H   0  0  0  0  0  0  0  0  0  0  0  0
   29.8740   30.1770   34.8390 H   0  0  0  0  0  0  0  0  0  0  0  0
   31.5970   30.2840   34.5140 H   0  0  0  0  0  0  0  0  0  0  0  0
   31.6950   32.4040   35.8750 H   0  0  0  0  0  0  0  0  0  0  0  0
   30.4410   32.4280   34.5310 H   0  0  0  0  0  0  0  0  0  0  0  0
   29.6890   33.3340   36.6400 H   0  0  0  0  0  0  0  0  0  0  0  0
   28.7020   31.8340   36.1460 H   0  0  0  0  0  0  0  0  0  0  0  0
   29.8660   32.0530   38.8030 H   0  0  0  0  0  0  0  0  0  0  0  0
   31.1290   29.7490   39.0100 N   0  0  0  0  0  0  0  0  0  0  0  0
   30.6550   28.8390   39.1540 H   0  0  0  0  0  0  0  0  0  0  0  0
   31.8340   30.3500   39.5170 H   0  0  0  0  0  0  0  0  0  0  0  0
   35.1470   28.4900   38.9320 C   0  0  0  0  0  0  0  0  0  0  0  0
   35.1190   29.4760   39.8660 C   0  0  0  0  0  0  0  0  0  0  0  0
   35.8410   29.2400   41.0430 C   0  0  0  0  0  0  0  0  0  0  0  0
   36.5080   28.0370   41.1370 C   0  0  0  0  0  0  0  0  0  0  0  0
   36.5360   27.0490   40.1980 C   0  0  0  0  0  0  0  0  0  0  0  0
   35.8160   27.3300   39.0730 N   0  0  0  0  0  0  0  0  0  0  0  0
   34.5800   30.4040   39.7480 H   0  0  0  0  0  0  0  0  0  0  0  0
   35.8510   29.9900   41.8190 H   0  0  0  0  0  0  0  0  0  0  0  0
   37.0510   27.9110   42.0710 H   0  0  0  0  0  0  0  0  0  0  0  0
   37.2670   25.7980   40.3680 C   0  0  0  0  0  0  0  0  0  0  0  0
   37.0160   25.0190   41.4780 C   0  0  0  0  0  0  0  0  0  0  0  0
   36.2860   25.3590   42.1890 H   0  0  0  0  0  0  0  0  0  0  0  0
   37.7630   23.8610   41.5370 C   0  0  0  0  0  0  0  0  0  0  0  0
   37.5910   23.2130   42.4080 H   0  0  0  0  0  0  0  0  0  0  0  0
   38.6800   23.5290   40.5540 C   0  0  0  0  0  3  0  0  0  0  0  0
   38.8920   24.3580   39.4480 C   0  0  0  0  0  3  0  0  0  0  0  0
   38.1540   25.4910   39.4030 N   0  0  0  0  0  0  0  0  0  0  0  0
  1  6  2  0  0  0  0
  1  2  1  0  0  0  0
  2  3  2  0  0  0  0
  3 26  1  0  0  0  0
  4  3  1  0  0  0  0
  5  9  1  0  0  0  0
  5  4  2  0  0  0  0
  6  5  1  0  0  0  0
  7  1  1  0  0  0  0
  8  2  1  0  0  0  0
  9 15  1  6  0  0  0
  9 14  1  0  0  0  0
 10 11  1  0  0  0  0
 10  9  1  0  0  0  0
 11 18  1  0  0  0  0
 11 12  1  0  0  0  0
 12 20  1  0  0  0  0
 12 13  1  0  0  0  0
 13 22  1  0  0  0  0
 14 13  2  0  0  0  0
 14 23  1  0  0  0  0
 16 10  1  0  0  0  0
 17 10  1  0  0  0  0
 19 11  1  0  0  0  0
 21 12  1  0  0  0  0
 23 24  1  0  0  0  0
 23 25  1  0  0  0  0
 26 31  2  0  0  0  0
 26 27  1  0  0  0  0
 27 28  2  0  0  0  0
 28 29  1  0  0  0  0
 28 33  1  0  0  0  0
 29 34  1  0  0  0  0
 30 35  1  0  0  0  0
 30 29  2  0  0  0  0
 31 30  1  0  0  0  0
 32 27  1  0  0  0  0
 35 36  1  0  0  0  0
 36 38  2  0  0  0  0
 36 37  1  0  0  0  0
 38 39  1  0  0  0  0
 40 38  1  0  0  0  0
 41 40  2  0  0  0  0
 42 41  1  0  0  0  0
 42 35  2  0  0  0  0
M  END
>  <minimizedAffinity>
-6.36526537

$$$$

 OpenBabel03252505093D

 42 45  0  0  1  0  0  0  0  0999 V2000
   36.8530   31.5720   39.2060 C   0  0  0  0  0  0  0  0  0  0  0  0
   38.1320   32.0980   38.8940 C   0  0  0  0  0  0  0  0  0  0  0  0
   39.1970   31.7970   39.7960 C   0  0  0  0  0  0  0  0  0  0  0  0
   38.9400   31.0410   40.8850 N   0  0  0  0  0  0  0  0  0  0  0  0
   37.7100   30.5670   41.1360 C   0  0  0  0  0  0  0  0  0  0  0  0
   36.6580   30.8250   40.3040 N   0  0  0  0  0  0  0  0  0  0  0  0
   36.0700   31.8170   38.5060 H   0  0  0  0  0  0  0  0  0  0  0  0
   38.3160   32.7020   38.0160 H   0  0  0  0  0  0  0  0  0  0  0  0
   37.4980   29.7390   42.3620 C   0  0  2  0  0  0  0  0  0  0  0  0
   38.8580   29.5600   42.9770 C   0  0  0  0  0  0  0  0  0  0  0  0
   39.4930   28.2480   42.8080 C   0  0  0  0  0  0  0  0  0  0  0  0
   38.4810   27.2340   43.3480 C   0  0  0  0  0  0  0  0  0  0  0  0
   37.2570   27.1930   42.5520 C   0  0  0  0  0  0  0  0  0  0  0  0
   36.7870   28.5160   42.0620 C   0  0  0  0  0  0  0  0  0  0  0  0
   36.8730   30.3750   43.0250 H   0  0  0  0  0  0  0  0  0  0  0  0
   38.7660   29.7640   44.0650 H   0  0  0  0  0  0  0  0  0  0  0  0
   39.5850   30.3470   42.6250 H   0  0  0  0  0  0  0  0  0  0  0  0
   39.6730   27.9850   41.7500 H   0  0  0  0  0  0  0  0  0  0  0  0
   40.3830   28.1940   43.4340 H   0  0  0  0  0  0  0  0  0  0  0  0
   38.9800   26.2470   43.1560 H   0  0  0  0  0  0  0  0  0  0  0  0
   38.2770   27.4260   44.4150 H   0  0  0  0  0  0  0  0  0  0  0  0
   36.6330   26.3900   42.2510 H   0  0  0  0  0  0  0  0  0  0  0  0
   35.6020   28.6090   41.2700 N   0  0  0  0  0  0  0  0  0  0  0  0
   34.8610   29.1600   41.7400 H   0  0  0  0  0  0  0  0  0  0  0  0
   35.7290   28.0900   40.3600 H   0  0  0  0  0  0  0  0  0  0  0  0
   40.5220   32.3210   39.4980 C   0  0  0  0  0  0  0  0  0  0  0  0
   40.9710   33.3900   40.2050 C   0  0  0  0  0  0  0  0  0  0  0  0
   42.2520   33.8580   39.8830 C   0  0  0  0  0  0  0  0  0  0  0  0
   42.9270   33.1910   38.8820 C   0  0  0  0  0  0  0  0  0  0  0  0
   42.4730   32.1190   38.1720 C   0  0  0  0  0  0  0  0  0  0  0  0
   41.2220   31.7050   38.5270 N   0  0  0  0  0  0  0  0  0  0  0  0
   40.4050   33.8810   40.9830 H   0  0  0  0  0  0  0  0  0  0  0  0
   42.6570   34.7040   40.4150 H   0  0  0  0  0  0  0  0  0  0  0  0
   43.9130   33.5990   38.6750 H   0  0  0  0  0  0  0  0  0  0  0  0
   43.2470   31.4630   37.1240 C   0  0  0  0  0  0  0  0  0  0  0  0
   42.6330   30.5230   36.3230 C   0  0  0  0  0  0  0  0  0  0  0  0
   41.5970   30.3000   36.4950 H   0  0  0  0  0  0  0  0  0  0  0  0
   43.4580   29.9670   35.3670 C   0  0  0  0  0  0  0  0  0  0  0  0
   43.0050   29.2140   34.7090 H   0  0  0  0  0  0  0  0  0  0  0  0
   44.7870   30.3380   35.2410 C   0  0  0  0  0  3  0  0  0  0  0  0
   45.3560   31.2990   36.0820 C   0  0  0  0  0  3  0  0  0  0  0  0
   44.5360   31.8350   37.0160 N   0  0  0  0  0  0  0  0  0  0  0  0
  1  6  1  0  0  0  0
  2  1  2  0  0  0  0
  2  3  1  0  0  0  0
  3  4  2  0  0  0  0
  4  5  1  0  0  0  0
  5  9  1  0  0  0  0
  6  5  2  0  0  0  0
  7  1  1  0  0  0  0
  8  2  1  0  0  0  0
  9 10  1  0  0  0  0
  9 15  1  1  0  0  0
 10 16  1  0  0  0  0
 11 10  1  0  0  0  0
 11 12  1  0  0  0  0
 11 19  1  0  0  0  0
 12 21  1  0  0  0  0
 13 12  1  0  0  0  0
 14  9  1  0  0  0  0
 14 13  2  0  0  0  0
 17 10  1  0  0  0  0
 18 11  1  0  0  0  0
 20 12  1  0  0  0  0
 22 13  1  0  0  0  0
 23 24  1  0  0  0  0
 23 14  1  0  0  0  0
 25 23  1  0  0  0  0
 26  3  1  0  0  0  0
 26 27  1  0  0  0  0
 27 32  1  0  0  0  0
 28 27  2  0  0  0  0
 28 33  1  0  0  0  0
 29 28  1  0  0  0  0
 30 31  1  0  0  0  0
 30 29  2  0  0  0  0
 31 26  2  0  0  0  0
 34 29  1  0  0  0  0
 35 30  1  0  0  0  0
 36 37  1  0  0  0  0
 36 35  2  0  0  0  0
 38 36  1  0  0  0  0
 39 38  1  0  0  0  0
 40 38  2  0  0  0  0
 40 41  1  0  0  0  0
 41 42  2  0  0  0  0
 42 35  1  0  0  0  0
M  END
>  <minimizedAffinity>
-6.32865667

$$$$

 OpenBabel03252505093D

 42 45  0  0  1  0  0  0  0  0999 V2000
   38.6100   34.3440   40.1620 C   0  0  0  0  0  0  0  0  0  0  0  0
   37.8240   33.1810   40.3610 C   0  0  0  0  0  0  0  0  0  0  0  0
   38.5190   31.9700   40.6610 C   0  0  0  0  0  0  0  0  0  0  0  0
   39.8670   31.9890   40.7380 N   0  0  0  0  0  0  0  0  0  0  0  0
   40.5650   33.1180   40.5410 C   0  0  0  0  0  0  0  0  0  0  0  0
   39.9480   34.3020   40.2530 N   0  0  0  0  0  0  0  0  0  0  0  0
   38.0560   35.2420   39.9380 H   0  0  0  0  0  0  0  0  0  0  0  0
   36.7450   33.1880   40.2940 H   0  0  0  0  0  0  0  0  0  0  0  0
   42.0550   33.0650   40.6390 C   0  0  2  0  0  0  0  0  0  0  0  0
   42.5530   32.9000   39.2300 C   0  0  0  0  0  0  0  0  0  0  0  0
   43.0310   31.5660   38.8490 C   0  0  0  0  0  0  0  0  0  0  0  0
   44.1010   31.2070   39.8810 C   0  0  0  0  0  0  0  0  0  0  0  0
   43.5510   31.0660   41.2270 C   0  0  0  0  0  0  0  0  0  0  0  0
   42.4920   32.0520   41.5730 C   0  0  0  0  0  0  0  0  0  0  0  0
   42.3470   34.0680   41.0190 H   0  0  0  0  0  0  0  0  0  0  0  0
   43.3840   33.6230   39.0790 H   0  0  0  0  0  0  0  0  0  0  0  0
   41.7840   33.2260   38.4720 H   0  0  0  0  0  0  0  0  0  0  0  0
   42.2490   30.7890   38.9170 H   0  0  0  0  0  0  0  0  0  0  0  0
   43.5140   31.6200   37.8740 H   0  0  0  0  0  0  0  0  0  0  0  0
   44.4030   30.1660   39.5870 H   0  0  0  0  0  0  0  0  0  0  0  0
   44.9300   31.9340   39.8450 H   0  0  0  0  0  0  0  0  0  0  0  0
   43.7630   30.3870   42.0140 H   0  0  0  0  0  0  0  0  0  0  0  0
   41.8720   32.0170   42.8600 N   0  0  0  0  0  0  0  0  0  0  0  0
   42.0530   32.8810   43.4030 H   0  0  0  0  0  0  0  0  0  0  0  0
   41.3530   31.1080   42.9910 H   0  0  0  0  0  0  0  0  0  0  0  0
   37.7370   30.7610   40.8730 C   0  0  0  0  0  0  0  0  0  0  0  0
   36.4300   30.7600   40.5040 C   0  0  0  0  0  0  0  0  0  0  0  0
   35.7190   29.5730   40.7280 C   0  0  0  0  0  0  0  0  0  0  0  0
   36.4130   28.5280   41.3000 C   0  0  0  0  0  0  0  0  0  0  0  0
   37.7240   28.5320   41.6730 C   0  0  0  0  0  0  0  0  0  0  0  0
   38.3680   29.7100   41.4310 N   0  0  0  0  0  0  0  0  0  0  0  0
   35.9280   31.6050   40.0570 H   0  0  0  0  0  0  0  0  0  0  0  0
   34.6780   29.5180   40.4520 H   0  0  0  0  0  0  0  0  0  0  0  0
   35.8100   27.6350   41.4510 H   0  0  0  0  0  0  0  0  0  0  0  0
   38.3930   27.3830   42.2750 C   0  0  0  0  0  0  0  0  0  0  0  0
   39.4170   27.5960   43.1740 C   0  0  0  0  0  0  0  0  0  0  0  0
   39.6940   28.6080   43.4060 H   0  0  0  0  0  0  0  0  0  0  0  0
   39.9760   26.4410   43.6790 C   0  0  0  0  0  0  0  0  0  0  0  0
   40.7960   26.5700   44.3990 H   0  0  0  0  0  0  0  0  0  0  0  0
   39.5310   25.1850   43.3020 C   0  0  0  0  0  3  0  0  0  0  0  0
   38.4870   25.0300   42.3850 C   0  0  0  0  0  3  0  0  0  0  0  0
   37.9480   26.1710   41.8960 N   0  0  0  0  0  0  0  0  0  0  0  0
  1  6  2  0  0  0  0
  1  2  1  0  0  0  0
  2  3  2  0  0  0  0
  3  4  1  0  0  0  0
  3 26  1  0  0  0  0
  5  9  1  0  0  0  0
  5  4  2  0  0  0  0
  6  5  1  0  0  0  0
  7  1  1  0  0  0  0
  8  2  1  0  0  0  0
  9 15  1  1  0  0  0
  9 14  1  0  0  0  0
 10  9  1  0  0  0  0
 11 18  1  0  0  0  0
 11 10  1  0  0  0  0
 11 12  1  0  0  0  0
 12 13  1  0  0  0  0
 13 14  2  0  0  0  0
 13 22  1  0  0  0  0
 14 23  1  0  0  0  0
 16 10  1  0  0  0  0
 17 10  1  0  0  0  0
 19 11  1  0  0  0  0
 20 12  1  0  0  0  0
 21 12  1  0  0  0  0
 23 25  1  0  0  0  0
 23 24  1  0  0  0  0
 26 31  1  0  0  0  0
 27 28  1  0  0  0  0
 27 26  2  0  0  0  0
 28 29  2  0  0  0  0
 29 34  1  0  0  0  0
 29 30  1  0  0  0  0
 30 35  1  0  0  0  0
 31 30  2  0  0  0  0
 32 27  1  0  0  0  0
 33 28  1  0  0  0  0
 35 36  1  0  0  0  0
 36 37  1  0  0  0  0
 36 38  2  0  0  0  0
 38 39  1  0  0  0  0
 40 38  1  0  0  0  0
 41 40  2  0  0  0  0
 42 35  2  0  0  0  0
 42 41  1  0  0  0  0
M  END
>  <minimizedAffinity>
-6.15881062

$$$$

 OpenBabel03252505093D

 42 45  0  0  1  0  0  0  0  0999 V2000
   35.2300   29.2960   40.2910 C   0  0  0  0  0  0  0  0  0  0  0  0
   35.9970   30.4680   40.0790 C   0  0  0  0  0  0  0  0  0  0  0  0
   37.2260   30.5800   40.7970 C   0  0  0  0  0  0  0  0  0  0  0  0
   37.5930   29.5810   41.6280 N   0  0  0  0  0  0  0  0  0  0  0  0
   36.8300   28.4900   41.7940 C   0  0  0  0  0  0  0  0  0  0  0  0
   35.6460   28.3350   41.1310 N   0  0  0  0  0  0  0  0  0  0  0  0
   34.3070   29.2410   39.7360 H   0  0  0  0  0  0  0  0  0  0  0  0
   35.6840   31.2570   39.4090 H   0  0  0  0  0  0  0  0  0  0  0  0
   37.2970   27.4250   42.7330 C   0  0  2  0  0  0  0  0  0  0  0  0
   38.3230   28.0790   43.6170 C   0  0  0  0  0  0  0  0  0  0  0  0
   39.7290   27.7580   43.3470 C   0  0  0  0  0  0  0  0  0  0  0  0
   39.8150   26.2310   43.4000 C   0  0  0  0  0  0  0  0  0  0  0  0
   39.0470   25.5940   42.3340 C   0  0  0  0  0  0  0  0  0  0  0  0
   37.7490   26.2500   42.0240 C   0  0  0  0  0  0  0  0  0  0  0  0
   36.3990   27.1700   43.3360 H   0  0  0  0  0  0  0  0  0  0  0  0
   38.0960   27.7920   44.6660 H   0  0  0  0  0  0  0  0  0  0  0  0
   38.2160   29.2010   43.6250 H   0  0  0  0  0  0  0  0  0  0  0  0
   40.0580   28.0600   42.3370 H   0  0  0  0  0  0  0  0  0  0  0  0
   40.3510   28.1540   44.1500 H   0  0  0  0  0  0  0  0  0  0  0  0
   40.8880   26.0250   43.1410 H   0  0  0  0  0  0  0  0  0  0  0  0
   39.5240   25.8640   44.3990 H   0  0  0  0  0  0  0  0  0  0  0  0
   39.2400   24.7430   41.7300 H   0  0  0  0  0  0  0  0  0  0  0  0
   36.9050   25.7230   40.9980 N   0  0  0  0  0  0  0  0  0  0  0  0
   35.9970   25.3940   41.3720 H   0  0  0  0  0  0  0  0  0  0  0  0
   37.3900   25.7790   40.0620 H   0  0  0  0  0  0  0  0  0  0  0  0
   38.0360   31.7730   40.5960 C   0  0  0  0  0  0  0  0  0  0  0  0
   37.4380   32.8880   40.1050 C   0  0  0  0  0  0  0  0  0  0  0  0
   38.2580   34.0100   39.9300 C   0  0  0  0  0  0  0  0  0  0  0  0
   39.5870   33.8720   40.2690 C   0  0  0  0  0  0  0  0  0  0  0  0
   40.1870   32.7500   40.7600 C   0  0  0  0  0  0  0  0  0  0  0  0
   39.3420   31.6890   40.9120 N   0  0  0  0  0  0  0  0  0  0  0  0
   36.3890   32.9500   39.8530 H   0  0  0  0  0  0  0  0  0  0  0  0
   37.8330   34.9240   39.5430 H   0  0  0  0  0  0  0  0  0  0  0  0
   40.1740   34.7740   40.1110 H   0  0  0  0  0  0  0  0  0  0  0  0
   41.6040   32.6780   41.0990 C   0  0  0  0  0  0  0  0  0  0  0  0
   42.4420   33.7020   40.7070 C   0  0  0  0  0  0  0  0  0  0  0  0
   42.0230   34.5260   40.1610 H   0  0  0  0  0  0  0  0  0  0  0  0
   43.7590   33.5290   41.0790 C   0  0  0  0  0  0  0  0  0  0  0  0
   44.4570   34.3240   40.7850 H   0  0  0  0  0  0  0  0  0  0  0  0
   44.1810   32.4150   41.7860 C   0  0  0  0  0  3  0  0  0  0  0  0
   43.2850   31.4080   42.1570 C   0  0  0  0  0  3  0  0  0  0  0  0
   41.9970   31.5890   41.7850 N   0  0  0  0  0  0  0  0  0  0  0  0
  1  6  1  0  0  0  0
  2  1  2  0  0  0  0
  2  3  1  0  0  0  0
  3  4  2  0  0  0  0
  4  5  1  0  0  0  0
  5  9  1  0  0  0  0
  6  5  2  0  0  0  0
  7  1  1  0  0  0  0
  8  2  1  0  0  0  0
  9 15  1  1  0  0  0
  9 10  1  0  0  0  0
 10 17  1  0  0  0  0
 10 16  1  0  0  0  0
 11 12  1  0  0  0  0
 11 10  1  0  0  0  0
 11 19  1  0  0  0  0
 12 21  1  0  0  0  0
 13 12  1  0  0  0  0
 14 13  2  0  0  0  0
 14  9  1  0  0  0  0
 18 11  1  0  0  0  0
 20 12  1  0  0  0  0
 22 13  1  0  0  0  0
 23 24  1  0  0  0  0
 23 14  1  0  0  0  0
 25 23  1  0  0  0  0
 26  3  1  0  0  0  0
 26 31  1  0  0  0  0
 27 26  2  0  0  0  0
 28 27  1  0  0  0  0
 28 29  2  0  0  0  0
 29 30  1  0  0  0  0
 30 31  2  0  0  0  0
 30 35  1  0  0  0  0
 32 27  1  0  0  0  0
 33 28  1  0  0  0  0
 34 29  1  0  0  0  0
 35 42  1  0  0  0  0
 36 38  1  0  0  0  0
 36 35  2  0  0  0  0
 37 36  1  0  0  0  0
 38 40  2  0  0  0  0
 39 38  1  0  0  0  0
 40 41  1  0  0  0  0
 42 41  2  0  0  0  0
M  END
>  <minimizedAffinity>
-6.1281991

$$$$

 OpenBabel03252505093D

 42 45  0  0  1  0  0  0  0  0999 V2000
   36.2390   26.3270   39.3280 C   0  0  0  0  0  0  0  0  0  0  0  0
   37.2390   26.1120   40.3100 C   0  0  0  0  0  0  0  0  0  0  0  0
   37.8640   27.2690   40.8650 C   0  0  0  0  0  0  0  0  0  0  0  0
   37.4810   28.4910   40.4380 N   0  0  0  0  0  0  0  0  0  0  0  0
   36.5280   28.6410   39.5050 C   0  0  0  0  0  0  0  0  0  0  0  0
   35.8980   27.5670   38.9420 N   0  0  0  0  0  0  0  0  0  0  0  0
   35.7860   25.4340   38.9280 H   0  0  0  0  0  0  0  0  0  0  0  0
   37.5310   25.1240   40.6380 H   0  0  0  0  0  0  0  0  0  0  0  0
   36.1550   30.0230   39.0760 C   0  0  2  0  0  0  0  0  0  0  0  0
   36.9380   30.2880   37.8200 C   0  0  0  0  0  0  0  0  0  0  0  0
   38.1000   31.1760   37.9380 C   0  0  0  0  0  0  0  0  0  0  0  0
   37.5630   32.4660   38.5620 C   0  0  0  0  0  0  0  0  0  0  0  0
   37.0730   32.2640   39.9230 C   0  0  0  0  0  0  0  0  0  0  0  0
   36.3500   30.9820   40.1400 C   0  0  0  0  0  0  0  0  0  0  0  0
   35.0740   29.9590   38.8310 H   0  0  0  0  0  0  0  0  0  0  0  0
   36.2410   30.7260   37.0730 H   0  0  0  0  0  0  0  0  0  0  0  0
   37.2790   29.3320   37.3280 H   0  0  0  0  0  0  0  0  0  0  0  0
   38.8750   30.7890   38.6250 H   0  0  0  0  0  0  0  0  0  0  0  0
   38.4740   31.4180   36.9440 H   0  0  0  0  0  0  0  0  0  0  0  0
   38.4850   33.0960   38.6820 H   0  0  0  0  0  0  0  0  0  0  0  0
   36.8000   32.9210   37.9080 H   0  0  0  0  0  0  0  0  0  0  0  0
   37.1350   32.8620   40.7970 H   0  0  0  0  0  0  0  0  0  0  0  0
   35.8230   30.6650   41.4300 N   0  0  0  0  0  0  0  0  0  0  0  0
   34.7900   30.5840   41.4190 H   0  0  0  0  0  0  0  0  0  0  0  0
   36.6060   30.5780   42.1330 H   0  0  0  0  0  0  0  0  0  0  0  0
   38.8930   27.0780   41.8770 C   0  0  0  0  0  0  0  0  0  0  0  0
   38.8780   25.9350   42.6100 C   0  0  0  0  0  0  0  0  0  0  0  0
   39.8880   25.7970   43.5710 C   0  0  0  0  0  0  0  0  0  0  0  0
   40.7930   26.8310   43.6800 C   0  0  0  0  0  0  0  0  0  0  0  0
   40.8050   27.9800   42.9440 C   0  0  0  0  0  0  0  0  0  0  0  0
   39.8010   28.0620   42.0240 N   0  0  0  0  0  0  0  0  0  0  0  0
   38.1470   25.1490   42.4890 H   0  0  0  0  0  0  0  0  0  0  0  0
   39.9230   24.9070   44.1800 H   0  0  0  0  0  0  0  0  0  0  0  0
   41.5520   26.6700   44.4410 H   0  0  0  0  0  0  0  0  0  0  0  0
   41.7980   29.0340   43.1160 C   0  0  0  0  0  0  0  0  0  0  0  0
   43.0650   28.7020   43.5490 C   0  0  0  0  0  0  0  0  0  0  0  0
   43.2840   27.6690   43.7490 H   0  0  0  0  0  0  0  0  0  0  0  0
   43.9200   29.7760   43.6770 C   0  0  0  0  0  0  0  0  0  0  0  0
   44.9390   29.5500   44.0190 H   0  0  0  0  0  0  0  0  0  0  0  0
   43.5200   31.0700   43.3880 C   0  0  0  0  0  3  0  0  0  0  0  0
   42.2210   31.3480   42.9520 C   0  0  0  0  0  3  0  0  0  0  0  0
   41.3920   30.2860   42.8320 N   0  0  0  0  0  0  0  0  0  0  0  0
  1  2  1  0  0  0  0
  2  8  1  0  0  0  0
  2  3  2  0  0  0  0
  3 26  1  0  0  0  0
  4  3  1  0  0  0  0
  5  4  2  0  0  0  0
  6  1  2  0  0  0  0
  6  5  1  0  0  0  0
  7  1  1  0  0  0  0
  9 15  1  6  0  0  0
  9  5  1  0  0  0  0
  9 14  1  0  0  0  0
 10 11  1  0  0  0  0
 10  9  1  0  0  0  0
 11 12  1  0  0  0  0
 11 18  1  0  0  0  0
 12 20  1  0  0  0  0
 12 13  1  0  0  0  0
 13 14  2  0  0  0  0
 13 22  1  0  0  0  0
 14 23  1  0  0  0  0
 16 10  1  0  0  0  0
 17 10  1  0  0  0  0
 19 11  1  0  0  0  0
 21 12  1  0  0  0  0
 23 25  1  0  0  0  0
 24 23  1  0  0  0  0
 26 31  2  0  0  0  0
 26 27  1  0  0  0  0
 27 28  2  0  0  0  0
 28 29  1  0  0  0  0
 28 33  1  0  0  0  0
 29 34  1  0  0  0  0
 30 35  1  0  0  0  0
 30 29  2  0  0  0  0
 31 30  1  0  0  0  0
 32 27  1  0  0  0  0
 35 36  1  0  0  0  0
 36 38  2  0  0  0  0
 36 37  1  0  0  0  0
 38 39  1  0  0  0  0
 40 38  1  0  0  0  0
 41 40  2  0  0  0  0
 42 41  1  0  0  0  0
 42 35  2  0  0  0  0
M  END
>  <minimizedAffinity>
-6.12518692

$$$$

 OpenBabel03252505093D

 42 45  0  0  1  0  0  0  0  0999 V2000
   35.1130   27.7870   37.7210 C   0  0  0  0  0  0  0  0  0  0  0  0
   35.7100   26.8400   38.5900 C   0  0  0  0  0  0  0  0  0  0  0  0
   36.6220   27.3400   39.5680 C   0  0  0  0  0  0  0  0  0  0  0  0
   36.8680   28.6670   39.6180 N   0  0  0  0  0  0  0  0  0  0  0  0
   36.2760   29.5230   38.7710 C   0  0  0  0  0  0  0  0  0  0  0  0
   35.3960   29.0950   37.8180 N   0  0  0  0  0  0  0  0  0  0  0  0
   34.4290   27.3790   36.9930 H   0  0  0  0  0  0  0  0  0  0  0  0
   35.4980   25.7810   38.5330 H   0  0  0  0  0  0  0  0  0  0  0  0
   36.5980   30.9780   38.8810 C   0  0  2  0  0  0  0  0  0  0  0  0
   37.7680   31.2090   37.9650 C   0  0  0  0  0  0  0  0  0  0  0  0
   39.0800   31.3820   38.5980 C   0  0  0  0  0  0  0  0  0  0  0  0
   38.9010   32.5260   39.5990 C   0  0  0  0  0  0  0  0  0  0  0  0
   37.9780   32.1800   40.6770 C   0  0  0  0  0  0  0  0  0  0  0  0
   36.8000   31.3760   40.2550 C   0  0  0  0  0  0  0  0  0  0  0  0
   35.7030   31.4940   38.4740 H   0  0  0  0  0  0  0  0  0  0  0  0
   37.5510   32.1170   37.3620 H   0  0  0  0  0  0  0  0  0  0  0  0
   37.8600   30.3970   37.1880 H   0  0  0  0  0  0  0  0  0  0  0  0
   39.4030   30.4990   39.1780 H   0  0  0  0  0  0  0  0  0  0  0  0
   39.8030   31.7060   37.8500 H   0  0  0  0  0  0  0  0  0  0  0  0
   39.9060   32.5930   40.0950 H   0  0  0  0  0  0  0  0  0  0  0  0
   38.6040   33.4500   39.0770 H   0  0  0  0  0  0  0  0  0  0  0  0
   37.9870   32.3950   41.7160 H   0  0  0  0  0  0  0  0  0  0  0  0
   35.8240   30.9730   41.2180 N   0  0  0  0  0  0  0  0  0  0  0  0
   34.8930   31.3840   41.0250 H   0  0  0  0  0  0  0  0  0  0  0  0
   36.2610   30.3320   41.9340 H   0  0  0  0  0  0  0  0  0  0  0  0
   37.2470   26.3900   40.4760 C   0  0  0  0  0  0  0  0  0  0  0  0
   36.6310   25.2000   40.6970 C   0  0  0  0  0  0  0  0  0  0  0  0
   37.2720   24.3200   41.5780 C   0  0  0  0  0  0  0  0  0  0  0  0
   38.4600   24.7460   42.1340 C   0  0  0  0  0  0  0  0  0  0  0  0
   39.0760   25.9420   41.9130 C   0  0  0  0  0  0  0  0  0  0  0  0
   38.4100   26.7600   41.0470 N   0  0  0  0  0  0  0  0  0  0  0  0
   35.6990   24.9090   40.2360 H   0  0  0  0  0  0  0  0  0  0  0  0
   36.8260   23.3600   41.7870 H   0  0  0  0  0  0  0  0  0  0  0  0
   38.9100   24.0220   42.8100 H   0  0  0  0  0  0  0  0  0  0  0  0
   40.3370   26.3250   42.5390 C   0  0  0  0  0  0  0  0  0  0  0  0
   41.2010   25.3400   42.9690 C   0  0  0  0  0  0  0  0  0  0  0  0
   40.9180   24.3130   42.8290 H   0  0  0  0  0  0  0  0  0  0  0  0
   42.3600   25.8150   43.5460 C   0  0  0  0  0  0  0  0  0  0  0  0
   43.0740   25.0600   43.9010 H   0  0  0  0  0  0  0  0  0  0  0  0
   42.6130   27.1710   43.6720 C   0  0  0  0  0  3  0  0  0  0  0  0
   41.6990   28.1260   43.2170 C   0  0  0  0  0  3  0  0  0  0  0  0
   40.5660   27.6460   42.6540 N   0  0  0  0  0  0  0  0  0  0  0  0
  1  6  2  0  0  0  0
  1  2  1  0  0  0  0
  2  3  2  0  0  0  0
  3  4  1  0  0  0  0
  3 26  1  0  0  0  0
  5  9  1  0  0  0  0
  5  4  2  0  0  0  0
  6  5  1  0  0  0  0
  7  1  1  0  0  0  0
  8  2  1  0  0  0  0
  9 15  1  6  0  0  0
  9 14  1  0  0  0  0
 10 11  1  0  0  0  0
 10  9  1  0  0  0  0
 11 18  1  0  0  0  0
 11 12  1  0  0  0  0
 12 20  1  0  0  0  0
 12 13  1  0  0  0  0
 13 22  1  0  0  0  0
 14 13  2  0  0  0  0
 14 23  1  0  0  0  0
 16 10  1  0  0  0  0
 17 10  1  0  0  0  0
 19 11  1  0  0  0  0
 21 12  1  0  0  0  0
 23 25  1  0  0  0  0
 24 23  1  0  0  0  0
 26 27  2  0  0  0  0
 26 31  1  0  0  0  0
 27 28  1  0  0  0  0
 28 33  1  0  0  0  0
 28 29  2  0  0  0  0
 29 34  1  0  0  0  0
 30 29  1  0  0  0  0
 30 35  1  0  0  0  0
 31 30  2  0  0  0  0
 32 27  1  0  0  0  0
 35 42  2  0  0  0  0
 35 36  1  0  0  0  0
 36 38  2  0  0  0  0
 37 36  1  0  0  0  0
 38 40  1  0  0  0  0
 38 39  1  0  0  0  0
 41 40  2  0  0  0  0
 42 41  1  0  0  0  0
M  END
>  <minimizedAffinity>
-6.08446598

$$$$
