REMARK  Name = 
REMARK  2 active torsions:
REMARK  status: ('A' for Active; 'I' for Inactive)
REMARK    1  A    between atoms: C_1  and  C_19
REMARK    2  A    between atoms: C_5  and  C_7
REMARK                            x       y       z     vdW  Elec       q    Type
REMARK                         _______ _______ _______ _____ _____    ______ ____
ROOT
ATOM      1  C   UNL     1      45.622  33.958  45.446  0.00  0.00    +0.000 A 
ATOM      2  C   UNL     1      44.706  34.981  45.702  0.00  0.00    +0.000 A 
ATOM      3  C   UNL     1      44.519  35.938  44.682  0.00  0.00    +0.000 A 
ATOM      4  N   UNL     1      45.230  35.822  43.514  0.00  0.00    +0.000 NA
ATOM      5  C   UNL     1      46.095  34.811  43.336  0.00  0.00    +0.000 A 
ATOM      6  N   UNL     1      46.304  33.879  44.278  0.00  0.00    +0.000 NA
ATOM      7  H   UNL     1      44.157  35.052  46.631  0.00  0.00    +0.000 HD
ATOM      8  H   UNL     1      43.818  36.765  44.815  0.00  0.00    +0.000 HD
ENDROOT
BRANCH   5   9
ATOM      9  C   UNL     1      46.831  34.727  42.073  0.00  0.00    +0.000 A 
ATOM     10  C   UNL     1      48.018  35.407  41.904  0.00  0.00    +0.000 A 
ATOM     11  C   UNL     1      48.779  35.389  40.753  0.00  0.00    +0.000 A 
ATOM     12  C   UNL     1      48.250  34.608  39.732  0.00  0.00    +0.000 A 
ATOM     13  C   UNL     1      47.058  33.913  39.877  0.00  0.00    +0.000 A 
ATOM     14  N   UNL     1      46.366  33.987  41.052  0.00  0.00    +0.000 NA
ATOM     15  H   UNL     1      48.373  36.000  42.744  0.00  0.00    +0.000 HD
ATOM     16  H   UNL     1      49.703  35.942  40.676  0.00  0.00    +0.000 HD
ATOM     17  H   UNL     1      48.791  34.541  38.792  0.00  0.00    +0.000 HD
ATOM     18  H   UNL     1      46.697  33.319  39.040  0.00  0.00    +0.000 HD
ENDBRANCH   5   9
BRANCH   1  19
ATOM     19  C   UNL     1      45.836  32.960  46.473  0.00  0.00    +0.000 A 
ATOM     20  C   UNL     1      45.154  33.020  47.670  0.00  0.00    +0.000 A 
ATOM     21  H   UNL     1      44.435  33.835  47.852  0.00  0.00    +0.000 HD
ATOM     22  C   UNL     1      45.311  32.111  48.676  0.00  0.00    +0.000 A 
ATOM     23  H   UNL     1      44.802  32.113  49.630  0.00  0.00    +0.000 HD
ATOM     24  C   UNL     1      46.228  31.106  48.393  0.00  0.00    +0.000 A 
ATOM     25  C   UNL     1      46.946  31.000  47.196  0.00  0.00    +0.000 A 
ATOM     26  N   UNL     1      46.705  31.957  46.277  0.00  0.00    +0.000 NA
ENDBRANCH   1  19
TORSDOF 2
