REMARK  Name = 
REMARK  2 active torsions:
REMARK  status: ('A' for Active; 'I' for Inactive)
REMARK    1  A    between atoms: C_5  and  C_7
REMARK    2  A    between atoms: C_10  and  C_17
REMARK                            x       y       z     vdW  Elec       q    Type
REMARK                         _______ _______ _______ _____ _____    ______ ____
ROOT
ATOM      1  C   UNL     1      45.881  32.922  46.707  0.00  0.00    +0.000 A 
ATOM      2  C   UNL     1      45.109  32.775  47.894  0.00  0.00    +0.000 A 
ATOM      3  C   UNL     1      45.481  31.816  48.779  0.00  0.00    +0.000 A 
ATOM      4  C   UNL     1      46.609  31.009  48.492  0.00  0.00    +0.000 A 
ATOM      5  S   UNL     1      47.167  31.666  46.857  0.00  0.00    +0.000 S 
ATOM      6  H   UNL     1      44.254  33.411  48.078  0.00  0.00    +0.000 HD
ATOM      7  H   UNL     1      44.997  31.604  49.692  0.00  0.00    +0.000 HD
ENDROOT
BRANCH   1  12
ATOM      8  C   UNL     1      44.592  35.803  44.729  0.00  0.00    +0.000 A 
ATOM      9  C   UNL     1      45.270  35.569  43.505  0.00  0.00    +0.000 A 
ATOM     10  C   UNL     1      46.124  34.454  43.416  0.00  0.00    +0.000 A 
ATOM     11  N   UNL     1      46.252  33.648  44.532  0.00  0.00    +0.000 NA
ATOM     12  C   UNL     1      45.578  33.925  45.671  0.00  0.00    +0.000 A 
ATOM     13  N   UNL     1      44.748  34.993  45.784  0.00  0.00    +0.000 NA
ATOM     14  H   UNL     1      43.952  36.645  44.784  0.00  0.00    +0.000 HD
ATOM     15  H   UNL     1      45.151  36.216  42.647  0.00  0.00    +0.000 HD
ATOM     16  H   UNL     1      46.670  34.214  42.523  0.00  0.00    +0.000 HD
ENDBRANCH   1  12
BRANCH   4  17
ATOM     17  C   UNL     1      47.213  29.948  49.228  0.00  0.00    +0.000 A 
ATOM     18  C   UNL     1      47.598  28.777  48.617  0.00  0.00    +0.000 A 
ATOM     19  H   UNL     1      47.416  28.714  47.559  0.00  0.00    +0.000 HD
ATOM     20  C   UNL     1      48.174  27.800  49.397  0.00  0.00    +0.000 A 
ATOM     21  H   UNL     1      48.467  26.888  48.889  0.00  0.00    +0.000 HD
ATOM     22  C   UNL     1      48.373  27.966  50.766  0.00  0.00    +0.000 A 
ATOM     23  C   UNL     1      47.955  29.172  51.288  0.00  0.00    +0.000 A 
ATOM     24  N   UNL     1      47.384  30.154  50.544  0.00  0.00    +0.000 NA
ENDBRANCH   4  17
TORSDOF 2
