
 OpenBabel03252507213D

 43 46  0  0  1  0  0  0  0  0999 V2000
   39.0320   29.1980   40.4200 C   0  0  0  0  0  0  0  0  0  0  0  0
   39.6030   28.7040   39.4100 O   0  0  0  0  0  0  0  0  0  0  0  0
   38.5400   28.4240   41.5340 N   0  0  0  0  0  0  0  0  0  0  0  0
   38.6450   28.6500   42.9720 C   0  0  0  0  0  0  0  0  0  0  0  0
   37.2530   28.5550   43.5960 C   0  0  0  0  0  0  0  0  0  0  0  0
   36.7020   27.1610   43.4050 C   0  0  0  0  0  0  0  0  0  0  0  0
   37.5480   26.4080   42.4180 C   0  0  0  0  0  0  0  0  0  0  0  0
   37.8180   27.2220   41.1790 C   0  0  2  0  0  0  0  0  0  0  0  0
   39.3490   27.9870   43.4720 H   0  0  0  0  0  0  0  0  0  0  0  0
   38.9100   29.7420   43.0740 H   0  0  0  0  0  0  0  0  0  0  0  0
   36.6010   29.3080   43.1030 H   0  0  0  0  0  0  0  0  0  0  0  0
   37.3950   28.8040   44.6770 H   0  0  0  0  0  0  0  0  0  0  0  0
   35.6310   27.1430   43.1870 H   0  0  0  0  0  0  0  0  0  0  0  0
   36.8250   26.6340   44.3940 H   0  0  0  0  0  0  0  0  0  0  0  0
   37.0320   25.4800   42.1340 H   0  0  0  0  0  0  0  0  0  0  0  0
   38.5090   26.1500   42.9170 H   0  0  0  0  0  0  0  0  0  0  0  0
   36.8350   27.5370   40.7730 H   0  0  0  0  0  0  0  0  0  0  0  0
   39.9420   31.4120   40.9430 C   0  0  0  0  0  0  0  0  0  0  0  0
   38.8610   30.6320   40.4600 C   0  0  0  0  0  0  0  0  0  0  0  0
   37.7020   31.2520   40.0510 C   0  0  0  0  0  0  0  0  0  0  0  0
   37.6350   32.6010   40.1260 N   0  0  0  0  0  0  0  0  0  0  0  0
   38.6600   33.3620   40.5850 C   0  0  0  0  0  0  0  0  0  0  0  0
   39.7960   32.7510   40.9860 N   0  0  0  0  0  0  0  0  0  0  0  0
   40.8390   30.8900   41.2560 H   0  0  0  0  0  0  0  0  0  0  0  0
   38.5990   34.4400   40.6410 H   0  0  0  0  0  0  0  0  0  0  0  0
   36.6100   30.4340   39.5660 C   0  0  0  0  0  0  0  0  0  0  0  0
   35.6530   29.9910   40.4300 C   0  0  0  0  0  0  0  0  0  0  0  0
   34.6200   29.2130   39.9450 C   0  0  0  0  0  0  0  0  0  0  0  0
   34.5070   28.8550   38.6160 C   0  0  0  0  0  0  0  0  0  0  0  0
   35.5110   29.3340   37.7800 C   0  0  0  0  0  0  0  0  0  0  0  0
   36.4990   30.0870   38.2840 N   0  0  0  0  0  0  0  0  0  0  0  0
   35.6050   30.1820   41.4870 H   0  0  0  0  0  0  0  0  0  0  0  0
   33.8290   28.8340   40.5960 H   0  0  0  0  0  0  0  0  0  0  0  0
   33.6820   28.2430   38.2710 H   0  0  0  0  0  0  0  0  0  0  0  0
   35.4690   29.0820   36.7280 H   0  0  0  0  0  0  0  0  0  0  0  0
   38.4910   26.4000   40.1500 C   0  0  0  0  0  0  0  0  0  0  0  0
   38.0140   26.1590   38.8790 C   0  0  0  0  0  0  0  0  0  0  0  0
   37.0580   26.6150   38.6110 H   0  0  0  0  0  0  0  0  0  0  0  0
   38.6720   25.3860   37.9480 C   0  0  0  0  0  0  0  0  0  0  0  0
   38.2720   25.2140   36.9560 H   0  0  0  0  0  0  0  0  0  0  0  0
   39.8770   24.8020   38.2620 C   0  0  0  0  0  3  0  0  0  0  0  0
   40.3470   25.0450   39.5290 C   0  0  0  0  0  3  0  0  0  0  0  0
   39.6880   25.8020   40.4200 N   0  0  0  0  0  0  0  0  0  0  0  0
  1 19  1  0  0  0  0
  1  3  1  0  0  0  0
  2  1  2  0  0  0  0
  3  4  1  0  0  0  0
  4 10  1  0  0  0  0
  4  9  1  0  0  0  0
  4  5  1  0  0  0  0
  5 12  1  0  0  0  0
  6  5  1  0  0  0  0
  6 14  1  0  0  0  0
  7 16  1  0  0  0  0
  7  6  1  0  0  0  0
  8 17  1  6  0  0  0
  8  3  1  0  0  0  0
  8  7  1  0  0  0  0
 11  5  1  0  0  0  0
 13  6  1  0  0  0  0
 15  7  1  0  0  0  0
 18 23  1  0  0  0  0
 18 24  1  0  0  0  0
 19 18  2  0  0  0  0
 20 21  2  0  0  0  0
 20 19  1  0  0  0  0
 21 22  1  0  0  0  0
 22 25  1  0  0  0  0
 22 23  2  0  0  0  0
 26 20  1  0  0  0  0
 26 27  1  0  0  0  0
 27 32  1  0  0  0  0
 28 27  2  0  0  0  0
 28 33  1  0  0  0  0
 29 28  1  0  0  0  0
 30 31  1  0  0  0  0
 30 29  2  0  0  0  0
 31 26  2  0  0  0  0
 34 29  1  0  0  0  0
 35 30  1  0  0  0  0
 36 43  1  0  0  0  0
 36  8  1  0  0  0  0
 37 36  2  0  0  0  0
 38 37  1  0  0  0  0
 39 41  2  0  0  0  0
 39 37  1  0  0  0  0
 40 39  1  0  0  0  0
 41 42  1  0  0  0  0
 42 43  2  0  0  0  0
M  END
>  <minimizedAffinity>
-6.0089922

$$$$

 OpenBabel03252507213D

 43 46  0  0  1  0  0  0  0  0999 V2000
   38.7670   29.1580   39.5370 C   0  0  0  0  0  0  0  0  0  0  0  0
   38.1560   28.3030   38.8400 O   0  0  0  0  0  0  0  0  0  0  0  0
   38.2800   30.4900   39.7980 N   0  0  0  0  0  0  0  0  0  0  0  0
   38.2440   31.2670   41.0340 C   0  0  0  0  0  0  0  0  0  0  0  0
   38.8730   32.6380   40.7800 C   0  0  0  0  0  0  0  0  0  0  0  0
   38.0570   33.3930   39.7570 C   0  0  0  0  0  0  0  0  0  0  0  0
   37.0770   32.4630   39.0980 C   0  0  0  0  0  0  0  0  0  0  0  0
   37.7360   31.1830   38.6510 C   0  0  2  0  0  0  0  0  0  0  0  0
   37.2500   31.3620   41.4650 H   0  0  0  0  0  0  0  0  0  0  0  0
   38.9820   30.7560   41.7170 H   0  0  0  0  0  0  0  0  0  0  0  0
   39.9110   32.4790   40.4180 H   0  0  0  0  0  0  0  0  0  0  0  0
   38.8760   33.1500   41.7730 H   0  0  0  0  0  0  0  0  0  0  0  0
   38.6650   33.9740   39.0600 H   0  0  0  0  0  0  0  0  0  0  0  0
   37.4430   34.1420   40.3330 H   0  0  0  0  0  0  0  0  0  0  0  0
   36.6350   32.9650   38.2260 H   0  0  0  0  0  0  0  0  0  0  0  0
   36.2720   32.2380   39.8320 H   0  0  0  0  0  0  0  0  0  0  0  0
   38.5900   31.4640   38.0010 H   0  0  0  0  0  0  0  0  0  0  0  0
   41.2130   29.1210   39.4010 C   0  0  0  0  0  0  0  0  0  0  0  0
   40.0360   28.7730   40.1100 C   0  0  0  0  0  0  0  0  0  0  0  0
   40.1340   28.0920   41.3030 C   0  0  0  0  0  0  0  0  0  0  0  0
   41.3670   27.7740   41.7600 N   0  0  0  0  0  0  0  0  0  0  0  0
   42.5030   28.0990   41.0940 C   0  0  0  0  0  0  0  0  0  0  0  0
   42.4040   28.7670   39.9240 N   0  0  0  0  0  0  0  0  0  0  0  0
   41.0970   29.6570   38.4660 H   0  0  0  0  0  0  0  0  0  0  0  0
   43.4850   27.8420   41.4670 H   0  0  0  0  0  0  0  0  0  0  0  0
   38.9180   27.7440   42.0070 C   0  0  0  0  0  0  0  0  0  0  0  0
   38.4670   28.5340   43.0220 C   0  0  0  0  0  0  0  0  0  0  0  0
   37.3040   28.1830   43.6800 C   0  0  0  0  0  0  0  0  0  0  0  0
   36.5680   27.0590   43.3590 C   0  0  0  0  0  0  0  0  0  0  0  0
   37.0750   26.2900   42.3150 C   0  0  0  0  0  0  0  0  0  0  0  0
   38.2070   26.6600   41.6990 N   0  0  0  0  0  0  0  0  0  0  0  0
   38.9280   29.4340   43.3890 H   0  0  0  0  0  0  0  0  0  0  0  0
   36.9000   28.7820   44.4980 H   0  0  0  0  0  0  0  0  0  0  0  0
   35.6590   26.8140   43.8960 H   0  0  0  0  0  0  0  0  0  0  0  0
   36.5350   25.3970   42.0240 H   0  0  0  0  0  0  0  0  0  0  0  0
   36.8000   30.3690   37.8450 C   0  0  0  0  0  0  0  0  0  0  0  0
   36.9670   30.0350   36.5180 C   0  0  0  0  0  0  0  0  0  0  0  0
   37.8670   30.4060   36.0210 H   0  0  0  0  0  0  0  0  0  0  0  0
   36.0710   29.2730   35.8010 C   0  0  0  0  0  0  0  0  0  0  0  0
   36.2300   29.0280   34.7590 H   0  0  0  0  0  0  0  0  0  0  0  0
   34.9320   28.7950   36.4060 C   0  0  0  0  0  3  0  0  0  0  0  0
   34.7710   29.1300   37.7280 C   0  0  0  0  0  3  0  0  0  0  0  0
   35.6580   29.8740   38.4060 N   0  0  0  0  0  0  0  0  0  0  0  0
  1  3  1  0  0  0  0
  1 19  1  0  0  0  0
  2  1  2  0  0  0  0
  3  4  1  0  0  0  0
  4  9  1  0  0  0  0
  4 10  1  0  0  0  0
  5  4  1  0  0  0  0
  5 12  1  0  0  0  0
  6 14  1  0  0  0  0
  6  5  1  0  0  0  0
  7  6  1  0  0  0  0
  7 16  1  0  0  0  0
  8 17  1  6  0  0  0
  8  7  1  0  0  0  0
  8  3  1  0  0  0  0
 11  5  1  0  0  0  0
 13  6  1  0  0  0  0
 15  7  1  0  0  0  0
 18 23  2  0  0  0  0
 18 19  1  0  0  0  0
 19 20  2  0  0  0  0
 20 21  1  0  0  0  0
 20 26  1  0  0  0  0
 22 25  1  0  0  0  0
 22 21  2  0  0  0  0
 23 22  1  0  0  0  0
 24 18  1  0  0  0  0
 26 27  1  0  0  0  0
 27 32  1  0  0  0  0
 27 28  2  0  0  0  0
 28 33  1  0  0  0  0
 29 28  1  0  0  0  0
 29 34  1  0  0  0  0
 30 29  2  0  0  0  0
 31 26  2  0  0  0  0
 31 30  1  0  0  0  0
 35 30  1  0  0  0  0
 36 43  1  0  0  0  0
 36  8  1  0  0  0  0
 37 36  2  0  0  0  0
 38 37  1  0  0  0  0
 39 41  2  0  0  0  0
 39 37  1  0  0  0  0
 40 39  1  0  0  0  0
 41 42  1  0  0  0  0
 42 43  2  0  0  0  0
M  END
>  <minimizedAffinity>
-5.81918955

$$$$

 OpenBabel03252507213D

 43 46  0  0  1  0  0  0  0  0999 V2000
   38.0460   30.2640   39.8270 C   0  0  0  0  0  0  0  0  0  0  0  0
   37.4810   30.1420   38.7050 O   0  0  0  0  0  0  0  0  0  0  0  0
   37.8850   29.3370   40.9210 N   0  0  0  0  0  0  0  0  0  0  0  0
   38.8700   28.7570   41.8300 C   0  0  0  0  0  0  0  0  0  0  0  0
   38.4050   28.9700   43.2710 C   0  0  0  0  0  0  0  0  0  0  0  0
   37.1020   28.2390   43.5010 C   0  0  0  0  0  0  0  0  0  0  0  0
   36.5280   27.7920   42.1860 C   0  0  0  0  0  0  0  0  0  0  0  0
   36.5280   28.9050   41.1700 C   0  0  2  0  0  0  0  0  0  0  0  0
   39.0850   27.7080   41.6350 H   0  0  0  0  0  0  0  0  0  0  0  0
   39.7750   29.4240   41.7400 H   0  0  0  0  0  0  0  0  0  0  0  0
   38.2790   30.0620   43.4350 H   0  0  0  0  0  0  0  0  0  0  0  0
   39.2280   28.5670   43.9100 H   0  0  0  0  0  0  0  0  0  0  0  0
   36.4020   28.7880   44.1350 H   0  0  0  0  0  0  0  0  0  0  0  0
   37.3620   27.3000   44.0670 H   0  0  0  0  0  0  0  0  0  0  0  0
   35.4970   27.4460   42.3410 H   0  0  0  0  0  0  0  0  0  0  0  0
   37.1430   26.9420   41.8150 H   0  0  0  0  0  0  0  0  0  0  0  0
   35.9890   29.7630   41.6230 H   0  0  0  0  0  0  0  0  0  0  0  0
   38.3580   32.5460   40.6610 C   0  0  0  0  0  0  0  0  0  0  0  0
   38.9080   31.4060   40.0230 C   0  0  0  0  0  0  0  0  0  0  0  0
   40.2230   31.4200   39.6170 C   0  0  0  0  0  0  0  0  0  0  0  0
   40.9530   32.5360   39.8440 N   0  0  0  0  0  0  0  0  0  0  0  0
   40.4420   33.6350   40.4530 C   0  0  0  0  0  0  0  0  0  0  0  0
   39.1510   33.6190   40.8510 N   0  0  0  0  0  0  0  0  0  0  0  0
   37.3190   32.4980   40.9680 H   0  0  0  0  0  0  0  0  0  0  0  0
   41.0320   34.5240   40.6310 H   0  0  0  0  0  0  0  0  0  0  0  0
   40.7620   30.2460   38.9630 C   0  0  0  0  0  0  0  0  0  0  0  0
   40.7010   30.1320   37.6060 C   0  0  0  0  0  0  0  0  0  0  0  0
   41.2210   29.0030   37.0040 C   0  0  0  0  0  0  0  0  0  0  0  0
   41.8050   27.9720   37.7140 C   0  0  0  0  0  0  0  0  0  0  0  0
   41.8400   28.1420   39.0950 C   0  0  0  0  0  0  0  0  0  0  0  0
   41.3250   29.2500   39.6460 N   0  0  0  0  0  0  0  0  0  0  0  0
   40.2770   30.8440   36.9210 H   0  0  0  0  0  0  0  0  0  0  0  0
   41.1980   28.8640   35.9210 H   0  0  0  0  0  0  0  0  0  0  0  0
   42.2040   27.1010   37.2080 H   0  0  0  0  0  0  0  0  0  0  0  0
   42.2870   27.3610   39.6990 H   0  0  0  0  0  0  0  0  0  0  0  0
   35.7940   28.5000   39.9520 C   0  0  0  0  0  0  0  0  0  0  0  0
   34.6880   29.1400   39.4330 C   0  0  0  0  0  0  0  0  0  0  0  0
   34.3250   30.0210   39.9680 H   0  0  0  0  0  0  0  0  0  0  0  0
   34.0310   28.7310   38.2930 C   0  0  0  0  0  0  0  0  0  0  0  0
   33.1640   29.2550   37.9090 H   0  0  0  0  0  0  0  0  0  0  0  0
   34.4700   27.6260   37.6020 C   0  0  0  0  0  3  0  0  0  0  0  0
   35.5710   26.9930   38.1230 C   0  0  0  0  0  3  0  0  0  0  0  0
   36.1950   27.4100   39.2350 N   0  0  0  0  0  0  0  0  0  0  0  0
  1 19  1  0  0  0  0
  1  3  1  0  0  0  0
  2  1  2  0  0  0  0
  3  8  1  0  0  0  0
  3  4  1  0  0  0  0
  4  5  1  0  0  0  0
  5 11  1  0  0  0  0
  5  6  1  0  0  0  0
  5 12  1  0  0  0  0
  6 14  1  0  0  0  0
  6 13  1  0  0  0  0
  7 15  1  0  0  0  0
  7  6  1  0  0  0  0
  8 17  1  1  0  0  0
  8  7  1  0  0  0  0
  9  4  1  0  0  0  0
 10  4  1  0  0  0  0
 16  7  1  0  0  0  0
 18 23  1  0  0  0  0
 18 24  1  0  0  0  0
 19 18  2  0  0  0  0
 20 21  2  0  0  0  0
 20 19  1  0  0  0  0
 21 22  1  0  0  0  0
 22 25  1  0  0  0  0
 22 23  2  0  0  0  0
 26 20  1  0  0  0  0
 26 31  1  0  0  0  0
 27 26  2  0  0  0  0
 28 27  1  0  0  0  0
 28 29  2  0  0  0  0
 29 30  1  0  0  0  0
 30 31  2  0  0  0  0
 30 35  1  0  0  0  0
 32 27  1  0  0  0  0
 33 28  1  0  0  0  0
 34 29  1  0  0  0  0
 36  8  1  0  0  0  0
 37 36  1  0  0  0  0
 37 38  1  0  0  0  0
 39 37  2  0  0  0  0
 40 39  1  0  0  0  0
 41 42  2  0  0  0  0
 41 39  1  0  0  0  0
 42 43  1  0  0  0  0
 43 36  2  0  0  0  0
M  END
>  <minimizedAffinity>
-5.74268198

$$$$

 OpenBabel03252507213D

 43 46  0  0  1  0  0  0  0  0999 V2000
   38.9970   29.3550   41.0880 C   0  0  0  0  0  0  0  0  0  0  0  0
   38.5630   30.4140   41.6180 O   0  0  0  0  0  0  0  0  0  0  0  0
   39.7320   29.3110   39.8470 N   0  0  0  0  0  0  0  0  0  0  0  0
   40.9330   28.5680   39.4770 C   0  0  0  0  0  0  0  0  0  0  0  0
   40.6700   27.8080   38.1760 C   0  0  0  0  0  0  0  0  0  0  0  0
   40.3920   28.7880   37.0600 C   0  0  0  0  0  0  0  0  0  0  0  0
   40.1660   30.1610   37.6290 C   0  0  0  0  0  0  0  0  0  0  0  0
   39.1980   30.1330   38.7840 C   0  0  2  0  0  0  0  0  0  0  0  0
   41.8260   29.1850   39.4010 H   0  0  0  0  0  0  0  0  0  0  0  0
   41.0180   27.7510   40.2510 H   0  0  0  0  0  0  0  0  0  0  0  0
   39.7990   27.1380   38.3390 H   0  0  0  0  0  0  0  0  0  0  0  0
   41.5970   27.2130   37.9890 H   0  0  0  0  0  0  0  0  0  0  0  0
   39.6130   28.4520   36.3710 H   0  0  0  0  0  0  0  0  0  0  0  0
   41.3380   28.8510   36.4510 H   0  0  0  0  0  0  0  0  0  0  0  0
   39.7700   30.8170   36.8420 H   0  0  0  0  0  0  0  0  0  0  0  0
   41.1490   30.5560   37.9690 H   0  0  0  0  0  0  0  0  0  0  0  0
   38.2710   29.6430   38.4230 H   0  0  0  0  0  0  0  0  0  0  0  0
   39.6940   27.6670   42.7210 C   0  0  0  0  0  0  0  0  0  0  0  0
   38.7400   28.1080   41.7710 C   0  0  0  0  0  0  0  0  0  0  0  0
   37.6150   27.3510   41.5310 C   0  0  0  0  0  0  0  0  0  0  0  0
   37.4610   26.1970   42.2200 N   0  0  0  0  0  0  0  0  0  0  0  0
   38.3650   25.7610   43.1330 C   0  0  0  0  0  0  0  0  0  0  0  0
   39.4670   26.5060   43.3660 N   0  0  0  0  0  0  0  0  0  0  0  0
   40.5670   28.2900   42.8840 H   0  0  0  0  0  0  0  0  0  0  0  0
   38.2340   24.8360   43.6800 H   0  0  0  0  0  0  0  0  0  0  0  0
   36.6570   27.8190   40.5530 C   0  0  0  0  0  0  0  0  0  0  0  0
   36.7050   27.3540   39.2730 C   0  0  0  0  0  0  0  0  0  0  0  0
   35.7790   27.8140   38.3560 C   0  0  0  0  0  0  0  0  0  0  0  0
   34.7990   28.7330   38.6730 C   0  0  0  0  0  0  0  0  0  0  0  0
   34.7970   29.1740   39.9940 C   0  0  0  0  0  0  0  0  0  0  0  0
   35.7100   28.7060   40.8570 N   0  0  0  0  0  0  0  0  0  0  0  0
   37.4070   26.6430   38.8750 H   0  0  0  0  0  0  0  0  0  0  0  0
   35.7750   27.4720   37.3190 H   0  0  0  0  0  0  0  0  0  0  0  0
   34.0890   29.0720   37.9290 H   0  0  0  0  0  0  0  0  0  0  0  0
   34.0470   29.8960   40.2950 H   0  0  0  0  0  0  0  0  0  0  0  0
   38.8500   31.5080   39.2060 C   0  0  0  0  0  0  0  0  0  0  0  0
   37.5870   32.0590   39.1750 C   0  0  0  0  0  0  0  0  0  0  0  0
   36.7760   31.4260   38.8070 H   0  0  0  0  0  0  0  0  0  0  0  0
   37.3030   33.3460   39.5780 C   0  0  0  0  0  0  0  0  0  0  0  0
   36.3000   33.7520   39.5420 H   0  0  0  0  0  0  0  0  0  0  0  0
   38.3080   34.1610   40.0450 C   0  0  0  0  0  3  0  0  0  0  0  0
   39.5630   33.6060   40.0730 C   0  0  0  0  0  3  0  0  0  0  0  0
   39.8160   32.3500   39.6760 N   0  0  0  0  0  0  0  0  0  0  0  0
  1  2  2  0  0  0  0
  1 19  1  0  0  0  0
  3  1  1  0  0  0  0
  4  3  1  0  0  0  0
  4 10  1  0  0  0  0
  5 11  1  0  0  0  0
  5  4  1  0  0  0  0
  6  7  1  0  0  0  0
  6  5  1  0  0  0  0
  7 16  1  0  0  0  0
  7  8  1  0  0  0  0
  8 17  1  6  0  0  0
  8 36  1  0  0  0  0
  8  3  1  0  0  0  0
  9  4  1  0  0  0  0
 12  5  1  0  0  0  0
 13  6  1  0  0  0  0
 14  6  1  0  0  0  0
 15  7  1  0  0  0  0
 18 24  1  0  0  0  0
 18 23  1  0  0  0  0
 19 18  2  0  0  0  0
 20 19  1  0  0  0  0
 20 21  2  0  0  0  0
 21 22  1  0  0  0  0
 22 23  2  0  0  0  0
 22 25  1  0  0  0  0
 26 31  1  0  0  0  0
 26 20  1  0  0  0  0
 27 26  2  0  0  0  0
 28 29  2  0  0  0  0
 28 27  1  0  0  0  0
 29 30  1  0  0  0  0
 30 35  1  0  0  0  0
 30 31  2  0  0  0  0
 32 27  1  0  0  0  0
 33 28  1  0  0  0  0
 34 29  1  0  0  0  0
 36 43  1  0  0  0  0
 37 36  2  0  0  0  0
 37 39  1  0  0  0  0
 38 37  1  0  0  0  0
 39 41  2  0  0  0  0
 40 39  1  0  0  0  0
 41 42  1  0  0  0  0
 43 42  2  0  0  0  0
M  END
>  <minimizedAffinity>
-5.55051613

$$$$

 OpenBabel03252507213D

 43 46  0  0  1  0  0  0  0  0999 V2000
   39.0710   29.9760   40.7180 C   0  0  0  0  0  0  0  0  0  0  0  0
   38.6020   29.4090   41.7420 O   0  0  0  0  0  0  0  0  0  0  0  0
   39.9200   29.3280   39.7480 N   0  0  0  0  0  0  0  0  0  0  0  0
   39.8980   29.3620   38.2890 C   0  0  0  0  0  0  0  0  0  0  0  0
   41.2950   29.7140   37.7760 C   0  0  0  0  0  0  0  0  0  0  0  0
   42.2740   28.6370   38.1810 C   0  0  0  0  0  0  0  0  0  0  0  0
   41.6420   27.7280   39.1980 C   0  0  0  0  0  0  0  0  0  0  0  0
   40.9730   28.5060   40.3020 C   0  0  2  0  0  0  0  0  0  0  0  0
   39.5290   28.4460   37.8320 H   0  0  0  0  0  0  0  0  0  0  0  0
   39.2810   30.2710   38.0300 H   0  0  0  0  0  0  0  0  0  0  0  0
   41.5850   30.6950   38.2120 H   0  0  0  0  0  0  0  0  0  0  0  0
   41.1920   29.7900   36.6660 H   0  0  0  0  0  0  0  0  0  0  0  0
   43.2530   29.0260   38.4700 H   0  0  0  0  0  0  0  0  0  0  0  0
   42.4500   28.0080   37.2620 H   0  0  0  0  0  0  0  0  0  0  0  0
   42.4160   27.0790   39.6320 H   0  0  0  0  0  0  0  0  0  0  0  0
   40.8920   27.0950   38.6730 H   0  0  0  0  0  0  0  0  0  0  0  0
   41.7340   29.1910   40.7290 H   0  0  0  0  0  0  0  0  0  0  0  0
   39.6710   32.3430   40.9210 C   0  0  0  0  0  0  0  0  0  0  0  0
   38.7330   31.3650   40.5060 C   0  0  0  0  0  0  0  0  0  0  0  0
   37.5500   31.7590   39.9220 C   0  0  0  0  0  0  0  0  0  0  0  0
   37.3210   33.0830   39.7660 N   0  0  0  0  0  0  0  0  0  0  0  0
   38.2080   34.0310   40.1580 C   0  0  0  0  0  0  0  0  0  0  0  0
   39.3680   33.6420   40.7300 N   0  0  0  0  0  0  0  0  0  0  0  0
   40.5910   31.9960   41.3770 H   0  0  0  0  0  0  0  0  0  0  0  0
   38.0180   35.0890   40.0290 H   0  0  0  0  0  0  0  0  0  0  0  0
   36.6060   30.7420   39.5100 C   0  0  0  0  0  0  0  0  0  0  0  0
   35.7200   30.2280   40.4090 C   0  0  0  0  0  0  0  0  0  0  0  0
   34.8270   29.2590   39.9930 C   0  0  0  0  0  0  0  0  0  0  0  0
   34.7880   28.7770   38.6990 C   0  0  0  0  0  0  0  0  0  0  0  0
   35.7150   29.3370   37.8240 C   0  0  0  0  0  0  0  0  0  0  0  0
   36.5660   30.2760   38.2620 N   0  0  0  0  0  0  0  0  0  0  0  0
   35.6300   30.4960   41.4460 H   0  0  0  0  0  0  0  0  0  0  0  0
   34.0980   28.8160   40.6740 H   0  0  0  0  0  0  0  0  0  0  0  0
   34.0740   28.0160   38.4080 H   0  0  0  0  0  0  0  0  0  0  0  0
   35.7250   28.9940   36.7970 H   0  0  0  0  0  0  0  0  0  0  0  0
   40.5220   27.5990   41.3800 C   0  0  0  0  0  0  0  0  0  0  0  0
   40.9010   27.6780   42.7030 C   0  0  0  0  0  0  0  0  0  0  0  0
   41.5940   28.4790   42.9760 H   0  0  0  0  0  0  0  0  0  0  0  0
   40.4590   26.8130   43.6800 C   0  0  0  0  0  0  0  0  0  0  0  0
   40.7750   26.9000   44.7120 H   0  0  0  0  0  0  0  0  0  0  0  0
   39.5880   25.7980   43.3600 C   0  0  0  0  0  3  0  0  0  0  0  0
   39.2140   25.7240   42.0410 C   0  0  0  0  0  3  0  0  0  0  0  0
   39.6580   26.5790   41.1070 N   0  0  0  0  0  0  0  0  0  0  0  0
  1  2  2  0  0  0  0
  3  8  1  0  0  0  0
  3  1  1  0  0  0  0
  4  3  1  0  0  0  0
  5  6  1  0  0  0  0
  5 11  1  0  0  0  0
  5  4  1  0  0  0  0
  6 13  1  0  0  0  0
  6  7  1  0  0  0  0
  7 15  1  0  0  0  0
  7  8  1  0  0  0  0
  8 17  1  1  0  0  0
  8 36  1  0  0  0  0
  9  4  1  0  0  0  0
 10  4  1  0  0  0  0
 12  5  1  0  0  0  0
 14  6  1  0  0  0  0
 16  7  1  0  0  0  0
 18 24  1  0  0  0  0
 19  1  1  0  0  0  0
 19 18  2  0  0  0  0
 20 19  1  0  0  0  0
 21 20  2  0  0  0  0
 21 22  1  0  0  0  0
 22 23  2  0  0  0  0
 23 18  1  0  0  0  0
 25 22  1  0  0  0  0
 26 20  1  0  0  0  0
 26 27  1  0  0  0  0
 27 32  1  0  0  0  0
 28 27  2  0  0  0  0
 28 33  1  0  0  0  0
 29 28  1  0  0  0  0
 30 31  1  0  0  0  0
 30 29  2  0  0  0  0
 31 26  2  0  0  0  0
 34 29  1  0  0  0  0
 35 30  1  0  0  0  0
 36 37  1  0  0  0  0
 37 38  1  0  0  0  0
 37 39  2  0  0  0  0
 39 40  1  0  0  0  0
 41 39  1  0  0  0  0
 42 41  2  0  0  0  0
 43 36  2  0  0  0  0
 43 42  1  0  0  0  0
M  END
>  <minimizedAffinity>
-5.53002167

$$$$

 OpenBabel03252507213D

 43 46  0  0  1  0  0  0  0  0999 V2000
   39.6940   29.9920   40.5880 C   0  0  0  0  0  0  0  0  0  0  0  0
   40.5610   29.2530   41.1300 O   0  0  0  0  0  0  0  0  0  0  0  0
   38.2740   29.8770   40.8150 N   0  0  0  0  0  0  0  0  0  0  0  0
   37.2610   30.9010   41.0550 C   0  0  0  0  0  0  0  0  0  0  0  0
   36.0990   30.6920   40.0830 C   0  0  0  0  0  0  0  0  0  0  0  0
   35.4490   29.3540   40.3450 C   0  0  0  0  0  0  0  0  0  0  0  0
   36.3170   28.5330   41.2570 C   0  0  0  0  0  0  0  0  0  0  0  0
   37.7540   28.5280   40.8020 C   0  0  2  0  0  0  0  0  0  0  0  0
   36.9130   30.9430   42.0850 H   0  0  0  0  0  0  0  0  0  0  0  0
   37.7340   31.8630   40.7030 H   0  0  0  0  0  0  0  0  0  0  0  0
   36.5020   30.7390   39.0480 H   0  0  0  0  0  0  0  0  0  0  0  0
   35.3990   31.5420   40.2730 H   0  0  0  0  0  0  0  0  0  0  0  0
   35.1360   28.8370   39.4350 H   0  0  0  0  0  0  0  0  0  0  0  0
   34.5030   29.5690   40.9200 H   0  0  0  0  0  0  0  0  0  0  0  0
   35.9420   27.5010   41.2790 H   0  0  0  0  0  0  0  0  0  0  0  0
   36.2460   28.9660   42.2790 H   0  0  0  0  0  0  0  0  0  0  0  0
   37.7630   28.1820   39.7480 H   0  0  0  0  0  0  0  0  0  0  0  0
   40.7300   32.1860   40.2480 C   0  0  0  0  0  0  0  0  0  0  0  0
   40.1580   31.0180   39.6840 C   0  0  0  0  0  0  0  0  0  0  0  0
   40.0630   30.8980   38.3150 C   0  0  0  0  0  0  0  0  0  0  0  0
   40.5240   31.9120   37.5480 N   0  0  0  0  0  0  0  0  0  0  0  0
   41.0740   33.0360   38.0720 C   0  0  0  0  0  0  0  0  0  0  0  0
   41.1660   33.1510   39.4150 N   0  0  0  0  0  0  0  0  0  0  0  0
   40.7880   32.2460   41.3280 H   0  0  0  0  0  0  0  0  0  0  0  0
   41.4410   33.8430   37.4520 H   0  0  0  0  0  0  0  0  0  0  0  0
   39.4700   29.6980   37.7620 C   0  0  0  0  0  0  0  0  0  0  0  0
   40.2230   28.5710   37.6130 C   0  0  0  0  0  0  0  0  0  0  0  0
   39.6360   27.4380   37.0840 C   0  0  0  0  0  0  0  0  0  0  0  0
   38.3120   27.3880   36.6930 C   0  0  0  0  0  0  0  0  0  0  0  0
   37.5920   28.5660   36.8680 C   0  0  0  0  0  0  0  0  0  0  0  0
   38.1930   29.6480   37.3850 N   0  0  0  0  0  0  0  0  0  0  0  0
   41.2610   28.4560   37.8660 H   0  0  0  0  0  0  0  0  0  0  0  0
   40.1960   26.5110   36.9440 H   0  0  0  0  0  0  0  0  0  0  0  0
   37.8850   26.4810   36.2820 H   0  0  0  0  0  0  0  0  0  0  0  0
   36.5490   28.5800   36.5780 H   0  0  0  0  0  0  0  0  0  0  0  0
   38.5510   27.5700   41.6010 C   0  0  0  0  0  0  0  0  0  0  0  0
   38.6930   27.5950   42.9710 C   0  0  0  0  0  0  0  0  0  0  0  0
   38.1740   28.3900   43.5120 H   0  0  0  0  0  0  0  0  0  0  0  0
   39.4460   26.6840   43.6800 C   0  0  0  0  0  0  0  0  0  0  0  0
   39.5390   26.7290   44.7580 H   0  0  0  0  0  0  0  0  0  0  0  0
   40.1080   25.6750   43.0210 C   0  0  0  0  0  3  0  0  0  0  0  0
   39.9630   25.6550   41.6560 C   0  0  0  0  0  3  0  0  0  0  0  0
   39.2240   26.5540   40.9870 N   0  0  0  0  0  0  0  0  0  0  0  0
  1  3  1  0  0  0  0
  1  2  2  0  0  0  0
  3  4  1  0  0  0  0
  4  9  1  0  0  0  0
  5 12  1  0  0  0  0
  5  6  1  0  0  0  0
  5  4  1  0  0  0  0
  6 14  1  0  0  0  0
  6  7  1  0  0  0  0
  7 15  1  0  0  0  0
  7 16  1  0  0  0  0
  8 17  1  6  0  0  0
  8  3  1  0  0  0  0
  8  7  1  0  0  0  0
  8 36  1  0  0  0  0
 10  4  1  0  0  0  0
 11  5  1  0  0  0  0
 13  6  1  0  0  0  0
 18 24  1  0  0  0  0
 19 18  1  0  0  0  0
 19  1  1  0  0  0  0
 20 19  2  0  0  0  0
 21 22  2  0  0  0  0
 21 20  1  0  0  0  0
 22 23  1  0  0  0  0
 23 18  2  0  0  0  0
 25 22  1  0  0  0  0
 26 20  1  0  0  0  0
 27 26  1  0  0  0  0
 27 32  1  0  0  0  0
 28 27  2  0  0  0  0
 29 30  2  0  0  0  0
 29 28  1  0  0  0  0
 30 31  1  0  0  0  0
 31 26  2  0  0  0  0
 33 28  1  0  0  0  0
 34 29  1  0  0  0  0
 35 30  1  0  0  0  0
 36 37  1  0  0  0  0
 37 38  1  0  0  0  0
 37 39  2  0  0  0  0
 39 40  1  0  0  0  0
 41 39  1  0  0  0  0
 42 41  2  0  0  0  0
 43 36  2  0  0  0  0
 43 42  1  0  0  0  0
M  END
>  <minimizedAffinity>
-5.50935125

$$$$

 OpenBabel03252507213D

 43 46  0  0  1  0  0  0  0  0999 V2000
   39.2220   27.4810   39.8160 C   0  0  0  0  0  0  0  0  0  0  0  0
   39.1750   26.4220   39.1300 O   0  0  0  0  0  0  0  0  0  0  0  0
   38.8630   27.5600   41.2100 N   0  0  0  0  0  0  0  0  0  0  0  0
   39.5240   28.2290   42.3280 C   0  0  0  0  0  0  0  0  0  0  0  0
   38.5060   29.1050   43.0580 C   0  0  0  0  0  0  0  0  0  0  0  0
   37.4130   28.2400   43.6420 C   0  0  0  0  0  0  0  0  0  0  0  0
   37.5040   26.8500   43.0760 C   0  0  0  0  0  0  0  0  0  0  0  0
   37.6470   26.8670   41.5760 C   0  0  2  0  0  0  0  0  0  0  0  0
   40.0250   27.5490   43.0140 H   0  0  0  0  0  0  0  0  0  0  0  0
   40.2210   28.9740   41.8470 H   0  0  0  0  0  0  0  0  0  0  0  0
   38.0870   29.8300   42.3270 H   0  0  0  0  0  0  0  0  0  0  0  0
   39.0870   29.6360   43.8510 H   0  0  0  0  0  0  0  0  0  0  0  0
   36.4200   28.6900   43.5740 H   0  0  0  0  0  0  0  0  0  0  0  0
   37.6370   28.1470   44.7420 H   0  0  0  0  0  0  0  0  0  0  0  0
   36.5970   26.2910   43.3450 H   0  0  0  0  0  0  0  0  0  0  0  0
   38.3870   26.3510   43.5340 H   0  0  0  0  0  0  0  0  0  0  0  0
   36.7990   27.4580   41.1720 H   0  0  0  0  0  0  0  0  0  0  0  0
   41.0580   28.8620   38.9660 C   0  0  0  0  0  0  0  0  0  0  0  0
   39.6640   28.6880   39.1570 C   0  0  0  0  0  0  0  0  0  0  0  0
   38.7890   29.6550   38.7170 C   0  0  0  0  0  0  0  0  0  0  0  0
   39.2980   30.7520   38.1110 N   0  0  0  0  0  0  0  0  0  0  0  0
   40.6280   30.9350   37.9210 C   0  0  0  0  0  0  0  0  0  0  0  0
   41.4850   29.9840   38.3530 N   0  0  0  0  0  0  0  0  0  0  0  0
   41.7170   28.0800   39.3250 H   0  0  0  0  0  0  0  0  0  0  0  0
   41.0270   31.8150   37.4350 H   0  0  0  0  0  0  0  0  0  0  0  0
   37.3710   29.4570   38.9270 C   0  0  0  0  0  0  0  0  0  0  0  0
   36.7480   30.0490   39.9850 C   0  0  0  0  0  0  0  0  0  0  0  0
   35.3930   29.8470   40.1660 C   0  0  0  0  0  0  0  0  0  0  0  0
   34.6300   29.0650   39.3220 C   0  0  0  0  0  0  0  0  0  0  0  0
   35.3170   28.4840   38.2590 C   0  0  0  0  0  0  0  0  0  0  0  0
   36.6320   28.7020   38.1140 N   0  0  0  0  0  0  0  0  0  0  0  0
   37.2040   30.6800   40.7270 H   0  0  0  0  0  0  0  0  0  0  0  0
   34.8480   30.2990   40.9970 H   0  0  0  0  0  0  0  0  0  0  0  0
   33.5690   28.9280   39.4940 H   0  0  0  0  0  0  0  0  0  0  0  0
   34.7640   27.8610   37.5670 H   0  0  0  0  0  0  0  0  0  0  0  0
   37.5490   25.4980   41.0260 C   0  0  0  0  0  0  0  0  0  0  0  0
   36.5980   25.0610   40.1290 C   0  0  0  0  0  0  0  0  0  0  0  0
   35.8540   25.7900   39.7970 H   0  0  0  0  0  0  0  0  0  0  0  0
   36.5390   23.7750   39.6400 C   0  0  0  0  0  0  0  0  0  0  0  0
   35.7790   23.4610   38.9350 H   0  0  0  0  0  0  0  0  0  0  0  0
   37.4640   22.8400   40.0430 C   0  0  0  0  0  3  0  0  0  0  0  0
   38.4080   23.2800   40.9370 C   0  0  0  0  0  3  0  0  0  0  0  0
   38.4460   24.5390   41.3990 N   0  0  0  0  0  0  0  0  0  0  0  0
  1  3  1  0  0  0  0
  2  1  2  0  0  0  0
  3  8  1  0  0  0  0
  3  4  1  0  0  0  0
  4  9  1  0  0  0  0
  4  5  1  0  0  0  0
  5  6  1  0  0  0  0
  5 12  1  0  0  0  0
  6 14  1  0  0  0  0
  7 15  1  0  0  0  0
  7 16  1  0  0  0  0
  7  6  1  0  0  0  0
  8 17  1  6  0  0  0
  8  7  1  0  0  0  0
 10  4  1  0  0  0  0
 11  5  1  0  0  0  0
 13  6  1  0  0  0  0
 18 19  1  0  0  0  0
 18 24  1  0  0  0  0
 19  1  1  0  0  0  0
 20 26  1  0  0  0  0
 20 19  2  0  0  0  0
 21 20  1  0  0  0  0
 22 21  2  0  0  0  0
 22 23  1  0  0  0  0
 23 18  2  0  0  0  0
 25 22  1  0  0  0  0
 26 27  1  0  0  0  0
 27 28  2  0  0  0  0
 27 32  1  0  0  0  0
 28 33  1  0  0  0  0
 29 34  1  0  0  0  0
 29 28  1  0  0  0  0
 30 29  2  0  0  0  0
 31 30  1  0  0  0  0
 31 26  2  0  0  0  0
 35 30  1  0  0  0  0
 36 43  1  0  0  0  0
 36  8  1  0  0  0  0
 37 36  2  0  0  0  0
 38 37  1  0  0  0  0
 39 41  2  0  0  0  0
 39 37  1  0  0  0  0
 40 39  1  0  0  0  0
 41 42  1  0  0  0  0
 42 43  2  0  0  0  0
M  END
>  <minimizedAffinity>
-5.50857735

$$$$

 OpenBabel03252507213D

 43 46  0  0  1  0  0  0  0  0999 V2000
   39.0740   29.1900   40.0170 C   0  0  0  0  0  0  0  0  0  0  0  0
   40.3240   29.3470   39.9430 O   0  0  0  0  0  0  0  0  0  0  0  0
   38.3740   28.8140   41.2210 N   0  0  0  0  0  0  0  0  0  0  0  0
   37.1390   29.3310   41.8060 C   0  0  0  0  0  0  0  0  0  0  0  0
   36.2000   28.1620   42.1020 C   0  0  0  0  0  0  0  0  0  0  0  0
   36.8290   27.2480   43.1270 C   0  0  0  0  0  0  0  0  0  0  0  0
   38.2780   27.6020   43.3070 C   0  0  0  0  0  0  0  0  0  0  0  0
   38.9850   27.7480   41.9830 C   0  0  2  0  0  0  0  0  0  0  0  0
   37.2950   29.9470   42.6890 H   0  0  0  0  0  0  0  0  0  0  0  0
   36.6280   29.8790   40.9630 H   0  0  0  0  0  0  0  0  0  0  0  0
   36.0150   27.6190   41.1500 H   0  0  0  0  0  0  0  0  0  0  0  0
   35.2570   28.6280   42.4790 H   0  0  0  0  0  0  0  0  0  0  0  0
   36.6440   26.1880   42.9360 H   0  0  0  0  0  0  0  0  0  0  0  0
   36.3240   27.4780   44.1080 H   0  0  0  0  0  0  0  0  0  0  0  0
   38.7720   26.8150   43.8940 H   0  0  0  0  0  0  0  0  0  0  0  0
   38.3300   28.5600   43.8700 H   0  0  0  0  0  0  0  0  0  0  0  0
   38.8230   26.8070   41.4190 H   0  0  0  0  0  0  0  0  0  0  0  0
   37.7720   28.2610   38.1620 C   0  0  0  0  0  0  0  0  0  0  0  0
   38.2990   29.4020   38.8170 C   0  0  0  0  0  0  0  0  0  0  0  0
   38.0610   30.6560   38.3000 C   0  0  0  0  0  0  0  0  0  0  0  0
   37.3240   30.7540   37.1700 N   0  0  0  0  0  0  0  0  0  0  0  0
   36.8130   29.6720   36.5310 C   0  0  0  0  0  0  0  0  0  0  0  0
   37.0480   28.4440   37.0400 N   0  0  0  0  0  0  0  0  0  0  0  0
   37.9790   27.2900   38.5980 H   0  0  0  0  0  0  0  0  0  0  0  0
   36.2240   29.7600   35.6280 H   0  0  0  0  0  0  0  0  0  0  0  0
   38.6140   31.8060   38.9840 C   0  0  0  0  0  0  0  0  0  0  0  0
   37.9020   32.4200   39.9710 C   0  0  0  0  0  0  0  0  0  0  0  0
   38.4490   33.5150   40.6100 C   0  0  0  0  0  0  0  0  0  0  0  0
   39.6940   34.0270   40.2960 C   0  0  0  0  0  0  0  0  0  0  0  0
   40.3750   33.3600   39.2810 C   0  0  0  0  0  0  0  0  0  0  0  0
   39.8140   32.3000   38.6820 N   0  0  0  0  0  0  0  0  0  0  0  0
   36.9250   32.1440   40.3240 H   0  0  0  0  0  0  0  0  0  0  0  0
   37.9200   34.0420   41.4070 H   0  0  0  0  0  0  0  0  0  0  0  0
   40.0920   34.8880   40.8190 H   0  0  0  0  0  0  0  0  0  0  0  0
   41.3560   33.7210   38.9960 H   0  0  0  0  0  0  0  0  0  0  0  0
   40.4410   27.9120   42.1840 C   0  0  0  0  0  0  0  0  0  0  0  0
   41.0400   28.9060   42.9290 C   0  0  0  0  0  0  0  0  0  0  0  0
   40.3810   29.6330   43.4100 H   0  0  0  0  0  0  0  0  0  0  0  0
   42.4020   29.0250   43.0920 C   0  0  0  0  0  0  0  0  0  0  0  0
   42.8440   29.8170   43.6840 H   0  0  0  0  0  0  0  0  0  0  0  0
   43.2510   28.1210   42.4960 C   0  0  0  0  0  3  0  0  0  0  0  0
   42.6490   27.1340   41.7560 C   0  0  0  0  0  3  0  0  0  0  0  0
   41.3180   27.0380   41.6110 N   0  0  0  0  0  0  0  0  0  0  0  0
  1  3  1  0  0  0  0
  2  1  2  0  0  0  0
  3  4  1  0  0  0  0
  3  8  1  0  0  0  0
  4  5  1  0  0  0  0
  4  9  1  0  0  0  0
  5 12  1  0  0  0  0
  5  6  1  0  0  0  0
  6  7  1  0  0  0  0
  6 14  1  0  0  0  0
  7 16  1  0  0  0  0
  7 15  1  0  0  0  0
  8 17  1  6  0  0  0
  8 36  1  0  0  0  0
  8  7  1  0  0  0  0
 10  4  1  0  0  0  0
 11  5  1  0  0  0  0
 13  6  1  0  0  0  0
 18 24  1  0  0  0  0
 18 19  1  0  0  0  0
 19  1  1  0  0  0  0
 20 19  2  0  0  0  0
 20 26  1  0  0  0  0
 21 20  1  0  0  0  0
 22 23  1  0  0  0  0
 22 21  2  0  0  0  0
 23 18  2  0  0  0  0
 25 22  1  0  0  0  0
 26 27  1  0  0  0  0
 27 32  1  0  0  0  0
 27 28  2  0  0  0  0
 28 33  1  0  0  0  0
 29 28  1  0  0  0  0
 29 34  1  0  0  0  0
 30 29  2  0  0  0  0
 31 26  2  0  0  0  0
 31 30  1  0  0  0  0
 35 30  1  0  0  0  0
 36 37  1  0  0  0  0
 37 39  2  0  0  0  0
 37 38  1  0  0  0  0
 39 40  1  0  0  0  0
 41 39  1  0  0  0  0
 42 41  2  0  0  0  0
 43 42  1  0  0  0  0
 43 36  2  0  0  0  0
M  END
>  <minimizedAffinity>
-5.48544788

$$$$

 OpenBabel03252507213D

 43 46  0  0  1  0  0  0  0  0999 V2000
   37.0190   28.5770   38.5880 C   0  0  0  0  0  0  0  0  0  0  0  0
   37.1440   27.5040   39.2400 O   0  0  0  0  0  0  0  0  0  0  0  0
   37.4450   29.8700   39.0650 N   0  0  0  0  0  0  0  0  0  0  0  0
   38.1650   30.9450   38.3890 C   0  0  0  0  0  0  0  0  0  0  0  0
   37.3970   32.2540   38.5750 C   0  0  0  0  0  0  0  0  0  0  0  0
   37.3410   32.6110   40.0420 C   0  0  0  0  0  0  0  0  0  0  0  0
   37.7850   31.4380   40.8700 C   0  0  0  0  0  0  0  0  0  0  0  0
   37.1060   30.1630   40.4410 C   0  0  2  0  0  0  0  0  0  0  0  0
   39.2010   31.0470   38.7040 H   0  0  0  0  0  0  0  0  0  0  0  0
   38.0510   30.7220   37.2890 H   0  0  0  0  0  0  0  0  0  0  0  0
   36.3730   32.1150   38.1640 H   0  0  0  0  0  0  0  0  0  0  0  0
   37.9600   33.0150   37.9810 H   0  0  0  0  0  0  0  0  0  0  0  0
   36.3850   33.0420   40.3480 H   0  0  0  0  0  0  0  0  0  0  0  0
   38.1110   33.4180   40.2010 H   0  0  0  0  0  0  0  0  0  0  0  0
   37.5520   31.6320   41.9260 H   0  0  0  0  0  0  0  0  0  0  0  0
   38.8880   31.3360   40.7560 H   0  0  0  0  0  0  0  0  0  0  0  0
   36.0120   30.3450   40.4780 H   0  0  0  0  0  0  0  0  0  0  0  0
   35.1010   29.0220   37.1310 C   0  0  0  0  0  0  0  0  0  0  0  0
   36.4100   28.5010   37.2810 C   0  0  0  0  0  0  0  0  0  0  0  0
   37.0530   27.9480   36.1950 C   0  0  0  0  0  0  0  0  0  0  0  0
   36.4020   27.9210   35.0100 N   0  0  0  0  0  0  0  0  0  0  0  0
   35.1480   28.4150   34.8500 C   0  0  0  0  0  0  0  0  0  0  0  0
   34.5210   28.9570   35.9160 N   0  0  0  0  0  0  0  0  0  0  0  0
   34.6270   29.4500   38.0070 H   0  0  0  0  0  0  0  0  0  0  0  0
   34.6340   28.3900   33.8990 H   0  0  0  0  0  0  0  0  0  0  0  0
   38.3880   27.4180   36.3740 C   0  0  0  0  0  0  0  0  0  0  0  0
   38.6000   26.0720   36.3340 C   0  0  0  0  0  0  0  0  0  0  0  0
   39.8820   25.5880   36.5050 C   0  0  0  0  0  0  0  0  0  0  0  0
   40.9730   26.4080   36.7200 C   0  0  0  0  0  0  0  0  0  0  0  0
   40.6990   27.7730   36.7520 C   0  0  0  0  0  0  0  0  0  0  0  0
   39.4420   28.2070   36.5810 N   0  0  0  0  0  0  0  0  0  0  0  0
   37.8560   25.3100   36.1800 H   0  0  0  0  0  0  0  0  0  0  0  0
   40.1040   24.5200   36.4810 H   0  0  0  0  0  0  0  0  0  0  0  0
   41.9650   25.9940   36.8510 H   0  0  0  0  0  0  0  0  0  0  0  0
   41.5200   28.4590   36.9170 H   0  0  0  0  0  0  0  0  0  0  0  0
   37.4150   29.0640   41.3820 C   0  0  0  0  0  0  0  0  0  0  0  0
   36.4860   28.3130   42.0690 C   0  0  0  0  0  0  0  0  0  0  0  0
   35.4320   28.5520   41.9050 H   0  0  0  0  0  0  0  0  0  0  0  0
   36.8150   27.2970   42.9390 C   0  0  0  0  0  0  0  0  0  0  0  0
   36.0610   26.7240   43.4660 H   0  0  0  0  0  0  0  0  0  0  0  0
   38.1340   26.9780   43.1620 C   0  0  0  0  0  3  0  0  0  0  0  0
   39.0550   27.7290   42.4750 C   0  0  0  0  0  3  0  0  0  0  0  0
   38.7110   28.7150   41.6320 N   0  0  0  0  0  0  0  0  0  0  0  0
  1  3  1  0  0  0  0
  1  2  2  0  0  0  0
  3  8  1  0  0  0  0
  4  5  1  0  0  0  0
  4  9  1  0  0  0  0
  4  3  1  0  0  0  0
  5  6  1  0  0  0  0
  6 14  1  0  0  0  0
  6 13  1  0  0  0  0
  6  7  1  0  0  0  0
  7 15  1  0  0  0  0
  8 17  1  1  0  0  0
  8  7  1  0  0  0  0
  8 36  1  0  0  0  0
 10  4  1  0  0  0  0
 11  5  1  0  0  0  0
 12  5  1  0  0  0  0
 16  7  1  0  0  0  0
 18 19  1  0  0  0  0
 18 24  1  0  0  0  0
 19  1  1  0  0  0  0
 20 26  1  0  0  0  0
 20 19  2  0  0  0  0
 21 20  1  0  0  0  0
 22 21  2  0  0  0  0
 22 23  1  0  0  0  0
 23 18  2  0  0  0  0
 25 22  1  0  0  0  0
 26 31  1  0  0  0  0
 27 26  2  0  0  0  0
 27 28  1  0  0  0  0
 28 29  2  0  0  0  0
 29 30  1  0  0  0  0
 29 34  1  0  0  0  0
 30 35  1  0  0  0  0
 31 30  2  0  0  0  0
 32 27  1  0  0  0  0
 33 28  1  0  0  0  0
 36 43  2  0  0  0  0
 36 37  1  0  0  0  0
 37 39  2  0  0  0  0
 38 37  1  0  0  0  0
 39 41  1  0  0  0  0
 39 40  1  0  0  0  0
 42 41  2  0  0  0  0
 43 42  1  0  0  0  0
M  END
>  <minimizedAffinity>
-5.47587061

$$$$
