
 OpenBabel03252509163D

 24 26  0  0  0  0  0  0  0  0999 V2000
   47.0930   32.8380   43.0240 C   0  0  0  0  0  0  0  0  0  0  0  0
   46.9570   31.8060   43.9940 C   0  0  0  0  0  0  0  0  0  0  0  0
   47.9270   30.8590   44.0550 C   0  0  0  0  0  0  0  0  0  0  0  0
   49.0240   30.9340   43.1630 C   0  0  0  0  0  0  0  0  0  0  0  0
   48.6400   32.4520   42.1810 S   0  0  0  0  0  0  0  0  0  0  0  0
   46.1040   31.7820   44.6580 H   0  0  0  0  0  0  0  0  0  0  0  0
   47.9460   30.0440   44.7240 H   0  0  0  0  0  0  0  0  0  0  0  0
   44.8660   35.7950   43.4360 C   0  0  0  0  0  0  0  0  0  0  0  0
   44.2040   35.7670   42.1810 C   0  0  0  0  0  0  0  0  0  0  0  0
   44.5470   34.7540   41.2670 C   0  0  0  0  0  0  0  0  0  0  0  0
   45.5130   33.8400   41.6470 N   0  0  0  0  0  0  0  0  0  0  0  0
   46.1070   33.9210   42.8590 C   0  0  0  0  0  0  0  0  0  0  0  0
   45.7960   34.8880   43.7600 N   0  0  0  0  0  0  0  0  0  0  0  0
   44.5990   36.5630   44.1150 H   0  0  0  0  0  0  0  0  0  0  0  0
   43.4520   36.4950   41.9090 H   0  0  0  0  0  0  0  0  0  0  0  0
   44.0900   34.6690   40.2990 H   0  0  0  0  0  0  0  0  0  0  0  0
   50.1650   30.0920   43.0080 C   0  0  0  0  0  0  0  0  0  0  0  0
   51.4370   30.6090   42.9450 C   0  0  0  0  0  0  0  0  0  0  0  0
   51.5160   31.6800   43.0190 H   0  0  0  0  0  0  0  0  0  0  0  0
   52.4860   29.7310   42.7940 C   0  0  0  0  0  0  0  0  0  0  0  0
   53.4780   30.1670   42.7480 H   0  0  0  0  0  0  0  0  0  0  0  0
   52.2930   28.3530   42.7070 C   0  0  0  0  0  3  0  0  0  0  0  0
   50.9810   27.9290   42.7800 C   0  0  0  0  0  3  0  0  0  0  0  0
   49.9270   28.7730   42.9280 N   0  0  0  0  0  0  0  0  0  0  0  0
  1  2  2  0  0  0  0
  2  3  1  0  0  0  0
  2  6  1  0  0  0  0
  3  7  1  0  0  0  0
  4  3  2  0  0  0  0
  5  1  1  0  0  0  0
  5  4  1  0  0  0  0
  8 13  1  0  0  0  0
  8 14  1  0  0  0  0
  9  8  2  0  0  0  0
 10 11  2  0  0  0  0
 10  9  1  0  0  0  0
 11 12  1  0  0  0  0
 12  1  1  0  0  0  0
 12 13  2  0  0  0  0
 15  9  1  0  0  0  0
 16 10  1  0  0  0  0
 17  4  1  0  0  0  0
 18 17  1  0  0  0  0
 18 19  1  0  0  0  0
 20 18  2  0  0  0  0
 21 20  1  0  0  0  0
 22 23  2  0  0  0  0
 22 20  1  0  0  0  0
 23 24  1  0  0  0  0
 24 17  2  0  0  0  0
M  END
>  <minimizedAffinity>
-2.99897504

>  <minimizedRMSD>
5.59089518

$$$$
