
 OpenBabel03252501413D

 44 47  0  0  0  0  0  0  0  0999 V2000
   43.8420   34.6660   40.7530 O   0  0  0  0  0  0  0  0  0  0  0  0
   42.9660   32.1350   39.4640 Cl  0  0  0  0  0  0  0  0  0  0  0  0
   41.9430   33.4670   39.9650 C   0  0  0  0  0  0  0  0  0  0  0  0
   42.4490   34.6250   40.5670 C   0  0  0  0  0  0  0  0  0  0  0  0
   41.6110   35.6370   40.9390 C   0  0  0  0  0  0  0  0  0  0  0  0
   40.2450   35.5900   40.7540 C   0  0  0  0  0  0  0  0  0  0  0  0
   39.7060   34.4320   40.1480 C   0  0  0  0  0  0  0  0  0  0  0  0
   37.9800   34.2830   39.8720 Cl  0  0  0  0  0  0  0  0  0  0  0  0
   40.5840   33.4400   39.7890 C   0  0  0  0  0  0  0  0  0  0  0  0
   42.0420   36.5200   41.4040 H   0  0  0  0  0  0  0  0  0  0  0  0
   39.5870   36.3880   41.0480 H   0  0  0  0  0  0  0  0  0  0  0  0
   39.8260   31.3200   41.3310 F   0  0  0  0  0  0  0  0  0  0  0  0
   39.6630   31.1750   39.9740 C   0  0  0  0  0  0  0  0  0  0  0  0
   40.0380   32.2330   39.1600 C   0  0  0  0  0  0  0  0  0  0  0  0
   39.8560   32.0460   37.7860 C   0  0  0  0  0  0  0  0  0  0  0  0
   39.3290   30.8530   37.3240 C   0  0  0  0  0  0  0  0  0  0  0  0
   38.9700   29.8220   38.2010 C   0  0  0  0  0  0  0  0  0  0  0  0
   39.1360   29.9730   39.5730 C   0  0  0  0  0  0  0  0  0  0  0  0
   40.1490   32.8690   37.1580 H   0  0  0  0  0  0  0  0  0  0  0  0
   39.1920   30.7160   36.2700 H   0  0  0  0  0  0  0  0  0  0  0  0
   38.5570   28.8880   37.8410 H   0  0  0  0  0  0  0  0  0  0  0  0
   38.8730   29.2070   40.2730 H   0  0  0  0  0  0  0  0  0  0  0  0
   44.3500   34.1670   41.9540 C   0  0  0  0  0  0  0  0  0  0  0  0
   44.0400   33.0640   42.5320 O   0  0  0  0  0  0  0  0  0  0  0  0
   45.3280   34.9040   42.6870 N   0  0  0  0  0  0  0  0  0  0  0  0
   45.7270   35.7850   42.3750 H   0  0  0  0  0  0  0  0  0  0  0  0
   45.6410   34.1950   43.9120 C   0  0  0  0  0  0  0  0  0  0  0  0
   45.1650   34.4840   45.1520 C   0  0  0  0  0  0  0  0  0  0  0  0
   45.5860   33.6860   46.1840 C   0  0  0  0  0  0  0  0  0  0  0  0
   46.4470   32.6650   45.8930 N   0  0  0  0  0  0  0  0  0  0  0  0
   46.8960   32.4110   44.6610 C   0  0  0  0  0  0  0  0  0  0  0  0
   46.4900   33.1870   43.6310 N   0  0  0  0  0  0  0  0  0  0  0  0
   45.2190   33.8980   47.1800 H   0  0  0  0  0  0  0  0  0  0  0  0
   47.8160   31.2870   44.4780 C   0  0  0  0  0  0  0  0  0  0  0  0
   48.5850   31.1390   43.3410 C   0  0  0  0  0  0  0  0  0  0  0  0
   48.5200   31.8600   42.5550 H   0  0  0  0  0  0  0  0  0  0  0  0
   49.4180   30.0300   43.2880 C   0  0  0  0  0  0  0  0  0  0  0  0
   50.0010   29.9530   42.3820 H   0  0  0  0  0  0  0  0  0  0  0  0
   49.5210   29.0790   44.2940 C   0  0  0  0  0  0  0  0  0  0  0  0
   48.7170   29.3070   45.3930 C   0  0  0  0  0  0  0  0  0  0  0  0
   47.8850   30.3870   45.4760 N   0  0  0  0  0  0  0  0  0  0  0  0
   44.2840   35.5730   45.2690 N   0  0  0  0  0  0  0  0  0  0  0  0
   43.4380   35.5350   45.9070 H   0  0  0  0  0  0  0  0  0  0  0  0
   44.4060   36.4630   44.7470 H   0  0  0  0  0  0  0  0  0  0  0  0
  1 23  1  0  0  0  0
  2  3  1  0  0  0  0
  3  4  1  0  0  0  0
  4  1  1  0  0  0  0
  4  5  2  0  0  0  0
  5 10  1  0  0  0  0
  6  5  1  0  0  0  0
  6 11  1  0  0  0  0
  7  6  2  0  0  0  0
  8  7  1  0  0  0  0
  9  3  2  0  0  0  0
  9  7  1  0  0  0  0
 13 12  1  0  0  0  0
 14  9  1  0  0  0  0
 14 13  2  0  0  0  0
 15 14  1  0  0  0  0
 16 15  2  0  0  0  0
 16 17  1  0  0  0  0
 17 18  2  0  0  0  0
 18 13  1  0  0  0  0
 18 22  1  0  0  0  0
 19 15  1  0  0  0  0
 20 16  1  0  0  0  0
 21 17  1  0  0  0  0
 23 24  2  0  0  0  0
 23 25  1  0  0  0  0
 25 27  1  0  0  0  0
 26 25  1  0  0  0  0
 27 28  1  0  0  0  0
 28 42  1  0  0  0  0
 28 29  2  0  0  0  0
 29 33  1  0  0  0  0
 30 29  1  0  0  0  0
 31 30  2  0  0  0  0
 32 27  2  0  0  0  0
 32 31  1  0  0  0  0
 34 31  1  0  0  0  0
 34 41  1  0  0  0  0
 35 34  2  0  0  0  0
 36 35  1  0  0  0  0
 37 35  1  0  0  0  0
 37 39  2  0  0  0  0
 38 37  1  0  0  0  0
 39 40  1  0  0  0  0
 40 41  2  0  0  0  0
 42 43  1  0  0  0  0
 44 42  1  0  0  0  0
M  END
>  <minimizedAffinity>
-6.37639809

>  <minimizedRMSD>
0.613786578

$$$$
