
     RDKit          3D

 32 35  0  0  0  0  0  0  0  0999 V2000
   47.2284   31.3596   45.0767 C   0  0  0  0  0  0  0  0  0  0  0  0
   46.8861   32.7064   45.0992 C   0  0  0  0  0  0  0  0  0  0  0  0
   46.2886   33.3100   46.1871 C   0  0  0  0  0  0  0  0  0  0  0  0
   45.9959   32.5836   47.3330 C   0  0  0  0  0  0  0  0  0  0  0  0
   45.4417   32.8047   48.5433 N   0  0  0  0  0  0  0  0  0  0  0  0
   45.4335   31.6511   49.2538 C   0  0  0  0  0  0  0  0  0  0  0  0
   45.9901   30.7089   48.4694 N   0  0  0  0  0  0  0  0  0  0  0  0
   46.3466   31.2377   47.2894 C   0  0  0  0  0  0  0  0  0  0  0  0
   46.9445   30.6063   46.2174 C   0  0  0  0  0  0  0  0  0  0  0  0
   46.5207   35.1950   42.4205 C   0  0  0  0  0  0  0  0  0  0  0  0
   47.7164   35.0511   41.7068 C   0  0  0  0  0  0  0  0  0  0  0  0
   48.6423   34.0998   42.1504 C   0  0  0  0  0  0  0  0  0  0  0  0
   48.3164   33.3679   43.2598 N   0  0  0  0  0  0  0  0  0  0  0  0
   47.1643   33.5298   43.9198 C   0  0  0  0  0  0  0  0  0  0  0  0
   46.2495   34.4403   43.5164 N   0  0  0  0  0  0  0  0  0  0  0  0
   47.6917   30.9313   44.2098 H   0  0  0  0  0  0  0  0  0  0  0  0
   45.1049   33.7798   48.7756 H   0  0  0  0  0  0  0  0  0  0  0  0
   45.0143   31.6770   50.2537 H   0  0  0  0  0  0  0  0  0  0  0  0
   47.1895   29.5581   46.2518 H   0  0  0  0  0  0  0  0  0  0  0  0
   45.7791   35.9360   42.0902 H   0  0  0  0  0  0  0  0  0  0  0  0
   47.9015   35.6694   40.8361 H   0  0  0  0  0  0  0  0  0  0  0  0
   49.5734   33.9589   41.6289 H   0  0  0  0  0  0  0  0  0  0  0  0
   45.9253   34.7252   46.2197 C   0  0  0  0  0  0  0  0  0  0  0  0
   45.0719   35.3838   47.0870 C   0  0  0  0  0  0  0  0  0  0  0  0
   44.6357   34.7101   47.8300 H   0  0  0  0  0  0  0  0  0  0  0  0
   44.8820   36.7407   46.9210 C   0  0  0  0  0  0  0  0  0  0  0  0
   44.1961   37.1567   47.6518 H   0  0  0  0  0  0  0  0  0  0  0  0
   45.5290   37.4111   45.9166 C   0  0  0  0  0  0  0  0  0  0  0  0
   46.3790   36.7467   45.0552 C   0  0  0  0  0  0  0  0  0  0  0  0
   46.5502   35.4313   45.2322 N   0  0  0  0  0  0  0  0  0  0  0  0
   45.3460   38.4608   45.8334 H   0  0  0  0  0  0  0  0  0  0  0  0
   46.8892   37.2881   44.2593 H   0  0  0  0  0  0  0  0  0  0  0  0
  1  2  2  0
  1  9  1  0
  2  3  1  0
  3  4  2  0
  4  5  1  0
  5  6  1  0
  7  6  2  0
  8  4  1  0
  8  7  1  0
  9  8  2  0
 10 15  2  0
 11 12  2  0
 11 10  1  0
 12 13  1  0
 13 14  2  0
 14  2  1  0
 15 14  1  0
  1 16  1  0
  5 17  1  0
  6 18  1  0
  9 19  1  0
 10 20  1  0
 11 21  1  0
 12 22  1  0
 23 24  2  0
 24 25  1  0
 24 26  1  0
 26 27  1  0
 26 28  2  0
 28 29  1  0
 29 30  2  0
 30 23  1  0
 28 31  1  0
 29 32  1  0
  3 23  1  0
M  ISO  8  16  14  17   9  18  14  19  14  20  14  21  14  22  14  25  15
M  ISO  1  27  16
M  END
>  <DihAtoms>  (1) 
1,2,22,23

>  <DihDeg>  (1) 
118.79863829044127

$$$$
