
 OpenBabel03252509163D

 24 26  0  0  0  0  0  0  0  0999 V2000
   46.0860   32.9220   46.1270 C   0  0  0  0  0  0  0  0  0  0  0  0
   45.7030   32.7510   47.4870 C   0  0  0  0  0  0  0  0  0  0  0  0
   46.3630   31.8190   48.2200 C   0  0  0  0  0  0  0  0  0  0  0  0
   47.3950   31.0630   47.6120 C   0  0  0  0  0  0  0  0  0  0  0  0
   47.4180   31.7290   45.8880 S   0  0  0  0  0  0  0  0  0  0  0  0
   44.9100   33.3480   47.9160 H   0  0  0  0  0  0  0  0  0  0  0  0
   46.1780   31.5940   49.2340 H   0  0  0  0  0  0  0  0  0  0  0  0
   44.3320   35.8420   44.6210 C   0  0  0  0  0  0  0  0  0  0  0  0
   44.3500   35.4490   43.2580 C   0  0  0  0  0  0  0  0  0  0  0  0
   44.9530   34.2220   42.9230 C   0  0  0  0  0  0  0  0  0  0  0  0
   45.4950   33.4690   43.9480 N   0  0  0  0  0  0  0  0  0  0  0  0
   45.4460   33.8990   45.2290 C   0  0  0  0  0  0  0  0  0  0  0  0
   44.8700   35.0770   45.5790 N   0  0  0  0  0  0  0  0  0  0  0  0
   43.8750   36.7670   44.8600 H   0  0  0  0  0  0  0  0  0  0  0  0
   43.9180   36.0580   42.4760 H   0  0  0  0  0  0  0  0  0  0  0  0
   45.0050   33.8600   41.9140 H   0  0  0  0  0  0  0  0  0  0  0  0
   48.2380   30.0390   48.1350 C   0  0  0  0  0  0  0  0  0  0  0  0
   48.2740   28.7830   47.5760 C   0  0  0  0  0  0  0  0  0  0  0  0
   47.6330   28.6240   46.7280 H   0  0  0  0  0  0  0  0  0  0  0  0
   49.1140   27.8490   48.1390 C   0  0  0  0  0  0  0  0  0  0  0  0
   49.1220   26.8670   47.6780 H   0  0  0  0  0  0  0  0  0  0  0  0
   49.9140   28.1400   49.2420 C   0  0  0  0  0  3  0  0  0  0  0  0
   49.8090   29.4250   49.7320 C   0  0  0  0  0  3  0  0  0  0  0  0
   48.9900   30.3670   49.1980 N   0  0  0  0  0  0  0  0  0  0  0  0
  1  2  2  0  0  0  0
  2  6  1  0  0  0  0
  2  3  1  0  0  0  0
  3  7  1  0  0  0  0
  4 17  1  0  0  0  0
  4  3  2  0  0  0  0
  5  1  1  0  0  0  0
  5  4  1  0  0  0  0
  8 14  1  0  0  0  0
  8 13  1  0  0  0  0
  9  8  2  0  0  0  0
 10  9  1  0  0  0  0
 10 11  2  0  0  0  0
 11 12  1  0  0  0  0
 12 13  2  0  0  0  0
 12  1  1  0  0  0  0
 15  9  1  0  0  0  0
 16 10  1  0  0  0  0
 17 24  1  0  0  0  0
 18 17  2  0  0  0  0
 18 20  1  0  0  0  0
 19 18  1  0  0  0  0
 20 22  2  0  0  0  0
 21 20  1  0  0  0  0
 22 23  1  0  0  0  0
 24 23  2  0  0  0  0
M  END
>  <minimizedAffinity>
-4.23336029

>  <minimizedRMSD>
1.32032502

$$$$
