
 OpenBabel03252509123D

 30 33  0  0  0  0  0  0  0  0999 V2000
   39.3490   30.2120   41.9980 C   0  0  0  0  0  0  0  0  0  0  0  0
   38.2600   29.6870   41.3130 C   0  0  0  0  0  0  0  0  0  0  0  0
   37.4410   30.4540   40.5090 C   0  0  0  0  0  0  0  0  0  0  0  0
   37.6720   31.8120   40.3460 C   0  0  0  0  0  0  0  0  0  0  0  0
   37.1210   32.8470   39.6780 N   0  0  0  0  0  0  0  0  0  0  0  0
   37.8300   33.9750   39.9300 C   0  0  0  0  0  0  0  0  0  0  0  0
   38.8280   33.6270   40.7640 N   0  0  0  0  0  0  0  0  0  0  0  0
   38.7670   32.3160   41.0410 C   0  0  0  0  0  0  0  0  0  0  0  0
   39.6040   31.5760   41.8520 C   0  0  0  0  0  0  0  0  0  0  0  0
   39.9610   29.5800   42.6120 H   0  0  0  0  0  0  0  0  0  0  0  0
   36.2660   32.6690   39.0820 H   0  0  0  0  0  0  0  0  0  0  0  0
   37.5000   34.8950   39.4570 H   0  0  0  0  0  0  0  0  0  0  0  0
   40.4360   32.0330   42.3600 H   0  0  0  0  0  0  0  0  0  0  0  0
   37.0060   26.4970   42.6370 C   0  0  0  0  0  0  0  0  0  0  0  0
   37.4130   25.5820   41.6590 C   0  0  0  0  0  0  0  0  0  0  0  0
   38.1150   26.0650   40.5490 C   0  0  0  0  0  0  0  0  0  0  0  0
   38.3600   27.4110   40.4920 N   0  0  0  0  0  0  0  0  0  0  0  0
   37.9580   28.2600   41.4440 C   0  0  0  0  0  0  0  0  0  0  0  0
   37.2780   27.8230   42.5290 N   0  0  0  0  0  0  0  0  0  0  0  0
   36.4530   26.1390   43.5170 H   0  0  0  0  0  0  0  0  0  0  0  0
   37.1810   24.5300   41.7770 H   0  0  0  0  0  0  0  0  0  0  0  0
   38.4450   25.3940   39.7760 H   0  0  0  0  0  0  0  0  0  0  0  0
   36.2930   29.9120   39.7840 C   0  0  0  0  0  0  0  0  0  0  0  0
   35.0640   29.5100   40.2770 C   0  0  0  0  0  0  0  0  0  0  0  0
   34.9920   29.6360   41.3610 H   0  0  0  0  0  0  0  0  0  0  0  0
   34.1240   29.0260   39.3890 C   0  0  0  0  0  0  0  0  0  0  0  0
   33.1990   28.7400   39.8790 H   0  0  0  0  0  0  0  0  0  0  0  0
   34.4130   28.9480   38.0520 C   0  0  0  0  0  3  0  0  0  0  0  0
   35.6420   29.3510   37.5680 C   0  0  0  0  0  3  0  0  0  0  0  0
   36.5390   29.8180   38.4440 N   0  0  0  0  0  0  0  0  0  0  0  0
  1 10  1  0  0  0  0
  2 18  1  0  0  0  0
  2  1  2  0  0  0  0
  3  2  1  0  0  0  0
  4  3  2  0  0  0  0
  4  8  1  0  0  0  0
  5  6  1  0  0  0  0
  5  4  1  0  0  0  0
  6  7  2  0  0  0  0
  7  8  1  0  0  0  0
  8  9  2  0  0  0  0
  9  1  1  0  0  0  0
  9 13  1  0  0  0  0
 11  5  1  0  0  0  0
 12  6  1  0  0  0  0
 14 20  1  0  0  0  0
 15 21  1  0  0  0  0
 15 14  2  0  0  0  0
 16 15  1  0  0  0  0
 17 16  2  0  0  0  0
 17 18  1  0  0  0  0
 18 19  2  0  0  0  0
 19 14  1  0  0  0  0
 22 16  1  0  0  0  0
 23 24  1  0  0  0  0
 23  3  1  0  0  0  0
 24 25  1  0  0  0  0
 26 27  1  0  0  0  0
 26 24  2  0  0  0  0
 28 26  1  0  0  0  0
 29 28  2  0  0  0  0
 29 30  1  0  0  0  0
 30 23  2  0  0  0  0
M  END
>  <minimizedAffinity>
-5.67736578

$$$$

 OpenBabel03252509123D

 30 33  0  0  0  0  0  0  0  0999 V2000
   37.1910   29.0980   37.4150 C   0  0  0  0  0  0  0  0  0  0  0  0
   37.2550   28.5260   38.6790 C   0  0  0  0  0  0  0  0  0  0  0  0
   37.3210   29.2740   39.8380 C   0  0  0  0  0  0  0  0  0  0  0  0
   37.3290   30.6610   39.7910 C   0  0  0  0  0  0  0  0  0  0  0  0
   37.3830   31.6910   40.6610 N   0  0  0  0  0  0  0  0  0  0  0  0
   37.3550   32.8610   39.9780 C   0  0  0  0  0  0  0  0  0  0  0  0
   37.2830   32.5450   38.6710 N   0  0  0  0  0  0  0  0  0  0  0  0
   37.2640   31.2120   38.5150 C   0  0  0  0  0  0  0  0  0  0  0  0
   37.1970   30.4920   37.3400 C   0  0  0  0  0  0  0  0  0  0  0  0
   37.1390   28.4790   36.5410 H   0  0  0  0  0  0  0  0  0  0  0  0
   37.4370   31.4790   41.6950 H   0  0  0  0  0  0  0  0  0  0  0  0
   37.3930   33.7810   40.5510 H   0  0  0  0  0  0  0  0  0  0  0  0
   37.1480   30.9860   36.3840 H   0  0  0  0  0  0  0  0  0  0  0  0
   36.0960   25.0460   38.9010 C   0  0  0  0  0  0  0  0  0  0  0  0
   37.2930   24.3350   39.0340 C   0  0  0  0  0  0  0  0  0  0  0  0
   38.4940   25.0540   39.0460 C   0  0  0  0  0  0  0  0  0  0  0  0
   38.4170   26.4160   38.9260 N   0  0  0  0  0  0  0  0  0  0  0  0
   37.2550   27.0660   38.8000 C   0  0  0  0  0  0  0  0  0  0  0  0
   36.0790   26.3990   38.7860 N   0  0  0  0  0  0  0  0  0  0  0  0
   35.1410   24.5010   38.8890 H   0  0  0  0  0  0  0  0  0  0  0  0
   37.2710   23.2550   39.1250 H   0  0  0  0  0  0  0  0  0  0  0  0
   39.4360   24.5440   39.1460 H   0  0  0  0  0  0  0  0  0  0  0  0
   37.3890   28.6820   41.1720 C   0  0  0  0  0  0  0  0  0  0  0  0
   36.3870   28.0710   41.9050 C   0  0  0  0  0  0  0  0  0  0  0  0
   35.4340   28.0540   41.3690 H   0  0  0  0  0  0  0  0  0  0  0  0
   36.6920   27.5800   43.1590 C   0  0  0  0  0  0  0  0  0  0  0  0
   35.8370   27.1230   43.6450 H   0  0  0  0  0  0  0  0  0  0  0  0
   37.9630   27.7010   43.6570 C   0  0  0  0  0  3  0  0  0  0  0  0
   38.9580   28.3110   42.9200 C   0  0  0  0  0  3  0  0  0  0  0  0
   38.6420   28.7810   41.7070 N   0  0  0  0  0  0  0  0  0  0  0  0
  1  2  1  0  0  0  0
  2 18  1  0  0  0  0
  2  3  2  0  0  0  0
  3 23  1  0  0  0  0
  4  3  1  0  0  0  0
  4  5  1  0  0  0  0
  5 11  1  0  0  0  0
  6 12  1  0  0  0  0
  6  5  1  0  0  0  0
  7  6  2  0  0  0  0
  8  7  1  0  0  0  0
  8  4  2  0  0  0  0
  9  1  2  0  0  0  0
  9  8  1  0  0  0  0
 10  1  1  0  0  0  0
 13  9  1  0  0  0  0
 14 15  1  0  0  0  0
 15 16  2  0  0  0  0
 15 21  1  0  0  0  0
 16 22  1  0  0  0  0
 17 16  1  0  0  0  0
 18 17  2  0  0  0  0
 19 18  1  0  0  0  0
 19 14  2  0  0  0  0
 20 14  1  0  0  0  0
 23 30  2  0  0  0  0
 23 24  1  0  0  0  0
 24 26  2  0  0  0  0
 25 24  1  0  0  0  0
 26 27  1  0  0  0  0
 26 28  1  0  0  0  0
 29 28  2  0  0  0  0
 30 29  1  0  0  0  0
M  END
>  <minimizedAffinity>
-5.14024878

$$$$

 OpenBabel03252509123D

 30 33  0  0  0  0  0  0  0  0999 V2000
   35.8280   27.3980   38.0690 C   0  0  0  0  0  0  0  0  0  0  0  0
   36.4790   27.6330   39.2730 C   0  0  0  0  0  0  0  0  0  0  0  0
   36.8350   26.6230   40.1430 C   0  0  0  0  0  0  0  0  0  0  0  0
   36.5500   25.2970   39.8490 C   0  0  0  0  0  0  0  0  0  0  0  0
   36.7270   24.0860   40.4170 N   0  0  0  0  0  0  0  0  0  0  0  0
   36.2100   23.1280   39.6080 C   0  0  0  0  0  0  0  0  0  0  0  0
   35.7090   23.7600   38.5310 N   0  0  0  0  0  0  0  0  0  0  0  0
   35.8970   25.0840   38.6380 C   0  0  0  0  0  0  0  0  0  0  0  0
   35.5290   26.0730   37.7490 C   0  0  0  0  0  0  0  0  0  0  0  0
   35.5700   28.2140   37.4220 H   0  0  0  0  0  0  0  0  0  0  0  0
   37.2110   24.0310   41.3550 H   0  0  0  0  0  0  0  0  0  0  0  0
   36.2790   22.0970   39.9390 H   0  0  0  0  0  0  0  0  0  0  0  0
   35.0250   25.8360   36.8260 H   0  0  0  0  0  0  0  0  0  0  0  0
   36.2140   31.0270   40.6590 C   0  0  0  0  0  0  0  0  0  0  0  0
   37.4510   31.5880   40.3270 C   0  0  0  0  0  0  0  0  0  0  0  0
   38.3720   30.7980   39.6300 C   0  0  0  0  0  0  0  0  0  0  0  0
   37.9990   29.5190   39.3150 N   0  0  0  0  0  0  0  0  0  0  0  0
   36.8060   29.0120   39.6470 C   0  0  0  0  0  0  0  0  0  0  0  0
   35.8960   29.7500   40.3210 N   0  0  0  0  0  0  0  0  0  0  0  0
   35.4750   31.6290   41.2070 H   0  0  0  0  0  0  0  0  0  0  0  0
   37.6720   32.6100   40.6120 H   0  0  0  0  0  0  0  0  0  0  0  0
   39.3350   31.1930   39.3560 H   0  0  0  0  0  0  0  0  0  0  0  0
   37.5200   26.8600   41.4120 C   0  0  0  0  0  0  0  0  0  0  0  0
   37.0060   27.3450   42.6010 C   0  0  0  0  0  0  0  0  0  0  0  0
   35.9370   27.5650   42.5300 H   0  0  0  0  0  0  0  0  0  0  0  0
   37.8570   27.4840   43.6790 C   0  0  0  0  0  0  0  0  0  0  0  0
   37.3530   27.8710   44.5590 H   0  0  0  0  0  0  0  0  0  0  0  0
   39.1800   27.1470   43.5630 C   0  0  0  0  0  3  0  0  0  0  0  0
   39.6860   26.6630   42.3730 C   0  0  0  0  0  3  0  0  0  0  0  0
   38.8450   26.5350   41.3390 N   0  0  0  0  0  0  0  0  0  0  0  0
  1  2  1  0  0  0  0
  2 18  1  0  0  0  0
  2  3  2  0  0  0  0
  3 23  1  0  0  0  0
  4  3  1  0  0  0  0
  4  5  1  0  0  0  0
  5 11  1  0  0  0  0
  6 12  1  0  0  0  0
  6  5  1  0  0  0  0
  7  8  1  0  0  0  0
  7  6  2  0  0  0  0
  8  4  2  0  0  0  0
  9  1  2  0  0  0  0
  9  8  1  0  0  0  0
 10  1  1  0  0  0  0
 13  9  1  0  0  0  0
 14 20  1  0  0  0  0
 15 21  1  0  0  0  0
 15 14  1  0  0  0  0
 16 15  2  0  0  0  0
 17 16  1  0  0  0  0
 17 18  2  0  0  0  0
 18 19  1  0  0  0  0
 19 14  2  0  0  0  0
 22 16  1  0  0  0  0
 23 24  1  0  0  0  0
 24 26  2  0  0  0  0
 25 24  1  0  0  0  0
 26 27  1  0  0  0  0
 28 26  1  0  0  0  0
 29 28  2  0  0  0  0
 30 23  2  0  0  0  0
 30 29  1  0  0  0  0
M  END
>  <minimizedAffinity>
-5.09922314

$$$$

 OpenBabel03252509123D

 30 33  0  0  0  0  0  0  0  0999 V2000
   40.9120   28.1360   41.1650 C   0  0  0  0  0  0  0  0  0  0  0  0
   40.3690   29.3080   40.6560 C   0  0  0  0  0  0  0  0  0  0  0  0
   39.1770   29.8390   41.1060 C   0  0  0  0  0  0  0  0  0  0  0  0
   38.4510   29.2120   42.1090 C   0  0  0  0  0  0  0  0  0  0  0  0
   37.3000   29.4100   42.7840 N   0  0  0  0  0  0  0  0  0  0  0  0
   37.1230   28.4080   43.6800 C   0  0  0  0  0  0  0  0  0  0  0  0
   38.1800   27.5830   43.5520 N   0  0  0  0  0  0  0  0  0  0  0  0
   39.0140   28.0390   42.6040 C   0  0  0  0  0  0  0  0  0  0  0  0
   40.2020   27.4840   42.1750 C   0  0  0  0  0  0  0  0  0  0  0  0
   41.8420   27.7580   40.7870 H   0  0  0  0  0  0  0  0  0  0  0  0
   36.7150   30.2600   42.5520 H   0  0  0  0  0  0  0  0  0  0  0  0
   36.2320   28.4340   44.2980 H   0  0  0  0  0  0  0  0  0  0  0  0
   40.5800   26.5720   42.6050 H   0  0  0  0  0  0  0  0  0  0  0  0
   42.7090   31.5480   38.9210 C   0  0  0  0  0  0  0  0  0  0  0  0
   42.3920   31.3350   37.5750 C   0  0  0  0  0  0  0  0  0  0  0  0
   41.3750   30.4230   37.2690 C   0  0  0  0  0  0  0  0  0  0  0  0
   40.7540   29.7940   38.3150 N   0  0  0  0  0  0  0  0  0  0  0  0
   41.0820   30.0190   39.5920 C   0  0  0  0  0  0  0  0  0  0  0  0
   42.0590   30.8950   39.9190 N   0  0  0  0  0  0  0  0  0  0  0  0
   43.5040   32.2600   39.1840 H   0  0  0  0  0  0  0  0  0  0  0  0
   42.9300   31.8730   36.8030 H   0  0  0  0  0  0  0  0  0  0  0  0
   41.1010   30.2320   36.2470 H   0  0  0  0  0  0  0  0  0  0  0  0
   38.5970   31.0710   40.5760 C   0  0  0  0  0  0  0  0  0  0  0  0
   37.6220   31.2280   39.6070 C   0  0  0  0  0  0  0  0  0  0  0  0
   37.2710   30.2690   39.2150 H   0  0  0  0  0  0  0  0  0  0  0  0
   37.2280   32.5060   39.2680 C   0  0  0  0  0  0  0  0  0  0  0  0
   36.4620   32.5150   38.5000 H   0  0  0  0  0  0  0  0  0  0  0  0
   37.7970   33.5910   39.8830 C   0  0  0  0  0  3  0  0  0  0  0  0
   38.7690   33.4270   40.8510 C   0  0  0  0  0  3  0  0  0  0  0  0
   39.1370   32.1790   41.1660 N   0  0  0  0  0  0  0  0  0  0  0  0
  1  9  1  0  0  0  0
  2  3  1  0  0  0  0
  2  1  2  0  0  0  0
  3  4  2  0  0  0  0
  4  8  1  0  0  0  0
  4  5  1  0  0  0  0
  5  6  1  0  0  0  0
  6 12  1  0  0  0  0
  7  6  2  0  0  0  0
  8  7  1  0  0  0  0
  9  8  2  0  0  0  0
  9 13  1  0  0  0  0
 10  1  1  0  0  0  0
 11  5  1  0  0  0  0
 14 20  1  0  0  0  0
 14 19  1  0  0  0  0
 15 14  2  0  0  0  0
 16 15  1  0  0  0  0
 16 17  2  0  0  0  0
 17 18  1  0  0  0  0
 18 19  2  0  0  0  0
 18  2  1  0  0  0  0
 21 15  1  0  0  0  0
 22 16  1  0  0  0  0
 23  3  1  0  0  0  0
 23 30  1  0  0  0  0
 24 23  2  0  0  0  0
 25 24  1  0  0  0  0
 26 24  1  0  0  0  0
 26 28  2  0  0  0  0
 27 26  1  0  0  0  0
 28 29  1  0  0  0  0
 29 30  2  0  0  0  0
M  END
>  <minimizedAffinity>
-4.96439695

$$$$

 OpenBabel03252509123D

 30 33  0  0  0  0  0  0  0  0999 V2000
   38.4550   29.4590   42.6640 C   0  0  0  0  0  0  0  0  0  0  0  0
   38.1870   29.6750   41.3180 C   0  0  0  0  0  0  0  0  0  0  0  0
   37.7060   28.6880   40.4820 C   0  0  0  0  0  0  0  0  0  0  0  0
   37.4630   27.4070   40.9570 C   0  0  0  0  0  0  0  0  0  0  0  0
   37.0160   26.2290   40.4750 N   0  0  0  0  0  0  0  0  0  0  0  0
   37.0020   25.3090   41.4710 C   0  0  0  0  0  0  0  0  0  0  0  0
   37.4470   25.9320   42.5790 N   0  0  0  0  0  0  0  0  0  0  0  0
   37.7380   27.2130   42.3070 C   0  0  0  0  0  0  0  0  0  0  0  0
   38.2200   28.1780   43.1680 C   0  0  0  0  0  0  0  0  0  0  0  0
   38.8270   30.2550   43.2790 H   0  0  0  0  0  0  0  0  0  0  0  0
   36.7490   26.1670   39.4540 H   0  0  0  0  0  0  0  0  0  0  0  0
   36.6640   24.3070   41.2280 H   0  0  0  0  0  0  0  0  0  0  0  0
   38.4100   27.9580   44.2050 H   0  0  0  0  0  0  0  0  0  0  0  0
   37.6470   33.1260   40.1750 C   0  0  0  0  0  0  0  0  0  0  0  0
   38.9040   33.4800   39.6760 C   0  0  0  0  0  0  0  0  0  0  0  0
   39.9320   32.5330   39.7340 C   0  0  0  0  0  0  0  0  0  0  0  0
   39.6380   31.3120   40.2800 N   0  0  0  0  0  0  0  0  0  0  0  0
   38.4250   31.0040   40.7500 C   0  0  0  0  0  0  0  0  0  0  0  0
   37.4110   31.8980   40.7070 N   0  0  0  0  0  0  0  0  0  0  0  0
   36.8240   33.8540   40.1400 H   0  0  0  0  0  0  0  0  0  0  0  0
   39.0580   34.4680   39.2570 H   0  0  0  0  0  0  0  0  0  0  0  0
   40.9140   32.7670   39.3600 H   0  0  0  0  0  0  0  0  0  0  0  0
   37.4210   28.9050   39.0650 C   0  0  0  0  0  0  0  0  0  0  0  0
   36.3110   29.4880   38.4800 C   0  0  0  0  0  0  0  0  0  0  0  0
   35.5760   29.8140   39.2210 H   0  0  0  0  0  0  0  0  0  0  0  0
   36.2650   29.5850   37.1040 C   0  0  0  0  0  0  0  0  0  0  0  0
   35.3540   30.0560   36.7500 H   0  0  0  0  0  0  0  0  0  0  0  0
   37.3020   29.1110   36.3430 C   0  0  0  0  0  3  0  0  0  0  0  0
   38.4070   28.5310   36.9340 C   0  0  0  0  0  3  0  0  0  0  0  0
   38.4320   28.4460   38.2690 N   0  0  0  0  0  0  0  0  0  0  0  0
  1  9  1  0  0  0  0
  1 10  1  0  0  0  0
  2  1  2  0  0  0  0
  3  4  2  0  0  0  0
  3  2  1  0  0  0  0
  4  8  1  0  0  0  0
  5  4  1  0  0  0  0
  5  6  1  0  0  0  0
  6  7  2  0  0  0  0
  8  7  1  0  0  0  0
  8  9  2  0  0  0  0
  9 13  1  0  0  0  0
 11  5  1  0  0  0  0
 12  6  1  0  0  0  0
 14 19  1  0  0  0  0
 15 16  1  0  0  0  0
 15 14  2  0  0  0  0
 16 17  2  0  0  0  0
 17 18  1  0  0  0  0
 18  2  1  0  0  0  0
 19 18  2  0  0  0  0
 20 14  1  0  0  0  0
 21 15  1  0  0  0  0
 22 16  1  0  0  0  0
 23  3  1  0  0  0  0
 24 23  1  0  0  0  0
 24 25  1  0  0  0  0
 26 24  2  0  0  0  0
 27 26  1  0  0  0  0
 28 29  2  0  0  0  0
 28 26  1  0  0  0  0
 29 30  1  0  0  0  0
 30 23  2  0  0  0  0
M  END
>  <minimizedAffinity>
-4.96105528

$$$$

 OpenBabel03252509123D

 30 33  0  0  0  0  0  0  0  0999 V2000
   35.7460   28.8210   40.5340 C   0  0  0  0  0  0  0  0  0  0  0  0
   36.9400   28.1770   40.8330 C   0  0  0  0  0  0  0  0  0  0  0  0
   38.1300   28.8520   41.0200 C   0  0  0  0  0  0  0  0  0  0  0  0
   38.1880   30.2350   40.9140 C   0  0  0  0  0  0  0  0  0  0  0  0
   39.1170   31.2080   41.0200 N   0  0  0  0  0  0  0  0  0  0  0  0
   38.5370   32.4130   40.7980 C   0  0  0  0  0  0  0  0  0  0  0  0
   37.2340   32.1750   40.5520 N   0  0  0  0  0  0  0  0  0  0  0  0
   36.9810   30.8590   40.6130 C   0  0  0  0  0  0  0  0  0  0  0  0
   35.7770   30.2130   40.4210 C   0  0  0  0  0  0  0  0  0  0  0  0
   34.8440   28.2580   40.3980 H   0  0  0  0  0  0  0  0  0  0  0  0
   40.1130   30.9350   41.2480 H   0  0  0  0  0  0  0  0  0  0  0  0
   39.1670   33.2940   40.8510 H   0  0  0  0  0  0  0  0  0  0  0  0
   34.8790   30.7600   40.1920 H   0  0  0  0  0  0  0  0  0  0  0  0
   37.0160   24.8000   42.2810 C   0  0  0  0  0  0  0  0  0  0  0  0
   36.9700   23.9830   41.1460 C   0  0  0  0  0  0  0  0  0  0  0  0
   36.9140   24.5950   39.8890 C   0  0  0  0  0  0  0  0  0  0  0  0
   36.9050   25.9640   39.8510 N   0  0  0  0  0  0  0  0  0  0  0  0
   36.9500   26.7180   40.9550 C   0  0  0  0  0  0  0  0  0  0  0  0
   37.0060   26.1550   42.1840 N   0  0  0  0  0  0  0  0  0  0  0  0
   37.0610   24.3410   43.2780 H   0  0  0  0  0  0  0  0  0  0  0  0
   36.9810   22.9050   41.2590 H   0  0  0  0  0  0  0  0  0  0  0  0
   36.8770   24.0010   38.9930 H   0  0  0  0  0  0  0  0  0  0  0  0
   39.3910   28.1840   41.3340 C   0  0  0  0  0  0  0  0  0  0  0  0
   40.2120   27.4410   40.5050 C   0  0  0  0  0  0  0  0  0  0  0  0
   39.8200   27.3740   39.4860 H   0  0  0  0  0  0  0  0  0  0  0  0
   41.3680   26.9010   41.0330 C   0  0  0  0  0  0  0  0  0  0  0  0
   41.9360   26.3390   40.3000 H   0  0  0  0  0  0  0  0  0  0  0  0
   41.6850   27.1030   42.3510 C   0  0  0  0  0  3  0  0  0  0  0  0
   40.8610   27.8460   43.1720 C   0  0  0  0  0  3  0  0  0  0  0  0
   39.7450   28.3610   42.6420 N   0  0  0  0  0  0  0  0  0  0  0  0
  1  2  1  0  0  0  0
  2 18  1  0  0  0  0
  2  3  2  0  0  0  0
  3 23  1  0  0  0  0
  4  5  1  0  0  0  0
  4  3  1  0  0  0  0
  5 11  1  0  0  0  0
  6 12  1  0  0  0  0
  6  5  1  0  0  0  0
  7  8  1  0  0  0  0
  7  6  2  0  0  0  0
  8  4  2  0  0  0  0
  9  1  2  0  0  0  0
  9  8  1  0  0  0  0
 10  1  1  0  0  0  0
 13  9  1  0  0  0  0
 14 20  1  0  0  0  0
 15 21  1  0  0  0  0
 15 14  2  0  0  0  0
 16 15  1  0  0  0  0
 17 16  2  0  0  0  0
 17 18  1  0  0  0  0
 18 19  2  0  0  0  0
 19 14  1  0  0  0  0
 22 16  1  0  0  0  0
 23 30  1  0  0  0  0
 24 26  1  0  0  0  0
 24 23  2  0  0  0  0
 25 24  1  0  0  0  0
 26 28  2  0  0  0  0
 27 26  1  0  0  0  0
 28 29  1  0  0  0  0
 30 29  2  0  0  0  0
M  END
>  <minimizedAffinity>
-4.95775938

$$$$

 OpenBabel03252509123D

 30 33  0  0  0  0  0  0  0  0999 V2000
   36.6420   25.2800   39.6330 C   0  0  0  0  0  0  0  0  0  0  0  0
   36.8160   26.6140   39.9790 C   0  0  0  0  0  0  0  0  0  0  0  0
   36.2450   27.6530   39.2710 C   0  0  0  0  0  0  0  0  0  0  0  0
   35.4560   27.4060   38.1560 C   0  0  0  0  0  0  0  0  0  0  0  0
   34.7610   28.1180   37.2460 N   0  0  0  0  0  0  0  0  0  0  0  0
   34.1740   27.2720   36.3640 C   0  0  0  0  0  0  0  0  0  0  0  0
   34.5150   26.0250   36.7380 N   0  0  0  0  0  0  0  0  0  0  0  0
   35.2960   26.0630   37.8280 C   0  0  0  0  0  0  0  0  0  0  0  0
   35.8530   25.0040   38.5150 C   0  0  0  0  0  0  0  0  0  0  0  0
   37.1030   24.5040   40.2120 H   0  0  0  0  0  0  0  0  0  0  0  0
   34.7560   29.1720   37.3230 H   0  0  0  0  0  0  0  0  0  0  0  0
   33.5780   27.7070   35.5680 H   0  0  0  0  0  0  0  0  0  0  0  0
   35.6860   23.9860   38.2050 H   0  0  0  0  0  0  0  0  0  0  0  0
   37.8530   27.2760   43.4420 C   0  0  0  0  0  0  0  0  0  0  0  0
   39.2130   27.5740   43.3000 C   0  0  0  0  0  0  0  0  0  0  0  0
   39.7670   27.5450   42.0150 C   0  0  0  0  0  0  0  0  0  0  0  0
   38.9370   27.2250   40.9750 N   0  0  0  0  0  0  0  0  0  0  0  0
   37.6400   26.9450   41.1440 C   0  0  0  0  0  0  0  0  0  0  0  0
   37.0750   26.9660   42.3730 N   0  0  0  0  0  0  0  0  0  0  0  0
   37.3960   27.2930   44.4420 H   0  0  0  0  0  0  0  0  0  0  0  0
   39.8040   27.8190   44.1740 H   0  0  0  0  0  0  0  0  0  0  0  0
   40.8090   27.7680   41.8640 H   0  0  0  0  0  0  0  0  0  0  0  0
   36.4220   29.0590   39.6270 C   0  0  0  0  0  0  0  0  0  0  0  0
   35.8990   29.7570   40.7020 C   0  0  0  0  0  0  0  0  0  0  0  0
   35.2760   29.1250   41.3410 H   0  0  0  0  0  0  0  0  0  0  0  0
   36.2100   31.0950   40.8320 C   0  0  0  0  0  0  0  0  0  0  0  0
   35.7490   31.5450   41.7050 H   0  0  0  0  0  0  0  0  0  0  0  0
   37.0180   31.7100   39.9120 C   0  0  0  0  0  3  0  0  0  0  0  0
   37.5370   31.0070   38.8430 C   0  0  0  0  0  3  0  0  0  0  0  0
   37.2240   29.7100   38.7330 N   0  0  0  0  0  0  0  0  0  0  0  0
  1  2  1  0  0  0  0
  1 10  1  0  0  0  0
  2 18  1  0  0  0  0
  3 23  1  0  0  0  0
  3  2  2  0  0  0  0
  4  3  1  0  0  0  0
  5 11  1  0  0  0  0
  5  4  1  0  0  0  0
  6  7  2  0  0  0  0
  6  5  1  0  0  0  0
  7  8  1  0  0  0  0
  8  4  2  0  0  0  0
  8  9  1  0  0  0  0
  9  1  2  0  0  0  0
 12  6  1  0  0  0  0
 13  9  1  0  0  0  0
 14 20  1  0  0  0  0
 15 14  1  0  0  0  0
 15 21  1  0  0  0  0
 16 15  2  0  0  0  0
 17 18  2  0  0  0  0
 17 16  1  0  0  0  0
 18 19  1  0  0  0  0
 19 14  2  0  0  0  0
 22 16  1  0  0  0  0
 23 24  1  0  0  0  0
 24 26  2  0  0  0  0
 24 25  1  0  0  0  0
 26 27  1  0  0  0  0
 28 26  1  0  0  0  0
 29 28  2  0  0  0  0
 30 29  1  0  0  0  0
 30 23  2  0  0  0  0
M  END
>  <minimizedAffinity>
-4.93352461

$$$$

 OpenBabel03252509123D

 30 33  0  0  0  0  0  0  0  0999 V2000
   36.8330   31.1330   40.7010 C   0  0  0  0  0  0  0  0  0  0  0  0
   37.8780   30.3130   41.1060 C   0  0  0  0  0  0  0  0  0  0  0  0
   39.1990   30.7110   41.0750 C   0  0  0  0  0  0  0  0  0  0  0  0
   39.5520   31.9770   40.6270 C   0  0  0  0  0  0  0  0  0  0  0  0
   40.6770   32.6990   40.4550 N   0  0  0  0  0  0  0  0  0  0  0  0
   40.3590   33.9220   39.9630 C   0  0  0  0  0  0  0  0  0  0  0  0
   39.0190   33.9490   39.8310 N   0  0  0  0  0  0  0  0  0  0  0  0
   38.4890   32.7810   40.2270 C   0  0  0  0  0  0  0  0  0  0  0  0
   37.1600   32.4120   40.2450 C   0  0  0  0  0  0  0  0  0  0  0  0
   35.8200   30.7830   40.7430 H   0  0  0  0  0  0  0  0  0  0  0  0
   41.6060   32.2590   40.7050 H   0  0  0  0  0  0  0  0  0  0  0  0
   41.1700   34.6160   39.7710 H   0  0  0  0  0  0  0  0  0  0  0  0
   36.3870   33.0880   39.9210 H   0  0  0  0  0  0  0  0  0  0  0  0
   36.9660   27.5200   43.3140 C   0  0  0  0  0  0  0  0  0  0  0  0
   37.0240   26.4200   42.4520 C   0  0  0  0  0  0  0  0  0  0  0  0
   37.3760   26.6420   41.1160 C   0  0  0  0  0  0  0  0  0  0  0  0
   37.6420   27.9310   40.7370 N   0  0  0  0  0  0  0  0  0  0  0  0
   37.5770   28.9620   41.5870 C   0  0  0  0  0  0  0  0  0  0  0  0
   37.2410   28.7790   42.8840 N   0  0  0  0  0  0  0  0  0  0  0  0
   36.6920   27.3690   44.3680 H   0  0  0  0  0  0  0  0  0  0  0  0
   36.8000   25.4280   42.8280 H   0  0  0  0  0  0  0  0  0  0  0  0
   37.4320   25.8220   40.4210 H   0  0  0  0  0  0  0  0  0  0  0  0
   40.3060   29.8550   41.4990 C   0  0  0  0  0  0  0  0  0  0  0  0
   40.7290   29.5510   42.7810 C   0  0  0  0  0  0  0  0  0  0  0  0
   40.1200   30.0420   43.5450 H   0  0  0  0  0  0  0  0  0  0  0  0
   41.8110   28.7080   42.9350 C   0  0  0  0  0  0  0  0  0  0  0  0
   42.0580   28.5370   43.9770 H   0  0  0  0  0  0  0  0  0  0  0  0
   42.4460   28.1900   41.8360 C   0  0  0  0  0  3  0  0  0  0  0  0
   42.0170   28.4980   40.5600 C   0  0  0  0  0  3  0  0  0  0  0  0
   40.9660   29.3170   40.4310 N   0  0  0  0  0  0  0  0  0  0  0  0
  1 10  1  0  0  0  0
  1  2  1  0  0  0  0
  2 18  1  0  0  0  0
  3  2  2  0  0  0  0
  3 23  1  0  0  0  0
  4  3  1  0  0  0  0
  5  4  1  0  0  0  0
  5 11  1  0  0  0  0
  6  5  1  0  0  0  0
  7  6  2  0  0  0  0
  7  8  1  0  0  0  0
  8  9  1  0  0  0  0
  8  4  2  0  0  0  0
  9  1  2  0  0  0  0
 12  6  1  0  0  0  0
 13  9  1  0  0  0  0
 14 20  1  0  0  0  0
 15 21  1  0  0  0  0
 15 14  2  0  0  0  0
 16 15  1  0  0  0  0
 17 16  2  0  0  0  0
 17 18  1  0  0  0  0
 18 19  2  0  0  0  0
 19 14  1  0  0  0  0
 22 16  1  0  0  0  0
 23 24  1  0  0  0  0
 24 26  2  0  0  0  0
 24 25  1  0  0  0  0
 26 27  1  0  0  0  0
 28 26  1  0  0  0  0
 29 28  2  0  0  0  0
 30 29  1  0  0  0  0
 30 23  2  0  0  0  0
M  END
>  <minimizedAffinity>
-4.93230057

$$$$

 OpenBabel03252509123D

 30 33  0  0  0  0  0  0  0  0999 V2000
   41.3810   29.8610   42.9710 C   0  0  0  0  0  0  0  0  0  0  0  0
   40.3780   30.1770   42.0630 C   0  0  0  0  0  0  0  0  0  0  0  0
   40.3760   31.3410   41.3230 C   0  0  0  0  0  0  0  0  0  0  0  0
   41.3980   32.2710   41.4550 C   0  0  0  0  0  0  0  0  0  0  0  0
   41.7350   33.4690   40.9340 N   0  0  0  0  0  0  0  0  0  0  0  0
   42.8980   33.8920   41.4870 C   0  0  0  0  0  0  0  0  0  0  0  0
   43.2800   32.9410   42.3600 N   0  0  0  0  0  0  0  0  0  0  0  0
   42.3920   31.9350   42.3690 C   0  0  0  0  0  0  0  0  0  0  0  0
   42.4210   30.7790   43.1240 C   0  0  0  0  0  0  0  0  0  0  0  0
   41.3430   28.9440   43.5260 H   0  0  0  0  0  0  0  0  0  0  0  0
   41.0990   33.9030   40.2090 H   0  0  0  0  0  0  0  0  0  0  0  0
   43.2930   34.8480   41.1610 H   0  0  0  0  0  0  0  0  0  0  0  0
   43.2240   30.5820   43.8140 H   0  0  0  0  0  0  0  0  0  0  0  0
   37.0780   28.5840   42.3400 C   0  0  0  0  0  0  0  0  0  0  0  0
   37.2100   27.4650   41.5100 C   0  0  0  0  0  0  0  0  0  0  0  0
   38.4320   27.2640   40.8590 C   0  0  0  0  0  0  0  0  0  0  0  0
   39.4250   28.1800   41.0770 N   0  0  0  0  0  0  0  0  0  0  0  0
   39.2670   29.2400   41.8780 C   0  0  0  0  0  0  0  0  0  0  0  0
   38.0980   29.4620   42.5210 N   0  0  0  0  0  0  0  0  0  0  0  0
   36.1270   28.7620   42.8620 H   0  0  0  0  0  0  0  0  0  0  0  0
   36.3760   26.7840   41.3880 H   0  0  0  0  0  0  0  0  0  0  0  0
   38.5740   26.4150   40.2120 H   0  0  0  0  0  0  0  0  0  0  0  0
   39.3260   31.6820   40.3660 C   0  0  0  0  0  0  0  0  0  0  0  0
   39.0460   31.1060   39.1390 C   0  0  0  0  0  0  0  0  0  0  0  0
   39.7320   30.2890   38.9000 H   0  0  0  0  0  0  0  0  0  0  0  0
   37.9890   31.6030   38.4030 C   0  0  0  0  0  0  0  0  0  0  0  0
   37.8580   31.0820   37.4610 H   0  0  0  0  0  0  0  0  0  0  0  0
   37.2410   32.6460   38.8850 C   0  0  0  0  0  3  0  0  0  0  0  0
   37.5270   33.2150   40.1100 C   0  0  0  0  0  3  0  0  0  0  0  0
   38.5550   32.7190   40.8090 N   0  0  0  0  0  0  0  0  0  0  0  0
  1  9  1  0  0  0  0
  1 10  1  0  0  0  0
  2  1  2  0  0  0  0
  3  4  2  0  0  0  0
  3  2  1  0  0  0  0
  4  8  1  0  0  0  0
  5  4  1  0  0  0  0
  5  6  1  0  0  0  0
  6  7  2  0  0  0  0
  7  8  1  0  0  0  0
  8  9  2  0  0  0  0
  9 13  1  0  0  0  0
 11  5  1  0  0  0  0
 12  6  1  0  0  0  0
 14 19  1  0  0  0  0
 14 20  1  0  0  0  0
 15 14  2  0  0  0  0
 16 17  2  0  0  0  0
 16 15  1  0  0  0  0
 17 18  1  0  0  0  0
 18  2  1  0  0  0  0
 18 19  2  0  0  0  0
 21 15  1  0  0  0  0
 22 16  1  0  0  0  0
 23 30  1  0  0  0  0
 23  3  1  0  0  0  0
 24 23  2  0  0  0  0
 25 24  1  0  0  0  0
 26 28  2  0  0  0  0
 26 24  1  0  0  0  0
 27 26  1  0  0  0  0
 28 29  1  0  0  0  0
 29 30  2  0  0  0  0
M  END
>  <minimizedAffinity>
-4.91909218

$$$$
