
 OpenBabel03252505073D

 42 45  0  0  1  0  0  0  0  0999 V2000
   44.5770   35.5900   44.6110 C   0  0  0  0  0  0  0  0  0  0  0  0
   45.2310   35.5970   43.3540 C   0  0  0  0  0  0  0  0  0  0  0  0
   46.3120   34.6810   43.1770 C   0  0  0  0  0  0  0  0  0  0  0  0
   46.6540   33.8660   44.1980 N   0  0  0  0  0  0  0  0  0  0  0  0
   46.0030   33.8980   45.3710 C   0  0  0  0  0  0  0  0  0  0  0  0
   44.9620   34.7560   45.5900 N   0  0  0  0  0  0  0  0  0  0  0  0
   43.7650   36.2920   44.7130 H   0  0  0  0  0  0  0  0  0  0  0  0
   44.9400   36.2580   42.5490 H   0  0  0  0  0  0  0  0  0  0  0  0
   46.4380   32.9700   46.4580 C   0  0  2  0  0  0  0  0  0  0  0  0
   46.9610   31.7430   45.7650 C   0  0  0  0  0  0  0  0  0  0  0  0
   46.1000   30.5560   45.7810 C   0  0  0  0  0  0  0  0  0  0  0  0
   45.7950   30.2940   47.2580 C   0  0  0  0  0  0  0  0  0  0  0  0
   45.0090   31.3680   47.8610 C   0  0  0  0  0  0  0  0  0  0  0  0
   45.3790   32.7370   47.4150 C   0  0  0  0  0  0  0  0  0  0  0  0
   47.2770   33.4990   46.9590 H   0  0  0  0  0  0  0  0  0  0  0  0
   47.9310   31.4760   46.2380 H   0  0  0  0  0  0  0  0  0  0  0  0
   47.2450   31.9550   44.6940 H   0  0  0  0  0  0  0  0  0  0  0  0
   45.1290   30.7160   45.2790 H   0  0  0  0  0  0  0  0  0  0  0  0
   46.6570   29.7000   45.4000 H   0  0  0  0  0  0  0  0  0  0  0  0
   45.0980   29.4150   47.2240 H   0  0  0  0  0  0  0  0  0  0  0  0
   46.7270   30.0980   47.8130 H   0  0  0  0  0  0  0  0  0  0  0  0
   44.2150   31.3570   48.5650 H   0  0  0  0  0  0  0  0  0  0  0  0
   44.6830   33.8730   47.9310 N   0  0  0  0  0  0  0  0  0  0  0  0
   45.3070   34.5000   48.4710 H   0  0  0  0  0  0  0  0  0  0  0  0
   43.6660   33.8360   47.6510 H   0  0  0  0  0  0  0  0  0  0  0  0
   46.9990   34.6640   41.8940 C   0  0  0  0  0  0  0  0  0  0  0  0
   48.1550   35.3670   41.7680 C   0  0  0  0  0  0  0  0  0  0  0  0
   48.7790   35.3200   40.5150 C   0  0  0  0  0  0  0  0  0  0  0  0
   48.1620   34.5700   39.5360 C   0  0  0  0  0  0  0  0  0  0  0  0
   47.0000   33.8670   39.6650 C   0  0  0  0  0  0  0  0  0  0  0  0
   46.4360   33.9460   40.9040 N   0  0  0  0  0  0  0  0  0  0  0  0
   48.6020   35.9410   42.5660 H   0  0  0  0  0  0  0  0  0  0  0  0
   49.7010   35.8590   40.3610 H   0  0  0  0  0  0  0  0  0  0  0  0
   48.6910   34.5720   38.5860 H   0  0  0  0  0  0  0  0  0  0  0  0
   46.4050   33.0930   38.5800 C   0  0  0  0  0  0  0  0  0  0  0  0
   46.7740   33.3640   37.2790 C   0  0  0  0  0  0  0  0  0  0  0  0
   47.4940   34.1410   37.1020 H   0  0  0  0  0  0  0  0  0  0  0  0
   46.1490   32.5740   36.3370 C   0  0  0  0  0  0  0  0  0  0  0  0
   46.4180   32.7590   35.2890 H   0  0  0  0  0  0  0  0  0  0  0  0
   45.2320   31.5980   36.6910 C   0  0  0  0  0  0  0  0  0  0  0  0
   44.8960   31.3680   38.0290 C   0  0  0  0  0  0  0  0  0  0  0  0
   45.5160   32.1500   38.9420 N   0  0  0  0  0  0  0  0  0  0  0  0
  1  7  1  0  0  0  0
  1  6  1  0  0  0  0
  2  1  2  0  0  0  0
  3  2  1  0  0  0  0
  3  4  2  0  0  0  0
  4  5  1  0  0  0  0
  5  6  2  0  0  0  0
  5  9  1  0  0  0  0
  8  2  1  0  0  0  0
  9 15  1  1  0  0  0
  9 14  1  0  0  0  0
 10 11  1  0  0  0  0
 10 16  1  0  0  0  0
 10  9  1  0  0  0  0
 11 12  1  0  0  0  0
 12 21  1  0  0  0  0
 12 13  1  0  0  0  0
 13 22  1  0  0  0  0
 14 13  2  0  0  0  0
 14 23  1  0  0  0  0
 17 10  1  0  0  0  0
 18 11  1  0  0  0  0
 19 11  1  0  0  0  0
 20 12  1  0  0  0  0
 23 24  1  0  0  0  0
 25 23  1  0  0  0  0
 26  3  1  0  0  0  0
 27 26  1  0  0  0  0
 27 32  1  0  0  0  0
 28 27  2  0  0  0  0
 29 30  2  0  0  0  0
 29 28  1  0  0  0  0
 30 31  1  0  0  0  0
 31 26  2  0  0  0  0
 33 28  1  0  0  0  0
 34 29  1  0  0  0  0
 35 42  1  0  0  0  0
 35 30  1  0  0  0  0
 36 35  2  0  0  0  0
 37 36  1  0  0  0  0
 38 40  2  0  0  0  0
 38 36  1  0  0  0  0
 39 38  1  0  0  0  0
 40 41  1  0  0  0  0
 41 42  2  0  0  0  0
M  END
>  <minimizedAffinity>
-7.35532188

>  <minimizedRMSD>
0.169415653

$$$$
