
 OpenBabel03252507273D

 26 28  0  0  0  0  0  0  0  0999 V2000
   37.6130   28.1690   41.6640 C   0  0  0  0  0  0  0  0  0  0  0  0
   36.2810   27.8840   41.3540 C   0  0  0  0  0  0  0  0  0  0  0  0
   35.5200   28.9310   40.7910 C   0  0  0  0  0  0  0  0  0  0  0  0
   36.1110   30.1510   40.5790 N   0  0  0  0  0  0  0  0  0  0  0  0
   37.3980   30.3550   40.9010 C   0  0  0  0  0  0  0  0  0  0  0  0
   38.1580   29.3890   41.4380 N   0  0  0  0  0  0  0  0  0  0  0  0
   35.8370   26.9140   41.5310 H   0  0  0  0  0  0  0  0  0  0  0  0
   34.4720   28.7770   40.5250 H   0  0  0  0  0  0  0  0  0  0  0  0
   37.9860   31.6730   40.6560 C   0  0  0  0  0  0  0  0  0  0  0  0
   37.2690   32.6520   40.0020 C   0  0  0  0  0  0  0  0  0  0  0  0
   37.7390   33.9200   39.7260 C   0  0  0  0  0  0  0  0  0  0  0  0
   39.0350   34.1570   40.1700 C   0  0  0  0  0  0  0  0  0  0  0  0
   39.7760   33.1900   40.8320 C   0  0  0  0  0  0  0  0  0  0  0  0
   39.2350   31.9570   41.0630 N   0  0  0  0  0  0  0  0  0  0  0  0
   36.2620   32.3980   39.6810 H   0  0  0  0  0  0  0  0  0  0  0  0
   37.1330   34.6490   39.2090 H   0  0  0  0  0  0  0  0  0  0  0  0
   39.4770   35.1340   39.9920 H   0  0  0  0  0  0  0  0  0  0  0  0
   40.7860   33.4370   41.1540 H   0  0  0  0  0  0  0  0  0  0  0  0
   38.4210   27.1160   42.2430 C   0  0  0  0  0  0  0  0  0  0  0  0
   39.4580   27.4120   43.1020 C   0  0  0  0  0  0  0  0  0  0  0  0
   39.6790   28.4610   43.3530 H   0  0  0  0  0  0  0  0  0  0  0  0
   40.2550   26.4660   43.6800 C   0  0  0  0  0  0  0  0  0  0  0  0
   41.0780   26.6440   44.3570 H   0  0  0  0  0  0  0  0  0  0  0  0
   39.9310   25.1620   43.3260 C   0  0  0  0  0  3  0  0  0  0  0  0
   38.8890   24.8080   42.4600 C   0  0  0  0  0  3  0  0  0  0  0  0
   38.1720   25.8300   41.9520 N   0  0  0  0  0  0  0  0  0  0  0  0
  1 19  1  0  0  0  0
  2  7  1  0  0  0  0
  2  1  2  0  0  0  0
  3  2  1  0  0  0  0
  4  3  2  0  0  0  0
  4  5  1  0  0  0  0
  5  6  2  0  0  0  0
  6  1  1  0  0  0  0
  8  3  1  0  0  0  0
  9  5  1  0  0  0  0
  9 14  1  0  0  0  0
 10  9  2  0  0  0  0
 11 10  1  0  0  0  0
 11 12  2  0  0  0  0
 12 13  1  0  0  0  0
 13 14  2  0  0  0  0
 13 18  1  0  0  0  0
 15 10  1  0  0  0  0
 16 11  1  0  0  0  0
 17 12  1  0  0  0  0
 19 20  1  0  0  0  0
 20 21  1  0  0  0  0
 20 22  2  0  0  0  0
 22 23  1  0  0  0  0
 24 22  1  0  0  0  0
 25 24  2  0  0  0  0
 26 19  2  0  0  0  0
 26 25  1  0  0  0  0
M  END
>  <minimizedAffinity>
-5.2811327

$$$$

 OpenBabel03252507273D

 26 28  0  0  0  0  0  0  0  0999 V2000
   37.4950   30.5560   40.8180 C   0  0  0  0  0  0  0  0  0  0  0  0
   36.1460   30.4800   40.4640 C   0  0  0  0  0  0  0  0  0  0  0  0
   35.5000   29.2450   40.6850 C   0  0  0  0  0  0  0  0  0  0  0  0
   36.2100   28.2020   41.2230 N   0  0  0  0  0  0  0  0  0  0  0  0
   37.5070   28.3470   41.5400 C   0  0  0  0  0  0  0  0  0  0  0  0
   38.1610   29.5020   41.3480 N   0  0  0  0  0  0  0  0  0  0  0  0
   35.6070   31.3160   40.0410 H   0  0  0  0  0  0  0  0  0  0  0  0
   34.4450   29.1140   40.4310 H   0  0  0  0  0  0  0  0  0  0  0  0
   38.2250   27.2070   42.1130 C   0  0  0  0  0  0  0  0  0  0  0  0
   39.1880   27.3960   43.0810 C   0  0  0  0  0  0  0  0  0  0  0  0
   39.9150   26.3860   43.6760 C   0  0  0  0  0  0  0  0  0  0  0  0
   39.6000   25.1110   43.2190 C   0  0  0  0  0  0  0  0  0  0  0  0
   38.6350   24.8930   42.2470 C   0  0  0  0  0  0  0  0  0  0  0  0
   37.9610   25.9520   41.7080 N   0  0  0  0  0  0  0  0  0  0  0  0
   39.3840   28.4200   43.3910 H   0  0  0  0  0  0  0  0  0  0  0  0
   40.6590   26.5920   44.4310 H   0  0  0  0  0  0  0  0  0  0  0  0
   40.1290   24.2600   43.6400 H   0  0  0  0  0  0  0  0  0  0  0  0
   38.4350   23.8720   41.9320 H   0  0  0  0  0  0  0  0  0  0  0  0
   38.1870   31.8100   40.6040 C   0  0  0  0  0  0  0  0  0  0  0  0
   37.5120   32.9220   40.1450 C   0  0  0  0  0  0  0  0  0  0  0  0
   36.4320   32.8590   39.9370 H   0  0  0  0  0  0  0  0  0  0  0  0
   38.1050   34.1310   39.9230 C   0  0  0  0  0  0  0  0  0  0  0  0
   37.6230   35.0290   39.5660 H   0  0  0  0  0  0  0  0  0  0  0  0
   39.4660   34.1510   40.2020 C   0  0  0  0  0  3  0  0  0  0  0  0
   40.1990   33.0530   40.6700 C   0  0  0  0  0  3  0  0  0  0  0  0
   39.5020   31.9130   40.8500 N   0  0  0  0  0  0  0  0  0  0  0  0
  1  6  1  0  0  0  0
  2  3  1  0  0  0  0
  2  1  2  0  0  0  0
  3  4  2  0  0  0  0
  4  5  1  0  0  0  0
  5  9  1  0  0  0  0
  6  5  2  0  0  0  0
  7  2  1  0  0  0  0
  8  3  1  0  0  0  0
  9 10  1  0  0  0  0
 10 15  1  0  0  0  0
 10 11  2  0  0  0  0
 11 16  1  0  0  0  0
 12 17  1  0  0  0  0
 12 11  1  0  0  0  0
 13 12  2  0  0  0  0
 14  9  2  0  0  0  0
 14 13  1  0  0  0  0
 18 13  1  0  0  0  0
 19  1  1  0  0  0  0
 19 26  1  0  0  0  0
 20 19  2  0  0  0  0
 21 20  1  0  0  0  0
 22 20  1  0  0  0  0
 22 24  2  0  0  0  0
 23 22  1  0  0  0  0
 24 25  1  0  0  0  0
 25 26  2  0  0  0  0
M  END
>  <minimizedAffinity>
-5.27537823

$$$$

 OpenBabel03252507273D

 26 28  0  0  0  0  0  0  0  0999 V2000
   37.2210   27.3060   41.4970 C   0  0  0  0  0  0  0  0  0  0  0  0
   37.4060   27.1100   42.8680 C   0  0  0  0  0  0  0  0  0  0  0  0
   37.7720   28.2400   43.6290 C   0  0  0  0  0  0  0  0  0  0  0  0
   37.9260   29.4510   43.0020 N   0  0  0  0  0  0  0  0  0  0  0  0
   37.7320   29.5670   41.6790 C   0  0  0  0  0  0  0  0  0  0  0  0
   37.3830   28.5190   40.9170 N   0  0  0  0  0  0  0  0  0  0  0  0
   37.2790   26.1450   43.3400 H   0  0  0  0  0  0  0  0  0  0  0  0
   37.9330   28.1580   44.7070 H   0  0  0  0  0  0  0  0  0  0  0  0
   37.9070   30.8790   41.0530 C   0  0  0  0  0  0  0  0  0  0  0  0
   36.9970   31.3430   40.1280 C   0  0  0  0  0  0  0  0  0  0  0  0
   37.0790   32.5630   39.4860 C   0  0  0  0  0  0  0  0  0  0  0  0
   38.1840   33.3240   39.8490 C   0  0  0  0  0  0  0  0  0  0  0  0
   39.1130   32.8800   40.7780 C   0  0  0  0  0  0  0  0  0  0  0  0
   38.9570   31.6570   41.3660 N   0  0  0  0  0  0  0  0  0  0  0  0
   36.1570   30.6950   39.8900 H   0  0  0  0  0  0  0  0  0  0  0  0
   36.3370   32.8760   38.7680 H   0  0  0  0  0  0  0  0  0  0  0  0
   38.3200   34.2990   39.3880 H   0  0  0  0  0  0  0  0  0  0  0  0
   39.9570   33.5240   41.0190 H   0  0  0  0  0  0  0  0  0  0  0  0
   36.8440   26.1660   40.6890 C   0  0  0  0  0  0  0  0  0  0  0  0
   36.9000   24.8860   41.2010 C   0  0  0  0  0  0  0  0  0  0  0  0
   37.2340   24.7250   42.2380 H   0  0  0  0  0  0  0  0  0  0  0  0
   36.5590   23.7710   40.4910 C   0  0  0  0  0  0  0  0  0  0  0  0
   36.5840   22.7510   40.8440 H   0  0  0  0  0  0  0  0  0  0  0  0
   36.1460   24.0340   39.1900 C   0  0  0  0  0  3  0  0  0  0  0  0
   36.0710   25.3120   38.6220 C   0  0  0  0  0  3  0  0  0  0  0  0
   36.4340   26.3350   39.4220 N   0  0  0  0  0  0  0  0  0  0  0  0
  1  2  1  0  0  0  0
  2  7  1  0  0  0  0
  2  3  2  0  0  0  0
  3  8  1  0  0  0  0
  4  3  1  0  0  0  0
  5  4  2  0  0  0  0
  6  1  2  0  0  0  0
  6  5  1  0  0  0  0
  9 14  1  0  0  0  0
  9  5  1  0  0  0  0
 10  9  2  0  0  0  0
 11 12  2  0  0  0  0
 11 10  1  0  0  0  0
 12 13  1  0  0  0  0
 13 18  1  0  0  0  0
 13 14  2  0  0  0  0
 15 10  1  0  0  0  0
 16 11  1  0  0  0  0
 17 12  1  0  0  0  0
 19 20  1  0  0  0  0
 19  1  1  0  0  0  0
 20 21  1  0  0  0  0
 22 23  1  0  0  0  0
 22 20  2  0  0  0  0
 24 22  1  0  0  0  0
 25 24  2  0  0  0  0
 25 26  1  0  0  0  0
 26 19  2  0  0  0  0
M  END
>  <minimizedAffinity>
-5.18219614

$$$$

 OpenBabel03252507273D

 26 28  0  0  0  0  0  0  0  0999 V2000
   37.8250   29.4930   41.6850 C   0  0  0  0  0  0  0  0  0  0  0  0
   38.1500   29.3330   43.0340 C   0  0  0  0  0  0  0  0  0  0  0  0
   38.0310   28.0320   43.5680 C   0  0  0  0  0  0  0  0  0  0  0  0
   37.6100   27.0090   42.7560 N   0  0  0  0  0  0  0  0  0  0  0  0
   37.3150   27.2350   41.4660 C   0  0  0  0  0  0  0  0  0  0  0  0
   37.4140   28.4550   40.9170 N   0  0  0  0  0  0  0  0  0  0  0  0
   38.4790   30.1550   43.6550 H   0  0  0  0  0  0  0  0  0  0  0  0
   38.2680   27.8350   44.6160 H   0  0  0  0  0  0  0  0  0  0  0  0
   36.8710   26.1130   40.6370 C   0  0  0  0  0  0  0  0  0  0  0  0
   36.8730   24.8270   41.1340 C   0  0  0  0  0  0  0  0  0  0  0  0
   36.4740   23.7100   40.4290 C   0  0  0  0  0  0  0  0  0  0  0  0
   36.0530   23.9750   39.1320 C   0  0  0  0  0  0  0  0  0  0  0  0
   36.0400   25.2590   38.6080 C   0  0  0  0  0  0  0  0  0  0  0  0
   36.4530   26.3110   39.3750 N   0  0  0  0  0  0  0  0  0  0  0  0
   37.2160   24.6920   42.1570 H   0  0  0  0  0  0  0  0  0  0  0  0
   36.4970   22.7240   40.8700 H   0  0  0  0  0  0  0  0  0  0  0  0
   35.7220   23.1470   38.5110 H   0  0  0  0  0  0  0  0  0  0  0  0
   35.6990   25.4010   37.5850 H   0  0  0  0  0  0  0  0  0  0  0  0
   37.9370   30.8160   41.1080 C   0  0  0  0  0  0  0  0  0  0  0  0
   36.9900   31.2820   40.2200 C   0  0  0  0  0  0  0  0  0  0  0  0
   36.1360   30.6440   39.9440 H   0  0  0  0  0  0  0  0  0  0  0  0
   37.0390   32.5180   39.6410 C   0  0  0  0  0  0  0  0  0  0  0  0
   36.3250   32.9300   38.9430 H   0  0  0  0  0  0  0  0  0  0  0  0
   38.1360   33.2780   40.0260 C   0  0  0  0  0  3  0  0  0  0  0  0
   39.1240   32.8530   40.9220 C   0  0  0  0  0  3  0  0  0  0  0  0
   38.9680   31.6130   41.4280 N   0  0  0  0  0  0  0  0  0  0  0  0
  1  2  1  0  0  0  0
  2  3  2  0  0  0  0
  2  7  1  0  0  0  0
  3  8  1  0  0  0  0
  4  3  1  0  0  0  0
  5  4  2  0  0  0  0
  6  5  1  0  0  0  0
  6  1  2  0  0  0  0
  9 10  1  0  0  0  0
  9  5  1  0  0  0  0
 10 15  1  0  0  0  0
 11 16  1  0  0  0  0
 11 10  2  0  0  0  0
 12 11  1  0  0  0  0
 13 12  2  0  0  0  0
 13 14  1  0  0  0  0
 14  9  2  0  0  0  0
 17 12  1  0  0  0  0
 18 13  1  0  0  0  0
 19 26  1  0  0  0  0
 19  1  1  0  0  0  0
 20 19  2  0  0  0  0
 21 20  1  0  0  0  0
 22 24  2  0  0  0  0
 22 20  1  0  0  0  0
 23 22  1  0  0  0  0
 24 25  1  0  0  0  0
 25 26  2  0  0  0  0
M  END
>  <minimizedAffinity>
-5.08853292

$$$$

 OpenBabel03252507273D

 26 28  0  0  0  0  0  0  0  0999 V2000
   36.5340   28.0300   39.5440 C   0  0  0  0  0  0  0  0  0  0  0  0
   35.8020   27.9950   38.3540 C   0  0  0  0  0  0  0  0  0  0  0  0
   35.7010   29.2040   37.6340 C   0  0  0  0  0  0  0  0  0  0  0  0
   36.3110   30.3310   38.1250 N   0  0  0  0  0  0  0  0  0  0  0  0
   37.0000   30.2910   39.2760 C   0  0  0  0  0  0  0  0  0  0  0  0
   37.1230   29.1640   39.9930 N   0  0  0  0  0  0  0  0  0  0  0  0
   35.3300   27.0940   37.9870 H   0  0  0  0  0  0  0  0  0  0  0  0
   35.1430   29.2490   36.6960 H   0  0  0  0  0  0  0  0  0  0  0  0
   37.6350   31.5180   39.7610 C   0  0  0  0  0  0  0  0  0  0  0  0
   37.1600   32.7550   39.3790 C   0  0  0  0  0  0  0  0  0  0  0  0
   37.6920   33.9620   39.7830 C   0  0  0  0  0  0  0  0  0  0  0  0
   38.7840   33.8470   40.6340 C   0  0  0  0  0  0  0  0  0  0  0  0
   39.2820   32.6150   41.0340 C   0  0  0  0  0  0  0  0  0  0  0  0
   38.6940   31.4670   40.5860 N   0  0  0  0  0  0  0  0  0  0  0  0
   36.3020   32.7700   38.7100 H   0  0  0  0  0  0  0  0  0  0  0  0
   37.2780   34.9030   39.4520 H   0  0  0  0  0  0  0  0  0  0  0  0
   39.2610   34.7540   40.9980 H   0  0  0  0  0  0  0  0  0  0  0  0
   40.1400   32.5930   41.7030 H   0  0  0  0  0  0  0  0  0  0  0  0
   36.6570   26.8050   40.3060 C   0  0  0  0  0  0  0  0  0  0  0  0
   36.9870   26.8350   41.6450 C   0  0  0  0  0  0  0  0  0  0  0  0
   37.1590   27.8010   42.1450 H   0  0  0  0  0  0  0  0  0  0  0  0
   37.1180   25.7170   42.4170 C   0  0  0  0  0  0  0  0  0  0  0  0
   37.3720   25.6860   43.4670 H   0  0  0  0  0  0  0  0  0  0  0  0
   36.8900   24.5290   41.7350 C   0  0  0  0  0  3  0  0  0  0  0  0
   36.5530   24.4430   40.3780 C   0  0  0  0  0  3  0  0  0  0  0  0
   36.4530   25.6150   39.7190 N   0  0  0  0  0  0  0  0  0  0  0  0
  1  6  1  0  0  0  0
  1 19  1  0  0  0  0
  2  1  2  0  0  0  0
  3  4  2  0  0  0  0
  3  2  1  0  0  0  0
  4  5  1  0  0  0  0
  5  9  1  0  0  0  0
  5  6  2  0  0  0  0
  7  2  1  0  0  0  0
  8  3  1  0  0  0  0
  9 14  1  0  0  0  0
 10  9  2  0  0  0  0
 10 11  1  0  0  0  0
 11 12  2  0  0  0  0
 12 17  1  0  0  0  0
 12 13  1  0  0  0  0
 13 18  1  0  0  0  0
 14 13  2  0  0  0  0
 15 10  1  0  0  0  0
 16 11  1  0  0  0  0
 19 20  1  0  0  0  0
 20 21  1  0  0  0  0
 20 22  2  0  0  0  0
 22 23  1  0  0  0  0
 24 22  1  0  0  0  0
 25 24  2  0  0  0  0
 26 19  2  0  0  0  0
 26 25  1  0  0  0  0
M  END
>  <minimizedAffinity>
-4.930686

$$$$

 OpenBabel03252507273D

 26 28  0  0  0  0  0  0  0  0999 V2000
   37.2010   30.1850   39.0710 C   0  0  0  0  0  0  0  0  0  0  0  0
   36.6660   30.2010   37.7810 C   0  0  0  0  0  0  0  0  0  0  0  0
   36.1570   28.9800   37.2880 C   0  0  0  0  0  0  0  0  0  0  0  0
   36.2110   27.8610   38.0800 N   0  0  0  0  0  0  0  0  0  0  0  0
   36.7390   27.9190   39.3130 C   0  0  0  0  0  0  0  0  0  0  0  0
   37.2340   29.0570   39.8220 N   0  0  0  0  0  0  0  0  0  0  0  0
   36.6340   31.0960   37.1750 H   0  0  0  0  0  0  0  0  0  0  0  0
   35.7240   28.9210   36.2870 H   0  0  0  0  0  0  0  0  0  0  0  0
   36.7750   26.7000   40.1220 C   0  0  0  0  0  0  0  0  0  0  0  0
   37.0940   26.7540   41.4620 C   0  0  0  0  0  0  0  0  0  0  0  0
   37.1530   25.6610   42.3030 C   0  0  0  0  0  0  0  0  0  0  0  0
   36.8580   24.4510   41.6860 C   0  0  0  0  0  0  0  0  0  0  0  0
   36.5330   24.3690   40.3400 C   0  0  0  0  0  0  0  0  0  0  0  0
   36.4980   25.5020   39.5780 N   0  0  0  0  0  0  0  0  0  0  0  0
   37.3150   27.7340   41.8790 H   0  0  0  0  0  0  0  0  0  0  0  0
   37.4090   25.7630   43.3470 H   0  0  0  0  0  0  0  0  0  0  0  0
   36.8820   23.5420   42.2810 H   0  0  0  0  0  0  0  0  0  0  0  0
   36.3120   23.3920   39.9160 H   0  0  0  0  0  0  0  0  0  0  0  0
   37.7310   31.4210   39.6060 C   0  0  0  0  0  0  0  0  0  0  0  0
   37.1680   32.6350   39.2720 C   0  0  0  0  0  0  0  0  0  0  0  0
   36.3030   32.6690   38.5910 H   0  0  0  0  0  0  0  0  0  0  0  0
   37.6200   33.8340   39.7420 C   0  0  0  0  0  0  0  0  0  0  0  0
   37.2160   34.8100   39.5130 H   0  0  0  0  0  0  0  0  0  0  0  0
   38.7110   33.7310   40.5970 C   0  0  0  0  0  3  0  0  0  0  0  0
   39.3190   32.5250   40.9680 C   0  0  0  0  0  3  0  0  0  0  0  0
   38.7830   31.4070   40.4390 N   0  0  0  0  0  0  0  0  0  0  0  0
  1 19  1  0  0  0  0
  1  6  1  0  0  0  0
  2  1  2  0  0  0  0
  3  2  1  0  0  0  0
  3  4  2  0  0  0  0
  4  5  1  0  0  0  0
  5  6  2  0  0  0  0
  5  9  1  0  0  0  0
  7  2  1  0  0  0  0
  8  3  1  0  0  0  0
  9 10  1  0  0  0  0
 10 15  1  0  0  0  0
 10 11  2  0  0  0  0
 11 16  1  0  0  0  0
 12 17  1  0  0  0  0
 12 11  1  0  0  0  0
 13 12  2  0  0  0  0
 14  9  2  0  0  0  0
 14 13  1  0  0  0  0
 18 13  1  0  0  0  0
 19 26  1  0  0  0  0
 20 19  2  0  0  0  0
 20 22  1  0  0  0  0
 21 20  1  0  0  0  0
 22 24  2  0  0  0  0
 23 22  1  0  0  0  0
 24 25  1  0  0  0  0
 26 25  2  0  0  0  0
M  END
>  <minimizedAffinity>
-4.9271965

$$$$

 OpenBabel03252507273D

 26 28  0  0  0  0  0  0  0  0999 V2000
   37.1710   26.8610   41.4120 C   0  0  0  0  0  0  0  0  0  0  0  0
   37.2360   26.9910   42.8010 C   0  0  0  0  0  0  0  0  0  0  0  0
   37.3260   28.3020   43.3140 C   0  0  0  0  0  0  0  0  0  0  0  0
   37.3460   29.3630   42.4440 N   0  0  0  0  0  0  0  0  0  0  0  0
   37.2790   29.1640   41.1190 C   0  0  0  0  0  0  0  0  0  0  0  0
   37.1920   27.9350   40.5870 N   0  0  0  0  0  0  0  0  0  0  0  0
   37.2190   26.1390   43.4670 H   0  0  0  0  0  0  0  0  0  0  0  0
   37.3810   28.4770   44.3910 H   0  0  0  0  0  0  0  0  0  0  0  0
   37.3020   30.3270   40.2290 C   0  0  0  0  0  0  0  0  0  0  0  0
   37.3480   31.6050   40.7430 C   0  0  0  0  0  0  0  0  0  0  0  0
   37.3720   32.7580   39.9850 C   0  0  0  0  0  0  0  0  0  0  0  0
   37.3460   32.5390   38.6130 C   0  0  0  0  0  0  0  0  0  0  0  0
   37.3000   31.2630   38.0700 C   0  0  0  0  0  0  0  0  0  0  0  0
   37.2780   30.1740   38.8940 N   0  0  0  0  0  0  0  0  0  0  0  0
   37.3660   31.7030   41.8260 H   0  0  0  0  0  0  0  0  0  0  0  0
   37.4090   33.7360   40.4420 H   0  0  0  0  0  0  0  0  0  0  0  0
   37.3630   33.3970   37.9460 H   0  0  0  0  0  0  0  0  0  0  0  0
   37.2810   31.1580   36.9870 H   0  0  0  0  0  0  0  0  0  0  0  0
   37.0770   25.5280   40.8540 C   0  0  0  0  0  0  0  0  0  0  0  0
   37.6950   24.4590   41.4690 C   0  0  0  0  0  0  0  0  0  0  0  0
   38.2680   24.6170   42.3960 H   0  0  0  0  0  0  0  0  0  0  0  0
   37.6450   23.1800   40.9940 C   0  0  0  0  0  0  0  0  0  0  0  0
   38.1090   22.3110   41.4370 H   0  0  0  0  0  0  0  0  0  0  0  0
   36.9100   23.0410   39.8240 C   0  0  0  0  0  3  0  0  0  0  0  0
   36.2640   24.0910   39.1600 C   0  0  0  0  0  3  0  0  0  0  0  0
   36.3850   25.3090   39.7250 N   0  0  0  0  0  0  0  0  0  0  0  0
  1  2  1  0  0  0  0
  2  3  2  0  0  0  0
  2  7  1  0  0  0  0
  3  8  1  0  0  0  0
  4  3  1  0  0  0  0
  5  4  2  0  0  0  0
  6  5  1  0  0  0  0
  6  1  2  0  0  0  0
  9 10  1  0  0  0  0
  9  5  1  0  0  0  0
 10 15  1  0  0  0  0
 11 16  1  0  0  0  0
 11 10  2  0  0  0  0
 12 11  1  0  0  0  0
 13 12  2  0  0  0  0
 13 14  1  0  0  0  0
 14  9  2  0  0  0  0
 17 12  1  0  0  0  0
 18 13  1  0  0  0  0
 19  1  1  0  0  0  0
 19 20  1  0  0  0  0
 20 21  1  0  0  0  0
 22 23  1  0  0  0  0
 22 20  2  0  0  0  0
 24 22  1  0  0  0  0
 25 26  1  0  0  0  0
 25 24  2  0  0  0  0
 26 19  2  0  0  0  0
M  END
>  <minimizedAffinity>
-4.91767073

$$$$

 OpenBabel03252507273D

 26 28  0  0  0  0  0  0  0  0999 V2000
   37.5250   29.1530   41.1770 C   0  0  0  0  0  0  0  0  0  0  0  0
   37.6580   29.4350   42.5380 C   0  0  0  0  0  0  0  0  0  0  0  0
   37.7280   28.3310   43.4140 C   0  0  0  0  0  0  0  0  0  0  0  0
   37.6620   27.0600   42.8990 N   0  0  0  0  0  0  0  0  0  0  0  0
   37.5340   26.8630   41.5770 C   0  0  0  0  0  0  0  0  0  0  0  0
   37.4640   27.8830   40.7090 N   0  0  0  0  0  0  0  0  0  0  0  0
   37.7080   30.4450   42.9210 H   0  0  0  0  0  0  0  0  0  0  0  0
   37.8330   28.4790   44.4910 H   0  0  0  0  0  0  0  0  0  0  0  0
   37.4680   25.4900   41.0730 C   0  0  0  0  0  0  0  0  0  0  0  0
   36.5330   25.1320   40.1260 C   0  0  0  0  0  0  0  0  0  0  0  0
   36.3950   23.8670   39.5930 C   0  0  0  0  0  0  0  0  0  0  0  0
   37.2980   22.9360   40.0940 C   0  0  0  0  0  0  0  0  0  0  0  0
   38.2500   23.2710   41.0460 C   0  0  0  0  0  0  0  0  0  0  0  0
   38.3170   24.5490   41.5220 N   0  0  0  0  0  0  0  0  0  0  0  0
   35.8560   25.9110   39.7790 H   0  0  0  0  0  0  0  0  0  0  0  0
   35.6430   23.6430   38.8520 H   0  0  0  0  0  0  0  0  0  0  0  0
   37.2550   21.9150   39.7240 H   0  0  0  0  0  0  0  0  0  0  0  0
   38.9280   22.4960   41.3980 H   0  0  0  0  0  0  0  0  0  0  0  0
   37.4510   30.2650   40.2530 C   0  0  0  0  0  0  0  0  0  0  0  0
   37.3960   31.5640   40.7120 C   0  0  0  0  0  0  0  0  0  0  0  0
   37.4080   31.7630   41.7950 H   0  0  0  0  0  0  0  0  0  0  0  0
   37.3260   32.6540   39.8940 C   0  0  0  0  0  0  0  0  0  0  0  0
   37.2810   33.6890   40.2020 H   0  0  0  0  0  0  0  0  0  0  0  0
   37.3130   32.3440   38.5400 C   0  0  0  0  0  3  0  0  0  0  0  0
   37.3670   31.0440   38.0210 C   0  0  0  0  0  3  0  0  0  0  0  0
   37.4340   30.0490   38.9280 N   0  0  0  0  0  0  0  0  0  0  0  0
  1  2  1  0  0  0  0
  2  7  1  0  0  0  0
  2  3  2  0  0  0  0
  3  8  1  0  0  0  0
  4  3  1  0  0  0  0
  5  4  2  0  0  0  0
  6  1  2  0  0  0  0
  6  5  1  0  0  0  0
  9 14  1  0  0  0  0
  9  5  1  0  0  0  0
 10  9  2  0  0  0  0
 11 12  2  0  0  0  0
 11 10  1  0  0  0  0
 12 13  1  0  0  0  0
 13 18  1  0  0  0  0
 13 14  2  0  0  0  0
 15 10  1  0  0  0  0
 16 11  1  0  0  0  0
 17 12  1  0  0  0  0
 19 20  1  0  0  0  0
 19  1  1  0  0  0  0
 20 21  1  0  0  0  0
 22 23  1  0  0  0  0
 22 20  2  0  0  0  0
 24 22  1  0  0  0  0
 25 24  2  0  0  0  0
 25 26  1  0  0  0  0
 26 19  2  0  0  0  0
M  END
>  <minimizedAffinity>
-4.75659657

$$$$

 OpenBabel03252507273D

 26 28  0  0  0  0  0  0  0  0999 V2000
   37.7360   29.9580   40.2860 C   0  0  0  0  0  0  0  0  0  0  0  0
   36.8060   30.0050   39.2450 C   0  0  0  0  0  0  0  0  0  0  0  0
   37.0490   30.9390   38.2150 C   0  0  0  0  0  0  0  0  0  0  0  0
   38.1610   31.7400   38.2850 N   0  0  0  0  0  0  0  0  0  0  0  0
   39.0130   31.6410   39.3170 C   0  0  0  0  0  0  0  0  0  0  0  0
   38.8220   30.7670   40.3170 N   0  0  0  0  0  0  0  0  0  0  0  0
   35.9360   29.3630   39.2120 H   0  0  0  0  0  0  0  0  0  0  0  0
   36.3620   31.0290   37.3700 H   0  0  0  0  0  0  0  0  0  0  0  0
   40.1870   32.5160   39.3480 C   0  0  0  0  0  0  0  0  0  0  0  0
   40.8000   32.8280   40.5420 C   0  0  0  0  0  0  0  0  0  0  0  0
   41.9070   33.6430   40.6700 C   0  0  0  0  0  0  0  0  0  0  0  0
   42.3850   34.1480   39.4670 C   0  0  0  0  0  0  0  0  0  0  0  0
   41.7870   33.8480   38.2510 C   0  0  0  0  0  0  0  0  0  0  0  0
   40.6920   33.0330   38.2150 N   0  0  0  0  0  0  0  0  0  0  0  0
   40.3720   32.3990   41.4460 H   0  0  0  0  0  0  0  0  0  0  0  0
   42.3460   33.8540   41.6330 H   0  0  0  0  0  0  0  0  0  0  0  0
   43.2550   34.7980   39.4830 H   0  0  0  0  0  0  0  0  0  0  0  0
   42.2090   34.2760   37.3440 H   0  0  0  0  0  0  0  0  0  0  0  0
   37.5150   29.0100   41.3570 C   0  0  0  0  0  0  0  0  0  0  0  0
   37.1840   27.6990   41.0840 C   0  0  0  0  0  0  0  0  0  0  0  0
   37.0870   27.3650   40.0400 H   0  0  0  0  0  0  0  0  0  0  0  0
   36.9640   26.7570   42.0480 C   0  0  0  0  0  0  0  0  0  0  0  0
   36.7040   25.7210   41.8880 H   0  0  0  0  0  0  0  0  0  0  0  0
   37.1000   27.2350   43.3460 C   0  0  0  0  0  3  0  0  0  0  0  0
   37.4330   28.5540   43.6770 C   0  0  0  0  0  3  0  0  0  0  0  0
   37.6270   29.3920   42.6390 N   0  0  0  0  0  0  0  0  0  0  0  0
  1  6  1  0  0  0  0
  1 19  1  0  0  0  0
  2  1  2  0  0  0  0
  3  4  2  0  0  0  0
  3  2  1  0  0  0  0
  4  5  1  0  0  0  0
  5  9  1  0  0  0  0
  5  6  2  0  0  0  0
  7  2  1  0  0  0  0
  8  3  1  0  0  0  0
  9 10  1  0  0  0  0
 10 11  2  0  0  0  0
 10 15  1  0  0  0  0
 11 16  1  0  0  0  0
 12 17  1  0  0  0  0
 12 11  1  0  0  0  0
 13 12  2  0  0  0  0
 14 13  1  0  0  0  0
 14  9  2  0  0  0  0
 18 13  1  0  0  0  0
 19 26  1  0  0  0  0
 20 19  2  0  0  0  0
 20 22  1  0  0  0  0
 21 20  1  0  0  0  0
 22 24  2  0  0  0  0
 23 22  1  0  0  0  0
 24 25  1  0  0  0  0
 26 25  2  0  0  0  0
M  END
>  <minimizedAffinity>
-4.68751192

$$$$
