
 OpenBabel03242511523D

 33 37  0  0  1  0  0  0  0  0999 V2000
   45.7620   32.6850   38.1560 C   0  0  1  0  0  0  0  0  0  0  0  0
   46.5190   33.5580   37.6900 O   0  0  0  0  0  0  0  0  0  0  0  0
   46.9260   33.0350   38.9690 C   0  0  2  0  0  0  0  0  0  0  0  0
   47.8550   31.8370   39.1800 C   0  0  0  0  0  0  0  0  0  0  0  0
   47.3110   32.5740   40.2830 C   0  0  1  0  0  0  0  0  0  0  0  0
   46.0480   31.7380   37.5080 H   0  0  0  0  0  0  0  0  0  0  0  0
   47.5030   30.8130   38.9870 H   0  0  0  0  0  0  0  0  0  0  0  0
   48.8660   32.0580   38.7840 H   0  0  0  0  0  0  0  0  0  0  0  0
   46.4330   32.1380   40.8430 H   0  0  0  0  0  0  0  0  0  0  0  0
   48.2450   33.4620   41.0290 C   0  0  0  0  0  0  0  0  0  0  0  0
   49.2840   33.0500   41.8410 C   0  0  0  0  0  0  0  0  0  0  0  0
   49.4100   31.9630   41.9280 H   0  0  0  0  0  0  0  0  0  0  0  0
   50.1090   33.9040   42.5000 C   0  0  0  0  0  0  0  0  0  0  0  0
   50.9060   33.5310   43.1230 H   0  0  0  0  0  0  0  0  0  0  0  0
   49.8810   35.2500   42.3360 C   0  0  0  0  0  0  0  0  0  0  0  0
   48.8530   35.6930   41.5320 C   0  0  0  0  0  0  0  0  0  0  0  0
   48.0610   34.8070   40.8990 N   0  0  0  0  0  0  0  0  0  0  0  0
   43.2320   33.0550   38.5000 C   0  0  1  0  0  0  0  0  0  0  0  0
   44.3670   32.7530   37.6780 C   0  0  2  0  0  0  0  0  0  0  0  0
   43.5190   31.6630   38.2080 C   0  0  0  0  0  0  0  0  0  0  0  0
   42.3560   33.5430   37.9750 H   0  0  0  0  0  0  0  0  0  0  0  0
   44.2290   32.8950   36.5640 H   0  0  0  0  0  0  0  0  0  0  0  0
   43.8730   30.9820   39.0270 H   0  0  0  0  0  0  0  0  0  0  0  0
   42.8270   31.0860   37.5340 H   0  0  0  0  0  0  0  0  0  0  0  0
   43.3200   35.0200   39.9430 C   0  0  0  0  0  0  0  0  0  0  0  0
   43.4400   33.6430   39.8290 C   0  0  0  0  0  0  0  0  0  0  0  0
   43.6980   32.8540   40.9540 C   0  0  0  0  0  0  0  0  0  0  0  0
   43.8170   33.5270   42.1460 N   0  0  0  0  0  0  0  0  0  0  0  0
   43.6980   34.8630   42.2530 C   0  0  0  0  0  0  0  0  0  0  0  0
   43.4480   35.6080   41.1380 N   0  0  0  0  0  0  0  0  0  0  0  0
   43.1200   35.6710   39.0870 H   0  0  0  0  0  0  0  0  0  0  0  0
   43.7910   31.7960   40.8620 H   0  0  0  0  0  0  0  0  0  0  0  0
   43.8040   35.3130   43.2250 H   0  0  0  0  0  0  0  0  0  0  0  0
  1  6  1  6  0  0  0
  1  3  1  0  0  0  0
  2  1  1  0  0  0  0
  3  2  1  6  0  0  0
  3  4  1  0  0  0  0
  3  5  1  0  0  0  0
  4  5  1  0  0  0  0
  5  9  1  1  0  0  0
  5 10  1  0  0  0  0
  7  4  1  0  0  0  0
  8  4  1  0  0  0  0
 10 11  1  0  0  0  0
 11 12  1  0  0  0  0
 11 13  2  0  0  0  0
 13 14  1  0  0  0  0
 15 13  1  0  0  0  0
 16 15  2  0  0  0  0
 17 10  2  0  0  0  0
 17 16  1  0  0  0  0
 18 21  1  6  0  0  0
 18 26  1  0  0  0  0
 19 22  1  6  0  0  0
 19  1  1  0  0  0  0
 19 20  1  0  0  0  0
 19 18  1  0  0  0  0
 20 18  1  0  0  0  0
 20 23  1  0  0  0  0
 24 20  1  0  0  0  0
 25 30  1  0  0  0  0
 26 25  2  0  0  0  0
 26 27  1  0  0  0  0
 27 28  2  0  0  0  0
 28 29  1  0  0  0  0
 29 33  1  0  0  0  0
 30 29  2  0  0  0  0
 31 25  1  0  0  0  0
 32 27  1  0  0  0  0
M  END
>  <minimizedAffinity>
-4.29512644

>  <minimizedRMSD>
3.64144039

$$$$
