
 OpenBabel03242518393D

 38 41  0  0  1  0  0  0  0  0999 V2000
   47.2540   33.6790   39.8530 C   0  0  0  0  0  0  0  0  0  0  0  0
   48.2490   34.3250   39.1220 C   0  0  0  0  0  0  0  0  0  0  0  0
   47.9840   34.1840   37.7770 C   0  0  0  0  0  0  0  0  0  0  0  0
   46.8380   33.4580   37.7500 C   0  0  0  0  0  0  0  0  0  0  0  0
   46.4240   33.1710   38.9670 O   0  0  0  0  0  0  0  0  0  0  0  0
   49.0460   34.8200   39.6620 H   0  0  0  0  0  0  0  0  0  0  0  0
   48.5920   34.5850   37.0060 H   0  0  0  0  0  0  0  0  0  0  0  0
   46.1350   33.0370   36.5130 C   0  0  2  0  0  0  0  0  0  0  0  0
   45.7950   31.6300   36.3010 C   0  0  0  0  0  0  0  0  0  0  0  0
   47.0000   32.1370   35.5940 C   0  0  1  0  0  0  0  0  0  0  0  0
   45.5500   33.8170   36.0210 H   0  0  0  0  0  0  0  0  0  0  0  0
   44.8840   31.3640   35.7330 H   0  0  0  0  0  0  0  0  0  0  0  0
   46.0330   30.8460   37.0650 H   0  0  0  0  0  0  0  0  0  0  0  0
   48.0170   31.9160   35.9380 H   0  0  0  0  0  0  0  0  0  0  0  0
   47.9930   32.6260   33.3760 C   0  0  0  0  0  0  0  0  0  0  0  0
   49.1740   32.6040   33.8290 O   0  0  0  0  0  0  0  0  0  0  0  0
   46.8370   32.4550   34.1810 N   0  0  0  0  0  0  0  0  0  0  0  0
   47.8470   32.7840   32.3200 H   0  0  0  0  0  0  0  0  0  0  0  0
   45.8720   32.5480   33.7990 H   0  0  0  0  0  0  0  0  0  0  0  0
   47.0470   33.5210   41.2460 O   0  0  0  0  0  0  0  0  0  0  0  0
   47.2220   34.6540   42.0910 C   0  0  0  0  0  0  0  0  0  0  0  0
   48.0270   35.5180   41.7000 O   0  0  0  0  0  0  0  0  0  0  0  0
   46.4450   34.6490   43.2860 C   0  0  0  0  0  0  0  0  0  0  0  0
   45.4470   35.5760   43.3350 C   0  0  0  0  0  0  0  0  0  0  0  0
   44.6360   35.6330   44.4790 C   0  0  0  0  0  0  0  0  0  0  0  0
   44.8770   34.7700   45.4760 N   0  0  0  0  0  0  0  0  0  0  0  0
   45.8780   33.8620   45.3920 C   0  0  0  0  0  0  0  0  0  0  0  0
   46.6340   33.8210   44.3060 N   0  0  0  0  0  0  0  0  0  0  0  0
   45.2270   36.2820   42.5530 H   0  0  0  0  0  0  0  0  0  0  0  0
   43.8370   36.3640   44.5380 H   0  0  0  0  0  0  0  0  0  0  0  0
   46.1120   32.9310   46.5050 C   0  0  0  0  0  0  0  0  0  0  0  0
   45.2380   32.9140   47.5730 C   0  0  0  0  0  0  0  0  0  0  0  0
   44.4030   33.6050   47.5330 H   0  0  0  0  0  0  0  0  0  0  0  0
   45.3840   32.0740   48.6550 C   0  0  0  0  0  0  0  0  0  0  0  0
   44.7030   32.0540   49.4960 H   0  0  0  0  0  0  0  0  0  0  0  0
   46.4840   31.2520   48.5730 C   0  0  0  0  0  0  0  0  0  0  0  0
   47.3880   31.2310   47.5280 C   0  0  0  0  0  0  0  0  0  0  0  0
   47.1750   32.0940   46.4900 N   0  0  0  0  0  0  0  0  0  0  0  0
  1 20  1  0  0  0  0
  2  6  1  0  0  0  0
  2  1  2  0  0  0  0
  3  2  1  0  0  0  0
  4  3  2  0  0  0  0
  4  5  1  0  0  0  0
  5  1  1  0  0  0  0
  7  3  1  0  0  0  0
  8 11  1  6  0  0  0
  8  4  1  0  0  0  0
  9  8  1  0  0  0  0
  9 13  1  0  0  0  0
 10 14  1  1  0  0  0
 10  9  1  0  0  0  0
 10  8  1  0  0  0  0
 12  9  1  0  0  0  0
 15 16  2  0  0  0  0
 15 17  1  0  0  0  0
 17 10  1  0  0  0  0
 18 15  1  0  0  0  0
 19 17  1  0  0  0  0
 20 21  1  0  0  0  0
 21 23  1  0  0  0  0
 22 21  2  0  0  0  0
 23 24  2  0  0  0  0
 23 28  1  0  0  0  0
 24 25  1  0  0  0  0
 25 30  1  0  0  0  0
 25 26  2  0  0  0  0
 27 26  1  0  0  0  0
 27 31  1  0  0  0  0
 28 27  2  0  0  0  0
 29 24  1  0  0  0  0
 31 32  1  0  0  0  0
 32 34  2  0  0  0  0
 33 32  1  0  0  0  0
 34 35  1  0  0  0  0
 36 34  1  0  0  0  0
 37 36  2  0  0  0  0
 38 31  2  0  0  0  0
 38 37  1  0  0  0  0
M  END
>  <minimizedAffinity>
-6.26415682

>  <minimizedRMSD>
0.482717633

$$$$
