
 OpenBabel03242512483D

 29 31  0  0  1  0  0  0  0  0999 V2000
   47.2680   34.5540   42.5790 N   0  0  0  0  0  0  0  0  0  0  0  0
   48.6790   34.2520   42.5930 C   0  0  0  0  0  0  0  0  0  0  0  0
   49.1370   35.2490   41.5500 C   0  0  0  0  0  0  0  0  0  0  0  0
   48.1970   34.8190   40.4170 C   0  0  0  0  0  0  0  0  0  0  0  0
   46.9060   34.6600   41.1760 C   0  0  1  0  0  0  0  0  0  0  0  0
   49.1250   34.4940   43.5910 H   0  0  0  0  0  0  0  0  0  0  0  0
   48.9200   33.2410   42.2700 H   0  0  0  0  0  0  0  0  0  0  0  0
   48.9050   36.2530   41.9040 H   0  0  0  0  0  0  0  0  0  0  0  0
   50.1890   35.0850   41.3000 H   0  0  0  0  0  0  0  0  0  0  0  0
   48.5660   33.8590   40.0110 H   0  0  0  0  0  0  0  0  0  0  0  0
   48.1370   35.6150   39.6470 H   0  0  0  0  0  0  0  0  0  0  0  0
   46.4010   35.6680   41.1030 H   0  0  0  0  0  0  0  0  0  0  0  0
   44.4900   35.8380   44.6720 C   0  0  0  0  0  0  0  0  0  0  0  0
   45.3720   35.7490   43.6000 C   0  0  0  0  0  0  0  0  0  0  0  0
   46.3420   34.7300   43.6160 C   0  0  0  0  0  0  0  0  0  0  0  0
   46.3590   33.8920   44.6840 N   0  0  0  0  0  0  0  0  0  0  0  0
   45.5030   33.9900   45.7130 C   0  0  0  0  0  0  0  0  0  0  0  0
   44.5590   34.9690   45.7130 N   0  0  0  0  0  0  0  0  0  0  0  0
   43.7310   36.6110   44.6900 H   0  0  0  0  0  0  0  0  0  0  0  0
   45.3370   36.4350   42.7560 H   0  0  0  0  0  0  0  0  0  0  0  0
   45.6400   33.2480   46.4950 H   0  0  0  0  0  0  0  0  0  0  0  0
   45.9960   33.6480   40.6770 C   0  0  0  0  0  0  0  0  0  0  0  0
   44.6590   33.8450   40.4140 C   0  0  0  0  0  0  0  0  0  0  0  0
   44.2470   34.8290   40.5900 H   0  0  0  0  0  0  0  0  0  0  0  0
   43.8350   32.8430   39.9370 C   0  0  0  0  0  0  0  0  0  0  0  0
   42.7860   32.9810   39.7260 H   0  0  0  0  0  0  0  0  0  0  0  0
   44.3490   31.5850   39.7080 C   0  0  0  0  0  0  0  0  0  0  0  0
   45.6800   31.3960   39.9730 C   0  0  0  0  0  0  0  0  0  0  0  0
   46.4340   32.3820   40.4280 N   0  0  0  0  0  0  0  0  0  0  0  0
  1  2  1  0  0  0  0
  1 15  1  0  0  0  0
  2  6  1  0  0  0  0
  3  8  1  0  0  0  0
  3  2  1  0  0  0  0
  4  5  1  0  0  0  0
  4  3  1  0  0  0  0
  5 12  1  6  0  0  0
  5  1  1  0  0  0  0
  7  2  1  0  0  0  0
  9  3  1  0  0  0  0
 10  4  1  0  0  0  0
 11  4  1  0  0  0  0
 13 19  1  0  0  0  0
 13 18  1  0  0  0  0
 14 15  1  0  0  0  0
 14 13  2  0  0  0  0
 15 16  2  0  0  0  0
 16 17  1  0  0  0  0
 17 21  1  0  0  0  0
 18 17  2  0  0  0  0
 20 14  1  0  0  0  0
 22  5  1  0  0  0  0
 23 24  1  0  0  0  0
 23 22  2  0  0  0  0
 25 23  1  0  0  0  0
 26 25  1  0  0  0  0
 27 25  2  0  0  0  0
 27 28  1  0  0  0  0
 28 29  2  0  0  0  0
 29 22  1  0  0  0  0
M  END
>  <minimizedAffinity>
-4.66364241

>  <minimizedRMSD>
1.01696384

$$$$
