
     RDKit          3D

 26 28  0  0  0  0  0  0  0  0999 V2000
   44.5888   35.8921   44.3212 C   0  0  0  0  0  0  0  0  0  0  0  0
   45.3378   35.9161   43.1310 C   0  0  0  0  0  0  0  0  0  0  0  0
   46.3045   34.9410   43.0266 C   0  0  0  0  0  0  0  0  0  0  0  0
   46.4742   34.0350   44.0567 N   0  0  0  0  0  0  0  0  0  0  0  0
   45.7292   34.0562   45.1749 C   0  0  0  0  0  0  0  0  0  0  0  0
   44.7825   35.0023   45.2883 N   0  0  0  0  0  0  0  0  0  0  0  0
   47.0828   34.7899   41.7428 C   0  0  0  0  0  0  0  0  0  0  0  0
   48.4587   35.4600   41.8719 C   0  0  0  0  0  0  0  0  0  0  0  0
   48.2386   33.9215   41.7445 C   0  0  0  0  0  0  0  0  0  0  0  0
   43.8018   36.5562   44.5943 H   0  0  0  0  0  0  0  0  0  0  0  0
   46.0533   33.2517   45.8197 H   0  0  0  0  0  0  0  0  0  0  0  0
   46.6499   35.1906   40.8058 H   0  0  0  0  0  0  0  0  0  0  0  0
   48.8179   35.7974   42.8410 H   0  0  0  0  0  0  0  0  0  0  0  0
   48.9088   35.9292   40.9822 H   0  0  0  0  0  0  0  0  0  0  0  0
   48.4884   33.3408   42.6592 H   0  0  0  0  0  0  0  0  0  0  0  0
   48.6749   33.4667   40.8251 H   0  0  0  0  0  0  0  0  0  0  0  0
   45.0550   36.9348   42.1416 C   0  0  0  0  0  0  0  0  0  0  0  0
   45.3955   38.2414   42.3967 C   0  0  0  0  0  0  0  0  0  0  0  0
   45.8737   38.6188   43.2881 H   0  0  0  0  0  0  0  0  0  0  0  0
   45.1741   39.2972   41.5383 C   0  0  0  0  0  0  0  0  0  0  0  0
   45.4332   40.3329   41.7176 H   0  0  0  0  0  0  0  0  0  0  0  0
   44.5676   39.0732   40.3199 C   0  0  0  0  0  0  0  0  0  0  0  0
   44.2286   37.7638   40.0692 C   0  0  0  0  0  0  0  0  0  0  0  0
   44.4773   36.8082   40.9495 N   0  0  0  0  0  0  0  0  0  0  0  0
   44.3157   39.7599   39.5304 H   0  0  0  0  0  0  0  0  0  0  0  0
   43.7494   37.3856   39.1797 H   0  0  0  0  0  0  0  0  0  0  0  0
  1  6  2  0
  2  1  1  0
  3  2  2  0
  3  4  1  0
  4  5  2  0
  5  6  1  0
  7  8  1  0
  7  9  1  0
  7  3  1  0
  8  9  1  0
  1 10  1  0
  5 11  1  0
  7 12  1  0
  8 13  1  0
  8 14  1  0
  9 15  1  0
  9 16  1  0
 17 18  2  0
 18 19  1  0
 18 20  1  0
 20 21  1  0
 20 22  2  0
 22 23  1  0
 23 24  2  0
 24 17  1  0
 22 25  1  0
 23 26  1  0
  2 17  1  0
M  ISO  8  10  14  11  14  12  13  13  13  14  13  15  13  16  13  19  15
M  ISO  1  21  16
M  END
>  <DihAtoms>  (1) 
0,1,16,17

>  <DihDeg>  (1) 
-4.124894634874738

$$$$
