
 OpenBabel03252501543D

 20 21  0  0  0  0  0  0  0  0999 V2000
   44.6420   35.3810   45.0840 C   0  0  0  0  0  0  0  0  0  0  0  0
   45.2770   35.4120   43.8300 C   0  0  0  0  0  0  0  0  0  0  0  0
   46.2600   34.4620   43.5940 C   0  0  0  0  0  0  0  0  0  0  0  0
   46.5470   33.5750   44.5660 N   0  0  0  0  0  0  0  0  0  0  0  0
   45.9250   33.5630   45.7610 C   0  0  0  0  0  0  0  0  0  0  0  0
   44.9570   34.4670   46.0450 N   0  0  0  0  0  0  0  0  0  0  0  0
   43.8580   36.0600   45.4050 H   0  0  0  0  0  0  0  0  0  0  0  0
   46.2610   32.7940   46.4390 H   0  0  0  0  0  0  0  0  0  0  0  0
   46.9010   34.5150   42.2960 C   0  0  0  0  0  0  0  0  0  0  0  0
   48.0490   35.2940   42.1360 C   0  0  0  0  0  0  0  0  0  0  0  0
   48.4500   35.8530   42.9870 H   0  0  0  0  0  0  0  0  0  0  0  0
   48.6820   35.3610   40.9020 C   0  0  0  0  0  0  0  0  0  0  0  0
   49.5810   35.9800   40.8050 H   0  0  0  0  0  0  0  0  0  0  0  0
   48.2060   34.6710   39.8150 C   0  0  0  0  0  0  0  0  0  0  0  0
   47.0660   33.9050   39.9990 C   0  0  0  0  0  0  0  0  0  0  0  0
   46.4920   33.8690   41.1930 N   0  0  0  0  0  0  0  0  0  0  0  0
   44.8220   36.4580   42.9090 C   0  0  0  0  0  0  0  0  0  0  0  0
   45.6230   36.6870   42.1880 H   0  0  0  0  0  0  0  0  0  0  0  0
   44.5160   37.3620   43.4740 H   0  0  0  0  0  0  0  0  0  0  0  0
   43.9310   36.0450   42.3490 H   0  0  0  0  0  0  0  0  0  0  0  0
  1  7  1  0  0  0  0
  1  6  1  0  0  0  0
  2  1  2  0  0  0  0
  3  2  1  0  0  0  0
  3  4  2  0  0  0  0
  4  5  1  0  0  0  0
  5  6  2  0  0  0  0
  5  8  1  0  0  0  0
  9  3  1  0  0  0  0
 10  9  1  0  0  0  0
 10 11  1  0  0  0  0
 12 10  2  0  0  0  0
 13 12  1  0  0  0  0
 14 15  2  0  0  0  0
 14 12  1  0  0  0  0
 15 16  1  0  0  0  0
 16  9  2  0  0  0  0
 17 19  1  0  0  0  0
 17  2  1  0  0  0  0
 18 17  1  0  0  0  0
 20 17  1  0  0  0  0
M  END
>  <minimizedAffinity>
-4.8192873

>  <minimizedRMSD>
2.21550655

$$$$
