
     RDKit          3D

 42 45  0  0  0  0  0  0  0  0999 V2000
   45.1257   33.9381   40.6984 C   0  0  0  0  0  0  0  0  0  0  0  0
   44.0841   33.6346   39.8726 C   0  0  0  0  0  0  0  0  0  0  0  0
   44.3780   33.1575   38.6259 C   0  0  0  0  0  0  0  0  0  0  0  0
   45.6558   32.9721   38.1724 C   0  0  0  0  0  0  0  0  0  0  0  0
   46.6933   33.2857   39.0250 C   0  0  0  0  0  0  0  0  0  0  0  0
   46.4462   33.7668   40.2835 C   0  0  0  0  0  0  0  0  0  0  0  0
   40.7968   35.2606   40.7921 C   0  0  0  0  0  0  0  0  0  0  0  0
   42.0926   35.0928   40.2734 C   0  0  0  0  0  0  0  0  0  0  0  0
   42.7483   33.8467   40.3944 C   0  0  0  0  0  0  0  0  0  0  0  0
   42.0388   32.8774   41.0290 N   0  0  0  0  0  0  0  0  0  0  0  0
   40.8060   33.0621   41.5142 C   0  0  0  0  0  0  0  0  0  0  0  0
   40.1929   34.2472   41.3944 N   0  0  0  0  0  0  0  0  0  0  0  0
   40.1928   36.5278   40.6412 N   0  0  0  0  0  0  0  0  0  0  0  0
   47.5983   34.0707   41.1130 C   0  0  0  0  0  0  0  0  0  0  0  0
   48.1383   35.3322   40.9416 C   0  0  0  0  0  0  0  0  0  0  0  0
   49.2462   35.7910   41.6557 C   0  0  0  0  0  0  0  0  0  0  0  0
   49.8246   34.9501   42.5693 C   0  0  0  0  0  0  0  0  0  0  0  0
   49.3030   33.6843   42.7585 C   0  0  0  0  0  0  0  0  0  0  0  0
   48.2004   33.2503   42.0365 C   0  0  0  0  0  0  0  0  0  0  0  0
   44.7243   34.8644   43.1094 N   0  0  0  0  0  0  0  0  0  0  0  0
   44.8985   34.4446   42.0244 C   0  0  0  0  0  0  0  0  0  0  0  0
   43.5469   32.9174   37.9720 H   0  0  0  0  0  0  0  0  0  0  0  0
   45.7973   32.5863   37.1619 H   0  0  0  0  0  0  0  0  0  0  0  0
   47.7074   33.1340   38.6532 H   0  0  0  0  0  0  0  0  0  0  0  0
   42.6072   35.9165   39.7733 H   0  0  0  0  0  0  0  0  0  0  0  0
   40.3156   32.2238   42.0084 H   0  0  0  0  0  0  0  0  0  0  0  0
   39.5286   36.7913   41.4070 H   0  0  0  0  0  0  0  0  0  0  0  0
   40.3478   37.1995   39.8578 H   0  0  0  0  0  0  0  0  0  0  0  0
   47.7291   36.0423   40.2378 H   0  0  0  0  0  0  0  0  0  0  0  0
   49.6413   36.7990   41.4879 H   0  0  0  0  0  0  0  0  0  0  0  0
   50.6857   35.2404   43.1574 H   0  0  0  0  0  0  0  0  0  0  0  0
   49.6812   32.9470   43.4498 H   0  0  0  0  0  0  0  0  0  0  0  0
   47.5964   31.9150   42.1903 C   0  0  0  0  0  0  0  0  0  0  0  0
   47.0635   31.5259   43.4216 C   0  0  0  0  0  0  0  0  0  0  0  0
   47.0936   32.2033   44.2619 H   0  0  0  0  0  0  0  0  0  0  0  0
   46.4929   30.2759   43.5834 C   0  0  0  0  0  0  0  0  0  0  0  0
   46.0789   29.9662   44.5298 H   0  0  0  0  0  0  0  0  0  0  0  0
   46.4524   29.3963   42.4968 C   0  0  0  0  0  0  0  0  0  0  0  0
   46.9936   29.8348   41.3069 C   0  0  0  0  0  0  0  0  0  0  0  0
   47.5539   31.0663   41.1538 N   0  0  0  0  0  0  0  0  0  0  0  0
   46.0083   28.4171   42.6143 H   0  0  0  0  0  0  0  0  0  0  0  0
   46.9496   29.1285   40.4725 H   0  0  0  0  0  0  0  0  0  0  0  0
  1 21  1  0
  2  9  1  0
  2  1  2  0
  3  2  1  0
  4  3  2  0
  4  5  1  0
  5  6  2  0
  6  1  1  0
  6 14  1  0
  7 12  2  0
  8  9  2  0
  8  7  1  0
  9 10  1  0
 10 11  2  0
 12 11  1  0
 13  7  1  0
 14 19  1  0
 15 14  2  0
 15 16  1  0
 16 17  2  0
 17 18  1  0
 19 18  2  0
 21 20  3  0
  3 22  1  0
  4 23  1  0
  5 24  1  0
  8 25  1  0
 11 26  1  0
 13 27  1  0
 13 28  1  0
 15 29  1  0
 16 30  1  0
 17 31  1  0
 18 32  1  0
 33 34  2  0
 34 35  1  0
 34 36  1  0
 36 37  1  0
 36 38  2  0
 38 39  1  0
 39 40  2  0
 40 33  1  0
 38 41  1  0
 39 42  1  0
 19 33  1  0
M  ISO  8  22  14  23  14  24  14  25  14  26  14  29  14  30  14  31  14
M  ISO  3  32  14  35  15  37  16
M  END
>  <DihAtoms>  (1) 
13,18,32,33

>  <DihDeg>  (1) 
-118.73590330154526

$$$$
