REMARK  Name = 
REMARK  4 active torsions:
REMARK  status: ('A' for Active; 'I' for Inactive)
REMARK    1  A    between atoms: C_1  and  C_21
REMARK    2  A    between atoms: C_2  and  C_9
REMARK    3  A    between atoms: C_6  and  C_14
REMARK    4  A    between atoms: C_19  and  C_33
REMARK                            x       y       z     vdW  Elec       q    Type
REMARK                         _______ _______ _______ _____ _____    ______ ____
ROOT
ATOM      1  C   UNL     1      45.126  33.938  40.698  0.00  0.00    +0.000 A 
ATOM      2  C   UNL     1      44.084  33.635  39.873  0.00  0.00    +0.000 A 
ATOM      3  C   UNL     1      44.378  33.157  38.626  0.00  0.00    +0.000 A 
ATOM      4  C   UNL     1      45.656  32.972  38.172  0.00  0.00    +0.000 A 
ATOM      5  C   UNL     1      46.693  33.286  39.025  0.00  0.00    +0.000 A 
ATOM      6  C   UNL     1      46.446  33.767  40.283  0.00  0.00    +0.000 A 
ATOM      7  H   UNL     1      43.547  32.917  37.972  0.00  0.00    +0.000 HD
ATOM      8  H   UNL     1      45.797  32.586  37.162  0.00  0.00    +0.000 HD
ATOM      9  H   UNL     1      47.707  33.134  38.653  0.00  0.00    +0.000 HD
ENDROOT
BRANCH   2  12
ATOM     10  C   UNL     1      40.797  35.261  40.792  0.00  0.00    +0.000 A 
ATOM     11  C   UNL     1      42.093  35.093  40.273  0.00  0.00    +0.000 A 
ATOM     12  C   UNL     1      42.748  33.847  40.394  0.00  0.00    +0.000 A 
ATOM     13  N   UNL     1      42.039  32.877  41.029  0.00  0.00    +0.000 NA
ATOM     14  C   UNL     1      40.806  33.062  41.514  0.00  0.00    +0.000 A 
ATOM     15  N   UNL     1      40.193  34.247  41.394  0.00  0.00    +0.000 NA
ATOM     16  N   UNL     1      40.193  36.528  40.641  0.00  0.00    +0.000 N 
ATOM     17  H   UNL     1      42.607  35.916  39.773  0.00  0.00    +0.000 HD
ATOM     18  H   UNL     1      40.316  32.224  42.008  0.00  0.00    +0.000 HD
ATOM     19  H   UNL     1      39.529  36.791  41.407  0.00  0.00    +0.000 HD
ATOM     20  H   UNL     1      40.348  37.200  39.858  0.00  0.00    +0.000 HD
ENDBRANCH   2  12
BRANCH   6  21
ATOM     21  C   UNL     1      47.598  34.071  41.113  0.00  0.00    +0.000 A 
ATOM     22  C   UNL     1      48.138  35.332  40.942  0.00  0.00    +0.000 A 
ATOM     23  C   UNL     1      49.246  35.791  41.656  0.00  0.00    +0.000 A 
ATOM     24  C   UNL     1      49.825  34.950  42.569  0.00  0.00    +0.000 A 
ATOM     25  C   UNL     1      49.303  33.684  42.758  0.00  0.00    +0.000 A 
ATOM     26  C   UNL     1      48.200  33.250  42.036  0.00  0.00    +0.000 A 
ATOM     27  H   UNL     1      47.729  36.042  40.238  0.00  0.00    +0.000 HD
ATOM     28  H   UNL     1      49.641  36.799  41.488  0.00  0.00    +0.000 HD
ATOM     29  H   UNL     1      50.686  35.240  43.157  0.00  0.00    +0.000 HD
ATOM     30  H   UNL     1      49.681  32.947  43.450  0.00  0.00    +0.000 HD
BRANCH  26  31
ATOM     31  C   UNL     1      47.596  31.915  42.190  0.00  0.00    +0.000 A 
ATOM     32  C   UNL     1      47.350  31.401  43.466  0.00  0.00    +0.000 A 
ATOM     33  H   UNL     1      47.602  31.982  44.340  0.00  0.00    +0.000 HD
ATOM     34  C   UNL     1      46.784  30.149  43.628  0.00  0.00    +0.000 A 
ATOM     35  H   UNL     1      46.590  29.744  44.609  0.00  0.00    +0.000 HD
ATOM     36  C   UNL     1      46.456  29.395  42.497  0.00  0.00    +0.000 A 
ATOM     37  C   UNL     1      46.722  29.953  41.265  0.00  0.00    +0.000 A 
ATOM     38  N   UNL     1      47.280  31.185  41.111  0.00  0.00    +0.000 NA
ENDBRANCH  26  31
ENDBRANCH   6  21
BRANCH   1  40
ATOM     39  N   UNL     1      44.724  34.864  43.109  0.00  0.00    +0.000 NA
ATOM     40  C   UNL     1      44.898  34.445  42.024  0.00  0.00    +0.000 C 
ENDBRANCH   1  40
TORSDOF 4
