
 OpenBabel03252509213D

 24 26  0  0  0  0  0  0  0  0999 V2000
   40.6820   30.3480   41.5530 C   0  0  0  0  0  0  0  0  0  0  0  0
   39.2940   30.5140   41.3970 C   0  0  0  0  0  0  0  0  0  0  0  0
   38.9050   31.7150   40.8490 C   0  0  0  0  0  0  0  0  0  0  0  0
   39.8630   32.6490   40.5010 N   0  0  0  0  0  0  0  0  0  0  0  0
   41.1790   32.4400   40.6720 C   0  0  0  0  0  0  0  0  0  0  0  0
   41.5720   31.2710   41.2040 N   0  0  0  0  0  0  0  0  0  0  0  0
   41.1830   29.4990   41.9560 H   0  0  0  0  0  0  0  0  0  0  0  0
   41.7150   33.3120   40.3240 H   0  0  0  0  0  0  0  0  0  0  0  0
   37.4520   31.9530   40.5170 C   0  0  0  0  0  0  0  0  0  0  0  0
   37.3130   33.1430   39.5550 C   0  0  0  0  0  0  0  0  0  0  0  0
   37.0030   31.6630   39.1740 C   0  0  0  0  0  0  0  0  0  0  0  0
   36.7440   32.1610   41.3420 H   0  0  0  0  0  0  0  0  0  0  0  0
   38.1910   33.5690   39.0770 H   0  0  0  0  0  0  0  0  0  0  0  0
   36.4230   33.7880   39.6310 H   0  0  0  0  0  0  0  0  0  0  0  0
   37.7100   31.2150   38.4430 H   0  0  0  0  0  0  0  0  0  0  0  0
   35.9390   31.4690   38.9040 H   0  0  0  0  0  0  0  0  0  0  0  0
   38.4070   29.4500   41.8190 C   0  0  0  0  0  0  0  0  0  0  0  0
   38.1440   29.2750   43.1560 C   0  0  0  0  0  0  0  0  0  0  0  0
   38.5360   29.8660   43.9710 H   0  0  0  0  0  0  0  0  0  0  0  0
   37.3240   28.2990   43.6800 C   0  0  0  0  0  0  0  0  0  0  0  0
   37.1030   28.1440   44.7270 H   0  0  0  0  0  0  0  0  0  0  0  0
   36.6970   27.4060   42.8350 C   0  0  0  0  0  3  0  0  0  0  0  0
   36.9640   27.5840   41.4980 C   0  0  0  0  0  3  0  0  0  0  0  0
   37.7650   28.5500   41.0780 N   0  0  0  0  0  0  0  0  0  0  0  0
  1  7  1  0  0  0  0
  2  1  1  0  0  0  0
  2 17  1  0  0  0  0
  3  2  2  0  0  0  0
  4  5  2  0  0  0  0
  4  3  1  0  0  0  0
  5  6  1  0  0  0  0
  6  1  2  0  0  0  0
  8  5  1  0  0  0  0
  9  3  1  0  0  0  0
  9 12  1  0  0  0  0
 10 14  1  0  0  0  0
 10  9  1  0  0  0  0
 11 10  1  0  0  0  0
 11  9  1  0  0  0  0
 13 10  1  0  0  0  0
 15 11  1  0  0  0  0
 16 11  1  0  0  0  0
 17 18  1  0  0  0  0
 18 20  2  0  0  0  0
 18 19  1  0  0  0  0
 20 21  1  0  0  0  0
 22 20  1  0  0  0  0
 23 22  2  0  0  0  0
 24 23  1  0  0  0  0
 24 17  2  0  0  0  0
M  END
>  <minimizedAffinity>
-4.44966936

$$$$

 OpenBabel03252509213D

 24 26  0  0  0  0  0  0  0  0999 V2000
   37.3240   33.1590   39.6230 C   0  0  0  0  0  0  0  0  0  0  0  0
   37.5650   31.8230   39.9920 C   0  0  0  0  0  0  0  0  0  0  0  0
   38.7230   31.6130   40.7050 C   0  0  0  0  0  0  0  0  0  0  0  0
   39.5460   32.6820   41.0030 N   0  0  0  0  0  0  0  0  0  0  0  0
   39.2680   33.9420   40.6270 C   0  0  0  0  0  0  0  0  0  0  0  0
   38.1400   34.1610   39.9310 N   0  0  0  0  0  0  0  0  0  0  0  0
   36.4910   33.5290   39.0720 H   0  0  0  0  0  0  0  0  0  0  0  0
   40.0580   34.5890   40.9790 H   0  0  0  0  0  0  0  0  0  0  0  0
   39.0220   30.2420   41.2630 C   0  0  0  0  0  0  0  0  0  0  0  0
   40.0120   30.3470   42.4320 C   0  0  0  0  0  0  0  0  0  0  0  0
   38.5210   29.9170   42.5790 C   0  0  0  0  0  0  0  0  0  0  0  0
   39.4470   29.4730   40.5890 H   0  0  0  0  0  0  0  0  0  0  0  0
   40.2580   31.3150   42.8590 H   0  0  0  0  0  0  0  0  0  0  0  0
   40.7370   29.5320   42.5920 H   0  0  0  0  0  0  0  0  0  0  0  0
   37.8790   30.6470   43.1180 H   0  0  0  0  0  0  0  0  0  0  0  0
   38.3740   28.8750   42.9480 H   0  0  0  0  0  0  0  0  0  0  0  0
   36.6160   30.8030   39.5980 C   0  0  0  0  0  0  0  0  0  0  0  0
   36.6140   30.3410   38.3040 C   0  0  0  0  0  0  0  0  0  0  0  0
   37.2680   30.6600   37.5070 H   0  0  0  0  0  0  0  0  0  0  0  0
   35.7600   29.3790   37.8100 C   0  0  0  0  0  0  0  0  0  0  0  0
   35.7400   29.0000   36.7960 H   0  0  0  0  0  0  0  0  0  0  0  0
   34.8180   28.8080   38.6400 C   0  0  0  0  0  3  0  0  0  0  0  0
   34.8230   29.2740   39.9340 C   0  0  0  0  0  3  0  0  0  0  0  0
   35.6800   30.2020   40.3280 N   0  0  0  0  0  0  0  0  0  0  0  0
  1  6  2  0  0  0  0
  1  2  1  0  0  0  0
  2  3  2  0  0  0  0
  3  4  1  0  0  0  0
  3  9  1  0  0  0  0
  5  8  1  0  0  0  0
  5  4  2  0  0  0  0
  6  5  1  0  0  0  0
  7  1  1  0  0  0  0
  9 10  1  0  0  0  0
  9 11  1  0  0  0  0
 10 11  1  0  0  0  0
 10 14  1  0  0  0  0
 10 13  1  0  0  0  0
 11 16  1  0  0  0  0
 11 15  1  0  0  0  0
 12  9  1  0  0  0  0
 17  2  1  0  0  0  0
 17 24  1  0  0  0  0
 18 17  2  0  0  0  0
 19 18  1  0  0  0  0
 20 18  1  0  0  0  0
 20 22  2  0  0  0  0
 21 20  1  0  0  0  0
 22 23  1  0  0  0  0
 23 24  2  0  0  0  0
M  END
>  <minimizedAffinity>
-4.40851164

$$$$

 OpenBabel03252509213D

 24 26  0  0  0  0  0  0  0  0999 V2000
   38.6860   31.7450   41.3160 C   0  0  0  0  0  0  0  0  0  0  0  0
   38.0350   30.5350   41.0150 C   0  0  0  0  0  0  0  0  0  0  0  0
   37.1430   30.5940   39.9680 C   0  0  0  0  0  0  0  0  0  0  0  0
   36.9480   31.7900   39.3040 N   0  0  0  0  0  0  0  0  0  0  0  0
   37.5970   32.9190   39.6320 C   0  0  0  0  0  0  0  0  0  0  0  0
   38.4710   32.8750   40.6520 N   0  0  0  0  0  0  0  0  0  0  0  0
   39.4050   31.9090   42.0840 H   0  0  0  0  0  0  0  0  0  0  0  0
   37.2730   33.7090   38.9690 H   0  0  0  0  0  0  0  0  0  0  0  0
   36.4810   29.3310   39.4740 C   0  0  0  0  0  0  0  0  0  0  0  0
   35.0190   29.2770   39.9400 C   0  0  0  0  0  0  0  0  0  0  0  0
   35.4620   29.4490   38.4560 C   0  0  0  0  0  0  0  0  0  0  0  0
   36.9150   28.3530   39.7620 H   0  0  0  0  0  0  0  0  0  0  0  0
   34.5520   30.1510   40.3870 H   0  0  0  0  0  0  0  0  0  0  0  0
   34.5680   28.2980   40.1690 H   0  0  0  0  0  0  0  0  0  0  0  0
   35.2370   30.4440   38.0160 H   0  0  0  0  0  0  0  0  0  0  0  0
   35.1580   28.6130   37.7830 H   0  0  0  0  0  0  0  0  0  0  0  0
   38.3330   29.3600   41.8070 C   0  0  0  0  0  0  0  0  0  0  0  0
   37.5080   29.0200   42.8530 C   0  0  0  0  0  0  0  0  0  0  0  0
   36.6200   29.5460   43.1690 H   0  0  0  0  0  0  0  0  0  0  0  0
   37.6890   27.9320   43.6800 C   0  0  0  0  0  0  0  0  0  0  0  0
   37.0530   27.6450   44.5070 H   0  0  0  0  0  0  0  0  0  0  0  0
   38.7650   27.0920   43.4810 C   0  0  0  0  0  3  0  0  0  0  0  0
   39.5880   27.4370   42.4340 C   0  0  0  0  0  3  0  0  0  0  0  0
   39.3420   28.5010   41.6870 N   0  0  0  0  0  0  0  0  0  0  0  0
  1  7  1  0  0  0  0
  2  1  1  0  0  0  0
  2 17  1  0  0  0  0
  3  2  2  0  0  0  0
  4  5  2  0  0  0  0
  4  3  1  0  0  0  0
  5  6  1  0  0  0  0
  6  1  2  0  0  0  0
  8  5  1  0  0  0  0
  9 12  1  0  0  0  0
  9 10  1  0  0  0  0
  9  3  1  0  0  0  0
 10 14  1  0  0  0  0
 10 13  1  0  0  0  0
 11  9  1  0  0  0  0
 11 10  1  0  0  0  0
 15 11  1  0  0  0  0
 16 11  1  0  0  0  0
 17 18  1  0  0  0  0
 18 19  1  0  0  0  0
 18 20  2  0  0  0  0
 20 21  1  0  0  0  0
 22 20  1  0  0  0  0
 23 22  2  0  0  0  0
 24 17  2  0  0  0  0
 24 23  1  0  0  0  0
M  END
>  <minimizedAffinity>
-4.37383223

$$$$

 OpenBabel03252509213D

 24 26  0  0  0  0  0  0  0  0999 V2000
   40.0130   28.5840   42.6660 C   0  0  0  0  0  0  0  0  0  0  0  0
   38.7690   28.1460   42.1780 C   0  0  0  0  0  0  0  0  0  0  0  0
   38.4400   26.8470   42.4910 C   0  0  0  0  0  0  0  0  0  0  0  0
   39.3170   26.0810   43.2360 N   0  0  0  0  0  0  0  0  0  0  0  0
   40.4960   26.5490   43.6800 C   0  0  0  0  0  0  0  0  0  0  0  0
   40.8280   27.8160   43.3810 N   0  0  0  0  0  0  0  0  0  0  0  0
   40.4490   29.5460   42.5330 H   0  0  0  0  0  0  0  0  0  0  0  0
   40.9920   25.7640   44.2330 H   0  0  0  0  0  0  0  0  0  0  0  0
   37.0770   26.3100   42.1300 C   0  0  0  0  0  0  0  0  0  0  0  0
   37.1400   25.5480   40.7970 C   0  0  0  0  0  0  0  0  0  0  0  0
   36.8730   24.8790   42.1800 C   0  0  0  0  0  0  0  0  0  0  0  0
   36.2350   27.0200   42.0200 H   0  0  0  0  0  0  0  0  0  0  0  0
   38.0990   25.3080   40.3460 H   0  0  0  0  0  0  0  0  0  0  0  0
   36.2650   25.5720   40.1280 H   0  0  0  0  0  0  0  0  0  0  0  0
   37.6910   24.2200   42.5420 H   0  0  0  0  0  0  0  0  0  0  0  0
   35.8710   24.3980   42.2750 H   0  0  0  0  0  0  0  0  0  0  0  0
   37.9580   29.0590   41.3990 C   0  0  0  0  0  0  0  0  0  0  0  0
   38.1660   29.1640   40.0440 C   0  0  0  0  0  0  0  0  0  0  0  0
   38.8920   28.6190   39.4610 H   0  0  0  0  0  0  0  0  0  0  0  0
   37.4640   29.9980   39.2000 C   0  0  0  0  0  0  0  0  0  0  0  0
   37.6100   30.0970   38.1330 H   0  0  0  0  0  0  0  0  0  0  0  0
   36.4700   30.8080   39.7090 C   0  0  0  0  0  3  0  0  0  0  0  0
   36.2670   30.7000   41.0650 C   0  0  0  0  0  3  0  0  0  0  0  0
   36.9860   29.8720   41.8050 N   0  0  0  0  0  0  0  0  0  0  0  0
  1  6  1  0  0  0  0
  2  3  1  0  0  0  0
  2  1  2  0  0  0  0
  3  4  2  0  0  0  0
  4  5  1  0  0  0  0
  5  8  1  0  0  0  0
  6  5  2  0  0  0  0
  7  1  1  0  0  0  0
  9 11  1  0  0  0  0
  9  3  1  0  0  0  0
 10  9  1  0  0  0  0
 10 11  1  0  0  0  0
 11 16  1  0  0  0  0
 11 15  1  0  0  0  0
 12  9  1  0  0  0  0
 13 10  1  0  0  0  0
 14 10  1  0  0  0  0
 17 24  1  0  0  0  0
 17  2  1  0  0  0  0
 18 17  2  0  0  0  0
 19 18  1  0  0  0  0
 20 22  2  0  0  0  0
 20 18  1  0  0  0  0
 21 20  1  0  0  0  0
 22 23  1  0  0  0  0
 23 24  2  0  0  0  0
M  END
>  <minimizedAffinity>
-4.3006258

$$$$

 OpenBabel03252509213D

 24 26  0  0  0  0  0  0  0  0999 V2000
   37.2660   28.3080   38.6030 C   0  0  0  0  0  0  0  0  0  0  0  0
   37.3310   29.2470   39.6480 C   0  0  0  0  0  0  0  0  0  0  0  0
   37.2070   30.5620   39.2630 C   0  0  0  0  0  0  0  0  0  0  0  0
   37.0350   30.8690   37.9260 N   0  0  0  0  0  0  0  0  0  0  0  0
   36.9790   29.9310   36.9660 C   0  0  0  0  0  0  0  0  0  0  0  0
   37.0970   28.6430   37.3290 N   0  0  0  0  0  0  0  0  0  0  0  0
   37.3410   27.2490   38.6900 H   0  0  0  0  0  0  0  0  0  0  0  0
   36.8390   30.4210   36.0130 H   0  0  0  0  0  0  0  0  0  0  0  0
   37.1350   31.6470   40.3090 C   0  0  0  0  0  0  0  0  0  0  0  0
   38.5230   32.2650   40.5340 C   0  0  0  0  0  0  0  0  0  0  0  0
   37.3220   33.0170   39.8850 C   0  0  0  0  0  0  0  0  0  0  0  0
   36.7630   31.3900   41.3200 H   0  0  0  0  0  0  0  0  0  0  0  0
   39.3440   32.0350   39.8580 H   0  0  0  0  0  0  0  0  0  0  0  0
   38.7910   32.6220   41.5410 H   0  0  0  0  0  0  0  0  0  0  0  0
   37.4460   33.2450   38.8050 H   0  0  0  0  0  0  0  0  0  0  0  0
   36.9630   33.9000   40.4630 H   0  0  0  0  0  0  0  0  0  0  0  0
   37.5270   28.7780   41.0040 C   0  0  0  0  0  0  0  0  0  0  0  0
   36.4850   28.1820   41.6740 C   0  0  0  0  0  0  0  0  0  0  0  0
   35.4900   28.0100   41.2910 H   0  0  0  0  0  0  0  0  0  0  0  0
   36.5460   27.7010   42.9640 C   0  0  0  0  0  0  0  0  0  0  0  0
   35.7400   27.2290   43.5100 H   0  0  0  0  0  0  0  0  0  0  0  0
   37.7230   27.8040   43.6780 C   0  0  0  0  0  3  0  0  0  0  0  0
   38.7620   28.4020   43.0040 C   0  0  0  0  0  3  0  0  0  0  0  0
   38.6190   28.8360   41.7630 N   0  0  0  0  0  0  0  0  0  0  0  0
  1  7  1  0  0  0  0
  1  2  1  0  0  0  0
  2 17  1  0  0  0  0
  3  2  2  0  0  0  0
  3  9  1  0  0  0  0
  4  3  1  0  0  0  0
  5  6  1  0  0  0  0
  5  4  2  0  0  0  0
  6  1  2  0  0  0  0
  8  5  1  0  0  0  0
  9 10  1  0  0  0  0
  9 12  1  0  0  0  0
 10 14  1  0  0  0  0
 11  9  1  0  0  0  0
 11 16  1  0  0  0  0
 11 10  1  0  0  0  0
 13 10  1  0  0  0  0
 15 11  1  0  0  0  0
 17 18  2  0  0  0  0
 17 24  1  0  0  0  0
 18 20  1  0  0  0  0
 19 18  1  0  0  0  0
 20 21  1  0  0  0  0
 20 22  2  0  0  0  0
 23 22  1  0  0  0  0
 24 23  2  0  0  0  0
M  END
>  <minimizedAffinity>
-4.26522255

$$$$

 OpenBabel03252509213D

 24 26  0  0  0  0  0  0  0  0999 V2000
   36.6580   26.3220   39.9300 C   0  0  0  0  0  0  0  0  0  0  0  0
   37.2270   27.1940   40.8750 C   0  0  0  0  0  0  0  0  0  0  0  0
   37.7080   26.5910   42.0150 C   0  0  0  0  0  0  0  0  0  0  0  0
   37.6040   25.2200   42.1580 N   0  0  0  0  0  0  0  0  0  0  0  0
   37.0500   24.4310   41.2220 C   0  0  0  0  0  0  0  0  0  0  0  0
   36.5780   25.0070   40.1040 N   0  0  0  0  0  0  0  0  0  0  0  0
   36.2310   26.5880   38.9910 H   0  0  0  0  0  0  0  0  0  0  0  0
   37.0890   23.4070   41.5670 H   0  0  0  0  0  0  0  0  0  0  0  0
   38.4530   27.4100   43.0410 C   0  0  0  0  0  0  0  0  0  0  0  0
   39.5720   26.5740   43.6800 C   0  0  0  0  0  0  0  0  0  0  0  0
   39.8140   27.7980   42.7450 C   0  0  0  0  0  0  0  0  0  0  0  0
   37.8900   27.8410   43.8910 H   0  0  0  0  0  0  0  0  0  0  0  0
   39.8470   25.6100   43.2590 H   0  0  0  0  0  0  0  0  0  0  0  0
   39.8330   26.7510   44.7360 H   0  0  0  0  0  0  0  0  0  0  0  0
   40.2540   27.5460   41.7560 H   0  0  0  0  0  0  0  0  0  0  0  0
   40.3340   28.6550   43.2320 H   0  0  0  0  0  0  0  0  0  0  0  0
   37.2560   28.6140   40.5930 C   0  0  0  0  0  0  0  0  0  0  0  0
   36.2570   29.4230   41.0800 C   0  0  0  0  0  0  0  0  0  0  0  0
   35.4140   29.1130   41.6790 H   0  0  0  0  0  0  0  0  0  0  0  0
   36.1720   30.7830   40.8760 C   0  0  0  0  0  0  0  0  0  0  0  0
   35.3970   31.4390   41.2490 H   0  0  0  0  0  0  0  0  0  0  0  0
   37.1410   31.4260   40.1330 C   0  0  0  0  0  3  0  0  0  0  0  0
   38.1380   30.6120   39.6470 C   0  0  0  0  0  3  0  0  0  0  0  0
   38.1450   29.3120   39.8900 N   0  0  0  0  0  0  0  0  0  0  0  0
  1  6  2  0  0  0  0
  1  2  1  0  0  0  0
  2  3  2  0  0  0  0
  3  4  1  0  0  0  0
  3  9  1  0  0  0  0
  5  8  1  0  0  0  0
  5  4  2  0  0  0  0
  6  5  1  0  0  0  0
  7  1  1  0  0  0  0
  9 10  1  0  0  0  0
  9 12  1  0  0  0  0
 10 14  1  0  0  0  0
 11  9  1  0  0  0  0
 11 16  1  0  0  0  0
 11 10  1  0  0  0  0
 13 10  1  0  0  0  0
 15 11  1  0  0  0  0
 17  2  1  0  0  0  0
 17 18  1  0  0  0  0
 18 19  1  0  0  0  0
 20 18  2  0  0  0  0
 20 21  1  0  0  0  0
 22 20  1  0  0  0  0
 23 24  1  0  0  0  0
 23 22  2  0  0  0  0
 24 17  2  0  0  0  0
M  END
>  <minimizedAffinity>
-4.23124361

$$$$

 OpenBabel03252509213D

 24 26  0  0  0  0  0  0  0  0999 V2000
   36.0520   27.3240   38.9540 C   0  0  0  0  0  0  0  0  0  0  0  0
   36.7200   26.8790   40.1090 C   0  0  0  0  0  0  0  0  0  0  0  0
   36.6650   27.7360   41.1840 C   0  0  0  0  0  0  0  0  0  0  0  0
   35.9860   28.9340   41.0690 N   0  0  0  0  0  0  0  0  0  0  0  0
   35.3630   29.3120   39.9400 C   0  0  0  0  0  0  0  0  0  0  0  0
   35.4080   28.4840   38.8840 N   0  0  0  0  0  0  0  0  0  0  0  0
   35.9780   26.8130   38.0220 H   0  0  0  0  0  0  0  0  0  0  0  0
   34.9100   30.2790   40.1040 H   0  0  0  0  0  0  0  0  0  0  0  0
   37.2370   27.3090   42.5150 C   0  0  0  0  0  0  0  0  0  0  0  0
   37.4190   28.5270   43.4330 C   0  0  0  0  0  0  0  0  0  0  0  0
   36.3840   27.3870   43.6800 C   0  0  0  0  0  0  0  0  0  0  0  0
   38.2100   26.7820   42.5320 H   0  0  0  0  0  0  0  0  0  0  0  0
   36.9910   29.4890   43.1620 H   0  0  0  0  0  0  0  0  0  0  0  0
   38.2610   28.5370   44.1440 H   0  0  0  0  0  0  0  0  0  0  0  0
   35.3220   27.6920   43.5630 H   0  0  0  0  0  0  0  0  0  0  0  0
   36.5550   26.8020   44.6140 H   0  0  0  0  0  0  0  0  0  0  0  0
   37.4010   25.6010   40.0790 C   0  0  0  0  0  0  0  0  0  0  0  0
   36.7070   24.4560   40.3890 C   0  0  0  0  0  0  0  0  0  0  0  0
   35.6650   24.3890   40.6610 H   0  0  0  0  0  0  0  0  0  0  0  0
   37.2440   23.1860   40.4010 C   0  0  0  0  0  0  0  0  0  0  0  0
   36.7180   22.2710   40.6400 H   0  0  0  0  0  0  0  0  0  0  0  0
   38.5750   23.0020   40.0850 C   0  0  0  0  0  3  0  0  0  0  0  0
   39.2640   24.1520   39.7770 C   0  0  0  0  0  3  0  0  0  0  0  0
   38.6720   25.3350   39.7890 N   0  0  0  0  0  0  0  0  0  0  0  0
  1  2  1  0  0  0  0
  2  3  2  0  0  0  0
  3  9  1  0  0  0  0
  4  3  1  0  0  0  0
  5  8  1  0  0  0  0
  5  4  2  0  0  0  0
  6  1  2  0  0  0  0
  6  5  1  0  0  0  0
  7  1  1  0  0  0  0
  9 12  1  0  0  0  0
  9 10  1  0  0  0  0
  9 11  1  0  0  0  0
 10 11  1  0  0  0  0
 10 14  1  0  0  0  0
 11 16  1  0  0  0  0
 13 10  1  0  0  0  0
 15 11  1  0  0  0  0
 17  2  1  0  0  0  0
 17 18  1  0  0  0  0
 18 20  2  0  0  0  0
 18 19  1  0  0  0  0
 20 21  1  0  0  0  0
 22 20  1  0  0  0  0
 23 24  1  0  0  0  0
 23 22  2  0  0  0  0
 24 17  2  0  0  0  0
M  END
>  <minimizedAffinity>
-4.22027349

$$$$

 OpenBabel03252509213D

 24 26  0  0  0  0  0  0  0  0999 V2000
   37.3780   28.6750   38.8420 C   0  0  0  0  0  0  0  0  0  0  0  0
   37.4730   29.3630   40.0650 C   0  0  0  0  0  0  0  0  0  0  0  0
   37.1480   28.6250   41.1800 C   0  0  0  0  0  0  0  0  0  0  0  0
   36.7620   27.3050   41.0370 N   0  0  0  0  0  0  0  0  0  0  0  0
   36.6890   26.6940   39.8430 C   0  0  0  0  0  0  0  0  0  0  0  0
   37.0040   27.4040   38.7470 N   0  0  0  0  0  0  0  0  0  0  0  0
   37.5830   29.0640   37.8720 H   0  0  0  0  0  0  0  0  0  0  0  0
   36.3670   25.6740   39.9970 H   0  0  0  0  0  0  0  0  0  0  0  0
   37.3350   29.2190   42.5550 C   0  0  0  0  0  0  0  0  0  0  0  0
   37.2590   28.1210   43.6260 C   0  0  0  0  0  0  0  0  0  0  0  0
   38.5530   28.9130   43.2700 C   0  0  0  0  0  0  0  0  0  0  0  0
   36.6350   30.0070   42.8950 H   0  0  0  0  0  0  0  0  0  0  0  0
   37.2660   27.0720   43.3400 H   0  0  0  0  0  0  0  0  0  0  0  0
   36.8330   28.3670   44.6120 H   0  0  0  0  0  0  0  0  0  0  0  0
   39.3450   28.3100   42.7750 H   0  0  0  0  0  0  0  0  0  0  0  0
   38.9580   29.5360   44.1020 H   0  0  0  0  0  0  0  0  0  0  0  0
   37.8820   30.7530   40.0600 C   0  0  0  0  0  0  0  0  0  0  0  0
   36.9690   31.7270   39.7320 C   0  0  0  0  0  0  0  0  0  0  0  0
   35.9340   31.5750   39.4680 H   0  0  0  0  0  0  0  0  0  0  0  0
   37.2380   33.0780   39.6880 C   0  0  0  0  0  0  0  0  0  0  0  0
   36.5370   33.8610   39.4330 H   0  0  0  0  0  0  0  0  0  0  0  0
   38.5050   33.5340   39.9870 C   0  0  0  0  0  3  0  0  0  0  0  0
   39.4150   32.5550   40.3130 C   0  0  0  0  0  3  0  0  0  0  0  0
   39.0730   31.2770   40.3320 N   0  0  0  0  0  0  0  0  0  0  0  0
  1  2  1  0  0  0  0
  2  3  2  0  0  0  0
  3  9  1  0  0  0  0
  4  3  1  0  0  0  0
  5  8  1  0  0  0  0
  5  4  2  0  0  0  0
  6  1  2  0  0  0  0
  6  5  1  0  0  0  0
  7  1  1  0  0  0  0
  9 12  1  0  0  0  0
  9 11  1  0  0  0  0
  9 10  1  0  0  0  0
 10 14  1  0  0  0  0
 11 10  1  0  0  0  0
 11 16  1  0  0  0  0
 13 10  1  0  0  0  0
 15 11  1  0  0  0  0
 17  2  1  0  0  0  0
 17 24  1  0  0  0  0
 18 17  2  0  0  0  0
 19 18  1  0  0  0  0
 20 18  1  0  0  0  0
 20 22  2  0  0  0  0
 21 20  1  0  0  0  0
 22 23  1  0  0  0  0
 23 24  2  0  0  0  0
M  END
>  <minimizedAffinity>
-4.19689417

$$$$

 OpenBabel03252509213D

 24 26  0  0  0  0  0  0  0  0999 V2000
   37.1930   31.8080   40.6530 C   0  0  0  0  0  0  0  0  0  0  0  0
   38.1750   30.9310   41.1460 C   0  0  0  0  0  0  0  0  0  0  0  0
   39.4760   31.3220   40.9230 C   0  0  0  0  0  0  0  0  0  0  0  0
   39.7280   32.5050   40.2530 N   0  0  0  0  0  0  0  0  0  0  0  0
   38.7500   33.3090   39.8030 C   0  0  0  0  0  0  0  0  0  0  0  0
   37.4760   32.9380   40.0160 N   0  0  0  0  0  0  0  0  0  0  0  0
   36.1360   31.6880   40.7220 H   0  0  0  0  0  0  0  0  0  0  0  0
   39.2010   34.1630   39.3190 H   0  0  0  0  0  0  0  0  0  0  0  0
   40.6120   30.5260   41.5160 C   0  0  0  0  0  0  0  0  0  0  0  0
   41.9360   31.2890   41.3620 C   0  0  0  0  0  0  0  0  0  0  0  0
   41.2310   31.0180   42.7260 C   0  0  0  0  0  0  0  0  0  0  0  0
   40.8140   29.5100   41.1240 H   0  0  0  0  0  0  0  0  0  0  0  0
   41.9380   32.3270   41.0410 H   0  0  0  0  0  0  0  0  0  0  0  0
   42.8660   30.7180   41.2110 H   0  0  0  0  0  0  0  0  0  0  0  0
   40.8210   31.9240   43.2240 H   0  0  0  0  0  0  0  0  0  0  0  0
   41.8150   30.3790   43.4290 H   0  0  0  0  0  0  0  0  0  0  0  0
   37.7610   29.7170   41.8200 C   0  0  0  0  0  0  0  0  0  0  0  0
   37.0950   28.7440   41.1140 C   0  0  0  0  0  0  0  0  0  0  0  0
   36.8330   28.7730   40.0670 H   0  0  0  0  0  0  0  0  0  0  0  0
   36.6470   27.5520   41.6430 C   0  0  0  0  0  0  0  0  0  0  0  0
   36.1220   26.7720   41.1080 H   0  0  0  0  0  0  0  0  0  0  0  0
   36.8610   27.2720   42.9770 C   0  0  0  0  0  3  0  0  0  0  0  0
   37.5270   28.2500   43.6780 C   0  0  0  0  0  3  0  0  0  0  0  0
   37.9230   29.3680   43.0930 N   0  0  0  0  0  0  0  0  0  0  0  0
  1  7  1  0  0  0  0
  1  2  1  0  0  0  0
  2 17  1  0  0  0  0
  3  2  2  0  0  0  0
  3  9  1  0  0  0  0
  4  3  1  0  0  0  0
  5  6  1  0  0  0  0
  5  4  2  0  0  0  0
  6  1  2  0  0  0  0
  8  5  1  0  0  0  0
  9 11  1  0  0  0  0
 10  9  1  0  0  0  0
 10 11  1  0  0  0  0
 11 15  1  0  0  0  0
 11 16  1  0  0  0  0
 12  9  1  0  0  0  0
 13 10  1  0  0  0  0
 14 10  1  0  0  0  0
 17 24  1  0  0  0  0
 18 20  1  0  0  0  0
 18 17  2  0  0  0  0
 19 18  1  0  0  0  0
 20 22  2  0  0  0  0
 21 20  1  0  0  0  0
 22 23  1  0  0  0  0
 24 23  2  0  0  0  0
M  END
>  <minimizedAffinity>
-4.17581224

$$$$
