
 OpenBabel03242510303D

 33 35  0  0  1  0  0  0  0  0999 V2000
   38.0530   29.0400   41.3570 C   0  0  1  0  0  0  0  0  0  0  0  0
   37.4380   29.3690   42.6820 C   0  0  0  0  0  0  0  0  0  0  0  0
   37.7690   28.1660   43.5790 C   0  0  0  0  0  0  0  0  0  0  0  0
   36.9260   27.0160   43.0640 C   0  0  0  0  0  0  0  0  0  0  0  0
   37.1240   26.7250   41.6160 C   0  0  0  0  0  0  0  0  0  0  0  0
   37.4040   27.8550   40.7140 C   0  0  1  0  0  0  0  0  0  0  0  0
   39.1010   28.7260   41.5860 H   0  0  0  0  0  0  0  0  0  0  0  0
   36.3410   29.5050   42.6630 H   0  0  0  0  0  0  0  0  0  0  0  0
   37.9050   30.2870   43.0960 H   0  0  0  0  0  0  0  0  0  0  0  0
   38.8610   27.9560   43.4820 H   0  0  0  0  0  0  0  0  0  0  0  0
   37.4410   28.3770   44.6060 H   0  0  0  0  0  0  0  0  0  0  0  0
   37.2240   26.1410   43.6820 H   0  0  0  0  0  0  0  0  0  0  0  0
   35.8730   27.2430   43.3280 H   0  0  0  0  0  0  0  0  0  0  0  0
   36.1710   26.2360   41.2720 H   0  0  0  0  0  0  0  0  0  0  0  0
   37.8820   25.9050   41.5390 H   0  0  0  0  0  0  0  0  0  0  0  0
   38.1760   27.5140   39.9570 H   0  0  0  0  0  0  0  0  0  0  0  0
   37.4730   32.4300   39.7910 C   0  0  0  0  0  0  0  0  0  0  0  0
   37.4300   31.3430   40.6590 C   0  0  0  0  0  0  0  0  0  0  0  0
   38.1250   30.1750   40.4290 C   0  0  0  0  0  0  0  0  0  0  0  0
   38.8670   30.1290   39.2960 N   0  0  0  0  0  0  0  0  0  0  0  0
   38.9180   31.1800   38.4440 C   0  0  0  0  0  0  0  0  0  0  0  0
   38.2420   32.3070   38.6720 N   0  0  0  0  0  0  0  0  0  0  0  0
   36.9600   33.3590   39.9110 H   0  0  0  0  0  0  0  0  0  0  0  0
   36.8160   31.5500   41.5040 H   0  0  0  0  0  0  0  0  0  0  0  0
   39.5260   31.0860   37.5580 H   0  0  0  0  0  0  0  0  0  0  0  0
   36.2250   28.2630   39.9100 C   0  0  0  0  0  0  0  0  0  0  0  0
   35.0620   28.8960   40.3620 C   0  0  0  0  0  0  0  0  0  0  0  0
   35.0440   29.0700   41.4280 H   0  0  0  0  0  0  0  0  0  0  0  0
   34.1180   29.2010   39.3750 C   0  0  0  0  0  0  0  0  0  0  0  0
   33.2450   29.6850   39.7710 H   0  0  0  0  0  0  0  0  0  0  0  0
   34.3900   28.8670   38.0670 C   0  0  0  0  0  3  0  0  0  0  0  0
   35.5310   28.2500   37.6530 C   0  0  0  0  0  3  0  0  0  0  0  0
   36.4490   27.9510   38.5950 N   0  0  0  0  0  0  0  0  0  0  0  0
  1  7  1  1  0  0  0
  1  2  1  0  0  0  0
  2  9  1  0  0  0  0
  2  3  1  0  0  0  0
  3 11  1  0  0  0  0
  4 13  1  0  0  0  0
  4  3  1  0  0  0  0
  4 12  1  0  0  0  0
  5  4  1  0  0  0  0
  6 16  1  6  0  0  0
  6  1  1  0  0  0  0
  6  5  1  0  0  0  0
  8  2  1  0  0  0  0
 10  3  1  0  0  0  0
 14  5  1  0  0  0  0
 15  5  1  0  0  0  0
 17 23  1  0  0  0  0
 17 18  1  0  0  0  0
 18 24  1  0  0  0  0
 19 18  2  0  0  0  0
 19  1  1  0  0  0  0
 20 19  1  0  0  0  0
 21 22  1  0  0  0  0
 21 20  2  0  0  0  0
 22 17  2  0  0  0  0
 25 21  1  0  0  0  0
 26 27  1  0  0  0  0
 26  6  1  0  0  0  0
 27 28  1  0  0  0  0
 29 30  1  0  0  0  0
 29 27  2  0  0  0  0
 31 29  1  0  0  0  0
 32 31  2  0  0  0  0
 32 33  1  0  0  0  0
 33 26  2  0  0  0  0
M  END
>  <minimizedAffinity>
-5.02239561

$$$$

 OpenBabel03242510303D

 33 35  0  0  1  0  0  0  0  0999 V2000
   36.7560   30.3190   39.3560 C   0  0  1  0  0  0  0  0  0  0  0  0
   36.8160   29.4550   38.1350 C   0  0  0  0  0  0  0  0  0  0  0  0
   35.3870   29.4740   37.5700 C   0  0  0  0  0  0  0  0  0  0  0  0
   34.5430   28.6730   38.5410 C   0  0  0  0  0  0  0  0  0  0  0  0
   34.6100   29.1630   39.9460 C   0  0  0  0  0  0  0  0  0  0  0  0
   35.8840   29.7320   40.4200 C   0  0  1  0  0  0  0  0  0  0  0  0
   36.2480   31.2590   39.0300 H   0  0  0  0  0  0  0  0  0  0  0  0
   37.1070   28.4050   38.3240 H   0  0  0  0  0  0  0  0  0  0  0  0
   37.5190   29.8930   37.3970 H   0  0  0  0  0  0  0  0  0  0  0  0
   35.0560   30.5380   37.5120 H   0  0  0  0  0  0  0  0  0  0  0  0
   35.3690   28.9440   36.6070 H   0  0  0  0  0  0  0  0  0  0  0  0
   33.5040   28.7500   38.1500 H   0  0  0  0  0  0  0  0  0  0  0  0
   34.8410   27.6110   38.4290 H   0  0  0  0  0  0  0  0  0  0  0  0
   34.3690   28.2720   40.5890 H   0  0  0  0  0  0  0  0  0  0  0  0
   33.7390   29.8460   40.1060 H   0  0  0  0  0  0  0  0  0  0  0  0
   35.6440   30.6210   41.0810 H   0  0  0  0  0  0  0  0  0  0  0  0
   40.4560   30.2760   40.1250 C   0  0  0  0  0  0  0  0  0  0  0  0
   39.2000   29.9510   39.6210 C   0  0  0  0  0  0  0  0  0  0  0  0
   38.0710   30.6920   39.8940 C   0  0  0  0  0  0  0  0  0  0  0  0
   38.2390   31.7750   40.6900 N   0  0  0  0  0  0  0  0  0  0  0  0
   39.4550   32.1030   41.1870 C   0  0  0  0  0  0  0  0  0  0  0  0
   40.5440   31.3800   40.9200 N   0  0  0  0  0  0  0  0  0  0  0  0
   41.3670   29.7460   39.9530 H   0  0  0  0  0  0  0  0  0  0  0  0
   39.2470   29.0850   39.0030 H   0  0  0  0  0  0  0  0  0  0  0  0
   39.5280   32.9760   41.8160 H   0  0  0  0  0  0  0  0  0  0  0  0
   36.6500   28.8010   41.2850 C   0  0  0  0  0  0  0  0  0  0  0  0
   36.9980   27.4730   41.0120 C   0  0  0  0  0  0  0  0  0  0  0  0
   36.6290   27.1110   40.0640 H   0  0  0  0  0  0  0  0  0  0  0  0
   37.7610   26.8330   41.9950 C   0  0  0  0  0  0  0  0  0  0  0  0
   38.0020   25.8190   41.7400 H   0  0  0  0  0  0  0  0  0  0  0  0
   38.1040   27.5330   43.1310 C   0  0  0  0  0  3  0  0  0  0  0  0
   37.7520   28.8260   43.3730 C   0  0  0  0  0  3  0  0  0  0  0  0
   37.0170   29.4530   42.4320 N   0  0  0  0  0  0  0  0  0  0  0  0
  1  7  1  6  0  0  0
  1 19  1  0  0  0  0
  1  6  1  0  0  0  0
  2  8  1  0  0  0  0
  2  1  1  0  0  0  0
  3  2  1  0  0  0  0
  3  4  1  0  0  0  0
  4  5  1  0  0  0  0
  5 15  1  0  0  0  0
  5  6  1  0  0  0  0
  5 14  1  0  0  0  0
  6 16  1  1  0  0  0
  6 26  1  0  0  0  0
  9  2  1  0  0  0  0
 10  3  1  0  0  0  0
 11  3  1  0  0  0  0
 12  4  1  0  0  0  0
 13  4  1  0  0  0  0
 17 22  1  0  0  0  0
 18 19  1  0  0  0  0
 18 17  2  0  0  0  0
 19 20  2  0  0  0  0
 20 21  1  0  0  0  0
 21 25  1  0  0  0  0
 22 21  2  0  0  0  0
 23 17  1  0  0  0  0
 24 18  1  0  0  0  0
 26 33  1  0  0  0  0
 27 26  2  0  0  0  0
 27 29  1  0  0  0  0
 28 27  1  0  0  0  0
 29 31  2  0  0  0  0
 30 29  1  0  0  0  0
 31 32  1  0  0  0  0
 33 32  2  0  0  0  0
M  END
>  <minimizedAffinity>
-4.99948645

$$$$

 OpenBabel03242510303D

 33 35  0  0  1  0  0  0  0  0999 V2000
   36.5860   30.6030   39.2270 C   0  0  1  0  0  0  0  0  0  0  0  0
   36.7330   29.7970   37.9750 C   0  0  0  0  0  0  0  0  0  0  0  0
   35.2930   29.5140   37.5180 C   0  0  0  0  0  0  0  0  0  0  0  0
   34.7230   28.5290   38.5180 C   0  0  0  0  0  0  0  0  0  0  0  0
   34.7960   28.9940   39.9320 C   0  0  0  0  0  0  0  0  0  0  0  0
   35.9500   29.8180   40.3310 C   0  0  1  0  0  0  0  0  0  0  0  0
   35.8610   31.4150   38.9740 H   0  0  0  0  0  0  0  0  0  0  0  0
   37.2590   28.8330   38.1020 H   0  0  0  0  0  0  0  0  0  0  0  0
   37.2630   30.3930   37.2030 H   0  0  0  0  0  0  0  0  0  0  0  0
   34.7360   30.4810   37.5240 H   0  0  0  0  0  0  0  0  0  0  0  0
   35.3130   29.0120   36.5400 H   0  0  0  0  0  0  0  0  0  0  0  0
   33.6640   28.3840   38.2090 H   0  0  0  0  0  0  0  0  0  0  0  0
   35.2340   27.5600   38.3460 H   0  0  0  0  0  0  0  0  0  0  0  0
   34.8060   28.0590   40.5580 H   0  0  0  0  0  0  0  0  0  0  0  0
   33.8130   29.4670   40.1810 H   0  0  0  0  0  0  0  0  0  0  0  0
   35.5770   30.6200   41.0400 H   0  0  0  0  0  0  0  0  0  0  0  0
   38.9730   33.0220   40.8810 C   0  0  0  0  0  0  0  0  0  0  0  0
   37.8120   32.3880   40.4470 C   0  0  0  0  0  0  0  0  0  0  0  0
   37.8270   31.2440   39.6790 C   0  0  0  0  0  0  0  0  0  0  0  0
   39.0480   30.7510   39.3580 N   0  0  0  0  0  0  0  0  0  0  0  0
   40.1850   31.3570   39.7730 C   0  0  0  0  0  0  0  0  0  0  0  0
   40.1630   32.4650   40.5160 N   0  0  0  0  0  0  0  0  0  0  0  0
   39.0300   33.9070   41.4760 H   0  0  0  0  0  0  0  0  0  0  0  0
   36.9430   32.8940   40.8010 H   0  0  0  0  0  0  0  0  0  0  0  0
   41.1280   30.9190   39.4860 H   0  0  0  0  0  0  0  0  0  0  0  0
   36.9670   29.0610   41.1020 C   0  0  0  0  0  0  0  0  0  0  0  0
   37.6540   27.9080   40.7050 C   0  0  0  0  0  0  0  0  0  0  0  0
   37.3690   27.5430   39.7300 H   0  0  0  0  0  0  0  0  0  0  0  0
   38.5920   27.4180   41.6210 C   0  0  0  0  0  0  0  0  0  0  0  0
   39.0920   26.5360   41.2720 H   0  0  0  0  0  0  0  0  0  0  0  0
   38.7670   28.0840   42.8140 C   0  0  0  0  0  3  0  0  0  0  0  0
   38.0830   29.2040   43.1770 C   0  0  0  0  0  3  0  0  0  0  0  0
   37.1770   29.6860   42.3020 N   0  0  0  0  0  0  0  0  0  0  0  0
  1  7  1  6  0  0  0
  1 19  1  0  0  0  0
  1  6  1  0  0  0  0
  2  8  1  0  0  0  0
  2  1  1  0  0  0  0
  3 10  1  0  0  0  0
  3  2  1  0  0  0  0
  3  4  1  0  0  0  0
  4  5  1  0  0  0  0
  5 15  1  0  0  0  0
  5  6  1  0  0  0  0
  5 14  1  0  0  0  0
  6 16  1  1  0  0  0
  6 26  1  0  0  0  0
  9  2  1  0  0  0  0
 11  3  1  0  0  0  0
 12  4  1  0  0  0  0
 13  4  1  0  0  0  0
 17 23  1  0  0  0  0
 18 24  1  0  0  0  0
 18 17  2  0  0  0  0
 19 18  1  0  0  0  0
 20 19  2  0  0  0  0
 20 21  1  0  0  0  0
 21 22  2  0  0  0  0
 22 17  1  0  0  0  0
 25 21  1  0  0  0  0
 26 33  1  0  0  0  0
 27 26  2  0  0  0  0
 27 29  1  0  0  0  0
 28 27  1  0  0  0  0
 29 31  2  0  0  0  0
 30 29  1  0  0  0  0
 31 32  1  0  0  0  0
 33 32  2  0  0  0  0
M  END
>  <minimizedAffinity>
-4.97912884

$$$$

 OpenBabel03242510303D

 33 35  0  0  1  0  0  0  0  0999 V2000
   38.6310   30.9600   41.2480 C   0  0  1  0  0  0  0  0  0  0  0  0
   39.7990   31.1410   40.3300 C   0  0  0  0  0  0  0  0  0  0  0  0
   40.0740   32.6530   40.3380 C   0  0  0  0  0  0  0  0  0  0  0  0
   38.9220   33.2920   39.5900 C   0  0  0  0  0  0  0  0  0  0  0  0
   37.5810   32.9500   40.1420 C   0  0  0  0  0  0  0  0  0  0  0  0
   37.3910   31.6080   40.7180 C   0  0  1  0  0  0  0  0  0  0  0  0
   38.8940   31.5210   42.1780 H   0  0  0  0  0  0  0  0  0  0  0  0
   39.6230   30.8200   39.2860 H   0  0  0  0  0  0  0  0  0  0  0  0
   40.6790   30.5950   40.7280 H   0  0  0  0  0  0  0  0  0  0  0  0
   40.1150   32.9880   41.4020 H   0  0  0  0  0  0  0  0  0  0  0  0
   40.9900   32.8590   39.7660 H   0  0  0  0  0  0  0  0  0  0  0  0
   39.1050   34.3870   39.6600 H   0  0  0  0  0  0  0  0  0  0  0  0
   39.0410   33.0230   38.5210 H   0  0  0  0  0  0  0  0  0  0  0  0
   36.8630   33.0620   39.2820 H   0  0  0  0  0  0  0  0  0  0  0  0
   37.2850   33.7730   40.8400 H   0  0  0  0  0  0  0  0  0  0  0  0
   36.7370   31.7130   41.6380 H   0  0  0  0  0  0  0  0  0  0  0  0
   37.5230   27.9290   43.2160 C   0  0  0  0  0  0  0  0  0  0  0  0
   37.7660   29.2420   42.8230 C   0  0  0  0  0  0  0  0  0  0  0  0
   38.3780   29.5650   41.6310 C   0  0  0  0  0  0  0  0  0  0  0  0
   38.7410   28.5270   40.8400 N   0  0  0  0  0  0  0  0  0  0  0  0
   38.5100   27.2450   41.2100 C   0  0  0  0  0  0  0  0  0  0  0  0
   37.9180   26.9390   42.3660 N   0  0  0  0  0  0  0  0  0  0  0  0
   37.0560   27.6130   44.1230 H   0  0  0  0  0  0  0  0  0  0  0  0
   37.4050   29.9340   43.5490 H   0  0  0  0  0  0  0  0  0  0  0  0
   38.8210   26.4590   40.5390 H   0  0  0  0  0  0  0  0  0  0  0  0
   36.6510   30.6880   39.8180 C   0  0  0  0  0  0  0  0  0  0  0  0
   36.9450   30.3790   38.4860 C   0  0  0  0  0  0  0  0  0  0  0  0
   37.8000   30.9070   38.0920 H   0  0  0  0  0  0  0  0  0  0  0  0
   36.0950   29.4450   37.8810 C   0  0  0  0  0  0  0  0  0  0  0  0
   36.3610   29.2410   36.8610 H   0  0  0  0  0  0  0  0  0  0  0  0
   35.0600   28.9130   38.6170 C   0  0  0  0  0  3  0  0  0  0  0  0
   34.7950   29.2320   39.9140 C   0  0  0  0  0  3  0  0  0  0  0  0
   35.6070   30.1300   40.5080 N   0  0  0  0  0  0  0  0  0  0  0  0
  1 19  1  0  0  0  0
  1  7  1  1  0  0  0
  2  3  1  0  0  0  0
  2  9  1  0  0  0  0
  2  1  1  0  0  0  0
  3 10  1  0  0  0  0
  4 12  1  0  0  0  0
  4  5  1  0  0  0  0
  4  3  1  0  0  0  0
  5  6  1  0  0  0  0
  5 15  1  0  0  0  0
  6  1  1  0  0  0  0
  6 16  1  1  0  0  0
  8  2  1  0  0  0  0
 11  3  1  0  0  0  0
 13  4  1  0  0  0  0
 14  5  1  0  0  0  0
 17 23  1  0  0  0  0
 18 17  1  0  0  0  0
 18 24  1  0  0  0  0
 19 18  2  0  0  0  0
 20 21  2  0  0  0  0
 20 19  1  0  0  0  0
 21 22  1  0  0  0  0
 22 17  2  0  0  0  0
 25 21  1  0  0  0  0
 26 33  1  0  0  0  0
 26  6  1  0  0  0  0
 27 26  2  0  0  0  0
 28 27  1  0  0  0  0
 29 27  1  0  0  0  0
 29 31  2  0  0  0  0
 30 29  1  0  0  0  0
 31 32  1  0  0  0  0
 32 33  2  0  0  0  0
M  END
>  <minimizedAffinity>
-4.92178917

$$$$

 OpenBabel03242510303D

 33 35  0  0  1  0  0  0  0  0999 V2000
   37.2040   29.1560   41.3950 C   0  0  1  0  0  0  0  0  0  0  0  0
   37.4170   27.7920   40.8140 C   0  0  0  0  0  0  0  0  0  0  0  0
   36.6290   26.8460   41.7340 C   0  0  0  0  0  0  0  0  0  0  0  0
   37.3900   26.8060   43.0440 C   0  0  0  0  0  0  0  0  0  0  0  0
   37.6110   28.1470   43.6540 C   0  0  0  0  0  0  0  0  0  0  0  0
   37.8180   29.2930   42.7520 C   0  0  1  0  0  0  0  0  0  0  0  0
   36.1000   29.2430   41.5490 H   0  0  0  0  0  0  0  0  0  0  0  0
   38.4720   27.4600   40.7860 H   0  0  0  0  0  0  0  0  0  0  0  0
   37.0020   27.7510   39.7860 H   0  0  0  0  0  0  0  0  0  0  0  0
   35.6040   27.2680   41.8620 H   0  0  0  0  0  0  0  0  0  0  0  0
   36.6480   25.8310   41.3130 H   0  0  0  0  0  0  0  0  0  0  0  0
   36.7730   26.1680   43.7150 H   0  0  0  0  0  0  0  0  0  0  0  0
   38.3280   26.2460   42.8560 H   0  0  0  0  0  0  0  0  0  0  0  0
   38.5300   28.0400   44.2940 H   0  0  0  0  0  0  0  0  0  0  0  0
   36.7920   28.3170   44.3970 H   0  0  0  0  0  0  0  0  0  0  0  0
   37.2780   30.1860   43.1940 H   0  0  0  0  0  0  0  0  0  0  0  0
   37.3880   32.5560   39.7570 C   0  0  0  0  0  0  0  0  0  0  0  0
   37.0250   31.4990   40.5860 C   0  0  0  0  0  0  0  0  0  0  0  0
   37.6140   30.2560   40.5130 C   0  0  0  0  0  0  0  0  0  0  0  0
   38.5840   30.1030   39.5790 N   0  0  0  0  0  0  0  0  0  0  0  0
   38.9460   31.1230   38.7660 C   0  0  0  0  0  0  0  0  0  0  0  0
   38.3710   32.3240   38.8410 N   0  0  0  0  0  0  0  0  0  0  0  0
   36.9720   33.5400   39.7620 H   0  0  0  0  0  0  0  0  0  0  0  0
   36.2640   31.7920   41.2710 H   0  0  0  0  0  0  0  0  0  0  0  0
   39.7240   30.9420   38.0410 H   0  0  0  0  0  0  0  0  0  0  0  0
   39.2390   29.7070   42.6560 C   0  0  0  0  0  0  0  0  0  0  0  0
   39.7600   31.0010   42.7720 C   0  0  0  0  0  0  0  0  0  0  0  0
   39.0110   31.7630   42.9230 H   0  0  0  0  0  0  0  0  0  0  0  0
   41.1530   31.1020   42.6750 C   0  0  0  0  0  0  0  0  0  0  0  0
   41.5040   32.1120   42.7700 H   0  0  0  0  0  0  0  0  0  0  0  0
   41.8910   29.9560   42.4770 C   0  0  0  0  0  3  0  0  0  0  0  0
   41.3590   28.7080   42.3670 C   0  0  0  0  0  3  0  0  0  0  0  0
   40.0180   28.5980   42.4590 N   0  0  0  0  0  0  0  0  0  0  0  0
  1  7  1  1  0  0  0
  1  6  1  0  0  0  0
  2  1  1  0  0  0  0
  2  3  1  0  0  0  0
  3 10  1  0  0  0  0
  3  4  1  0  0  0  0
  4  5  1  0  0  0  0
  4 12  1  0  0  0  0
  5 14  1  0  0  0  0
  5 15  1  0  0  0  0
  6 16  1  1  0  0  0
  6  5  1  0  0  0  0
  8  2  1  0  0  0  0
  9  2  1  0  0  0  0
 11  3  1  0  0  0  0
 13  4  1  0  0  0  0
 17 23  1  0  0  0  0
 17 18  1  0  0  0  0
 18 24  1  0  0  0  0
 19 18  2  0  0  0  0
 19  1  1  0  0  0  0
 20 19  1  0  0  0  0
 21 22  1  0  0  0  0
 21 20  2  0  0  0  0
 22 17  2  0  0  0  0
 25 21  1  0  0  0  0
 26  6  1  0  0  0  0
 26 27  1  0  0  0  0
 27 28  1  0  0  0  0
 29 30  1  0  0  0  0
 29 27  2  0  0  0  0
 31 29  1  0  0  0  0
 32 33  1  0  0  0  0
 32 31  2  0  0  0  0
 33 26  2  0  0  0  0
M  END
>  <minimizedAffinity>
-4.88037777

$$$$

 OpenBabel03242510303D

 33 35  0  0  1  0  0  0  0  0999 V2000
   36.8490   26.6040   40.7320 C   0  0  1  0  0  0  0  0  0  0  0  0
   37.2550   25.8360   39.5130 C   0  0  0  0  0  0  0  0  0  0  0  0
   36.3590   24.5870   39.5180 C   0  0  0  0  0  0  0  0  0  0  0  0
   36.8450   23.7280   40.6670 C   0  0  0  0  0  0  0  0  0  0  0  0
   36.8590   24.4290   41.9810 C   0  0  0  0  0  0  0  0  0  0  0  0
   37.1710   25.8690   41.9940 C   0  0  1  0  0  0  0  0  0  0  0  0
   35.7330   26.6600   40.6890 H   0  0  0  0  0  0  0  0  0  0  0  0
   38.3120   25.5120   39.5000 H   0  0  0  0  0  0  0  0  0  0  0  0
   37.0550   26.4390   38.6030 H   0  0  0  0  0  0  0  0  0  0  0  0
   35.3050   24.9230   39.6670 H   0  0  0  0  0  0  0  0  0  0  0  0
   36.5220   24.0180   38.5910 H   0  0  0  0  0  0  0  0  0  0  0  0
   36.1470   22.8620   40.6940 H   0  0  0  0  0  0  0  0  0  0  0  0
   37.8350   23.3230   40.3720 H   0  0  0  0  0  0  0  0  0  0  0  0
   37.6380   23.9010   42.5980 H   0  0  0  0  0  0  0  0  0  0  0  0
   35.9000   24.1840   42.5030 H   0  0  0  0  0  0  0  0  0  0  0  0
   36.5010   26.3640   42.7630 H   0  0  0  0  0  0  0  0  0  0  0  0
   38.9680   29.6610   40.0650 C   0  0  0  0  0  0  0  0  0  0  0  0
   38.4570   28.3660   40.0370 C   0  0  0  0  0  0  0  0  0  0  0  0
   37.3590   27.9800   40.7740 C   0  0  0  0  0  0  0  0  0  0  0  0
   36.7840   28.9350   41.5430 N   0  0  0  0  0  0  0  0  0  0  0  0
   37.2700   30.1980   41.5800 C   0  0  0  0  0  0  0  0  0  0  0  0
   38.3340   30.5650   40.8650 N   0  0  0  0  0  0  0  0  0  0  0  0
   39.8120   30.0230   39.5210 H   0  0  0  0  0  0  0  0  0  0  0  0
   39.0140   27.7480   39.3710 H   0  0  0  0  0  0  0  0  0  0  0  0
   36.7700   30.9160   42.2110 H   0  0  0  0  0  0  0  0  0  0  0  0
   38.5560   26.1590   42.4420 C   0  0  0  0  0  0  0  0  0  0  0  0
   38.9610   27.0600   43.4330 C   0  0  0  0  0  0  0  0  0  0  0  0
   38.1480   27.6080   43.8850 H   0  0  0  0  0  0  0  0  0  0  0  0
   40.3380   27.1090   43.6800 C   0  0  0  0  0  0  0  0  0  0  0  0
   40.5980   27.8130   44.4470 H   0  0  0  0  0  0  0  0  0  0  0  0
   41.1730   26.2920   42.9510 C   0  0  0  0  0  3  0  0  0  0  0  0
   40.7530   25.4230   41.9900 C   0  0  0  0  0  3  0  0  0  0  0  0
   39.4290   25.3670   41.7440 N   0  0  0  0  0  0  0  0  0  0  0  0
  1  7  1  6  0  0  0
  1 19  1  0  0  0  0
  1  6  1  0  0  0  0
  2  3  1  0  0  0  0
  2  1  1  0  0  0  0
  3 10  1  0  0  0  0
  3  4  1  0  0  0  0
  4 12  1  0  0  0  0
  4  5  1  0  0  0  0
  5  6  1  0  0  0  0
  5 15  1  0  0  0  0
  5 14  1  0  0  0  0
  6 26  1  0  0  0  0
  6 16  1  1  0  0  0
  8  2  1  0  0  0  0
  9  2  1  0  0  0  0
 11  3  1  0  0  0  0
 13  4  1  0  0  0  0
 17 22  1  0  0  0  0
 18 17  2  0  0  0  0
 18 19  1  0  0  0  0
 19 20  2  0  0  0  0
 20 21  1  0  0  0  0
 21 25  1  0  0  0  0
 22 21  2  0  0  0  0
 23 17  1  0  0  0  0
 24 18  1  0  0  0  0
 26 27  1  0  0  0  0
 27 29  2  0  0  0  0
 27 28  1  0  0  0  0
 29 30  1  0  0  0  0
 31 29  1  0  0  0  0
 32 31  2  0  0  0  0
 33 32  1  0  0  0  0
 33 26  2  0  0  0  0
M  END
>  <minimizedAffinity>
-4.74299049

$$$$

 OpenBabel03242510303D

 33 35  0  0  1  0  0  0  0  0999 V2000
   37.2140   29.9260   39.8390 C   0  0  1  0  0  0  0  0  0  0  0  0
   37.3870   29.4100   38.4440 C   0  0  0  0  0  0  0  0  0  0  0  0
   36.1280   29.8730   37.6940 C   0  0  0  0  0  0  0  0  0  0  0  0
   34.9850   29.0460   38.2470 C   0  0  0  0  0  0  0  0  0  0  0  0
   34.8370   29.1350   39.7280 C   0  0  0  0  0  0  0  0  0  0  0  0
   36.0580   29.2830   40.5380 C   0  0  1  0  0  0  0  0  0  0  0  0
   36.9390   31.0040   39.7250 H   0  0  0  0  0  0  0  0  0  0  0  0
   37.4630   28.3100   38.3630 H   0  0  0  0  0  0  0  0  0  0  0  0
   38.2890   29.8660   37.9840 H   0  0  0  0  0  0  0  0  0  0  0  0
   35.9890   30.9620   37.8970 H   0  0  0  0  0  0  0  0  0  0  0  0
   36.2270   29.6230   36.6290 H   0  0  0  0  0  0  0  0  0  0  0  0
   34.0750   29.4370   37.7400 H   0  0  0  0  0  0  0  0  0  0  0  0
   35.1280   28.0100   37.8800 H   0  0  0  0  0  0  0  0  0  0  0  0
   34.3290   28.1810   40.0390 H   0  0  0  0  0  0  0  0  0  0  0  0
   34.0710   29.9220   39.9410 H   0  0  0  0  0  0  0  0  0  0  0  0
   35.8300   30.0040   41.3830 H   0  0  0  0  0  0  0  0  0  0  0  0
   39.7730   30.6840   42.5140 C   0  0  0  0  0  0  0  0  0  0  0  0
   38.6260   30.7130   41.7270 C   0  0  0  0  0  0  0  0  0  0  0  0
   38.4300   29.8650   40.6580 C   0  0  0  0  0  0  0  0  0  0  0  0
   39.4250   28.9810   40.4020 N   0  0  0  0  0  0  0  0  0  0  0  0
   40.5460   28.9420   41.1600 C   0  0  0  0  0  0  0  0  0  0  0  0
   40.7290   29.7660   42.1930 N   0  0  0  0  0  0  0  0  0  0  0  0
   39.9850   31.3110   43.3520 H   0  0  0  0  0  0  0  0  0  0  0  0
   37.9410   31.4520   42.0740 H   0  0  0  0  0  0  0  0  0  0  0  0
   41.3040   28.2160   40.9080 H   0  0  0  0  0  0  0  0  0  0  0  0
   36.4710   28.0230   41.2030 C   0  0  0  0  0  0  0  0  0  0  0  0
   36.6820   27.8090   42.5700 C   0  0  0  0  0  0  0  0  0  0  0  0
   36.5440   28.6910   43.1770 H   0  0  0  0  0  0  0  0  0  0  0  0
   37.0330   26.5030   42.9300 C   0  0  0  0  0  0  0  0  0  0  0  0
   37.1840   26.3900   43.9860 H   0  0  0  0  0  0  0  0  0  0  0  0
   37.1440   25.5480   41.9440 C   0  0  0  0  0  3  0  0  0  0  0  0
   36.9330   25.7820   40.6190 C   0  0  0  0  0  3  0  0  0  0  0  0
   36.5940   27.0370   40.2600 N   0  0  0  0  0  0  0  0  0  0  0  0
  1  7  1  6  0  0  0
  1  6  1  0  0  0  0
  1 19  1  0  0  0  0
  2  1  1  0  0  0  0
  3 10  1  0  0  0  0
  3  4  1  0  0  0  0
  3  2  1  0  0  0  0
  4  5  1  0  0  0  0
  5 15  1  0  0  0  0
  5 14  1  0  0  0  0
  5  6  1  0  0  0  0
  6 26  1  0  0  0  0
  6 16  1  1  0  0  0
  8  2  1  0  0  0  0
  9  2  1  0  0  0  0
 11  3  1  0  0  0  0
 12  4  1  0  0  0  0
 13  4  1  0  0  0  0
 17 23  1  0  0  0  0
 18 24  1  0  0  0  0
 18 17  2  0  0  0  0
 19 18  1  0  0  0  0
 20 19  2  0  0  0  0
 20 21  1  0  0  0  0
 21 22  2  0  0  0  0
 22 17  1  0  0  0  0
 25 21  1  0  0  0  0
 26 27  1  0  0  0  0
 27 29  2  0  0  0  0
 27 28  1  0  0  0  0
 29 30  1  0  0  0  0
 31 29  1  0  0  0  0
 32 31  2  0  0  0  0
 33 32  1  0  0  0  0
 33 26  2  0  0  0  0
M  END
>  <minimizedAffinity>
-4.73797655

$$$$

 OpenBabel03242510303D

 33 35  0  0  1  0  0  0  0  0999 V2000
   39.0120   24.8700   40.8970 C   0  0  1  0  0  0  0  0  0  0  0  0
   38.3970   23.7010   41.6010 C   0  0  0  0  0  0  0  0  0  0  0  0
   37.5020   23.0330   40.5460 C   0  0  0  0  0  0  0  0  0  0  0  0
   36.3370   23.9780   40.3260 C   0  0  0  0  0  0  0  0  0  0  0  0
   36.7460   25.3590   39.9420 C   0  0  0  0  0  0  0  0  0  0  0  0
   37.9940   25.8960   40.5110 C   0  0  1  0  0  0  0  0  0  0  0  0
   39.4120   24.4610   39.9360 H   0  0  0  0  0  0  0  0  0  0  0  0
   37.7760   23.9620   42.4780 H   0  0  0  0  0  0  0  0  0  0  0  0
   39.1910   22.9950   41.9230 H   0  0  0  0  0  0  0  0  0  0  0  0
   38.1070   22.8980   39.6180 H   0  0  0  0  0  0  0  0  0  0  0  0
   37.0920   22.0990   40.9550 H   0  0  0  0  0  0  0  0  0  0  0  0
   35.7350   23.5100   39.5170 H   0  0  0  0  0  0  0  0  0  0  0  0
   35.7140   23.9410   41.2420 H   0  0  0  0  0  0  0  0  0  0  0  0
   35.9010   26.0260   40.2700 H   0  0  0  0  0  0  0  0  0  0  0  0
   36.7110   25.4200   38.8250 H   0  0  0  0  0  0  0  0  0  0  0  0
   38.5170   26.4920   39.7020 H   0  0  0  0  0  0  0  0  0  0  0  0
   41.3620   25.8770   43.6790 C   0  0  0  0  0  0  0  0  0  0  0  0
   40.3120   25.3010   42.9710 C   0  0  0  0  0  0  0  0  0  0  0  0
   40.1360   25.4820   41.6160 C   0  0  0  0  0  0  0  0  0  0  0  0
   41.0490   26.2630   40.9900 N   0  0  0  0  0  0  0  0  0  0  0  0
   42.0750   26.8300   41.6670 C   0  0  0  0  0  0  0  0  0  0  0  0
   42.2400   26.6500   42.9790 N   0  0  0  0  0  0  0  0  0  0  0  0
   41.5550   25.7760   44.7250 H   0  0  0  0  0  0  0  0  0  0  0  0
   39.6990   24.7060   43.6080 H   0  0  0  0  0  0  0  0  0  0  0  0
   42.7710   27.4420   41.1150 H   0  0  0  0  0  0  0  0  0  0  0  0
   37.7620   26.8590   41.6150 C   0  0  0  0  0  0  0  0  0  0  0  0
   37.0180   26.6550   42.7830 C   0  0  0  0  0  0  0  0  0  0  0  0
   36.5540   25.6820   42.8420 H   0  0  0  0  0  0  0  0  0  0  0  0
   36.9950   27.7300   43.6800 C   0  0  0  0  0  0  0  0  0  0  0  0
   36.4130   27.5250   44.5580 H   0  0  0  0  0  0  0  0  0  0  0  0
   37.6830   28.8790   43.3590 C   0  0  0  0  0  3  0  0  0  0  0  0
   38.4000   29.0520   42.2140 C   0  0  0  0  0  3  0  0  0  0  0  0
   38.4300   28.0230   41.3430 N   0  0  0  0  0  0  0  0  0  0  0  0
  1  7  1  6  0  0  0
  1  2  1  0  0  0  0
  1 19  1  0  0  0  0
  2  9  1  0  0  0  0
  2  8  1  0  0  0  0
  3 11  1  0  0  0  0
  3  2  1  0  0  0  0
  4  3  1  0  0  0  0
  4 13  1  0  0  0  0
  5 14  1  0  0  0  0
  5  4  1  0  0  0  0
  5  6  1  0  0  0  0
  6 16  1  6  0  0  0
  6  1  1  0  0  0  0
  6 26  1  0  0  0  0
 10  3  1  0  0  0  0
 12  4  1  0  0  0  0
 15  5  1  0  0  0  0
 17 23  1  0  0  0  0
 18 24  1  0  0  0  0
 18 17  2  0  0  0  0
 19 18  1  0  0  0  0
 20 19  2  0  0  0  0
 20 21  1  0  0  0  0
 21 22  2  0  0  0  0
 22 17  1  0  0  0  0
 25 21  1  0  0  0  0
 26 27  1  0  0  0  0
 27 28  1  0  0  0  0
 27 29  2  0  0  0  0
 29 30  1  0  0  0  0
 31 29  1  0  0  0  0
 32 31  2  0  0  0  0
 33 26  2  0  0  0  0
 33 32  1  0  0  0  0
M  END
>  <minimizedAffinity>
-4.72186089

$$$$

 OpenBabel03242510303D

 33 35  0  0  1  0  0  0  0  0999 V2000
   36.4240   27.3850   40.2880 C   0  0  1  0  0  0  0  0  0  0  0  0
   37.5860   26.4490   40.4140 C   0  0  0  0  0  0  0  0  0  0  0  0
   37.2640   25.5860   41.6430 C   0  0  0  0  0  0  0  0  0  0  0  0
   37.4020   26.4990   42.8440 C   0  0  0  0  0  0  0  0  0  0  0  0
   36.5610   27.7270   42.7690 C   0  0  0  0  0  0  0  0  0  0  0  0
   36.3340   28.3300   41.4440 C   0  0  1  0  0  0  0  0  0  0  0  0
   35.5140   26.7390   40.3520 H   0  0  0  0  0  0  0  0  0  0  0  0
   38.5630   26.9420   40.5740 H   0  0  0  0  0  0  0  0  0  0  0  0
   37.6530   25.8090   39.5100 H   0  0  0  0  0  0  0  0  0  0  0  0
   36.2210   25.2040   41.5300 H   0  0  0  0  0  0  0  0  0  0  0  0
   38.0220   24.7970   41.7430 H   0  0  0  0  0  0  0  0  0  0  0  0
   37.1050   25.8760   43.7160 H   0  0  0  0  0  0  0  0  0  0  0  0
   38.4840   26.7120   42.9660 H   0  0  0  0  0  0  0  0  0  0  0  0
   37.0800   28.4900   43.4120 H   0  0  0  0  0  0  0  0  0  0  0  0
   35.6120   27.5180   43.3230 H   0  0  0  0  0  0  0  0  0  0  0  0
   35.2600   28.6900   41.4050 H   0  0  0  0  0  0  0  0  0  0  0  0
   35.0870   29.2180   37.2650 C   0  0  0  0  0  0  0  0  0  0  0  0
   35.1720   28.5430   38.4800 C   0  0  0  0  0  0  0  0  0  0  0  0
   36.3660   28.1040   39.0090 C   0  0  0  0  0  0  0  0  0  0  0  0
   37.4790   28.3640   38.2820 N   0  0  0  0  0  0  0  0  0  0  0  0
   37.4110   29.0200   37.0990 C   0  0  0  0  0  0  0  0  0  0  0  0
   36.2510   29.4410   36.5920 N   0  0  0  0  0  0  0  0  0  0  0  0
   34.1970   29.5820   36.8020 H   0  0  0  0  0  0  0  0  0  0  0  0
   34.2110   28.4360   38.9280 H   0  0  0  0  0  0  0  0  0  0  0  0
   38.3310   29.1990   36.5640 H   0  0  0  0  0  0  0  0  0  0  0  0
   37.1580   29.5420   41.2090 C   0  0  0  0  0  0  0  0  0  0  0  0
   38.5510   29.6560   41.2910 C   0  0  0  0  0  0  0  0  0  0  0  0
   39.0470   28.7440   41.5870 H   0  0  0  0  0  0  0  0  0  0  0  0
   39.0730   30.9160   40.9810 C   0  0  0  0  0  0  0  0  0  0  0  0
   40.1430   30.9530   41.0580 H   0  0  0  0  0  0  0  0  0  0  0  0
   38.2070   31.9270   40.6280 C   0  0  0  0  0  3  0  0  0  0  0  0
   36.8540   31.7900   40.5560 C   0  0  0  0  0  3  0  0  0  0  0  0
   36.3390   30.5800   40.8520 N   0  0  0  0  0  0  0  0  0  0  0  0
  1  7  1  1  0  0  0
  1  2  1  0  0  0  0
  1  6  1  0  0  0  0
  2  8  1  0  0  0  0
  2  3  1  0  0  0  0
  3 11  1  0  0  0  0
  3  4  1  0  0  0  0
  4 13  1  0  0  0  0
  4 12  1  0  0  0  0
  5  4  1  0  0  0  0
  5 15  1  0  0  0  0
  5 14  1  0  0  0  0
  6 16  1  1  0  0  0
  6  5  1  0  0  0  0
  9  2  1  0  0  0  0
 10  3  1  0  0  0  0
 17 18  1  0  0  0  0
 18 24  1  0  0  0  0
 18 19  2  0  0  0  0
 19  1  1  0  0  0  0
 20 19  1  0  0  0  0
 21 20  2  0  0  0  0
 22 21  1  0  0  0  0
 22 17  2  0  0  0  0
 23 17  1  0  0  0  0
 25 21  1  0  0  0  0
 26 27  1  0  0  0  0
 26  6  1  0  0  0  0
 27 28  1  0  0  0  0
 29 30  1  0  0  0  0
 29 27  2  0  0  0  0
 31 29  1  0  0  0  0
 32 31  2  0  0  0  0
 32 33  1  0  0  0  0
 33 26  2  0  0  0  0
M  END
>  <minimizedAffinity>
-4.71668577

$$$$
