
 OpenBabel03242512493D

 29 31  0  0  1  0  0  0  0  0999 V2000
   36.8740   30.3100   39.1640 N   0  0  0  0  0  0  0  0  0  0  0  0
   36.6560   29.4580   38.0190 C   0  0  0  0  0  0  0  0  0  0  0  0
   35.1430   29.4050   38.0570 C   0  0  0  0  0  0  0  0  0  0  0  0
   34.9840   28.9250   39.5060 C   0  0  0  0  0  0  0  0  0  0  0  0
   35.9900   29.8040   40.2000 C   0  0  1  0  0  0  0  0  0  0  0  0
   37.0080   29.9570   37.0820 H   0  0  0  0  0  0  0  0  0  0  0  0
   37.0650   28.4550   38.1290 H   0  0  0  0  0  0  0  0  0  0  0  0
   34.7570   30.4150   37.9250 H   0  0  0  0  0  0  0  0  0  0  0  0
   34.7670   28.6740   37.3350 H   0  0  0  0  0  0  0  0  0  0  0  0
   35.2630   27.8560   39.5450 H   0  0  0  0  0  0  0  0  0  0  0  0
   33.9480   29.1100   39.8570 H   0  0  0  0  0  0  0  0  0  0  0  0
   35.4040   30.7150   40.5230 H   0  0  0  0  0  0  0  0  0  0  0  0
   38.1660   33.6890   39.9710 C   0  0  0  0  0  0  0  0  0  0  0  0
   37.2470   32.6590   39.7980 C   0  0  0  0  0  0  0  0  0  0  0  0
   37.7200   31.4090   39.3590 C   0  0  0  0  0  0  0  0  0  0  0  0
   39.0520   31.2840   39.1300 N   0  0  0  0  0  0  0  0  0  0  0  0
   39.9290   32.2860   39.3000 C   0  0  0  0  0  0  0  0  0  0  0  0
   39.4880   33.5010   39.7240 N   0  0  0  0  0  0  0  0  0  0  0  0
   37.8350   34.6640   40.3090 H   0  0  0  0  0  0  0  0  0  0  0  0
   36.1830   32.7880   39.9890 H   0  0  0  0  0  0  0  0  0  0  0  0
   40.9610   32.0340   39.0750 H   0  0  0  0  0  0  0  0  0  0  0  0
   36.6370   29.2330   41.3640 C   0  0  0  0  0  0  0  0  0  0  0  0
   37.6220   29.8460   42.1040 C   0  0  0  0  0  0  0  0  0  0  0  0
   37.9440   30.8320   41.8020 H   0  0  0  0  0  0  0  0  0  0  0  0
   38.2060   29.2540   43.2080 C   0  0  0  0  0  0  0  0  0  0  0  0
   38.9780   29.7210   43.7990 H   0  0  0  0  0  0  0  0  0  0  0  0
   37.8030   27.9960   43.6040 C   0  0  0  0  0  3  0  0  0  0  0  0
   36.8230   27.3920   42.8630 C   0  0  0  0  0  3  0  0  0  0  0  0
   36.2900   27.9940   41.8130 N   0  0  0  0  0  0  0  0  0  0  0  0
  1 15  1  0  0  0  0
  1  5  1  0  0  0  0
  2  3  1  0  0  0  0
  2  7  1  0  0  0  0
  2  1  1  0  0  0  0
  3  4  1  0  0  0  0
  4 10  1  0  0  0  0
  4 11  1  0  0  0  0
  4  5  1  0  0  0  0
  5 12  1  1  0  0  0
  5 22  1  0  0  0  0
  6  2  1  0  0  0  0
  8  3  1  0  0  0  0
  9  3  1  0  0  0  0
 13 19  1  0  0  0  0
 14 13  1  0  0  0  0
 14 20  1  0  0  0  0
 15 14  2  0  0  0  0
 16 17  2  0  0  0  0
 16 15  1  0  0  0  0
 17 18  1  0  0  0  0
 18 13  2  0  0  0  0
 21 17  1  0  0  0  0
 22 29  2  0  0  0  0
 22 23  1  0  0  0  0
 23 25  2  0  0  0  0
 24 23  1  0  0  0  0
 25 27  1  0  0  0  0
 25 26  1  0  0  0  0
 28 27  2  0  0  0  0
 29 28  1  0  0  0  0
M  END
>  <minimizedAffinity>
-5.02325058

$$$$

 OpenBabel03242512493D

 29 31  0  0  1  0  0  0  0  0999 V2000
   36.9440   30.1950   39.1990 N   0  0  0  0  0  0  0  0  0  0  0  0
   36.7320   29.4430   37.9860 C   0  0  0  0  0  0  0  0  0  0  0  0
   35.2180   29.4100   37.9980 C   0  0  0  0  0  0  0  0  0  0  0  0
   35.0300   28.8150   39.4000 C   0  0  0  0  0  0  0  0  0  0  0  0
   36.0380   29.6200   40.1780 C   0  0  1  0  0  0  0  0  0  0  0  0
   37.1050   30.0130   37.0970 H   0  0  0  0  0  0  0  0  0  0  0  0
   37.1250   28.4290   38.0180 H   0  0  0  0  0  0  0  0  0  0  0  0
   34.8480   30.4330   37.9440 H   0  0  0  0  0  0  0  0  0  0  0  0
   34.8440   28.7460   37.2140 H   0  0  0  0  0  0  0  0  0  0  0  0
   35.2940   27.7420   39.3550 H   0  0  0  0  0  0  0  0  0  0  0  0
   33.9920   28.9860   39.7510 H   0  0  0  0  0  0  0  0  0  0  0  0
   35.4590   30.5090   40.5670 H   0  0  0  0  0  0  0  0  0  0  0  0
   38.2580   33.5220   40.1730 C   0  0  0  0  0  0  0  0  0  0  0  0
   37.3280   32.5270   39.8900 C   0  0  0  0  0  0  0  0  0  0  0  0
   37.8010   31.2630   39.4970 C   0  0  0  0  0  0  0  0  0  0  0  0
   39.1460   31.0900   39.4150 N   0  0  0  0  0  0  0  0  0  0  0  0
   40.0330   32.0580   39.6900 C   0  0  0  0  0  0  0  0  0  0  0  0
   39.5910   33.2870   40.0720 N   0  0  0  0  0  0  0  0  0  0  0  0
   37.9260   34.5070   40.4790 H   0  0  0  0  0  0  0  0  0  0  0  0
   36.2550   32.6930   39.9630 H   0  0  0  0  0  0  0  0  0  0  0  0
   41.0740   31.7700   39.5790 H   0  0  0  0  0  0  0  0  0  0  0  0
   36.6600   28.9450   41.3000 C   0  0  0  0  0  0  0  0  0  0  0  0
   36.6690   27.5840   41.5000 C   0  0  0  0  0  0  0  0  0  0  0  0
   36.1770   26.9600   40.7670 H   0  0  0  0  0  0  0  0  0  0  0  0
   37.2780   26.9920   42.5900 C   0  0  0  0  0  0  0  0  0  0  0  0
   37.2950   25.9270   42.7610 H   0  0  0  0  0  0  0  0  0  0  0  0
   37.9100   27.7770   43.5320 C   0  0  0  0  0  3  0  0  0  0  0  0
   37.8960   29.1310   43.3260 C   0  0  0  0  0  3  0  0  0  0  0  0
   37.3010   29.6570   42.2690 N   0  0  0  0  0  0  0  0  0  0  0  0
  1 15  1  0  0  0  0
  1  5  1  0  0  0  0
  2  3  1  0  0  0  0
  2  7  1  0  0  0  0
  2  1  1  0  0  0  0
  3  4  1  0  0  0  0
  4 11  1  0  0  0  0
  4  5  1  0  0  0  0
  5 12  1  1  0  0  0
  5 22  1  0  0  0  0
  6  2  1  0  0  0  0
  8  3  1  0  0  0  0
  9  3  1  0  0  0  0
 10  4  1  0  0  0  0
 13 19  1  0  0  0  0
 14 20  1  0  0  0  0
 14 13  2  0  0  0  0
 15 14  1  0  0  0  0
 16 15  2  0  0  0  0
 16 17  1  0  0  0  0
 17 18  2  0  0  0  0
 18 13  1  0  0  0  0
 21 17  1  0  0  0  0
 22 23  2  0  0  0  0
 22 29  1  0  0  0  0
 23 25  1  0  0  0  0
 24 23  1  0  0  0  0
 25 26  1  0  0  0  0
 25 27  2  0  0  0  0
 28 27  1  0  0  0  0
 29 28  2  0  0  0  0
M  END
>  <minimizedAffinity>
-4.93272114

$$$$

 OpenBabel03242512493D

 29 31  0  0  1  0  0  0  0  0999 V2000
   38.4150   30.7090   41.2110 N   0  0  0  0  0  0  0  0  0  0  0  0
   39.4800   31.5420   40.7050 C   0  0  0  0  0  0  0  0  0  0  0  0
   38.8690   32.8960   40.9930 C   0  0  0  0  0  0  0  0  0  0  0  0
   37.5400   32.6910   40.2550 C   0  0  0  0  0  0  0  0  0  0  0  0
   37.1870   31.2980   40.7060 C   0  0  1  0  0  0  0  0  0  0  0  0
   40.4140   31.3960   41.3050 H   0  0  0  0  0  0  0  0  0  0  0  0
   39.6580   31.4340   39.6360 H   0  0  0  0  0  0  0  0  0  0  0  0
   38.7210   32.9890   42.0680 H   0  0  0  0  0  0  0  0  0  0  0  0
   39.4730   33.6910   40.5450 H   0  0  0  0  0  0  0  0  0  0  0  0
   37.7400   32.7430   39.1680 H   0  0  0  0  0  0  0  0  0  0  0  0
   36.7970   33.4440   40.5890 H   0  0  0  0  0  0  0  0  0  0  0  0
   36.5570   31.4460   41.6320 H   0  0  0  0  0  0  0  0  0  0  0  0
   39.4120   27.5300   42.8360 C   0  0  0  0  0  0  0  0  0  0  0  0
   39.4830   28.6330   41.9920 C   0  0  0  0  0  0  0  0  0  0  0  0
   38.4300   29.5640   42.0170 C   0  0  0  0  0  0  0  0  0  0  0  0
   37.4000   29.3260   42.8700 N   0  0  0  0  0  0  0  0  0  0  0  0
   37.3420   28.2570   43.6790 C   0  0  0  0  0  0  0  0  0  0  0  0
   38.3540   27.3480   43.6670 N   0  0  0  0  0  0  0  0  0  0  0  0
   40.2080   26.7960   42.8410 H   0  0  0  0  0  0  0  0  0  0  0  0
   40.3220   28.7990   41.3170 H   0  0  0  0  0  0  0  0  0  0  0  0
   36.4550   28.2030   44.3040 H   0  0  0  0  0  0  0  0  0  0  0  0
   36.4390   30.4950   39.7590 C   0  0  0  0  0  0  0  0  0  0  0  0
   36.7170   30.3900   38.4150 C   0  0  0  0  0  0  0  0  0  0  0  0
   37.5570   30.9480   38.0260 H   0  0  0  0  0  0  0  0  0  0  0  0
   35.9690   29.6070   37.5550 C   0  0  0  0  0  0  0  0  0  0  0  0
   36.1730   29.5150   36.5010 H   0  0  0  0  0  0  0  0  0  0  0  0
   34.8950   28.8910   38.0400 C   0  0  0  0  0  3  0  0  0  0  0  0
   34.6250   29.0000   39.3790 C   0  0  0  0  0  3  0  0  0  0  0  0
   35.3660   29.7610   40.1670 N   0  0  0  0  0  0  0  0  0  0  0  0
  1 15  1  0  0  0  0
  2  3  1  0  0  0  0
  2  1  1  0  0  0  0
  2  6  1  0  0  0  0
  3  8  1  0  0  0  0
  4 11  1  0  0  0  0
  4  5  1  0  0  0  0
  4  3  1  0  0  0  0
  5  1  1  0  0  0  0
  5 12  1  1  0  0  0
  7  2  1  0  0  0  0
  9  3  1  0  0  0  0
 10  4  1  0  0  0  0
 13 19  1  0  0  0  0
 13 18  1  0  0  0  0
 14 15  1  0  0  0  0
 14 13  2  0  0  0  0
 15 16  2  0  0  0  0
 16 17  1  0  0  0  0
 17 21  1  0  0  0  0
 18 17  2  0  0  0  0
 20 14  1  0  0  0  0
 22 29  1  0  0  0  0
 22  5  1  0  0  0  0
 23 22  2  0  0  0  0
 24 23  1  0  0  0  0
 25 27  2  0  0  0  0
 25 23  1  0  0  0  0
 26 25  1  0  0  0  0
 27 28  1  0  0  0  0
 28 29  2  0  0  0  0
M  END
>  <minimizedAffinity>
-4.87177944

$$$$

 OpenBabel03242512493D

 29 31  0  0  1  0  0  0  0  0999 V2000
   36.1550   29.0780   40.2060 N   0  0  0  0  0  0  0  0  0  0  0  0
   34.7530   29.1530   39.8710 C   0  0  0  0  0  0  0  0  0  0  0  0
   34.8310   28.6580   38.4430 C   0  0  0  0  0  0  0  0  0  0  0  0
   35.8740   29.6590   37.9280 C   0  0  0  0  0  0  0  0  0  0  0  0
   36.8580   29.6420   39.0670 C   0  0  1  0  0  0  0  0  0  0  0  0
   34.1580   28.4450   40.5010 H   0  0  0  0  0  0  0  0  0  0  0  0
   34.3460   30.1630   39.8920 H   0  0  0  0  0  0  0  0  0  0  0  0
   35.2210   27.6410   38.4490 H   0  0  0  0  0  0  0  0  0  0  0  0
   33.8650   28.7730   37.9440 H   0  0  0  0  0  0  0  0  0  0  0  0
   35.3790   30.6410   37.8150 H   0  0  0  0  0  0  0  0  0  0  0  0
   36.3190   29.2930   36.9800 H   0  0  0  0  0  0  0  0  0  0  0  0
   37.6080   28.8430   38.7890 H   0  0  0  0  0  0  0  0  0  0  0  0
   37.9910   28.8670   43.4200 C   0  0  0  0  0  0  0  0  0  0  0  0
   37.3580   29.4430   42.3230 C   0  0  0  0  0  0  0  0  0  0  0  0
   36.8180   28.5940   41.3410 C   0  0  0  0  0  0  0  0  0  0  0  0
   36.9490   27.2550   41.5250 N   0  0  0  0  0  0  0  0  0  0  0  0
   37.5630   26.7110   42.5870 C   0  0  0  0  0  0  0  0  0  0  0  0
   38.0900   27.5190   43.5460 N   0  0  0  0  0  0  0  0  0  0  0  0
   38.4160   29.4940   44.1940 H   0  0  0  0  0  0  0  0  0  0  0  0
   37.2670   30.5210   42.2010 H   0  0  0  0  0  0  0  0  0  0  0  0
   37.5900   25.6250   42.5940 H   0  0  0  0  0  0  0  0  0  0  0  0
   37.5700   30.8810   39.3090 C   0  0  0  0  0  0  0  0  0  0  0  0
   36.9800   32.0950   39.5790 C   0  0  0  0  0  0  0  0  0  0  0  0
   35.9010   32.1370   39.6150 H   0  0  0  0  0  0  0  0  0  0  0  0
   37.7080   33.2480   39.8020 C   0  0  0  0  0  0  0  0  0  0  0  0
   37.2620   34.2060   40.0150 H   0  0  0  0  0  0  0  0  0  0  0  0
   39.0860   33.2070   39.7590 C   0  0  0  0  0  3  0  0  0  0  0  0
   39.6670   31.9960   39.4910 C   0  0  0  0  0  3  0  0  0  0  0  0
   38.9330   30.9160   39.2820 N   0  0  0  0  0  0  0  0  0  0  0  0
  1 15  1  0  0  0  0
  2  7  1  0  0  0  0
  2  1  1  0  0  0  0
  2  6  1  0  0  0  0
  3  8  1  0  0  0  0
  3  2  1  0  0  0  0
  4  3  1  0  0  0  0
  4  5  1  0  0  0  0
  5 12  1  6  0  0  0
  5 22  1  0  0  0  0
  5  1  1  0  0  0  0
  9  3  1  0  0  0  0
 10  4  1  0  0  0  0
 11  4  1  0  0  0  0
 13 18  1  0  0  0  0
 13 19  1  0  0  0  0
 14 13  2  0  0  0  0
 15 16  2  0  0  0  0
 15 14  1  0  0  0  0
 16 17  1  0  0  0  0
 17 21  1  0  0  0  0
 17 18  2  0  0  0  0
 20 14  1  0  0  0  0
 22 23  1  0  0  0  0
 23 24  1  0  0  0  0
 23 25  2  0  0  0  0
 25 26  1  0  0  0  0
 27 25  1  0  0  0  0
 28 27  2  0  0  0  0
 29 22  2  0  0  0  0
 29 28  1  0  0  0  0
M  END
>  <minimizedAffinity>
-4.83413935

$$$$

 OpenBabel03242512493D

 29 31  0  0  1  0  0  0  0  0999 V2000
   36.1040   29.0110   40.2420 N   0  0  0  0  0  0  0  0  0  0  0  0
   34.6960   29.1380   39.9480 C   0  0  0  0  0  0  0  0  0  0  0  0
   34.7220   28.6790   38.5050 C   0  0  0  0  0  0  0  0  0  0  0  0
   35.7810   29.6610   37.9880 C   0  0  0  0  0  0  0  0  0  0  0  0
   36.7940   29.5830   39.0990 C   0  0  1  0  0  0  0  0  0  0  0  0
   34.0960   28.4320   40.5750 H   0  0  0  0  0  0  0  0  0  0  0  0
   34.3220   30.1590   40.0060 H   0  0  0  0  0  0  0  0  0  0  0  0
   35.0800   27.6510   38.4740 H   0  0  0  0  0  0  0  0  0  0  0  0
   33.7460   28.8380   38.0360 H   0  0  0  0  0  0  0  0  0  0  0  0
   35.3150   30.6610   37.9140 H   0  0  0  0  0  0  0  0  0  0  0  0
   36.1890   29.3070   37.0200 H   0  0  0  0  0  0  0  0  0  0  0  0
   37.5110   28.7700   38.7810 H   0  0  0  0  0  0  0  0  0  0  0  0
   37.7540   26.6700   42.5950 C   0  0  0  0  0  0  0  0  0  0  0  0
   37.0700   27.1050   41.4650 C   0  0  0  0  0  0  0  0  0  0  0  0
   36.7800   28.4760   41.3460 C   0  0  0  0  0  0  0  0  0  0  0  0
   37.1880   29.2960   42.3490 N   0  0  0  0  0  0  0  0  0  0  0  0
   37.8470   28.8640   43.4350 C   0  0  0  0  0  0  0  0  0  0  0  0
   38.1350   27.5400   43.5650 N   0  0  0  0  0  0  0  0  0  0  0  0
   37.9930   25.6200   42.7170 H   0  0  0  0  0  0  0  0  0  0  0  0
   36.7540   26.4250   40.6750 H   0  0  0  0  0  0  0  0  0  0  0  0
   38.1060   29.6370   44.1520 H   0  0  0  0  0  0  0  0  0  0  0  0
   37.5510   30.7930   39.3550 C   0  0  0  0  0  0  0  0  0  0  0  0
   37.0060   32.0310   39.6050 C   0  0  0  0  0  0  0  0  0  0  0  0
   35.9280   32.1180   39.6150 H   0  0  0  0  0  0  0  0  0  0  0  0
   37.7760   33.1540   39.8430 C   0  0  0  0  0  0  0  0  0  0  0  0
   37.3640   34.1310   40.0400 H   0  0  0  0  0  0  0  0  0  0  0  0
   39.1510   33.0560   39.8340 C   0  0  0  0  0  3  0  0  0  0  0  0
   39.6870   31.8200   39.5830 C   0  0  0  0  0  3  0  0  0  0  0  0
   38.9140   30.7710   39.3610 N   0  0  0  0  0  0  0  0  0  0  0  0
  1 15  1  0  0  0  0
  2  7  1  0  0  0  0
  2  1  1  0  0  0  0
  2  6  1  0  0  0  0
  3  2  1  0  0  0  0
  4  3  1  0  0  0  0
  4  5  1  0  0  0  0
  5 12  1  6  0  0  0
  5 22  1  0  0  0  0
  5  1  1  0  0  0  0
  8  3  1  0  0  0  0
  9  3  1  0  0  0  0
 10  4  1  0  0  0  0
 11  4  1  0  0  0  0
 13 19  1  0  0  0  0
 13 18  1  0  0  0  0
 14 13  2  0  0  0  0
 15 14  1  0  0  0  0
 15 16  2  0  0  0  0
 16 17  1  0  0  0  0
 17 18  2  0  0  0  0
 17 21  1  0  0  0  0
 20 14  1  0  0  0  0
 22 29  2  0  0  0  0
 22 23  1  0  0  0  0
 23 24  1  0  0  0  0
 23 25  2  0  0  0  0
 25 26  1  0  0  0  0
 27 25  1  0  0  0  0
 28 27  2  0  0  0  0
 29 28  1  0  0  0  0
M  END
>  <minimizedAffinity>
-4.8291893

$$$$

 OpenBabel03242512493D

 29 31  0  0  1  0  0  0  0  0999 V2000
   36.7910   30.1680   39.0760 N   0  0  0  0  0  0  0  0  0  0  0  0
   36.5360   29.3940   37.8850 C   0  0  0  0  0  0  0  0  0  0  0  0
   35.0250   29.3420   37.9650 C   0  0  0  0  0  0  0  0  0  0  0  0
   34.9060   28.7690   39.3820 C   0  0  0  0  0  0  0  0  0  0  0  0
   35.9360   29.5980   40.1030 C   0  0  1  0  0  0  0  0  0  0  0  0
   36.8630   29.9530   36.9720 H   0  0  0  0  0  0  0  0  0  0  0  0
   36.9440   28.3850   37.9160 H   0  0  0  0  0  0  0  0  0  0  0  0
   34.6400   30.3600   37.9110 H   0  0  0  0  0  0  0  0  0  0  0  0
   34.6250   28.6620   37.2080 H   0  0  0  0  0  0  0  0  0  0  0  0
   35.1820   27.6980   39.3430 H   0  0  0  0  0  0  0  0  0  0  0  0
   33.8820   28.9320   39.7760 H   0  0  0  0  0  0  0  0  0  0  0  0
   35.3640   30.4860   40.5020 H   0  0  0  0  0  0  0  0  0  0  0  0
   39.8130   32.2760   39.4880 C   0  0  0  0  0  0  0  0  0  0  0  0
   39.0470   31.1420   39.2390 C   0  0  0  0  0  0  0  0  0  0  0  0
   37.6470   31.2510   39.3190 C   0  0  0  0  0  0  0  0  0  0  0  0
   37.1260   32.4630   39.6370 N   0  0  0  0  0  0  0  0  0  0  0  0
   37.8760   33.5500   39.8770 C   0  0  0  0  0  0  0  0  0  0  0  0
   39.2320   33.4610   39.8030 N   0  0  0  0  0  0  0  0  0  0  0  0
   40.8940   32.2250   39.4340 H   0  0  0  0  0  0  0  0  0  0  0  0
   39.4910   30.1810   38.9850 H   0  0  0  0  0  0  0  0  0  0  0  0
   37.3170   34.4480   40.1200 H   0  0  0  0  0  0  0  0  0  0  0  0
   36.6150   28.9490   41.2070 C   0  0  0  0  0  0  0  0  0  0  0  0
   36.7110   27.5890   41.3890 C   0  0  0  0  0  0  0  0  0  0  0  0
   36.2460   26.9450   40.6560 H   0  0  0  0  0  0  0  0  0  0  0  0
   37.3710   27.0220   42.4630 C   0  0  0  0  0  0  0  0  0  0  0  0
   37.4550   25.9590   42.6210 H   0  0  0  0  0  0  0  0  0  0  0  0
   37.9680   27.8330   43.4050 C   0  0  0  0  0  3  0  0  0  0  0  0
   37.8690   29.1860   43.2170 C   0  0  0  0  0  3  0  0  0  0  0  0
   37.2270   29.6880   42.1760 N   0  0  0  0  0  0  0  0  0  0  0  0
  1 15  1  0  0  0  0
  1  5  1  0  0  0  0
  2  7  1  0  0  0  0
  2  3  1  0  0  0  0
  2  1  1  0  0  0  0
  3  4  1  0  0  0  0
  4 11  1  0  0  0  0
  4  5  1  0  0  0  0
  5 12  1  1  0  0  0
  5 22  1  0  0  0  0
  6  2  1  0  0  0  0
  8  3  1  0  0  0  0
  9  3  1  0  0  0  0
 10  4  1  0  0  0  0
 13 18  1  0  0  0  0
 14 15  1  0  0  0  0
 14 13  2  0  0  0  0
 15 16  2  0  0  0  0
 16 17  1  0  0  0  0
 17 21  1  0  0  0  0
 18 17  2  0  0  0  0
 19 13  1  0  0  0  0
 20 14  1  0  0  0  0
 22 23  2  0  0  0  0
 22 29  1  0  0  0  0
 23 25  1  0  0  0  0
 24 23  1  0  0  0  0
 25 26  1  0  0  0  0
 25 27  2  0  0  0  0
 28 27  1  0  0  0  0
 29 28  2  0  0  0  0
M  END
>  <minimizedAffinity>
-4.8197484

$$$$

 OpenBabel03242512493D

 29 31  0  0  1  0  0  0  0  0999 V2000
   38.0830   29.2060   42.2630 N   0  0  0  0  0  0  0  0  0  0  0  0
   37.6210   28.8230   43.5760 C   0  0  0  0  0  0  0  0  0  0  0  0
   38.0810   27.3810   43.5690 C   0  0  0  0  0  0  0  0  0  0  0  0
   37.3880   26.9430   42.2730 C   0  0  0  0  0  0  0  0  0  0  0  0
   37.7020   28.1150   41.3830 C   0  0  1  0  0  0  0  0  0  0  0  0
   38.1580   29.4040   44.3690 H   0  0  0  0  0  0  0  0  0  0  0  0
   36.5400   28.8670   43.6960 H   0  0  0  0  0  0  0  0  0  0  0  0
   39.1660   27.3620   43.4700 H   0  0  0  0  0  0  0  0  0  0  0  0
   37.6940   26.8520   44.4450 H   0  0  0  0  0  0  0  0  0  0  0  0
   36.3050   26.8490   42.4790 H   0  0  0  0  0  0  0  0  0  0  0  0
   37.8350   25.9990   41.9010 H   0  0  0  0  0  0  0  0  0  0  0  0
   38.6660   27.8350   40.8650 H   0  0  0  0  0  0  0  0  0  0  0  0
   40.7330   31.6690   41.4550 C   0  0  0  0  0  0  0  0  0  0  0  0
   40.1500   30.5050   41.9460 C   0  0  0  0  0  0  0  0  0  0  0  0
   38.7600   30.3450   41.8090 C   0  0  0  0  0  0  0  0  0  0  0  0
   38.0670   31.3430   41.2020 N   0  0  0  0  0  0  0  0  0  0  0  0
   38.6410   32.4620   40.7330 C   0  0  0  0  0  0  0  0  0  0  0  0
   39.9850   32.6320   40.8580 N   0  0  0  0  0  0  0  0  0  0  0  0
   41.8010   31.8230   41.5440 H   0  0  0  0  0  0  0  0  0  0  0  0
   40.7300   29.7210   42.4280 H   0  0  0  0  0  0  0  0  0  0  0  0
   37.9570   33.1700   40.2740 H   0  0  0  0  0  0  0  0  0  0  0  0
   36.7090   28.4310   40.3740 C   0  0  0  0  0  0  0  0  0  0  0  0
   35.4340   28.8790   40.6300 C   0  0  0  0  0  0  0  0  0  0  0  0
   35.1390   29.0090   41.6620 H   0  0  0  0  0  0  0  0  0  0  0  0
   34.5260   29.1650   39.6280 C   0  0  0  0  0  0  0  0  0  0  0  0
   33.5230   29.5170   39.8120 H   0  0  0  0  0  0  0  0  0  0  0  0
   34.8900   29.0030   38.3080 C   0  0  0  0  0  3  0  0  0  0  0  0
   36.1610   28.5570   38.0600 C   0  0  0  0  0  3  0  0  0  0  0  0
   36.9990   28.2940   39.0490 N   0  0  0  0  0  0  0  0  0  0  0  0
  1  2  1  0  0  0  0
  2  7  1  0  0  0  0
  2  6  1  0  0  0  0
  3  2  1  0  0  0  0
  3  9  1  0  0  0  0
  4 10  1  0  0  0  0
  4  3  1  0  0  0  0
  5 12  1  6  0  0  0
  5  1  1  0  0  0  0
  5  4  1  0  0  0  0
  8  3  1  0  0  0  0
 11  4  1  0  0  0  0
 13 19  1  0  0  0  0
 13 14  1  0  0  0  0
 14 20  1  0  0  0  0
 15 14  2  0  0  0  0
 15  1  1  0  0  0  0
 16 15  1  0  0  0  0
 17 18  1  0  0  0  0
 17 16  2  0  0  0  0
 18 13  2  0  0  0  0
 21 17  1  0  0  0  0
 22 23  1  0  0  0  0
 22  5  1  0  0  0  0
 23 24  1  0  0  0  0
 25 26  1  0  0  0  0
 25 23  2  0  0  0  0
 27 25  1  0  0  0  0
 28 27  2  0  0  0  0
 28 29  1  0  0  0  0
 29 22  2  0  0  0  0
M  END
>  <minimizedAffinity>
-4.61759329

$$$$

 OpenBabel03242512493D

 29 31  0  0  1  0  0  0  0  0999 V2000
   38.5070   26.1130   41.7460 N   0  0  0  0  0  0  0  0  0  0  0  0
   39.9150   26.1740   42.0580 C   0  0  0  0  0  0  0  0  0  0  0  0
   39.8140   26.2220   43.5670 C   0  0  0  0  0  0  0  0  0  0  0  0
   38.8750   27.4290   43.6790 C   0  0  0  0  0  0  0  0  0  0  0  0
   37.8760   27.1020   42.6010 C   0  0  1  0  0  0  0  0  0  0  0  0
   40.4340   25.2390   41.7280 H   0  0  0  0  0  0  0  0  0  0  0  0
   40.4130   27.0700   41.6910 H   0  0  0  0  0  0  0  0  0  0  0  0
   39.3330   25.3070   43.9120 H   0  0  0  0  0  0  0  0  0  0  0  0
   40.7940   26.4170   44.0110 H   0  0  0  0  0  0  0  0  0  0  0  0
   39.4590   28.3400   43.4490 H   0  0  0  0  0  0  0  0  0  0  0  0
   38.4130   27.4620   44.6870 H   0  0  0  0  0  0  0  0  0  0  0  0
   37.0610   26.5230   43.1280 H   0  0  0  0  0  0  0  0  0  0  0  0
   36.1220   23.6830   40.2790 C   0  0  0  0  0  0  0  0  0  0  0  0
   36.7900   24.4190   41.2530 C   0  0  0  0  0  0  0  0  0  0  0  0
   37.7870   25.3220   40.8420 C   0  0  0  0  0  0  0  0  0  0  0  0
   38.0380   25.4200   39.5110 N   0  0  0  0  0  0  0  0  0  0  0  0
   37.3880   24.7040   38.5810 C   0  0  0  0  0  0  0  0  0  0  0  0
   36.4210   23.8260   38.9620 N   0  0  0  0  0  0  0  0  0  0  0  0
   35.3490   22.9800   40.5630 H   0  0  0  0  0  0  0  0  0  0  0  0
   36.5680   24.3200   42.3140 H   0  0  0  0  0  0  0  0  0  0  0  0
   37.7000   24.8910   37.5580 H   0  0  0  0  0  0  0  0  0  0  0  0
   37.2750   28.2360   41.9260 C   0  0  0  0  0  0  0  0  0  0  0  0
   36.0600   28.2210   41.2810 C   0  0  0  0  0  0  0  0  0  0  0  0
   35.5010   27.2960   41.2720 H   0  0  0  0  0  0  0  0  0  0  0  0
   35.5330   29.3340   40.6520 C   0  0  0  0  0  0  0  0  0  0  0  0
   34.5830   29.3390   40.1420 H   0  0  0  0  0  0  0  0  0  0  0  0
   36.2370   30.5200   40.6570 C   0  0  0  0  0  3  0  0  0  0  0  0
   37.4460   30.5270   41.3010 C   0  0  0  0  0  3  0  0  0  0  0  0
   37.9130   29.4400   41.8900 N   0  0  0  0  0  0  0  0  0  0  0  0
  1  2  1  0  0  0  0
  1  5  1  0  0  0  0
  2  3  1  0  0  0  0
  3  4  1  0  0  0  0
  3  8  1  0  0  0  0
  3  9  1  0  0  0  0
  4 11  1  0  0  0  0
  5 12  1  1  0  0  0
  5  4  1  0  0  0  0
  6  2  1  0  0  0  0
  7  2  1  0  0  0  0
 10  4  1  0  0  0  0
 13 19  1  0  0  0  0
 13 14  1  0  0  0  0
 14 20  1  0  0  0  0
 15 14  2  0  0  0  0
 15  1  1  0  0  0  0
 16 15  1  0  0  0  0
 17 18  1  0  0  0  0
 17 16  2  0  0  0  0
 18 13  2  0  0  0  0
 21 17  1  0  0  0  0
 22  5  1  0  0  0  0
 23 22  2  0  0  0  0
 24 23  1  0  0  0  0
 25 27  2  0  0  0  0
 25 23  1  0  0  0  0
 26 25  1  0  0  0  0
 27 28  1  0  0  0  0
 28 29  2  0  0  0  0
 29 22  1  0  0  0  0
M  END
>  <minimizedAffinity>
-4.58672953

$$$$

 OpenBabel03242512493D

 29 31  0  0  1  0  0  0  0  0999 V2000
   38.8080   27.2540   42.4390 N   0  0  0  0  0  0  0  0  0  0  0  0
   38.4570   28.6540   42.4750 C   0  0  0  0  0  0  0  0  0  0  0  0
   37.5380   28.6290   43.6780 C   0  0  0  0  0  0  0  0  0  0  0  0
   36.5800   27.5340   43.1910 C   0  0  0  0  0  0  0  0  0  0  0  0
   37.5620   26.5350   42.6390 C   0  0  1  0  0  0  0  0  0  0  0  0
   39.3590   29.2830   42.6820 H   0  0  0  0  0  0  0  0  0  0  0  0
   37.9100   28.9970   41.5980 H   0  0  0  0  0  0  0  0  0  0  0  0
   38.1110   28.3030   44.5460 H   0  0  0  0  0  0  0  0  0  0  0  0
   37.0370   29.5940   43.7970 H   0  0  0  0  0  0  0  0  0  0  0  0
   35.9350   27.9680   42.4050 H   0  0  0  0  0  0  0  0  0  0  0  0
   36.0000   27.1270   44.0440 H   0  0  0  0  0  0  0  0  0  0  0  0
   37.7860   25.8410   43.5020 H   0  0  0  0  0  0  0  0  0  0  0  0
   41.7710   25.0770   42.9120 C   0  0  0  0  0  0  0  0  0  0  0  0
   40.5450   25.6760   43.1820 C   0  0  0  0  0  0  0  0  0  0  0  0
   40.0370   26.6060   42.2580 C   0  0  0  0  0  0  0  0  0  0  0  0
   40.7790   26.8650   41.1520 N   0  0  0  0  0  0  0  0  0  0  0  0
   41.9620   26.2820   40.9020 C   0  0  0  0  0  0  0  0  0  0  0  0
   42.4670   25.3800   41.7860 N   0  0  0  0  0  0  0  0  0  0  0  0
   42.1900   24.3560   43.6030 H   0  0  0  0  0  0  0  0  0  0  0  0
   39.9700   25.4500   44.0790 H   0  0  0  0  0  0  0  0  0  0  0  0
   42.4380   26.5910   39.9760 H   0  0  0  0  0  0  0  0  0  0  0  0
   37.0990   25.7430   41.5160 C   0  0  0  0  0  0  0  0  0  0  0  0
   36.8360   24.3920   41.5540 C   0  0  0  0  0  0  0  0  0  0  0  0
   36.9840   23.8730   42.4900 H   0  0  0  0  0  0  0  0  0  0  0  0
   36.3950   23.6850   40.4520 C   0  0  0  0  0  0  0  0  0  0  0  0
   36.1850   22.6270   40.4650 H   0  0  0  0  0  0  0  0  0  0  0  0
   36.2030   24.3360   39.2520 C   0  0  0  0  0  3  0  0  0  0  0  0
   36.4660   25.6800   39.2220 C   0  0  0  0  0  3  0  0  0  0  0  0
   36.8870   26.3200   40.3000 N   0  0  0  0  0  0  0  0  0  0  0  0
  1  2  1  0  0  0  0
  1  5  1  0  0  0  0
  2  6  1  0  0  0  0
  2  3  1  0  0  0  0
  3  9  1  0  0  0  0
  3  8  1  0  0  0  0
  4  3  1  0  0  0  0
  4 11  1  0  0  0  0
  5  4  1  0  0  0  0
  5 12  1  1  0  0  0
  7  2  1  0  0  0  0
 10  4  1  0  0  0  0
 13 14  1  0  0  0  0
 13 19  1  0  0  0  0
 14 20  1  0  0  0  0
 15  1  1  0  0  0  0
 15 14  2  0  0  0  0
 16 15  1  0  0  0  0
 17 16  2  0  0  0  0
 17 18  1  0  0  0  0
 18 13  2  0  0  0  0
 21 17  1  0  0  0  0
 22 23  1  0  0  0  0
 22  5  1  0  0  0  0
 23 24  1  0  0  0  0
 25 26  1  0  0  0  0
 25 23  2  0  0  0  0
 27 25  1  0  0  0  0
 28 27  2  0  0  0  0
 28 29  1  0  0  0  0
 29 22  2  0  0  0  0
M  END
>  <minimizedAffinity>
-4.56150341

$$$$
