
 OpenBabel03242518323D

 27 29  0  0  0  0  0  0  0  0999 V2000
   46.7680   33.6440   44.0410 C   0  0  0  0  0  0  0  0  0  0  0  0
   47.4580   32.4960   43.7350 C   0  0  0  0  0  0  0  0  0  0  0  0
   47.2930   31.6060   44.7770 C   0  0  0  0  0  0  0  0  0  0  0  0
   46.4960   32.2560   45.6960 C   0  0  0  0  0  0  0  0  0  0  0  0
   46.2140   33.4440   45.2240 O   0  0  0  0  0  0  0  0  0  0  0  0
   48.0080   32.4030   42.8050 H   0  0  0  0  0  0  0  0  0  0  0  0
   47.7150   30.6210   44.8230 H   0  0  0  0  0  0  0  0  0  0  0  0
   46.0450   31.7110   46.9740 C   0  0  0  0  0  0  0  0  0  0  0  0
   45.5550   30.4220   47.0370 C   0  0  0  0  0  0  0  0  0  0  0  0
   45.4800   29.7680   46.1750 H   0  0  0  0  0  0  0  0  0  0  0  0
   45.1150   29.8660   48.2440 C   0  0  0  0  0  0  0  0  0  0  0  0
   44.7220   28.8730   48.3690 H   0  0  0  0  0  0  0  0  0  0  0  0
   45.2110   30.6990   49.3390 C   0  0  0  0  0  0  0  0  0  0  0  0
   45.6940   31.9800   49.2950 C   0  0  0  0  0  0  0  0  0  0  0  0
   46.1070   32.4610   48.0870 N   0  0  0  0  0  0  0  0  0  0  0  0
   46.5930   34.8570   43.3550 O   0  0  0  0  0  0  0  0  0  0  0  0
   46.4180   34.8520   41.9640 C   0  0  0  0  0  0  0  0  0  0  0  0
   47.4570   34.9200   41.2620 O   0  0  0  0  0  0  0  0  0  0  0  0
   45.0580   34.7690   41.5290 C   0  0  0  0  0  0  0  0  0  0  0  0
   44.8760   33.8520   40.4920 C   0  0  0  0  0  0  0  0  0  0  0  0
   43.5800   33.6950   39.9930 C   0  0  0  0  0  0  0  0  0  0  0  0
   42.5930   34.4320   40.5390 N   0  0  0  0  0  0  0  0  0  0  0  0
   42.8190   35.3160   41.5520 C   0  0  0  0  0  0  0  0  0  0  0  0
   44.0710   35.4850   42.0510 N   0  0  0  0  0  0  0  0  0  0  0  0
   45.6630   33.2540   40.0440 H   0  0  0  0  0  0  0  0  0  0  0  0
   43.3460   33.0120   39.1960 H   0  0  0  0  0  0  0  0  0  0  0  0
   41.9580   35.8610   41.9230 H   0  0  0  0  0  0  0  0  0  0  0  0
  1  5  1  0  0  0  0
  2  1  2  0  0  0  0
  2  3  1  0  0  0  0
  3  7  1  0  0  0  0
  3  4  2  0  0  0  0
  4  8  1  0  0  0  0
  5  4  1  0  0  0  0
  6  2  1  0  0  0  0
  8  9  2  0  0  0  0
  8 15  1  0  0  0  0
  9 11  1  0  0  0  0
 10  9  1  0  0  0  0
 11 12  1  0  0  0  0
 11 13  2  0  0  0  0
 14 13  1  0  0  0  0
 15 14  2  0  0  0  0
 16  1  1  0  0  0  0
 17 16  1  0  0  0  0
 18 17  2  0  0  0  0
 19 17  1  0  0  0  0
 19 24  1  0  0  0  0
 20 19  2  0  0  0  0
 21 20  1  0  0  0  0
 21 22  2  0  0  0  0
 22 23  1  0  0  0  0
 23 27  1  0  0  0  0
 23 24  2  0  0  0  0
 25 20  1  0  0  0  0
 26 21  1  0  0  0  0
M  END
>  <minimizedAffinity>
-5.10383749

>  <minimizedRMSD>
8.19597816

$$$$
