
 OpenBabel03252504103D

 24 25  0  0  0  0  0  0  0  0999 V2000
   47.0030   34.2460   43.0570 C   0  0  0  0  0  0  0  0  0  0  0  0
   45.8420   34.6900   43.6890 C   0  0  0  0  0  0  0  0  0  0  0  0
   45.3100   33.9350   44.7390 C   0  0  0  0  0  0  0  0  0  0  0  0
   45.9590   32.7930   45.0940 N   0  0  0  0  0  0  0  0  0  0  0  0
   47.0860   32.3880   44.4590 C   0  0  0  0  0  0  0  0  0  0  0  0
   47.5990   33.1080   43.4550 N   0  0  0  0  0  0  0  0  0  0  0  0
   44.4110   34.2660   45.2370 H   0  0  0  0  0  0  0  0  0  0  0  0
   47.7180   31.1350   44.9180 C   0  0  0  0  0  0  0  0  0  0  0  0
   48.4770   30.4310   44.0040 C   0  0  0  0  0  0  0  0  0  0  0  0
   48.6230   30.7590   42.9870 H   0  0  0  0  0  0  0  0  0  0  0  0
   49.0270   29.2750   44.5210 C   0  0  0  0  0  0  0  0  0  0  0  0
   49.6420   28.6430   43.8960 H   0  0  0  0  0  0  0  0  0  0  0  0
   48.8590   28.8330   45.8130 C   0  0  0  0  0  0  0  0  0  0  0  0
   48.0700   29.6320   46.6420 C   0  0  0  0  0  0  0  0  0  0  0  0
   47.5080   30.7690   46.1950 N   0  0  0  0  0  0  0  0  0  0  0  0
   45.1980   35.9510   43.2350 C   0  0  0  0  0  0  0  0  0  0  0  0
   46.1760   36.9240   43.0170 F   0  0  0  0  0  0  0  0  0  0  0  0
   44.6100   35.7180   42.0040 F   0  0  0  0  0  0  0  0  0  0  0  0
   44.2920   36.4830   44.0820 F   0  0  0  0  0  0  0  0  0  0  0  0
   47.4940   34.9910   42.0510 O   0  0  0  0  0  0  0  0  0  0  0  0
   48.8340   35.1020   41.6550 C   0  0  0  0  0  0  0  0  0  0  0  0
   49.5870   35.3990   42.7880 F   0  0  0  0  0  0  0  0  0  0  0  0
   49.2210   33.9370   41.0350 F   0  0  0  0  0  0  0  0  0  0  0  0
   48.9810   36.2090   40.8290 F   0  0  0  0  0  0  0  0  0  0  0  0
  1  6  2  0  0  0  0
  1  2  1  0  0  0  0
  2  3  2  0  0  0  0
  3  4  1  0  0  0  0
  3  7  1  0  0  0  0
  5  8  1  0  0  0  0
  5  4  2  0  0  0  0
  6  5  1  0  0  0  0
  8 15  1  0  0  0  0
  9 11  1  0  0  0  0
  9  8  2  0  0  0  0
 10  9  1  0  0  0  0
 11 13  2  0  0  0  0
 12 11  1  0  0  0  0
 13 14  1  0  0  0  0
 15 14  2  0  0  0  0
 16  2  1  0  0  0  0
 16 19  1  0  0  0  0
 17 16  1  0  0  0  0
 18 16  1  0  0  0  0
 20  1  1  0  0  0  0
 21 20  1  0  0  0  0
 21 22  1  0  0  0  0
 23 21  1  0  0  0  0
 24 21  1  0  0  0  0
M  END
>  <minimizedAffinity>
-4.98676109

>  <minimizedRMSD>
0.69917655

$$$$
