
 OpenBabel03252503563D

 19 20  0  0  0  0  0  0  0  0999 V2000
   46.1710   34.7360   43.3770 C   0  0  0  0  0  0  0  0  0  0  0  0
   45.2080   35.7330   43.5060 C   0  0  0  0  0  0  0  0  0  0  0  0
   44.5070   35.7800   44.7280 C   0  0  0  0  0  0  0  0  0  0  0  0
   44.8180   34.8580   45.6850 N   0  0  0  0  0  0  0  0  0  0  0  0
   45.7560   33.9220   45.5020 C   0  0  0  0  0  0  0  0  0  0  0  0
   46.4450   33.8470   44.3470 N   0  0  0  0  0  0  0  0  0  0  0  0
   44.9800   36.4500   42.7370 H   0  0  0  0  0  0  0  0  0  0  0  0
   43.7480   36.5370   44.8780 H   0  0  0  0  0  0  0  0  0  0  0  0
   46.0110   32.9830   46.5890 C   0  0  0  0  0  0  0  0  0  0  0  0
   45.1870   32.8770   47.6870 C   0  0  0  0  0  0  0  0  0  0  0  0
   44.3070   33.5170   47.7500 H   0  0  0  0  0  0  0  0  0  0  0  0
   45.4560   31.9770   48.7020 C   0  0  0  0  0  0  0  0  0  0  0  0
   44.8170   31.8700   49.5890 H   0  0  0  0  0  0  0  0  0  0  0  0
   46.5870   31.1930   48.5620 C   0  0  0  0  0  0  0  0  0  0  0  0
   47.4290   31.2910   47.4550 C   0  0  0  0  0  0  0  0  0  0  0  0
   47.1110   32.1980   46.4860 N   0  0  0  0  0  0  0  0  0  0  0  0
   46.8550   34.7390   42.1040 C   0  0  0  0  0  0  0  0  0  0  0  0
   47.9140   35.3930   41.8370 O   0  0  0  0  0  0  0  0  0  0  0  0
   46.6470   34.2340   41.1680 H   0  0  0  0  0  0  0  0  0  0  0  0
  1  2  2  0  0  0  0
  1  6  1  0  0  0  0
  2  3  1  0  0  0  0
  3  8  1  0  0  0  0
  3  4  2  0  0  0  0
  5  4  1  0  0  0  0
  5  9  1  0  0  0  0
  6  5  2  0  0  0  0
  7  2  1  0  0  0  0
  9 10  1  0  0  0  0
 10 11  1  0  0  0  0
 10 12  2  0  0  0  0
 12 13  1  0  0  0  0
 14 12  1  0  0  0  0
 15 14  2  0  0  0  0
 16  9  2  0  0  0  0
 16 15  1  0  0  0  0
 17  1  1  0  0  0  0
 18 17  2  0  0  0  0
 19 17  1  0  0  0  0
M  END
>  <minimizedAffinity>
-4.8457222

>  <minimizedRMSD>
0.373733163

$$$$
