
 OpenBabel03252503053D

 19 20  0  0  0  0  0  0  0  0999 V2000
   45.2690   36.1630   43.1760 C   0  0  0  0  0  0  0  0  0  0  0  0
   45.8700   34.9180   42.9060 C   0  0  0  0  0  0  0  0  0  0  0  0
   45.8270   33.9510   43.8970 C   0  0  0  0  0  0  0  0  0  0  0  0
   45.2240   34.2240   45.0710 N   0  0  0  0  0  0  0  0  0  0  0  0
   44.6460   35.4410   45.3170 C   0  0  0  0  0  0  0  0  0  0  0  0
   44.6840   36.3730   44.3660 N   0  0  0  0  0  0  0  0  0  0  0  0
   45.2690   36.9590   42.4410 H   0  0  0  0  0  0  0  0  0  0  0  0
   44.1730   35.6150   46.2770 H   0  0  0  0  0  0  0  0  0  0  0  0
   46.4460   32.6530   43.6300 C   0  0  0  0  0  0  0  0  0  0  0  0
   45.6490   31.5750   43.2900 C   0  0  0  0  0  0  0  0  0  0  0  0
   44.5710   31.6510   43.2130 H   0  0  0  0  0  0  0  0  0  0  0  0
   46.2810   30.3700   43.0480 C   0  0  0  0  0  0  0  0  0  0  0  0
   45.6310   29.5360   42.7830 H   0  0  0  0  0  0  0  0  0  0  0  0
   47.6600   30.1810   43.1230 C   0  0  0  0  0  0  0  0  0  0  0  0
   48.3830   31.3080   43.4690 C   0  0  0  0  0  0  0  0  0  0  0  0
   47.7750   32.4880   43.7060 N   0  0  0  0  0  0  0  0  0  0  0  0
   46.4950   34.6800   41.6440 C   0  0  0  0  0  0  0  0  0  0  0  0
   47.6610   35.1330   41.4660 O   0  0  0  0  0  0  0  0  0  0  0  0
   45.9870   34.1310   40.8690 H   0  0  0  0  0  0  0  0  0  0  0  0
  1  6  1  0  0  0  0
  2  1  2  0  0  0  0
  2  3  1  0  0  0  0
  3  4  2  0  0  0  0
  4  5  1  0  0  0  0
  5  8  1  0  0  0  0
  6  5  2  0  0  0  0
  7  1  1  0  0  0  0
  9 16  1  0  0  0  0
  9  3  1  0  0  0  0
 10  9  2  0  0  0  0
 11 10  1  0  0  0  0
 12 14  2  0  0  0  0
 12 10  1  0  0  0  0
 13 12  1  0  0  0  0
 14 15  1  0  0  0  0
 15 16  2  0  0  0  0
 17  2  1  0  0  0  0
 18 17  2  0  0  0  0
 19 17  1  0  0  0  0
M  END
>  <minimizedAffinity>
-3.56479883

>  <minimizedRMSD>
1.00906289

$$$$
