
 OpenBabel03252508323D

 31 33  0  0  1  0  0  0  0  0999 V2000
   44.3590   34.4110   41.9810 N   0  0  0  0  0  0  0  0  0  0  0  0
   44.6450   33.4460   40.9680 C   0  0  1  0  0  0  0  0  0  0  0  0
   44.0350   33.7190   39.6460 C   0  0  0  0  0  0  0  0  0  0  0  0
   42.8010   34.3700   39.6060 N   0  0  0  0  0  0  0  0  0  0  0  0
   42.4540   35.2140   40.6820 C   0  0  0  0  0  0  0  0  0  0  0  0
   43.6670   35.5760   41.5170 C   0  0  0  0  0  0  0  0  0  0  0  0
   44.3010   32.4420   41.3560 H   0  0  0  0  0  0  0  0  0  0  0  0
   44.7660   34.2580   39.0070 H   0  0  0  0  0  0  0  0  0  0  0  0
   43.9150   32.7180   39.1380 H   0  0  0  0  0  0  0  0  0  0  0  0
   42.6910   34.8960   38.7060 H   0  0  0  0  0  0  0  0  0  0  0  0
   42.0070   36.2030   40.3820 H   0  0  0  0  0  0  0  0  0  0  0  0
   41.7250   34.7090   41.3330 H   0  0  0  0  0  0  0  0  0  0  0  0
   44.3080   36.1970   40.8220 H   0  0  0  0  0  0  0  0  0  0  0  0
   43.3190   36.2780   42.2670 H   0  0  0  0  0  0  0  0  0  0  0  0
   44.6230   35.1750   44.2200 C   0  0  0  0  0  0  0  0  0  0  0  0
   44.7720   34.1410   43.3030 C   0  0  0  0  0  0  0  0  0  0  0  0
   45.3160   32.9560   43.7630 C   0  0  0  0  0  0  0  0  0  0  0  0
   45.6920   32.8000   45.0570 N   0  0  0  0  0  0  0  0  0  0  0  0
   45.5320   33.8350   45.9340 C   0  0  0  0  0  0  0  0  0  0  0  0
   45.0100   34.9840   45.5130 N   0  0  0  0  0  0  0  0  0  0  0  0
   44.2260   36.1660   44.0690 H   0  0  0  0  0  0  0  0  0  0  0  0
   45.4300   32.1600   43.0680 H   0  0  0  0  0  0  0  0  0  0  0  0
   45.8480   33.6540   46.9500 H   0  0  0  0  0  0  0  0  0  0  0  0
   46.1090   33.3090   40.7410 C   0  0  0  0  0  0  0  0  0  0  0  0
   46.9320   34.4130   40.6340 C   0  0  0  0  0  0  0  0  0  0  0  0
   46.5560   35.4070   40.7150 H   0  0  0  0  0  0  0  0  0  0  0  0
   48.2980   34.3440   40.4160 C   0  0  0  0  0  0  0  0  0  0  0  0
   48.9270   35.2200   40.3350 H   0  0  0  0  0  0  0  0  0  0  0  0
   48.9020   33.1210   40.2930 C   0  0  0  0  0  3  0  0  0  0  0  0
   48.0800   32.0200   40.4000 C   0  0  0  0  0  3  0  0  0  0  0  0
   46.7790   32.1260   40.6090 N   0  0  0  0  0  0  0  0  0  0  0  0
  1 16  1  0  0  0  0
  2  7  1  1  0  0  0
  2  1  1  0  0  0  0
  3  2  1  0  0  0  0
  4  3  1  0  0  0  0
  4  5  1  0  0  0  0
  5 12  1  0  0  0  0
  5  6  1  0  0  0  0
  6  1  1  0  0  0  0
  6 14  1  0  0  0  0
  8  3  1  0  0  0  0
  9  3  1  0  0  0  0
 10  4  1  0  0  0  0
 11  5  1  0  0  0  0
 13  6  1  0  0  0  0
 15 20  1  0  0  0  0
 16 17  1  0  0  0  0
 16 15  2  0  0  0  0
 17 18  2  0  0  0  0
 18 19  1  0  0  0  0
 19 23  1  0  0  0  0
 20 19  2  0  0  0  0
 21 15  1  0  0  0  0
 22 17  1  0  0  0  0
 24  2  1  0  0  0  0
 25 26  1  0  0  0  0
 25 24  1  0  0  0  0
 27 25  2  0  0  0  0
 28 27  1  0  0  0  0
 29 30  2  0  0  0  0
 29 27  1  0  0  0  0
 30 31  1  0  0  0  0
 31 24  2  0  0  0  0
M  END
>  <minimizedAffinity>
-4.35472298

>  <minimizedRMSD>
0.22441642

$$$$
