
 OpenBabel03252502463D

 44 47  0  0  1  0  0  0  0  0999 V2000
   48.7990   34.8040   41.5160 C   0  0  1  0  0  0  0  0  0  0  0  0
   49.9470   34.9210   42.4650 C   0  0  0  0  0  0  0  0  0  0  0  0
   49.2950   33.6190   42.2010 C   0  0  2  0  0  0  0  0  0  0  0  0
   49.0250   34.9970   40.4710 H   0  0  0  0  0  0  0  0  0  0  0  0
   49.7380   35.4790   43.4130 H   0  0  0  0  0  0  0  0  0  0  0  0
   50.9620   35.1570   42.0720 H   0  0  0  0  0  0  0  0  0  0  0  0
   48.8380   33.1590   43.0810 H   0  0  0  0  0  0  0  0  0  0  0  0
   50.0990   32.7490   41.3630 N   0  0  0  0  0  0  0  0  0  0  0  0
   49.4340   32.2540   40.2130 C   0  0  0  0  0  0  0  0  0  0  0  0
   50.4390   31.3820   39.4890 C   0  0  0  0  0  0  0  0  0  0  0  0
   50.8420   30.2590   40.2790 N   0  0  0  0  0  0  0  0  0  0  0  0
   50.7420   30.4780   41.7000 C   0  0  0  0  0  0  0  0  0  0  0  0
   51.0400   31.9430   42.0170 C   0  0  0  0  0  0  0  0  0  0  0  0
   49.2020   33.1060   39.5420 H   0  0  0  0  0  0  0  0  0  0  0  0
   48.4820   31.7360   40.4140 H   0  0  0  0  0  0  0  0  0  0  0  0
   50.0500   31.0720   38.5000 H   0  0  0  0  0  0  0  0  0  0  0  0
   51.3300   32.0150   39.2900 H   0  0  0  0  0  0  0  0  0  0  0  0
   51.8440   30.0120   40.0820 H   0  0  0  0  0  0  0  0  0  0  0  0
   49.6800   30.3130   41.9830 H   0  0  0  0  0  0  0  0  0  0  0  0
   51.4040   29.8010   42.2610 H   0  0  0  0  0  0  0  0  0  0  0  0
   52.1120   32.0980   41.7060 H   0  0  0  0  0  0  0  0  0  0  0  0
   50.9450   32.0370   43.1280 H   0  0  0  0  0  0  0  0  0  0  0  0
   47.4780   35.3540   41.9590 C   0  0  0  0  0  0  0  0  0  0  0  0
   47.0450   36.0660   41.2250 H   0  0  0  0  0  0  0  0  0  0  0  0
   47.6040   35.9780   42.8910 H   0  0  0  0  0  0  0  0  0  0  0  0
   46.5920   34.1710   42.2340 C   0  0  0  0  0  0  0  0  0  0  0  0
   47.0110   33.1930   42.0540 H   0  0  0  0  0  0  0  0  0  0  0  0
   45.7180   34.2580   41.5300 H   0  0  0  0  0  0  0  0  0  0  0  0
   44.5150   35.5680   45.0230 C   0  0  0  0  0  0  0  0  0  0  0  0
   45.0940   35.3960   43.7460 C   0  0  0  0  0  0  0  0  0  0  0  0
   45.9750   34.3530   43.5900 C   0  0  0  0  0  0  0  0  0  0  0  0
   46.2440   33.5480   44.6480 N   0  0  0  0  0  0  0  0  0  0  0  0
   45.6940   33.7250   45.8280 C   0  0  0  0  0  0  0  0  0  0  0  0
   44.8370   34.7160   46.0360 N   0  0  0  0  0  0  0  0  0  0  0  0
   43.8130   36.3930   45.1640 H   0  0  0  0  0  0  0  0  0  0  0  0
   44.8330   36.0780   42.9450 H   0  0  0  0  0  0  0  0  0  0  0  0
   46.0350   32.8070   46.9360 C   0  0  0  0  0  0  0  0  0  0  0  0
   45.1360   32.5830   47.9580 C   0  0  0  0  0  0  0  0  0  0  0  0
   44.1970   33.1160   47.8780 H   0  0  0  0  0  0  0  0  0  0  0  0
   45.4630   31.7250   48.9890 C   0  0  0  0  0  0  0  0  0  0  0  0
   44.6510   31.6480   49.7220 H   0  0  0  0  0  0  0  0  0  0  0  0
   46.6820   31.0820   49.0180 C   0  0  0  0  0  0  0  0  0  0  0  0
   47.5310   31.3490   47.9700 C   0  0  0  0  0  0  0  0  0  0  0  0
   47.2150   32.1810   46.9700 N   0  0  0  0  0  0  0  0  0  0  0  0
  1  4  1  6  0  0  0
  1 23  1  0  0  0  0
  1  3  1  0  0  0  0
  1  2  1  0  0  0  0
  2  5  1  0  0  0  0
  3  2  1  0  0  0  0
  3  7  1  1  0  0  0
  6  2  1  0  0  0  0
  8 13  1  0  0  0  0
  8  3  1  0  0  0  0
  9 15  1  0  0  0  0
  9  8  1  0  0  0  0
 10  9  1  0  0  0  0
 10 11  1  0  0  0  0
 11 12  1  0  0  0  0
 12 19  1  0  0  0  0
 12 13  1  0  0  0  0
 12 20  1  0  0  0  0
 13 22  1  0  0  0  0
 14  9  1  0  0  0  0
 16 10  1  0  0  0  0
 17 10  1  0  0  0  0
 18 11  1  0  0  0  0
 21 13  1  0  0  0  0
 23 26  1  0  0  0  0
 23 25  1  0  0  0  0
 24 23  1  0  0  0  0
 26 31  1  0  0  0  0
 27 26  1  0  0  0  0
 28 26  1  0  0  0  0
 29 35  1  0  0  0  0
 29 34  1  0  0  0  0
 30 29  2  0  0  0  0
 31 30  1  0  0  0  0
 31 32  2  0  0  0  0
 32 33  1  0  0  0  0
 33 34  2  0  0  0  0
 33 37  1  0  0  0  0
 36 30  1  0  0  0  0
 37 44  2  0  0  0  0
 37 38  1  0  0  0  0
 38 40  2  0  0  0  0
 39 38  1  0  0  0  0
 40 42  1  0  0  0  0
 40 41  1  0  0  0  0
 43 42  2  0  0  0  0
 44 43  1  0  0  0  0
M  END
>  <minimizedAffinity>
-6.11181211

>  <minimizedRMSD>
0.686033249

$$$$
