
 OpenBabel03252502493D

 44 47  0  0  1  0  0  0  0  0999 V2000
   36.8400   29.0820   41.1130 C   0  0  1  0  0  0  0  0  0  0  0  0
   35.7160   29.6820   40.3340 C   0  0  0  0  0  0  0  0  0  0  0  0
   36.6210   30.5200   41.1520 C   0  0  2  0  0  0  0  0  0  0  0  0
   37.6420   28.6400   40.5280 H   0  0  0  0  0  0  0  0  0  0  0  0
   34.6870   29.4350   40.6980 H   0  0  0  0  0  0  0  0  0  0  0  0
   35.7620   29.6870   39.2210 H   0  0  0  0  0  0  0  0  0  0  0  0
   36.1230   31.0630   41.9590 H   0  0  0  0  0  0  0  0  0  0  0  0
   37.5620   31.2800   40.3480 N   0  0  0  0  0  0  0  0  0  0  0  0
   38.6970   31.7520   41.0540 C   0  0  0  0  0  0  0  0  0  0  0  0
   39.5360   32.5060   40.0420 C   0  0  0  0  0  0  0  0  0  0  0  0
   38.8450   33.6410   39.5110 N   0  0  0  0  0  0  0  0  0  0  0  0
   37.4100   33.5140   39.5310 C   0  0  0  0  0  0  0  0  0  0  0  0
   37.0200   32.0530   39.3130 C   0  0  0  0  0  0  0  0  0  0  0  0
   39.2970   30.8810   41.3870 H   0  0  0  0  0  0  0  0  0  0  0  0
   38.4700   32.3480   41.9530 H   0  0  0  0  0  0  0  0  0  0  0  0
   40.5170   32.7840   40.4740 H   0  0  0  0  0  0  0  0  0  0  0  0
   39.7500   31.8000   39.2110 H   0  0  0  0  0  0  0  0  0  0  0  0
   39.1200   33.8030   38.5110 H   0  0  0  0  0  0  0  0  0  0  0  0
   37.0720   33.7710   40.5590 H   0  0  0  0  0  0  0  0  0  0  0  0
   36.9350   34.1730   38.7890 H   0  0  0  0  0  0  0  0  0  0  0  0
   37.3860   31.8030   38.2780 H   0  0  0  0  0  0  0  0  0  0  0  0
   35.9010   32.0310   39.3400 H   0  0  0  0  0  0  0  0  0  0  0  0
   36.4890   28.2970   42.3400 C   0  0  0  0  0  0  0  0  0  0  0  0
   36.0370   27.3120   42.1020 H   0  0  0  0  0  0  0  0  0  0  0  0
   35.6820   28.8250   42.9270 H   0  0  0  0  0  0  0  0  0  0  0  0
   37.7480   28.1920   43.1560 C   0  0  0  0  0  0  0  0  0  0  0  0
   37.6930   28.5110   44.1850 H   0  0  0  0  0  0  0  0  0  0  0  0
   38.4990   28.8750   42.6680 H   0  0  0  0  0  0  0  0  0  0  0  0
   39.9930   25.2090   43.4760 C   0  0  0  0  0  0  0  0  0  0  0  0
   39.4480   26.4970   43.6730 C   0  0  0  0  0  0  0  0  0  0  0  0
   38.3270   26.8230   42.9490 C   0  0  0  0  0  0  0  0  0  0  0  0
   37.8010   25.9100   42.0930 N   0  0  0  0  0  0  0  0  0  0  0  0
   38.3230   24.7170   41.9250 C   0  0  0  0  0  0  0  0  0  0  0  0
   39.4050   24.3480   42.5970 N   0  0  0  0  0  0  0  0  0  0  0  0
   40.8850   24.9330   44.0440 H   0  0  0  0  0  0  0  0  0  0  0  0
   39.9210   27.1750   44.3730 H   0  0  0  0  0  0  0  0  0  0  0  0
   37.6950   23.7740   40.9750 C   0  0  0  0  0  0  0  0  0  0  0  0
   36.4480   24.0410   40.4480 C   0  0  0  0  0  0  0  0  0  0  0  0
   35.9910   24.9650   40.7800 H   0  0  0  0  0  0  0  0  0  0  0  0
   35.8690   23.1550   39.5610 C   0  0  0  0  0  0  0  0  0  0  0  0
   34.8830   23.5020   39.2310 H   0  0  0  0  0  0  0  0  0  0  0  0
   36.5190   21.9980   39.1890 C   0  0  0  0  0  3  0  0  0  0  0  0
   37.7570   21.7920   39.7490 C   0  0  0  0  0  3  0  0  0  0  0  0
   38.3200   22.6510   40.6090 N   0  0  0  0  0  0  0  0  0  0  0  0
  1  4  1  6  0  0  0
  1  3  1  0  0  0  0
  1 23  1  0  0  0  0
  2  5  1  0  0  0  0
  2  1  1  0  0  0  0
  2  3  1  0  0  0  0
  3  7  1  1  0  0  0
  6  2  1  0  0  0  0
  8  9  1  0  0  0  0
  8  3  1  0  0  0  0
  9 14  1  0  0  0  0
  9 15  1  0  0  0  0
 10 16  1  0  0  0  0
 10  9  1  0  0  0  0
 11 12  1  0  0  0  0
 11 10  1  0  0  0  0
 12 19  1  0  0  0  0
 13 22  1  0  0  0  0
 13 12  1  0  0  0  0
 13  8  1  0  0  0  0
 17 10  1  0  0  0  0
 18 11  1  0  0  0  0
 20 12  1  0  0  0  0
 21 13  1  0  0  0  0
 23 25  1  0  0  0  0
 23 26  1  0  0  0  0
 24 23  1  0  0  0  0
 26 27  1  0  0  0  0
 28 26  1  0  0  0  0
 29 30  1  0  0  0  0
 29 35  1  0  0  0  0
 30 36  1  0  0  0  0
 31 26  1  0  0  0  0
 31 30  2  0  0  0  0
 32 31  1  0  0  0  0
 33 32  2  0  0  0  0
 33 34  1  0  0  0  0
 34 29  2  0  0  0  0
 37 33  1  0  0  0  0
 38 39  1  0  0  0  0
 38 37  2  0  0  0  0
 40 38  1  0  0  0  0
 41 40  1  0  0  0  0
 42 40  2  0  0  0  0
 42 43  1  0  0  0  0
 43 44  2  0  0  0  0
 44 37  1  0  0  0  0
M  END
>  <minimizedAffinity>
-5.7454958

$$$$

 OpenBabel03252502493D

 44 47  0  0  1  0  0  0  0  0999 V2000
   40.4250   34.0920   39.9780 C   0  0  1  0  0  0  0  0  0  0  0  0
   41.7560   34.0010   40.6490 C   0  0  0  0  0  0  0  0  0  0  0  0
   41.2160   32.8780   39.8490 C   0  0  2  0  0  0  0  0  0  0  0  0
   40.3480   34.8150   39.1700 H   0  0  0  0  0  0  0  0  0  0  0  0
   41.7350   33.9630   41.7670 H   0  0  0  0  0  0  0  0  0  0  0  0
   42.6000   34.6280   40.2810 H   0  0  0  0  0  0  0  0  0  0  0  0
   41.0600   31.9570   40.4170 H   0  0  0  0  0  0  0  0  0  0  0  0
   41.8740   32.7390   38.5630 N   0  0  0  0  0  0  0  0  0  0  0  0
   42.5900   31.5280   38.3920 C   0  0  0  0  0  0  0  0  0  0  0  0
   43.1880   31.5870   37.0010 C   0  0  0  0  0  0  0  0  0  0  0  0
   44.1150   32.6680   36.8610 N   0  0  0  0  0  0  0  0  0  0  0  0
   43.8600   33.7740   37.7470 C   0  0  0  0  0  0  0  0  0  0  0  0
   42.3550   33.9160   37.9750 C   0  0  0  0  0  0  0  0  0  0  0  0
   41.8700   30.6840   38.3990 H   0  0  0  0  0  0  0  0  0  0  0  0
   43.3390   31.3160   39.1720 H   0  0  0  0  0  0  0  0  0  0  0  0
   43.6420   30.6150   36.7260 H   0  0  0  0  0  0  0  0  0  0  0  0
   42.3460   31.7470   36.2940 H   0  0  0  0  0  0  0  0  0  0  0  0
   44.0870   33.0510   35.8830 H   0  0  0  0  0  0  0  0  0  0  0  0
   44.2960   33.5110   38.7350 H   0  0  0  0  0  0  0  0  0  0  0  0
   44.3000   34.7080   37.3650 H   0  0  0  0  0  0  0  0  0  0  0  0
   41.9280   34.1630   36.9630 H   0  0  0  0  0  0  0  0  0  0  0  0
   42.2350   34.7870   38.6660 H   0  0  0  0  0  0  0  0  0  0  0  0
   39.2070   34.0330   40.8490 C   0  0  0  0  0  0  0  0  0  0  0  0
   39.1730   34.8550   41.5930 H   0  0  0  0  0  0  0  0  0  0  0  0
   39.2230   33.1000   41.4850 H   0  0  0  0  0  0  0  0  0  0  0  0
   38.0210   34.0180   39.9250 C   0  0  0  0  0  0  0  0  0  0  0  0
   38.0860   34.6240   39.0340 H   0  0  0  0  0  0  0  0  0  0  0  0
   37.1570   34.4390   40.5120 H   0  0  0  0  0  0  0  0  0  0  0  0
   36.9190   30.8860   38.1870 C   0  0  0  0  0  0  0  0  0  0  0  0
   37.2900   32.2310   38.4070 C   0  0  0  0  0  0  0  0  0  0  0  0
   37.6280   32.5890   39.6900 C   0  0  0  0  0  0  0  0  0  0  0  0
   37.5910   31.6530   40.6710 N   0  0  0  0  0  0  0  0  0  0  0  0
   37.2430   30.4060   40.4460 C   0  0  0  0  0  0  0  0  0  0  0  0
   36.9070   30.0050   39.2260 N   0  0  0  0  0  0  0  0  0  0  0  0
   36.6480   30.5850   37.1720 H   0  0  0  0  0  0  0  0  0  0  0  0
   37.2970   32.9260   37.5750 H   0  0  0  0  0  0  0  0  0  0  0  0
   37.2260   29.4410   41.5650 C   0  0  0  0  0  0  0  0  0  0  0  0
   36.4470   28.3030   41.4930 C   0  0  0  0  0  0  0  0  0  0  0  0
   35.8740   28.1880   40.5820 H   0  0  0  0  0  0  0  0  0  0  0  0
   36.4370   27.4070   42.5430 C   0  0  0  0  0  0  0  0  0  0  0  0
   35.7740   26.5580   42.3410 H   0  0  0  0  0  0  0  0  0  0  0  0
   37.1960   27.6270   43.6720 C   0  0  0  0  0  3  0  0  0  0  0  0
   37.9490   28.7780   43.6790 C   0  0  0  0  0  3  0  0  0  0  0  0
   37.9600   29.6480   42.6610 N   0  0  0  0  0  0  0  0  0  0  0  0
  1  4  1  6  0  0  0
  1  2  1  0  0  0  0
  1 23  1  0  0  0  0
  2  5  1  0  0  0  0
  3  1  1  0  0  0  0
  3  7  1  1  0  0  0
  3  2  1  0  0  0  0
  6  2  1  0  0  0  0
  8  3  1  0  0  0  0
  9 14  1  0  0  0  0
  9  8  1  0  0  0  0
  9 15  1  0  0  0  0
 10  9  1  0  0  0  0
 11 10  1  0  0  0  0
 11 12  1  0  0  0  0
 12 13  1  0  0  0  0
 12 19  1  0  0  0  0
 13  8  1  0  0  0  0
 13 22  1  0  0  0  0
 16 10  1  0  0  0  0
 17 10  1  0  0  0  0
 18 11  1  0  0  0  0
 20 12  1  0  0  0  0
 21 13  1  0  0  0  0
 23 25  1  0  0  0  0
 23 24  1  0  0  0  0
 26 28  1  0  0  0  0
 26 23  1  0  0  0  0
 27 26  1  0  0  0  0
 29 30  2  0  0  0  0
 29 34  1  0  0  0  0
 30 31  1  0  0  0  0
 31 26  1  0  0  0  0
 31 32  2  0  0  0  0
 33 32  1  0  0  0  0
 33 37  1  0  0  0  0
 34 33  2  0  0  0  0
 35 29  1  0  0  0  0
 36 30  1  0  0  0  0
 37 44  1  0  0  0  0
 38 37  2  0  0  0  0
 38 40  1  0  0  0  0
 39 38  1  0  0  0  0
 40 42  2  0  0  0  0
 41 40  1  0  0  0  0
 42 43  1  0  0  0  0
 44 43  2  0  0  0  0
M  END
>  <minimizedAffinity>
-5.59983349

$$$$

 OpenBabel03252502493D

 44 47  0  0  1  0  0  0  0  0999 V2000
   38.9590   29.6210   42.7010 C   0  0  1  0  0  0  0  0  0  0  0  0
   40.2740   30.3260   42.6400 C   0  0  0  0  0  0  0  0  0  0  0  0
   39.5820   29.8770   41.4110 C   0  0  2  0  0  0  0  0  0  0  0  0
   38.1190   30.2100   43.0590 H   0  0  0  0  0  0  0  0  0  0  0  0
   41.1510   29.7560   43.0390 H   0  0  0  0  0  0  0  0  0  0  0  0
   40.3320   31.4030   42.9170 H   0  0  0  0  0  0  0  0  0  0  0  0
   40.1420   29.1460   40.8220 H   0  0  0  0  0  0  0  0  0  0  0  0
   38.9790   30.9730   40.6740 N   0  0  0  0  0  0  0  0  0  0  0  0
   39.1000   32.2410   41.2960 C   0  0  0  0  0  0  0  0  0  0  0  0
   38.4130   33.2270   40.3720 C   0  0  0  0  0  0  0  0  0  0  0  0
   37.0190   32.9420   40.2230 N   0  0  0  0  0  0  0  0  0  0  0  0
   36.6810   31.5560   40.4230 C   0  0  0  0  0  0  0  0  0  0  0  0
   37.8280   30.6710   39.9340 C   0  0  0  0  0  0  0  0  0  0  0  0
   40.1720   32.5210   41.3290 H   0  0  0  0  0  0  0  0  0  0  0  0
   38.7230   32.2890   42.3310 H   0  0  0  0  0  0  0  0  0  0  0  0
   38.5890   34.2680   40.7080 H   0  0  0  0  0  0  0  0  0  0  0  0
   38.9040   33.1340   39.3800 H   0  0  0  0  0  0  0  0  0  0  0  0
   36.6940   33.1960   39.2570 H   0  0  0  0  0  0  0  0  0  0  0  0
   36.6120   31.3900   41.5200 H   0  0  0  0  0  0  0  0  0  0  0  0
   35.7330   31.2960   39.9290 H   0  0  0  0  0  0  0  0  0  0  0  0
   37.8980   30.8660   38.8270 H   0  0  0  0  0  0  0  0  0  0  0  0
   37.4970   29.6190   40.1190 H   0  0  0  0  0  0  0  0  0  0  0  0
   38.9560   28.2070   43.1970 C   0  0  0  0  0  0  0  0  0  0  0  0
   39.5150   28.0870   44.1490 H   0  0  0  0  0  0  0  0  0  0  0  0
   39.5110   27.5360   42.4770 H   0  0  0  0  0  0  0  0  0  0  0  0
   37.5150   27.7920   43.2970 C   0  0  0  0  0  0  0  0  0  0  0  0
   36.8000   28.5590   43.5520 H   0  0  0  0  0  0  0  0  0  0  0  0
   37.4590   27.0390   44.1330 H   0  0  0  0  0  0  0  0  0  0  0  0
   36.9900   24.8740   41.0050 C   0  0  0  0  0  0  0  0  0  0  0  0
   37.3110   25.6260   42.1560 C   0  0  0  0  0  0  0  0  0  0  0  0
   37.1720   26.9910   42.0750 C   0  0  0  0  0  0  0  0  0  0  0  0
   36.7390   27.5460   40.9150 N   0  0  0  0  0  0  0  0  0  0  0  0
   36.4440   26.8280   39.8550 C   0  0  0  0  0  0  0  0  0  0  0  0
   36.5610   25.5060   39.8770 N   0  0  0  0  0  0  0  0  0  0  0  0
   37.0950   23.7870   41.0530 H   0  0  0  0  0  0  0  0  0  0  0  0
   37.6520   25.1160   43.0500 H   0  0  0  0  0  0  0  0  0  0  0  0
   35.9780   27.5010   38.6250 C   0  0  0  0  0  0  0  0  0  0  0  0
   35.0100   28.4830   38.6910 C   0  0  0  0  0  0  0  0  0  0  0  0
   34.6390   28.7050   39.6830 H   0  0  0  0  0  0  0  0  0  0  0  0
   34.5800   29.1060   37.5360 C   0  0  0  0  0  0  0  0  0  0  0  0
   33.8120   29.8600   37.7480 H   0  0  0  0  0  0  0  0  0  0  0  0
   35.1030   28.7650   36.3080 C   0  0  0  0  0  3  0  0  0  0  0  0
   36.0640   27.7810   36.3120 C   0  0  0  0  0  3  0  0  0  0  0  0
   36.4810   27.1750   37.4310 N   0  0  0  0  0  0  0  0  0  0  0  0
  1  4  1  1  0  0  0
  1 23  1  0  0  0  0
  2  1  1  0  0  0  0
  2  6  1  0  0  0  0
  2  5  1  0  0  0  0
  3  7  1  6  0  0  0
  3  2  1  0  0  0  0
  3  1  1  0  0  0  0
  8  9  1  0  0  0  0
  8  3  1  0  0  0  0
  9 14  1  0  0  0  0
  9 15  1  0  0  0  0
 10 16  1  0  0  0  0
 10  9  1  0  0  0  0
 11 10  1  0  0  0  0
 11 12  1  0  0  0  0
 12 19  1  0  0  0  0
 13 22  1  0  0  0  0
 13 12  1  0  0  0  0
 13  8  1  0  0  0  0
 17 10  1  0  0  0  0
 18 11  1  0  0  0  0
 20 12  1  0  0  0  0
 21 13  1  0  0  0  0
 23 26  1  0  0  0  0
 23 24  1  0  0  0  0
 25 23  1  0  0  0  0
 26 27  1  0  0  0  0
 26 28  1  0  0  0  0
 29 35  1  0  0  0  0
 29 30  1  0  0  0  0
 30 36  1  0  0  0  0
 31 30  2  0  0  0  0
 31 26  1  0  0  0  0
 32 31  1  0  0  0  0
 33 34  1  0  0  0  0
 33 32  2  0  0  0  0
 34 29  2  0  0  0  0
 37 38  1  0  0  0  0
 37 33  1  0  0  0  0
 38 39  1  0  0  0  0
 40 41  1  0  0  0  0
 40 38  2  0  0  0  0
 42 43  2  0  0  0  0
 42 40  1  0  0  0  0
 43 44  1  0  0  0  0
 44 37  2  0  0  0  0
M  END
>  <minimizedAffinity>
-5.51215219

$$$$

 OpenBabel03252502493D

 44 47  0  0  1  0  0  0  0  0999 V2000
   38.8310   30.6490   41.3290 C   0  0  1  0  0  0  0  0  0  0  0  0
   38.7680   32.1400   41.2680 C   0  0  0  0  0  0  0  0  0  0  0  0
   39.9680   31.4000   40.8180 C   0  0  2  0  0  0  0  0  0  0  0  0
   38.1520   30.1170   40.6670 H   0  0  0  0  0  0  0  0  0  0  0  0
   38.7630   32.6660   42.2560 H   0  0  0  0  0  0  0  0  0  0  0  0
   38.0780   32.6310   40.5450 H   0  0  0  0  0  0  0  0  0  0  0  0
   40.8770   31.6330   41.3800 H   0  0  0  0  0  0  0  0  0  0  0  0
   40.0950   31.3630   39.3720 N   0  0  0  0  0  0  0  0  0  0  0  0
   40.7520   32.4850   38.8080 C   0  0  0  0  0  0  0  0  0  0  0  0
   40.7780   32.2460   37.3110 C   0  0  0  0  0  0  0  0  0  0  0  0
   39.4610   32.1830   36.7550 N   0  0  0  0  0  0  0  0  0  0  0  0
   38.4530   31.7510   37.6890 C   0  0  0  0  0  0  0  0  0  0  0  0
   39.0550   30.7430   38.6680 C   0  0  0  0  0  0  0  0  0  0  0  0
   41.8060   32.4920   39.1530 H   0  0  0  0  0  0  0  0  0  0  0  0
   40.3200   33.4620   39.0790 H   0  0  0  0  0  0  0  0  0  0  0  0
   41.4050   33.0050   36.8030 H   0  0  0  0  0  0  0  0  0  0  0  0
   41.2800   31.2680   37.1500 H   0  0  0  0  0  0  0  0  0  0  0  0
   39.4350   31.5100   35.9500 H   0  0  0  0  0  0  0  0  0  0  0  0
   38.1680   32.6370   38.2970 H   0  0  0  0  0  0  0  0  0  0  0  0
   37.5750   31.3350   37.1720 H   0  0  0  0  0  0  0  0  0  0  0  0
   39.3560   29.8630   38.0340 H   0  0  0  0  0  0  0  0  0  0  0  0
   38.2210   30.4550   39.3560 H   0  0  0  0  0  0  0  0  0  0  0  0
   38.9720   30.0170   42.6800 C   0  0  0  0  0  0  0  0  0  0  0  0
   39.0050   30.7650   43.5000 H   0  0  0  0  0  0  0  0  0  0  0  0
   39.9650   29.4870   42.7650 H   0  0  0  0  0  0  0  0  0  0  0  0
   37.8390   29.0370   42.8150 C   0  0  0  0  0  0  0  0  0  0  0  0
   36.9930   29.1730   42.1580 H   0  0  0  0  0  0  0  0  0  0  0  0
   37.4340   29.1630   43.8580 H   0  0  0  0  0  0  0  0  0  0  0  0
   40.0120   26.1090   43.6790 C   0  0  0  0  0  0  0  0  0  0  0  0
   39.4690   27.4130   43.6740 C   0  0  0  0  0  0  0  0  0  0  0  0
   38.4170   27.6530   42.8230 C   0  0  0  0  0  0  0  0  0  0  0  0
   37.9540   26.6450   42.0400 N   0  0  0  0  0  0  0  0  0  0  0  0
   38.4740   25.4390   42.0610 C   0  0  0  0  0  0  0  0  0  0  0  0
   39.4910   25.1510   42.8630 N   0  0  0  0  0  0  0  0  0  0  0  0
   40.8490   25.9020   44.3510 H   0  0  0  0  0  0  0  0  0  0  0  0
   39.8890   28.1700   44.3270 H   0  0  0  0  0  0  0  0  0  0  0  0
   37.9180   24.3900   41.1790 C   0  0  0  0  0  0  0  0  0  0  0  0
   36.5840   24.4120   40.8250 C   0  0  0  0  0  0  0  0  0  0  0  0
   36.0070   25.2320   41.2330 H   0  0  0  0  0  0  0  0  0  0  0  0
   36.0730   23.4280   40.0010 C   0  0  0  0  0  0  0  0  0  0  0  0
   35.0040   23.5790   39.8100 H   0  0  0  0  0  0  0  0  0  0  0  0
   36.8760   22.4160   39.5220 C   0  0  0  0  0  3  0  0  0  0  0  0
   38.1940   22.4530   39.9120 C   0  0  0  0  0  3  0  0  0  0  0  0
   38.6910   23.4070   40.7110 N   0  0  0  0  0  0  0  0  0  0  0  0
  1  4  1  6  0  0  0
  1 23  1  0  0  0  0
  2  1  1  0  0  0  0
  2  5  1  0  0  0  0
  3  2  1  0  0  0  0
  3  1  1  0  0  0  0
  3  7  1  1  0  0  0
  6  2  1  0  0  0  0
  8  3  1  0  0  0  0
  9 15  1  0  0  0  0
  9 14  1  0  0  0  0
  9  8  1  0  0  0  0
 10  9  1  0  0  0  0
 11 10  1  0  0  0  0
 11 12  1  0  0  0  0
 12 19  1  0  0  0  0
 12 13  1  0  0  0  0
 13 22  1  0  0  0  0
 13  8  1  0  0  0  0
 16 10  1  0  0  0  0
 17 10  1  0  0  0  0
 18 11  1  0  0  0  0
 20 12  1  0  0  0  0
 21 13  1  0  0  0  0
 23 25  1  0  0  0  0
 23 26  1  0  0  0  0
 23 24  1  0  0  0  0
 26 31  1  0  0  0  0
 26 28  1  0  0  0  0
 27 26  1  0  0  0  0
 29 35  1  0  0  0  0
 30 29  1  0  0  0  0
 30 36  1  0  0  0  0
 31 30  2  0  0  0  0
 32 33  2  0  0  0  0
 32 31  1  0  0  0  0
 33 34  1  0  0  0  0
 34 29  2  0  0  0  0
 37 33  1  0  0  0  0
 38 37  1  0  0  0  0
 38 39  1  0  0  0  0
 40 38  2  0  0  0  0
 41 40  1  0  0  0  0
 42 43  2  0  0  0  0
 42 40  1  0  0  0  0
 43 44  1  0  0  0  0
 44 37  2  0  0  0  0
M  END
>  <minimizedAffinity>
-5.48673296

$$$$

 OpenBabel03252502493D

 44 47  0  0  1  0  0  0  0  0999 V2000
   39.3290   26.3800   42.3670 C   0  0  1  0  0  0  0  0  0  0  0  0
   40.4180   25.3650   42.4800 C   0  0  0  0  0  0  0  0  0  0  0  0
   39.0130   25.0250   42.7950 C   0  0  2  0  0  0  0  0  0  0  0  0
   39.1080   26.7300   41.3620 H   0  0  0  0  0  0  0  0  0  0  0  0
   41.1590   25.5360   43.3020 H   0  0  0  0  0  0  0  0  0  0  0  0
   40.9180   24.9910   41.5580 H   0  0  0  0  0  0  0  0  0  0  0  0
   38.8470   24.7100   43.8280 H   0  0  0  0  0  0  0  0  0  0  0  0
   38.3870   24.2150   41.7650 N   0  0  0  0  0  0  0  0  0  0  0  0
   39.1810   24.0140   40.6080 C   0  0  0  0  0  0  0  0  0  0  0  0
   38.3510   23.1540   39.6750 C   0  0  0  0  0  0  0  0  0  0  0  0
   37.1450   23.8090   39.2720 N   0  0  0  0  0  0  0  0  0  0  0  0
   36.6630   24.7810   40.2190 C   0  0  0  0  0  0  0  0  0  0  0  0
   36.9960   24.3250   41.6390 C   0  0  0  0  0  0  0  0  0  0  0  0
   40.0740   23.4200   40.8870 H   0  0  0  0  0  0  0  0  0  0  0  0
   39.5460   24.9370   40.1280 H   0  0  0  0  0  0  0  0  0  0  0  0
   38.9530   22.8230   38.8060 H   0  0  0  0  0  0  0  0  0  0  0  0
   38.0850   22.2330   40.2380 H   0  0  0  0  0  0  0  0  0  0  0  0
   36.3740   23.1080   39.1400 H   0  0  0  0  0  0  0  0  0  0  0  0
   37.2410   25.7160   40.0530 H   0  0  0  0  0  0  0  0  0  0  0  0
   35.5840   24.9640   40.0980 H   0  0  0  0  0  0  0  0  0  0  0  0
   36.4190   23.3690   41.7840 H   0  0  0  0  0  0  0  0  0  0  0  0
   36.5950   25.1220   42.3150 H   0  0  0  0  0  0  0  0  0  0  0  0
   39.2800   27.4600   43.4040 C   0  0  0  0  0  0  0  0  0  0  0  0
   39.8640   28.3580   43.1140 H   0  0  0  0  0  0  0  0  0  0  0  0
   39.7800   27.1140   44.3560 H   0  0  0  0  0  0  0  0  0  0  0  0
   37.8260   27.7510   43.6510 C   0  0  0  0  0  0  0  0  0  0  0  0
   37.5590   28.1180   44.6300 H   0  0  0  0  0  0  0  0  0  0  0  0
   37.2830   26.7700   43.5390 H   0  0  0  0  0  0  0  0  0  0  0  0
   35.7360   28.8670   40.7480 C   0  0  0  0  0  0  0  0  0  0  0  0
   36.2170   28.0930   41.8270 C   0  0  0  0  0  0  0  0  0  0  0  0
   37.3120   28.5720   42.5060 C   0  0  0  0  0  0  0  0  0  0  0  0
   37.8710   29.7470   42.1180 N   0  0  0  0  0  0  0  0  0  0  0  0
   37.4070   30.4520   41.1110 C   0  0  0  0  0  0  0  0  0  0  0  0
   36.3530   30.0370   40.4200 N   0  0  0  0  0  0  0  0  0  0  0  0
   34.8660   28.5000   40.1970 H   0  0  0  0  0  0  0  0  0  0  0  0
   35.7210   27.1640   42.0810 H   0  0  0  0  0  0  0  0  0  0  0  0
   38.0680   31.7230   40.7460 C   0  0  0  0  0  0  0  0  0  0  0  0
   37.3400   32.7500   40.1800 C   0  0  0  0  0  0  0  0  0  0  0  0
   36.2860   32.5490   40.0350 H   0  0  0  0  0  0  0  0  0  0  0  0
   37.9660   33.9330   39.8410 C   0  0  0  0  0  0  0  0  0  0  0  0
   37.2610   34.6510   39.4050 H   0  0  0  0  0  0  0  0  0  0  0  0
   39.3150   34.1110   40.0590 C   0  0  0  0  0  3  0  0  0  0  0  0
   39.9810   33.0490   40.6250 C   0  0  0  0  0  3  0  0  0  0  0  0
   39.3750   31.9010   40.9540 N   0  0  0  0  0  0  0  0  0  0  0  0
  1  4  1  6  0  0  0
  1  2  1  0  0  0  0
  1  3  1  0  0  0  0
  1 23  1  0  0  0  0
  2  3  1  0  0  0  0
  2  5  1  0  0  0  0
  3  7  1  1  0  0  0
  6  2  1  0  0  0  0
  8  3  1  0  0  0  0
  9 14  1  0  0  0  0
  9  8  1  0  0  0  0
 10 17  1  0  0  0  0
 10  9  1  0  0  0  0
 11 10  1  0  0  0  0
 11 12  1  0  0  0  0
 12 13  1  0  0  0  0
 13  8  1  0  0  0  0
 13 21  1  0  0  0  0
 13 22  1  0  0  0  0
 15  9  1  0  0  0  0
 16 10  1  0  0  0  0
 18 11  1  0  0  0  0
 19 12  1  0  0  0  0
 20 12  1  0  0  0  0
 23 26  1  0  0  0  0
 23 25  1  0  0  0  0
 24 23  1  0  0  0  0
 26 27  1  0  0  0  0
 28 26  1  0  0  0  0
 29 30  1  0  0  0  0
 30 36  1  0  0  0  0
 30 31  2  0  0  0  0
 31 26  1  0  0  0  0
 32 31  1  0  0  0  0
 33 32  2  0  0  0  0
 34 29  2  0  0  0  0
 34 33  1  0  0  0  0
 35 29  1  0  0  0  0
 37 44  1  0  0  0  0
 37 33  1  0  0  0  0
 38 37  2  0  0  0  0
 39 38  1  0  0  0  0
 40 42  2  0  0  0  0
 40 38  1  0  0  0  0
 41 40  1  0  0  0  0
 42 43  1  0  0  0  0
 43 44  2  0  0  0  0
M  END
>  <minimizedAffinity>
-5.46448374

$$$$

 OpenBabel03252502493D

 44 47  0  0  1  0  0  0  0  0999 V2000
   37.3300   29.6090   41.0960 C   0  0  1  0  0  0  0  0  0  0  0  0
   36.5570   30.8460   40.7720 C   0  0  0  0  0  0  0  0  0  0  0  0
   38.0360   30.8550   40.8340 C   0  0  2  0  0  0  0  0  0  0  0  0
   37.2820   28.8120   40.3590 H   0  0  0  0  0  0  0  0  0  0  0  0
   35.9510   31.2730   41.6110 H   0  0  0  0  0  0  0  0  0  0  0  0
   36.0120   30.9140   39.8040 H   0  0  0  0  0  0  0  0  0  0  0  0
   38.4490   31.5200   41.5960 H   0  0  0  0  0  0  0  0  0  0  0  0
   38.6510   30.9170   39.5210 N   0  0  0  0  0  0  0  0  0  0  0  0
   39.5050   32.0300   39.3190 C   0  0  0  0  0  0  0  0  0  0  0  0
   40.0360   31.9010   37.9050 C   0  0  0  0  0  0  0  0  0  0  0  0
   38.9890   31.9690   36.9320 N   0  0  0  0  0  0  0  0  0  0  0  0
   37.7050   31.5400   37.4230 C   0  0  0  0  0  0  0  0  0  0  0  0
   37.8940   30.4240   38.4500 C   0  0  0  0  0  0  0  0  0  0  0  0
   40.3760   31.9390   40.0010 H   0  0  0  0  0  0  0  0  0  0  0  0
   39.0450   33.0110   39.5170 H   0  0  0  0  0  0  0  0  0  0  0  0
   40.8290   32.6500   37.7130 H   0  0  0  0  0  0  0  0  0  0  0  0
   40.5240   30.9060   37.8340 H   0  0  0  0  0  0  0  0  0  0  0  0
   39.2160   31.3610   36.1060 H   0  0  0  0  0  0  0  0  0  0  0  0
   37.2630   32.3950   37.9780 H   0  0  0  0  0  0  0  0  0  0  0  0
   37.0430   31.2240   36.6020 H   0  0  0  0  0  0  0  0  0  0  0  0
   38.3600   29.5740   37.8770 H   0  0  0  0  0  0  0  0  0  0  0  0
   36.8630   30.1430   38.7840 H   0  0  0  0  0  0  0  0  0  0  0  0
   37.2930   29.1220   42.5120 C   0  0  0  0  0  0  0  0  0  0  0  0
   36.8420   29.8610   43.2060 H   0  0  0  0  0  0  0  0  0  0  0  0
   38.3410   28.9890   42.9100 H   0  0  0  0  0  0  0  0  0  0  0  0
   36.5680   27.8050   42.4920 C   0  0  0  0  0  0  0  0  0  0  0  0
   35.7770   27.6920   41.7670 H   0  0  0  0  0  0  0  0  0  0  0  0
   36.0710   27.7020   43.4980 H   0  0  0  0  0  0  0  0  0  0  0  0
   38.1190   24.4080   42.1800 C   0  0  0  0  0  0  0  0  0  0  0  0
   37.1550   25.4400   42.1810 C   0  0  0  0  0  0  0  0  0  0  0  0
   37.5900   26.7070   42.4890 C   0  0  0  0  0  0  0  0  0  0  0  0
   38.9030   26.9070   42.7710 N   0  0  0  0  0  0  0  0  0  0  0  0
   39.7830   25.9320   42.7640 C   0  0  0  0  0  0  0  0  0  0  0  0
   39.4180   24.6900   42.4740 N   0  0  0  0  0  0  0  0  0  0  0  0
   37.7880   23.3950   41.9370 H   0  0  0  0  0  0  0  0  0  0  0  0
   36.1230   25.2080   41.9460 H   0  0  0  0  0  0  0  0  0  0  0  0
   41.1970   26.2250   43.0820 C   0  0  0  0  0  0  0  0  0  0  0  0
   41.5930   27.5130   43.3820 C   0  0  0  0  0  0  0  0  0  0  0  0
   40.8070   28.2570   43.3640 H   0  0  0  0  0  0  0  0  0  0  0  0
   42.9150   27.7760   43.6770 C   0  0  0  0  0  0  0  0  0  0  0  0
   43.0750   28.8390   43.8940 H   0  0  0  0  0  0  0  0  0  0  0  0
   43.8570   26.7700   43.6790 C   0  0  0  0  0  3  0  0  0  0  0  0
   43.3970   25.5110   43.3720 C   0  0  0  0  0  3  0  0  0  0  0  0
   42.1150   25.2540   43.0850 N   0  0  0  0  0  0  0  0  0  0  0  0
  1  4  1  6  0  0  0
  1 23  1  0  0  0  0
  2  3  1  0  0  0  0
  2  1  1  0  0  0  0
  2  5  1  0  0  0  0
  3  1  1  0  0  0  0
  3  7  1  1  0  0  0
  6  2  1  0  0  0  0
  8  3  1  0  0  0  0
  9 15  1  0  0  0  0
  9  8  1  0  0  0  0
  9 14  1  0  0  0  0
 10  9  1  0  0  0  0
 11 12  1  0  0  0  0
 11 10  1  0  0  0  0
 12 19  1  0  0  0  0
 12 13  1  0  0  0  0
 13 22  1  0  0  0  0
 13  8  1  0  0  0  0
 16 10  1  0  0  0  0
 17 10  1  0  0  0  0
 18 11  1  0  0  0  0
 20 12  1  0  0  0  0
 21 13  1  0  0  0  0
 23 25  1  0  0  0  0
 23 24  1  0  0  0  0
 26 23  1  0  0  0  0
 26 28  1  0  0  0  0
 27 26  1  0  0  0  0
 29 30  2  0  0  0  0
 29 34  1  0  0  0  0
 30 31  1  0  0  0  0
 31 26  1  0  0  0  0
 31 32  2  0  0  0  0
 33 32  1  0  0  0  0
 33 37  1  0  0  0  0
 34 33  2  0  0  0  0
 35 29  1  0  0  0  0
 36 30  1  0  0  0  0
 37 44  2  0  0  0  0
 37 38  1  0  0  0  0
 38 40  2  0  0  0  0
 39 38  1  0  0  0  0
 40 42  1  0  0  0  0
 40 41  1  0  0  0  0
 43 42  2  0  0  0  0
 44 43  1  0  0  0  0
M  END
>  <minimizedAffinity>
-5.37010241

$$$$

 OpenBabel03252502493D

 44 47  0  0  1  0  0  0  0  0999 V2000
   38.4370   28.3160   42.9950 C   0  0  1  0  0  0  0  0  0  0  0  0
   37.2650   27.6930   43.6800 C   0  0  0  0  0  0  0  0  0  0  0  0
   37.4620   27.5660   42.2180 C   0  0  2  0  0  0  0  0  0  0  0  0
   39.4100   27.9020   43.2460 H   0  0  0  0  0  0  0  0  0  0  0  0
   36.5070   28.4060   44.0910 H   0  0  0  0  0  0  0  0  0  0  0  0
   37.4260   26.8320   44.3680 H   0  0  0  0  0  0  0  0  0  0  0  0
   36.6600   28.0020   41.6170 H   0  0  0  0  0  0  0  0  0  0  0  0
   37.9140   26.2430   41.8260 N   0  0  0  0  0  0  0  0  0  0  0  0
   37.0260   25.1910   42.1590 C   0  0  0  0  0  0  0  0  0  0  0  0
   37.6820   23.9160   41.6670 C   0  0  0  0  0  0  0  0  0  0  0  0
   38.9260   23.6640   42.3250 N   0  0  0  0  0  0  0  0  0  0  0  0
   39.5840   24.8520   42.8070 C   0  0  0  0  0  0  0  0  0  0  0  0
   39.2970   26.0180   41.8610 C   0  0  0  0  0  0  0  0  0  0  0  0
   36.0890   25.3180   41.5790 H   0  0  0  0  0  0  0  0  0  0  0  0
   36.7400   25.1420   43.2230 H   0  0  0  0  0  0  0  0  0  0  0  0
   36.9870   23.0580   41.7530 H   0  0  0  0  0  0  0  0  0  0  0  0
   37.8750   24.0520   40.5810 H   0  0  0  0  0  0  0  0  0  0  0  0
   39.5990   23.1920   41.6710 H   0  0  0  0  0  0  0  0  0  0  0  0
   39.1100   25.1200   43.7760 H   0  0  0  0  0  0  0  0  0  0  0  0
   40.6650   24.6930   42.9330 H   0  0  0  0  0  0  0  0  0  0  0  0
   39.7660   25.7230   40.8810 H   0  0  0  0  0  0  0  0  0  0  0  0
   39.8350   26.8980   42.2950 H   0  0  0  0  0  0  0  0  0  0  0  0
   38.4380   29.8070   42.8460 C   0  0  0  0  0  0  0  0  0  0  0  0
   38.6230   30.3320   43.8060 H   0  0  0  0  0  0  0  0  0  0  0  0
   37.4150   30.1720   42.5370 H   0  0  0  0  0  0  0  0  0  0  0  0
   39.4540   30.1300   41.7860 C   0  0  0  0  0  0  0  0  0  0  0  0
   40.1530   29.3510   41.5230 H   0  0  0  0  0  0  0  0  0  0  0  0
   40.0810   30.9720   42.1930 H   0  0  0  0  0  0  0  0  0  0  0  0
   38.3640   32.6430   39.2290 C   0  0  0  0  0  0  0  0  0  0  0  0
   39.0410   32.0580   40.3210 C   0  0  0  0  0  0  0  0  0  0  0  0
   38.7360   30.7530   40.6240 C   0  0  0  0  0  0  0  0  0  0  0  0
   37.8160   30.0960   39.8740 N   0  0  0  0  0  0  0  0  0  0  0  0
   37.1970   30.6590   38.8610 C   0  0  0  0  0  0  0  0  0  0  0  0
   37.4520   31.9160   38.5240 N   0  0  0  0  0  0  0  0  0  0  0  0
   38.5950   33.6810   38.9740 H   0  0  0  0  0  0  0  0  0  0  0  0
   39.7650   32.6430   40.8760 H   0  0  0  0  0  0  0  0  0  0  0  0
   36.2050   29.8800   38.0890 C   0  0  0  0  0  0  0  0  0  0  0  0
   35.1540   29.2580   38.7310 C   0  0  0  0  0  0  0  0  0  0  0  0
   35.1230   29.3870   39.8060 H   0  0  0  0  0  0  0  0  0  0  0  0
   34.2330   28.5330   38.0020 C   0  0  0  0  0  0  0  0  0  0  0  0
   33.4590   28.1000   38.6480 H   0  0  0  0  0  0  0  0  0  0  0  0
   34.3430   28.4170   36.6330 C   0  0  0  0  0  3  0  0  0  0  0  0
   35.4120   29.0610   36.0560 C   0  0  0  0  0  3  0  0  0  0  0  0
   36.3070   29.7640   36.7620 N   0  0  0  0  0  0  0  0  0  0  0  0
  1  4  1  1  0  0  0
  1  2  1  0  0  0  0
  2  5  1  0  0  0  0
  2  6  1  0  0  0  0
  3  7  1  6  0  0  0
  3  1  1  0  0  0  0
  3  2  1  0  0  0  0
  8 13  1  0  0  0  0
  8  9  1  0  0  0  0
  8  3  1  0  0  0  0
  9 15  1  0  0  0  0
 10 16  1  0  0  0  0
 10  9  1  0  0  0  0
 10 11  1  0  0  0  0
 11 12  1  0  0  0  0
 12 20  1  0  0  0  0
 12 19  1  0  0  0  0
 13 22  1  0  0  0  0
 13 12  1  0  0  0  0
 14  9  1  0  0  0  0
 17 10  1  0  0  0  0
 18 11  1  0  0  0  0
 21 13  1  0  0  0  0
 23  1  1  0  0  0  0
 23 24  1  0  0  0  0
 25 23  1  0  0  0  0
 26 28  1  0  0  0  0
 26 23  1  0  0  0  0
 27 26  1  0  0  0  0
 29 30  1  0  0  0  0
 30 31  2  0  0  0  0
 30 36  1  0  0  0  0
 31 26  1  0  0  0  0
 32 31  1  0  0  0  0
 33 32  2  0  0  0  0
 34 33  1  0  0  0  0
 34 29  2  0  0  0  0
 35 29  1  0  0  0  0
 37 38  1  0  0  0  0
 37 33  1  0  0  0  0
 38 39  1  0  0  0  0
 40 41  1  0  0  0  0
 40 38  2  0  0  0  0
 42 40  1  0  0  0  0
 43 42  2  0  0  0  0
 43 44  1  0  0  0  0
 44 37  2  0  0  0  0
M  END
>  <minimizedAffinity>
-5.30569601

$$$$

 OpenBabel03252502493D

 44 47  0  0  1  0  0  0  0  0999 V2000
   40.7080   30.8610   41.8220 C   0  0  1  0  0  0  0  0  0  0  0  0
   41.8330   31.7920   41.5060 C   0  0  0  0  0  0  0  0  0  0  0  0
   41.2990   30.8560   40.4910 C   0  0  2  0  0  0  0  0  0  0  0  0
   39.7470   31.3270   42.0200 H   0  0  0  0  0  0  0  0  0  0  0  0
   42.8020   31.5750   42.0240 H   0  0  0  0  0  0  0  0  0  0  0  0
   41.6390   32.8870   41.4510 H   0  0  0  0  0  0  0  0  0  0  0  0
   42.0270   30.1280   40.1250 H   0  0  0  0  0  0  0  0  0  0  0  0
   40.4890   31.5210   39.4870 N   0  0  0  0  0  0  0  0  0  0  0  0
   39.7830   30.6470   38.6220 C   0  0  0  0  0  0  0  0  0  0  0  0
   39.0120   31.5360   37.6660 C   0  0  0  0  0  0  0  0  0  0  0  0
   39.8810   32.3400   36.8630 N   0  0  0  0  0  0  0  0  0  0  0  0
   41.1530   32.6200   37.4780 C   0  0  0  0  0  0  0  0  0  0  0  0
   40.9780   32.7370   38.9920 C   0  0  0  0  0  0  0  0  0  0  0  0
   39.0340   30.0860   39.2170 H   0  0  0  0  0  0  0  0  0  0  0  0
   40.4070   29.9000   38.1050 H   0  0  0  0  0  0  0  0  0  0  0  0
   38.3150   30.9370   37.0490 H   0  0  0  0  0  0  0  0  0  0  0  0
   38.3810   32.2060   38.2880 H   0  0  0  0  0  0  0  0  0  0  0  0
   39.4350   33.2680   36.6570 H   0  0  0  0  0  0  0  0  0  0  0  0
   41.8010   31.7320   37.3120 H   0  0  0  0  0  0  0  0  0  0  0  0
   41.6170   33.5240   37.0550 H   0  0  0  0  0  0  0  0  0  0  0  0
   40.3060   33.6280   39.1410 H   0  0  0  0  0  0  0  0  0  0  0  0
   41.9990   32.9530   39.3980 H   0  0  0  0  0  0  0  0  0  0  0  0
   41.0060   29.6940   42.7130 C   0  0  0  0  0  0  0  0  0  0  0  0
   40.5070   29.7730   43.7010 H   0  0  0  0  0  0  0  0  0  0  0  0
   42.1050   29.6660   42.9720 H   0  0  0  0  0  0  0  0  0  0  0  0
   40.6160   28.4600   41.9470 C   0  0  0  0  0  0  0  0  0  0  0  0
   41.2280   27.5830   42.0870 H   0  0  0  0  0  0  0  0  0  0  0  0
   40.7100   28.7220   40.8550 H   0  0  0  0  0  0  0  0  0  0  0  0
   37.3160   27.7590   43.5770 C   0  0  0  0  0  0  0  0  0  0  0  0
   38.7020   27.9680   43.4040 C   0  0  0  0  0  0  0  0  0  0  0  0
   39.1430   28.2400   42.1320 C   0  0  0  0  0  0  0  0  0  0  0  0
   38.2450   28.2960   41.1160 N   0  0  0  0  0  0  0  0  0  0  0  0
   36.9590   28.0990   41.2980 C   0  0  0  0  0  0  0  0  0  0  0  0
   36.4780   27.8320   42.5050 N   0  0  0  0  0  0  0  0  0  0  0  0
   36.9480   27.5410   44.5830 H   0  0  0  0  0  0  0  0  0  0  0  0
   39.3620   27.9080   44.2620 H   0  0  0  0  0  0  0  0  0  0  0  0
   36.0400   28.1750   40.1430 C   0  0  0  0  0  0  0  0  0  0  0  0
   35.0100   29.0950   40.1310 C   0  0  0  0  0  0  0  0  0  0  0  0
   34.9410   29.7280   41.0060 H   0  0  0  0  0  0  0  0  0  0  0  0
   34.1560   29.1580   39.0480 C   0  0  0  0  0  0  0  0  0  0  0  0
   33.3930   29.9340   39.1830 H   0  0  0  0  0  0  0  0  0  0  0  0
   34.3120   28.3150   37.9700 C   0  0  0  0  0  3  0  0  0  0  0  0
   35.3560   27.4230   38.0450 C   0  0  0  0  0  3  0  0  0  0  0  0
   36.1850   27.3600   39.0950 N   0  0  0  0  0  0  0  0  0  0  0  0
  1  4  1  1  0  0  0
  1 23  1  0  0  0  0
  2  1  1  0  0  0  0
  2  5  1  0  0  0  0
  3  7  1  6  0  0  0
  3  2  1  0  0  0  0
  3  1  1  0  0  0  0
  6  2  1  0  0  0  0
  8  3  1  0  0  0  0
  9 14  1  0  0  0  0
  9  8  1  0  0  0  0
 10 17  1  0  0  0  0
 10  9  1  0  0  0  0
 11 12  1  0  0  0  0
 11 10  1  0  0  0  0
 12 13  1  0  0  0  0
 13 21  1  0  0  0  0
 13 22  1  0  0  0  0
 13  8  1  0  0  0  0
 15  9  1  0  0  0  0
 16 10  1  0  0  0  0
 18 11  1  0  0  0  0
 19 12  1  0  0  0  0
 20 12  1  0  0  0  0
 23 25  1  0  0  0  0
 23 24  1  0  0  0  0
 26 27  1  0  0  0  0
 26 31  1  0  0  0  0
 26 23  1  0  0  0  0
 28 26  1  0  0  0  0
 29 35  1  0  0  0  0
 30 29  1  0  0  0  0
 30 36  1  0  0  0  0
 31 30  2  0  0  0  0
 32 33  2  0  0  0  0
 32 31  1  0  0  0  0
 33 34  1  0  0  0  0
 34 29  2  0  0  0  0
 37 33  1  0  0  0  0
 38 37  1  0  0  0  0
 38 39  1  0  0  0  0
 40 41  1  0  0  0  0
 40 38  2  0  0  0  0
 42 43  2  0  0  0  0
 42 40  1  0  0  0  0
 43 44  1  0  0  0  0
 44 37  2  0  0  0  0
M  END
>  <minimizedAffinity>
-5.28718376

$$$$

 OpenBabel03252502493D

 44 47  0  0  1  0  0  0  0  0999 V2000
   37.4690   30.6260   38.6730 C   0  0  1  0  0  0  0  0  0  0  0  0
   37.6950   31.4170   37.4260 C   0  0  0  0  0  0  0  0  0  0  0  0
   37.3730   32.0780   38.7100 C   0  0  2  0  0  0  0  0  0  0  0  0
   38.3350   30.0990   39.0650 H   0  0  0  0  0  0  0  0  0  0  0  0
   36.9130   31.3060   36.6320 H   0  0  0  0  0  0  0  0  0  0  0  0
   38.7160   31.4640   36.9840 H   0  0  0  0  0  0  0  0  0  0  0  0
   36.4430   32.6510   38.7000 H   0  0  0  0  0  0  0  0  0  0  0  0
   38.5250   32.7270   39.3100 N   0  0  0  0  0  0  0  0  0  0  0  0
   39.7700   32.3760   38.7330 C   0  0  0  0  0  0  0  0  0  0  0  0
   40.8210   33.1560   39.4960 C   0  0  0  0  0  0  0  0  0  0  0  0
   40.8610   32.7920   40.8790 N   0  0  0  0  0  0  0  0  0  0  0  0
   39.6100   32.2890   41.3870 C   0  0  0  0  0  0  0  0  0  0  0  0
   38.4490   32.9920   40.6840 C   0  0  0  0  0  0  0  0  0  0  0  0
   39.7930   32.7410   37.6850 H   0  0  0  0  0  0  0  0  0  0  0  0
   39.9790   31.2940   38.7000 H   0  0  0  0  0  0  0  0  0  0  0  0
   41.8130   33.0550   39.0140 H   0  0  0  0  0  0  0  0  0  0  0  0
   40.5450   34.2300   39.4180 H   0  0  0  0  0  0  0  0  0  0  0  0
   41.1140   33.6220   41.4700 H   0  0  0  0  0  0  0  0  0  0  0  0
   39.5440   31.2190   41.0930 H   0  0  0  0  0  0  0  0  0  0  0  0
   39.5450   32.3970   42.4800 H   0  0  0  0  0  0  0  0  0  0  0  0
   38.5430   34.0760   40.9760 H   0  0  0  0  0  0  0  0  0  0  0  0
   37.5190   32.5540   41.1260 H   0  0  0  0  0  0  0  0  0  0  0  0
   36.1940   29.8480   38.7760 C   0  0  0  0  0  0  0  0  0  0  0  0
   36.3140   28.7870   38.4690 H   0  0  0  0  0  0  0  0  0  0  0  0
   35.4280   30.2490   38.0500 H   0  0  0  0  0  0  0  0  0  0  0  0
   35.7090   30.0060   40.1910 C   0  0  0  0  0  0  0  0  0  0  0  0
   34.6440   29.9520   40.3530 H   0  0  0  0  0  0  0  0  0  0  0  0
   36.0120   31.0410   40.5150 H   0  0  0  0  0  0  0  0  0  0  0  0
   37.8810   28.8190   43.0050 C   0  0  0  0  0  0  0  0  0  0  0  0
   37.1100   29.6670   42.1800 C   0  0  0  0  0  0  0  0  0  0  0  0
   36.5280   29.1060   41.0690 C   0  0  0  0  0  0  0  0  0  0  0  0
   36.7150   27.7850   40.8180 N   0  0  0  0  0  0  0  0  0  0  0  0
   37.4360   27.0130   41.5990 C   0  0  0  0  0  0  0  0  0  0  0  0
   38.0210   27.5020   42.6850 N   0  0  0  0  0  0  0  0  0  0  0  0
   38.3510   29.2500   43.8920 H   0  0  0  0  0  0  0  0  0  0  0  0
   37.0030   30.7140   42.4410 H   0  0  0  0  0  0  0  0  0  0  0  0
   37.5960   25.5820   41.2630 C   0  0  0  0  0  0  0  0  0  0  0  0
   36.5780   24.8950   40.6340 C   0  0  0  0  0  0  0  0  0  0  0  0
   35.6890   25.4740   40.4180 H   0  0  0  0  0  0  0  0  0  0  0  0
   36.7360   23.5590   40.3240 C   0  0  0  0  0  0  0  0  0  0  0  0
   35.8460   23.1520   39.8290 H   0  0  0  0  0  0  0  0  0  0  0  0
   37.9020   22.8920   40.6330 C   0  0  0  0  0  3  0  0  0  0  0  0
   38.8760   23.6340   41.2580 C   0  0  0  0  0  3  0  0  0  0  0  0
   38.7240   24.9300   41.5600 N   0  0  0  0  0  0  0  0  0  0  0  0
  1  3  1  0  0  0  0
  1 23  1  0  0  0  0
  1  4  1  1  0  0  0
  2  1  1  0  0  0  0
  2  3  1  0  0  0  0
  3  7  1  1  0  0  0
  3  8  1  0  0  0  0
  5  2  1  0  0  0  0
  6  2  1  0  0  0  0
  8 13  1  0  0  0  0
  9  8  1  0  0  0  0
  9 10  1  0  0  0  0
 10 11  1  0  0  0  0
 11 12  1  0  0  0  0
 11 18  1  0  0  0  0
 12 20  1  0  0  0  0
 13 21  1  0  0  0  0
 13 22  1  0  0  0  0
 13 12  1  0  0  0  0
 14  9  1  0  0  0  0
 15  9  1  0  0  0  0
 16 10  1  0  0  0  0
 17 10  1  0  0  0  0
 19 12  1  0  0  0  0
 23 26  1  0  0  0  0
 24 23  1  0  0  0  0
 25 23  1  0  0  0  0
 26 27  1  0  0  0  0
 26 28  1  0  0  0  0
 26 31  1  0  0  0  0
 29 35  1  0  0  0  0
 30 36  1  0  0  0  0
 30 29  2  0  0  0  0
 31 30  1  0  0  0  0
 32 31  2  0  0  0  0
 32 33  1  0  0  0  0
 33 34  2  0  0  0  0
 34 29  1  0  0  0  0
 37 44  1  0  0  0  0
 37 33  1  0  0  0  0
 38 37  2  0  0  0  0
 39 38  1  0  0  0  0
 40 42  2  0  0  0  0
 40 38  1  0  0  0  0
 41 40  1  0  0  0  0
 42 43  1  0  0  0  0
 43 44  2  0  0  0  0
M  END
>  <minimizedAffinity>
-5.22198915

$$$$
