
 OpenBabel03242514413D

 31 33  0  0  1  0  0  0  0  0999 V2000
   45.1150   34.0610   41.3690 N   0  0  0  0  0  0  0  0  0  0  0  0
   43.9910   34.3000   40.4760 C   0  0  0  0  0  0  0  0  0  0  0  0
   44.0060   33.3690   39.2920 C   0  0  0  0  0  0  0  0  0  0  0  0
   45.2460   33.3480   38.6020 N   0  0  0  0  0  0  0  0  0  0  0  0
   46.4100   33.4500   39.3860 C   0  0  0  0  0  0  0  0  0  0  0  0
   46.2820   33.4240   40.8640 C   0  0  1  0  0  0  0  0  0  0  0  0
   44.0810   35.3570   40.1190 H   0  0  0  0  0  0  0  0  0  0  0  0
   43.0150   34.1920   40.9830 H   0  0  0  0  0  0  0  0  0  0  0  0
   43.2270   33.7630   38.5880 H   0  0  0  0  0  0  0  0  0  0  0  0
   43.7210   32.3550   39.6420 H   0  0  0  0  0  0  0  0  0  0  0  0
   45.2650   33.9240   37.7340 H   0  0  0  0  0  0  0  0  0  0  0  0
   47.0920   32.5970   39.1000 H   0  0  0  0  0  0  0  0  0  0  0  0
   46.9920   34.3540   39.0960 H   0  0  0  0  0  0  0  0  0  0  0  0
   46.2100   32.3470   41.1700 H   0  0  0  0  0  0  0  0  0  0  0  0
   44.6530   35.9970   44.5470 C   0  0  0  0  0  0  0  0  0  0  0  0
   44.6900   35.7440   43.1620 C   0  0  0  0  0  0  0  0  0  0  0  0
   45.0360   34.4650   42.7280 C   0  0  0  0  0  0  0  0  0  0  0  0
   45.3120   33.5590   43.7010 N   0  0  0  0  0  0  0  0  0  0  0  0
   45.2720   33.8190   45.0240 C   0  0  0  0  0  0  0  0  0  0  0  0
   44.9380   35.0530   45.4390 N   0  0  0  0  0  0  0  0  0  0  0  0
   44.3800   37.0050   44.8560 H   0  0  0  0  0  0  0  0  0  0  0  0
   44.4670   36.4780   42.4050 H   0  0  0  0  0  0  0  0  0  0  0  0
   45.5270   32.9600   45.6580 H   0  0  0  0  0  0  0  0  0  0  0  0
   47.5640   33.9620   41.4230 C   0  0  0  0  0  0  0  0  0  0  0  0
   47.9590   35.2760   41.1500 C   0  0  0  0  0  0  0  0  0  0  0  0
   47.3090   35.8870   40.5250 H   0  0  0  0  0  0  0  0  0  0  0  0
   49.1600   35.7520   41.6850 C   0  0  0  0  0  0  0  0  0  0  0  0
   49.4590   36.7830   41.4640 H   0  0  0  0  0  0  0  0  0  0  0  0
   49.9550   34.9440   42.4730 C   0  0  0  0  0  0  0  0  0  0  0  0
   49.5340   33.6500   42.7210 C   0  0  0  0  0  0  0  0  0  0  0  0
   48.3720   33.2130   42.1970 N   0  0  0  0  0  0  0  0  0  0  0  0
  1 17  1  0  0  0  0
  2  8  1  0  0  0  0
  2  1  1  0  0  0  0
  3 10  1  0  0  0  0
  3  2  1  0  0  0  0
  4  3  1  0  0  0  0
  4  5  1  0  0  0  0
  5  6  1  0  0  0  0
  6 14  1  1  0  0  0
  6  1  1  0  0  0  0
  6 24  1  0  0  0  0
  7  2  1  0  0  0  0
  9  3  1  0  0  0  0
 11  4  1  0  0  0  0
 12  5  1  0  0  0  0
 13  5  1  0  0  0  0
 15 21  1  0  0  0  0
 15 20  1  0  0  0  0
 16 15  2  0  0  0  0
 17 16  1  0  0  0  0
 17 18  2  0  0  0  0
 18 19  1  0  0  0  0
 19 20  2  0  0  0  0
 19 23  1  0  0  0  0
 22 16  1  0  0  0  0
 24 31  1  0  0  0  0
 25 24  2  0  0  0  0
 25 27  1  0  0  0  0
 26 25  1  0  0  0  0
 27 29  2  0  0  0  0
 28 27  1  0  0  0  0
 29 30  1  0  0  0  0
 31 30  2  0  0  0  0
M  END
>  <minimizedAffinity>
-5.43964243

>  <minimizedRMSD>
2.98192501

$$$$
