
     RDKit          3D

 33 35  0  0  0  0  0  0  0  0999 V2000
   44.6475   35.1390   44.2062 C   0  0  0  0  0  0  0  0  0  0  0  0
   44.7502   34.1108   43.2754 C   0  0  0  0  0  0  0  0  0  0  0  0
   45.3038   32.9181   43.7015 C   0  0  0  0  0  0  0  0  0  0  0  0
   45.7337   32.7495   44.9781 N   0  0  0  0  0  0  0  0  0  0  0  0
   45.6200   33.7776   45.8694 C   0  0  0  0  0  0  0  0  0  0  0  0
   45.0889   34.9353   45.4791 N   0  0  0  0  0  0  0  0  0  0  0  0
   44.2821   34.3951   41.9753 N   0  0  0  0  0  0  0  0  0  0  0  0
   44.4663   33.4113   40.9563 C   0  0  1  0  0  0  0  0  0  0  0  0
   43.8024   33.7071   39.6647 C   0  0  0  0  0  0  0  0  0  0  0  0
   42.6024   34.4198   39.6842 N   0  0  0  0  0  0  0  0  0  0  0  0
   42.3545   35.2856   40.7700 C   0  0  0  0  0  0  0  0  0  0  0  0
   43.6272   35.5909   41.5379 C   0  0  0  0  0  0  0  0  0  0  0  0
   44.2526   36.1340   44.0804 H   0  0  0  0  0  0  0  0  0  0  0  0
   45.3823   32.1273   42.9967 H   0  0  0  0  0  0  0  0  0  0  0  0
   45.9779   33.5871   46.8689 H   0  0  0  0  0  0  0  0  0  0  0  0
   44.0915   32.4285   41.3687 H   0  0  0  0  0  0  0  0  0  0  0  0
   44.5245   34.2050   38.9852 H   0  0  0  0  0  0  0  0  0  0  0  0
   43.6050   32.7106   39.1715 H   0  0  0  0  0  0  0  0  0  0  0  0
   42.4721   34.9459   38.7871 H   0  0  0  0  0  0  0  0  0  0  0  0
   41.9425   36.2950   40.4856 H   0  0  0  0  0  0  0  0  0  0  0  0
   41.6355   34.8226   41.4624 H   0  0  0  0  0  0  0  0  0  0  0  0
   44.2611   36.1748   40.8054 H   0  0  0  0  0  0  0  0  0  0  0  0
   43.3538   36.3141   42.2993 H   0  0  0  0  0  0  0  0  0  0  0  0
   45.9068   33.1984   40.6536 C   0  0  0  0  0  0  0  0  0  0  0  0
   46.4296   33.4549   39.4013 C   0  0  0  0  0  0  0  0  0  0  0  0
   45.8249   33.8200   38.6019 H   0  0  0  0  0  0  0  0  0  0  0  0
   47.7594   33.2694   39.0620 C   0  0  0  0  0  0  0  0  0  0  0  0
   48.1507   33.4757   38.0759 H   0  0  0  0  0  0  0  0  0  0  0  0
   48.6376   32.8040   40.0032 C   0  0  0  0  0  0  0  0  0  0  0  0
   48.1165   32.5479   41.2533 C   0  0  0  0  0  0  0  0  0  0  0  0
   46.8398   32.7379   41.5383 N   0  0  0  0  0  0  0  0  0  0  0  0
   49.6786   32.6458   39.7815 H   0  0  0  0  0  0  0  0  0  0  0  0
   48.7511   32.1787   42.0451 H   0  0  0  0  0  0  0  0  0  0  0  0
  1  6  2  0
  2  3  2  0
  2  1  1  0
  3  4  1  0
  4  5  2  0
  6  5  1  0
  7  2  1  0
  8  7  1  0
  9 10  1  0
  9  8  1  0
 10 11  1  0
 11 12  1  0
 12  7  1  0
  1 13  1  0
  3 14  1  0
  5 15  1  0
  8 16  1  1
  9 17  1  0
  9 18  1  0
 10 19  1  0
 11 20  1  0
 11 21  1  0
 12 22  1  0
 12 23  1  0
 24 25  2  0
 25 26  1  0
 25 27  1  0
 27 28  1  0
 27 29  2  0
 29 30  1  0
 30 31  2  0
 31 24  1  0
 29 32  1  0
 30 33  1  0
  8 24  1  0
M  ISO  8  13  14  14  14  15  14  16  13  17  13  18  13  19   5  20  13
M  ISO  5  21  13  22  13  23  13  26  15  28  16
M  END
>  <DihAtoms>  (1) 
6,7,23,24

>  <DihDeg>  (1) 
-43.235800932079144

$$$$
