
 OpenBabel03242522543D

 39 41  0  0  1  0  0  0  0  0999 V2000
   48.2840   31.2950   48.4610 C   0  0  0  0  0  0  0  0  0  0  0  0
   48.9230   32.0990   49.2300 O   0  0  0  0  0  0  0  0  0  0  0  0
   49.1750   30.2450   48.8380 N   0  0  0  0  0  0  0  0  0  0  0  0
   49.3120   29.3290   47.7190 C   0  0  0  0  0  0  0  0  0  0  0  0
   50.1860   28.1960   48.2250 C   0  0  0  0  0  0  0  0  0  0  0  0
   49.7780   27.8070   49.5790 N   0  0  0  0  0  0  0  0  0  0  0  0
   50.3550   28.7870   50.4520 C   0  0  0  0  0  0  0  0  0  0  0  0
   49.8220   30.1320   50.1310 C   0  0  1  0  0  0  0  0  0  0  0  0
   48.3160   28.9340   47.4860 H   0  0  0  0  0  0  0  0  0  0  0  0
   49.8340   29.8070   46.8600 H   0  0  0  0  0  0  0  0  0  0  0  0
   51.2530   28.4850   48.2390 H   0  0  0  0  0  0  0  0  0  0  0  0
   50.0480   27.3060   47.5690 H   0  0  0  0  0  0  0  0  0  0  0  0
   48.7370   27.8250   49.6710 H   0  0  0  0  0  0  0  0  0  0  0  0
   50.1100   28.5040   51.5160 H   0  0  0  0  0  0  0  0  0  0  0  0
   51.4610   28.7530   50.3270 H   0  0  0  0  0  0  0  0  0  0  0  0
   49.0510   30.3980   50.8860 H   0  0  0  0  0  0  0  0  0  0  0  0
   50.9350   31.1260   50.2670 C   0  0  0  0  0  0  0  0  0  0  0  0
   51.0600   31.9150   51.3990 C   0  0  0  0  0  0  0  0  0  0  0  0
   50.2890   31.7490   52.1620 H   0  0  0  0  0  0  0  0  0  0  0  0
   52.0550   32.8460   51.5890 C   0  0  0  0  0  0  0  0  0  0  0  0
   52.0570   33.4130   52.5180 H   0  0  0  0  0  0  0  0  0  0  0  0
   52.9900   32.9850   50.5610 C   0  0  0  0  0  0  0  0  0  0  0  0
   52.8690   32.1980   49.4300 C   0  0  0  0  0  0  0  0  0  0  0  0
   51.8620   31.2900   49.2930 N   0  0  0  0  0  0  0  0  0  0  0  0
   47.2450   31.8780   47.8140 O   0  0  0  0  0  0  0  0  0  0  0  0
   44.8330   30.8220   47.6550 O   0  0  0  0  0  0  0  0  0  0  0  0
   45.6530   32.0090   48.2280 P   0  0  1  0  0  0  0  0  0  0  0  0
   45.4340   31.9470   49.8920 O   0  0  0  0  0  0  0  0  0  0  0  0
   45.5190   31.0040   50.2110 H   0  0  0  0  0  0  0  0  0  0  0  0
   44.9960   33.4250   47.5860 O   0  0  0  0  0  0  0  0  0  0  0  0
   46.6300   33.5620   44.3500 C   0  0  0  0  0  0  0  0  0  0  0  0
   46.2670   33.1640   45.6630 C   0  0  0  0  0  0  0  0  0  0  0  0
   45.2970   33.8620   46.3240 C   0  0  0  0  0  0  0  0  0  0  0  0
   44.7020   34.9270   45.6990 N   0  0  0  0  0  0  0  0  0  0  0  0
   45.0680   35.2840   44.4460 C   0  0  0  0  0  0  0  0  0  0  0  0
   46.0070   34.6240   43.7790 N   0  0  0  0  0  0  0  0  0  0  0  0
   47.3800   33.0640   43.7680 H   0  0  0  0  0  0  0  0  0  0  0  0
   46.8360   32.3160   45.9840 H   0  0  0  0  0  0  0  0  0  0  0  0
   44.4800   36.1410   44.1450 H   0  0  0  0  0  0  0  0  0  0  0  0
  1  3  1  0  0  0  0
  1  2  2  0  0  0  0
  3  8  1  0  0  0  0
  4  5  1  0  0  0  0
  4  3  1  0  0  0  0
  5 11  1  0  0  0  0
  5  6  1  0  0  0  0
  6 13  1  0  0  0  0
  6  7  1  0  0  0  0
  7 14  1  0  0  0  0
  8 17  1  0  0  0  0
  8  7  1  0  0  0  0
  8 16  1  1  0  0  0
  9  4  1  0  0  0  0
 10  4  1  0  0  0  0
 12  5  1  0  0  0  0
 15  7  1  0  0  0  0
 17 18  1  0  0  0  0
 18 20  2  0  0  0  0
 18 19  1  0  0  0  0
 20 21  1  0  0  0  0
 22 20  1  0  0  0  0
 23 22  2  0  0  0  0
 24 23  1  0  0  0  0
 24 17  2  0  0  0  0
 25 27  1  0  0  0  0
 25  1  1  0  0  0  0
 27 26  2  6  0  0  0
 27 28  1  0  0  0  0
 28 29  1  0  0  0  0
 30 27  1  0  0  0  0
 31 32  1  0  0  0  0
 32 38  1  0  0  0  0
 32 33  2  0  0  0  0
 33 30  1  0  0  0  0
 34 33  1  0  0  0  0
 35 34  2  0  0  0  0
 36 31  2  0  0  0  0
 36 35  1  0  0  0  0
 37 31  1  0  0  0  0
 39 35  1  0  0  0  0
M  END
>  <minimizedAffinity>
-5.9862237

>  <minimizedRMSD>
0.982500553

$$$$
