
 OpenBabel03252505153D

 24 26  0  0  0  0  0  0  0  0999 V2000
   44.5250   35.8390   44.6620 C   0  0  0  0  0  0  0  0  0  0  0  0
   45.1680   35.8010   43.4140 C   0  0  0  0  0  0  0  0  0  0  0  0
   46.1030   34.7920   43.2360 C   0  0  0  0  0  0  0  0  0  0  0  0
   46.3640   33.8970   44.2420 N   0  0  0  0  0  0  0  0  0  0  0  0
   45.7140   33.9710   45.4380 C   0  0  0  0  0  0  0  0  0  0  0  0
   44.8020   34.9420   45.6340 N   0  0  0  0  0  0  0  0  0  0  0  0
   43.7830   36.6020   44.8660 H   0  0  0  0  0  0  0  0  0  0  0  0
   44.9510   36.5070   42.6450 H   0  0  0  0  0  0  0  0  0  0  0  0
   46.8280   34.6420   41.9310 C   0  0  0  0  0  0  0  0  0  0  0  0
   48.1690   35.3440   41.9060 C   0  0  0  0  0  0  0  0  0  0  0  0
   48.0130   33.7990   41.8800 C   0  0  0  0  0  0  0  0  0  0  0  0
   46.1990   34.7440   41.0210 H   0  0  0  0  0  0  0  0  0  0  0  0
   48.5400   35.8140   42.8210 H   0  0  0  0  0  0  0  0  0  0  0  0
   48.5180   35.8230   40.9660 H   0  0  0  0  0  0  0  0  0  0  0  0
   48.3380   33.2970   40.9470 H   0  0  0  0  0  0  0  0  0  0  0  0
   48.4580   33.3100   42.7720 H   0  0  0  0  0  0  0  0  0  0  0  0
   46.0230   32.9950   46.4790 C   0  0  0  0  0  0  0  0  0  0  0  0
   45.2190   32.9480   47.5990 C   0  0  0  0  0  0  0  0  0  0  0  0
   44.3840   33.6410   47.6640 H   0  0  0  0  0  0  0  0  0  0  0  0
   45.4880   32.0320   48.6040 C   0  0  0  0  0  0  0  0  0  0  0  0
   44.8400   32.0120   49.4790 H   0  0  0  0  0  0  0  0  0  0  0  0
   46.5740   31.1880   48.4360 C   0  0  0  0  0  0  0  0  0  0  0  0
   47.3560   31.2770   47.2830 C   0  0  0  0  0  0  0  0  0  0  0  0
   47.0810   32.1830   46.3010 N   0  0  0  0  0  0  0  0  0  0  0  0
  1  7  1  0  0  0  0
  1  6  1  0  0  0  0
  2  1  2  0  0  0  0
  3  2  1  0  0  0  0
  3  4  2  0  0  0  0
  4  5  1  0  0  0  0
  5  6  2  0  0  0  0
  5 17  1  0  0  0  0
  8  2  1  0  0  0  0
  9  3  1  0  0  0  0
 10  9  1  0  0  0  0
 10 13  1  0  0  0  0
 11 10  1  0  0  0  0
 11  9  1  0  0  0  0
 11 16  1  0  0  0  0
 12  9  1  0  0  0  0
 14 10  1  0  0  0  0
 15 11  1  0  0  0  0
 17 18  1  0  0  0  0
 18 19  1  0  0  0  0
 18 20  2  0  0  0  0
 20 21  1  0  0  0  0
 22 20  1  0  0  0  0
 23 22  2  0  0  0  0
 24 17  2  0  0  0  0
 24 23  1  0  0  0  0
M  END
>  <minimizedAffinity>
-5.26490402

>  <minimizedRMSD>
0.413856536

$$$$
