
 OpenBabel03252502453D

 30 32  0  0  1  0  0  0  0  0999 V2000
   39.0740   30.0070   42.6570 C   0  0  0  0  0  0  0  0  0  0  0  0
   38.1790   30.6740   42.8770 H   0  0  0  0  0  0  0  0  0  0  0  0
   39.8510   30.2240   43.3840 H   0  0  0  0  0  0  0  0  0  0  0  0
   38.5240   28.6210   42.7160 C   0  0  1  0  0  0  0  0  0  0  0  0
   37.3930   28.3710   43.6640 C   0  0  0  0  0  0  0  0  0  0  0  0
   37.1670   28.4200   42.2000 C   0  0  2  0  0  0  0  0  0  0  0  0
   39.3360   27.8510   42.6040 H   0  0  0  0  0  0  0  0  0  0  0  0
   37.0350   29.1410   44.3750 H   0  0  0  0  0  0  0  0  0  0  0  0
   37.4640   27.4000   44.1970 H   0  0  0  0  0  0  0  0  0  0  0  0
   36.5380   29.0540   41.6090 H   0  0  0  0  0  0  0  0  0  0  0  0
   37.0040   27.0540   41.6070 C   0  0  0  0  0  0  0  0  0  0  0  0
   37.1240   25.9270   42.4070 C   0  0  0  0  0  0  0  0  0  0  0  0
   37.3410   25.9900   43.4830 H   0  0  0  0  0  0  0  0  0  0  0  0
   36.9960   24.6400   41.9800 C   0  0  0  0  0  0  0  0  0  0  0  0
   37.0900   23.7720   42.5990 H   0  0  0  0  0  0  0  0  0  0  0  0
   36.7260   24.4300   40.6530 C   0  0  0  0  0  3  0  0  0  0  0  0
   36.5990   25.5280   39.8310 C   0  0  0  0  0  3  0  0  0  0  0  0
   36.7350   26.7630   40.3030 N   0  0  0  0  0  0  0  0  0  0  0  0
   39.4820   30.2370   41.2120 C   0  0  0  0  0  0  0  0  0  0  0  0
   38.8480   29.5200   40.6000 H   0  0  0  0  0  0  0  0  0  0  0  0
   40.5420   30.1810   41.0150 H   0  0  0  0  0  0  0  0  0  0  0  0
   37.1360   32.5340   39.3840 C   0  0  0  0  0  0  0  0  0  0  0  0
   37.7320   31.3310   39.8750 C   0  0  0  0  0  0  0  0  0  0  0  0
   38.7990   31.4670   40.7220 C   0  0  0  0  0  0  0  0  0  0  0  0
   39.2390   32.7130   41.0580 N   0  0  0  0  0  0  0  0  0  0  0  0
   38.6730   33.8120   40.5920 C   0  0  0  0  0  0  0  0  0  0  0  0
   37.6290   33.7270   39.7610 N   0  0  0  0  0  0  0  0  0  0  0  0
   36.2950   32.5370   38.7130 H   0  0  0  0  0  0  0  0  0  0  0  0
   37.2220   30.4640   39.4980 H   0  0  0  0  0  0  0  0  0  0  0  0
   39.1390   34.7200   40.9520 H   0  0  0  0  0  0  0  0  0  0  0  0
  1  4  1  0  0  0  0
  1  2  1  0  0  0  0
  1  3  1  0  0  0  0
  4  7  1  6  0  0  0
  4  5  1  0  0  0  0
  5  9  1  0  0  0  0
  5  8  1  0  0  0  0
  6 10  1  6  0  0  0
  6  4  1  0  0  0  0
  6  5  1  0  0  0  0
 11  6  1  0  0  0  0
 11 12  1  0  0  0  0
 12 13  1  0  0  0  0
 14 12  2  0  0  0  0
 14 15  1  0  0  0  0
 16 14  1  0  0  0  0
 17 18  1  0  0  0  0
 17 16  2  0  0  0  0
 18 11  2  0  0  0  0
 19  1  1  0  0  0  0
 20 19  1  0  0  0  0
 21 19  1  0  0  0  0
 22 27  2  0  0  0  0
 22 23  1  0  0  0  0
 23 24  2  0  0  0  0
 24 25  1  0  0  0  0
 24 19  1  0  0  0  0
 26 30  1  0  0  0  0
 26 25  2  0  0  0  0
 27 26  1  0  0  0  0
 28 22  1  0  0  0  0
 29 23  1  0  0  0  0
M  END
>  <minimizedAffinity>
-4.90464926

$$$$

 OpenBabel03252502453D

 30 32  0  0  1  0  0  0  0  0999 V2000
   36.2100   28.0380   41.5820 C   0  0  0  0  0  0  0  0  0  0  0  0
   35.1410   28.3700   41.7880 H   0  0  0  0  0  0  0  0  0  0  0  0
   36.1810   27.0640   41.1000 H   0  0  0  0  0  0  0  0  0  0  0  0
   36.7820   29.1360   40.7490 C   0  0  1  0  0  0  0  0  0  0  0  0
   35.8830   29.7670   39.7330 C   0  0  0  0  0  0  0  0  0  0  0  0
   36.2560   30.4850   40.9730 C   0  0  2  0  0  0  0  0  0  0  0  0
   37.8600   28.9400   40.4930 H   0  0  0  0  0  0  0  0  0  0  0  0
   34.8680   29.3790   39.5190 H   0  0  0  0  0  0  0  0  0  0  0  0
   36.3880   29.9930   38.7700 H   0  0  0  0  0  0  0  0  0  0  0  0
   35.6500   30.8820   41.7630 H   0  0  0  0  0  0  0  0  0  0  0  0
   37.3030   31.5290   40.7300 C   0  0  0  0  0  0  0  0  0  0  0  0
   37.0100   32.6440   39.9590 C   0  0  0  0  0  0  0  0  0  0  0  0
   36.0210   32.8020   39.5050 H   0  0  0  0  0  0  0  0  0  0  0  0
   37.8770   33.6540   39.6720 C   0  0  0  0  0  0  0  0  0  0  0  0
   37.6490   34.5130   39.0760 H   0  0  0  0  0  0  0  0  0  0  0  0
   39.1470   33.5710   40.1820 C   0  0  0  0  0  3  0  0  0  0  0  0
   39.4710   32.4770   40.9520 C   0  0  0  0  0  3  0  0  0  0  0  0
   38.5820   31.5200   41.2000 N   0  0  0  0  0  0  0  0  0  0  0  0
   36.9690   28.0670   42.8970 C   0  0  0  0  0  0  0  0  0  0  0  0
   36.2450   27.6650   43.6750 H   0  0  0  0  0  0  0  0  0  0  0  0
   37.4220   29.0130   43.1510 H   0  0  0  0  0  0  0  0  0  0  0  0
   39.8970   25.8360   43.6540 C   0  0  0  0  0  0  0  0  0  0  0  0
   39.0260   26.9690   43.6790 C   0  0  0  0  0  0  0  0  0  0  0  0
   37.8770   26.8860   42.9400 C   0  0  0  0  0  0  0  0  0  0  0  0
   37.6120   25.7530   42.2290 N   0  0  0  0  0  0  0  0  0  0  0  0
   38.4320   24.7170   42.2200 C   0  0  0  0  0  0  0  0  0  0  0  0
   39.5680   24.7540   42.9260 N   0  0  0  0  0  0  0  0  0  0  0  0
   40.8250   25.8000   44.1980 H   0  0  0  0  0  0  0  0  0  0  0  0
   39.4160   27.7440   44.3110 H   0  0  0  0  0  0  0  0  0  0  0  0
   38.0800   23.8970   41.6080 H   0  0  0  0  0  0  0  0  0  0  0  0
  1  2  1  0  0  0  0
  1 19  1  0  0  0  0
  3  1  1  0  0  0  0
  4  7  1  6  0  0  0
  4  6  1  0  0  0  0
  4  1  1  0  0  0  0
  5  4  1  0  0  0  0
  5  6  1  0  0  0  0
  6 10  1  1  0  0  0
  8  5  1  0  0  0  0
  9  5  1  0  0  0  0
 11  6  1  0  0  0  0
 11 18  1  0  0  0  0
 12 11  2  0  0  0  0
 13 12  1  0  0  0  0
 14 12  1  0  0  0  0
 14 16  2  0  0  0  0
 15 14  1  0  0  0  0
 16 17  1  0  0  0  0
 17 18  2  0  0  0  0
 19 24  1  0  0  0  0
 19 21  1  0  0  0  0
 19 20  1  0  0  0  0
 22 23  1  0  0  0  0
 22 28  1  0  0  0  0
 23 29  1  0  0  0  0
 24 23  2  0  0  0  0
 25 24  1  0  0  0  0
 26 25  2  0  0  0  0
 26 27  1  0  0  0  0
 27 22  2  0  0  0  0
 30 26  1  0  0  0  0
M  END
>  <minimizedAffinity>
-4.86605644

$$$$

 OpenBabel03252502453D

 30 32  0  0  1  0  0  0  0  0999 V2000
   35.9420   28.6230   41.2790 C   0  0  0  0  0  0  0  0  0  0  0  0
   36.1490   28.0040   40.3480 H   0  0  0  0  0  0  0  0  0  0  0  0
   34.9030   28.4810   41.5620 H   0  0  0  0  0  0  0  0  0  0  0  0
   36.9390   28.1330   42.2760 C   0  0  1  0  0  0  0  0  0  0  0  0
   36.4160   27.3720   43.4530 C   0  0  0  0  0  0  0  0  0  0  0  0
   37.1410   26.6840   42.3600 C   0  0  2  0  0  0  0  0  0  0  0  0
   37.7760   28.8710   42.4170 H   0  0  0  0  0  0  0  0  0  0  0  0
   35.3330   27.2590   43.6500 H   0  0  0  0  0  0  0  0  0  0  0  0
   36.9270   27.6200   44.4070 H   0  0  0  0  0  0  0  0  0  0  0  0
   36.8340   25.8920   41.7060 H   0  0  0  0  0  0  0  0  0  0  0  0
   38.5500   26.3470   42.7380 C   0  0  0  0  0  0  0  0  0  0  0  0
   39.3720   27.3150   43.2980 C   0  0  0  0  0  0  0  0  0  0  0  0
   39.0290   28.3440   43.4800 H   0  0  0  0  0  0  0  0  0  0  0  0
   40.6650   27.1260   43.6800 C   0  0  0  0  0  0  0  0  0  0  0  0
   41.2970   27.8740   44.1100 H   0  0  0  0  0  0  0  0  0  0  0  0
   41.2090   25.8810   43.5010 C   0  0  0  0  0  3  0  0  0  0  0  0
   40.4210   24.8960   42.9480 C   0  0  0  0  0  3  0  0  0  0  0  0
   39.1630   25.1390   42.5930 N   0  0  0  0  0  0  0  0  0  0  0  0
   36.3210   30.0620   40.9770 C   0  0  0  0  0  0  0  0  0  0  0  0
   37.4170   30.1540   41.2630 H   0  0  0  0  0  0  0  0  0  0  0  0
   35.6780   30.8130   41.4110 H   0  0  0  0  0  0  0  0  0  0  0  0
   36.0910   29.5380   37.2620 C   0  0  0  0  0  0  0  0  0  0  0  0
   35.7990   29.4320   38.6570 C   0  0  0  0  0  0  0  0  0  0  0  0
   36.5580   30.1860   39.5110 C   0  0  0  0  0  0  0  0  0  0  0  0
   37.5370   30.9920   39.0090 N   0  0  0  0  0  0  0  0  0  0  0  0
   37.7900   31.0740   37.7150 C   0  0  0  0  0  0  0  0  0  0  0  0
   37.0740   30.3540   36.8450 N   0  0  0  0  0  0  0  0  0  0  0  0
   35.5550   28.9870   36.5100 H   0  0  0  0  0  0  0  0  0  0  0  0
   34.9840   28.7550   38.8330 H   0  0  0  0  0  0  0  0  0  0  0  0
   38.5960   31.7570   37.4790 H   0  0  0  0  0  0  0  0  0  0  0  0
  1  3  1  0  0  0  0
  1  4  1  0  0  0  0
  2  1  1  0  0  0  0
  4  6  1  0  0  0  0
  4  7  1  1  0  0  0
  4  5  1  0  0  0  0
  5  8  1  0  0  0  0
  5  9  1  0  0  0  0
  6 10  1  6  0  0  0
  6 11  1  0  0  0  0
  6  5  1  0  0  0  0
 11 12  1  0  0  0  0
 12 13  1  0  0  0  0
 12 14  2  0  0  0  0
 14 15  1  0  0  0  0
 16 14  1  0  0  0  0
 17 16  2  0  0  0  0
 18 11  2  0  0  0  0
 18 17  1  0  0  0  0
 19 20  1  0  0  0  0
 19  1  1  0  0  0  0
 19 21  1  0  0  0  0
 22 23  1  0  0  0  0
 23 29  1  0  0  0  0
 23 24  2  0  0  0  0
 24 19  1  0  0  0  0
 25 24  1  0  0  0  0
 26 25  2  0  0  0  0
 27 22  2  0  0  0  0
 27 26  1  0  0  0  0
 28 22  1  0  0  0  0
 30 26  1  0  0  0  0
M  END
>  <minimizedAffinity>
-4.77651453

$$$$

 OpenBabel03252502453D

 30 32  0  0  1  0  0  0  0  0999 V2000
   36.2760   30.0210   38.3510 C   0  0  0  0  0  0  0  0  0  0  0  0
   36.0970   29.0590   37.7720 H   0  0  0  0  0  0  0  0  0  0  0  0
   35.4680   30.7130   38.1260 H   0  0  0  0  0  0  0  0  0  0  0  0
   36.3530   29.5840   39.7750 C   0  0  1  0  0  0  0  0  0  0  0  0
   35.1440   28.9230   40.3570 C   0  0  0  0  0  0  0  0  0  0  0  0
   36.3590   28.1410   40.0310 C   0  0  2  0  0  0  0  0  0  0  0  0
   36.9420   30.3130   40.3980 H   0  0  0  0  0  0  0  0  0  0  0  0
   34.1870   28.8460   39.8050 H   0  0  0  0  0  0  0  0  0  0  0  0
   34.9270   29.2280   41.4020 H   0  0  0  0  0  0  0  0  0  0  0  0
   36.5010   27.3110   39.3690 H   0  0  0  0  0  0  0  0  0  0  0  0
   37.1600   27.8040   41.2500 C   0  0  0  0  0  0  0  0  0  0  0  0
   36.7230   28.2030   42.5050 C   0  0  0  0  0  0  0  0  0  0  0  0
   35.7930   28.7720   42.6500 H   0  0  0  0  0  0  0  0  0  0  0  0
   37.3650   27.9550   43.6800 C   0  0  0  0  0  0  0  0  0  0  0  0
   37.0260   28.2640   44.6460 H   0  0  0  0  0  0  0  0  0  0  0  0
   38.5410   27.2530   43.6300 C   0  0  0  0  0  3  0  0  0  0  0  0
   39.0040   26.8400   42.4000 C   0  0  0  0  0  3  0  0  0  0  0  0
   38.3340   27.1120   41.2840 N   0  0  0  0  0  0  0  0  0  0  0  0
   37.6590   30.5330   37.9910 C   0  0  0  0  0  0  0  0  0  0  0  0
   37.5060   31.2310   37.1080 H   0  0  0  0  0  0  0  0  0  0  0  0
   38.4100   29.7720   37.8380 H   0  0  0  0  0  0  0  0  0  0  0  0
   37.6890   33.7970   39.8530 C   0  0  0  0  0  0  0  0  0  0  0  0
   37.2780   32.7630   38.9570 C   0  0  0  0  0  0  0  0  0  0  0  0
   38.0230   31.6140   38.9500 C   0  0  0  0  0  0  0  0  0  0  0  0
   39.0990   31.5030   39.7800 N   0  0  0  0  0  0  0  0  0  0  0  0
   39.4620   32.4730   40.6000 C   0  0  0  0  0  0  0  0  0  0  0  0
   38.7640   33.6140   40.6400 N   0  0  0  0  0  0  0  0  0  0  0  0
   37.1740   34.7380   39.9340 H   0  0  0  0  0  0  0  0  0  0  0  0
   36.4010   33.0500   38.4080 H   0  0  0  0  0  0  0  0  0  0  0  0
   40.3360   32.2310   41.1910 H   0  0  0  0  0  0  0  0  0  0  0  0
  1  4  1  0  0  0  0
  2  1  1  0  0  0  0
  3  1  1  0  0  0  0
  4  6  1  0  0  0  0
  4  5  1  0  0  0  0
  4  7  1  1  0  0  0
  5  9  1  0  0  0  0
  6 10  1  6  0  0  0
  6  5  1  0  0  0  0
  6 11  1  0  0  0  0
  8  5  1  0  0  0  0
 11 18  2  0  0  0  0
 11 12  1  0  0  0  0
 12 13  1  0  0  0  0
 12 14  2  0  0  0  0
 14 15  1  0  0  0  0
 16 14  1  0  0  0  0
 17 16  2  0  0  0  0
 18 17  1  0  0  0  0
 19  1  1  0  0  0  0
 19 24  1  0  0  0  0
 20 19  1  0  0  0  0
 21 19  1  0  0  0  0
 22 28  1  0  0  0  0
 22 27  1  0  0  0  0
 23 22  2  0  0  0  0
 24 23  1  0  0  0  0
 24 25  2  0  0  0  0
 25 26  1  0  0  0  0
 26 27  2  0  0  0  0
 26 30  1  0  0  0  0
 29 23  1  0  0  0  0
M  END
>  <minimizedAffinity>
-4.77310228

$$$$

 OpenBabel03252502453D

 30 32  0  0  1  0  0  0  0  0999 V2000
   36.0360   29.0830   39.1760 C   0  0  0  0  0  0  0  0  0  0  0  0
   35.2140   29.4430   38.4770 H   0  0  0  0  0  0  0  0  0  0  0  0
   36.2000   28.0240   38.9980 H   0  0  0  0  0  0  0  0  0  0  0  0
   37.1980   29.9630   38.8600 C   0  0  1  0  0  0  0  0  0  0  0  0
   37.2770   30.5260   37.4750 C   0  0  0  0  0  0  0  0  0  0  0  0
   36.9170   31.3830   38.6280 C   0  0  2  0  0  0  0  0  0  0  0  0
   38.1360   29.6070   39.3690 H   0  0  0  0  0  0  0  0  0  0  0  0
   36.5720   30.2290   36.6750 H   0  0  0  0  0  0  0  0  0  0  0  0
   38.3050   30.5380   37.0570 H   0  0  0  0  0  0  0  0  0  0  0  0
   36.0380   31.9660   38.8200 H   0  0  0  0  0  0  0  0  0  0  0  0
   38.0570   32.2470   39.0710 C   0  0  0  0  0  0  0  0  0  0  0  0
   37.8380   33.2860   39.9640 C   0  0  0  0  0  0  0  0  0  0  0  0
   36.8420   33.5120   40.3720 H   0  0  0  0  0  0  0  0  0  0  0  0
   38.7940   34.1350   40.4350 C   0  0  0  0  0  0  0  0  0  0  0  0
   38.6230   34.9360   41.1230 H   0  0  0  0  0  0  0  0  0  0  0  0
   40.0800   33.9560   39.9980 C   0  0  0  0  0  3  0  0  0  0  0  0
   40.3320   32.9330   39.1110 C   0  0  0  0  0  3  0  0  0  0  0  0
   39.3580   32.1350   38.6840 N   0  0  0  0  0  0  0  0  0  0  0  0
   35.6230   29.4260   40.5970 C   0  0  0  0  0  0  0  0  0  0  0  0
   34.7720   28.7150   40.8460 H   0  0  0  0  0  0  0  0  0  0  0  0
   35.4060   30.4670   40.7790 H   0  0  0  0  0  0  0  0  0  0  0  0
   37.6270   26.8620   42.4760 C   0  0  0  0  0  0  0  0  0  0  0  0
   36.7220   27.4320   41.5290 C   0  0  0  0  0  0  0  0  0  0  0  0
   36.5970   28.7960   41.5320 C   0  0  0  0  0  0  0  0  0  0  0  0
   37.3240   29.5380   42.4150 N   0  0  0  0  0  0  0  0  0  0  0  0
   38.1540   28.9880   43.2840 C   0  0  0  0  0  0  0  0  0  0  0  0
   38.3080   27.6600   43.3170 N   0  0  0  0  0  0  0  0  0  0  0  0
   37.7970   25.8020   42.5560 H   0  0  0  0  0  0  0  0  0  0  0  0
   36.2650   26.6730   40.9220 H   0  0  0  0  0  0  0  0  0  0  0  0
   38.6550   29.7120   43.9140 H   0  0  0  0  0  0  0  0  0  0  0  0
  1 19  1  0  0  0  0
  2  1  1  0  0  0  0
  3  1  1  0  0  0  0
  4  1  1  0  0  0  0
  4  7  1  1  0  0  0
  5  6  1  0  0  0  0
  5  4  1  0  0  0  0
  6 10  1  1  0  0  0
  6  4  1  0  0  0  0
  6 11  1  0  0  0  0
  8  5  1  0  0  0  0
  9  5  1  0  0  0  0
 11 12  1  0  0  0  0
 12 13  1  0  0  0  0
 12 14  2  0  0  0  0
 14 15  1  0  0  0  0
 16 14  1  0  0  0  0
 17 16  2  0  0  0  0
 18 11  2  0  0  0  0
 18 17  1  0  0  0  0
 19 21  1  0  0  0  0
 19 20  1  0  0  0  0
 19 24  1  0  0  0  0
 22 28  1  0  0  0  0
 22 27  1  0  0  0  0
 23 24  1  0  0  0  0
 23 22  2  0  0  0  0
 24 25  2  0  0  0  0
 25 26  1  0  0  0  0
 26 27  2  0  0  0  0
 26 30  1  0  0  0  0
 29 23  1  0  0  0  0
M  END
>  <minimizedAffinity>
-4.74172592

$$$$

 OpenBabel03252502453D

 30 32  0  0  1  0  0  0  0  0999 V2000
   37.2930   32.7890   39.6820 C   0  0  0  0  0  0  0  0  0  0  0  0
   37.6040   32.3950   38.6620 H   0  0  0  0  0  0  0  0  0  0  0  0
   36.5560   33.5750   39.5370 H   0  0  0  0  0  0  0  0  0  0  0  0
   36.7930   31.5830   40.4060 C   0  0  1  0  0  0  0  0  0  0  0  0
   36.0920   30.5380   39.5960 C   0  0  0  0  0  0  0  0  0  0  0  0
   37.4600   30.3100   40.1180 C   0  0  2  0  0  0  0  0  0  0  0  0
   36.4050   31.8470   41.4280 H   0  0  0  0  0  0  0  0  0  0  0  0
   35.8510   30.6830   38.5250 H   0  0  0  0  0  0  0  0  0  0  0  0
   35.2090   30.0990   40.1040 H   0  0  0  0  0  0  0  0  0  0  0  0
   38.3780   30.0960   39.6090 H   0  0  0  0  0  0  0  0  0  0  0  0
   37.4660   29.4120   41.3170 C   0  0  0  0  0  0  0  0  0  0  0  0
   36.8690   28.1610   41.2540 C   0  0  0  0  0  0  0  0  0  0  0  0
   36.3770   27.7890   40.3430 H   0  0  0  0  0  0  0  0  0  0  0  0
   36.8130   27.2620   42.2750 C   0  0  0  0  0  0  0  0  0  0  0  0
   36.3510   26.2980   42.2240 H   0  0  0  0  0  0  0  0  0  0  0  0
   37.3920   27.6110   43.4670 C   0  0  0  0  0  3  0  0  0  0  0  0
   37.9940   28.8460   43.5640 C   0  0  0  0  0  3  0  0  0  0  0  0
   38.0180   29.6840   42.5320 N   0  0  0  0  0  0  0  0  0  0  0  0
   38.5470   33.2310   40.4160 C   0  0  0  0  0  0  0  0  0  0  0  0
   38.8950   32.3190   40.9990 H   0  0  0  0  0  0  0  0  0  0  0  0
   38.4490   34.1310   41.0040 H   0  0  0  0  0  0  0  0  0  0  0  0
   41.7120   34.1390   38.6040 C   0  0  0  0  0  0  0  0  0  0  0  0
   40.6660   34.1570   39.5780 C   0  0  0  0  0  0  0  0  0  0  0  0
   39.6840   33.2110   39.4530 C   0  0  0  0  0  0  0  0  0  0  0  0
   39.7430   32.3080   38.4320 N   0  0  0  0  0  0  0  0  0  0  0  0
   40.7200   32.3110   37.5430 C   0  0  0  0  0  0  0  0  0  0  0  0
   41.6990   33.2170   37.6250 N   0  0  0  0  0  0  0  0  0  0  0  0
   42.5290   34.8390   38.6120 H   0  0  0  0  0  0  0  0  0  0  0  0
   40.8200   34.9370   40.2990 H   0  0  0  0  0  0  0  0  0  0  0  0
   40.6220   31.5320   36.7970 H   0  0  0  0  0  0  0  0  0  0  0  0
  1  4  1  0  0  0  0
  1 19  1  0  0  0  0
  2  1  1  0  0  0  0
  3  1  1  0  0  0  0
  4  7  1  1  0  0  0
  5  9  1  0  0  0  0
  5  6  1  0  0  0  0
  5  4  1  0  0  0  0
  6 10  1  6  0  0  0
  6  4  1  0  0  0  0
  6 11  1  0  0  0  0
  8  5  1  0  0  0  0
 11 18  1  0  0  0  0
 12 11  2  0  0  0  0
 12 14  1  0  0  0  0
 13 12  1  0  0  0  0
 14 16  2  0  0  0  0
 15 14  1  0  0  0  0
 16 17  1  0  0  0  0
 18 17  2  0  0  0  0
 19 20  1  0  0  0  0
 19 21  1  0  0  0  0
 22 28  1  0  0  0  0
 22 23  1  0  0  0  0
 23 29  1  0  0  0  0
 24 23  2  0  0  0  0
 24 19  1  0  0  0  0
 25 24  1  0  0  0  0
 26 27  1  0  0  0  0
 26 25  2  0  0  0  0
 27 22  2  0  0  0  0
 30 26  1  0  0  0  0
M  END
>  <minimizedAffinity>
-4.73342276

$$$$

 OpenBabel03252502453D

 30 32  0  0  1  0  0  0  0  0999 V2000
   38.5140   28.2810   43.2720 C   0  0  0  0  0  0  0  0  0  0  0  0
   39.1350   27.6830   42.5310 H   0  0  0  0  0  0  0  0  0  0  0  0
   38.8740   28.0670   44.2750 H   0  0  0  0  0  0  0  0  0  0  0  0
   38.6810   29.6970   42.8320 C   0  0  1  0  0  0  0  0  0  0  0  0
   40.0780   30.2010   42.6520 C   0  0  0  0  0  0  0  0  0  0  0  0
   39.2110   29.9190   41.4840 C   0  0  2  0  0  0  0  0  0  0  0  0
   37.9040   30.3670   43.2950 H   0  0  0  0  0  0  0  0  0  0  0  0
   40.9640   29.5980   42.9290 H   0  0  0  0  0  0  0  0  0  0  0  0
   40.2280   31.2400   43.0120 H   0  0  0  0  0  0  0  0  0  0  0  0
   39.3420   29.2460   40.6610 H   0  0  0  0  0  0  0  0  0  0  0  0
   38.6560   31.1690   40.8750 C   0  0  0  0  0  0  0  0  0  0  0  0
   37.5900   31.1000   39.9890 C   0  0  0  0  0  0  0  0  0  0  0  0
   37.1220   30.1460   39.7050 H   0  0  0  0  0  0  0  0  0  0  0  0
   37.0050   32.1650   39.3760 C   0  0  0  0  0  0  0  0  0  0  0  0
   36.1830   32.1090   38.6930 H   0  0  0  0  0  0  0  0  0  0  0  0
   37.5010   33.4130   39.6490 C   0  0  0  0  0  3  0  0  0  0  0  0
   38.5600   33.5180   40.5240 C   0  0  0  0  0  3  0  0  0  0  0  0
   39.0920   32.4410   41.0940 N   0  0  0  0  0  0  0  0  0  0  0  0
   37.0530   27.9380   43.0410 C   0  0  0  0  0  0  0  0  0  0  0  0
   36.6520   28.7550   42.3610 H   0  0  0  0  0  0  0  0  0  0  0  0
   36.4690   27.7680   43.9330 H   0  0  0  0  0  0  0  0  0  0  0  0
   36.6550   26.1600   39.7540 C   0  0  0  0  0  0  0  0  0  0  0  0
   36.7700   27.2200   40.7050 C   0  0  0  0  0  0  0  0  0  0  0  0
   36.9810   26.8640   42.0100 C   0  0  0  0  0  0  0  0  0  0  0  0
   37.0740   25.5450   42.3420 N   0  0  0  0  0  0  0  0  0  0  0  0
   36.9640   24.5810   41.4460 C   0  0  0  0  0  0  0  0  0  0  0  0
   36.7550   24.8820   40.1600 N   0  0  0  0  0  0  0  0  0  0  0  0
   36.4870   26.3330   38.7050 H   0  0  0  0  0  0  0  0  0  0  0  0
   36.6820   28.1800   40.2310 H   0  0  0  0  0  0  0  0  0  0  0  0
   37.0600   23.5890   41.8690 H   0  0  0  0  0  0  0  0  0  0  0  0
  1  3  1  0  0  0  0
  2  1  1  0  0  0  0
  4  1  1  0  0  0  0
  4  7  1  1  0  0  0
  5  4  1  0  0  0  0
  5  8  1  0  0  0  0
  5  9  1  0  0  0  0
  6 10  1  6  0  0  0
  6  5  1  0  0  0  0
  6  4  1  0  0  0  0
 11 18  1  0  0  0  0
 11  6  1  0  0  0  0
 12 11  2  0  0  0  0
 13 12  1  0  0  0  0
 14 16  2  0  0  0  0
 14 12  1  0  0  0  0
 15 14  1  0  0  0  0
 16 17  1  0  0  0  0
 17 18  2  0  0  0  0
 19  1  1  0  0  0  0
 19 21  1  0  0  0  0
 20 19  1  0  0  0  0
 22 27  2  0  0  0  0
 22 23  1  0  0  0  0
 23 24  2  0  0  0  0
 24 25  1  0  0  0  0
 24 19  1  0  0  0  0
 26 30  1  0  0  0  0
 26 25  2  0  0  0  0
 27 26  1  0  0  0  0
 28 22  1  0  0  0  0
 29 23  1  0  0  0  0
M  END
>  <minimizedAffinity>
-4.67952251

$$$$

 OpenBabel03252502453D

 30 32  0  0  1  0  0  0  0  0999 V2000
   38.7780   29.5140   42.5900 C   0  0  0  0  0  0  0  0  0  0  0  0
   38.3120   29.4920   43.6270 H   0  0  0  0  0  0  0  0  0  0  0  0
   39.6220   30.1980   42.6060 H   0  0  0  0  0  0  0  0  0  0  0  0
   39.1270   28.0890   42.3150 C   0  0  1  0  0  0  0  0  0  0  0  0
   39.9000   27.3560   43.3650 C   0  0  0  0  0  0  0  0  0  0  0  0
   38.4650   27.0700   43.1330 C   0  0  2  0  0  0  0  0  0  0  0  0
   39.3750   27.9280   41.2290 H   0  0  0  0  0  0  0  0  0  0  0  0
   40.2960   27.8600   44.2680 H   0  0  0  0  0  0  0  0  0  0  0  0
   40.6860   26.6880   42.9560 H   0  0  0  0  0  0  0  0  0  0  0  0
   37.6220   27.1360   43.7910 H   0  0  0  0  0  0  0  0  0  0  0  0
   38.2570   25.8010   42.3660 C   0  0  0  0  0  0  0  0  0  0  0  0
   36.9730   25.3750   42.0580 C   0  0  0  0  0  0  0  0  0  0  0  0
   36.0770   25.9390   42.3590 H   0  0  0  0  0  0  0  0  0  0  0  0
   36.6620   24.2430   41.3680 C   0  0  0  0  0  0  0  0  0  0  0  0
   35.6700   23.9160   41.1320 H   0  0  0  0  0  0  0  0  0  0  0  0
   37.6950   23.4520   40.9380 C   0  0  0  0  0  3  0  0  0  0  0  0
   38.9830   23.8450   41.2270 C   0  0  0  0  0  3  0  0  0  0  0  0
   39.2260   24.9630   41.9050 N   0  0  0  0  0  0  0  0  0  0  0  0
   37.6900   29.8800   41.5960 C   0  0  0  0  0  0  0  0  0  0  0  0
   36.8340   30.2920   42.2210 H   0  0  0  0  0  0  0  0  0  0  0  0
   37.4080   29.0990   40.9070 H   0  0  0  0  0  0  0  0  0  0  0  0
   39.6110   32.9350   40.5460 C   0  0  0  0  0  0  0  0  0  0  0  0
   39.3240   31.6520   41.1070 C   0  0  0  0  0  0  0  0  0  0  0  0
   38.0420   31.1890   40.9770 C   0  0  0  0  0  0  0  0  0  0  0  0
   37.1130   31.9500   40.3320 N   0  0  0  0  0  0  0  0  0  0  0  0
   37.4000   33.1340   39.8220 C   0  0  0  0  0  0  0  0  0  0  0  0
   38.6380   33.6260   39.9250 N   0  0  0  0  0  0  0  0  0  0  0  0
   40.5850   33.3890   40.5940 H   0  0  0  0  0  0  0  0  0  0  0  0
   40.2000   31.2200   41.5550 H   0  0  0  0  0  0  0  0  0  0  0  0
   36.5540   33.6100   39.3430 H   0  0  0  0  0  0  0  0  0  0  0  0
  1  3  1  0  0  0  0
  1  2  1  0  0  0  0
  4  7  1  6  0  0  0
  4  1  1  0  0  0  0
  4  6  1  0  0  0  0
  4  5  1  0  0  0  0
  5  8  1  0  0  0  0
  6  5  1  0  0  0  0
  6 10  1  1  0  0  0
  9  5  1  0  0  0  0
 11  6  1  0  0  0  0
 12 13  1  0  0  0  0
 12 11  1  0  0  0  0
 14 12  2  0  0  0  0
 15 14  1  0  0  0  0
 16 17  2  0  0  0  0
 16 14  1  0  0  0  0
 17 18  1  0  0  0  0
 18 11  2  0  0  0  0
 19 20  1  0  0  0  0
 19  1  1  0  0  0  0
 21 19  1  0  0  0  0
 22 28  1  0  0  0  0
 22 23  1  0  0  0  0
 23 29  1  0  0  0  0
 24 23  2  0  0  0  0
 24 19  1  0  0  0  0
 25 24  1  0  0  0  0
 26 27  1  0  0  0  0
 26 25  2  0  0  0  0
 27 22  2  0  0  0  0
 30 26  1  0  0  0  0
M  END
>  <minimizedAffinity>
-4.57322598

$$$$

 OpenBabel03252502453D

 30 32  0  0  1  0  0  0  0  0999 V2000
   37.8560   28.4550   43.5090 C   0  0  0  0  0  0  0  0  0  0  0  0
   38.8870   27.9760   43.5460 H   0  0  0  0  0  0  0  0  0  0  0  0
   37.5700   28.7350   44.5190 H   0  0  0  0  0  0  0  0  0  0  0  0
   38.0150   29.5960   42.5610 C   0  0  1  0  0  0  0  0  0  0  0  0
   39.3070   30.3510   42.6040 C   0  0  0  0  0  0  0  0  0  0  0  0
   38.9940   29.4360   41.4820 C   0  0  2  0  0  0  0  0  0  0  0  0
   37.0490   30.1560   42.4240 H   0  0  0  0  0  0  0  0  0  0  0  0
   40.0810   30.1540   43.3710 H   0  0  0  0  0  0  0  0  0  0  0  0
   39.1860   31.4490   42.4940 H   0  0  0  0  0  0  0  0  0  0  0  0
   39.5080   28.5670   41.1230 H   0  0  0  0  0  0  0  0  0  0  0  0
   38.5770   30.1740   40.2480 C   0  0  0  0  0  0  0  0  0  0  0  0
   37.2320   30.2950   39.9290 C   0  0  0  0  0  0  0  0  0  0  0  0
   36.4370   29.8620   40.5540 H   0  0  0  0  0  0  0  0  0  0  0  0
   36.7350   30.9410   38.8380 C   0  0  0  0  0  0  0  0  0  0  0  0
   35.6970   31.0320   38.5940 H   0  0  0  0  0  0  0  0  0  0  0  0
   37.6290   31.5230   37.9780 C   0  0  0  0  0  3  0  0  0  0  0  0
   38.9720   31.4230   38.2650 C   0  0  0  0  0  3  0  0  0  0  0  0
   39.4000   30.7780   39.3460 N   0  0  0  0  0  0  0  0  0  0  0  0
   36.9100   27.4770   42.8350 C   0  0  0  0  0  0  0  0  0  0  0  0
   36.8410   27.8170   41.7530 H   0  0  0  0  0  0  0  0  0  0  0  0
   35.9580   27.3390   43.3250 H   0  0  0  0  0  0  0  0  0  0  0  0
   37.7640   24.0190   41.6350 C   0  0  0  0  0  0  0  0  0  0  0  0
   37.0240   25.2210   41.8620 C   0  0  0  0  0  0  0  0  0  0  0  0
   37.6650   26.2290   42.5310 C   0  0  0  0  0  0  0  0  0  0  0  0
   38.9540   26.0530   42.9410 N   0  0  0  0  0  0  0  0  0  0  0  0
   39.6190   24.9330   42.7200 C   0  0  0  0  0  0  0  0  0  0  0  0
   39.0320   23.9210   42.0720 N   0  0  0  0  0  0  0  0  0  0  0  0
   37.3530   23.1680   41.1210 H   0  0  0  0  0  0  0  0  0  0  0  0
   36.0370   25.1530   41.4450 H   0  0  0  0  0  0  0  0  0  0  0  0
   40.6290   24.9520   43.1080 H   0  0  0  0  0  0  0  0  0  0  0  0
  1  2  1  0  0  0  0
  1  3  1  0  0  0  0
  4  7  1  6  0  0  0
  4  5  1  0  0  0  0
  4  1  1  0  0  0  0
  5  8  1  0  0  0  0
  6 10  1  6  0  0  0
  6  4  1  0  0  0  0
  6  5  1  0  0  0  0
  9  5  1  0  0  0  0
 11  6  1  0  0  0  0
 12 11  1  0  0  0  0
 12 13  1  0  0  0  0
 14 12  2  0  0  0  0
 15 14  1  0  0  0  0
 16 17  2  0  0  0  0
 16 14  1  0  0  0  0
 17 18  1  0  0  0  0
 18 11  2  0  0  0  0
 19 21  1  0  0  0  0
 19  1  1  0  0  0  0
 20 19  1  0  0  0  0
 22 23  2  0  0  0  0
 22 27  1  0  0  0  0
 23 24  1  0  0  0  0
 24 19  1  0  0  0  0
 24 25  2  0  0  0  0
 26 25  1  0  0  0  0
 26 30  1  0  0  0  0
 27 26  2  0  0  0  0
 28 22  1  0  0  0  0
 29 23  1  0  0  0  0
M  END
>  <minimizedAffinity>
-4.49931812

$$$$
