
 OpenBabel03242511283D

 33 36  0  0  0  0  0  0  0  0999 V2000
   44.6270   33.3740   41.1120 Cl  0  0  0  0  0  0  0  0  0  0  0  0
   46.1960   34.0590   40.9310 C   0  0  0  0  0  0  0  0  0  0  0  0
   46.7830   34.7320   41.9830 C   0  0  0  0  0  0  0  0  0  0  0  0
   48.0620   35.3080   41.8860 C   0  0  0  0  0  0  0  0  0  0  0  0
   48.6880   35.1590   40.6780 C   0  0  0  0  0  0  0  0  0  0  0  0
   48.1240   34.5000   39.6330 C   0  0  0  0  0  0  0  0  0  0  0  0
   46.8560   33.9370   39.7530 C   0  0  0  0  0  0  0  0  0  0  0  0
   48.4490   35.8120   42.7410 H   0  0  0  0  0  0  0  0  0  0  0  0
   49.6730   35.6020   40.6020 H   0  0  0  0  0  0  0  0  0  0  0  0
   48.7130   34.4440   38.7250 H   0  0  0  0  0  0  0  0  0  0  0  0
   45.5290   34.0320   45.3760 C   0  0  0  0  0  0  0  0  0  0  0  0
   44.6820   35.1090   45.6160 C   0  0  0  0  0  0  0  0  0  0  0  0
   44.5360   36.0740   44.6240 C   0  0  0  0  0  0  0  0  0  0  0  0
   45.2270   35.9250   43.4640 N   0  0  0  0  0  0  0  0  0  0  0  0
   46.0550   34.8540   43.2520 C   0  0  0  0  0  0  0  0  0  0  0  0
   46.1870   33.9320   44.2150 N   0  0  0  0  0  0  0  0  0  0  0  0
   45.7000   33.2380   46.0910 H   0  0  0  0  0  0  0  0  0  0  0  0
   44.1730   35.1440   46.5710 H   0  0  0  0  0  0  0  0  0  0  0  0
   43.8820   36.9130   44.8000 H   0  0  0  0  0  0  0  0  0  0  0  0
   46.3860   33.2610   38.5430 C   0  0  0  0  0  0  0  0  0  0  0  0
   47.2160   33.2050   37.4300 C   0  0  0  0  0  0  0  0  0  0  0  0
   46.2080   32.2740   36.1840 S   0  0  0  0  0  0  0  0  0  0  0  0
   44.8060   32.1300   37.4410 C   0  0  0  0  0  0  0  0  0  0  0  0
   45.2530   32.6650   38.3150 N   0  0  0  0  0  0  0  0  0  0  0  0
   48.2410   33.5950   37.2480 H   0  0  0  0  0  0  0  0  0  0  0  0
   43.5210   31.4340   37.1310 C   0  0  0  0  0  0  0  0  0  0  0  0
   43.5630   30.5400   36.0880 C   0  0  0  0  0  0  0  0  0  0  0  0
   44.4870   30.3870   35.5580 H   0  0  0  0  0  0  0  0  0  0  0  0
   42.3600   29.9140   35.8260 C   0  0  0  0  0  0  0  0  0  0  0  0
   42.3870   29.1960   34.9900 H   0  0  0  0  0  0  0  0  0  0  0  0
   41.2180   30.1840   36.5700 C   0  0  0  0  0  0  0  0  0  0  0  0
   41.2410   31.0920   37.6080 C   0  0  0  0  0  0  0  0  0  0  0  0
   42.4300   31.7120   37.8670 N   0  0  0  0  0  0  0  0  0  0  0  0
  2  1  1  0  0  0  0
  2  3  1  0  0  0  0
  3 15  1  0  0  0  0
  4  3  2  0  0  0  0
  4  8  1  0  0  0  0
  5  4  1  0  0  0  0
  6  7  1  0  0  0  0
  6  5  2  0  0  0  0
  7  2  2  0  0  0  0
  9  5  1  0  0  0  0
 10  6  1  0  0  0  0
 11 12  1  0  0  0  0
 11 17  1  0  0  0  0
 12 18  1  0  0  0  0
 13 19  1  0  0  0  0
 13 12  2  0  0  0  0
 14 13  1  0  0  0  0
 15 14  2  0  0  0  0
 15 16  1  0  0  0  0
 16 11  2  0  0  0  0
 20  7  1  0  0  0  0
 21 20  2  0  0  0  0
 22 21  1  0  0  0  0
 22 23  1  0  0  0  0
 23 24  2  0  0  0  0
 24 20  1  0  0  0  0
 25 21  1  0  0  0  0
 26 23  1  0  0  0  0
 26 33  1  0  0  0  0
 27 26  2  0  0  0  0
 28 27  1  0  0  0  0
 29 27  1  0  0  0  0
 29 31  2  0  0  0  0
 30 29  1  0  0  0  0
 31 32  1  0  0  0  0
 32 33  2  0  0  0  0
M  END
>  <minimizedAffinity>
-6.03122091

>  <minimizedRMSD>
1.56473577

$$$$
