
 OpenBabel03252507073D

 23 24  0  0  0  0  0  0  0  0999 V2000
   44.5470   35.9420   44.5420 C   0  0  0  0  0  0  0  0  0  0  0  0
   45.1680   35.8950   43.2830 C   0  0  0  0  0  0  0  0  0  0  0  0
   46.0940   34.8700   43.0590 C   0  0  0  0  0  0  0  0  0  0  0  0
   46.3340   33.9900   44.0630 N   0  0  0  0  0  0  0  0  0  0  0  0
   45.7180   34.0620   45.2660 C   0  0  0  0  0  0  0  0  0  0  0  0
   44.8310   35.0360   45.4960 N   0  0  0  0  0  0  0  0  0  0  0  0
   43.8420   36.7630   44.6430 H   0  0  0  0  0  0  0  0  0  0  0  0
   44.9390   36.6280   42.5120 H   0  0  0  0  0  0  0  0  0  0  0  0
   46.0300   33.0770   46.2970 C   0  0  0  0  0  0  0  0  0  0  0  0
   45.2590   33.0060   47.4390 C   0  0  0  0  0  0  0  0  0  0  0  0
   44.4170   33.6900   47.5680 H   0  0  0  0  0  0  0  0  0  0  0  0
   45.4860   32.1140   48.4450 C   0  0  0  0  0  0  0  0  0  0  0  0
   44.8540   32.0890   49.3360 H   0  0  0  0  0  0  0  0  0  0  0  0
   46.5400   31.2460   48.3040 C   0  0  0  0  0  3  0  0  0  0  0  0
   47.3210   31.3110   47.1530 C   0  0  0  0  0  3  0  0  0  0  0  0
   47.0590   32.2180   46.1750 N   0  0  0  0  0  0  0  0  0  0  0  0
   46.7060   34.8220   41.8220 O   0  0  0  0  0  0  0  0  0  0  0  0
   48.6840   33.2140   41.1150 O   0  0  0  0  0  0  0  0  0  0  0  0
   48.3960   34.5790   41.7200 P   0  0  0  0  0  0  0  0  0  0  0  0
   49.0600   35.8170   40.8200 O   0  0  0  0  0  0  0  0  0  0  0  0
   49.2460   35.4750   39.8970 H   0  0  0  0  0  0  0  0  0  0  0  0
   48.9890   34.5810   43.3210 O   0  0  0  0  0  0  0  0  0  0  0  0
   48.9190   35.5230   43.6230 H   0  0  0  0  0  0  0  0  0  0  0  0
  1  7  1  0  0  0  0
  1  6  1  0  0  0  0
  2  1  2  0  0  0  0
  3  2  1  0  0  0  0
  3  4  2  0  0  0  0
  4  5  1  0  0  0  0
  5  6  2  0  0  0  0
  5  9  1  0  0  0  0
  8  2  1  0  0  0  0
  9 10  1  0  0  0  0
 10 11  1  0  0  0  0
 10 12  2  0  0  0  0
 12 13  1  0  0  0  0
 14 12  1  0  0  0  0
 15 14  2  0  0  0  0
 16  9  2  0  0  0  0
 16 15  1  0  0  0  0
 17  3  1  0  0  0  0
 18 19  2  0  0  0  0
 19 17  1  0  0  0  0
 19 22  1  0  0  0  0
 20 19  1  0  0  0  0
 21 20  1  0  0  0  0
 22 23  1  0  0  0  0
M  END
>  <minimizedAffinity>
-5.78052807

>  <minimizedRMSD>
0.595378399

$$$$
