
 OpenBabel03252507083D

 23 24  0  0  0  0  0  0  0  0999 V2000
   44.5390   36.0310   44.4670 C   0  0  0  0  0  0  0  0  0  0  0  0
   45.1740   35.9510   43.2160 C   0  0  0  0  0  0  0  0  0  0  0  0
   46.0760   34.9000   43.0170 C   0  0  0  0  0  0  0  0  0  0  0  0
   46.2820   34.0290   44.0350 N   0  0  0  0  0  0  0  0  0  0  0  0
   45.6540   34.1310   45.2300 C   0  0  0  0  0  0  0  0  0  0  0  0
   44.7890   35.1300   45.4360 N   0  0  0  0  0  0  0  0  0  0  0  0
   43.8540   36.8710   44.5490 H   0  0  0  0  0  0  0  0  0  0  0  0
   44.9730   36.6800   42.4330 H   0  0  0  0  0  0  0  0  0  0  0  0
   45.9280   33.1530   46.2770 C   0  0  0  0  0  0  0  0  0  0  0  0
   46.9630   32.2550   46.1300 C   0  0  0  0  0  0  0  0  0  0  0  0
   47.5770   32.2790   45.2270 H   0  0  0  0  0  0  0  0  0  0  0  0
   47.2800   31.3120   47.0630 C   0  0  0  0  0  0  0  0  0  0  0  0
   48.1100   30.6180   46.9090 H   0  0  0  0  0  0  0  0  0  0  0  0
   46.5220   31.2650   48.2060 C   0  0  0  0  0  3  0  0  0  0  0  0
   45.4750   32.1680   48.3620 C   0  0  0  0  0  3  0  0  0  0  0  0
   45.1930   33.0920   47.4040 N   0  0  0  0  0  0  0  0  0  0  0  0
   46.7020   34.8210   41.7890 O   0  0  0  0  0  0  0  0  0  0  0  0
   48.6950   33.2280   41.0930 O   0  0  0  0  0  0  0  0  0  0  0  0
   48.3930   34.5840   41.7110 P   0  0  0  0  0  0  0  0  0  0  0  0
   49.0690   35.8350   40.8380 O   0  0  0  0  0  0  0  0  0  0  0  0
   49.2710   35.5050   39.9140 H   0  0  0  0  0  0  0  0  0  0  0  0
   48.9600   34.5660   43.3220 O   0  0  0  0  0  0  0  0  0  0  0  0
   48.8830   35.5040   43.6350 H   0  0  0  0  0  0  0  0  0  0  0  0
  1  7  1  0  0  0  0
  1  6  1  0  0  0  0
  2  1  2  0  0  0  0
  3  2  1  0  0  0  0
  3  4  2  0  0  0  0
  4  5  1  0  0  0  0
  5  6  2  0  0  0  0
  5  9  1  0  0  0  0
  8  2  1  0  0  0  0
  9 16  1  0  0  0  0
 10  9  2  0  0  0  0
 10 12  1  0  0  0  0
 11 10  1  0  0  0  0
 12 14  2  0  0  0  0
 13 12  1  0  0  0  0
 14 15  1  0  0  0  0
 16 15  2  0  0  0  0
 17  3  1  0  0  0  0
 18 19  2  0  0  0  0
 19 17  1  0  0  0  0
 19 22  1  0  0  0  0
 20 19  1  0  0  0  0
 21 20  1  0  0  0  0
 22 23  1  0  0  0  0
M  END
>  <minimizedAffinity>
-5.76083231

>  <minimizedRMSD>
0.287476689

$$$$
