
 OpenBabel03252507433D

 30 32  0  0  0  0  0  0  0  0999 V2000
   45.8150   34.5430   41.6830 C   0  0  0  0  0  0  0  0  0  0  0  0
   45.8140   33.7220   42.4350 H   0  0  0  0  0  0  0  0  0  0  0  0
   46.0390   35.4630   42.2870 H   0  0  0  0  0  0  0  0  0  0  0  0
   44.4330   34.5710   41.1340 C   0  0  0  0  0  0  0  0  0  0  0  0
   43.5630   35.6650   41.4570 C   0  0  0  0  0  0  0  0  0  0  0  0
   42.0160   35.1940   40.5350 S   0  0  0  0  0  0  0  0  0  0  0  0
   42.8440   33.6260   39.8990 C   0  0  0  0  0  0  0  0  0  0  0  0
   43.8840   33.6720   40.3520 N   0  0  0  0  0  0  0  0  0  0  0  0
   43.8040   36.5110   42.0810 H   0  0  0  0  0  0  0  0  0  0  0  0
   42.1240   32.6630   39.0080 C   0  0  0  0  0  0  0  0  0  0  0  0
   40.7700   32.4970   39.2130 C   0  0  0  0  0  0  0  0  0  0  0  0
   40.3180   33.0700   40.0010 H   0  0  0  0  0  0  0  0  0  0  0  0
   40.1470   31.6050   38.3740 C   0  0  0  0  0  0  0  0  0  0  0  0
   39.0710   31.4860   38.5520 H   0  0  0  0  0  0  0  0  0  0  0  0
   40.8640   30.9420   37.4070 C   0  0  0  0  0  3  0  0  0  0  0  0
   42.2200   31.1420   37.2390 C   0  0  0  0  0  3  0  0  0  0  0  0
   42.8100   32.0200   38.0710 N   0  0  0  0  0  0  0  0  0  0  0  0
   46.8840   34.2430   40.6940 C   0  0  0  0  0  0  0  0  0  0  0  0
   46.9810   35.1630   40.0440 H   0  0  0  0  0  0  0  0  0  0  0  0
   46.5820   33.3780   40.1150 H   0  0  0  0  0  0  0  0  0  0  0  0
   48.2250   34.0760   41.2960 C   0  0  0  0  0  0  0  0  0  0  0  0
   48.8980   32.8720   41.0310 C   0  0  0  0  0  0  0  0  0  0  0  0
   50.1500   32.6530   41.5600 C   0  0  0  0  0  0  0  0  0  0  0  0
   50.6980   33.6330   42.3330 N   0  0  0  0  0  0  0  0  0  0  0  0
   50.0260   34.7830   42.5710 C   0  0  0  0  0  0  0  0  0  0  0  0
   48.8110   34.9930   42.0570 N   0  0  0  0  0  0  0  0  0  0  0  0
   50.7060   31.7370   41.3820 H   0  0  0  0  0  0  0  0  0  0  0  0
   50.5440   35.4990   43.1970 H   0  0  0  0  0  0  0  0  0  0  0  0
   48.1260   31.6140   40.0020 S   0  0  0  0  0  0  0  0  0  0  0  0
   48.0430   32.0200   38.6610 H   0  0  0  0  0  0  0  0  0  0  0  0
  1  3  1  0  0  0  0
  1  2  1  0  0  0  0
  4  5  2  0  0  0  0
  4  1  1  0  0  0  0
  5  9  1  0  0  0  0
  6  5  1  0  0  0  0
  7  8  2  0  0  0  0
  7  6  1  0  0  0  0
  8  4  1  0  0  0  0
 10 11  1  0  0  0  0
 10  7  1  0  0  0  0
 11 12  1  0  0  0  0
 13 14  1  0  0  0  0
 13 11  2  0  0  0  0
 15 13  1  0  0  0  0
 16 15  2  0  0  0  0
 16 17  1  0  0  0  0
 17 10  2  0  0  0  0
 18 21  1  0  0  0  0
 18  1  1  0  0  0  0
 19 18  1  0  0  0  0
 20 18  1  0  0  0  0
 21 26  1  0  0  0  0
 22 21  2  0  0  0  0
 22 23  1  0  0  0  0
 23 24  2  0  0  0  0
 24 25  1  0  0  0  0
 25 28  1  0  0  0  0
 26 25  2  0  0  0  0
 27 23  1  0  0  0  0
 29 22  1  0  0  0  0
 30 29  1  0  0  0  0
M  END
>  <minimizedAffinity>
-4.30649185

>  <minimizedRMSD>
0.927730083

$$$$
