
 OpenBabel03252507443D

 30 32  0  0  0  0  0  0  0  0999 V2000
   38.1520   27.4810   43.5170 C   0  0  0  0  0  0  0  0  0  0  0  0
   37.8130   27.9310   44.4770 H   0  0  0  0  0  0  0  0  0  0  0  0
   38.8140   26.6310   43.8350 H   0  0  0  0  0  0  0  0  0  0  0  0
   38.9260   28.5530   42.8360 C   0  0  0  0  0  0  0  0  0  0  0  0
   40.3600   28.4880   42.8120 C   0  0  0  0  0  0  0  0  0  0  0  0
   40.7860   30.0320   41.8650 S   0  0  0  0  0  0  0  0  0  0  0  0
   38.9590   30.4570   41.6880 C   0  0  0  0  0  0  0  0  0  0  0  0
   38.4360   29.6050   42.2240 N   0  0  0  0  0  0  0  0  0  0  0  0
   40.9710   27.7160   43.2510 H   0  0  0  0  0  0  0  0  0  0  0  0
   38.5050   31.6880   40.9670 C   0  0  0  0  0  0  0  0  0  0  0  0
   37.4300   31.5640   40.1130 C   0  0  0  0  0  0  0  0  0  0  0  0
   36.9840   30.5910   40.0190 H   0  0  0  0  0  0  0  0  0  0  0  0
   37.0440   32.7170   39.4700 C   0  0  0  0  0  0  0  0  0  0  0  0
   36.1870   32.5980   38.7960 H   0  0  0  0  0  0  0  0  0  0  0  0
   37.7150   33.8950   39.6950 C   0  0  0  0  0  3  0  0  0  0  0  0
   38.7870   33.9700   40.5600 C   0  0  0  0  0  3  0  0  0  0  0  0
   39.1490   32.8290   41.1790 N   0  0  0  0  0  0  0  0  0  0  0  0
   36.9440   27.0130   42.7890 C   0  0  0  0  0  0  0  0  0  0  0  0
   36.6260   27.8670   42.1190 H   0  0  0  0  0  0  0  0  0  0  0  0
   36.1760   26.7730   43.5170 H   0  0  0  0  0  0  0  0  0  0  0  0
   37.2040   25.8930   41.8570 C   0  0  0  0  0  0  0  0  0  0  0  0
   36.9650   26.1300   40.4930 C   0  0  0  0  0  0  0  0  0  0  0  0
   37.1880   25.1310   39.5720 C   0  0  0  0  0  0  0  0  0  0  0  0
   37.6410   23.9300   40.0290 N   0  0  0  0  0  0  0  0  0  0  0  0
   37.8620   23.7310   41.3490 C   0  0  0  0  0  0  0  0  0  0  0  0
   37.6450   24.7010   42.2400 N   0  0  0  0  0  0  0  0  0  0  0  0
   37.0160   25.2700   38.5090 H   0  0  0  0  0  0  0  0  0  0  0  0
   38.2200   22.7440   41.6130 H   0  0  0  0  0  0  0  0  0  0  0  0
   36.3670   27.7370   39.9470 S   0  0  0  0  0  0  0  0  0  0  0  0
   37.3490   28.7310   40.0860 H   0  0  0  0  0  0  0  0  0  0  0  0
  1  3  1  0  0  0  0
  1  2  1  0  0  0  0
  4  1  1  0  0  0  0
  5  4  2  0  0  0  0
  5  9  1  0  0  0  0
  6  5  1  0  0  0  0
  7  6  1  0  0  0  0
  7  8  2  0  0  0  0
  8  4  1  0  0  0  0
 10 17  1  0  0  0  0
 10  7  1  0  0  0  0
 11 10  2  0  0  0  0
 12 11  1  0  0  0  0
 13 15  2  0  0  0  0
 13 11  1  0  0  0  0
 14 13  1  0  0  0  0
 15 16  1  0  0  0  0
 16 17  2  0  0  0  0
 18 20  1  0  0  0  0
 18  1  1  0  0  0  0
 19 18  1  0  0  0  0
 21 26  1  0  0  0  0
 21 18  1  0  0  0  0
 22 21  2  0  0  0  0
 23 24  2  0  0  0  0
 23 22  1  0  0  0  0
 24 25  1  0  0  0  0
 25 28  1  0  0  0  0
 25 26  2  0  0  0  0
 27 23  1  0  0  0  0
 29 30  1  0  0  0  0
 29 22  1  0  0  0  0
M  END
>  <minimizedAffinity>
-4.99254799

$$$$

 OpenBabel03252507443D

 30 32  0  0  0  0  0  0  0  0999 V2000
   36.9900   27.9000   43.2280 C   0  0  0  0  0  0  0  0  0  0  0  0
   36.1240   27.2060   43.1350 H   0  0  0  0  0  0  0  0  0  0  0  0
   36.8190   28.4140   44.2120 H   0  0  0  0  0  0  0  0  0  0  0  0
   36.8580   28.8440   42.0860 C   0  0  0  0  0  0  0  0  0  0  0  0
   35.8730   28.5970   41.0720 C   0  0  0  0  0  0  0  0  0  0  0  0
   36.1470   30.0410   39.9300 S   0  0  0  0  0  0  0  0  0  0  0  0
   37.5260   30.6880   41.0390 C   0  0  0  0  0  0  0  0  0  0  0  0
   37.5680   29.9270   41.8800 N   0  0  0  0  0  0  0  0  0  0  0  0
   35.1840   27.7690   41.0390 H   0  0  0  0  0  0  0  0  0  0  0  0
   38.2770   31.9400   40.7100 C   0  0  0  0  0  0  0  0  0  0  0  0
   37.5530   33.0030   40.2120 C   0  0  0  0  0  0  0  0  0  0  0  0
   36.4950   32.8660   40.0910 H   0  0  0  0  0  0  0  0  0  0  0  0
   38.2790   34.1340   39.9230 C   0  0  0  0  0  0  0  0  0  0  0  0
   37.6870   34.9680   39.5290 H   0  0  0  0  0  0  0  0  0  0  0  0
   39.6370   34.1600   40.1330 C   0  0  0  0  0  3  0  0  0  0  0  0
   40.3190   33.0700   40.6340 C   0  0  0  0  0  3  0  0  0  0  0  0
   39.5890   31.9730   40.9100 N   0  0  0  0  0  0  0  0  0  0  0  0
   38.2270   27.0760   43.2300 C   0  0  0  0  0  0  0  0  0  0  0  0
   38.2630   26.5590   44.2340 H   0  0  0  0  0  0  0  0  0  0  0  0
   39.0780   27.7340   43.0910 H   0  0  0  0  0  0  0  0  0  0  0  0
   38.2080   25.9690   42.2480 C   0  0  0  0  0  0  0  0  0  0  0  0
   39.1880   25.9920   41.2420 C   0  0  0  0  0  0  0  0  0  0  0  0
   39.2260   24.9910   40.2970 C   0  0  0  0  0  0  0  0  0  0  0  0
   38.2960   23.9980   40.3780 N   0  0  0  0  0  0  0  0  0  0  0  0
   37.3640   24.0030   41.3590 C   0  0  0  0  0  0  0  0  0  0  0  0
   37.3280   24.9750   42.2740 N   0  0  0  0  0  0  0  0  0  0  0  0
   39.9660   24.9690   39.5010 H   0  0  0  0  0  0  0  0  0  0  0  0
   36.6690   23.1730   41.3390 H   0  0  0  0  0  0  0  0  0  0  0  0
   40.3910   27.3280   41.1840 S   0  0  0  0  0  0  0  0  0  0  0  0
   41.2990   27.2550   42.2520 H   0  0  0  0  0  0  0  0  0  0  0  0
  1 18  1  0  0  0  0
  1  3  1  0  0  0  0
  2  1  1  0  0  0  0
  4  1  1  0  0  0  0
  5  4  2  0  0  0  0
  6  7  1  0  0  0  0
  6  5  1  0  0  0  0
  7  8  2  0  0  0  0
  8  4  1  0  0  0  0
  9  5  1  0  0  0  0
 10 17  1  0  0  0  0
 10  7  1  0  0  0  0
 11 10  2  0  0  0  0
 12 11  1  0  0  0  0
 13 15  2  0  0  0  0
 13 11  1  0  0  0  0
 14 13  1  0  0  0  0
 15 16  1  0  0  0  0
 16 17  2  0  0  0  0
 18 19  1  0  0  0  0
 20 18  1  0  0  0  0
 21 26  1  0  0  0  0
 21 18  1  0  0  0  0
 22 21  2  0  0  0  0
 23 24  2  0  0  0  0
 23 22  1  0  0  0  0
 24 25  1  0  0  0  0
 25 26  2  0  0  0  0
 27 23  1  0  0  0  0
 28 25  1  0  0  0  0
 29 22  1  0  0  0  0
 29 30  1  0  0  0  0
M  END
>  <minimizedAffinity>
-4.90591145

$$$$

 OpenBabel03252507443D

 30 32  0  0  0  0  0  0  0  0999 V2000
   36.4330   28.2260   42.1460 C   0  0  0  0  0  0  0  0  0  0  0  0
   36.2910   27.6030   41.2340 H   0  0  0  0  0  0  0  0  0  0  0  0
   35.3910   28.3790   42.5340 H   0  0  0  0  0  0  0  0  0  0  0  0
   37.0300   29.4990   41.6590 C   0  0  0  0  0  0  0  0  0  0  0  0
   36.2270   30.4130   40.8970 C   0  0  0  0  0  0  0  0  0  0  0  0
   37.4420   31.7820   40.5610 S   0  0  0  0  0  0  0  0  0  0  0  0
   38.7830   30.8580   41.5080 C   0  0  0  0  0  0  0  0  0  0  0  0
   38.2610   29.9090   41.8480 N   0  0  0  0  0  0  0  0  0  0  0  0
   35.1930   30.2790   40.6230 H   0  0  0  0  0  0  0  0  0  0  0  0
   40.1620   31.4180   41.6660 C   0  0  0  0  0  0  0  0  0  0  0  0
   40.9470   30.9000   42.6730 C   0  0  0  0  0  0  0  0  0  0  0  0
   40.5210   30.1250   43.2830 H   0  0  0  0  0  0  0  0  0  0  0  0
   42.2070   31.4410   42.7850 C   0  0  0  0  0  0  0  0  0  0  0  0
   42.8160   31.0160   43.5910 H   0  0  0  0  0  0  0  0  0  0  0  0
   42.6140   32.4330   41.9250 C   0  0  0  0  0  3  0  0  0  0  0  0
   41.7910   32.9200   40.9310 C   0  0  0  0  0  3  0  0  0  0  0  0
   40.5630   32.3770   40.8390 N   0  0  0  0  0  0  0  0  0  0  0  0
   37.2800   27.4510   43.0900 C   0  0  0  0  0  0  0  0  0  0  0  0
   36.6100   27.1660   43.9560 H   0  0  0  0  0  0  0  0  0  0  0  0
   38.1000   28.0820   43.4140 H   0  0  0  0  0  0  0  0  0  0  0  0
   37.7480   26.1560   42.5480 C   0  0  0  0  0  0  0  0  0  0  0  0
   39.1010   25.8350   42.7430 C   0  0  0  0  0  0  0  0  0  0  0  0
   39.6010   24.6440   42.2650 C   0  0  0  0  0  0  0  0  0  0  0  0
   38.7470   23.8090   41.6090 N   0  0  0  0  0  0  0  0  0  0  0  0
   37.4480   24.1460   41.4370 C   0  0  0  0  0  0  0  0  0  0  0  0
   36.9650   25.3010   41.9010 N   0  0  0  0  0  0  0  0  0  0  0  0
   40.6400   24.3550   42.3920 H   0  0  0  0  0  0  0  0  0  0  0  0
   36.8490   23.4170   40.9030 H   0  0  0  0  0  0  0  0  0  0  0  0
   40.1830   26.9760   43.6170 S   0  0  0  0  0  0  0  0  0  0  0  0
   39.8650   27.0510   44.9820 H   0  0  0  0  0  0  0  0  0  0  0  0
  1  3  1  0  0  0  0
  1 18  1  0  0  0  0
  2  1  1  0  0  0  0
  4  8  1  0  0  0  0
  4  1  1  0  0  0  0
  5  4  2  0  0  0  0
  6  5  1  0  0  0  0
  6  7  1  0  0  0  0
  7 10  1  0  0  0  0
  7  8  2  0  0  0  0
  9  5  1  0  0  0  0
 10 11  1  0  0  0  0
 11 13  2  0  0  0  0
 11 12  1  0  0  0  0
 13 14  1  0  0  0  0
 15 13  1  0  0  0  0
 16 15  2  0  0  0  0
 17 16  1  0  0  0  0
 17 10  2  0  0  0  0
 18 20  1  0  0  0  0
 18 19  1  0  0  0  0
 21 22  1  0  0  0  0
 21 18  1  0  0  0  0
 22 29  1  0  0  0  0
 23 27  1  0  0  0  0
 23 22  2  0  0  0  0
 24 23  1  0  0  0  0
 25 24  2  0  0  0  0
 25 26  1  0  0  0  0
 26 21  2  0  0  0  0
 28 25  1  0  0  0  0
 29 30  1  0  0  0  0
M  END
>  <minimizedAffinity>
-4.86371279

$$$$

 OpenBabel03252507443D

 30 32  0  0  0  0  0  0  0  0999 V2000
   37.7740   28.1640   43.6150 C   0  0  0  0  0  0  0  0  0  0  0  0
   37.8890   28.1730   44.7220 H   0  0  0  0  0  0  0  0  0  0  0  0
   36.6620   28.2030   43.4580 H   0  0  0  0  0  0  0  0  0  0  0  0
   38.3440   26.8630   43.1740 C   0  0  0  0  0  0  0  0  0  0  0  0
   39.6220   26.4420   43.6760 C   0  0  0  0  0  0  0  0  0  0  0  0
   39.8350   24.8030   42.8190 S   0  0  0  0  0  0  0  0  0  0  0  0
   38.1710   25.0080   41.9600 C   0  0  0  0  0  0  0  0  0  0  0  0
   37.7970   26.0100   42.3410 N   0  0  0  0  0  0  0  0  0  0  0  0
   40.2460   26.9830   44.3680 H   0  0  0  0  0  0  0  0  0  0  0  0
   37.6370   23.9700   41.0240 C   0  0  0  0  0  0  0  0  0  0  0  0
   36.3860   24.1830   40.4840 C   0  0  0  0  0  0  0  0  0  0  0  0
   35.8730   25.0830   40.7690 H   0  0  0  0  0  0  0  0  0  0  0  0
   35.9320   23.2070   39.6290 C   0  0  0  0  0  0  0  0  0  0  0  0
   34.9370   23.3950   39.2090 H   0  0  0  0  0  0  0  0  0  0  0  0
   36.7080   22.1050   39.3580 C   0  0  0  0  0  3  0  0  0  0  0  0
   37.9550   21.9350   39.9230 C   0  0  0  0  0  3  0  0  0  0  0  0
   38.3810   22.9030   40.7580 N   0  0  0  0  0  0  0  0  0  0  0  0
   38.4620   29.3690   43.0830 C   0  0  0  0  0  0  0  0  0  0  0  0
   39.5140   29.0450   42.8240 H   0  0  0  0  0  0  0  0  0  0  0  0
   38.4600   30.1330   43.8520 H   0  0  0  0  0  0  0  0  0  0  0  0
   37.9040   29.8600   41.8030 C   0  0  0  0  0  0  0  0  0  0  0  0
   38.7770   29.9070   40.7030 C   0  0  0  0  0  0  0  0  0  0  0  0
   38.3220   30.3520   39.4820 C   0  0  0  0  0  0  0  0  0  0  0  0
   37.0180   30.7360   39.3880 N   0  0  0  0  0  0  0  0  0  0  0  0
   36.2000   30.6790   40.4640 C   0  0  0  0  0  0  0  0  0  0  0  0
   36.6440   30.2470   41.6470 N   0  0  0  0  0  0  0  0  0  0  0  0
   38.9620   30.4060   38.6060 H   0  0  0  0  0  0  0  0  0  0  0  0
   35.1830   31.0060   40.2890 H   0  0  0  0  0  0  0  0  0  0  0  0
   40.4900   29.3870   40.8870 S   0  0  0  0  0  0  0  0  0  0  0  0
   40.5940   28.0010   41.0810 H   0  0  0  0  0  0  0  0  0  0  0  0
  1  2  1  0  0  0  0
  3  1  1  0  0  0  0
  4  1  1  0  0  0  0
  4  5  2  0  0  0  0
  5  9  1  0  0  0  0
  6  5  1  0  0  0  0
  7  8  2  0  0  0  0
  7  6  1  0  0  0  0
  8  4  1  0  0  0  0
 10  7  1  0  0  0  0
 11 12  1  0  0  0  0
 11 10  2  0  0  0  0
 13 11  1  0  0  0  0
 14 13  1  0  0  0  0
 15 13  2  0  0  0  0
 15 16  1  0  0  0  0
 16 17  2  0  0  0  0
 17 10  1  0  0  0  0
 18  1  1  0  0  0  0
 18 20  1  0  0  0  0
 19 18  1  0  0  0  0
 21 18  1  0  0  0  0
 22 29  1  0  0  0  0
 22 21  2  0  0  0  0
 23 22  1  0  0  0  0
 24 23  2  0  0  0  0
 24 25  1  0  0  0  0
 25 26  2  0  0  0  0
 26 21  1  0  0  0  0
 27 23  1  0  0  0  0
 28 25  1  0  0  0  0
 29 30  1  0  0  0  0
M  END
>  <minimizedAffinity>
-4.83907795

$$$$

 OpenBabel03252507443D

 30 32  0  0  0  0  0  0  0  0999 V2000
   36.2720   30.7440   41.0470 C   0  0  0  0  0  0  0  0  0  0  0  0
   36.6410   31.5060   41.7710 H   0  0  0  0  0  0  0  0  0  0  0  0
   35.1580   30.7540   41.1890 H   0  0  0  0  0  0  0  0  0  0  0  0
   36.8710   29.4590   41.4960 C   0  0  0  0  0  0  0  0  0  0  0  0
   37.7590   29.4450   42.6230 C   0  0  0  0  0  0  0  0  0  0  0  0
   38.1930   27.6380   42.7310 S   0  0  0  0  0  0  0  0  0  0  0  0
   37.0980   27.2610   41.2450 C   0  0  0  0  0  0  0  0  0  0  0  0
   36.6780   28.2770   40.9610 N   0  0  0  0  0  0  0  0  0  0  0  0
   38.0580   30.2970   43.2120 H   0  0  0  0  0  0  0  0  0  0  0  0
   36.9470   25.8710   40.7120 C   0  0  0  0  0  0  0  0  0  0  0  0
   37.3540   24.8320   41.5220 C   0  0  0  0  0  0  0  0  0  0  0  0
   37.7550   25.0860   42.4860 H   0  0  0  0  0  0  0  0  0  0  0  0
   37.1990   23.5710   40.9960 C   0  0  0  0  0  0  0  0  0  0  0  0
   37.5280   22.7580   41.6540 H   0  0  0  0  0  0  0  0  0  0  0  0
   36.6680   23.4030   39.7400 C   0  0  0  0  0  3  0  0  0  0  0  0
   36.2740   24.4750   38.9650 C   0  0  0  0  0  3  0  0  0  0  0  0
   36.4340   25.7010   39.4990 N   0  0  0  0  0  0  0  0  0  0  0  0
   36.6730   31.1880   39.6870 C   0  0  0  0  0  0  0  0  0  0  0  0
   35.8080   31.7940   39.2820 H   0  0  0  0  0  0  0  0  0  0  0  0
   36.8610   30.3090   39.0800 H   0  0  0  0  0  0  0  0  0  0  0  0
   37.8150   32.1310   39.6780 C   0  0  0  0  0  0  0  0  0  0  0  0
   39.0090   31.6800   39.0930 C   0  0  0  0  0  0  0  0  0  0  0  0
   40.1090   32.5070   39.0510 C   0  0  0  0  0  0  0  0  0  0  0  0
   39.9920   33.7540   39.5880 N   0  0  0  0  0  0  0  0  0  0  0  0
   38.8280   34.1610   40.1440 C   0  0  0  0  0  0  0  0  0  0  0  0
   37.7630   33.3570   40.1840 N   0  0  0  0  0  0  0  0  0  0  0  0
   41.0530   32.2000   38.6100 H   0  0  0  0  0  0  0  0  0  0  0  0
   38.8350   35.1670   40.5440 H   0  0  0  0  0  0  0  0  0  0  0  0
   39.1060   30.0220   38.3990 S   0  0  0  0  0  0  0  0  0  0  0  0
   38.3320   29.9020   37.2340 H   0  0  0  0  0  0  0  0  0  0  0  0
  1  3  1  0  0  0  0
  1  4  1  0  0  0  0
  1  2  1  0  0  0  0
  4  5  2  0  0  0  0
  5  6  1  0  0  0  0
  5  9  1  0  0  0  0
  7  6  1  0  0  0  0
  8  7  2  0  0  0  0
  8  4  1  0  0  0  0
 10  7  1  0  0  0  0
 10 11  1  0  0  0  0
 11 12  1  0  0  0  0
 13 11  2  0  0  0  0
 13 14  1  0  0  0  0
 15 13  1  0  0  0  0
 16 17  1  0  0  0  0
 16 15  2  0  0  0  0
 17 10  2  0  0  0  0
 18  1  1  0  0  0  0
 19 18  1  0  0  0  0
 20 18  1  0  0  0  0
 21 18  1  0  0  0  0
 21 26  1  0  0  0  0
 22 21  2  0  0  0  0
 23 22  1  0  0  0  0
 23 24  2  0  0  0  0
 24 25  1  0  0  0  0
 25 26  2  0  0  0  0
 25 28  1  0  0  0  0
 27 23  1  0  0  0  0
 29 22  1  0  0  0  0
 30 29  1  0  0  0  0
M  END
>  <minimizedAffinity>
-4.83780193

$$$$

 OpenBabel03252507443D

 30 32  0  0  0  0  0  0  0  0999 V2000
   39.5800   33.6960   40.1810 C   0  0  0  0  0  0  0  0  0  0  0  0
   40.0710   33.9290   41.1530 H   0  0  0  0  0  0  0  0  0  0  0  0
   39.0390   34.6440   39.9180 H   0  0  0  0  0  0  0  0  0  0  0  0
   38.6330   32.5880   40.4780 C   0  0  0  0  0  0  0  0  0  0  0  0
   37.2960   32.6400   39.9600 C   0  0  0  0  0  0  0  0  0  0  0  0
   36.5800   31.0550   40.6210 S   0  0  0  0  0  0  0  0  0  0  0  0
   38.2150   30.6370   41.4600 C   0  0  0  0  0  0  0  0  0  0  0  0
   38.8820   31.5160   41.1920 N   0  0  0  0  0  0  0  0  0  0  0  0
   36.8760   33.4250   39.3510 H   0  0  0  0  0  0  0  0  0  0  0  0
   38.3930   29.3820   42.2540 C   0  0  0  0  0  0  0  0  0  0  0  0
   37.2560   28.6900   42.6140 C   0  0  0  0  0  0  0  0  0  0  0  0
   36.3110   29.0960   42.3010 H   0  0  0  0  0  0  0  0  0  0  0  0
   37.4620   27.5430   43.3430 C   0  0  0  0  0  0  0  0  0  0  0  0
   36.5460   27.0070   43.6190 H   0  0  0  0  0  0  0  0  0  0  0  0
   38.7370   27.1480   43.6700 C   0  0  0  0  0  3  0  0  0  0  0  0
   39.8460   27.8740   43.2870 C   0  0  0  0  0  3  0  0  0  0  0  0
   39.6220   28.9940   42.5740 N   0  0  0  0  0  0  0  0  0  0  0  0
   40.6530   33.3680   39.2060 C   0  0  0  0  0  0  0  0  0  0  0  0
   40.5840   34.1440   38.3860 H   0  0  0  0  0  0  0  0  0  0  0  0
   40.4750   32.3690   38.8230 H   0  0  0  0  0  0  0  0  0  0  0  0
   42.0210   33.5270   39.7470 C   0  0  0  0  0  0  0  0  0  0  0  0
   43.0830   33.1030   38.9310 C   0  0  0  0  0  0  0  0  0  0  0  0
   44.3810   33.2230   39.3740 C   0  0  0  0  0  0  0  0  0  0  0  0
   44.5880   33.7610   40.6090 N   0  0  0  0  0  0  0  0  0  0  0  0
   43.5450   34.1610   41.3730 C   0  0  0  0  0  0  0  0  0  0  0  0
   42.2870   34.0430   40.9410 N   0  0  0  0  0  0  0  0  0  0  0  0
   45.2320   32.9080   38.7770 H   0  0  0  0  0  0  0  0  0  0  0  0
   43.8110   34.5730   42.3380 H   0  0  0  0  0  0  0  0  0  0  0  0
   42.7490   32.4010   37.3080 S   0  0  0  0  0  0  0  0  0  0  0  0
   42.2710   33.3700   36.4120 H   0  0  0  0  0  0  0  0  0  0  0  0
  1  4  1  0  0  0  0
  1  2  1  0  0  0  0
  3  1  1  0  0  0  0
  4  8  1  0  0  0  0
  5  4  2  0  0  0  0
  5  6  1  0  0  0  0
  6  7  1  0  0  0  0
  7 10  1  0  0  0  0
  8  7  2  0  0  0  0
  9  5  1  0  0  0  0
 10 17  2  0  0  0  0
 10 11  1  0  0  0  0
 11 13  2  0  0  0  0
 12 11  1  0  0  0  0
 13 14  1  0  0  0  0
 13 15  1  0  0  0  0
 16 15  2  0  0  0  0
 17 16  1  0  0  0  0
 18 21  1  0  0  0  0
 18  1  1  0  0  0  0
 19 18  1  0  0  0  0
 20 18  1  0  0  0  0
 21 26  1  0  0  0  0
 22 23  1  0  0  0  0
 22 21  2  0  0  0  0
 23 24  2  0  0  0  0
 24 25  1  0  0  0  0
 25 28  1  0  0  0  0
 26 25  2  0  0  0  0
 27 23  1  0  0  0  0
 29 22  1  0  0  0  0
 30 29  1  0  0  0  0
M  END
>  <minimizedAffinity>
-4.77934027

$$$$

 OpenBabel03252507443D

 30 32  0  0  0  0  0  0  0  0999 V2000
   35.5740   28.0960   39.0960 C   0  0  0  0  0  0  0  0  0  0  0  0
   36.4660   28.5030   38.5680 H   0  0  0  0  0  0  0  0  0  0  0  0
   35.8740   27.0470   39.3640 H   0  0  0  0  0  0  0  0  0  0  0  0
   34.4820   28.1130   38.0860 C   0  0  0  0  0  0  0  0  0  0  0  0
   34.4210   27.0820   37.0890 C   0  0  0  0  0  0  0  0  0  0  0  0
   32.9110   27.5870   36.1260 S   0  0  0  0  0  0  0  0  0  0  0  0
   32.6620   29.0780   37.2500 C   0  0  0  0  0  0  0  0  0  0  0  0
   33.5210   29.0000   37.9880 N   0  0  0  0  0  0  0  0  0  0  0  0
   35.1050   26.2560   36.9820 H   0  0  0  0  0  0  0  0  0  0  0  0
   31.5270   30.0320   37.0500 C   0  0  0  0  0  0  0  0  0  0  0  0
   30.6710   30.2350   38.1130 C   0  0  0  0  0  0  0  0  0  0  0  0
   30.8740   29.6950   39.0190 H   0  0  0  0  0  0  0  0  0  0  0  0
   29.6420   31.1180   37.8880 C   0  0  0  0  0  0  0  0  0  0  0  0
   28.9730   31.2670   38.7450 H   0  0  0  0  0  0  0  0  0  0  0  0
   29.5110   31.7370   36.6680 C   0  0  0  0  0  3  0  0  0  0  0  0
   30.3930   31.5020   35.6330 C   0  0  0  0  0  3  0  0  0  0  0  0
   31.3940   30.6340   35.8740 N   0  0  0  0  0  0  0  0  0  0  0  0
   35.3400   28.9400   40.2960 C   0  0  0  0  0  0  0  0  0  0  0  0
   34.3860   28.5600   40.7700 H   0  0  0  0  0  0  0  0  0  0  0  0
   35.2410   29.9720   39.9770 H   0  0  0  0  0  0  0  0  0  0  0  0
   36.3650   28.7750   41.3520 C   0  0  0  0  0  0  0  0  0  0  0  0
   37.2380   29.8530   41.5670 C   0  0  0  0  0  0  0  0  0  0  0  0
   38.2140   29.7650   42.5340 C   0  0  0  0  0  0  0  0  0  0  0  0
   38.2930   28.6140   43.2600 N   0  0  0  0  0  0  0  0  0  0  0  0
   37.4370   27.5920   43.0300 C   0  0  0  0  0  0  0  0  0  0  0  0
   36.4920   27.6790   42.0910 N   0  0  0  0  0  0  0  0  0  0  0  0
   38.9110   30.5740   42.7340 H   0  0  0  0  0  0  0  0  0  0  0  0
   37.5810   26.7210   43.6560 H   0  0  0  0  0  0  0  0  0  0  0  0
   37.0860   31.3490   40.5790 S   0  0  0  0  0  0  0  0  0  0  0  0
   35.9170   32.0600   40.8900 H   0  0  0  0  0  0  0  0  0  0  0  0
  1  3  1  0  0  0  0
  1 18  1  0  0  0  0
  2  1  1  0  0  0  0
  4  1  1  0  0  0  0
  5  4  2  0  0  0  0
  6  5  1  0  0  0  0
  6  7  1  0  0  0  0
  7  8  2  0  0  0  0
  8  4  1  0  0  0  0
  9  5  1  0  0  0  0
 10  7  1  0  0  0  0
 10 11  1  0  0  0  0
 11 12  1  0  0  0  0
 13 11  2  0  0  0  0
 13 14  1  0  0  0  0
 15 13  1  0  0  0  0
 16 17  1  0  0  0  0
 16 15  2  0  0  0  0
 17 10  2  0  0  0  0
 18 19  1  0  0  0  0
 18 21  1  0  0  0  0
 20 18  1  0  0  0  0
 21 22  2  0  0  0  0
 21 26  1  0  0  0  0
 22 23  1  0  0  0  0
 23 27  1  0  0  0  0
 23 24  2  0  0  0  0
 25 24  1  0  0  0  0
 25 28  1  0  0  0  0
 26 25  2  0  0  0  0
 29 30  1  0  0  0  0
 29 22  1  0  0  0  0
M  END
>  <minimizedAffinity>
-4.75781202

$$$$

 OpenBabel03252507443D

 30 32  0  0  0  0  0  0  0  0999 V2000
   36.8630   31.0150   38.6170 C   0  0  0  0  0  0  0  0  0  0  0  0
   35.7730   31.2060   38.4910 H   0  0  0  0  0  0  0  0  0  0  0  0
   37.1550   30.4800   37.6740 H   0  0  0  0  0  0  0  0  0  0  0  0
   36.9690   30.1280   39.8070 C   0  0  0  0  0  0  0  0  0  0  0  0
   37.1840   30.7030   41.1040 C   0  0  0  0  0  0  0  0  0  0  0  0
   37.2360   29.1850   42.1790 S   0  0  0  0  0  0  0  0  0  0  0  0
   36.9580   28.0820   40.6770 C   0  0  0  0  0  0  0  0  0  0  0  0
   36.8870   28.8190   39.8170 N   0  0  0  0  0  0  0  0  0  0  0  0
   37.2820   31.7530   41.3290 H   0  0  0  0  0  0  0  0  0  0  0  0
   36.8800   26.5930   40.7990 C   0  0  0  0  0  0  0  0  0  0  0  0
   37.1760   26.0390   42.0270 C   0  0  0  0  0  0  0  0  0  0  0  0
   37.4440   26.7120   42.8200 H   0  0  0  0  0  0  0  0  0  0  0  0
   37.0930   24.6680   42.0970 C   0  0  0  0  0  0  0  0  0  0  0  0
   37.3310   24.2470   43.0810 H   0  0  0  0  0  0  0  0  0  0  0  0
   36.7340   23.9360   40.9910 C   0  0  0  0  0  3  0  0  0  0  0  0
   36.4460   24.5360   39.7820 C   0  0  0  0  0  3  0  0  0  0  0  0
   36.5340   25.8790   39.7340 N   0  0  0  0  0  0  0  0  0  0  0  0
   37.5360   32.3330   38.7500 C   0  0  0  0  0  0  0  0  0  0  0  0
   37.4020   32.6520   39.8260 H   0  0  0  0  0  0  0  0  0  0  0  0
   37.0630   33.0310   38.0670 H   0  0  0  0  0  0  0  0  0  0  0  0
   39.0040   32.2760   38.5650 C   0  0  0  0  0  0  0  0  0  0  0  0
   39.7840   33.0970   39.3960 C   0  0  0  0  0  0  0  0  0  0  0  0
   41.1560   33.0900   39.2760 C   0  0  0  0  0  0  0  0  0  0  0  0
   41.7120   32.2720   38.3400 N   0  0  0  0  0  0  0  0  0  0  0  0
   40.9350   31.4920   37.5540 C   0  0  0  0  0  0  0  0  0  0  0  0
   39.6050   31.5000   37.6710 N   0  0  0  0  0  0  0  0  0  0  0  0
   41.7970   33.7090   39.8970 H   0  0  0  0  0  0  0  0  0  0  0  0
   41.4700   30.8770   36.8410 H   0  0  0  0  0  0  0  0  0  0  0  0
   38.9940   34.1580   40.6150 S   0  0  0  0  0  0  0  0  0  0  0  0
   38.4240   33.4130   41.6600 H   0  0  0  0  0  0  0  0  0  0  0  0
  1 18  1  0  0  0  0
  1  4  1  0  0  0  0
  2  1  1  0  0  0  0
  3  1  1  0  0  0  0
  4  8  1  0  0  0  0
  4  5  2  0  0  0  0
  5  9  1  0  0  0  0
  5  6  1  0  0  0  0
  7 10  1  0  0  0  0
  7  6  1  0  0  0  0
  8  7  2  0  0  0  0
 10 11  1  0  0  0  0
 11 13  2  0  0  0  0
 11 12  1  0  0  0  0
 13 14  1  0  0  0  0
 15 13  1  0  0  0  0
 16 15  2  0  0  0  0
 17 16  1  0  0  0  0
 17 10  2  0  0  0  0
 18 19  1  0  0  0  0
 20 18  1  0  0  0  0
 21 18  1  0  0  0  0
 21 22  1  0  0  0  0
 22 29  1  0  0  0  0
 23 22  2  0  0  0  0
 23 27  1  0  0  0  0
 24 23  1  0  0  0  0
 25 26  1  0  0  0  0
 25 24  2  0  0  0  0
 26 21  2  0  0  0  0
 28 25  1  0  0  0  0
 29 30  1  0  0  0  0
M  END
>  <minimizedAffinity>
-4.75561285

$$$$

 OpenBabel03252507443D

 30 32  0  0  0  0  0  0  0  0999 V2000
   36.9560   24.4920   40.5780 C   0  0  0  0  0  0  0  0  0  0  0  0
   37.9980   24.2320   40.2830 H   0  0  0  0  0  0  0  0  0  0  0  0
   36.3720   23.5570   40.3650 H   0  0  0  0  0  0  0  0  0  0  0  0
   36.5610   25.6040   39.6720 C   0  0  0  0  0  0  0  0  0  0  0  0
   35.8980   25.3080   38.4340 C   0  0  0  0  0  0  0  0  0  0  0  0
   35.6510   27.0130   37.7290 S   0  0  0  0  0  0  0  0  0  0  0  0
   36.4840   27.7820   39.2340 C   0  0  0  0  0  0  0  0  0  0  0  0
   36.7540   26.8850   39.8750 N   0  0  0  0  0  0  0  0  0  0  0  0
   35.6400   24.3290   38.0650 H   0  0  0  0  0  0  0  0  0  0  0  0
   36.6540   29.2630   39.3670 C   0  0  0  0  0  0  0  0  0  0  0  0
   37.0600   29.9590   38.2480 C   0  0  0  0  0  0  0  0  0  0  0  0
   37.2290   29.3950   37.3500 H   0  0  0  0  0  0  0  0  0  0  0  0
   37.2050   31.3170   38.4120 C   0  0  0  0  0  0  0  0  0  0  0  0
   37.5280   31.8530   37.5120 H   0  0  0  0  0  0  0  0  0  0  0  0
   36.9500   31.9010   39.6300 C   0  0  0  0  0  3  0  0  0  0  0  0
   36.5450   31.1620   40.7220 C   0  0  0  0  0  3  0  0  0  0  0  0
   36.4100   29.8340   40.5400 N   0  0  0  0  0  0  0  0  0  0  0  0
   36.9720   24.8310   42.0260 C   0  0  0  0  0  0  0  0  0  0  0  0
   36.7100   23.8790   42.5770 H   0  0  0  0  0  0  0  0  0  0  0  0
   36.2380   25.6080   42.2050 H   0  0  0  0  0  0  0  0  0  0  0  0
   38.3120   25.1940   42.5390 C   0  0  0  0  0  0  0  0  0  0  0  0
   38.4330   26.4390   43.1780 C   0  0  0  0  0  0  0  0  0  0  0  0
   39.6520   26.8390   43.6800 C   0  0  0  0  0  0  0  0  0  0  0  0
   40.7110   25.9930   43.5350 N   0  0  0  0  0  0  0  0  0  0  0  0
   40.5630   24.8000   42.9150 C   0  0  0  0  0  0  0  0  0  0  0  0
   39.3810   24.4150   42.4290 N   0  0  0  0  0  0  0  0  0  0  0  0
   39.7920   27.7930   44.1800 H   0  0  0  0  0  0  0  0  0  0  0  0
   41.4620   24.2000   42.8490 H   0  0  0  0  0  0  0  0  0  0  0  0
   36.9990   27.5150   43.3410 S   0  0  0  0  0  0  0  0  0  0  0  0
   36.0590   26.9930   44.2420 H   0  0  0  0  0  0  0  0  0  0  0  0
  1 18  1  0  0  0  0
  2  1  1  0  0  0  0
  3  1  1  0  0  0  0
  4  8  1  0  0  0  0
  4  1  1  0  0  0  0
  5  4  2  0  0  0  0
  6  5  1  0  0  0  0
  6  7  1  0  0  0  0
  7 10  1  0  0  0  0
  7  8  2  0  0  0  0
  9  5  1  0  0  0  0
 10 17  1  0  0  0  0
 11 13  1  0  0  0  0
 11 10  2  0  0  0  0
 12 11  1  0  0  0  0
 13 15  2  0  0  0  0
 14 13  1  0  0  0  0
 15 16  1  0  0  0  0
 17 16  2  0  0  0  0
 18 20  1  0  0  0  0
 18 21  1  0  0  0  0
 18 19  1  0  0  0  0
 21 22  1  0  0  0  0
 22 29  1  0  0  0  0
 22 23  2  0  0  0  0
 23 27  1  0  0  0  0
 24 23  1  0  0  0  0
 25 24  2  0  0  0  0
 26 21  2  0  0  0  0
 26 25  1  0  0  0  0
 28 25  1  0  0  0  0
 29 30  1  0  0  0  0
M  END
>  <minimizedAffinity>
-4.72063065

$$$$
