
 OpenBabel03252507433D

 30 32  0  0  0  0  0  0  0  0999 V2000
   45.8770   34.6230   41.7120 C   0  0  0  0  0  0  0  0  0  0  0  0
   45.8930   33.8580   42.5200 H   0  0  0  0  0  0  0  0  0  0  0  0
   46.1140   35.5830   42.2450 H   0  0  0  0  0  0  0  0  0  0  0  0
   44.4830   34.6140   41.1930 C   0  0  0  0  0  0  0  0  0  0  0  0
   43.5800   35.6670   41.5640 C   0  0  0  0  0  0  0  0  0  0  0  0
   42.0320   35.1630   40.6630 S   0  0  0  0  0  0  0  0  0  0  0  0
   42.9020   33.6430   39.9670 C   0  0  0  0  0  0  0  0  0  0  0  0
   43.9490   33.7160   40.3990 N   0  0  0  0  0  0  0  0  0  0  0  0
   43.8050   36.5040   42.2050 H   0  0  0  0  0  0  0  0  0  0  0  0
   42.1980   32.6780   39.0660 C   0  0  0  0  0  0  0  0  0  0  0  0
   42.9380   32.0890   38.0630 C   0  0  0  0  0  0  0  0  0  0  0  0
   43.9750   32.3590   37.9920 H   0  0  0  0  0  0  0  0  0  0  0  0
   42.2540   31.2090   37.2570 C   0  0  0  0  0  0  0  0  0  0  0  0
   42.8590   30.7500   36.4670 H   0  0  0  0  0  0  0  0  0  0  0  0
   40.9200   30.9630   37.4740 C   0  0  0  0  0  3  0  0  0  0  0  0
   40.2200   31.5780   38.4920 C   0  0  0  0  0  3  0  0  0  0  0  0
   40.9080   32.4360   39.2690 N   0  0  0  0  0  0  0  0  0  0  0  0
   46.9230   34.2530   40.7240 C   0  0  0  0  0  0  0  0  0  0  0  0
   47.0380   35.1420   40.0350 H   0  0  0  0  0  0  0  0  0  0  0  0
   46.5890   33.3730   40.1840 H   0  0  0  0  0  0  0  0  0  0  0  0
   48.2670   34.0720   41.3160 C   0  0  0  0  0  0  0  0  0  0  0  0
   48.9310   32.8670   41.0340 C   0  0  0  0  0  0  0  0  0  0  0  0
   50.1850   32.6350   41.5530 C   0  0  0  0  0  0  0  0  0  0  0  0
   50.7430   33.6020   42.3330 N   0  0  0  0  0  0  0  0  0  0  0  0
   50.0790   34.7530   42.5880 C   0  0  0  0  0  0  0  0  0  0  0  0
   48.8630   34.9760   42.0840 N   0  0  0  0  0  0  0  0  0  0  0  0
   50.7350   31.7170   41.3610 H   0  0  0  0  0  0  0  0  0  0  0  0
   50.6050   35.4590   43.2190 H   0  0  0  0  0  0  0  0  0  0  0  0
   48.1450   31.6240   39.9960 S   0  0  0  0  0  0  0  0  0  0  0  0
   48.0570   32.0450   38.6590 H   0  0  0  0  0  0  0  0  0  0  0  0
  1  3  1  0  0  0  0
  1  2  1  0  0  0  0
  4  5  2  0  0  0  0
  4  1  1  0  0  0  0
  5  9  1  0  0  0  0
  6  5  1  0  0  0  0
  7  8  2  0  0  0  0
  7  6  1  0  0  0  0
  8  4  1  0  0  0  0
 10 17  1  0  0  0  0
 10  7  1  0  0  0  0
 11 10  2  0  0  0  0
 12 11  1  0  0  0  0
 13 15  2  0  0  0  0
 13 11  1  0  0  0  0
 14 13  1  0  0  0  0
 15 16  1  0  0  0  0
 16 17  2  0  0  0  0
 18 21  1  0  0  0  0
 18  1  1  0  0  0  0
 19 18  1  0  0  0  0
 20 18  1  0  0  0  0
 21 26  1  0  0  0  0
 22 21  2  0  0  0  0
 22 23  1  0  0  0  0
 23 24  2  0  0  0  0
 24 25  1  0  0  0  0
 25 28  1  0  0  0  0
 26 25  2  0  0  0  0
 27 23  1  0  0  0  0
 29 22  1  0  0  0  0
 30 29  1  0  0  0  0
M  END
>  <minimizedAffinity>
-4.30955267

>  <minimizedRMSD>
0.929307342

$$$$
