
 OpenBabel03242516493D

 42 45  0  0  1  0  0  0  0  0999 V2000
   47.7400   32.7270   41.5170 C   0  0  1  0  0  0  0  0  0  0  0  0
   47.2480   32.0010   40.3260 C   0  0  0  0  0  0  0  0  0  0  0  0
   48.2270   32.3500   39.2010 C   0  0  0  0  0  0  0  0  0  0  0  0
   47.9690   33.8090   38.8580 C   0  0  0  0  0  0  0  0  0  0  0  0
   48.0860   34.7320   40.0300 C   0  0  0  0  0  0  0  0  0  0  0  0
   47.6610   34.2310   41.3460 C   0  0  1  0  0  0  0  0  0  0  0  0
   48.8500   32.5350   41.6150 H   0  0  0  0  0  0  0  0  0  0  0  0
   46.2300   32.2640   40.0200 H   0  0  0  0  0  0  0  0  0  0  0  0
   47.3650   30.9070   40.5180 H   0  0  0  0  0  0  0  0  0  0  0  0
   48.0790   31.7610   38.3000 H   0  0  0  0  0  0  0  0  0  0  0  0
   49.2410   32.2900   39.6350 H   0  0  0  0  0  0  0  0  0  0  0  0
   48.6890   34.0740   38.0770 H   0  0  0  0  0  0  0  0  0  0  0  0
   46.9590   33.8520   38.3790 H   0  0  0  0  0  0  0  0  0  0  0  0
   49.1600   35.0700   40.0500 H   0  0  0  0  0  0  0  0  0  0  0  0
   47.5080   35.6510   39.7900 H   0  0  0  0  0  0  0  0  0  0  0  0
   48.3690   34.6490   42.1240 H   0  0  0  0  0  0  0  0  0  0  0  0
   45.4260   31.1020   44.0230 C   0  0  0  0  0  0  0  0  0  0  0  0
   46.0360   31.5060   42.8350 C   0  0  0  0  0  0  0  0  0  0  0  0
   47.1510   32.3310   42.7890 C   0  0  0  0  0  0  0  0  0  0  0  0
   47.6320   32.7350   43.9780 N   0  0  0  0  0  0  0  0  0  0  0  0
   47.0540   32.3540   45.1420 C   0  0  0  0  0  0  0  0  0  0  0  0
   45.9790   31.5560   45.1770 N   0  0  0  0  0  0  0  0  0  0  0  0
   44.5620   30.4610   44.0340 H   0  0  0  0  0  0  0  0  0  0  0  0
   45.5580   31.1170   41.9410 H   0  0  0  0  0  0  0  0  0  0  0  0
   47.5540   32.7590   46.0250 H   0  0  0  0  0  0  0  0  0  0  0  0
   46.3400   34.7450   41.7480 C   0  0  0  0  0  0  0  0  0  0  0  0
   46.0580   35.5380   42.8680 C   0  0  0  0  0  0  0  0  0  0  0  0
   44.7180   35.9190   43.0180 C   0  0  0  0  0  0  0  0  0  0  0  0
   43.8040   35.4940   42.0750 C   0  0  0  0  0  0  0  0  0  0  0  0
   44.0990   34.7180   40.9870 C   0  0  0  0  0  0  0  0  0  0  0  0
   45.3990   34.3490   40.8430 N   0  0  0  0  0  0  0  0  0  0  0  0
   46.8760   35.7690   43.4850 H   0  0  0  0  0  0  0  0  0  0  0  0
   44.5010   36.5260   43.8720 H   0  0  0  0  0  0  0  0  0  0  0  0
   42.7950   35.8320   42.2640 H   0  0  0  0  0  0  0  0  0  0  0  0
   43.0990   34.2900   40.0110 C   0  0  0  0  0  0  0  0  0  0  0  0
   42.2800   35.1610   39.3580 C   0  0  0  0  0  0  0  0  0  0  0  0
   42.3360   36.2250   39.5350 H   0  0  0  0  0  0  0  0  0  0  0  0
   41.3380   34.7300   38.4340 C   0  0  0  0  0  0  0  0  0  0  0  0
   40.6700   35.3900   37.8950 H   0  0  0  0  0  0  0  0  0  0  0  0
   41.2230   33.3860   38.1680 C   0  0  0  0  0  0  0  0  0  0  0  0
   42.0540   32.5190   38.8330 C   0  0  0  0  0  0  0  0  0  0  0  0
   42.9700   32.9740   39.7360 N   0  0  0  0  0  0  0  0  0  0  0  0
  1  7  1  1  0  0  0
  1 19  1  0  0  0  0
  2  9  1  0  0  0  0
  2  1  1  0  0  0  0
  3 11  1  0  0  0  0
  3  2  1  0  0  0  0
  4  3  1  0  0  0  0
  4  5  1  0  0  0  0
  5 14  1  0  0  0  0
  5  6  1  0  0  0  0
  6  1  1  0  0  0  0
  6 26  1  0  0  0  0
  6 16  1  1  0  0  0
  8  2  1  0  0  0  0
 10  3  1  0  0  0  0
 12  4  1  0  0  0  0
 13  4  1  0  0  0  0
 15  5  1  0  0  0  0
 17 23  1  0  0  0  0
 17 22  1  0  0  0  0
 18 17  2  0  0  0  0
 19 18  1  0  0  0  0
 19 20  2  0  0  0  0
 20 21  1  0  0  0  0
 21 22  2  0  0  0  0
 21 25  1  0  0  0  0
 24 18  1  0  0  0  0
 26 27  1  0  0  0  0
 27 28  2  0  0  0  0
 27 32  1  0  0  0  0
 28 33  1  0  0  0  0
 29 34  1  0  0  0  0
 29 28  1  0  0  0  0
 30 29  2  0  0  0  0
 31 30  1  0  0  0  0
 31 26  2  0  0  0  0
 35 30  1  0  0  0  0
 36 37  1  0  0  0  0
 36 35  2  0  0  0  0
 38 36  1  0  0  0  0
 39 38  1  0  0  0  0
 40 38  2  0  0  0  0
 40 41  1  0  0  0  0
 41 42  2  0  0  0  0
 42 35  1  0  0  0  0
M  END
>  <minimizedAffinity>
-5.65578508

>  <minimizedRMSD>
0.526201963

$$$$
