
 OpenBabel03252507433D

 30 32  0  0  0  0  0  0  0  0999 V2000
   45.6540   34.5290   41.8520 C   0  0  0  0  0  0  0  0  0  0  0  0
   45.6790   33.6770   42.5690 H   0  0  0  0  0  0  0  0  0  0  0  0
   45.8940   35.4240   42.4870 H   0  0  0  0  0  0  0  0  0  0  0  0
   44.2560   34.5730   41.3470 C   0  0  0  0  0  0  0  0  0  0  0  0
   43.4940   35.7830   41.4750 C   0  0  0  0  0  0  0  0  0  0  0  0
   41.8740   35.2840   40.7060 S   0  0  0  0  0  0  0  0  0  0  0  0
   42.5400   33.5540   40.3670 C   0  0  0  0  0  0  0  0  0  0  0  0
   43.5990   33.5940   40.7730 N   0  0  0  0  0  0  0  0  0  0  0  0
   43.8320   36.7080   41.9130 H   0  0  0  0  0  0  0  0  0  0  0  0
   41.7030   32.5070   39.7020 C   0  0  0  0  0  0  0  0  0  0  0  0
   41.5680   32.5750   38.3320 C   0  0  0  0  0  0  0  0  0  0  0  0
   42.0730   33.3770   37.8260 H   0  0  0  0  0  0  0  0  0  0  0  0
   40.7920   31.5940   37.7610 C   0  0  0  0  0  0  0  0  0  0  0  0
   40.6980   31.6660   36.6700 H   0  0  0  0  0  0  0  0  0  0  0  0
   40.2070   30.6270   38.5420 C   0  0  0  0  0  3  0  0  0  0  0  0
   40.3720   30.5990   39.9130 C   0  0  0  0  0  3  0  0  0  0  0  0
   41.1350   31.5680   40.4520 N   0  0  0  0  0  0  0  0  0  0  0  0
   46.6920   34.2740   40.8190 C   0  0  0  0  0  0  0  0  0  0  0  0
   46.7360   35.2040   40.1780 H   0  0  0  0  0  0  0  0  0  0  0  0
   46.3950   33.4060   40.2400 H   0  0  0  0  0  0  0  0  0  0  0  0
   48.0610   34.1420   41.3670 C   0  0  0  0  0  0  0  0  0  0  0  0
   48.7270   32.9290   41.1330 C   0  0  0  0  0  0  0  0  0  0  0  0
   50.0030   32.7410   41.6150 C   0  0  0  0  0  0  0  0  0  0  0  0
   50.5800   33.7600   42.3120 N   0  0  0  0  0  0  0  0  0  0  0  0
   49.9130   34.9180   42.5220 C   0  0  0  0  0  0  0  0  0  0  0  0
   48.6750   35.0980   42.0540 N   0  0  0  0  0  0  0  0  0  0  0  0
   50.5560   31.8190   41.4580 H   0  0  0  0  0  0  0  0  0  0  0  0
   50.4540   35.6660   43.0870 H   0  0  0  0  0  0  0  0  0  0  0  0
   47.9160   31.6180   40.2050 S   0  0  0  0  0  0  0  0  0  0  0  0
   47.7710   31.9550   38.8500 H   0  0  0  0  0  0  0  0  0  0  0  0
  1  3  1  0  0  0  0
  1  2  1  0  0  0  0
  4  5  2  0  0  0  0
  4  1  1  0  0  0  0
  5  9  1  0  0  0  0
  6  5  1  0  0  0  0
  7  6  1  0  0  0  0
  7  8  2  0  0  0  0
  8  4  1  0  0  0  0
 10  7  1  0  0  0  0
 10 17  1  0  0  0  0
 11 10  2  0  0  0  0
 12 11  1  0  0  0  0
 13 11  1  0  0  0  0
 13 15  2  0  0  0  0
 14 13  1  0  0  0  0
 15 16  1  0  0  0  0
 16 17  2  0  0  0  0
 18 21  1  0  0  0  0
 18  1  1  0  0  0  0
 19 18  1  0  0  0  0
 20 18  1  0  0  0  0
 21 26  1  0  0  0  0
 22 21  2  0  0  0  0
 22 23  1  0  0  0  0
 23 24  2  0  0  0  0
 24 25  1  0  0  0  0
 25 28  1  0  0  0  0
 26 25  2  0  0  0  0
 27 23  1  0  0  0  0
 29 22  1  0  0  0  0
 30 29  1  0  0  0  0
M  END
>  <minimizedAffinity>
-4.25350523

>  <minimizedRMSD>
1.49424827

$$$$
