
 OpenBabel03252507593D

 28 30  0  0  1  0  0  0  0  0999 V2000
   46.5600   34.8170   43.1170 C   0  0  0  0  0  0  0  0  0  0  0  0
   45.5340   35.7970   43.2720 C   0  0  0  0  0  0  0  0  0  0  0  0
   44.7030   35.6400   44.3790 C   0  0  0  0  0  0  0  0  0  0  0  0
   44.9110   34.5970   45.2160 N   0  0  0  0  0  0  0  0  0  0  0  0
   45.9220   33.6890   45.0030 C   0  0  0  0  0  0  0  0  0  0  0  0
   46.7410   33.7860   43.9730 N   0  0  0  0  0  0  0  0  0  0  0  0
   45.4410   36.5990   42.5530 H   0  0  0  0  0  0  0  0  0  0  0  0
   43.9120   36.3550   44.5390 H   0  0  0  0  0  0  0  0  0  0  0  0
   46.0970   32.5780   45.9840 C   0  0  1  0  0  0  0  0  0  0  0  0
   46.8220   32.8540   47.2810 C   0  0  0  0  0  0  0  0  0  0  0  0
   45.3240   32.7320   47.2330 C   0  0  1  0  0  0  0  0  0  0  0  0
   46.2050   31.5660   45.5540 H   0  0  0  0  0  0  0  0  0  0  0  0
   47.3250   33.8130   47.4220 H   0  0  0  0  0  0  0  0  0  0  0  0
   47.3150   31.9740   47.7380 H   0  0  0  0  0  0  0  0  0  0  0  0
   44.8310   31.8830   47.7260 H   0  0  0  0  0  0  0  0  0  0  0  0
   44.6790   34.0210   47.5240 N   0  0  0  0  0  0  0  0  0  0  0  0
   45.1350   34.4450   48.3500 H   0  0  0  0  0  0  0  0  0  0  0  0
   43.6440   33.9140   47.5930 H   0  0  0  0  0  0  0  0  0  0  0  0
   47.4200   35.0090   41.9660 C   0  0  0  0  0  0  0  0  0  0  0  0
   48.4680   35.7470   41.9940 O   0  0  0  0  0  0  0  0  0  0  0  0
   47.1160   34.3510   40.6960 C   0  0  0  0  0  0  0  0  0  0  0  0
   45.8950   33.7340   40.5150 C   0  0  0  0  0  0  0  0  0  0  0  0
   45.1500   33.7290   41.3090 H   0  0  0  0  0  0  0  0  0  0  0  0
   45.5150   33.0890   39.3580 C   0  0  0  0  0  0  0  0  0  0  0  0
   44.5550   32.6130   39.2400 H   0  0  0  0  0  0  0  0  0  0  0  0
   46.4660   33.0910   38.3390 C   0  0  0  0  0  3  0  0  0  0  0  0
   47.6790   33.7150   38.5440 C   0  0  0  0  0  3  0  0  0  0  0  0
   48.0120   34.3390   39.6990 N   0  0  0  0  0  0  0  0  0  0  0  0
  1  2  2  0  0  0  0
  1  6  1  0  0  0  0
  2  3  1  0  0  0  0
  3  8  1  0  0  0  0
  3  4  2  0  0  0  0
  5  4  1  0  0  0  0
  5  9  1  0  0  0  0
  6  5  2  0  0  0  0
  7  2  1  0  0  0  0
  9 12  1  6  0  0  0
  9 11  1  0  0  0  0
  9 10  1  0  0  0  0
 10 13  1  0  0  0  0
 10 14  1  0  0  0  0
 11 10  1  0  0  0  0
 11 16  1  0  0  0  0
 11 15  1  1  0  0  0
 16 18  1  0  0  0  0
 16 17  1  0  0  0  0
 19 20  2  0  0  0  0
 19  1  1  0  0  0  0
 21 19  1  0  0  0  0
 22 21  1  0  0  0  0
 22 23  1  0  0  0  0
 24 22  2  0  0  0  0
 25 24  1  0  0  0  0
 26 27  2  0  0  0  0
 26 24  1  0  0  0  0
 27 28  1  0  0  0  0
 28 21  2  0  0  0  0
M  END
>  <minimizedAffinity>
-5.56475401

>  <minimizedRMSD>
0.857772291

$$$$
