
 OpenBabel03252507593D

 28 30  0  0  1  0  0  0  0  0999 V2000
   46.5560   31.7830   43.2240 C   0  0  0  0  0  0  0  0  0  0  0  0
   45.4540   31.1690   42.5580 C   0  0  0  0  0  0  0  0  0  0  0  0
   44.2930   31.9340   42.4640 C   0  0  0  0  0  0  0  0  0  0  0  0
   44.2820   33.1790   42.9960 N   0  0  0  0  0  0  0  0  0  0  0  0
   45.3850   33.7070   43.6260 C   0  0  0  0  0  0  0  0  0  0  0  0
   46.5110   33.0300   43.7450 N   0  0  0  0  0  0  0  0  0  0  0  0
   45.5530   30.1680   42.1620 H   0  0  0  0  0  0  0  0  0  0  0  0
   43.4330   31.5140   41.9700 H   0  0  0  0  0  0  0  0  0  0  0  0
   45.2970   35.0950   44.1690 C   0  0  1  0  0  0  0  0  0  0  0  0
   45.4370   36.2630   43.2190 C   0  0  0  0  0  0  0  0  0  0  0  0
   44.0940   35.8430   43.7510 C   0  0  1  0  0  0  0  0  0  0  0  0
   45.6730   35.2360   45.1980 H   0  0  0  0  0  0  0  0  0  0  0  0
   45.7370   36.0810   42.1850 H   0  0  0  0  0  0  0  0  0  0  0  0
   45.8140   37.1960   43.6800 H   0  0  0  0  0  0  0  0  0  0  0  0
   43.5490   36.5070   44.4370 H   0  0  0  0  0  0  0  0  0  0  0  0
   43.2470   35.3020   42.6790 N   0  0  0  0  0  0  0  0  0  0  0  0
   43.3030   35.9280   41.8570 H   0  0  0  0  0  0  0  0  0  0  0  0
   42.2820   35.1080   43.0250 H   0  0  0  0  0  0  0  0  0  0  0  0
   47.7560   30.9720   43.2960 C   0  0  0  0  0  0  0  0  0  0  0  0
   47.8700   29.9650   44.0820 O   0  0  0  0  0  0  0  0  0  0  0  0
   48.9120   31.2820   42.4560 C   0  0  0  0  0  0  0  0  0  0  0  0
   50.1750   30.8920   42.8510 C   0  0  0  0  0  0  0  0  0  0  0  0
   50.3250   30.3530   43.7870 H   0  0  0  0  0  0  0  0  0  0  0  0
   51.3230   31.1360   42.1320 C   0  0  0  0  0  0  0  0  0  0  0  0
   52.3010   30.8220   42.4610 H   0  0  0  0  0  0  0  0  0  0  0  0
   51.1380   31.8260   40.9340 C   0  0  0  0  0  3  0  0  0  0  0  0
   49.8650   32.2050   40.5610 C   0  0  0  0  0  3  0  0  0  0  0  0
   48.7590   31.9450   41.3000 N   0  0  0  0  0  0  0  0  0  0  0  0
  1 19  1  0  0  0  0
  1  6  1  0  0  0  0
  2  1  2  0  0  0  0
  3  2  1  0  0  0  0
  3  4  2  0  0  0  0
  4  5  1  0  0  0  0
  5  6  2  0  0  0  0
  5  9  1  0  0  0  0
  7  2  1  0  0  0  0
  8  3  1  0  0  0  0
  9 12  1  1  0  0  0
 10 14  1  0  0  0  0
 10 11  1  0  0  0  0
 10  9  1  0  0  0  0
 11  9  1  0  0  0  0
 11 15  1  1  0  0  0
 13 10  1  0  0  0  0
 16 18  1  0  0  0  0
 16 11  1  0  0  0  0
 17 16  1  0  0  0  0
 19 20  2  0  0  0  0
 21 22  1  0  0  0  0
 21 19  1  0  0  0  0
 22 23  1  0  0  0  0
 24 25  1  0  0  0  0
 24 22  2  0  0  0  0
 26 24  1  0  0  0  0
 27 26  2  0  0  0  0
 27 28  1  0  0  0  0
 28 21  2  0  0  0  0
M  END
>  <minimizedAffinity>
-3.46874237

>  <minimizedRMSD>
4.8409276

$$$$
