
 OpenBabel03252508013D

 28 30  0  0  1  0  0  0  0  0999 V2000
   38.0400   28.7430   42.1140 C   0  0  0  0  0  0  0  0  0  0  0  0
   38.8710   29.4430   43.0380 C   0  0  0  0  0  0  0  0  0  0  0  0
   39.4420   30.6260   42.5720 C   0  0  0  0  0  0  0  0  0  0  0  0
   39.1810   31.0270   41.3050 N   0  0  0  0  0  0  0  0  0  0  0  0
   38.3680   30.2990   40.4680 C   0  0  0  0  0  0  0  0  0  0  0  0
   37.8000   29.1720   40.8540 N   0  0  0  0  0  0  0  0  0  0  0  0
   39.0240   29.0480   44.0330 H   0  0  0  0  0  0  0  0  0  0  0  0
   40.0790   31.1910   43.2330 H   0  0  0  0  0  0  0  0  0  0  0  0
   38.1150   30.8200   39.0930 C   0  0  1  0  0  0  0  0  0  0  0  0
   36.6930   30.8810   38.5830 C   0  0  0  0  0  0  0  0  0  0  0  0
   37.4110   32.1180   39.0470 C   0  0  1  0  0  0  0  0  0  0  0  0
   38.9090   30.6260   38.3490 H   0  0  0  0  0  0  0  0  0  0  0  0
   35.8940   30.4170   39.1640 H   0  0  0  0  0  0  0  0  0  0  0  0
   36.5900   30.8260   37.4810 H   0  0  0  0  0  0  0  0  0  0  0  0
   37.6720   32.9010   38.3210 H   0  0  0  0  0  0  0  0  0  0  0  0
   36.8050   32.6510   40.2760 N   0  0  0  0  0  0  0  0  0  0  0  0
   35.7770   32.6630   40.1650 H   0  0  0  0  0  0  0  0  0  0  0  0
   37.2350   33.5640   40.5400 H   0  0  0  0  0  0  0  0  0  0  0  0
   37.4470   27.5240   42.6260 C   0  0  0  0  0  0  0  0  0  0  0  0
   36.5310   27.5170   43.5240 O   0  0  0  0  0  0  0  0  0  0  0  0
   37.8850   26.2200   42.1280 C   0  0  0  0  0  0  0  0  0  0  0  0
   36.9710   25.1930   41.9970 C   0  0  0  0  0  0  0  0  0  0  0  0
   35.9240   25.3390   42.2610 H   0  0  0  0  0  0  0  0  0  0  0  0
   37.2830   23.9320   41.5370 C   0  0  0  0  0  0  0  0  0  0  0  0
   36.5520   23.1450   41.4430 H   0  0  0  0  0  0  0  0  0  0  0  0
   38.6220   23.7380   41.1980 C   0  0  0  0  0  3  0  0  0  0  0  0
   39.5140   24.7810   41.3380 C   0  0  0  0  0  3  0  0  0  0  0  0
   39.1650   26.0070   41.7950 N   0  0  0  0  0  0  0  0  0  0  0  0
  1 19  1  0  0  0  0
  1  2  1  0  0  0  0
  2  7  1  0  0  0  0
  3  2  2  0  0  0  0
  3  8  1  0  0  0  0
  4  3  1  0  0  0  0
  5  6  1  0  0  0  0
  5  4  2  0  0  0  0
  6  1  2  0  0  0  0
  9 12  1  6  0  0  0
  9  5  1  0  0  0  0
 10 11  1  0  0  0  0
 10  9  1  0  0  0  0
 10 13  1  0  0  0  0
 11 15  1  6  0  0  0
 11  9  1  0  0  0  0
 11 16  1  0  0  0  0
 14 10  1  0  0  0  0
 16 18  1  0  0  0  0
 17 16  1  0  0  0  0
 19 20  2  0  0  0  0
 21 19  1  0  0  0  0
 22 21  1  0  0  0  0
 22 23  1  0  0  0  0
 24 22  2  0  0  0  0
 25 24  1  0  0  0  0
 26 27  2  0  0  0  0
 26 24  1  0  0  0  0
 27 28  1  0  0  0  0
 28 21  2  0  0  0  0
M  END
>  <minimizedAffinity>
-5.12344408

$$$$

 OpenBabel03252508013D

 28 30  0  0  1  0  0  0  0  0999 V2000
   37.4660   30.8380   40.2190 C   0  0  0  0  0  0  0  0  0  0  0  0
   36.9610   32.1690   40.3280 C   0  0  0  0  0  0  0  0  0  0  0  0
   37.8200   33.1840   39.9110 C   0  0  0  0  0  0  0  0  0  0  0  0
   39.0470   32.8560   39.4410 N   0  0  0  0  0  0  0  0  0  0  0  0
   39.4670   31.5480   39.3650 C   0  0  0  0  0  0  0  0  0  0  0  0
   38.6980   30.5460   39.7450 N   0  0  0  0  0  0  0  0  0  0  0  0
   35.9660   32.3380   40.7150 H   0  0  0  0  0  0  0  0  0  0  0  0
   37.4840   34.2060   39.9750 H   0  0  0  0  0  0  0  0  0  0  0  0
   40.8270   31.2700   38.8170 C   0  0  1  0  0  0  0  0  0  0  0  0
   40.9630   30.3430   37.6320 C   0  0  0  0  0  0  0  0  0  0  0  0
   41.0770   31.8340   37.4750 C   0  0  1  0  0  0  0  0  0  0  0  0
   41.6540   31.2740   39.5510 H   0  0  0  0  0  0  0  0  0  0  0  0
   40.0920   29.7840   37.2840 H   0  0  0  0  0  0  0  0  0  0  0  0
   41.9380   29.8220   37.5550 H   0  0  0  0  0  0  0  0  0  0  0  0
   42.0410   32.2800   37.1970 H   0  0  0  0  0  0  0  0  0  0  0  0
   39.9490   32.3710   36.7000 N   0  0  0  0  0  0  0  0  0  0  0  0
   39.7990   31.7750   35.8670 H   0  0  0  0  0  0  0  0  0  0  0  0
   40.0800   33.3860   36.5020 H   0  0  0  0  0  0  0  0  0  0  0  0
   36.5500   29.7990   40.6460 C   0  0  0  0  0  0  0  0  0  0  0  0
   35.3030   29.8030   40.3460 O   0  0  0  0  0  0  0  0  0  0  0  0
   37.0250   28.6790   41.4570 C   0  0  0  0  0  0  0  0  0  0  0  0
   37.4270   28.8970   42.7600 C   0  0  0  0  0  0  0  0  0  0  0  0
   37.3950   29.8960   43.1960 H   0  0  0  0  0  0  0  0  0  0  0  0
   37.8890   27.9110   43.6030 C   0  0  0  0  0  0  0  0  0  0  0  0
   38.1970   28.1040   44.6190 H   0  0  0  0  0  0  0  0  0  0  0  0
   37.9330   26.6310   43.0530 C   0  0  0  0  0  3  0  0  0  0  0  0
   37.5260   26.4400   41.7480 C   0  0  0  0  0  3  0  0  0  0  0  0
   37.0780   27.4400   40.9510 N   0  0  0  0  0  0  0  0  0  0  0  0
  1  2  1  0  0  0  0
  1 19  1  0  0  0  0
  2  7  1  0  0  0  0
  3  8  1  0  0  0  0
  3  2  2  0  0  0  0
  4  3  1  0  0  0  0
  5  4  2  0  0  0  0
  5  6  1  0  0  0  0
  6  1  2  0  0  0  0
  9  5  1  0  0  0  0
  9 12  1  1  0  0  0
 10  9  1  0  0  0  0
 11 15  1  6  0  0  0
 11 10  1  0  0  0  0
 11  9  1  0  0  0  0
 13 10  1  0  0  0  0
 14 10  1  0  0  0  0
 16 11  1  0  0  0  0
 17 16  1  0  0  0  0
 18 16  1  0  0  0  0
 19 21  1  0  0  0  0
 20 19  2  0  0  0  0
 21 22  1  0  0  0  0
 22 23  1  0  0  0  0
 22 24  2  0  0  0  0
 24 25  1  0  0  0  0
 26 24  1  0  0  0  0
 27 26  2  0  0  0  0
 28 21  2  0  0  0  0
 28 27  1  0  0  0  0
M  END
>  <minimizedAffinity>
-5.0404768

$$$$

 OpenBabel03252508013D

 28 30  0  0  1  0  0  0  0  0999 V2000
   36.9790   28.7730   41.6880 C   0  0  0  0  0  0  0  0  0  0  0  0
   38.0630   29.2360   42.4920 C   0  0  0  0  0  0  0  0  0  0  0  0
   38.7330   28.2650   43.2330 C   0  0  0  0  0  0  0  0  0  0  0  0
   38.3260   26.9770   43.1490 N   0  0  0  0  0  0  0  0  0  0  0  0
   37.2700   26.6020   42.3510 C   0  0  0  0  0  0  0  0  0  0  0  0
   36.5980   27.4770   41.6270 N   0  0  0  0  0  0  0  0  0  0  0  0
   38.3200   30.2870   42.4970 H   0  0  0  0  0  0  0  0  0  0  0  0
   39.5590   28.5660   43.8560 H   0  0  0  0  0  0  0  0  0  0  0  0
   36.8960   25.1580   42.2990 C   0  0  1  0  0  0  0  0  0  0  0  0
   36.8900   24.4510   40.9630 C   0  0  0  0  0  0  0  0  0  0  0  0
   38.0060   24.2480   41.9500 C   0  0  1  0  0  0  0  0  0  0  0  0
   36.1570   24.8220   43.0490 H   0  0  0  0  0  0  0  0  0  0  0  0
   37.0200   25.0320   40.0480 H   0  0  0  0  0  0  0  0  0  0  0  0
   36.2050   23.5830   40.8960 H   0  0  0  0  0  0  0  0  0  0  0  0
   38.1340   23.2690   42.4320 H   0  0  0  0  0  0  0  0  0  0  0  0
   39.2660   24.8110   41.4460 N   0  0  0  0  0  0  0  0  0  0  0  0
   39.3920   24.5240   40.4600 H   0  0  0  0  0  0  0  0  0  0  0  0
   40.0610   24.5800   42.0820 H   0  0  0  0  0  0  0  0  0  0  0  0
   36.3070   29.7990   40.9160 C   0  0  0  0  0  0  0  0  0  0  0  0
   36.1530   31.0000   41.3370 O   0  0  0  0  0  0  0  0  0  0  0  0
   35.7640   29.4950   39.5930 C   0  0  0  0  0  0  0  0  0  0  0  0
   34.4330   29.1510   39.4590 C   0  0  0  0  0  0  0  0  0  0  0  0
   33.7780   29.1030   40.3290 H   0  0  0  0  0  0  0  0  0  0  0  0
   33.8280   28.8480   38.2590 C   0  0  0  0  0  0  0  0  0  0  0  0
   32.7850   28.5820   38.1790 H   0  0  0  0  0  0  0  0  0  0  0  0
   34.6590   28.9070   37.1420 C   0  0  0  0  0  3  0  0  0  0  0  0
   35.9860   29.2530   37.3030 C   0  0  0  0  0  3  0  0  0  0  0  0
   36.5420   29.5440   38.5030 N   0  0  0  0  0  0  0  0  0  0  0  0
  1  2  1  0  0  0  0
  2  7  1  0  0  0  0
  2  3  2  0  0  0  0
  3  8  1  0  0  0  0
  4  3  1  0  0  0  0
  5  4  2  0  0  0  0
  6  1  2  0  0  0  0
  6  5  1  0  0  0  0
  9  5  1  0  0  0  0
  9 12  1  1  0  0  0
 10 11  1  0  0  0  0
 10  9  1  0  0  0  0
 11  9  1  0  0  0  0
 11 15  1  1  0  0  0
 13 10  1  0  0  0  0
 14 10  1  0  0  0  0
 16 11  1  0  0  0  0
 16 18  1  0  0  0  0
 17 16  1  0  0  0  0
 19 20  2  0  0  0  0
 19  1  1  0  0  0  0
 21 19  1  0  0  0  0
 22 21  1  0  0  0  0
 22 23  1  0  0  0  0
 24 22  2  0  0  0  0
 25 24  1  0  0  0  0
 26 27  2  0  0  0  0
 26 24  1  0  0  0  0
 27 28  1  0  0  0  0
 28 21  2  0  0  0  0
M  END
>  <minimizedAffinity>
-5.00286007

$$$$

 OpenBabel03252508013D

 28 30  0  0  1  0  0  0  0  0999 V2000
   40.1190   30.1970   41.5500 C   0  0  0  0  0  0  0  0  0  0  0  0
   41.0160   31.2480   41.9070 C   0  0  0  0  0  0  0  0  0  0  0  0
   40.9510   32.3980   41.1250 C   0  0  0  0  0  0  0  0  0  0  0  0
   40.0660   32.4490   40.1010 N   0  0  0  0  0  0  0  0  0  0  0  0
   39.2300   31.3940   39.8150 C   0  0  0  0  0  0  0  0  0  0  0  0
   39.2470   30.2800   40.5200 N   0  0  0  0  0  0  0  0  0  0  0  0
   41.6900   31.1210   42.7430 H   0  0  0  0  0  0  0  0  0  0  0  0
   41.6090   33.2200   41.3550 H   0  0  0  0  0  0  0  0  0  0  0  0
   38.2700   31.5370   38.6810 C   0  0  1  0  0  0  0  0  0  0  0  0
   36.8210   31.1650   38.8990 C   0  0  0  0  0  0  0  0  0  0  0  0
   37.2620   32.6020   38.8590 C   0  0  1  0  0  0  0  0  0  0  0  0
   38.6850   31.3700   37.6710 H   0  0  0  0  0  0  0  0  0  0  0  0
   36.5270   30.6700   39.8270 H   0  0  0  0  0  0  0  0  0  0  0  0
   36.2770   30.8520   37.9860 H   0  0  0  0  0  0  0  0  0  0  0  0
   36.9390   33.2480   38.0310 H   0  0  0  0  0  0  0  0  0  0  0  0
   37.1120   33.2370   40.1770 N   0  0  0  0  0  0  0  0  0  0  0  0
   36.1840   32.9930   40.5640 H   0  0  0  0  0  0  0  0  0  0  0  0
   37.3190   34.2580   40.1260 H   0  0  0  0  0  0  0  0  0  0  0  0
   40.1970   29.0160   42.3870 C   0  0  0  0  0  0  0  0  0  0  0  0
   41.2630   28.6720   43.0120 O   0  0  0  0  0  0  0  0  0  0  0  0
   39.0320   28.1470   42.5530 C   0  0  0  0  0  0  0  0  0  0  0  0
   38.0330   28.4990   43.4390 C   0  0  0  0  0  0  0  0  0  0  0  0
   38.1000   29.4200   44.0200 H   0  0  0  0  0  0  0  0  0  0  0  0
   36.8990   27.7510   43.6660 C   0  0  0  0  0  0  0  0  0  0  0  0
   36.1310   28.0470   44.3640 H   0  0  0  0  0  0  0  0  0  0  0  0
   36.8070   26.5730   42.9270 C   0  0  0  0  0  3  0  0  0  0  0  0
   37.8190   26.2430   42.0490 C   0  0  0  0  0  3  0  0  0  0  0  0
   38.9190   27.0090   41.8550 N   0  0  0  0  0  0  0  0  0  0  0  0
  1  2  1  0  0  0  0
  1 19  1  0  0  0  0
  2  7  1  0  0  0  0
  3  8  1  0  0  0  0
  3  2  2  0  0  0  0
  4  3  1  0  0  0  0
  5  4  2  0  0  0  0
  5  6  1  0  0  0  0
  6  1  2  0  0  0  0
  9 12  1  6  0  0  0
  9 11  1  0  0  0  0
  9 10  1  0  0  0  0
  9  5  1  0  0  0  0
 10 13  1  0  0  0  0
 11 15  1  6  0  0  0
 11 10  1  0  0  0  0
 11 16  1  0  0  0  0
 14 10  1  0  0  0  0
 16 17  1  0  0  0  0
 18 16  1  0  0  0  0
 19 21  1  0  0  0  0
 19 20  2  0  0  0  0
 21 22  1  0  0  0  0
 22 24  2  0  0  0  0
 22 23  1  0  0  0  0
 24 25  1  0  0  0  0
 26 24  1  0  0  0  0
 27 26  2  0  0  0  0
 28 27  1  0  0  0  0
 28 21  2  0  0  0  0
M  END
>  <minimizedAffinity>
-4.95346403

$$$$

 OpenBabel03252508013D

 28 30  0  0  1  0  0  0  0  0999 V2000
   37.1980   30.4780   39.4970 C   0  0  0  0  0  0  0  0  0  0  0  0
   36.7970   30.5340   38.1290 C   0  0  0  0  0  0  0  0  0  0  0  0
   37.6370   31.2450   37.2750 C   0  0  0  0  0  0  0  0  0  0  0  0
   38.7520   31.8240   37.7800 N   0  0  0  0  0  0  0  0  0  0  0  0
   39.0760   31.7280   39.1130 C   0  0  0  0  0  0  0  0  0  0  0  0
   38.3190   31.0680   39.9690 N   0  0  0  0  0  0  0  0  0  0  0  0
   35.8880   30.0410   37.8130 H   0  0  0  0  0  0  0  0  0  0  0  0
   37.3760   31.3170   36.2320 H   0  0  0  0  0  0  0  0  0  0  0  0
   40.3330   32.3780   39.5870 C   0  0  1  0  0  0  0  0  0  0  0  0
   40.5050   33.8670   39.3930 C   0  0  0  0  0  0  0  0  0  0  0  0
   40.1590   33.2880   40.7370 C   0  0  1  0  0  0  0  0  0  0  0  0
   41.2460   31.7570   39.5430 H   0  0  0  0  0  0  0  0  0  0  0  0
   39.7800   34.4170   38.7910 H   0  0  0  0  0  0  0  0  0  0  0  0
   41.5560   34.2110   39.3250 H   0  0  0  0  0  0  0  0  0  0  0  0
   40.8880   33.3430   41.5570 H   0  0  0  0  0  0  0  0  0  0  0  0
   38.8020   33.6780   41.1460 N   0  0  0  0  0  0  0  0  0  0  0  0
   38.6760   34.6900   40.9740 H   0  0  0  0  0  0  0  0  0  0  0  0
   38.6000   33.3650   42.1210 H   0  0  0  0  0  0  0  0  0  0  0  0
   36.3150   29.7220   40.3630 C   0  0  0  0  0  0  0  0  0  0  0  0
   35.0380   29.7570   40.2590 O   0  0  0  0  0  0  0  0  0  0  0  0
   36.8630   28.8690   41.4170 C   0  0  0  0  0  0  0  0  0  0  0  0
   36.9740   27.5080   41.2110 C   0  0  0  0  0  0  0  0  0  0  0  0
   36.6580   27.0570   40.2710 H   0  0  0  0  0  0  0  0  0  0  0  0
   37.4750   26.6220   42.1390 C   0  0  0  0  0  0  0  0  0  0  0  0
   37.5530   25.5610   41.9560 H   0  0  0  0  0  0  0  0  0  0  0  0
   37.8820   27.1910   43.3450 C   0  0  0  0  0  3  0  0  0  0  0  0
   37.7600   28.5540   43.5260 C   0  0  0  0  0  3  0  0  0  0  0  0
   37.2600   29.3910   42.5850 N   0  0  0  0  0  0  0  0  0  0  0  0
  1  6  1  0  0  0  0
  1 19  1  0  0  0  0
  2  1  2  0  0  0  0
  3  4  2  0  0  0  0
  3  2  1  0  0  0  0
  4  5  1  0  0  0  0
  5  9  1  0  0  0  0
  5  6  2  0  0  0  0
  7  2  1  0  0  0  0
  8  3  1  0  0  0  0
  9 12  1  6  0  0  0
  9 11  1  0  0  0  0
 10  9  1  0  0  0  0
 10 11  1  0  0  0  0
 11 16  1  0  0  0  0
 11 15  1  1  0  0  0
 13 10  1  0  0  0  0
 14 10  1  0  0  0  0
 16 18  1  0  0  0  0
 17 16  1  0  0  0  0
 19 21  1  0  0  0  0
 20 19  2  0  0  0  0
 21 28  1  0  0  0  0
 22 21  2  0  0  0  0
 22 24  1  0  0  0  0
 23 22  1  0  0  0  0
 24 26  2  0  0  0  0
 25 24  1  0  0  0  0
 26 27  1  0  0  0  0
 28 27  2  0  0  0  0
M  END
>  <minimizedAffinity>
-4.94282436

$$$$

 OpenBabel03252508013D

 28 30  0  0  1  0  0  0  0  0999 V2000
   36.6050   27.8720   40.7850 C   0  0  0  0  0  0  0  0  0  0  0  0
   36.5750   26.7280   39.9330 C   0  0  0  0  0  0  0  0  0  0  0  0
   37.3320   25.6360   40.3490 C   0  0  0  0  0  0  0  0  0  0  0  0
   38.0320   25.7230   41.5050 N   0  0  0  0  0  0  0  0  0  0  0  0
   38.0140   26.8610   42.2780 C   0  0  0  0  0  0  0  0  0  0  0  0
   37.3160   27.9260   41.9340 N   0  0  0  0  0  0  0  0  0  0  0  0
   35.9860   26.7470   39.0260 H   0  0  0  0  0  0  0  0  0  0  0  0
   37.3410   24.7480   39.7390 H   0  0  0  0  0  0  0  0  0  0  0  0
   38.7980   26.8700   43.5480 C   0  0  1  0  0  0  0  0  0  0  0  0
   39.9890   25.9470   43.6800 C   0  0  0  0  0  0  0  0  0  0  0  0
   40.1640   27.4190   43.4240 C   0  0  1  0  0  0  0  0  0  0  0  0
   38.2260   27.0870   44.4680 H   0  0  0  0  0  0  0  0  0  0  0  0
   40.1730   25.1960   42.9090 H   0  0  0  0  0  0  0  0  0  0  0  0
   40.2390   25.6540   44.7180 H   0  0  0  0  0  0  0  0  0  0  0  0
   40.6110   28.0560   44.1990 H   0  0  0  0  0  0  0  0  0  0  0  0
   40.7230   27.6600   42.0860 N   0  0  0  0  0  0  0  0  0  0  0  0
   41.5150   27.0130   41.9320 H   0  0  0  0  0  0  0  0  0  0  0  0
   40.9410   28.6710   41.9480 H   0  0  0  0  0  0  0  0  0  0  0  0
   35.7990   28.9910   40.3370 C   0  0  0  0  0  0  0  0  0  0  0  0
   34.5170   28.9570   40.3030 O   0  0  0  0  0  0  0  0  0  0  0  0
   36.4340   30.2310   39.8940 C   0  0  0  0  0  0  0  0  0  0  0  0
   36.7310   30.4120   38.5580 C   0  0  0  0  0  0  0  0  0  0  0  0
   36.4980   29.6410   37.8240 H   0  0  0  0  0  0  0  0  0  0  0  0
   37.3260   31.5420   38.0420 C   0  0  0  0  0  0  0  0  0  0  0  0
   37.5480   31.6620   36.9930 H   0  0  0  0  0  0  0  0  0  0  0  0
   37.6270   32.5340   38.9750 C   0  0  0  0  0  3  0  0  0  0  0  0
   37.3210   32.3280   40.3050 C   0  0  0  0  0  3  0  0  0  0  0  0
   36.7340   31.1990   40.7710 N   0  0  0  0  0  0  0  0  0  0  0  0
  1  6  1  0  0  0  0
  2  3  1  0  0  0  0
  2  1  2  0  0  0  0
  3  4  2  0  0  0  0
  4  5  1  0  0  0  0
  5  9  1  0  0  0  0
  6  5  2  0  0  0  0
  7  2  1  0  0  0  0
  8  3  1  0  0  0  0
  9 10  1  0  0  0  0
  9 12  1  1  0  0  0
 10 14  1  0  0  0  0
 11  9  1  0  0  0  0
 11 10  1  0  0  0  0
 11 15  1  1  0  0  0
 13 10  1  0  0  0  0
 16 11  1  0  0  0  0
 17 16  1  0  0  0  0
 18 16  1  0  0  0  0
 19  1  1  0  0  0  0
 20 19  2  0  0  0  0
 21 19  1  0  0  0  0
 21 28  1  0  0  0  0
 22 21  2  0  0  0  0
 23 22  1  0  0  0  0
 24 22  1  0  0  0  0
 24 26  2  0  0  0  0
 25 24  1  0  0  0  0
 26 27  1  0  0  0  0
 27 28  2  0  0  0  0
M  END
>  <minimizedAffinity>
-4.83573341

$$$$

 OpenBabel03252508013D

 28 30  0  0  1  0  0  0  0  0999 V2000
   36.8750   28.4690   41.5780 C   0  0  0  0  0  0  0  0  0  0  0  0
   37.7450   29.0160   42.5680 C   0  0  0  0  0  0  0  0  0  0  0  0
   38.3600   28.0970   43.4150 C   0  0  0  0  0  0  0  0  0  0  0  0
   38.1030   26.7780   43.2530 N   0  0  0  0  0  0  0  0  0  0  0  0
   37.2510   26.3220   42.2740 C   0  0  0  0  0  0  0  0  0  0  0  0
   36.6400   27.1440   41.4430 N   0  0  0  0  0  0  0  0  0  0  0  0
   37.8920   30.0860   42.6250 H   0  0  0  0  0  0  0  0  0  0  0  0
   39.0260   28.4620   44.1800 H   0  0  0  0  0  0  0  0  0  0  0  0
   37.0360   24.8500   42.1490 C   0  0  1  0  0  0  0  0  0  0  0  0
   37.3010   24.1820   40.8190 C   0  0  0  0  0  0  0  0  0  0  0  0
   38.2710   24.0620   41.9630 C   0  0  1  0  0  0  0  0  0  0  0  0
   36.2300   24.4250   42.7730 H   0  0  0  0  0  0  0  0  0  0  0  0
   37.5080   24.7970   39.9410 H   0  0  0  0  0  0  0  0  0  0  0  0
   36.7240   23.2540   40.6390 H   0  0  0  0  0  0  0  0  0  0  0  0
   38.4230   23.0870   42.4470 H   0  0  0  0  0  0  0  0  0  0  0  0
   39.5300   24.7590   41.6630 N   0  0  0  0  0  0  0  0  0  0  0  0
   39.8310   24.5120   40.7040 H   0  0  0  0  0  0  0  0  0  0  0  0
   40.2390   24.5890   42.4090 H   0  0  0  0  0  0  0  0  0  0  0  0
   36.2570   29.4430   40.7000 C   0  0  0  0  0  0  0  0  0  0  0  0
   35.0060   29.4360   40.4210 O   0  0  0  0  0  0  0  0  0  0  0  0
   37.0600   30.4980   40.0820 C   0  0  0  0  0  0  0  0  0  0  0  0
   36.8180   31.8210   40.3990 C   0  0  0  0  0  0  0  0  0  0  0  0
   36.0340   32.0920   41.1060 H   0  0  0  0  0  0  0  0  0  0  0  0
   37.5170   32.8840   39.8720 C   0  0  0  0  0  0  0  0  0  0  0  0
   37.3110   33.9100   40.1360 H   0  0  0  0  0  0  0  0  0  0  0  0
   38.5220   32.5450   38.9670 C   0  0  0  0  0  3  0  0  0  0  0  0
   38.7430   31.2160   38.6670 C   0  0  0  0  0  3  0  0  0  0  0  0
   38.0310   30.1990   39.2090 N   0  0  0  0  0  0  0  0  0  0  0  0
  1  2  1  0  0  0  0
  2  7  1  0  0  0  0
  2  3  2  0  0  0  0
  3  8  1  0  0  0  0
  4  3  1  0  0  0  0
  5  4  2  0  0  0  0
  6  1  2  0  0  0  0
  6  5  1  0  0  0  0
  9  5  1  0  0  0  0
  9 12  1  1  0  0  0
 10 11  1  0  0  0  0
 10  9  1  0  0  0  0
 11  9  1  0  0  0  0
 11 15  1  1  0  0  0
 13 10  1  0  0  0  0
 14 10  1  0  0  0  0
 16 11  1  0  0  0  0
 16 18  1  0  0  0  0
 17 16  1  0  0  0  0
 19  1  1  0  0  0  0
 20 19  2  0  0  0  0
 21 22  1  0  0  0  0
 21 19  1  0  0  0  0
 22 23  1  0  0  0  0
 24 25  1  0  0  0  0
 24 22  2  0  0  0  0
 26 24  1  0  0  0  0
 27 26  2  0  0  0  0
 27 28  1  0  0  0  0
 28 21  2  0  0  0  0
M  END
>  <minimizedAffinity>
-4.78068209

$$$$

 OpenBabel03252508013D

 28 30  0  0  1  0  0  0  0  0999 V2000
   38.7670   27.4310   41.5530 C   0  0  0  0  0  0  0  0  0  0  0  0
   38.3810   27.3680   42.9260 C   0  0  0  0  0  0  0  0  0  0  0  0
   37.9030   28.5530   43.4800 C   0  0  0  0  0  0  0  0  0  0  0  0
   37.8340   29.6620   42.7060 N   0  0  0  0  0  0  0  0  0  0  0  0
   38.2240   29.6480   41.3870 C   0  0  0  0  0  0  0  0  0  0  0  0
   38.6850   28.5570   40.8080 N   0  0  0  0  0  0  0  0  0  0  0  0
   38.4700   26.4370   43.4680 H   0  0  0  0  0  0  0  0  0  0  0  0
   37.6000   28.5560   44.5150 H   0  0  0  0  0  0  0  0  0  0  0  0
   38.0990   30.9080   40.5960 C   0  0  1  0  0  0  0  0  0  0  0  0
   37.2320   30.9120   39.3580 C   0  0  0  0  0  0  0  0  0  0  0  0
   36.7620   31.5340   40.6450 C   0  0  1  0  0  0  0  0  0  0  0  0
   38.9870   31.5650   40.5910 H   0  0  0  0  0  0  0  0  0  0  0  0
   36.8260   29.9700   38.9840 H   0  0  0  0  0  0  0  0  0  0  0  0
   37.5150   31.6600   38.5920 H   0  0  0  0  0  0  0  0  0  0  0  0
   36.6260   32.6230   40.7050 H   0  0  0  0  0  0  0  0  0  0  0  0
   35.6360   30.7810   41.2150 N   0  0  0  0  0  0  0  0  0  0  0  0
   34.9550   30.5740   40.4640 H   0  0  0  0  0  0  0  0  0  0  0  0
   35.2430   31.2680   42.0490 H   0  0  0  0  0  0  0  0  0  0  0  0
   39.2490   26.1830   40.9950 C   0  0  0  0  0  0  0  0  0  0  0  0
   40.4920   25.9450   40.7890 O   0  0  0  0  0  0  0  0  0  0  0  0
   38.3100   25.1210   40.6350 C   0  0  0  0  0  0  0  0  0  0  0  0
   37.1290   25.4370   39.9920 C   0  0  0  0  0  0  0  0  0  0  0  0
   36.8840   26.4710   39.7480 H   0  0  0  0  0  0  0  0  0  0  0  0
   36.1820   24.5110   39.6120 C   0  0  0  0  0  0  0  0  0  0  0  0
   35.2660   24.7810   39.1100 H   0  0  0  0  0  0  0  0  0  0  0  0
   36.4890   23.1870   39.9210 C   0  0  0  0  0  3  0  0  0  0  0  0
   37.6750   22.8980   40.5640 C   0  0  0  0  0  3  0  0  0  0  0  0
   38.5800   23.8410   40.9210 N   0  0  0  0  0  0  0  0  0  0  0  0
  1  2  1  0  0  0  0
  2  7  1  0  0  0  0
  2  3  2  0  0  0  0
  3  8  1  0  0  0  0
  4  3  1  0  0  0  0
  5  4  2  0  0  0  0
  6  5  1  0  0  0  0
  6  1  2  0  0  0  0
  9 12  1  1  0  0  0
  9 11  1  0  0  0  0
  9  5  1  0  0  0  0
 10  9  1  0  0  0  0
 10 11  1  0  0  0  0
 11 15  1  1  0  0  0
 11 16  1  0  0  0  0
 13 10  1  0  0  0  0
 14 10  1  0  0  0  0
 16 18  1  0  0  0  0
 17 16  1  0  0  0  0
 19  1  1  0  0  0  0
 20 19  2  0  0  0  0
 21 28  1  0  0  0  0
 21 19  1  0  0  0  0
 22 21  2  0  0  0  0
 23 22  1  0  0  0  0
 24 26  2  0  0  0  0
 24 22  1  0  0  0  0
 25 24  1  0  0  0  0
 26 27  1  0  0  0  0
 27 28  2  0  0  0  0
M  END
>  <minimizedAffinity>
-4.77718163

$$$$

 OpenBabel03252508013D

 28 30  0  0  1  0  0  0  0  0999 V2000
   38.8130   28.9030   41.7570 C   0  0  0  0  0  0  0  0  0  0  0  0
   38.1430   29.3890   42.9200 C   0  0  0  0  0  0  0  0  0  0  0  0
   37.4690   28.4350   43.6790 C   0  0  0  0  0  0  0  0  0  0  0  0
   37.4880   27.1420   43.2800 N   0  0  0  0  0  0  0  0  0  0  0  0
   38.1570   26.7450   42.1450 C   0  0  0  0  0  0  0  0  0  0  0  0
   38.8130   27.6020   41.3860 N   0  0  0  0  0  0  0  0  0  0  0  0
   38.1810   30.4410   43.1630 H   0  0  0  0  0  0  0  0  0  0  0  0
   36.9470   28.7530   44.5670 H   0  0  0  0  0  0  0  0  0  0  0  0
   38.1470   25.2970   41.7840 C   0  0  1  0  0  0  0  0  0  0  0  0
   36.8280   24.5580   41.7580 C   0  0  0  0  0  0  0  0  0  0  0  0
   37.5070   24.9910   40.4880 C   0  0  1  0  0  0  0  0  0  0  0  0
   39.0410   24.7190   42.0780 H   0  0  0  0  0  0  0  0  0  0  0  0
   35.9300   25.0510   42.1350 H   0  0  0  0  0  0  0  0  0  0  0  0
   36.8990   23.4680   41.9400 H   0  0  0  0  0  0  0  0  0  0  0  0
   37.9090   24.2330   39.8000 H   0  0  0  0  0  0  0  0  0  0  0  0
   36.7320   26.0360   39.8040 N   0  0  0  0  0  0  0  0  0  0  0  0
   35.7360   25.7590   39.7860 H   0  0  0  0  0  0  0  0  0  0  0  0
   37.1470   26.2620   38.8740 H   0  0  0  0  0  0  0  0  0  0  0  0
   39.5180   29.9110   40.9910 C   0  0  0  0  0  0  0  0  0  0  0  0
   40.7660   29.8260   40.7070 O   0  0  0  0  0  0  0  0  0  0  0  0
   38.8150   31.0960   40.5010 C   0  0  0  0  0  0  0  0  0  0  0  0
   37.8210   30.9620   39.5520 C   0  0  0  0  0  0  0  0  0  0  0  0
   37.5510   29.9820   39.1600 H   0  0  0  0  0  0  0  0  0  0  0  0
   37.1020   32.0140   39.0290 C   0  0  0  0  0  0  0  0  0  0  0  0
   36.3290   31.8850   38.2870 H   0  0  0  0  0  0  0  0  0  0  0  0
   37.4420   33.2720   39.5250 C   0  0  0  0  0  3  0  0  0  0  0  0
   38.4400   33.3790   40.4730 C   0  0  0  0  0  3  0  0  0  0  0  0
   39.1230   32.3160   40.9620 N   0  0  0  0  0  0  0  0  0  0  0  0
  1  2  1  0  0  0  0
  2  7  1  0  0  0  0
  2  3  2  0  0  0  0
  3  8  1  0  0  0  0
  4  3  1  0  0  0  0
  5  4  2  0  0  0  0
  6  1  2  0  0  0  0
  6  5  1  0  0  0  0
  9 12  1  1  0  0  0
  9  5  1  0  0  0  0
 10  9  1  0  0  0  0
 10 14  1  0  0  0  0
 10 13  1  0  0  0  0
 11 15  1  6  0  0  0
 11 10  1  0  0  0  0
 11  9  1  0  0  0  0
 16 11  1  0  0  0  0
 17 16  1  0  0  0  0
 18 16  1  0  0  0  0
 19  1  1  0  0  0  0
 20 19  2  0  0  0  0
 21 28  1  0  0  0  0
 21 19  1  0  0  0  0
 22 21  2  0  0  0  0
 23 22  1  0  0  0  0
 24 26  2  0  0  0  0
 24 22  1  0  0  0  0
 25 24  1  0  0  0  0
 26 27  1  0  0  0  0
 27 28  2  0  0  0  0
M  END
>  <minimizedAffinity>
-4.71695948

$$$$
