
     RDKit          3D

 30 32  0  0  0  0  0  0  0  0999 V2000
   46.2612   34.7519   43.2425 C   0  0  0  0  0  0  0  0  0  0  0  0
   45.2963   35.7441   43.5903 C   0  0  0  0  0  0  0  0  0  0  0  0
   44.6511   35.5661   44.8117 C   0  0  0  0  0  0  0  0  0  0  0  0
   44.9688   34.4933   45.5743 N   0  0  0  0  0  0  0  0  0  0  0  0
   45.9116   33.5755   45.1728 C   0  0  0  0  0  0  0  0  0  0  0  0
   46.5546   33.6915   44.0271 N   0  0  0  0  0  0  0  0  0  0  0  0
   46.2188   32.4304   46.0796 C   0  0  1  0  0  0  0  0  0  0  0  0
   47.0366   32.6820   47.3259 C   0  0  0  0  0  0  0  0  0  0  0  0
   45.5465   32.4893   47.3938 C   0  0  1  0  0  0  0  0  0  0  0  0
   44.8722   33.7299   47.8008 N   0  0  0  0  0  0  0  0  0  0  0  0
   46.9277   34.9663   41.9728 C   0  0  0  0  0  0  0  0  0  0  0  0
   48.0896   35.4997   41.8765 O   0  0  0  0  0  0  0  0  0  0  0  0
   45.1059   36.5697   42.9186 H   0  0  0  0  0  0  0  0  0  0  0  0
   43.9130   36.2894   45.1194 H   0  0  0  0  0  0  0  0  0  0  0  0
   46.3350   31.4455   45.5933 H   0  0  0  0  0  0  0  0  0  0  0  0
   47.5063   33.6569   47.4720 H   0  0  0  0  0  0  0  0  0  0  0  0
   47.6063   31.8073   47.6956 H   0  0  0  0  0  0  0  0  0  0  0  0
   45.1358   31.5952   47.8827 H   0  0  0  0  0  0  0  0  0  0  0  0
   45.3755   34.1384   48.6073 H   0  0  0  0  0  0  0  0  0  0  0  0
   43.8515   33.5701   47.9489 H   0  0  0  0  0  0  0  0  0  0  0  0
   46.2835   34.5721   40.7205 C   0  0  0  0  0  0  0  0  0  0  0  0
   45.1942   33.7245   40.7442 C   0  0  0  0  0  0  0  0  0  0  0  0
   44.8046   33.3423   41.6878 H   0  0  0  0  0  0  0  0  0  0  0  0
   44.5200   33.2960   39.6226 C   0  0  0  0  0  0  0  0  0  0  0  0
   43.6707   32.6331   39.6654 H   0  0  0  0  0  0  0  0  0  0  0  0
   45.0134   33.7813   38.4120 C   0  0  0  0  0  0  0  0  0  0  0  0
   46.1035   34.6274   38.4152 C   0  0  0  0  0  0  0  0  0  0  0  0
   46.7386   35.0249   39.5437 N   0  0  0  0  0  0  0  0  0  0  0  0
   44.5086   33.4655   37.5130 H   0  0  0  0  0  0  0  0  0  0  0  0
   46.4531   34.9802   37.4511 H   0  0  0  0  0  0  0  0  0  0  0  0
  1  2  2  0
  1  6  1  0
  2  3  1  0
  3  4  2  0
  5  4  1  0
  5  7  1  0
  6  5  2  0
  7  8  1  0
  7  9  1  0
  8  9  1  0
  9 10  1  0
 11  1  1  0
 12 11  2  0
  2 13  1  0
  3 14  1  0
  7 15  1  6
  8 16  1  0
  8 17  1  0
  9 18  1  1
 10 19  1  0
 10 20  1  0
 21 22  2  0
 22 23  1  0
 22 24  1  0
 24 25  1  0
 24 26  2  0
 26 27  1  0
 27 28  2  0
 28 21  1  0
 26 29  1  0
 27 30  1  0
 11 21  1  0
M  ISO  8  13  14  14  14  15  13  16  13  17  13  18  13  19   5  20   5
M  ISO  2  23  15  25  16
M  END
>  <DihAtoms>  (1) 
0,10,20,21

>  <DihDeg>  (1) 
179.99675357139492

$$$$
