
 OpenBabel03252507593D

 28 30  0  0  1  0  0  0  0  0999 V2000
   46.6200   34.7680   43.0950 C   0  0  0  0  0  0  0  0  0  0  0  0
   45.5710   35.7170   43.2790 C   0  0  0  0  0  0  0  0  0  0  0  0
   44.7510   35.5140   44.3870 C   0  0  0  0  0  0  0  0  0  0  0  0
   44.9920   34.4580   45.2000 N   0  0  0  0  0  0  0  0  0  0  0  0
   46.0250   33.5820   44.9590 C   0  0  0  0  0  0  0  0  0  0  0  0
   46.8330   33.7230   43.9270 N   0  0  0  0  0  0  0  0  0  0  0  0
   45.4520   36.5320   42.5790 H   0  0  0  0  0  0  0  0  0  0  0  0
   43.9430   36.2050   44.5680 H   0  0  0  0  0  0  0  0  0  0  0  0
   46.2350   32.4540   45.9140 C   0  0  1  0  0  0  0  0  0  0  0  0
   46.9740   32.7170   47.2060 C   0  0  0  0  0  0  0  0  0  0  0  0
   45.4780   32.5680   47.1770 C   0  0  1  0  0  0  0  0  0  0  0  0
   46.3540   31.4530   45.4610 H   0  0  0  0  0  0  0  0  0  0  0  0
   47.4610   33.6820   47.3590 H   0  0  0  0  0  0  0  0  0  0  0  0
   47.4900   31.8370   47.6370 H   0  0  0  0  0  0  0  0  0  0  0  0
   45.0080   31.6990   47.6590 H   0  0  0  0  0  0  0  0  0  0  0  0
   44.8140   33.8380   47.5050 N   0  0  0  0  0  0  0  0  0  0  0  0
   45.2740   34.2530   48.3330 H   0  0  0  0  0  0  0  0  0  0  0  0
   43.7820   33.7100   47.5870 H   0  0  0  0  0  0  0  0  0  0  0  0
   47.4670   35.0080   41.9440 C   0  0  0  0  0  0  0  0  0  0  0  0
   48.4890   35.7830   41.9790 O   0  0  0  0  0  0  0  0  0  0  0  0
   47.1810   34.3590   40.6650 C   0  0  0  0  0  0  0  0  0  0  0  0
   48.0930   34.4460   39.6310 C   0  0  0  0  0  0  0  0  0  0  0  0
   49.0280   34.9920   39.7550 H   0  0  0  0  0  0  0  0  0  0  0  0
   47.9160   33.8710   38.3920 C   0  0  0  0  0  0  0  0  0  0  0  0
   48.6430   33.9510   37.5990 H   0  0  0  0  0  0  0  0  0  0  0  0
   46.7230   33.1700   38.2270 C   0  0  0  0  0  3  0  0  0  0  0  0
   45.8280   33.0990   39.2750 C   0  0  0  0  0  3  0  0  0  0  0  0
   46.0410   33.6800   40.4800 N   0  0  0  0  0  0  0  0  0  0  0  0
  1  2  2  0  0  0  0
  1  6  1  0  0  0  0
  2  3  1  0  0  0  0
  3  8  1  0  0  0  0
  3  4  2  0  0  0  0
  5  4  1  0  0  0  0
  5  9  1  0  0  0  0
  6  5  2  0  0  0  0
  7  2  1  0  0  0  0
  9 12  1  6  0  0  0
  9 11  1  0  0  0  0
  9 10  1  0  0  0  0
 10 13  1  0  0  0  0
 10 14  1  0  0  0  0
 11 10  1  0  0  0  0
 11 16  1  0  0  0  0
 11 15  1  1  0  0  0
 16 18  1  0  0  0  0
 16 17  1  0  0  0  0
 19 20  2  0  0  0  0
 19  1  1  0  0  0  0
 21 19  1  0  0  0  0
 22 23  1  0  0  0  0
 22 21  2  0  0  0  0
 24 22  1  0  0  0  0
 25 24  1  0  0  0  0
 26 24  2  0  0  0  0
 26 27  1  0  0  0  0
 27 28  2  0  0  0  0
 28 21  1  0  0  0  0
M  END
>  <minimizedAffinity>
-5.69534492

>  <minimizedRMSD>
0.919894516

$$$$
