
 OpenBabel03252507593D

 28 30  0  0  1  0  0  0  0  0999 V2000
   46.5810   34.8060   43.1090 C   0  0  0  0  0  0  0  0  0  0  0  0
   45.5500   35.7830   43.2510 C   0  0  0  0  0  0  0  0  0  0  0  0
   44.7090   35.6260   44.3510 C   0  0  0  0  0  0  0  0  0  0  0  0
   44.9130   34.5860   45.1940 N   0  0  0  0  0  0  0  0  0  0  0  0
   45.9300   33.6810   44.9920 C   0  0  0  0  0  0  0  0  0  0  0  0
   46.7570   33.7780   43.9690 N   0  0  0  0  0  0  0  0  0  0  0  0
   45.4610   36.5820   42.5290 H   0  0  0  0  0  0  0  0  0  0  0  0
   43.9140   36.3390   44.5020 H   0  0  0  0  0  0  0  0  0  0  0  0
   46.1000   32.5740   45.9780 C   0  0  1  0  0  0  0  0  0  0  0  0
   46.8220   32.8540   47.2760 C   0  0  0  0  0  0  0  0  0  0  0  0
   45.3240   32.7350   47.2240 C   0  0  1  0  0  0  0  0  0  0  0  0
   46.2070   31.5600   45.5530 H   0  0  0  0  0  0  0  0  0  0  0  0
   47.3270   33.8130   47.4140 H   0  0  0  0  0  0  0  0  0  0  0  0
   47.3130   31.9750   47.7380 H   0  0  0  0  0  0  0  0  0  0  0  0
   44.8280   31.8890   47.7200 H   0  0  0  0  0  0  0  0  0  0  0  0
   44.6810   34.0260   47.5090 N   0  0  0  0  0  0  0  0  0  0  0  0
   45.1360   34.4530   48.3340 H   0  0  0  0  0  0  0  0  0  0  0  0
   43.6460   33.9220   47.5750 H   0  0  0  0  0  0  0  0  0  0  0  0
   47.4510   34.9980   41.9650 C   0  0  0  0  0  0  0  0  0  0  0  0
   48.5020   35.7320   42.0040 O   0  0  0  0  0  0  0  0  0  0  0  0
   47.1540   34.3450   40.6910 C   0  0  0  0  0  0  0  0  0  0  0  0
   48.0630   34.4180   39.6540 C   0  0  0  0  0  0  0  0  0  0  0  0
   49.0040   34.9560   39.7710 H   0  0  0  0  0  0  0  0  0  0  0  0
   47.8770   33.8400   38.4180 C   0  0  0  0  0  0  0  0  0  0  0  0
   48.6020   33.9090   37.6220 H   0  0  0  0  0  0  0  0  0  0  0  0
   46.6760   33.1490   38.2600 C   0  0  0  0  0  3  0  0  0  0  0  0
   45.7850   33.0920   39.3110 C   0  0  0  0  0  3  0  0  0  0  0  0
   46.0060   33.6760   40.5140 N   0  0  0  0  0  0  0  0  0  0  0  0
  1  2  2  0  0  0  0
  1  6  1  0  0  0  0
  2  3  1  0  0  0  0
  3  8  1  0  0  0  0
  3  4  2  0  0  0  0
  5  4  1  0  0  0  0
  5  9  1  0  0  0  0
  6  5  2  0  0  0  0
  7  2  1  0  0  0  0
  9 12  1  6  0  0  0
  9 11  1  0  0  0  0
  9 10  1  0  0  0  0
 10 13  1  0  0  0  0
 10 14  1  0  0  0  0
 11 10  1  0  0  0  0
 11 16  1  0  0  0  0
 11 15  1  1  0  0  0
 16 18  1  0  0  0  0
 16 17  1  0  0  0  0
 19 20  2  0  0  0  0
 19  1  1  0  0  0  0
 21 19  1  0  0  0  0
 22 23  1  0  0  0  0
 22 21  2  0  0  0  0
 24 22  1  0  0  0  0
 25 24  1  0  0  0  0
 26 24  2  0  0  0  0
 26 27  1  0  0  0  0
 27 28  2  0  0  0  0
 28 21  1  0  0  0  0
M  END
>  <minimizedAffinity>
-5.69322443

>  <minimizedRMSD>
0.974120021

$$$$
