REMARK  Name = 
REMARK  3 active torsions:
REMARK  status: ('A' for Active; 'I' for Inactive)
REMARK    1  A    between atoms: C_2  and  C_14
REMARK    2  A    between atoms: C_10  and  C_16
REMARK    3  A    between atoms: C_16  and  C_26
REMARK                            x       y       z     vdW  Elec       q    Type
REMARK                         _______ _______ _______ _____ _____    ______ ____
ROOT
ATOM      1  C   UNL     1      46.893  34.930  42.631  0.00  0.00    +0.000 A 
ATOM      2  C   UNL     1      45.977  35.961  42.543  0.00  0.00    +0.000 A 
ATOM      3  C   UNL     1      44.963  35.994  43.491  0.00  0.00    +0.000 A 
ATOM      4  N   UNL     1      44.917  35.030  44.446  0.00  0.00    +0.000 NA
ATOM      5  C   UNL     1      45.831  34.043  44.495  0.00  0.00    +0.000 A 
ATOM      6  N   UNL     1      46.824  33.984  43.591  0.00  0.00    +0.000 NA
ATOM      7  H   UNL     1      45.953  36.750  41.822  0.00  0.00    +0.000 HD
ATOM      8  H   UNL     1      44.209  36.774  43.482  0.00  0.00    +0.000 HD
ENDROOT
BRANCH   5  10
ATOM      9  C   UNL     1      46.015  31.683  45.130  0.00  0.00    +0.000 A 
ATOM     10  C   UNL     1      45.785  33.001  45.525  0.00  0.00    +0.000 A 
ATOM     11  C   UNL     1      45.525  33.295  46.859  0.00  0.00    +0.000 A 
ATOM     12  C   UNL     1      45.504  32.253  47.761  0.00  0.00    +0.000 A 
ATOM     13  N   UNL     1      45.292  32.202  49.081  0.00  0.00    +0.000 N 
ATOM     14  C   UNL     1      45.370  30.956  49.554  0.00  0.00    +0.000 A 
ATOM     15  C   UNL     1      45.648  30.125  48.503  0.00  0.00    +0.000 A 
ATOM     16  C   UNL     1      45.733  30.934  47.381  0.00  0.00    +0.000 A 
ATOM     17  C   UNL     1      45.990  30.660  46.045  0.00  0.00    +0.000 A 
ATOM     18  H   UNL     1      46.215  31.496  44.077  0.00  0.00    +0.000 HD
ATOM     19  H   UNL     1      45.347  34.309  47.164  0.00  0.00    +0.000 HD
ATOM     20  H   UNL     1      45.091  33.064  49.648  0.00  0.00    +0.000 HD
ATOM     21  H   UNL     1      45.249  30.592  50.558  0.00  0.00    +0.000 HD
ATOM     22  H   UNL     1      45.796  29.041  48.428  0.00  0.00    +0.000 HD
ATOM     23  H   UNL     1      46.175  29.657  45.686  0.00  0.00    +0.000 HD
ENDBRANCH   5  10
BRANCH   1  24
ATOM     24  C   UNL     1      47.946  34.922  41.625  0.00  0.00    +0.000 C 
ATOM     25  O   UNL     1      48.831  35.849  41.514  0.00  0.00    +0.000 OA
BRANCH  24  26
ATOM     26  C   UNL     1      48.056  33.829  40.660  0.00  0.00    +0.000 A 
ATOM     27  C   UNL     1      47.969  34.066  39.322  0.00  0.00    +0.000 A 
ATOM     28  H   UNL     1      47.819  35.062  38.965  0.00  0.00    +0.000 HD
ATOM     29  C   UNL     1      48.075  33.021  38.425  0.00  0.00    +0.000 A 
ATOM     30  H   UNL     1      48.006  33.210  37.353  0.00  0.00    +0.000 HD
ATOM     31  C   UNL     1      48.269  31.717  38.842  0.00  0.00    +0.000 A 
ATOM     32  C   UNL     1      48.345  31.569  40.207  0.00  0.00    +0.000 A 
ATOM     33  N   UNL     1      48.247  32.561  41.132  0.00  0.00    +0.000 NA
ENDBRANCH  24  26
ENDBRANCH   1  24
TORSDOF 3
