
 OpenBabel03252503583D

 33 36  0  0  1  0  0  0  0  0999 V2000
   47.1280   34.9210   42.6690 C   0  0  0  0  0  0  0  0  0  0  0  0
   46.1280   35.8400   42.4150 C   0  0  0  0  0  0  0  0  0  0  0  0
   44.9930   35.7830   43.2130 C   0  0  0  0  0  0  0  0  0  0  0  0
   44.9180   34.8440   44.1910 N   0  0  0  0  0  0  0  0  0  0  0  0
   45.9170   33.9670   44.4040 C   0  0  0  0  0  0  0  0  0  0  0  0
   47.0270   33.9970   43.6470 N   0  0  0  0  0  0  0  0  0  0  0  0
   46.1210   36.6030   41.6660 H   0  0  0  0  0  0  0  0  0  0  0  0
   44.1690   36.4730   43.0700 H   0  0  0  0  0  0  0  0  0  0  0  0
   46.0510   31.6210   45.1000 C   0  0  0  0  0  0  0  0  0  0  0  0
   45.8390   32.9520   45.4590 C   0  0  0  0  0  0  0  0  0  0  0  0
   45.5660   33.2840   46.7810 C   0  0  0  0  0  0  0  0  0  0  0  0
   45.5150   32.2650   47.7090 C   0  0  0  0  0  0  0  0  0  0  0  0
   45.2840   32.2510   49.0270 N   0  0  0  0  0  0  0  0  0  0  0  0
   45.3340   31.0170   49.5320 C   0  0  0  0  0  0  0  0  0  0  0  0
   45.6120   30.1550   48.5060 C   0  0  0  0  0  0  0  0  0  0  0  0
   45.7260   30.9340   47.3650 C   0  0  0  0  0  0  0  0  0  0  0  0
   45.9960   30.6220   46.0400 C   0  0  0  0  0  0  0  0  0  0  0  0
   46.2620   31.4040   44.0550 H   0  0  0  0  0  0  0  0  0  0  0  0
   45.4010   34.3080   47.0580 H   0  0  0  0  0  0  0  0  0  0  0  0
   45.0910   33.1310   49.5690 H   0  0  0  0  0  0  0  0  0  0  0  0
   45.1940   30.6800   50.5430 H   0  0  0  0  0  0  0  0  0  0  0  0
   45.7420   29.0670   48.4600 H   0  0  0  0  0  0  0  0  0  0  0  0
   46.1690   29.6070   45.7090 H   0  0  0  0  0  0  0  0  0  0  0  0
   48.3070   35.0060   41.8170 C   0  0  1  0  0  3  0  0  0  0  0  0
   49.2130   35.9100   41.9450 O   0  0  0  0  0  1  0  0  0  0  0  0
   48.5290   34.0410   40.7420 C   0  0  0  0  0  0  0  0  0  0  0  0
   49.1910   32.8740   40.9760 C   0  0  0  0  0  0  0  0  0  0  0  0
   49.5560   32.6540   41.9560 H   0  0  0  0  0  0  0  0  0  0  0  0
   49.3910   31.9730   39.9480 C   0  0  0  0  0  0  0  0  0  0  0  0
   49.9210   31.0380   40.1350 H   0  0  0  0  0  0  0  0  0  0  0  0
   48.9360   32.2150   38.6650 C   0  0  0  0  0  3  0  0  0  0  0  0
   48.2800   33.4140   38.5190 C   0  0  0  0  0  3  0  0  0  0  0  0
   48.0560   34.3350   39.4940 N   0  0  0  0  0  0  0  0  0  0  0  0
  1  6  1  0  0  0  0
  2  1  2  0  0  0  0
  2  3  1  0  0  0  0
  3  4  2  0  0  0  0
  4  5  1  0  0  0  0
  5 10  1  0  0  0  0
  6  5  2  0  0  0  0
  7  2  1  0  0  0  0
  8  3  1  0  0  0  0
  9 10  2  0  0  0  0
  9 17  1  0  0  0  0
 10 11  1  0  0  0  0
 11 19  1  0  0  0  0
 11 12  2  0  0  0  0
 12 13  1  0  0  0  0
 13 14  1  0  0  0  0
 13 20  1  0  0  0  0
 14 21  1  0  0  0  0
 15 14  2  0  0  0  0
 16 12  1  0  0  0  0
 16 15  1  0  0  0  0
 17 16  2  0  0  0  0
 18  9  1  0  0  0  0
 22 15  1  0  0  0  0
 23 17  1  0  0  0  0
 24 25  1  1  0  0  0
 24  1  1  0  0  0  0
 26 27  1  0  0  0  0
 26 24  1  0  0  0  0
 27 28  1  0  0  0  0
 29 30  1  0  0  0  0
 29 27  2  0  0  0  0
 31 29  1  0  0  0  0
 32 31  2  0  0  0  0
 32 33  1  0  0  0  0
 33 26  2  0  0  0  0
M  END
>  <minimizedAffinity>
-6.0742054

>  <minimizedRMSD>
0.441279113

$$$$
