
 OpenBabel03252507593D

 28 30  0  0  1  0  0  0  0  0999 V2000
   47.0560   32.1490   43.9720 C   0  0  0  0  0  0  0  0  0  0  0  0
   45.9850   31.6650   43.1630 C   0  0  0  0  0  0  0  0  0  0  0  0
   45.6330   32.4620   42.0760 C   0  0  0  0  0  0  0  0  0  0  0  0
   46.3080   33.6150   41.8580 N   0  0  0  0  0  0  0  0  0  0  0  0
   47.3330   34.0190   42.6830 C   0  0  0  0  0  0  0  0  0  0  0  0
   47.7100   33.3070   43.7270 N   0  0  0  0  0  0  0  0  0  0  0  0
   45.5020   30.7300   43.4110 H   0  0  0  0  0  0  0  0  0  0  0  0
   44.8290   32.1380   41.4350 H   0  0  0  0  0  0  0  0  0  0  0  0
   48.0400   35.2940   42.3640 C   0  0  1  0  0  0  0  0  0  0  0  0
   49.5430   35.2760   42.1990 C   0  0  0  0  0  0  0  0  0  0  0  0
   48.6260   35.3500   41.0090 C   0  0  1  0  0  0  0  0  0  0  0  0
   47.5900   36.2140   42.7800 H   0  0  0  0  0  0  0  0  0  0  0  0
   50.0990   34.3720   42.4520 H   0  0  0  0  0  0  0  0  0  0  0  0
   50.0480   36.2370   42.4190 H   0  0  0  0  0  0  0  0  0  0  0  0
   48.6020   36.2610   40.3960 H   0  0  0  0  0  0  0  0  0  0  0  0
   48.7020   34.1190   40.2080 N   0  0  0  0  0  0  0  0  0  0  0  0
   49.6960   33.8630   40.0780 H   0  0  0  0  0  0  0  0  0  0  0  0
   48.1480   34.2100   39.3290 H   0  0  0  0  0  0  0  0  0  0  0  0
   47.4120   31.2970   45.0890 C   0  0  0  0  0  0  0  0  0  0  0  0
   48.1510   30.2550   44.9640 O   0  0  0  0  0  0  0  0  0  0  0  0
   46.9300   31.5990   46.4360 C   0  0  0  0  0  0  0  0  0  0  0  0
   45.8150   32.3960   46.6030 C   0  0  0  0  0  0  0  0  0  0  0  0
   45.2860   32.8060   45.7440 H   0  0  0  0  0  0  0  0  0  0  0  0
   45.2830   32.7380   47.8270 C   0  0  0  0  0  0  0  0  0  0  0  0
   44.4100   33.3630   47.9340 H   0  0  0  0  0  0  0  0  0  0  0  0
   45.9540   32.2180   48.9330 C   0  0  0  0  0  3  0  0  0  0  0  0
   47.0660   31.4230   48.7380 C   0  0  0  0  0  3  0  0  0  0  0  0
   47.5570   31.1110   47.5150 N   0  0  0  0  0  0  0  0  0  0  0  0
  1 19  1  0  0  0  0
  2  7  1  0  0  0  0
  2  1  2  0  0  0  0
  3  2  1  0  0  0  0
  4  3  2  0  0  0  0
  4  5  1  0  0  0  0
  5  6  2  0  0  0  0
  6  1  1  0  0  0  0
  8  3  1  0  0  0  0
  9  5  1  0  0  0  0
  9 12  1  1  0  0  0
 10  9  1  0  0  0  0
 10 14  1  0  0  0  0
 10 13  1  0  0  0  0
 11 15  1  6  0  0  0
 11 10  1  0  0  0  0
 11  9  1  0  0  0  0
 16 11  1  0  0  0  0
 17 16  1  0  0  0  0
 18 16  1  0  0  0  0
 19 21  1  0  0  0  0
 20 19  2  0  0  0  0
 21 22  2  0  0  0  0
 21 28  1  0  0  0  0
 22 24  1  0  0  0  0
 23 22  1  0  0  0  0
 24 25  1  0  0  0  0
 24 26  2  0  0  0  0
 27 26  1  0  0  0  0
 28 27  2  0  0  0  0
M  END
>  <minimizedAffinity>
-4.58261967

>  <minimizedRMSD>
6.62736225

$$$$
