
 OpenBabel03242522493D

 25 26  0  0  0  0  0  0  0  0999 V2000
   45.6650   30.6510   47.6980 O   0  0  0  0  0  0  0  0  0  0  0  0
   45.9640   32.0090   48.3890 P   0  0  2  0  0  0  0  0  0  0  0  0
   45.3460   31.8490   49.9470 O   0  0  0  0  0  0  0  0  0  0  0  0
   45.3480   30.8890   50.2500 H   0  0  0  0  0  0  0  0  0  0  0  0
   45.1240   33.2050   47.5480 O   0  0  0  0  0  0  0  0  0  0  0  0
   46.9850   33.2410   44.4230 C   0  0  0  0  0  0  0  0  0  0  0  0
   46.5460   32.8830   45.7150 C   0  0  0  0  0  0  0  0  0  0  0  0
   45.5160   33.5920   46.2840 C   0  0  0  0  0  0  0  0  0  0  0  0
   44.9620   34.6110   45.5750 N   0  0  0  0  0  0  0  0  0  0  0  0
   45.3900   34.9400   44.3490 C   0  0  0  0  0  0  0  0  0  0  0  0
   46.3940   34.2660   43.7680 N   0  0  0  0  0  0  0  0  0  0  0  0
   47.7820   32.7510   43.8890 H   0  0  0  0  0  0  0  0  0  0  0  0
   47.1080   32.0610   46.0850 H   0  0  0  0  0  0  0  0  0  0  0  0
   44.8680   35.7780   43.8770 H   0  0  0  0  0  0  0  0  0  0  0  0
   47.5970   32.2610   48.3740 O   0  0  0  0  0  0  0  0  0  0  0  0
   48.6430   31.5990   48.9080 C   0  0  0  0  0  0  0  0  0  0  0  0
   49.5710   32.4290   49.3610 O   0  0  0  0  0  0  0  0  0  0  0  0
   49.2080   30.2260   49.2060 C   0  0  0  0  0  0  0  0  0  0  0  0
   49.8640   30.0730   50.3770 C   0  0  0  0  0  0  0  0  0  0  0  0
   50.0560   30.7650   51.1720 H   0  0  0  0  0  0  0  0  0  0  0  0
   50.4090   28.8090   50.6550 C   0  0  0  0  0  0  0  0  0  0  0  0
   50.9430   28.6110   51.5630 H   0  0  0  0  0  0  0  0  0  0  0  0
   50.2780   27.7810   49.7730 C   0  0  0  0  0  0  0  0  0  0  0  0
   49.6010   28.0060   48.6080 C   0  0  0  0  0  0  0  0  0  0  0  0
   49.1040   29.1860   48.3670 N   0  0  0  0  0  0  0  0  0  0  0  0
  2  1  2  6  0  0  0
  2  3  1  0  0  0  0
  3  4  1  0  0  0  0
  5  2  1  0  0  0  0
  6  7  1  0  0  0  0
  7 13  1  0  0  0  0
  7  8  2  0  0  0  0
  8  5  1  0  0  0  0
  9  8  1  0  0  0  0
 10  9  2  0  0  0  0
 11 10  1  0  0  0  0
 11  6  2  0  0  0  0
 12  6  1  0  0  0  0
 14 10  1  0  0  0  0
 15  2  1  0  0  0  0
 15 16  1  0  0  0  0
 16 18  1  0  0  0  0
 16 17  2  0  0  0  0
 18 19  1  0  0  0  0
 19 21  2  0  0  0  0
 19 20  1  0  0  0  0
 21 22  1  0  0  0  0
 23 21  1  0  0  0  0
 24 23  2  0  0  0  0
 25 24  1  0  0  0  0
 25 18  2  0  0  0  0
M  END
>  <minimizedAffinity>
-4.8894949

>  <minimizedRMSD>
0.843700707

$$$$
