REMARK  Name = 
REMARK  4 active torsions:
REMARK  status: ('A' for Active; 'I' for Inactive)
REMARK    1  A    between atoms: C_1  and  C_10
REMARK    2  A    between atoms: C_6  and  C_18
REMARK    3  A    between atoms: C_7  and  C_16
REMARK    4  A    between atoms: C_18  and  C_35
REMARK                            x       y       z     vdW  Elec       q    Type
REMARK                         _______ _______ _______ _____ _____    ______ ____
ROOT
ATOM      1  C   UNL     1      47.554  29.971  48.281  0.00  0.00    +0.000 C 
ATOM      2  C   UNL     1      47.449  28.779  47.375  0.00  0.00    +0.000 C 
ATOM      3  C   UNL     1      48.732  28.025  47.174  0.00  0.00    +0.000 C 
ATOM      4  C   UNL     1      49.518  27.843  48.459  0.00  0.00    +0.000 C 
ATOM      5  C   UNL     1      49.582  29.102  49.269  0.00  0.00    +0.000 C 
ATOM      6  C   UNL     1      49.048  30.290  48.459  0.00  0.00    +0.000 C 
ATOM      7  H   UNL     1      47.172  29.710  49.265  0.00  0.00    +0.000 HD
ATOM      8  H   UNL     1      47.125  29.150  46.383  0.00  0.00    +0.000 HD
ATOM      9  H   UNL     1      46.691  28.071  47.773  0.00  0.00    +0.000 HD
ATOM     10  H   UNL     1      48.459  27.009  46.837  0.00  0.00    +0.000 HD
ATOM     11  H   UNL     1      49.337  28.517  46.390  0.00  0.00    +0.000 HD
ATOM     12  H   UNL     1      50.535  27.517  48.159  0.00  0.00    +0.000 HD
ATOM     13  H   UNL     1      49.070  26.994  49.007  0.00  0.00    +0.000 HD
ATOM     14  H   UNL     1      48.961  28.935  50.163  0.00  0.00    +0.000 HD
ATOM     15  H   UNL     1      50.625  29.285  49.579  0.00  0.00    +0.000 HD
ATOM     16  H   UNL     1      49.565  30.314  47.486  0.00  0.00    +0.000 HD
ENDROOT
BRANCH   1  20
ATOM     17  C   UNL     1      45.918  33.147  46.243  0.00  0.00    +0.000 A 
ATOM     18  C   UNL     1      45.337  32.934  47.491  0.00  0.00    +0.000 A 
ATOM     19  C   UNL     1      45.789  31.928  48.238  0.00  0.00    +0.000 A 
ATOM     20  C   UNL     1      46.837  31.100  47.770  0.00  0.00    +0.000 A 
ATOM     21  S   UNL     1      47.197  31.816  46.136  0.00  0.00    +0.000 S 
ATOM     22  H   UNL     1      44.539  33.575  47.838  0.00  0.00    +0.000 HD
ATOM     23  H   UNL     1      45.450  31.629  49.217  0.00  0.00    +0.000 HD
BRANCH  17  28
ATOM     24  C   UNL     1      44.423  36.102  44.541  0.00  0.00    +0.000 A 
ATOM     25  C   UNL     1      45.061  36.019  43.304  0.00  0.00    +0.000 A 
ATOM     26  C   UNL     1      45.967  34.972  43.092  0.00  0.00    +0.000 A 
ATOM     27  N   UNL     1      46.178  34.084  44.118  0.00  0.00    +0.000 NA
ATOM     28  C   UNL     1      45.537  34.209  45.290  0.00  0.00    +0.000 A 
ATOM     29  N   UNL     1      44.657  35.219  45.507  0.00  0.00    +0.000 NA
ATOM     30  H   UNL     1      43.721  36.905  44.718  0.00  0.00    +0.000 HD
ATOM     31  H   UNL     1      44.904  36.704  42.502  0.00  0.00    +0.000 HD
ATOM     32  H   UNL     1      46.497  34.843  42.163  0.00  0.00    +0.000 HD
ENDBRANCH  17  28
ENDBRANCH   1  20
BRANCH   6  33
ATOM     33  C   UNL     1      49.193  31.511  49.251  0.00  0.00    +0.000 C 
ATOM     34  O   UNL     1      49.982  31.615  50.156  0.00  0.00    +0.000 OA
BRANCH  33  35
ATOM     35  C   UNL     1      48.675  32.860  49.370  0.00  0.00    +0.000 A 
ATOM     36  C   UNL     1      49.441  34.008  49.640  0.00  0.00    +0.000 A 
ATOM     37  H   UNL     1      50.514  33.855  49.709  0.00  0.00    +0.000 HD
ATOM     38  C   UNL     1      48.996  35.296  49.827  0.00  0.00    +0.000 A 
ATOM     39  H   UNL     1      49.691  36.084  50.028  0.00  0.00    +0.000 HD
ATOM     40  C   UNL     1      47.639  35.451  49.732  0.00  0.00    +0.000 A 
ATOM     41  C   UNL     1      46.860  34.359  49.469  0.00  0.00    +0.000 A 
ATOM     42  N   UNL     1      47.373  33.151  49.303  0.00  0.00    +0.000 NA
ENDBRANCH  33  35
ENDBRANCH   6  33
TORSDOF 4
