
 OpenBabel03242521433D

 37 39  0  0  1  0  0  0  0  0999 V2000
   45.5540   35.6750   43.7020 C   0  0  0  0  0  0  0  0  0  0  0  0
   46.5870   34.8540   43.2180 C   0  0  0  0  0  0  0  0  0  0  0  0
   46.9510   33.7140   43.9550 C   0  0  0  0  0  0  0  0  0  0  0  0
   46.2890   33.4740   45.0840 N   0  0  0  0  0  0  0  0  0  0  0  0
   45.2970   34.2750   45.5340 C   0  0  0  0  0  0  0  0  0  0  0  0
   44.9230   35.3800   44.8450 N   0  0  0  0  0  0  0  0  0  0  0  0
   47.0480   35.1550   42.2880 H   0  0  0  0  0  0  0  0  0  0  0  0
   44.7670   34.0660   46.4550 H   0  0  0  0  0  0  0  0  0  0  0  0
   49.0270   33.6430   42.5890 C   0  0  2  0  0  0  0  0  0  0  0  0
   48.0230   32.9050   43.4030 C   0  0  2  0  0  0  0  0  0  0  0  0
   47.5890   31.9210   42.4680 O   0  0  0  0  0  0  0  0  0  0  0  0
   48.7940   31.3920   42.0390 C   0  0  0  0  0  0  0  0  0  0  0  0
   49.8570   32.4350   42.1080 C   0  0  1  0  0  0  0  0  0  0  0  0
   48.5980   34.0520   41.6380 H   0  0  0  0  0  0  0  0  0  0  0  0
   48.5480   32.3930   44.2440 H   0  0  0  0  0  0  0  0  0  0  0  0
   48.6970   30.9130   41.0500 H   0  0  0  0  0  0  0  0  0  0  0  0
   49.0690   30.5860   42.7650 H   0  0  0  0  0  0  0  0  0  0  0  0
   50.6630   32.2410   42.8360 H   0  0  0  0  0  0  0  0  0  0  0  0
   49.7510   34.5700   43.2730 O   0  0  0  0  0  0  0  0  0  0  0  0
   49.3110   34.7910   44.1330 H   0  0  0  0  0  0  0  0  0  0  0  0
   50.4460   32.7470   40.8890 O   0  0  0  0  0  0  0  0  0  0  0  0
   51.2640   33.2530   41.0730 H   0  0  0  0  0  0  0  0  0  0  0  0
   45.1830   36.8950   42.9070 C   0  0  0  0  0  0  0  0  0  0  0  0
   44.2350   36.7210   42.3390 H   0  0  0  0  0  0  0  0  0  0  0  0
   45.9860   37.1460   42.2170 H   0  0  0  0  0  0  0  0  0  0  0  0
   45.3480   39.2860   43.8670 C   0  0  0  0  0  0  0  0  0  0  0  0
   46.0450   39.6200   42.8680 O   0  0  0  0  0  0  0  0  0  0  0  0
   44.8930   37.9440   43.8660 N   0  0  0  0  0  0  0  0  0  0  0  0
   44.2560   37.6600   44.6680 H   0  0  0  0  0  0  0  0  0  0  0  0
   45.0100   40.1830   44.9690 C   0  0  0  0  0  0  0  0  0  0  0  0
   45.1670   39.7530   46.2550 C   0  0  0  0  0  0  0  0  0  0  0  0
   45.5280   38.7880   46.5210 H   0  0  0  0  0  0  0  0  0  0  0  0
   44.8220   40.6710   47.2500 C   0  0  0  0  0  0  0  0  0  0  0  0
   44.9350   40.3630   48.2790 H   0  0  0  0  0  0  0  0  0  0  0  0
   44.3400   41.9560   47.0040 C   0  0  0  0  0  0  0  0  0  0  0  0
   44.2190   42.2910   45.6800 C   0  0  0  0  0  0  0  0  0  0  0  0
   44.5410   41.4360   44.6970 N   0  0  0  0  0  0  0  0  0  0  0  0
  1  6  1  0  0  0  0
  2  1  2  0  0  0  0
  2  3  1  0  0  0  0
  3  4  2  0  0  0  0
  4  5  1  0  0  0  0
  5  8  1  0  0  0  0
  6  5  2  0  0  0  0
  7  2  1  0  0  0  0
  9 14  1  6  0  0  0
  9 19  1  0  0  0  0
  9 10  1  0  0  0  0
 10  3  1  0  0  0  0
 10 15  1  1  0  0  0
 11 10  1  0  0  0  0
 12 13  1  0  0  0  0
 12 11  1  0  0  0  0
 12 17  1  0  0  0  0
 13  9  1  0  0  0  0
 13 18  1  1  0  0  0
 16 12  1  0  0  0  0
 19 20  1  0  0  0  0
 21 22  1  0  0  0  0
 21 13  1  0  0  0  0
 23  1  1  0  0  0  0
 23 28  1  0  0  0  0
 24 23  1  0  0  0  0
 25 23  1  0  0  0  0
 26 30  1  0  0  0  0
 27 26  2  0  0  0  0
 28 26  1  0  0  0  0
 28 29  1  0  0  0  0
 30 31  1  0  0  0  0
 31 32  1  0  0  0  0
 31 33  2  0  0  0  0
 33 34  1  0  0  0  0
 35 33  1  0  0  0  0
 36 35  2  0  0  0  0
 37 30  2  0  0  0  0
 37 36  1  0  0  0  0
M  END
>  <minimizedAffinity>
-4.69601107

>  <minimizedRMSD>
0.837223411

$$$$
