
 OpenBabel03252507593D

 28 30  0  0  1  0  0  0  0  0999 V2000
   46.5800   34.8080   43.1080 C   0  0  0  0  0  0  0  0  0  0  0  0
   45.5500   35.7840   43.2510 C   0  0  0  0  0  0  0  0  0  0  0  0
   44.7090   35.6280   44.3500 C   0  0  0  0  0  0  0  0  0  0  0  0
   44.9130   34.5880   45.1930 N   0  0  0  0  0  0  0  0  0  0  0  0
   45.9300   33.6830   44.9910 C   0  0  0  0  0  0  0  0  0  0  0  0
   46.7570   33.7800   43.9680 N   0  0  0  0  0  0  0  0  0  0  0  0
   45.4600   36.5840   42.5280 H   0  0  0  0  0  0  0  0  0  0  0  0
   43.9140   36.3400   44.5010 H   0  0  0  0  0  0  0  0  0  0  0  0
   46.1000   32.5750   45.9770 C   0  0  1  0  0  0  0  0  0  0  0  0
   46.8220   32.8550   47.2750 C   0  0  0  0  0  0  0  0  0  0  0  0
   45.3240   32.7360   47.2230 C   0  0  1  0  0  0  0  0  0  0  0  0
   46.2060   31.5610   45.5510 H   0  0  0  0  0  0  0  0  0  0  0  0
   47.3260   33.8140   47.4130 H   0  0  0  0  0  0  0  0  0  0  0  0
   47.3120   31.9760   47.7360 H   0  0  0  0  0  0  0  0  0  0  0  0
   44.8280   31.8890   47.7180 H   0  0  0  0  0  0  0  0  0  0  0  0
   44.6810   34.0270   47.5080 N   0  0  0  0  0  0  0  0  0  0  0  0
   45.1360   34.4540   48.3330 H   0  0  0  0  0  0  0  0  0  0  0  0
   43.6450   33.9230   47.5740 H   0  0  0  0  0  0  0  0  0  0  0  0
   47.4500   34.9990   41.9640 C   0  0  0  0  0  0  0  0  0  0  0  0
   48.5010   35.7330   42.0020 O   0  0  0  0  0  0  0  0  0  0  0  0
   47.1530   34.3470   40.6890 C   0  0  0  0  0  0  0  0  0  0  0  0
   48.0620   34.4180   39.6520 C   0  0  0  0  0  0  0  0  0  0  0  0
   49.0020   34.9580   39.7700 H   0  0  0  0  0  0  0  0  0  0  0  0
   47.8770   33.8390   38.4170 C   0  0  0  0  0  0  0  0  0  0  0  0
   48.6020   33.9090   37.6210 H   0  0  0  0  0  0  0  0  0  0  0  0
   46.6760   33.1490   38.2590 C   0  0  0  0  0  3  0  0  0  0  0  0
   45.7840   33.0910   39.3110 C   0  0  0  0  0  3  0  0  0  0  0  0
   46.0070   33.6760   40.5120 N   0  0  0  0  0  0  0  0  0  0  0  0
  1  2  2  0  0  0  0
  1  6  1  0  0  0  0
  2  3  1  0  0  0  0
  3  8  1  0  0  0  0
  3  4  2  0  0  0  0
  5  4  1  0  0  0  0
  5  9  1  0  0  0  0
  6  5  2  0  0  0  0
  7  2  1  0  0  0  0
  9 12  1  6  0  0  0
  9 11  1  0  0  0  0
  9 10  1  0  0  0  0
 10 13  1  0  0  0  0
 10 14  1  0  0  0  0
 11 10  1  0  0  0  0
 11 16  1  0  0  0  0
 11 15  1  1  0  0  0
 16 18  1  0  0  0  0
 16 17  1  0  0  0  0
 19 20  2  0  0  0  0
 19  1  1  0  0  0  0
 21 19  1  0  0  0  0
 22 23  1  0  0  0  0
 22 21  2  0  0  0  0
 24 22  1  0  0  0  0
 25 24  1  0  0  0  0
 26 24  2  0  0  0  0
 26 27  1  0  0  0  0
 27 28  2  0  0  0  0
 28 21  1  0  0  0  0
M  END
>  <minimizedAffinity>
-5.69270611

>  <minimizedRMSD>
0.832009315

$$$$
