
 OpenBabel03242520233D

 43 46  0  0  0  0  0  0  0  0999 V2000
   36.2020   27.5460   42.7910 C   0  0  0  0  0  0  0  0  0  0  0  0
   35.1590   27.3860   43.1250 H   0  0  0  0  0  0  0  0  0  0  0  0
   36.5540   26.5420   42.4380 H   0  0  0  0  0  0  0  0  0  0  0  0
   36.6210   28.1160   40.4470 C   0  0  0  0  0  0  0  0  0  0  0  0
   36.6990   26.9020   40.0910 O   0  0  0  0  0  0  0  0  0  0  0  0
   36.2860   28.5470   41.7510 N   0  0  0  0  0  0  0  0  0  0  0  0
   36.0950   29.5280   42.0210 H   0  0  0  0  0  0  0  0  0  0  0  0
   36.8940   29.1770   39.4560 C   0  0  0  0  0  0  0  0  0  0  0  0
   36.4570   29.0210   38.1580 C   0  0  0  0  0  0  0  0  0  0  0  0
   36.6420   29.9270   37.1400 C   0  0  0  0  0  0  0  0  0  0  0  0
   37.3380   31.0960   37.4860 C   0  0  0  0  0  0  0  0  0  0  0  0
   37.7560   31.2180   38.7830 C   0  0  0  0  0  0  0  0  0  0  0  0
   37.5480   30.3010   39.7350 N   0  0  0  0  0  0  0  0  0  0  0  0
   35.9220   28.1030   37.9250 H   0  0  0  0  0  0  0  0  0  0  0  0
   36.2860   29.7650   36.1400 H   0  0  0  0  0  0  0  0  0  0  0  0
   37.4920   31.8080   36.7150 H   0  0  0  0  0  0  0  0  0  0  0  0
   38.4830   32.4080   39.2090 C   0  0  0  0  0  0  0  0  0  0  0  0
   37.8800   33.4820   39.8260 C   0  0  0  0  0  0  0  0  0  0  0  0
   36.8310   33.4890   40.0200 H   0  0  0  0  0  0  0  0  0  0  0  0
   38.5300   34.6240   40.2440 C   0  0  0  0  0  0  0  0  0  0  0  0
   38.0230   35.4500   40.7250 H   0  0  0  0  0  0  0  0  0  0  0  0
   39.8900   34.7240   40.0400 C   0  0  0  0  0  3  0  0  0  0  0  0
   40.5020   33.6530   39.4250 C   0  0  0  0  0  3  0  0  0  0  0  0
   39.8100   32.5680   39.0410 N   0  0  0  0  0  0  0  0  0  0  0  0
   37.0340   27.8900   44.0180 C   0  0  0  0  0  0  0  0  0  0  0  0
   36.6990   28.8370   44.4760 H   0  0  0  0  0  0  0  0  0  0  0  0
   36.8990   27.0360   44.7420 H   0  0  0  0  0  0  0  0  0  0  0  0
   40.7170   27.1470   43.5240 C   0  0  0  0  0  0  0  0  0  0  0  0
   39.3600   26.9950   43.9150 C   0  0  0  0  0  0  0  0  0  0  0  0
   38.4630   28.0080   43.6390 C   0  0  0  0  0  0  0  0  0  0  0  0
   38.9670   29.1160   42.9900 N   0  0  0  0  0  0  0  0  0  0  0  0
   40.2820   29.2060   42.6400 C   0  0  0  0  0  0  0  0  0  0  0  0
   41.1440   28.2290   42.9060 N   0  0  0  0  0  0  0  0  0  0  0  0
   39.0030   26.1080   44.4240 H   0  0  0  0  0  0  0  0  0  0  0  0
   40.6140   30.1110   42.1290 H   0  0  0  0  0  0  0  0  0  0  0  0
   41.6780   26.0420   43.8440 C   0  0  0  0  0  0  0  0  0  0  0  0
   41.8180   25.0480   42.6270 C   0  0  0  0  0  0  0  0  0  0  0  0
   42.9130   25.8210   43.2120 C   0  0  0  0  0  0  0  0  0  0  0  0
   41.3770   25.5150   44.7880 H   0  0  0  0  0  0  0  0  0  0  0  0
   41.7310   23.9770   42.9050 H   0  0  0  0  0  0  0  0  0  0  0  0
   41.2980   25.3070   41.7060 H   0  0  0  0  0  0  0  0  0  0  0  0
   43.3270   26.6260   42.5370 H   0  0  0  0  0  0  0  0  0  0  0  0
   43.7200   25.2800   43.7200 H   0  0  0  0  0  0  0  0  0  0  0  0
  1  2  1  0  0  0  0
  1 25  1  0  0  0  0
  3  1  1  0  0  0  0
  4  6  1  0  0  0  0
  5  4  2  0  0  0  0
  6  7  1  0  0  0  0
  6  1  1  0  0  0  0
  8 13  1  0  0  0  0
  8  4  1  0  0  0  0
  9  8  2  0  0  0  0
 10 11  2  0  0  0  0
 10  9  1  0  0  0  0
 11 12  1  0  0  0  0
 12 17  1  0  0  0  0
 12 13  2  0  0  0  0
 14  9  1  0  0  0  0
 15 10  1  0  0  0  0
 16 11  1  0  0  0  0
 17 18  1  0  0  0  0
 18 19  1  0  0  0  0
 18 20  2  0  0  0  0
 20 21  1  0  0  0  0
 22 20  1  0  0  0  0
 23 22  2  0  0  0  0
 24 17  2  0  0  0  0
 24 23  1  0  0  0  0
 25 26  1  0  0  0  0
 25 27  1  0  0  0  0
 28 36  1  0  0  0  0
 28 29  1  0  0  0  0
 29 34  1  0  0  0  0
 30 29  2  0  0  0  0
 30 25  1  0  0  0  0
 31 30  1  0  0  0  0
 32 33  1  0  0  0  0
 32 31  2  0  0  0  0
 33 28  2  0  0  0  0
 35 32  1  0  0  0  0
 36 39  1  0  0  0  0
 37 40  1  0  0  0  0
 37 38  1  0  0  0  0
 37 36  1  0  0  0  0
 38 43  1  0  0  0  0
 38 36  1  0  0  0  0
 41 37  1  0  0  0  0
 42 38  1  0  0  0  0
M  END
>  <minimizedAffinity>
-6.01615238

$$$$

 OpenBabel03242520233D

 43 46  0  0  0  0  0  0  0  0999 V2000
   38.7030   34.4400   40.4100 C   0  0  0  0  0  0  0  0  0  0  0  0
   38.3610   34.6210   39.3730 H   0  0  0  0  0  0  0  0  0  0  0  0
   38.0960   35.1370   41.0440 H   0  0  0  0  0  0  0  0  0  0  0  0
   37.5560   32.2980   40.1130 C   0  0  0  0  0  0  0  0  0  0  0  0
   36.9380   32.6910   39.0790 O   0  0  0  0  0  0  0  0  0  0  0  0
   38.5280   33.0590   40.8000 N   0  0  0  0  0  0  0  0  0  0  0  0
   39.1280   32.7030   41.5650 H   0  0  0  0  0  0  0  0  0  0  0  0
   37.2620   30.9590   40.6630 C   0  0  0  0  0  0  0  0  0  0  0  0
   36.0140   30.4070   40.4740 C   0  0  0  0  0  0  0  0  0  0  0  0
   35.6090   29.1740   40.9300 C   0  0  0  0  0  0  0  0  0  0  0  0
   36.5730   28.4440   41.6440 C   0  0  0  0  0  0  0  0  0  0  0  0
   37.8010   29.0220   41.8130 C   0  0  0  0  0  0  0  0  0  0  0  0
   38.1410   30.2300   41.3450 N   0  0  0  0  0  0  0  0  0  0  0  0
   35.2920   31.0000   39.9170 H   0  0  0  0  0  0  0  0  0  0  0  0
   34.6240   28.7820   40.7610 H   0  0  0  0  0  0  0  0  0  0  0  0
   36.2810   27.4910   42.0060 H   0  0  0  0  0  0  0  0  0  0  0  0
   38.8480   28.3180   42.5440 C   0  0  0  0  0  0  0  0  0  0  0  0
   38.6160   27.1870   43.2950 C   0  0  0  0  0  0  0  0  0  0  0  0
   37.6380   26.7690   43.3750 H   0  0  0  0  0  0  0  0  0  0  0  0
   39.5760   26.4920   44.0000 C   0  0  0  0  0  0  0  0  0  0  0  0
   39.3570   25.6060   44.5800 H   0  0  0  0  0  0  0  0  0  0  0  0
   40.8770   26.9450   43.9680 C   0  0  0  0  0  3  0  0  0  0  0  0
   41.1200   28.0760   43.2180 C   0  0  0  0  0  3  0  0  0  0  0  0
   40.1370   28.7070   42.5540 N   0  0  0  0  0  0  0  0  0  0  0  0
   40.1470   34.9110   40.5100 C   0  0  0  0  0  0  0  0  0  0  0  0
   40.2220   36.0040   40.3680 H   0  0  0  0  0  0  0  0  0  0  0  0
   40.5040   34.6250   41.5400 H   0  0  0  0  0  0  0  0  0  0  0  0
   43.0830   33.7510   38.4140 C   0  0  0  0  0  0  0  0  0  0  0  0
   42.3330   34.4350   39.4070 C   0  0  0  0  0  0  0  0  0  0  0  0
   40.9690   34.2270   39.4830 C   0  0  0  0  0  0  0  0  0  0  0  0
   40.4300   33.3500   38.5650 N   0  0  0  0  0  0  0  0  0  0  0  0
   41.2010   32.7220   37.6330 C   0  0  0  0  0  0  0  0  0  0  0  0
   42.5130   32.9230   37.5620 N   0  0  0  0  0  0  0  0  0  0  0  0
   42.7950   35.1170   40.1100 H   0  0  0  0  0  0  0  0  0  0  0  0
   40.7090   32.0410   36.9370 H   0  0  0  0  0  0  0  0  0  0  0  0
   44.5590   34.0000   38.3390 C   0  0  0  0  0  0  0  0  0  0  0  0
   45.3650   32.8000   38.9730 C   0  0  0  0  0  0  0  0  0  0  0  0
   45.4800   33.2510   37.5860 C   0  0  0  0  0  0  0  0  0  0  0  0
   44.8210   34.9820   38.8130 H   0  0  0  0  0  0  0  0  0  0  0  0
   46.1540   33.1120   39.6890 H   0  0  0  0  0  0  0  0  0  0  0  0
   44.7960   31.9300   39.2970 H   0  0  0  0  0  0  0  0  0  0  0  0
   45.0860   32.5180   36.8240 H   0  0  0  0  0  0  0  0  0  0  0  0
   46.4290   33.6880   37.2570 H   0  0  0  0  0  0  0  0  0  0  0  0
  1 25  1  0  0  0  0
  1  6  1  0  0  0  0
  1  3  1  0  0  0  0
  2  1  1  0  0  0  0
  4  8  1  0  0  0  0
  4  6  1  0  0  0  0
  5  4  2  0  0  0  0
  6  7  1  0  0  0  0
  8 13  1  0  0  0  0
  9  8  2  0  0  0  0
  9 10  1  0  0  0  0
 10 11  2  0  0  0  0
 11 12  1  0  0  0  0
 11 16  1  0  0  0  0
 12 17  1  0  0  0  0
 13 12  2  0  0  0  0
 14  9  1  0  0  0  0
 15 10  1  0  0  0  0
 17 24  2  0  0  0  0
 17 18  1  0  0  0  0
 18 19  1  0  0  0  0
 18 20  2  0  0  0  0
 20 21  1  0  0  0  0
 22 20  1  0  0  0  0
 23 22  2  0  0  0  0
 24 23  1  0  0  0  0
 25 27  1  0  0  0  0
 26 25  1  0  0  0  0
 28 29  1  0  0  0  0
 29 30  2  0  0  0  0
 29 34  1  0  0  0  0
 30 25  1  0  0  0  0
 31 30  1  0  0  0  0
 32 31  2  0  0  0  0
 33 32  1  0  0  0  0
 33 28  2  0  0  0  0
 35 32  1  0  0  0  0
 36 28  1  0  0  0  0
 36 39  1  0  0  0  0
 36 37  1  0  0  0  0
 37 41  1  0  0  0  0
 37 40  1  0  0  0  0
 38 36  1  0  0  0  0
 38 37  1  0  0  0  0
 42 38  1  0  0  0  0
 43 38  1  0  0  0  0
M  END
>  <minimizedAffinity>
-6.01168346

$$$$

 OpenBabel03242520233D

 43 46  0  0  0  0  0  0  0  0999 V2000
   35.9540   29.8080   39.4530 C   0  0  0  0  0  0  0  0  0  0  0  0
   35.1020   30.0480   38.7880 H   0  0  0  0  0  0  0  0  0  0  0  0
   36.5660   29.0590   38.8870 H   0  0  0  0  0  0  0  0  0  0  0  0
   37.4730   31.6020   38.7720 C   0  0  0  0  0  0  0  0  0  0  0  0
   37.4060   31.2890   37.5450 O   0  0  0  0  0  0  0  0  0  0  0  0
   36.7180   30.9860   39.7950 N   0  0  0  0  0  0  0  0  0  0  0  0
   36.6690   31.3150   40.7750 H   0  0  0  0  0  0  0  0  0  0  0  0
   38.3940   32.6780   39.1920 C   0  0  0  0  0  0  0  0  0  0  0  0
   37.9020   33.7560   39.8940 C   0  0  0  0  0  0  0  0  0  0  0  0
   38.6460   34.8220   40.3440 C   0  0  0  0  0  0  0  0  0  0  0  0
   40.0180   34.7740   40.0460 C   0  0  0  0  0  0  0  0  0  0  0  0
   40.4720   33.6890   39.3480 C   0  0  0  0  0  0  0  0  0  0  0  0
   39.6990   32.6770   38.9340 N   0  0  0  0  0  0  0  0  0  0  0  0
   36.8350   33.7600   40.1070 H   0  0  0  0  0  0  0  0  0  0  0  0
   38.2220   35.6440   40.8880 H   0  0  0  0  0  0  0  0  0  0  0  0
   40.6100   35.5870   40.3840 H   0  0  0  0  0  0  0  0  0  0  0  0
   41.8850   33.5760   39.0070 C   0  0  0  0  0  0  0  0  0  0  0  0
   42.9000   33.9870   39.8430 C   0  0  0  0  0  0  0  0  0  0  0  0
   42.6900   34.4150   40.7970 H   0  0  0  0  0  0  0  0  0  0  0  0
   44.2460   33.8990   39.5590 C   0  0  0  0  0  0  0  0  0  0  0  0
   45.0180   34.2320   40.2400 H   0  0  0  0  0  0  0  0  0  0  0  0
   44.6330   33.3630   38.3490 C   0  0  0  0  0  3  0  0  0  0  0  0
   43.6250   32.9480   37.5060 C   0  0  0  0  0  3  0  0  0  0  0  0
   42.3300   33.0630   37.8440 N   0  0  0  0  0  0  0  0  0  0  0  0
   35.4000   29.0810   40.6710 C   0  0  0  0  0  0  0  0  0  0  0  0
   34.7320   29.7370   41.2580 H   0  0  0  0  0  0  0  0  0  0  0  0
   34.8290   28.1920   40.2780 H   0  0  0  0  0  0  0  0  0  0  0  0
   37.9750   26.9020   42.3980 C   0  0  0  0  0  0  0  0  0  0  0  0
   36.8930   27.2950   41.5650 C   0  0  0  0  0  0  0  0  0  0  0  0
   36.5170   28.6230   41.5330 C   0  0  0  0  0  0  0  0  0  0  0  0
   37.2380   29.4860   42.3310 N   0  0  0  0  0  0  0  0  0  0  0  0
   38.2680   29.0510   43.1110 C   0  0  0  0  0  0  0  0  0  0  0  0
   38.6300   27.7710   43.1410 N   0  0  0  0  0  0  0  0  0  0  0  0
   36.3500   26.5850   40.9520 H   0  0  0  0  0  0  0  0  0  0  0  0
   38.7960   29.7870   43.7180 H   0  0  0  0  0  0  0  0  0  0  0  0
   38.3600   25.4540   42.4290 C   0  0  0  0  0  0  0  0  0  0  0  0
   39.6420   25.1930   41.5470 C   0  0  0  0  0  0  0  0  0  0  0  0
   39.5410   24.9310   42.9830 C   0  0  0  0  0  0  0  0  0  0  0  0
   37.4960   24.8070   42.1210 H   0  0  0  0  0  0  0  0  0  0  0  0
   39.5470   24.3320   40.8530 H   0  0  0  0  0  0  0  0  0  0  0  0
   40.1330   26.0600   41.1080 H   0  0  0  0  0  0  0  0  0  0  0  0
   40.1810   25.6040   43.6250 H   0  0  0  0  0  0  0  0  0  0  0  0
   39.5920   23.8920   43.3280 H   0  0  0  0  0  0  0  0  0  0  0  0
  1  6  1  0  0  0  0
  1 25  1  0  0  0  0
  2  1  1  0  0  0  0
  3  1  1  0  0  0  0
  4  8  1  0  0  0  0
  4  6  1  0  0  0  0
  5  4  2  0  0  0  0
  6  7  1  0  0  0  0
  8  9  1  0  0  0  0
  9 14  1  0  0  0  0
  9 10  2  0  0  0  0
 10 15  1  0  0  0  0
 11 10  1  0  0  0  0
 11 16  1  0  0  0  0
 12 11  2  0  0  0  0
 13  8  2  0  0  0  0
 13 12  1  0  0  0  0
 17 12  1  0  0  0  0
 17 18  1  0  0  0  0
 18 19  1  0  0  0  0
 20 18  2  0  0  0  0
 20 21  1  0  0  0  0
 22 20  1  0  0  0  0
 23 24  1  0  0  0  0
 23 22  2  0  0  0  0
 24 17  2  0  0  0  0
 25 26  1  0  0  0  0
 25 30  1  0  0  0  0
 27 25  1  0  0  0  0
 28 36  1  0  0  0  0
 28 33  1  0  0  0  0
 29 28  2  0  0  0  0
 30 29  1  0  0  0  0
 30 31  2  0  0  0  0
 31 32  1  0  0  0  0
 32 33  2  0  0  0  0
 32 35  1  0  0  0  0
 34 29  1  0  0  0  0
 36 38  1  0  0  0  0
 37 36  1  0  0  0  0
 37 38  1  0  0  0  0
 38 43  1  0  0  0  0
 38 42  1  0  0  0  0
 39 36  1  0  0  0  0
 40 37  1  0  0  0  0
 41 37  1  0  0  0  0
M  END
>  <minimizedAffinity>
-5.90851164

$$$$

 OpenBabel03242520233D

 43 46  0  0  0  0  0  0  0  0999 V2000
   38.9380   33.9660   40.5830 C   0  0  0  0  0  0  0  0  0  0  0  0
   38.8090   34.8620   41.2210 H   0  0  0  0  0  0  0  0  0  0  0  0
   39.7670   34.2270   39.8760 H   0  0  0  0  0  0  0  0  0  0  0  0
   40.5290   32.2250   41.2340 C   0  0  0  0  0  0  0  0  0  0  0  0
   41.4870   32.7640   40.6030 O   0  0  0  0  0  0  0  0  0  0  0  0
   39.2410   32.7890   41.3650 N   0  0  0  0  0  0  0  0  0  0  0  0
   38.4930   32.4230   41.9800 H   0  0  0  0  0  0  0  0  0  0  0  0
   40.7430   30.9170   41.8880 C   0  0  0  0  0  0  0  0  0  0  0  0
   41.9780   30.6170   42.4180 C   0  0  0  0  0  0  0  0  0  0  0  0
   42.3110   29.4420   43.0510 C   0  0  0  0  0  0  0  0  0  0  0  0
   41.2820   28.4910   43.1460 C   0  0  0  0  0  0  0  0  0  0  0  0
   40.0690   28.8220   42.6080 C   0  0  0  0  0  0  0  0  0  0  0  0
   39.8010   29.9840   42.0010 N   0  0  0  0  0  0  0  0  0  0  0  0
   42.7510   31.3770   42.3270 H   0  0  0  0  0  0  0  0  0  0  0  0
   43.2880   29.2490   43.4510 H   0  0  0  0  0  0  0  0  0  0  0  0
   41.5180   27.5770   43.6300 H   0  0  0  0  0  0  0  0  0  0  0  0
   38.9580   27.8800   42.6730 C   0  0  0  0  0  0  0  0  0  0  0  0
   37.7620   28.1630   43.2960 C   0  0  0  0  0  0  0  0  0  0  0  0
   37.5960   29.1040   43.7690 H   0  0  0  0  0  0  0  0  0  0  0  0
   36.6880   27.3020   43.3800 C   0  0  0  0  0  0  0  0  0  0  0  0
   35.7620   27.5580   43.8780 H   0  0  0  0  0  0  0  0  0  0  0  0
   36.7940   26.0540   42.8040 C   0  0  0  0  0  3  0  0  0  0  0  0
   37.9860   25.7620   42.1770 C   0  0  0  0  0  3  0  0  0  0  0  0
   38.9950   26.6480   42.1310 N   0  0  0  0  0  0  0  0  0  0  0  0
   37.6800   33.8160   39.7390 C   0  0  0  0  0  0  0  0  0  0  0  0
   36.7700   33.9470   40.3510 H   0  0  0  0  0  0  0  0  0  0  0  0
   37.7340   34.6120   38.9430 H   0  0  0  0  0  0  0  0  0  0  0  0
   36.6450   30.3110   38.7370 C   0  0  0  0  0  0  0  0  0  0  0  0
   36.6330   31.5820   39.3690 C   0  0  0  0  0  0  0  0  0  0  0  0
   37.6560   32.4730   39.1100 C   0  0  0  0  0  0  0  0  0  0  0  0
   38.6340   32.0480   38.2360 N   0  0  0  0  0  0  0  0  0  0  0  0
   38.5930   30.8130   37.6580 C   0  0  0  0  0  0  0  0  0  0  0  0
   37.6070   29.9570   37.9090 N   0  0  0  0  0  0  0  0  0  0  0  0
   35.8450   31.8790   40.0510 H   0  0  0  0  0  0  0  0  0  0  0  0
   39.4000   30.5410   36.9760 H   0  0  0  0  0  0  0  0  0  0  0  0
   35.5330   29.3540   39.0410 C   0  0  0  0  0  0  0  0  0  0  0  0
   36.0740   28.0900   39.8160 C   0  0  0  0  0  0  0  0  0  0  0  0
   35.0660   29.0200   40.3240 C   0  0  0  0  0  0  0  0  0  0  0  0
   34.9840   29.0710   38.1040 H   0  0  0  0  0  0  0  0  0  0  0  0
   35.7260   27.1210   39.4020 H   0  0  0  0  0  0  0  0  0  0  0  0
   37.1230   28.0920   40.1070 H   0  0  0  0  0  0  0  0  0  0  0  0
   35.4070   29.6430   41.2020 H   0  0  0  0  0  0  0  0  0  0  0  0
   34.0460   28.6510   40.4760 H   0  0  0  0  0  0  0  0  0  0  0  0
  1  2  1  0  0  0  0
  1  6  1  0  0  0  0
  3  1  1  0  0  0  0
  4  6  1  0  0  0  0
  4  8  1  0  0  0  0
  5  4  2  0  0  0  0
  6  7  1  0  0  0  0
  8 13  2  0  0  0  0
  8  9  1  0  0  0  0
  9 10  2  0  0  0  0
 10 11  1  0  0  0  0
 10 15  1  0  0  0  0
 11 16  1  0  0  0  0
 12 17  1  0  0  0  0
 12 11  2  0  0  0  0
 13 12  1  0  0  0  0
 14  9  1  0  0  0  0
 17 18  1  0  0  0  0
 18 20  2  0  0  0  0
 18 19  1  0  0  0  0
 20 21  1  0  0  0  0
 22 20  1  0  0  0  0
 23 22  2  0  0  0  0
 24 23  1  0  0  0  0
 24 17  2  0  0  0  0
 25 26  1  0  0  0  0
 25  1  1  0  0  0  0
 27 25  1  0  0  0  0
 28 36  1  0  0  0  0
 28 29  1  0  0  0  0
 29 34  1  0  0  0  0
 30 29  2  0  0  0  0
 30 25  1  0  0  0  0
 31 30  1  0  0  0  0
 32 33  1  0  0  0  0
 32 31  2  0  0  0  0
 33 28  2  0  0  0  0
 35 32  1  0  0  0  0
 36 37  1  0  0  0  0
 36 38  1  0  0  0  0
 37 41  1  0  0  0  0
 37 38  1  0  0  0  0
 38 43  1  0  0  0  0
 38 42  1  0  0  0  0
 39 36  1  0  0  0  0
 40 37  1  0  0  0  0
M  END
>  <minimizedAffinity>
-5.8495965

$$$$

 OpenBabel03242520233D

 43 46  0  0  0  0  0  0  0  0999 V2000
   36.6560   30.8750   39.6700 C   0  0  0  0  0  0  0  0  0  0  0  0
   35.9490   31.5960   39.2160 H   0  0  0  0  0  0  0  0  0  0  0  0
   36.5160   29.9250   39.0930 H   0  0  0  0  0  0  0  0  0  0  0  0
   38.2290   32.7460   39.5510 C   0  0  0  0  0  0  0  0  0  0  0  0
   37.3180   33.6150   39.7020 O   0  0  0  0  0  0  0  0  0  0  0  0
   38.0200   31.3500   39.6120 N   0  0  0  0  0  0  0  0  0  0  0  0
   38.7710   30.6380   39.6170 H   0  0  0  0  0  0  0  0  0  0  0  0
   39.6140   33.1920   39.2920 C   0  0  0  0  0  0  0  0  0  0  0  0
   40.0560   34.3800   39.8310 C   0  0  0  0  0  0  0  0  0  0  0  0
   41.3160   34.9090   39.6710 C   0  0  0  0  0  0  0  0  0  0  0  0
   42.1980   34.1500   38.8850 C   0  0  0  0  0  0  0  0  0  0  0  0
   41.7250   32.9760   38.3650 C   0  0  0  0  0  0  0  0  0  0  0  0
   40.4850   32.5090   38.5550 N   0  0  0  0  0  0  0  0  0  0  0  0
   39.3460   34.9420   40.4340 H   0  0  0  0  0  0  0  0  0  0  0  0
   41.6200   35.8410   40.1090 H   0  0  0  0  0  0  0  0  0  0  0  0
   43.1740   34.5410   38.7480 H   0  0  0  0  0  0  0  0  0  0  0  0
   42.5890   32.1390   37.5410 C   0  0  0  0  0  0  0  0  0  0  0  0
   42.1300   31.0600   36.8180 C   0  0  0  0  0  0  0  0  0  0  0  0
   41.1000   30.7850   36.8320 H   0  0  0  0  0  0  0  0  0  0  0  0
   42.9120   30.2440   36.0280 C   0  0  0  0  0  0  0  0  0  0  0  0
   42.5170   29.4030   35.4730 H   0  0  0  0  0  0  0  0  0  0  0  0
   44.2620   30.5080   35.9370 C   0  0  0  0  0  3  0  0  0  0  0  0
   44.7310   31.5860   36.6560 C   0  0  0  0  0  3  0  0  0  0  0  0
   43.9140   32.3420   37.4090 N   0  0  0  0  0  0  0  0  0  0  0  0
   36.1820   30.5940   41.0890 C   0  0  0  0  0  0  0  0  0  0  0  0
   36.2630   31.4940   41.7240 H   0  0  0  0  0  0  0  0  0  0  0  0
   35.1060   30.2690   41.0060 H   0  0  0  0  0  0  0  0  0  0  0  0
   37.3470   27.1870   42.2720 C   0  0  0  0  0  0  0  0  0  0  0  0
   36.5320   28.2020   41.7030 C   0  0  0  0  0  0  0  0  0  0  0  0
   36.9940   29.5040   41.6820 C   0  0  0  0  0  0  0  0  0  0  0  0
   38.2400   29.7220   42.2290 N   0  0  0  0  0  0  0  0  0  0  0  0
   38.9780   28.7070   42.7620 C   0  0  0  0  0  0  0  0  0  0  0  0
   38.5320   27.4540   42.7810 N   0  0  0  0  0  0  0  0  0  0  0  0
   35.5560   27.9890   41.2830 H   0  0  0  0  0  0  0  0  0  0  0  0
   39.9560   28.9500   43.1790 H   0  0  0  0  0  0  0  0  0  0  0  0
   36.8220   25.7840   42.2970 C   0  0  0  0  0  0  0  0  0  0  0  0
   37.0860   25.0590   40.9210 C   0  0  0  0  0  0  0  0  0  0  0  0
   37.6000   24.6160   42.2170 C   0  0  0  0  0  0  0  0  0  0  0  0
   35.7370   25.7700   42.5810 H   0  0  0  0  0  0  0  0  0  0  0  0
   36.1990   24.5370   40.5060 H   0  0  0  0  0  0  0  0  0  0  0  0
   37.6670   25.5980   40.1740 H   0  0  0  0  0  0  0  0  0  0  0  0
   38.7200   24.7040   42.3280 H   0  0  0  0  0  0  0  0  0  0  0  0
   37.2370   23.6650   42.6230 H   0  0  0  0  0  0  0  0  0  0  0  0
  1 25  1  0  0  0  0
  2  1  1  0  0  0  0
  3  1  1  0  0  0  0
  4  6  1  0  0  0  0
  4  5  2  0  0  0  0
  6  7  1  0  0  0  0
  6  1  1  0  0  0  0
  8  4  1  0  0  0  0
  8  9  1  0  0  0  0
  9 14  1  0  0  0  0
 10  9  2  0  0  0  0
 10 15  1  0  0  0  0
 11 10  1  0  0  0  0
 12 13  1  0  0  0  0
 12 11  2  0  0  0  0
 13  8  2  0  0  0  0
 16 11  1  0  0  0  0
 17 12  1  0  0  0  0
 18 19  1  0  0  0  0
 18 17  2  0  0  0  0
 20 18  1  0  0  0  0
 21 20  1  0  0  0  0
 22 20  2  0  0  0  0
 22 23  1  0  0  0  0
 23 24  2  0  0  0  0
 24 17  1  0  0  0  0
 25 30  1  0  0  0  0
 25 26  1  0  0  0  0
 27 25  1  0  0  0  0
 28 36  1  0  0  0  0
 28 33  1  0  0  0  0
 29 28  2  0  0  0  0
 30 29  1  0  0  0  0
 30 31  2  0  0  0  0
 31 32  1  0  0  0  0
 32 33  2  0  0  0  0
 32 35  1  0  0  0  0
 34 29  1  0  0  0  0
 36 39  1  0  0  0  0
 37 38  1  0  0  0  0
 37 36  1  0  0  0  0
 38 36  1  0  0  0  0
 38 42  1  0  0  0  0
 38 43  1  0  0  0  0
 40 37  1  0  0  0  0
 41 37  1  0  0  0  0
M  END
>  <minimizedAffinity>
-5.84954596

$$$$

 OpenBabel03242520233D

 43 46  0  0  0  0  0  0  0  0999 V2000
   36.3400   30.4290   41.2580 C   0  0  0  0  0  0  0  0  0  0  0  0
   35.2630   30.6020   41.4460 H   0  0  0  0  0  0  0  0  0  0  0  0
   36.8730   31.1790   41.8970 H   0  0  0  0  0  0  0  0  0  0  0  0
   37.8620   28.8880   42.3980 C   0  0  0  0  0  0  0  0  0  0  0  0
   38.4670   29.8210   43.0060 O   0  0  0  0  0  0  0  0  0  0  0  0
   36.7290   29.0730   41.5740 N   0  0  0  0  0  0  0  0  0  0  0  0
   36.1540   28.3100   41.1780 H   0  0  0  0  0  0  0  0  0  0  0  0
   38.3520   27.5010   42.5400 C   0  0  0  0  0  0  0  0  0  0  0  0
   39.3190   27.2150   43.4770 C   0  0  0  0  0  0  0  0  0  0  0  0
   39.8600   25.9720   43.7130 C   0  0  0  0  0  0  0  0  0  0  0  0
   39.3620   24.9320   42.9120 C   0  0  0  0  0  0  0  0  0  0  0  0
   38.4020   25.2510   41.9910 C   0  0  0  0  0  0  0  0  0  0  0  0
   37.9110   26.4830   41.8050 N   0  0  0  0  0  0  0  0  0  0  0  0
   39.6820   28.0450   44.0800 H   0  0  0  0  0  0  0  0  0  0  0  0
   40.6150   25.7930   44.4550 H   0  0  0  0  0  0  0  0  0  0  0  0
   39.7660   23.9650   43.0770 H   0  0  0  0  0  0  0  0  0  0  0  0
   37.8420   24.2180   41.1280 C   0  0  0  0  0  0  0  0  0  0  0  0
   36.5920   24.3080   40.5550 C   0  0  0  0  0  0  0  0  0  0  0  0
   35.9680   25.1560   40.7230 H   0  0  0  0  0  0  0  0  0  0  0  0
   36.0260   23.3560   39.7340 C   0  0  0  0  0  0  0  0  0  0  0  0
   35.0400   23.4590   39.3010 H   0  0  0  0  0  0  0  0  0  0  0  0
   36.7460   22.2140   39.4510 C   0  0  0  0  0  3  0  0  0  0  0  0
   37.9980   22.1160   40.0190 C   0  0  0  0  0  3  0  0  0  0  0  0
   38.4910   23.0820   40.8110 N   0  0  0  0  0  0  0  0  0  0  0  0
   36.6250   30.8100   39.8120 C   0  0  0  0  0  0  0  0  0  0  0  0
   36.9250   29.9290   39.2180 H   0  0  0  0  0  0  0  0  0  0  0  0
   35.6690   31.2490   39.4060 H   0  0  0  0  0  0  0  0  0  0  0  0
   39.9790   32.4960   39.2930 C   0  0  0  0  0  0  0  0  0  0  0  0
   38.9760   31.4910   39.3310 C   0  0  0  0  0  0  0  0  0  0  0  0
   37.7070   31.8230   39.7650 C   0  0  0  0  0  0  0  0  0  0  0  0
   37.5080   33.1360   40.1350 N   0  0  0  0  0  0  0  0  0  0  0  0
   38.5110   34.0580   40.0770 C   0  0  0  0  0  0  0  0  0  0  0  0
   39.7320   33.7370   39.6590 N   0  0  0  0  0  0  0  0  0  0  0  0
   39.1720   30.4680   39.0320 H   0  0  0  0  0  0  0  0  0  0  0  0
   38.2850   35.0800   40.3850 H   0  0  0  0  0  0  0  0  0  0  0  0
   41.3520   32.1120   38.8320 C   0  0  0  0  0  0  0  0  0  0  0  0
   41.4980   32.3050   37.2730 C   0  0  0  0  0  0  0  0  0  0  0  0
   42.3070   32.9860   38.2840 C   0  0  0  0  0  0  0  0  0  0  0  0
   41.6020   31.0670   39.1540 H   0  0  0  0  0  0  0  0  0  0  0  0
   41.9450   31.4350   36.7490 H   0  0  0  0  0  0  0  0  0  0  0  0
   40.6600   32.7550   36.7430 H   0  0  0  0  0  0  0  0  0  0  0  0
   42.1260   34.0980   38.3540 H   0  0  0  0  0  0  0  0  0  0  0  0
   43.3780   32.7580   38.3340 H   0  0  0  0  0  0  0  0  0  0  0  0
  1  2  1  0  0  0  0
  1  6  1  0  0  0  0
  1  3  1  0  0  0  0
  4  8  1  0  0  0  0
  4  5  2  0  0  0  0
  6  4  1  0  0  0  0
  7  6  1  0  0  0  0
  8  9  1  0  0  0  0
  9 10  2  0  0  0  0
  9 14  1  0  0  0  0
 10 15  1  0  0  0  0
 11 16  1  0  0  0  0
 11 10  1  0  0  0  0
 12 11  2  0  0  0  0
 13 12  1  0  0  0  0
 13  8  2  0  0  0  0
 17 12  1  0  0  0  0
 18 19  1  0  0  0  0
 18 17  2  0  0  0  0
 20 18  1  0  0  0  0
 21 20  1  0  0  0  0
 22 20  2  0  0  0  0
 22 23  1  0  0  0  0
 23 24  2  0  0  0  0
 24 17  1  0  0  0  0
 25  1  1  0  0  0  0
 26 25  1  0  0  0  0
 27 25  1  0  0  0  0
 28 29  2  0  0  0  0
 28 33  1  0  0  0  0
 29 30  1  0  0  0  0
 30 25  1  0  0  0  0
 30 31  2  0  0  0  0
 32 31  1  0  0  0  0
 32 35  1  0  0  0  0
 33 32  2  0  0  0  0
 34 29  1  0  0  0  0
 36 39  1  0  0  0  0
 36 28  1  0  0  0  0
 37 38  1  0  0  0  0
 37 36  1  0  0  0  0
 38 43  1  0  0  0  0
 38 42  1  0  0  0  0
 38 36  1  0  0  0  0
 40 37  1  0  0  0  0
 41 37  1  0  0  0  0
M  END
>  <minimizedAffinity>
-5.7450242

$$$$

 OpenBabel03242520233D

 43 46  0  0  0  0  0  0  0  0999 V2000
   39.0400   34.0490   40.4450 C   0  0  0  0  0  0  0  0  0  0  0  0
   39.0940   34.9840   41.0350 H   0  0  0  0  0  0  0  0  0  0  0  0
   39.7770   34.1860   39.6120 H   0  0  0  0  0  0  0  0  0  0  0  0
   40.5900   32.2560   41.0570 C   0  0  0  0  0  0  0  0  0  0  0  0
   41.5270   32.7250   40.3440 O   0  0  0  0  0  0  0  0  0  0  0  0
   39.3410   32.8870   41.2500 N   0  0  0  0  0  0  0  0  0  0  0  0
   38.6200   32.5800   41.9270 H   0  0  0  0  0  0  0  0  0  0  0  0
   40.7860   30.9630   41.7450 C   0  0  0  0  0  0  0  0  0  0  0  0
   41.9980   30.6900   42.3410 C   0  0  0  0  0  0  0  0  0  0  0  0
   42.3130   29.5310   43.0130 C   0  0  0  0  0  0  0  0  0  0  0  0
   41.2920   28.5690   43.0750 C   0  0  0  0  0  0  0  0  0  0  0  0
   40.1030   28.8740   42.4720 C   0  0  0  0  0  0  0  0  0  0  0  0
   39.8510   30.0210   41.8300 N   0  0  0  0  0  0  0  0  0  0  0  0
   42.7650   31.4580   42.2740 H   0  0  0  0  0  0  0  0  0  0  0  0
   43.2710   29.3580   43.4640 H   0  0  0  0  0  0  0  0  0  0  0  0
   41.5140   27.6670   43.5880 H   0  0  0  0  0  0  0  0  0  0  0  0
   39.0010   27.9190   42.5000 C   0  0  0  0  0  0  0  0  0  0  0  0
   37.8200   28.1470   43.1740 C   0  0  0  0  0  0  0  0  0  0  0  0
   37.6600   29.0510   43.7160 H   0  0  0  0  0  0  0  0  0  0  0  0
   36.7560   27.2720   43.2260 C   0  0  0  0  0  0  0  0  0  0  0  0
   35.8430   27.4830   43.7660 H   0  0  0  0  0  0  0  0  0  0  0  0
   36.8550   26.0690   42.5600 C   0  0  0  0  0  3  0  0  0  0  0  0
   38.0320   25.8330   41.8830 C   0  0  0  0  0  3  0  0  0  0  0  0
   39.0330   26.7280   41.8720 N   0  0  0  0  0  0  0  0  0  0  0  0
   37.6630   33.9890   39.7990 C   0  0  0  0  0  0  0  0  0  0  0  0
   36.9120   34.5230   40.4080 H   0  0  0  0  0  0  0  0  0  0  0  0
   37.7650   34.4760   38.7880 H   0  0  0  0  0  0  0  0  0  0  0  0
   36.9870   30.5640   38.3240 C   0  0  0  0  0  0  0  0  0  0  0  0
   37.3910   31.9210   38.4300 C   0  0  0  0  0  0  0  0  0  0  0  0
   37.2460   32.5750   39.6390 C   0  0  0  0  0  0  0  0  0  0  0  0
   36.7070   31.8400   40.6740 N   0  0  0  0  0  0  0  0  0  0  0  0
   36.3370   30.5370   40.5130 C   0  0  0  0  0  0  0  0  0  0  0  0
   36.4770   29.9100   39.3480 N   0  0  0  0  0  0  0  0  0  0  0  0
   37.8100   32.4650   37.5920 H   0  0  0  0  0  0  0  0  0  0  0  0
   35.9170   30.0150   41.3730 H   0  0  0  0  0  0  0  0  0  0  0  0
   37.1400   29.8770   37.0020 C   0  0  0  0  0  0  0  0  0  0  0  0
   38.4040   28.9320   37.0010 C   0  0  0  0  0  0  0  0  0  0  0  0
   37.0260   28.4940   36.7770 C   0  0  0  0  0  0  0  0  0  0  0  0
   37.1720   30.6250   36.1660 H   0  0  0  0  0  0  0  0  0  0  0  0
   39.0610   29.0550   36.1150 H   0  0  0  0  0  0  0  0  0  0  0  0
   38.9470   28.8200   37.9380 H   0  0  0  0  0  0  0  0  0  0  0  0
   36.6050   27.8460   37.6000 H   0  0  0  0  0  0  0  0  0  0  0  0
   36.7580   28.1010   35.7900 H   0  0  0  0  0  0  0  0  0  0  0  0
  1  2  1  0  0  0  0
  1  6  1  0  0  0  0
  3  1  1  0  0  0  0
  4  6  1  0  0  0  0
  4  8  1  0  0  0  0
  5  4  2  0  0  0  0
  6  7  1  0  0  0  0
  8 13  2  0  0  0  0
  8  9  1  0  0  0  0
  9 10  2  0  0  0  0
 10 11  1  0  0  0  0
 10 15  1  0  0  0  0
 11 16  1  0  0  0  0
 12 17  1  0  0  0  0
 12 11  2  0  0  0  0
 13 12  1  0  0  0  0
 14  9  1  0  0  0  0
 17 18  1  0  0  0  0
 18 20  2  0  0  0  0
 18 19  1  0  0  0  0
 20 21  1  0  0  0  0
 22 20  1  0  0  0  0
 23 22  2  0  0  0  0
 24 23  1  0  0  0  0
 24 17  2  0  0  0  0
 25 26  1  0  0  0  0
 25  1  1  0  0  0  0
 27 25  1  0  0  0  0
 28 29  2  0  0  0  0
 28 33  1  0  0  0  0
 29 30  1  0  0  0  0
 30 25  1  0  0  0  0
 30 31  2  0  0  0  0
 32 31  1  0  0  0  0
 32 35  1  0  0  0  0
 33 32  2  0  0  0  0
 34 29  1  0  0  0  0
 36 28  1  0  0  0  0
 37 36  1  0  0  0  0
 37 41  1  0  0  0  0
 38 37  1  0  0  0  0
 38 36  1  0  0  0  0
 38 42  1  0  0  0  0
 39 36  1  0  0  0  0
 40 37  1  0  0  0  0
 43 38  1  0  0  0  0
M  END
>  <minimizedAffinity>
-5.71116304

$$$$

 OpenBabel03242520233D

 43 46  0  0  0  0  0  0  0  0999 V2000
   41.3960   28.3240   43.1250 C   0  0  0  0  0  0  0  0  0  0  0  0
   42.3340   27.9940   42.6380 H   0  0  0  0  0  0  0  0  0  0  0  0
   41.7230   28.9750   43.9770 H   0  0  0  0  0  0  0  0  0  0  0  0
   40.5030   30.4380   42.2740 C   0  0  0  0  0  0  0  0  0  0  0  0
   41.2960   31.1370   42.9740 O   0  0  0  0  0  0  0  0  0  0  0  0
   40.5310   29.0270   42.2050 N   0  0  0  0  0  0  0  0  0  0  0  0
   39.9770   28.4540   41.5440 H   0  0  0  0  0  0  0  0  0  0  0  0
   39.4690   31.1140   41.4640 C   0  0  0  0  0  0  0  0  0  0  0  0
   39.5350   32.4780   41.2810 C   0  0  0  0  0  0  0  0  0  0  0  0
   38.6420   33.2300   40.5530 C   0  0  0  0  0  0  0  0  0  0  0  0
   37.5870   32.5160   39.9620 C   0  0  0  0  0  0  0  0  0  0  0  0
   37.5520   31.1630   40.1650 C   0  0  0  0  0  0  0  0  0  0  0  0
   38.4520   30.4820   40.8860 N   0  0  0  0  0  0  0  0  0  0  0  0
   40.3660   32.9990   41.7530 H   0  0  0  0  0  0  0  0  0  0  0  0
   38.7310   34.2930   40.4360 H   0  0  0  0  0  0  0  0  0  0  0  0
   36.8870   33.0770   39.3970 H   0  0  0  0  0  0  0  0  0  0  0  0
   36.4840   30.3620   39.5790 C   0  0  0  0  0  0  0  0  0  0  0  0
   35.5010   29.7500   40.3270 C   0  0  0  0  0  0  0  0  0  0  0  0
   35.4810   29.8390   41.3890 H   0  0  0  0  0  0  0  0  0  0  0  0
   34.4760   28.9850   39.8130 C   0  0  0  0  0  0  0  0  0  0  0  0
   33.7200   28.5180   40.4310 H   0  0  0  0  0  0  0  0  0  0  0  0
   34.4060   28.8020   38.4490 C   0  0  0  0  0  3  0  0  0  0  0  0
   35.3840   29.4110   37.6930 C   0  0  0  0  0  3  0  0  0  0  0  0
   36.3580   30.1450   38.2570 N   0  0  0  0  0  0  0  0  0  0  0  0
   40.7390   27.0980   43.7440 C   0  0  0  0  0  0  0  0  0  0  0  0
   41.2240   26.1670   43.3990 H   0  0  0  0  0  0  0  0  0  0  0  0
   40.8530   27.2070   44.8610 H   0  0  0  0  0  0  0  0  0  0  0  0
   37.4140   26.0810   42.2380 C   0  0  0  0  0  0  0  0  0  0  0  0
   38.8000   26.0830   42.5490 C   0  0  0  0  0  0  0  0  0  0  0  0
   39.3020   27.0630   43.3830 C   0  0  0  0  0  0  0  0  0  0  0  0
   38.3960   27.9870   43.8600 N   0  0  0  0  0  0  0  0  0  0  0  0
   37.0750   27.9350   43.5260 C   0  0  0  0  0  0  0  0  0  0  0  0
   36.5930   26.9910   42.7230 N   0  0  0  0  0  0  0  0  0  0  0  0
   39.4800   25.3380   42.1530 H   0  0  0  0  0  0  0  0  0  0  0  0
   36.4130   28.6980   43.9380 H   0  0  0  0  0  0  0  0  0  0  0  0
   36.8920   25.0180   41.3210 C   0  0  0  0  0  0  0  0  0  0  0  0
   36.6610   25.5900   39.8680 C   0  0  0  0  0  0  0  0  0  0  0  0
   37.5660   24.4920   40.2060 C   0  0  0  0  0  0  0  0  0  0  0  0
   35.9630   24.5500   41.7430 H   0  0  0  0  0  0  0  0  0  0  0  0
   35.6730   25.3340   39.4320 H   0  0  0  0  0  0  0  0  0  0  0  0
   36.9730   26.6160   39.6780 H   0  0  0  0  0  0  0  0  0  0  0  0
   38.6610   24.7340   40.0730 H   0  0  0  0  0  0  0  0  0  0  0  0
   37.3360   23.4910   39.8250 H   0  0  0  0  0  0  0  0  0  0  0  0
  1 25  1  0  0  0  0
  1  3  1  0  0  0  0
  2  1  1  0  0  0  0
  4  5  2  0  0  0  0
  6  4  1  0  0  0  0
  6  1  1  0  0  0  0
  7  6  1  0  0  0  0
  8  4  1  0  0  0  0
  9  8  1  0  0  0  0
  9 14  1  0  0  0  0
 10  9  2  0  0  0  0
 11 12  2  0  0  0  0
 11 10  1  0  0  0  0
 12 13  1  0  0  0  0
 13  8  2  0  0  0  0
 15 10  1  0  0  0  0
 16 11  1  0  0  0  0
 17 12  1  0  0  0  0
 17 18  1  0  0  0  0
 18 19  1  0  0  0  0
 20 18  2  0  0  0  0
 20 21  1  0  0  0  0
 22 20  1  0  0  0  0
 23 24  1  0  0  0  0
 23 22  2  0  0  0  0
 24 17  2  0  0  0  0
 25 27  1  0  0  0  0
 26 25  1  0  0  0  0
 28 29  2  0  0  0  0
 28 33  1  0  0  0  0
 29 30  1  0  0  0  0
 30 25  1  0  0  0  0
 30 31  2  0  0  0  0
 32 31  1  0  0  0  0
 32 35  1  0  0  0  0
 33 32  2  0  0  0  0
 34 29  1  0  0  0  0
 36 39  1  0  0  0  0
 36 28  1  0  0  0  0
 37 38  1  0  0  0  0
 37 36  1  0  0  0  0
 38 36  1  0  0  0  0
 40 37  1  0  0  0  0
 41 37  1  0  0  0  0
 42 38  1  0  0  0  0
 43 38  1  0  0  0  0
M  END
>  <minimizedAffinity>
-5.67915964

$$$$

 OpenBabel03242520233D

 43 46  0  0  0  0  0  0  0  0999 V2000
   36.9290   31.5170   39.7000 C   0  0  0  0  0  0  0  0  0  0  0  0
   36.9490   31.3950   40.8000 H   0  0  0  0  0  0  0  0  0  0  0  0
   36.2150   32.3590   39.5110 H   0  0  0  0  0  0  0  0  0  0  0  0
   39.0720   32.6840   39.8800 C   0  0  0  0  0  0  0  0  0  0  0  0
   38.8080   33.1410   41.0320 O   0  0  0  0  0  0  0  0  0  0  0  0
   38.2440   31.7900   39.1650 N   0  0  0  0  0  0  0  0  0  0  0  0
   38.5060   31.3120   38.2850 H   0  0  0  0  0  0  0  0  0  0  0  0
   40.3240   33.0960   39.2100 C   0  0  0  0  0  0  0  0  0  0  0  0
   40.7710   34.3920   39.3460 C   0  0  0  0  0  0  0  0  0  0  0  0
   41.9150   34.9050   38.7800 C   0  0  0  0  0  0  0  0  0  0  0  0
   42.6650   34.0060   38.0050 C   0  0  0  0  0  0  0  0  0  0  0  0
   42.1910   32.7270   37.8920 C   0  0  0  0  0  0  0  0  0  0  0  0
   41.0680   32.2820   38.4670 N   0  0  0  0  0  0  0  0  0  0  0  0
   40.1650   35.0610   39.9540 H   0  0  0  0  0  0  0  0  0  0  0  0
   42.2270   35.9230   38.9110 H   0  0  0  0  0  0  0  0  0  0  0  0
   43.5510   34.3810   37.5590 H   0  0  0  0  0  0  0  0  0  0  0  0
   42.9220   31.7430   37.1020 C   0  0  0  0  0  0  0  0  0  0  0  0
   44.2890   31.7720   36.9340 C   0  0  0  0  0  0  0  0  0  0  0  0
   44.8840   32.5340   37.3840 H   0  0  0  0  0  0  0  0  0  0  0  0
   45.0170   30.8630   36.1970 C   0  0  0  0  0  0  0  0  0  0  0  0
   46.0920   30.9160   36.0850 H   0  0  0  0  0  0  0  0  0  0  0  0
   44.3480   29.8340   35.5680 C   0  0  0  0  0  3  0  0  0  0  0  0
   42.9800   29.7950   35.7310 C   0  0  0  0  0  3  0  0  0  0  0  0
   42.3300   30.7150   36.4640 N   0  0  0  0  0  0  0  0  0  0  0  0
   36.2910   30.2670   39.1070 C   0  0  0  0  0  0  0  0  0  0  0  0
   35.2170   30.2090   39.3590 H   0  0  0  0  0  0  0  0  0  0  0  0
   36.4280   30.3400   37.9910 H   0  0  0  0  0  0  0  0  0  0  0  0
   37.3720   27.3940   41.3290 C   0  0  0  0  0  0  0  0  0  0  0  0
   36.6950   28.5590   40.8790 C   0  0  0  0  0  0  0  0  0  0  0  0
   36.9800   29.0600   39.6230 C   0  0  0  0  0  0  0  0  0  0  0  0
   37.9220   28.3740   38.8870 N   0  0  0  0  0  0  0  0  0  0  0  0
   38.5400   27.2590   39.3730 C   0  0  0  0  0  0  0  0  0  0  0  0
   38.2650   26.7780   40.5820 N   0  0  0  0  0  0  0  0  0  0  0  0
   35.9600   29.0710   41.4890 H   0  0  0  0  0  0  0  0  0  0  0  0
   39.2760   26.7650   38.7370 H   0  0  0  0  0  0  0  0  0  0  0  0
   37.0590   26.8740   42.6990 C   0  0  0  0  0  0  0  0  0  0  0  0
   38.1110   27.3950   43.7530 C   0  0  0  0  0  0  0  0  0  0  0  0
   36.6720   27.6520   43.8040 C   0  0  0  0  0  0  0  0  0  0  0  0
   36.9860   25.7540   42.6920 H   0  0  0  0  0  0  0  0  0  0  0  0
   38.5210   26.6020   44.4140 H   0  0  0  0  0  0  0  0  0  0  0  0
   38.8580   28.1070   43.4060 H   0  0  0  0  0  0  0  0  0  0  0  0
   36.3860   28.7310   43.6310 H   0  0  0  0  0  0  0  0  0  0  0  0
   36.0940   27.2190   44.6270 H   0  0  0  0  0  0  0  0  0  0  0  0
  1  2  1  0  0  0  0
  3  1  1  0  0  0  0
  4  5  2  0  0  0  0
  6  1  1  0  0  0  0
  6  4  1  0  0  0  0
  7  6  1  0  0  0  0
  8  9  1  0  0  0  0
  8  4  1  0  0  0  0
  9 14  1  0  0  0  0
 10 15  1  0  0  0  0
 10  9  2  0  0  0  0
 11 10  1  0  0  0  0
 12 11  2  0  0  0  0
 12 13  1  0  0  0  0
 13  8  2  0  0  0  0
 16 11  1  0  0  0  0
 17 12  1  0  0  0  0
 18 17  1  0  0  0  0
 18 19  1  0  0  0  0
 20 18  2  0  0  0  0
 21 20  1  0  0  0  0
 22 23  2  0  0  0  0
 22 20  1  0  0  0  0
 23 24  1  0  0  0  0
 24 17  2  0  0  0  0
 25 26  1  0  0  0  0
 25 30  1  0  0  0  0
 25  1  1  0  0  0  0
 27 25  1  0  0  0  0
 28 36  1  0  0  0  0
 29 28  1  0  0  0  0
 29 34  1  0  0  0  0
 30 29  2  0  0  0  0
 31 32  2  0  0  0  0
 31 30  1  0  0  0  0
 32 33  1  0  0  0  0
 33 28  2  0  0  0  0
 35 32  1  0  0  0  0
 36 37  1  0  0  0  0
 36 38  1  0  0  0  0
 37 38  1  0  0  0  0
 37 40  1  0  0  0  0
 38 43  1  0  0  0  0
 39 36  1  0  0  0  0
 41 37  1  0  0  0  0
 42 38  1  0  0  0  0
M  END
>  <minimizedAffinity>
-5.54257917

$$$$
