
 OpenBabel03242510093D

 27 29  0  0  0  0  0  0  0  0999 V2000
   44.8210   32.9900   41.1790 Br  0  0  0  0  0  0  0  0  0  0  0  0
   46.4660   33.9640   40.9390 C   0  0  0  0  0  0  0  0  0  0  0  0
   46.9300   34.7710   41.9470 C   0  0  0  0  0  0  0  0  0  0  0  0
   48.1200   35.4840   41.7920 C   0  0  0  0  0  0  0  0  0  0  0  0
   48.8010   35.3510   40.6080 C   0  0  0  0  0  0  0  0  0  0  0  0
   48.2930   34.5320   39.6320 C   0  0  0  0  0  0  0  0  0  0  0  0
   47.1490   33.8280   39.7450 C   0  0  0  0  0  0  0  0  0  0  0  0
   48.4900   36.1180   42.5790 H   0  0  0  0  0  0  0  0  0  0  0  0
   49.7310   35.8970   40.4620 H   0  0  0  0  0  0  0  0  0  0  0  0
   48.8730   34.4660   38.7210 H   0  0  0  0  0  0  0  0  0  0  0  0
   45.6510   34.0280   45.2900 C   0  0  0  0  0  0  0  0  0  0  0  0
   44.7100   35.0680   45.5140 C   0  0  0  0  0  0  0  0  0  0  0  0
   44.5380   36.0100   44.4970 C   0  0  0  0  0  0  0  0  0  0  0  0
   45.2680   35.8850   43.3620 N   0  0  0  0  0  0  0  0  0  0  0  0
   46.1640   34.8710   43.1800 C   0  0  0  0  0  0  0  0  0  0  0  0
   46.3440   33.9530   44.1520 N   0  0  0  0  0  0  0  0  0  0  0  0
   45.8080   33.2820   46.0570 H   0  0  0  0  0  0  0  0  0  0  0  0
   44.1450   35.1330   46.4380 H   0  0  0  0  0  0  0  0  0  0  0  0
   43.8440   36.8260   44.5970 H   0  0  0  0  0  0  0  0  0  0  0  0
   46.5970   32.9590   38.7290 C   0  0  0  0  0  0  0  0  0  0  0  0
   46.9660   31.6420   38.5880 C   0  0  0  0  0  0  0  0  0  0  0  0
   47.6990   31.2020   39.2470 H   0  0  0  0  0  0  0  0  0  0  0  0
   46.4390   30.7990   37.6110 C   0  0  0  0  0  0  0  0  0  0  0  0
   46.7050   29.7700   37.4740 H   0  0  0  0  0  0  0  0  0  0  0  0
   45.4970   31.3030   36.7350 C   0  0  0  0  0  3  0  0  0  0  0  0
   45.1330   32.6220   36.8850 C   0  0  0  0  0  3  0  0  0  0  0  0
   45.6850   33.3780   37.8520 N   0  0  0  0  0  0  0  0  0  0  0  0
  2  1  1  0  0  0  0
  2  3  1  0  0  0  0
  3 15  1  0  0  0  0
  4  3  2  0  0  0  0
  4  8  1  0  0  0  0
  5  4  1  0  0  0  0
  6  7  1  0  0  0  0
  6  5  2  0  0  0  0
  7  2  2  0  0  0  0
  9  5  1  0  0  0  0
 10  6  1  0  0  0  0
 11 12  1  0  0  0  0
 11 17  1  0  0  0  0
 12 18  1  0  0  0  0
 13 19  1  0  0  0  0
 13 12  2  0  0  0  0
 14 13  1  0  0  0  0
 15 14  2  0  0  0  0
 15 16  1  0  0  0  0
 16 11  2  0  0  0  0
 20  7  1  0  0  0  0
 21 20  1  0  0  0  0
 21 22  1  0  0  0  0
 23 21  2  0  0  0  0
 24 23  1  0  0  0  0
 25 26  2  0  0  0  0
 25 23  1  0  0  0  0
 26 27  1  0  0  0  0
 27 20  2  0  0  0  0
M  END
>  <minimizedAffinity>
-5.40127277

>  <minimizedRMSD>
0.277409434

$$$$
