
     RDKit          3D

 29 31  0  0  0  0  0  0  0  0999 V2000
   45.6048   34.0331   45.3378 C   0  0  0  0  0  0  0  0  0  0  0  0
   44.6982   35.0989   45.5830 C   0  0  0  0  0  0  0  0  0  0  0  0
   44.5283   36.0454   44.5687 C   0  0  0  0  0  0  0  0  0  0  0  0
   45.2281   35.8997   43.4182 N   0  0  0  0  0  0  0  0  0  0  0  0
   46.0923   34.8616   43.2159 C   0  0  0  0  0  0  0  0  0  0  0  0
   46.2687   33.9388   44.1839 N   0  0  0  0  0  0  0  0  0  0  0  0
   44.5793   33.1391   41.1939 Br  0  0  0  0  0  0  0  0  0  0  0  0
   46.2865   33.9974   40.9455 C   0  0  0  0  0  0  0  0  0  0  0  0
   46.8256   34.7400   41.9661 C   0  0  0  0  0  0  0  0  0  0  0  0
   48.0608   35.3691   41.8053 C   0  0  0  0  0  0  0  0  0  0  0  0
   48.7086   35.2200   40.6045 C   0  0  0  0  0  0  0  0  0  0  0  0
   48.1254   34.4670   39.6177 C   0  0  0  0  0  0  0  0  0  0  0  0
   46.9353   33.8450   39.7356 C   0  0  0  0  0  0  0  0  0  0  0  0
   45.7587   33.2844   46.1025 H   0  0  0  0  0  0  0  0  0  0  0  0
   44.1566   35.1788   46.5201 H   0  0  0  0  0  0  0  0  0  0  0  0
   43.8586   36.8785   44.6848 H   0  0  0  0  0  0  0  0  0  0  0  0
   48.4908   35.9535   42.6011 H   0  0  0  0  0  0  0  0  0  0  0  0
   49.6737   35.7012   40.4547 H   0  0  0  0  0  0  0  0  0  0  0  0
   48.6819   34.3854   38.6943 H   0  0  0  0  0  0  0  0  0  0  0  0
   46.3035   33.0472   38.7087 C   0  0  0  0  0  0  0  0  0  0  0  0
   47.0128   32.3375   37.7687 C   0  0  0  0  0  0  0  0  0  0  0  0
   48.0918   32.3523   37.7655 H   0  0  0  0  0  0  0  0  0  0  0  0
   46.4101   31.5656   36.7751 C   0  0  0  0  0  0  0  0  0  0  0  0
   46.9327   31.0019   36.0293 H   0  0  0  0  0  0  0  0  0  0  0  0
   45.0310   31.5053   36.7253 C   0  0  0  0  0  0  0  0  0  0  0  0
   44.3294   32.2194   37.6707 C   0  0  0  0  0  0  0  0  0  0  0  0
   44.9785   32.9431   38.6005 N   0  0  0  0  0  0  0  0  0  0  0  0
   44.4125   30.9533   36.0185 H   0  0  0  0  0  0  0  0  0  0  0  0
   43.2374   32.2907   37.7865 H   0  0  0  0  0  0  0  0  0  0  0  0
  1  2  2  0
  3  2  1  0
  4  3  2  0
  5  4  1  0
  5  6  2  0
  6  1  1  0
  8  7  1  0
  8  9  2  0
  9  5  1  0
 10  9  1  0
 11 10  2  0
 12 13  2  0
 12 11  1  0
 13  8  1  0
  1 14  1  0
  2 15  1  0
  3 16  1  0
 10 17  1  0
 11 18  1  0
 12 19  1  0
 20 21  2  0
 21 22  1  0
 21 23  1  0
 23 24  1  0
 23 25  2  0
 25 26  1  0
 26 27  2  0
 27 20  1  0
 25 28  1  0
 26 29  1  0
 13 20  1  0
M  ISO  8  14  14  15  14  16  14  17  14  18  14  19  14  22  15  24  16
M  END
>  <DihAtoms>  (1) 
11,12,19,20

>  <DihDeg>  (1) 
0.017846179726662074

$$$$
