
 OpenBabel03252508493D

 27 29  0  0  0  0  0  0  0  0999 V2000
   45.9780   34.1660   41.0450 C   0  0  0  0  0  0  0  0  0  0  0  0
   46.5490   34.8030   42.1420 C   0  0  0  0  0  0  0  0  0  0  0  0
   47.8840   35.1920   42.0020 C   0  0  0  0  0  0  0  0  0  0  0  0
   48.5390   34.9390   40.8420 N   0  0  0  0  0  0  0  0  0  0  0  0
   47.9330   34.3170   39.8110 C   0  0  0  0  0  0  0  0  0  0  0  0
   46.6490   33.9280   39.9100 N   0  0  0  0  0  0  0  0  0  0  0  0
   48.3500   35.6880   42.8370 H   0  0  0  0  0  0  0  0  0  0  0  0
   48.5250   34.1540   38.9200 H   0  0  0  0  0  0  0  0  0  0  0  0
   45.7690   35.0330   43.3400 C   0  0  0  0  0  0  0  0  0  0  0  0
   45.0650   36.2170   43.5580 C   0  0  0  0  0  0  0  0  0  0  0  0
   44.4800   36.0170   44.7880 C   0  0  0  0  0  0  0  0  0  0  0  0
   44.8060   34.7940   45.2870 N   0  0  0  0  0  0  0  0  0  0  0  0
   45.5840   34.2360   44.3820 N   0  0  0  0  0  0  0  0  0  0  0  0
   44.9440   37.1210   42.9740 H   0  0  0  0  0  0  0  0  0  0  0  0
   43.8330   36.6750   45.3710 H   0  0  0  0  0  0  0  0  0  0  0  0
   44.5400   34.3270   46.1810 H   0  0  0  0  0  0  0  0  0  0  0  0
   44.6570   33.7620   41.1410 O   0  0  0  0  0  0  0  0  0  0  0  0
   43.5590   34.3890   40.6300 C   0  0  0  0  0  0  0  0  0  0  0  0
   43.3460   35.6490   40.5500 O   0  0  0  0  0  0  0  0  0  0  0  0
   42.3890   33.6530   40.0670 C   0  0  0  0  0  0  0  0  0  0  0  0
   42.2130   33.5190   38.7100 C   0  0  0  0  0  0  0  0  0  0  0  0
   42.9050   33.9320   37.9900 H   0  0  0  0  0  0  0  0  0  0  0  0
   41.1430   32.8480   38.1260 C   0  0  0  0  0  0  0  0  0  0  0  0
   41.0320   32.7590   37.0590 H   0  0  0  0  0  0  0  0  0  0  0  0
   40.2000   32.2820   38.9540 C   0  0  0  0  0  3  0  0  0  0  0  0
   40.4040   32.4330   40.3050 C   0  0  0  0  0  3  0  0  0  0  0  0
   41.4480   33.0860   40.8030 N   0  0  0  0  0  0  0  0  0  0  0  0
  1 17  1  0  0  0  0
  1  2  1  0  0  0  0
  2  9  1  0  0  0  0
  3  2  2  0  0  0  0
  3  7  1  0  0  0  0
  4  3  1  0  0  0  0
  5  6  1  0  0  0  0
  5  4  2  0  0  0  0
  6  1  2  0  0  0  0
  8  5  1  0  0  0  0
  9 10  1  0  0  0  0
  9 13  2  0  0  0  0
 10 11  2  0  0  0  0
 11 12  1  0  0  0  0
 11 15  1  0  0  0  0
 12 16  1  0  0  0  0
 13 12  1  0  0  0  0
 14 10  1  0  0  0  0
 18 17  1  0  0  0  0
 19 18  2  0  0  0  0
 20 18  1  0  0  0  0
 20 27  1  0  0  0  0
 21 20  2  0  0  0  0
 22 21  1  0  0  0  0
 23 21  1  0  0  0  0
 23 25  2  0  0  0  0
 24 23  1  0  0  0  0
 25 26  1  0  0  0  0
 26 27  2  0  0  0  0
M  END
>  <minimizedAffinity>
-5.23910046

>  <minimizedRMSD>
0.652063131

$$$$
