
 OpenBabel03252508493D

 27 29  0  0  0  0  0  0  0  0999 V2000
   45.8850   34.2390   41.0440 C   0  0  0  0  0  0  0  0  0  0  0  0
   46.4970   34.7930   42.1630 C   0  0  0  0  0  0  0  0  0  0  0  0
   47.8610   35.0780   42.0400 C   0  0  0  0  0  0  0  0  0  0  0  0
   48.5000   34.8130   40.8750 N   0  0  0  0  0  0  0  0  0  0  0  0
   47.8530   34.2750   39.8220 C   0  0  0  0  0  0  0  0  0  0  0  0
   46.5410   33.9860   39.9030 N   0  0  0  0  0  0  0  0  0  0  0  0
   48.3590   35.5080   42.8930 H   0  0  0  0  0  0  0  0  0  0  0  0
   48.4360   34.0930   38.9280 H   0  0  0  0  0  0  0  0  0  0  0  0
   45.7320   35.0450   43.3650 C   0  0  0  0  0  0  0  0  0  0  0  0
   45.1140   36.2700   43.6150 C   0  0  0  0  0  0  0  0  0  0  0  0
   44.5110   36.0790   44.8370 C   0  0  0  0  0  0  0  0  0  0  0  0
   44.7450   34.8220   45.3020 N   0  0  0  0  0  0  0  0  0  0  0  0
   45.4840   34.2340   44.3830 N   0  0  0  0  0  0  0  0  0  0  0  0
   45.0620   37.1970   43.0570 H   0  0  0  0  0  0  0  0  0  0  0  0
   43.9110   36.7660   45.4370 H   0  0  0  0  0  0  0  0  0  0  0  0
   44.4410   34.3500   46.1810 H   0  0  0  0  0  0  0  0  0  0  0  0
   44.5350   33.9400   41.1210 O   0  0  0  0  0  0  0  0  0  0  0  0
   43.4920   34.6890   40.6660 C   0  0  0  0  0  0  0  0  0  0  0  0
   43.2400   35.9180   40.9270 O   0  0  0  0  0  0  0  0  0  0  0  0
   42.4380   34.1520   39.7540 C   0  0  0  0  0  0  0  0  0  0  0  0
   41.5590   34.9880   39.1060 C   0  0  0  0  0  0  0  0  0  0  0  0
   41.5870   36.0620   39.2190 H   0  0  0  0  0  0  0  0  0  0  0  0
   40.5570   34.5470   38.2470 C   0  0  0  0  0  0  0  0  0  0  0  0
   39.8820   35.2250   37.7530 H   0  0  0  0  0  0  0  0  0  0  0  0
   40.4340   33.1920   38.0310 C   0  0  0  0  0  3  0  0  0  0  0  0
   41.3260   32.3840   38.6940 C   0  0  0  0  0  3  0  0  0  0  0  0
   42.2640   32.8670   39.5030 N   0  0  0  0  0  0  0  0  0  0  0  0
  1 17  1  0  0  0  0
  1  2  1  0  0  0  0
  2  9  1  0  0  0  0
  3  2  2  0  0  0  0
  3  7  1  0  0  0  0
  4  3  1  0  0  0  0
  5  6  1  0  0  0  0
  5  4  2  0  0  0  0
  6  1  2  0  0  0  0
  8  5  1  0  0  0  0
  9 10  1  0  0  0  0
  9 13  2  0  0  0  0
 10 11  2  0  0  0  0
 11 12  1  0  0  0  0
 11 15  1  0  0  0  0
 12 16  1  0  0  0  0
 13 12  1  0  0  0  0
 14 10  1  0  0  0  0
 18 19  2  0  0  0  0
 18 17  1  0  0  0  0
 20 18  1  0  0  0  0
 21 22  1  0  0  0  0
 21 20  2  0  0  0  0
 23 21  1  0  0  0  0
 24 23  1  0  0  0  0
 25 23  2  0  0  0  0
 25 26  1  0  0  0  0
 26 27  2  0  0  0  0
 27 20  1  0  0  0  0
M  END
>  <minimizedAffinity>
-5.44620514

>  <minimizedRMSD>
0.829993665

$$$$
