
 OpenBabel03242512353D

 19 20  0  0  0  0  0  0  0  0999 V2000
   35.8200   29.4760   40.3750 C   0  0  0  0  0  0  0  0  0  0  0  0
   34.5990   29.1450   40.3850 O   0  0  0  0  0  0  0  0  0  0  0  0
   36.4730   30.3430   39.4380 C   0  0  0  0  0  0  0  0  0  0  0  0
   36.8350   29.7510   38.2310 C   0  0  0  0  0  0  0  0  0  0  0  0
   37.4800   30.5800   37.2900 C   0  0  0  0  0  0  0  0  0  0  0  0
   37.7010   31.8890   37.6240 N   0  0  0  0  0  0  0  0  0  0  0  0
   37.3270   32.3990   38.8060 C   0  0  0  0  0  0  0  0  0  0  0  0
   36.7110   31.6230   39.7170 N   0  0  0  0  0  0  0  0  0  0  0  0
   36.6520   28.7270   37.9920 H   0  0  0  0  0  0  0  0  0  0  0  0
   37.7880   30.1780   36.3260 H   0  0  0  0  0  0  0  0  0  0  0  0
   37.5690   33.4470   38.9260 H   0  0  0  0  0  0  0  0  0  0  0  0
   36.6270   28.8830   41.4670 C   0  0  0  0  0  0  0  0  0  0  0  0
   36.6630   27.5020   41.6040 C   0  0  0  0  0  0  0  0  0  0  0  0
   36.1160   26.8210   40.9330 H   0  0  0  0  0  0  0  0  0  0  0  0
   37.3970   26.8590   42.6030 C   0  0  0  0  0  0  0  0  0  0  0  0
   37.4090   25.7780   42.6890 H   0  0  0  0  0  0  0  0  0  0  0  0
   38.1200   27.6540   43.4960 C   0  0  0  0  0  3  0  0  0  0  0  0
   38.0360   29.0150   43.2980 C   0  0  0  0  0  3  0  0  0  0  0  0
   37.3290   29.6100   42.3360 N   0  0  0  0  0  0  0  0  0  0  0  0
  1  2  2  0  0  0  0
  1 12  1  0  0  0  0
  3  8  1  0  0  0  0
  3  1  1  0  0  0  0
  4  3  2  0  0  0  0
  5  6  2  0  0  0  0
  5  4  1  0  0  0  0
  6  7  1  0  0  0  0
  7 11  1  0  0  0  0
  7  8  2  0  0  0  0
  9  4  1  0  0  0  0
 10  5  1  0  0  0  0
 12 13  2  0  0  0  0
 12 19  1  0  0  0  0
 13 15  1  0  0  0  0
 14 13  1  0  0  0  0
 15 16  1  0  0  0  0
 15 17  2  0  0  0  0
 18 17  1  0  0  0  0
 19 18  2  0  0  0  0
M  END
>  <minimizedAffinity>
-4.3439126

$$$$

 OpenBabel03242512353D

 19 20  0  0  0  0  0  0  0  0999 V2000
   35.4970   29.3220   40.1430 C   0  0  0  0  0  0  0  0  0  0  0  0
   34.2430   29.2180   40.0110 O   0  0  0  0  0  0  0  0  0  0  0  0
   36.3140   30.4450   39.7870 C   0  0  0  0  0  0  0  0  0  0  0  0
   36.6880   30.5090   38.4480 C   0  0  0  0  0  0  0  0  0  0  0  0
   37.4920   31.6030   38.0690 C   0  0  0  0  0  0  0  0  0  0  0  0
   37.8440   32.5130   39.0300 N   0  0  0  0  0  0  0  0  0  0  0  0
   37.4490   32.3940   40.3060 C   0  0  0  0  0  0  0  0  0  0  0  0
   36.6820   31.3560   40.6860 N   0  0  0  0  0  0  0  0  0  0  0  0
   36.4010   29.7870   37.7150 H   0  0  0  0  0  0  0  0  0  0  0  0
   37.8180   31.7110   37.0350 H   0  0  0  0  0  0  0  0  0  0  0  0
   37.8060   33.1880   40.9490 H   0  0  0  0  0  0  0  0  0  0  0  0
   36.1540   28.1320   40.7340 C   0  0  0  0  0  0  0  0  0  0  0  0
   36.4020   28.1070   42.0980 C   0  0  0  0  0  0  0  0  0  0  0  0
   36.1310   28.9380   42.7690 H   0  0  0  0  0  0  0  0  0  0  0  0
   37.0150   27.0270   42.7380 C   0  0  0  0  0  0  0  0  0  0  0  0
   37.1980   27.0330   43.8070 H   0  0  0  0  0  0  0  0  0  0  0  0
   37.3890   25.9330   41.9550 C   0  0  0  0  0  3  0  0  0  0  0  0
   37.1110   26.0290   40.6090 C   0  0  0  0  0  3  0  0  0  0  0  0
   36.5230   27.0700   40.0170 N   0  0  0  0  0  0  0  0  0  0  0  0
  1 12  1  0  0  0  0
  2  1  2  0  0  0  0
  3  1  1  0  0  0  0
  3  8  1  0  0  0  0
  4  3  2  0  0  0  0
  5  4  1  0  0  0  0
  5  6  2  0  0  0  0
  6  7  1  0  0  0  0
  7  8  2  0  0  0  0
  7 11  1  0  0  0  0
  9  4  1  0  0  0  0
 10  5  1  0  0  0  0
 12 13  1  0  0  0  0
 13 15  2  0  0  0  0
 13 14  1  0  0  0  0
 15 16  1  0  0  0  0
 17 15  1  0  0  0  0
 18 17  2  0  0  0  0
 19 18  1  0  0  0  0
 19 12  2  0  0  0  0
M  END
>  <minimizedAffinity>
-4.25655794

$$$$

 OpenBabel03242512353D

 19 20  0  0  0  0  0  0  0  0999 V2000
   35.6890   29.1540   40.5740 C   0  0  0  0  0  0  0  0  0  0  0  0
   34.4500   29.1090   40.3200 O   0  0  0  0  0  0  0  0  0  0  0  0
   36.4570   28.1900   41.3070 C   0  0  0  0  0  0  0  0  0  0  0  0
   36.7570   27.0190   40.6160 C   0  0  0  0  0  0  0  0  0  0  0  0
   37.5110   26.0520   41.3130 C   0  0  0  0  0  0  0  0  0  0  0  0
   37.8900   26.3290   42.5990 N   0  0  0  0  0  0  0  0  0  0  0  0
   37.5680   27.4790   43.2080 C   0  0  0  0  0  0  0  0  0  0  0  0
   36.8480   28.4130   42.5590 N   0  0  0  0  0  0  0  0  0  0  0  0
   36.4510   26.8250   39.6120 H   0  0  0  0  0  0  0  0  0  0  0  0
   37.7800   25.1140   40.8280 H   0  0  0  0  0  0  0  0  0  0  0  0
   37.9360   27.5540   44.2230 H   0  0  0  0  0  0  0  0  0  0  0  0
   36.3840   30.3480   40.0360 C   0  0  0  0  0  0  0  0  0  0  0  0
   36.7000   30.3920   38.6860 C   0  0  0  0  0  0  0  0  0  0  0  0
   36.4560   29.5750   37.9890 H   0  0  0  0  0  0  0  0  0  0  0  0
   37.3530   31.4760   38.0950 C   0  0  0  0  0  0  0  0  0  0  0  0
   37.5890   31.4860   37.0380 H   0  0  0  0  0  0  0  0  0  0  0  0
   37.6970   32.5540   38.9150 C   0  0  0  0  0  3  0  0  0  0  0  0
   37.3520   32.4390   40.2430 C   0  0  0  0  0  3  0  0  0  0  0  0
   36.7270   31.3940   40.7880 N   0  0  0  0  0  0  0  0  0  0  0  0
  1  3  1  0  0  0  0
  2  1  2  0  0  0  0
  3  8  1  0  0  0  0
  4  3  2  0  0  0  0
  4  5  1  0  0  0  0
  5  6  2  0  0  0  0
  6  7  1  0  0  0  0
  7 11  1  0  0  0  0
  8  7  2  0  0  0  0
  9  4  1  0  0  0  0
 10  5  1  0  0  0  0
 12  1  1  0  0  0  0
 12 19  1  0  0  0  0
 13 12  2  0  0  0  0
 14 13  1  0  0  0  0
 15 13  1  0  0  0  0
 15 17  2  0  0  0  0
 16 15  1  0  0  0  0
 17 18  1  0  0  0  0
 18 19  2  0  0  0  0
M  END
>  <minimizedAffinity>
-4.2002902

$$$$

 OpenBabel03242512353D

 19 20  0  0  0  0  0  0  0  0999 V2000
   36.7180   27.5510   42.5310 C   0  0  0  0  0  0  0  0  0  0  0  0
   36.2050   27.4090   43.6790 O   0  0  0  0  0  0  0  0  0  0  0  0
   36.5920   28.6840   41.6620 C   0  0  0  0  0  0  0  0  0  0  0  0
   35.8040   28.4840   40.5330 C   0  0  0  0  0  0  0  0  0  0  0  0
   35.6620   29.5820   39.6600 C   0  0  0  0  0  0  0  0  0  0  0  0
   36.3000   30.7500   39.9790 N   0  0  0  0  0  0  0  0  0  0  0  0
   37.0470   30.8790   41.0850 C   0  0  0  0  0  0  0  0  0  0  0  0
   37.1940   29.8420   41.9300 N   0  0  0  0  0  0  0  0  0  0  0  0
   35.3150   27.5620   40.3040 H   0  0  0  0  0  0  0  0  0  0  0  0
   35.0570   29.4900   38.7580 H   0  0  0  0  0  0  0  0  0  0  0  0
   37.4880   31.8600   41.2020 H   0  0  0  0  0  0  0  0  0  0  0  0
   37.5300   26.3980   42.0730 C   0  0  0  0  0  0  0  0  0  0  0  0
   36.9690   25.1290   42.0940 C   0  0  0  0  0  0  0  0  0  0  0  0
   35.9400   24.9370   42.4370 H   0  0  0  0  0  0  0  0  0  0  0  0
   37.6600   23.9880   41.6810 C   0  0  0  0  0  0  0  0  0  0  0  0
   37.1990   23.0080   41.7070 H   0  0  0  0  0  0  0  0  0  0  0  0
   38.9730   24.1490   41.2310 C   0  0  0  0  0  3  0  0  0  0  0  0
   39.4620   25.4370   41.2390 C   0  0  0  0  0  3  0  0  0  0  0  0
   38.7840   26.5140   41.6380 N   0  0  0  0  0  0  0  0  0  0  0  0
  1  2  2  0  0  0  0
  3  8  1  0  0  0  0
  3  1  1  0  0  0  0
  4  3  2  0  0  0  0
  5  6  2  0  0  0  0
  5  4  1  0  0  0  0
  6  7  1  0  0  0  0
  7 11  1  0  0  0  0
  7  8  2  0  0  0  0
  9  4  1  0  0  0  0
 10  5  1  0  0  0  0
 12 13  1  0  0  0  0
 12  1  1  0  0  0  0
 13 14  1  0  0  0  0
 15 16  1  0  0  0  0
 15 13  2  0  0  0  0
 17 18  2  0  0  0  0
 17 15  1  0  0  0  0
 18 19  1  0  0  0  0
 19 12  2  0  0  0  0
M  END
>  <minimizedAffinity>
-4.19543266

$$$$

 OpenBabel03242512353D

 19 20  0  0  0  0  0  0  0  0999 V2000
   36.8460   27.3410   42.5940 C   0  0  0  0  0  0  0  0  0  0  0  0
   36.1990   27.4110   43.6800 O   0  0  0  0  0  0  0  0  0  0  0  0
   37.6470   26.2460   42.1330 C   0  0  0  0  0  0  0  0  0  0  0  0
   36.9660   25.0460   41.9500 C   0  0  0  0  0  0  0  0  0  0  0  0
   37.7300   23.9500   41.4970 C   0  0  0  0  0  0  0  0  0  0  0  0
   39.0670   24.1410   41.2720 N   0  0  0  0  0  0  0  0  0  0  0  0
   39.6630   25.3250   41.4680 C   0  0  0  0  0  0  0  0  0  0  0  0
   38.9510   26.3820   41.9000 N   0  0  0  0  0  0  0  0  0  0  0  0
   35.9210   24.9200   42.1320 H   0  0  0  0  0  0  0  0  0  0  0  0
   37.2560   22.9830   41.3340 H   0  0  0  0  0  0  0  0  0  0  0  0
   40.7230   25.3210   41.2480 H   0  0  0  0  0  0  0  0  0  0  0  0
   36.7350   28.5440   41.7350 C   0  0  0  0  0  0  0  0  0  0  0  0
   35.8220   28.5440   40.6890 C   0  0  0  0  0  0  0  0  0  0  0  0
   35.1700   27.6840   40.4670 H   0  0  0  0  0  0  0  0  0  0  0  0
   35.6510   29.6330   39.8320 C   0  0  0  0  0  0  0  0  0  0  0  0
   34.9310   29.6070   39.0220 H   0  0  0  0  0  0  0  0  0  0  0  0
   36.4430   30.7630   40.0490 C   0  0  0  0  0  3  0  0  0  0  0  0
   37.3250   30.6910   41.1040 C   0  0  0  0  0  3  0  0  0  0  0  0
   37.4730   29.6400   41.9130 N   0  0  0  0  0  0  0  0  0  0  0  0
  1  2  2  0  0  0  0
  3  1  1  0  0  0  0
  4  9  1  0  0  0  0
  4  3  1  0  0  0  0
  5  4  2  0  0  0  0
  6  7  2  0  0  0  0
  6  5  1  0  0  0  0
  7  8  1  0  0  0  0
  8  3  2  0  0  0  0
 10  5  1  0  0  0  0
 11  7  1  0  0  0  0
 12 19  1  0  0  0  0
 12  1  1  0  0  0  0
 13 12  2  0  0  0  0
 14 13  1  0  0  0  0
 15 17  2  0  0  0  0
 15 13  1  0  0  0  0
 16 15  1  0  0  0  0
 17 18  1  0  0  0  0
 18 19  2  0  0  0  0
M  END
>  <minimizedAffinity>
-4.18528414

$$$$

 OpenBabel03242512353D

 19 20  0  0  0  0  0  0  0  0999 V2000
   39.1160   30.2750   41.8320 C   0  0  0  0  0  0  0  0  0  0  0  0
   40.2540   30.3650   42.3780 O   0  0  0  0  0  0  0  0  0  0  0  0
   38.4840   31.2430   40.9840 C   0  0  0  0  0  0  0  0  0  0  0  0
   38.9910   32.5360   41.0760 C   0  0  0  0  0  0  0  0  0  0  0  0
   38.3890   33.5090   40.2530 C   0  0  0  0  0  0  0  0  0  0  0  0
   37.3640   33.1210   39.4330 N   0  0  0  0  0  0  0  0  0  0  0  0
   36.9210   31.8560   39.3910 C   0  0  0  0  0  0  0  0  0  0  0  0
   37.4840   30.9130   40.1700 N   0  0  0  0  0  0  0  0  0  0  0  0
   39.7930   32.8160   41.7240 H   0  0  0  0  0  0  0  0  0  0  0  0
   38.7400   34.5400   40.2780 H   0  0  0  0  0  0  0  0  0  0  0  0
   36.1060   31.7010   38.6960 H   0  0  0  0  0  0  0  0  0  0  0  0
   38.3900   29.0160   42.1280 C   0  0  0  0  0  0  0  0  0  0  0  0
   37.6900   28.9070   43.3200 C   0  0  0  0  0  0  0  0  0  0  0  0
   37.6460   29.7180   44.0640 H   0  0  0  0  0  0  0  0  0  0  0  0
   36.9790   27.7590   43.6800 C   0  0  0  0  0  0  0  0  0  0  0  0
   36.4390   27.7000   44.6180 H   0  0  0  0  0  0  0  0  0  0  0  0
   36.9850   26.6840   42.7880 C   0  0  0  0  0  3  0  0  0  0  0  0
   37.7010   26.8650   41.6260 C   0  0  0  0  0  3  0  0  0  0  0  0
   38.3740   27.9710   41.3010 N   0  0  0  0  0  0  0  0  0  0  0  0
  1 12  1  0  0  0  0
  1  2  2  0  0  0  0
  3  4  1  0  0  0  0
  3  1  1  0  0  0  0
  4  9  1  0  0  0  0
  5 10  1  0  0  0  0
  5  4  2  0  0  0  0
  6  5  1  0  0  0  0
  7  6  2  0  0  0  0
  7  8  1  0  0  0  0
  8  3  2  0  0  0  0
 11  7  1  0  0  0  0
 12 13  1  0  0  0  0
 13 15  2  0  0  0  0
 13 14  1  0  0  0  0
 15 16  1  0  0  0  0
 17 15  1  0  0  0  0
 18 17  2  0  0  0  0
 19 18  1  0  0  0  0
 19 12  2  0  0  0  0
M  END
>  <minimizedAffinity>
-4.13381004

$$$$

 OpenBabel03242512353D

 19 20  0  0  0  0  0  0  0  0999 V2000
   38.4880   30.0460   40.0510 C   0  0  0  0  0  0  0  0  0  0  0  0
   38.9070   29.3130   39.1080 O   0  0  0  0  0  0  0  0  0  0  0  0
   38.4410   31.4780   40.0770 C   0  0  0  0  0  0  0  0  0  0  0  0
   37.2930   32.0470   39.5330 C   0  0  0  0  0  0  0  0  0  0  0  0
   37.2200   33.4550   39.5450 C   0  0  0  0  0  0  0  0  0  0  0  0
   38.2670   34.1540   40.0840 N   0  0  0  0  0  0  0  0  0  0  0  0
   39.3470   33.5450   40.5930 C   0  0  0  0  0  0  0  0  0  0  0  0
   39.4350   32.2020   40.5900 N   0  0  0  0  0  0  0  0  0  0  0  0
   36.4880   31.4810   39.1180 H   0  0  0  0  0  0  0  0  0  0  0  0
   36.3470   33.9610   39.1350 H   0  0  0  0  0  0  0  0  0  0  0  0
   40.0910   34.2280   40.9820 H   0  0  0  0  0  0  0  0  0  0  0  0
   38.0020   29.3020   41.2370 C   0  0  0  0  0  0  0  0  0  0  0  0
   37.1650   28.2110   41.0520 C   0  0  0  0  0  0  0  0  0  0  0  0
   36.8440   27.8670   40.0560 H   0  0  0  0  0  0  0  0  0  0  0  0
   36.6610   27.4530   42.1120 C   0  0  0  0  0  0  0  0  0  0  0  0
   36.0100   26.6040   41.9400 H   0  0  0  0  0  0  0  0  0  0  0  0
   37.0240   27.8260   43.4080 C   0  0  0  0  0  3  0  0  0  0  0  0
   37.8550   28.9190   43.5140 C   0  0  0  0  0  3  0  0  0  0  0  0
   38.3260   29.6290   42.4880 N   0  0  0  0  0  0  0  0  0  0  0  0
  1  3  1  0  0  0  0
  1 12  1  0  0  0  0
  2  1  2  0  0  0  0
  3  8  1  0  0  0  0
  4  5  1  0  0  0  0
  4  3  2  0  0  0  0
  5  6  2  0  0  0  0
  6  7  1  0  0  0  0
  7 11  1  0  0  0  0
  8  7  2  0  0  0  0
  9  4  1  0  0  0  0
 10  5  1  0  0  0  0
 12 19  1  0  0  0  0
 13 12  2  0  0  0  0
 13 15  1  0  0  0  0
 14 13  1  0  0  0  0
 15 17  2  0  0  0  0
 16 15  1  0  0  0  0
 17 18  1  0  0  0  0
 19 18  2  0  0  0  0
M  END
>  <minimizedAffinity>
-4.07491684

$$$$

 OpenBabel03242512353D

 19 20  0  0  0  0  0  0  0  0999 V2000
   36.7120   30.1640   40.5820 C   0  0  0  0  0  0  0  0  0  0  0  0
   36.1250   31.1910   41.0320 O   0  0  0  0  0  0  0  0  0  0  0  0
   36.9270   29.8240   39.2060 C   0  0  0  0  0  0  0  0  0  0  0  0
   35.7720   29.6260   38.4550 C   0  0  0  0  0  0  0  0  0  0  0  0
   35.9520   29.2900   37.0970 C   0  0  0  0  0  0  0  0  0  0  0  0
   37.2310   29.1830   36.6210 N   0  0  0  0  0  0  0  0  0  0  0  0
   38.3040   29.3870   37.3980 C   0  0  0  0  0  0  0  0  0  0  0  0
   38.1510   29.7080   38.6970 N   0  0  0  0  0  0  0  0  0  0  0  0
   34.7830   29.7160   38.8480 H   0  0  0  0  0  0  0  0  0  0  0  0
   35.0880   29.1240   36.4550 H   0  0  0  0  0  0  0  0  0  0  0  0
   39.2470   29.2660   36.8820 H   0  0  0  0  0  0  0  0  0  0  0  0
   37.2180   29.2390   41.6240 C   0  0  0  0  0  0  0  0  0  0  0  0
   36.4570   28.1300   41.9670 C   0  0  0  0  0  0  0  0  0  0  0  0
   35.4880   27.9030   41.4970 H   0  0  0  0  0  0  0  0  0  0  0  0
   36.8570   27.2070   42.9370 C   0  0  0  0  0  0  0  0  0  0  0  0
   36.2440   26.3490   43.1860 H   0  0  0  0  0  0  0  0  0  0  0  0
   38.0780   27.4260   43.5800 C   0  0  0  0  0  3  0  0  0  0  0  0
   38.7760   28.5460   43.1880 C   0  0  0  0  0  3  0  0  0  0  0  0
   38.3770   29.4160   42.2580 N   0  0  0  0  0  0  0  0  0  0  0  0
  1  2  2  0  0  0  0
  1 12  1  0  0  0  0
  3  1  1  0  0  0  0
  4  9  1  0  0  0  0
  4  3  2  0  0  0  0
  5  4  1  0  0  0  0
  6  5  2  0  0  0  0
  6  7  1  0  0  0  0
  7  8  2  0  0  0  0
  8  3  1  0  0  0  0
 10  5  1  0  0  0  0
 11  7  1  0  0  0  0
 12 13  2  0  0  0  0
 12 19  1  0  0  0  0
 13 15  1  0  0  0  0
 14 13  1  0  0  0  0
 15 16  1  0  0  0  0
 15 17  2  0  0  0  0
 18 17  1  0  0  0  0
 19 18  2  0  0  0  0
M  END
>  <minimizedAffinity>
-3.98676968

$$$$

 OpenBabel03242512353D

 19 20  0  0  0  0  0  0  0  0999 V2000
   39.2180   29.8950   41.2160 C   0  0  0  0  0  0  0  0  0  0  0  0
   40.4830   29.9260   41.1790 O   0  0  0  0  0  0  0  0  0  0  0  0
   38.3940   28.8630   41.7750 C   0  0  0  0  0  0  0  0  0  0  0  0
   38.0250   29.0510   43.1030 C   0  0  0  0  0  0  0  0  0  0  0  0
   37.2140   28.0510   43.6790 C   0  0  0  0  0  0  0  0  0  0  0  0
   36.8530   26.9830   42.9040 N   0  0  0  0  0  0  0  0  0  0  0  0
   37.2430   26.8610   41.6270 C   0  0  0  0  0  0  0  0  0  0  0  0
   38.0170   27.8050   41.0600 N   0  0  0  0  0  0  0  0  0  0  0  0
   38.3180   29.8940   43.6890 H   0  0  0  0  0  0  0  0  0  0  0  0
   36.8890   28.1400   44.7160 H   0  0  0  0  0  0  0  0  0  0  0  0
   36.8800   25.9640   41.1430 H   0  0  0  0  0  0  0  0  0  0  0  0
   38.5570   31.0720   40.6040 C   0  0  0  0  0  0  0  0  0  0  0  0
   38.9700   32.3440   40.9730 C   0  0  0  0  0  0  0  0  0  0  0  0
   39.7740   32.5220   41.7040 H   0  0  0  0  0  0  0  0  0  0  0  0
   38.4040   33.5070   40.4470 C   0  0  0  0  0  0  0  0  0  0  0  0
   38.7450   34.4900   40.7510 H   0  0  0  0  0  0  0  0  0  0  0  0
   37.3760   33.3660   39.5110 C   0  0  0  0  0  3  0  0  0  0  0  0
   37.0190   32.0740   39.1950 C   0  0  0  0  0  3  0  0  0  0  0  0
   37.5740   30.9750   39.7090 N   0  0  0  0  0  0  0  0  0  0  0  0
  1  3  1  0  0  0  0
  2  1  2  0  0  0  0
  3  4  1  0  0  0  0
  4  5  2  0  0  0  0
  4  9  1  0  0  0  0
  5 10  1  0  0  0  0
  6  5  1  0  0  0  0
  7  6  2  0  0  0  0
  8  7  1  0  0  0  0
  8  3  2  0  0  0  0
 11  7  1  0  0  0  0
 12 13  1  0  0  0  0
 12  1  1  0  0  0  0
 13 14  1  0  0  0  0
 15 16  1  0  0  0  0
 15 13  2  0  0  0  0
 17 15  1  0  0  0  0
 18 17  2  0  0  0  0
 18 19  1  0  0  0  0
 19 12  2  0  0  0  0
M  END
>  <minimizedAffinity>
-3.90368533

$$$$
