
 OpenBabel03242516593D

 31 33  0  0  0  0  0  0  0  0999 V2000
   46.5750   34.7380   42.0120 C   0  0  0  0  0  0  0  0  0  0  0  0
   47.8860   35.2070   41.9410 C   0  0  0  0  0  0  0  0  0  0  0  0
   48.5930   35.0090   40.7690 C   0  0  0  0  0  0  0  0  0  0  0  0
   48.0060   34.3660   39.7120 C   0  0  0  0  0  0  0  0  0  0  0  0
   46.7280   33.8950   39.7450 C   0  0  0  0  0  0  0  0  0  0  0  0
   46.0280   34.1070   40.9450 C   0  0  0  0  0  0  0  0  0  0  0  0
   48.3440   35.7130   42.7780 H   0  0  0  0  0  0  0  0  0  0  0  0
   49.6050   35.3420   40.6420 H   0  0  0  0  0  0  0  0  0  0  0  0
   48.5200   34.1840   38.7670 H   0  0  0  0  0  0  0  0  0  0  0  0
   46.1710   33.3770   38.9720 H   0  0  0  0  0  0  0  0  0  0  0  0
   44.4970   36.2080   44.7940 C   0  0  0  0  0  0  0  0  0  0  0  0
   45.1260   36.0940   43.5370 C   0  0  0  0  0  0  0  0  0  0  0  0
   45.8770   34.9740   43.2690 C   0  0  0  0  0  0  0  0  0  0  0  0
   45.9710   34.0310   44.2430 N   0  0  0  0  0  0  0  0  0  0  0  0
   45.3700   34.1380   45.4450 C   0  0  0  0  0  0  0  0  0  0  0  0
   44.6200   35.2500   45.7220 N   0  0  0  0  0  0  0  0  0  0  0  0
   43.9290   37.1320   44.8990 H   0  0  0  0  0  0  0  0  0  0  0  0
   45.0640   36.8330   42.7490 H   0  0  0  0  0  0  0  0  0  0  0  0
   45.4460   33.3920   46.2110 H   0  0  0  0  0  0  0  0  0  0  0  0
   43.4060   34.1700   40.7960 C   0  0  0  0  0  0  0  0  0  0  0  0
   43.1770   35.2530   40.2070 O   0  0  0  0  0  0  0  0  0  0  0  0
   44.6930   33.6680   41.1170 N   0  0  0  0  0  0  0  0  0  0  0  0
   44.8510   32.7450   41.6080 H   0  0  0  0  0  0  0  0  0  0  0  0
   42.3110   33.2750   41.2330 C   0  0  0  0  0  0  0  0  0  0  0  0
   41.0340   33.7930   41.2070 C   0  0  0  0  0  0  0  0  0  0  0  0
   40.8780   34.8170   40.8740 H   0  0  0  0  0  0  0  0  0  0  0  0
   39.8740   33.1180   41.5770 C   0  0  0  0  0  0  0  0  0  0  0  0
   38.9100   33.6060   41.5230 H   0  0  0  0  0  0  0  0  0  0  0  0
   40.0480   31.8160   42.0010 C   0  0  0  0  0  0  0  0  0  0  0  0
   41.3470   31.3130   42.0200 C   0  0  0  0  0  0  0  0  0  0  0  0
   42.4270   32.0180   41.6500 N   0  0  0  0  0  0  0  0  0  0  0  0
  1 13  1  0  0  0  0
  2  1  1  0  0  0  0
  2  7  1  0  0  0  0
  3  2  2  0  0  0  0
  4  5  2  0  0  0  0
  4  3  1  0  0  0  0
  5  6  1  0  0  0  0
  6 22  1  0  0  0  0
  6  1  2  0  0  0  0
  8  3  1  0  0  0  0
  9  4  1  0  0  0  0
 10  5  1  0  0  0  0
 11 17  1  0  0  0  0
 11 16  1  0  0  0  0
 12 11  2  0  0  0  0
 13 12  1  0  0  0  0
 13 14  2  0  0  0  0
 14 15  1  0  0  0  0
 15 16  2  0  0  0  0
 15 19  1  0  0  0  0
 18 12  1  0  0  0  0
 20 22  1  0  0  0  0
 20 24  1  0  0  0  0
 21 20  2  0  0  0  0
 22 23  1  0  0  0  0
 24 31  1  0  0  0  0
 25 24  2  0  0  0  0
 25 27  1  0  0  0  0
 26 25  1  0  0  0  0
 27 29  2  0  0  0  0
 28 27  1  0  0  0  0
 29 30  1  0  0  0  0
 31 30  2  0  0  0  0
M  END
>  <minimizedAffinity>
-6.38107109

>  <minimizedRMSD>
0.95449239

$$$$
