REMARK  Name = 
REMARK  4 active torsions:
REMARK  status: ('A' for Active; 'I' for Inactive)
REMARK    1  A    between atoms: C_1  and  O_12
REMARK    2  A    between atoms: C_2  and  C_7
REMARK    3  A    between atoms: O_12  and  C_13
REMARK    4  A    between atoms: C_13  and  C_20
REMARK                            x       y       z     vdW  Elec       q    Type
REMARK                         _______ _______ _______ _____ _____    ______ ____
ROOT
ATOM      1  C   UNL     1      46.083  34.160  41.012  0.00  0.00    +0.000 A 
ATOM      2  C   UNL     1      46.615  34.826  42.111  0.00  0.00    +0.000 A 
ATOM      3  C   UNL     1      47.936  35.266  41.984  0.00  0.00    +0.000 A 
ATOM      4  N   UNL     1      48.614  35.032  40.834  0.00  0.00    +0.000 NA
ATOM      5  C   UNL     1      48.045  34.380  39.800  0.00  0.00    +0.000 A 
ATOM      6  N   UNL     1      46.776  33.942  39.886  0.00  0.00    +0.000 NA
ATOM      7  H   UNL     1      48.372  35.785  42.821  0.00  0.00    +0.000 HD
ATOM      8  H   UNL     1      48.654  34.234  38.917  0.00  0.00    +0.000 HD
ENDROOT
BRANCH   2   9
ATOM      9  C   UNL     1      45.813  35.033  43.298  0.00  0.00    +0.000 A 
ATOM     10  C   UNL     1      45.050  36.184  43.494  0.00  0.00    +0.000 A 
ATOM     11  C   UNL     1      44.463  35.972  44.720  0.00  0.00    +0.000 A 
ATOM     12  N   UNL     1      44.842  34.772  45.238  0.00  0.00    +0.000 N 
ATOM     13  N   UNL     1      45.655  34.241  44.348  0.00  0.00    +0.000 NA
ATOM     14  H   UNL     1      44.892  37.074  42.897  0.00  0.00    +0.000 HD
ATOM     15  H   UNL     1      43.779  36.605  45.288  0.00  0.00    +0.000 HD
ATOM     16  H   UNL     1      44.589  34.304  46.135  0.00  0.00    +0.000 HD
ENDBRANCH   2   9
BRANCH   1  17
ATOM     17  O   UNL     1      44.778  33.706  41.095  0.00  0.00    +0.000 OA
BRANCH  17  18
ATOM     18  C   UNL     1      43.689  34.185  40.429  0.00  0.00    +0.000 C 
ATOM     19  O   UNL     1      43.249  35.388  40.415  0.00  0.00    +0.000 OA
BRANCH  18  20
ATOM     20  C   UNL     1      42.809  33.327  39.581  0.00  0.00    +0.000 A 
ATOM     21  C   UNL     1      42.858  31.954  39.660  0.00  0.00    +0.000 A 
ATOM     22  H   UNL     1      43.525  31.434  40.332  0.00  0.00    +0.000 HD
ATOM     23  C   UNL     1      42.067  31.103  38.896  0.00  0.00    +0.000 A 
ATOM     24  H   UNL     1      42.127  30.031  38.978  0.00  0.00    +0.000 HD
ATOM     25  C   UNL     1      41.180  31.663  38.004  0.00  0.00    +0.000 A 
ATOM     26  C   UNL     1      41.155  33.037  37.950  0.00  0.00    +0.000 A 
ATOM     27  N   UNL     1      41.937  33.797  38.707  0.00  0.00    +0.000 NA
ENDBRANCH  18  20
ENDBRANCH  17  18
ENDBRANCH   1  17
TORSDOF 4
