
 OpenBabel03252508523D

 27 29  0  0  0  0  0  0  0  0999 V2000
   39.4070   31.4940   39.9210 C   0  0  0  0  0  0  0  0  0  0  0  0
   38.1140   32.0010   40.0040 C   0  0  0  0  0  0  0  0  0  0  0  0
   37.9990   33.3940   40.0220 C   0  0  0  0  0  0  0  0  0  0  0  0
   39.1140   34.1610   39.9580 N   0  0  0  0  0  0  0  0  0  0  0  0
   40.3440   33.6130   39.8780 C   0  0  0  0  0  0  0  0  0  0  0  0
   40.4940   32.2760   39.8590 N   0  0  0  0  0  0  0  0  0  0  0  0
   37.0080   33.8120   40.0860 H   0  0  0  0  0  0  0  0  0  0  0  0
   41.1830   34.2950   39.8310 H   0  0  0  0  0  0  0  0  0  0  0  0
   36.9810   31.1030   40.0650 C   0  0  0  0  0  0  0  0  0  0  0  0
   36.5470   30.3700   38.9600 C   0  0  0  0  0  0  0  0  0  0  0  0
   35.4700   29.6670   39.4470 C   0  0  0  0  0  0  0  0  0  0  0  0
   35.2600   29.9500   40.7620 N   0  0  0  0  0  0  0  0  0  0  0  0
   36.1930   30.8190   41.0910 N   0  0  0  0  0  0  0  0  0  0  0  0
   36.8970   30.3020   37.9370 H   0  0  0  0  0  0  0  0  0  0  0  0
   34.8090   28.9590   38.9430 H   0  0  0  0  0  0  0  0  0  0  0  0
   34.5420   29.5990   41.4310 H   0  0  0  0  0  0  0  0  0  0  0  0
   39.5670   30.1200   39.9020 O   0  0  0  0  0  0  0  0  0  0  0  0
   39.8170   29.2980   40.9610 C   0  0  0  0  0  0  0  0  0  0  0  0
   40.9460   29.0620   41.5170 O   0  0  0  0  0  0  0  0  0  0  0  0
   38.7510   28.5160   41.6550 C   0  0  0  0  0  0  0  0  0  0  0  0
   38.4440   28.7420   42.9780 C   0  0  0  0  0  0  0  0  0  0  0  0
   38.9500   29.4880   43.5720 H   0  0  0  0  0  0  0  0  0  0  0  0
   37.4650   28.0440   43.6780 C   0  0  0  0  0  0  0  0  0  0  0  0
   37.2470   28.2430   44.7140 H   0  0  0  0  0  0  0  0  0  0  0  0
   36.7580   27.0680   43.0130 C   0  0  0  0  0  3  0  0  0  0  0  0
   37.0890   26.8670   41.6930 C   0  0  0  0  0  3  0  0  0  0  0  0
   38.0350   27.5670   41.0790 N   0  0  0  0  0  0  0  0  0  0  0  0
  1  2  1  0  0  0  0
  2  3  2  0  0  0  0
  2  9  1  0  0  0  0
  3  7  1  0  0  0  0
  4  3  1  0  0  0  0
  5  4  2  0  0  0  0
  6  5  1  0  0  0  0
  6  1  2  0  0  0  0
  8  5  1  0  0  0  0
  9 13  2  0  0  0  0
 10 11  2  0  0  0  0
 10  9  1  0  0  0  0
 11 12  1  0  0  0  0
 12 13  1  0  0  0  0
 12 16  1  0  0  0  0
 14 10  1  0  0  0  0
 15 11  1  0  0  0  0
 17  1  1  0  0  0  0
 17 18  1  0  0  0  0
 18 19  2  0  0  0  0
 18 20  1  0  0  0  0
 20 21  1  0  0  0  0
 21 22  1  0  0  0  0
 21 23  2  0  0  0  0
 23 24  1  0  0  0  0
 25 23  1  0  0  0  0
 26 25  2  0  0  0  0
 27 20  2  0  0  0  0
 27 26  1  0  0  0  0
M  END
>  <minimizedAffinity>
-5.24702168

$$$$

 OpenBabel03252508523D

 27 29  0  0  0  0  0  0  0  0999 V2000
   39.8500   31.5090   40.8410 C   0  0  0  0  0  0  0  0  0  0  0  0
   38.8110   31.5210   39.9160 C   0  0  0  0  0  0  0  0  0  0  0  0
   39.1020   32.0910   38.6720 C   0  0  0  0  0  0  0  0  0  0  0  0
   40.3400   32.5870   38.4340 N   0  0  0  0  0  0  0  0  0  0  0  0
   41.3080   32.5470   39.3710 C   0  0  0  0  0  0  0  0  0  0  0  0
   41.0660   32.0070   40.5790 N   0  0  0  0  0  0  0  0  0  0  0  0
   38.3150   32.1130   37.9370 H   0  0  0  0  0  0  0  0  0  0  0  0
   42.2700   32.9650   39.1010 H   0  0  0  0  0  0  0  0  0  0  0  0
   37.5210   30.9640   40.2590 C   0  0  0  0  0  0  0  0  0  0  0  0
   37.0790   29.7370   39.7620 C   0  0  0  0  0  0  0  0  0  0  0  0
   35.8330   29.5950   40.3270 C   0  0  0  0  0  0  0  0  0  0  0  0
   35.5330   30.6620   41.1160 N   0  0  0  0  0  0  0  0  0  0  0  0
   36.5780   31.4620   41.0450 N   0  0  0  0  0  0  0  0  0  0  0  0
   37.5250   29.0080   39.0970 H   0  0  0  0  0  0  0  0  0  0  0  0
   35.1060   28.7870   40.2260 H   0  0  0  0  0  0  0  0  0  0  0  0
   34.6860   30.8760   41.6850 H   0  0  0  0  0  0  0  0  0  0  0  0
   39.6060   30.9550   42.0860 O   0  0  0  0  0  0  0  0  0  0  0  0
   39.9070   29.6930   42.5060 C   0  0  0  0  0  0  0  0  0  0  0  0
   41.0500   29.2420   42.8680 O   0  0  0  0  0  0  0  0  0  0  0  0
   38.8910   28.6020   42.6040 C   0  0  0  0  0  0  0  0  0  0  0  0
   37.8050   28.7090   43.4420 C   0  0  0  0  0  0  0  0  0  0  0  0
   37.6320   29.5760   44.0610 H   0  0  0  0  0  0  0  0  0  0  0  0
   36.8300   27.7260   43.5780 C   0  0  0  0  0  0  0  0  0  0  0  0
   35.9890   27.8380   44.2430 H   0  0  0  0  0  0  0  0  0  0  0  0
   36.9550   26.5760   42.8320 C   0  0  0  0  0  3  0  0  0  0  0  0
   38.0510   26.5000   42.0050 C   0  0  0  0  0  3  0  0  0  0  0  0
   38.9500   27.4740   41.9190 N   0  0  0  0  0  0  0  0  0  0  0  0
  1 17  1  0  0  0  0
  2  9  1  0  0  0  0
  2  1  2  0  0  0  0
  3  2  1  0  0  0  0
  4  3  2  0  0  0  0
  4  5  1  0  0  0  0
  5  6  2  0  0  0  0
  6  1  1  0  0  0  0
  7  3  1  0  0  0  0
  8  5  1  0  0  0  0
  9 13  2  0  0  0  0
 10  9  1  0  0  0  0
 10 11  2  0  0  0  0
 11 12  1  0  0  0  0
 12 16  1  0  0  0  0
 13 12  1  0  0  0  0
 14 10  1  0  0  0  0
 15 11  1  0  0  0  0
 17 18  1  0  0  0  0
 18 20  1  0  0  0  0
 18 19  2  0  0  0  0
 20 21  1  0  0  0  0
 21 23  2  0  0  0  0
 21 22  1  0  0  0  0
 23 24  1  0  0  0  0
 25 23  1  0  0  0  0
 26 25  2  0  0  0  0
 27 26  1  0  0  0  0
 27 20  2  0  0  0  0
M  END
>  <minimizedAffinity>
-5.16213751

$$$$

 OpenBabel03252508523D

 27 29  0  0  0  0  0  0  0  0999 V2000
   36.7360   25.9310   40.4210 C   0  0  0  0  0  0  0  0  0  0  0  0
   37.3590   25.9440   41.6640 C   0  0  0  0  0  0  0  0  0  0  0  0
   37.8380   24.7140   42.1260 C   0  0  0  0  0  0  0  0  0  0  0  0
   37.6780   23.6030   41.3660 N   0  0  0  0  0  0  0  0  0  0  0  0
   37.0640   23.6510   40.1670 C   0  0  0  0  0  0  0  0  0  0  0  0
   36.5910   24.8170   39.6900 N   0  0  0  0  0  0  0  0  0  0  0  0
   38.3250   24.6970   43.0860 H   0  0  0  0  0  0  0  0  0  0  0  0
   36.9770   22.7200   39.6220 H   0  0  0  0  0  0  0  0  0  0  0  0
   37.4880   27.1810   42.4040 C   0  0  0  0  0  0  0  0  0  0  0  0
   38.6850   27.8940   42.4670 C   0  0  0  0  0  0  0  0  0  0  0  0
   38.3690   28.9780   43.2540 C   0  0  0  0  0  0  0  0  0  0  0  0
   37.0660   28.9300   43.6450 N   0  0  0  0  0  0  0  0  0  0  0  0
   36.5740   27.8310   43.1100 N   0  0  0  0  0  0  0  0  0  0  0  0
   39.6670   27.7250   42.0420 H   0  0  0  0  0  0  0  0  0  0  0  0
   38.9920   29.8120   43.5800 H   0  0  0  0  0  0  0  0  0  0  0  0
   36.5060   29.5800   44.2370 H   0  0  0  0  0  0  0  0  0  0  0  0
   36.2460   27.1270   39.9260 O   0  0  0  0  0  0  0  0  0  0  0  0
   36.8610   27.9780   39.0560 C   0  0  0  0  0  0  0  0  0  0  0  0
   37.4600   27.6810   37.9640 O   0  0  0  0  0  0  0  0  0  0  0  0
   36.9260   29.4550   39.2690 C   0  0  0  0  0  0  0  0  0  0  0  0
   37.3180   30.3070   38.2620 C   0  0  0  0  0  0  0  0  0  0  0  0
   37.5910   29.9560   37.2780 H   0  0  0  0  0  0  0  0  0  0  0  0
   37.4020   31.6880   38.4020 C   0  0  0  0  0  0  0  0  0  0  0  0
   37.7120   32.3310   37.5940 H   0  0  0  0  0  0  0  0  0  0  0  0
   37.0750   32.2410   39.6190 C   0  0  0  0  0  3  0  0  0  0  0  0
   36.6870   31.3630   40.6050 C   0  0  0  0  0  3  0  0  0  0  0  0
   36.6280   30.0520   40.4100 N   0  0  0  0  0  0  0  0  0  0  0  0
  1  2  1  0  0  0  0
  2  3  2  0  0  0  0
  2  9  1  0  0  0  0
  3  7  1  0  0  0  0
  4  3  1  0  0  0  0
  5  4  2  0  0  0  0
  6  5  1  0  0  0  0
  6  1  2  0  0  0  0
  8  5  1  0  0  0  0
  9 10  1  0  0  0  0
  9 13  2  0  0  0  0
 10 11  2  0  0  0  0
 11 15  1  0  0  0  0
 11 12  1  0  0  0  0
 12 16  1  0  0  0  0
 13 12  1  0  0  0  0
 14 10  1  0  0  0  0
 17  1  1  0  0  0  0
 18 20  1  0  0  0  0
 18 17  1  0  0  0  0
 19 18  2  0  0  0  0
 20 27  1  0  0  0  0
 21 23  1  0  0  0  0
 21 20  2  0  0  0  0
 22 21  1  0  0  0  0
 23 25  2  0  0  0  0
 24 23  1  0  0  0  0
 25 26  1  0  0  0  0
 27 26  2  0  0  0  0
M  END
>  <minimizedAffinity>
-5.0752573

$$$$

 OpenBabel03252508523D

 27 29  0  0  0  0  0  0  0  0999 V2000
   37.0240   28.3500   39.2790 C   0  0  0  0  0  0  0  0  0  0  0  0
   36.4210   29.4610   38.7000 C   0  0  0  0  0  0  0  0  0  0  0  0
   35.5430   29.2050   37.6420 C   0  0  0  0  0  0  0  0  0  0  0  0
   35.3270   27.9270   37.2440 N   0  0  0  0  0  0  0  0  0  0  0  0
   35.9410   26.8880   37.8440 C   0  0  0  0  0  0  0  0  0  0  0  0
   36.7920   27.0960   38.8650 N   0  0  0  0  0  0  0  0  0  0  0  0
   35.0620   30.0480   37.1760 H   0  0  0  0  0  0  0  0  0  0  0  0
   35.7140   25.8990   37.4670 H   0  0  0  0  0  0  0  0  0  0  0  0
   36.7110   30.7900   39.1950 C   0  0  0  0  0  0  0  0  0  0  0  0
   37.3590   31.7520   38.4210 C   0  0  0  0  0  0  0  0  0  0  0  0
   37.4290   32.8410   39.2590 C   0  0  0  0  0  0  0  0  0  0  0  0
   36.8630   32.5620   40.4640 N   0  0  0  0  0  0  0  0  0  0  0  0
   36.4430   31.3160   40.3810 N   0  0  0  0  0  0  0  0  0  0  0  0
   37.7470   31.7450   37.4090 H   0  0  0  0  0  0  0  0  0  0  0  0
   37.8560   33.8310   39.0870 H   0  0  0  0  0  0  0  0  0  0  0  0
   36.7460   33.1510   41.3170 H   0  0  0  0  0  0  0  0  0  0  0  0
   37.9020   28.5580   40.3290 O   0  0  0  0  0  0  0  0  0  0  0  0
   37.7480   28.1720   41.6270 C   0  0  0  0  0  0  0  0  0  0  0  0
   36.9990   28.7080   42.5180 O   0  0  0  0  0  0  0  0  0  0  0  0
   38.4730   27.0110   42.2240 C   0  0  0  0  0  0  0  0  0  0  0  0
   38.1890   25.7190   41.8460 C   0  0  0  0  0  0  0  0  0  0  0  0
   37.4400   25.4810   41.1060 H   0  0  0  0  0  0  0  0  0  0  0  0
   38.8270   24.5980   42.3680 C   0  0  0  0  0  0  0  0  0  0  0  0
   38.5840   23.5970   42.0520 H   0  0  0  0  0  0  0  0  0  0  0  0
   39.8020   24.7890   43.3210 C   0  0  0  0  0  3  0  0  0  0  0  0
   40.0620   26.0910   43.6770 C   0  0  0  0  0  3  0  0  0  0  0  0
   39.4170   27.1210   43.1420 N   0  0  0  0  0  0  0  0  0  0  0  0
  1 17  1  0  0  0  0
  2  9  1  0  0  0  0
  2  1  2  0  0  0  0
  3  2  1  0  0  0  0
  4  3  2  0  0  0  0
  4  5  1  0  0  0  0
  5  6  2  0  0  0  0
  6  1  1  0  0  0  0
  7  3  1  0  0  0  0
  8  5  1  0  0  0  0
  9 13  2  0  0  0  0
 10  9  1  0  0  0  0
 10 11  2  0  0  0  0
 11 12  1  0  0  0  0
 12 16  1  0  0  0  0
 13 12  1  0  0  0  0
 14 10  1  0  0  0  0
 15 11  1  0  0  0  0
 17 18  1  0  0  0  0
 18 20  1  0  0  0  0
 18 19  2  0  0  0  0
 20 27  1  0  0  0  0
 21 20  2  0  0  0  0
 21 23  1  0  0  0  0
 22 21  1  0  0  0  0
 23 25  2  0  0  0  0
 24 23  1  0  0  0  0
 25 26  1  0  0  0  0
 27 26  2  0  0  0  0
M  END
>  <minimizedAffinity>
-5.00987816

$$$$

 OpenBabel03252508523D

 27 29  0  0  0  0  0  0  0  0999 V2000
   39.4220   28.3730   41.4680 C   0  0  0  0  0  0  0  0  0  0  0  0
   38.1750   28.2290   42.0680 C   0  0  0  0  0  0  0  0  0  0  0  0
   38.1320   27.4340   43.2170 C   0  0  0  0  0  0  0  0  0  0  0  0
   39.2700   26.8600   43.6790 N   0  0  0  0  0  0  0  0  0  0  0  0
   40.4520   27.0360   43.0550 C   0  0  0  0  0  0  0  0  0  0  0  0
   40.5320   27.7950   41.9470 N   0  0  0  0  0  0  0  0  0  0  0  0
   37.1780   27.3060   43.7000 H   0  0  0  0  0  0  0  0  0  0  0  0
   41.3140   26.5440   43.4880 H   0  0  0  0  0  0  0  0  0  0  0  0
   37.0130   28.8830   41.5030 C   0  0  0  0  0  0  0  0  0  0  0  0
   36.2020   28.2740   40.5470 C   0  0  0  0  0  0  0  0  0  0  0  0
   35.2400   29.2230   40.2930 C   0  0  0  0  0  0  0  0  0  0  0  0
   35.4490   30.3380   41.0450 N   0  0  0  0  0  0  0  0  0  0  0  0
   36.5280   30.0890   41.7580 N   0  0  0  0  0  0  0  0  0  0  0  0
   36.2350   27.3050   40.0620 H   0  0  0  0  0  0  0  0  0  0  0  0
   34.3890   29.1940   39.6100 H   0  0  0  0  0  0  0  0  0  0  0  0
   34.9180   31.2340   41.1010 H   0  0  0  0  0  0  0  0  0  0  0  0
   39.5090   29.1520   40.3270 O   0  0  0  0  0  0  0  0  0  0  0  0
   40.0680   30.3900   40.2090 C   0  0  0  0  0  0  0  0  0  0  0  0
   41.3140   30.6850   40.1780 O   0  0  0  0  0  0  0  0  0  0  0  0
   39.2610   31.6410   40.0950 C   0  0  0  0  0  0  0  0  0  0  0  0
   38.1650   31.7130   39.2670 C   0  0  0  0  0  0  0  0  0  0  0  0
   37.8340   30.8790   38.6670 H   0  0  0  0  0  0  0  0  0  0  0  0
   37.3780   32.8500   39.1160 C   0  0  0  0  0  0  0  0  0  0  0  0
   36.5230   32.8770   38.4600 H   0  0  0  0  0  0  0  0  0  0  0  0
   37.7130   33.9750   39.8370 C   0  0  0  0  0  3  0  0  0  0  0  0
   38.8130   33.8700   40.6550 C   0  0  0  0  0  3  0  0  0  0  0  0
   39.5260   32.7550   40.7550 N   0  0  0  0  0  0  0  0  0  0  0  0
  1  6  2  0  0  0  0
  1  2  1  0  0  0  0
  2  3  2  0  0  0  0
  3  4  1  0  0  0  0
  3  7  1  0  0  0  0
  5  8  1  0  0  0  0
  5  4  2  0  0  0  0
  6  5  1  0  0  0  0
  9 13  2  0  0  0  0
  9  2  1  0  0  0  0
 10  9  1  0  0  0  0
 11 10  2  0  0  0  0
 11 12  1  0  0  0  0
 12 16  1  0  0  0  0
 12 13  1  0  0  0  0
 14 10  1  0  0  0  0
 15 11  1  0  0  0  0
 17  1  1  0  0  0  0
 18 17  1  0  0  0  0
 19 18  2  0  0  0  0
 20 18  1  0  0  0  0
 20 27  1  0  0  0  0
 21 20  2  0  0  0  0
 22 21  1  0  0  0  0
 23 21  1  0  0  0  0
 23 25  2  0  0  0  0
 24 23  1  0  0  0  0
 25 26  1  0  0  0  0
 26 27  2  0  0  0  0
M  END
>  <minimizedAffinity>
-4.99106359

$$$$

 OpenBabel03252508523D

 27 29  0  0  0  0  0  0  0  0999 V2000
   37.2740   28.3730   37.6810 C   0  0  0  0  0  0  0  0  0  0  0  0
   36.2020   29.2200   37.9440 C   0  0  0  0  0  0  0  0  0  0  0  0
   35.1850   29.2410   36.9860 C   0  0  0  0  0  0  0  0  0  0  0  0
   35.2850   28.4610   35.8820 N   0  0  0  0  0  0  0  0  0  0  0  0
   36.3500   27.6590   35.6800 C   0  0  0  0  0  0  0  0  0  0  0  0
   37.3480   27.6120   36.5810 N   0  0  0  0  0  0  0  0  0  0  0  0
   34.3430   29.8890   37.1660 H   0  0  0  0  0  0  0  0  0  0  0  0
   36.3540   27.0670   34.7740 H   0  0  0  0  0  0  0  0  0  0  0  0
   36.1800   30.0150   39.1540 C   0  0  0  0  0  0  0  0  0  0  0  0
   36.9540   31.1640   39.3080 C   0  0  0  0  0  0  0  0  0  0  0  0
   36.6350   31.5960   40.5740 C   0  0  0  0  0  0  0  0  0  0  0  0
   35.7260   30.7660   41.1540 N   0  0  0  0  0  0  0  0  0  0  0  0
   35.4810   29.8280   40.2630 N   0  0  0  0  0  0  0  0  0  0  0  0
   37.6590   31.6710   38.6590 H   0  0  0  0  0  0  0  0  0  0  0  0
   36.9960   32.4620   41.1310 H   0  0  0  0  0  0  0  0  0  0  0  0
   35.2740   30.7970   42.0940 H   0  0  0  0  0  0  0  0  0  0  0  0
   38.3050   28.3220   38.6030 O   0  0  0  0  0  0  0  0  0  0  0  0
   38.4640   27.4280   39.6210 C   0  0  0  0  0  0  0  0  0  0  0  0
   38.9540   26.2470   39.5540 O   0  0  0  0  0  0  0  0  0  0  0  0
   38.0620   27.7170   41.0300 C   0  0  0  0  0  0  0  0  0  0  0  0
   37.1510   26.9260   41.6910 C   0  0  0  0  0  0  0  0  0  0  0  0
   36.6880   26.0660   41.2320 H   0  0  0  0  0  0  0  0  0  0  0  0
   36.7360   27.1470   43.0000 C   0  0  0  0  0  0  0  0  0  0  0  0
   36.0200   26.5100   43.4930 H   0  0  0  0  0  0  0  0  0  0  0  0
   37.2660   28.2210   43.6800 C   0  0  0  0  0  3  0  0  0  0  0  0
   38.1740   28.9910   42.9910 C   0  0  0  0  0  3  0  0  0  0  0  0
   38.5300   28.7290   41.7400 N   0  0  0  0  0  0  0  0  0  0  0  0
  1  2  1  0  0  0  0
  1 17  1  0  0  0  0
  2  9  1  0  0  0  0
  3  7  1  0  0  0  0
  3  2  2  0  0  0  0
  4  3  1  0  0  0  0
  5  4  2  0  0  0  0
  5  6  1  0  0  0  0
  6  1  2  0  0  0  0
  8  5  1  0  0  0  0
  9 10  1  0  0  0  0
  9 13  2  0  0  0  0
 10 11  2  0  0  0  0
 11 15  1  0  0  0  0
 11 12  1  0  0  0  0
 12 16  1  0  0  0  0
 13 12  1  0  0  0  0
 14 10  1  0  0  0  0
 17 18  1  0  0  0  0
 18 20  1  0  0  0  0
 19 18  2  0  0  0  0
 20 21  2  0  0  0  0
 20 27  1  0  0  0  0
 21 23  1  0  0  0  0
 22 21  1  0  0  0  0
 23 24  1  0  0  0  0
 23 25  2  0  0  0  0
 26 25  1  0  0  0  0
 27 26  2  0  0  0  0
M  END
>  <minimizedAffinity>
-4.96368456

$$$$

 OpenBabel03252508523D

 27 29  0  0  0  0  0  0  0  0999 V2000
   36.4120   30.0210   39.5990 C   0  0  0  0  0  0  0  0  0  0  0  0
   36.4670   28.7900   40.2440 C   0  0  0  0  0  0  0  0  0  0  0  0
   36.2090   27.6670   39.4520 C   0  0  0  0  0  0  0  0  0  0  0  0
   35.9270   27.8250   38.1350 N   0  0  0  0  0  0  0  0  0  0  0  0
   35.8880   29.0460   37.5640 C   0  0  0  0  0  0  0  0  0  0  0  0
   36.1310   30.1490   38.2950 N   0  0  0  0  0  0  0  0  0  0  0  0
   36.2450   26.7020   39.9270 H   0  0  0  0  0  0  0  0  0  0  0  0
   35.6570   29.0860   36.5070 H   0  0  0  0  0  0  0  0  0  0  0  0
   36.7790   28.7190   41.6560 C   0  0  0  0  0  0  0  0  0  0  0  0
   36.5080   27.5880   42.4260 C   0  0  0  0  0  0  0  0  0  0  0  0
   36.9520   27.9410   43.6790 C   0  0  0  0  0  0  0  0  0  0  0  0
   37.4610   29.2030   43.6740 N   0  0  0  0  0  0  0  0  0  0  0  0
   37.3360   29.6330   42.4360 N   0  0  0  0  0  0  0  0  0  0  0  0
   36.0640   26.6270   42.1940 H   0  0  0  0  0  0  0  0  0  0  0  0
   36.9470   27.3720   44.6100 H   0  0  0  0  0  0  0  0  0  0  0  0
   37.8770   29.7750   44.4410 H   0  0  0  0  0  0  0  0  0  0  0  0
   36.6600   31.1590   40.3470 O   0  0  0  0  0  0  0  0  0  0  0  0
   37.3980   32.2460   39.9830 C   0  0  0  0  0  0  0  0  0  0  0  0
   36.9670   33.3940   39.6120 O   0  0  0  0  0  0  0  0  0  0  0  0
   38.8910   32.2480   39.9600 C   0  0  0  0  0  0  0  0  0  0  0  0
   39.6240   32.0890   41.1140 C   0  0  0  0  0  0  0  0  0  0  0  0
   39.1640   31.9530   42.0810 H   0  0  0  0  0  0  0  0  0  0  0  0
   41.0150   32.0850   41.1560 C   0  0  0  0  0  0  0  0  0  0  0  0
   41.5620   31.9580   42.0760 H   0  0  0  0  0  0  0  0  0  0  0  0
   41.7030   32.2520   39.9760 C   0  0  0  0  0  3  0  0  0  0  0  0
   40.9420   32.4080   38.8420 C   0  0  0  0  0  3  0  0  0  0  0  0
   39.6150   32.4030   38.8660 N   0  0  0  0  0  0  0  0  0  0  0  0
  1  2  1  0  0  0  0
  1 17  1  0  0  0  0
  2  9  1  0  0  0  0
  3  7  1  0  0  0  0
  3  2  2  0  0  0  0
  4  3  1  0  0  0  0
  5  4  2  0  0  0  0
  5  6  1  0  0  0  0
  6  1  2  0  0  0  0
  8  5  1  0  0  0  0
  9 10  1  0  0  0  0
  9 13  2  0  0  0  0
 10 11  2  0  0  0  0
 11 15  1  0  0  0  0
 12 11  1  0  0  0  0
 12 16  1  0  0  0  0
 13 12  1  0  0  0  0
 14 10  1  0  0  0  0
 18 17  1  0  0  0  0
 19 18  2  0  0  0  0
 20 18  1  0  0  0  0
 20 21  1  0  0  0  0
 21 23  2  0  0  0  0
 21 22  1  0  0  0  0
 23 24  1  0  0  0  0
 25 23  1  0  0  0  0
 26 27  1  0  0  0  0
 26 25  2  0  0  0  0
 27 20  2  0  0  0  0
M  END
>  <minimizedAffinity>
-4.81696606

$$$$

 OpenBabel03252508523D

 27 29  0  0  0  0  0  0  0  0999 V2000
   36.7720   27.4250   41.4710 C   0  0  0  0  0  0  0  0  0  0  0  0
   36.6650   27.0420   40.1380 C   0  0  0  0  0  0  0  0  0  0  0  0
   36.8110   25.6770   39.8760 C   0  0  0  0  0  0  0  0  0  0  0  0
   37.0420   24.8180   40.8990 N   0  0  0  0  0  0  0  0  0  0  0  0
   37.1360   25.2480   42.1730 C   0  0  0  0  0  0  0  0  0  0  0  0
   37.0010   26.5540   42.4630 N   0  0  0  0  0  0  0  0  0  0  0  0
   36.7320   25.3540   38.8510 H   0  0  0  0  0  0  0  0  0  0  0  0
   37.3220   24.4980   42.9310 H   0  0  0  0  0  0  0  0  0  0  0  0
   36.4130   28.0320   39.1120 C   0  0  0  0  0  0  0  0  0  0  0  0
   35.1260   28.4580   38.7840 C   0  0  0  0  0  0  0  0  0  0  0  0
   35.3410   29.3790   37.7840 C   0  0  0  0  0  0  0  0  0  0  0  0
   36.6700   29.5060   37.5200 N   0  0  0  0  0  0  0  0  0  0  0  0
   37.2780   28.6760   38.3430 N   0  0  0  0  0  0  0  0  0  0  0  0
   34.1440   28.1950   39.1580 H   0  0  0  0  0  0  0  0  0  0  0  0
   34.6260   29.9770   37.2170 H   0  0  0  0  0  0  0  0  0  0  0  0
   37.1760   30.1060   36.8330 H   0  0  0  0  0  0  0  0  0  0  0  0
   36.6340   28.7680   41.7750 O   0  0  0  0  0  0  0  0  0  0  0  0
   37.6210   29.6490   42.1050 C   0  0  0  0  0  0  0  0  0  0  0  0
   38.4170   29.5910   43.1070 O   0  0  0  0  0  0  0  0  0  0  0  0
   37.9250   30.8720   41.3030 C   0  0  0  0  0  0  0  0  0  0  0  0
   36.9560   31.4910   40.5470 C   0  0  0  0  0  0  0  0  0  0  0  0
   35.9390   31.1310   40.4980 H   0  0  0  0  0  0  0  0  0  0  0  0
   37.1790   32.6280   39.7780 C   0  0  0  0  0  0  0  0  0  0  0  0
   36.3990   33.0910   39.1960 H   0  0  0  0  0  0  0  0  0  0  0  0
   38.4440   33.1700   39.7680 C   0  0  0  0  0  3  0  0  0  0  0  0
   39.3890   32.5290   40.5340 C   0  0  0  0  0  3  0  0  0  0  0  0
   39.1140   31.4440   41.2470 N   0  0  0  0  0  0  0  0  0  0  0  0
  1 17  1  0  0  0  0
  1  6  1  0  0  0  0
  2  1  2  0  0  0  0
  3  2  1  0  0  0  0
  3  4  2  0  0  0  0
  4  5  1  0  0  0  0
  5  6  2  0  0  0  0
  5  8  1  0  0  0  0
  7  3  1  0  0  0  0
  9  2  1  0  0  0  0
 10  9  1  0  0  0  0
 10 14  1  0  0  0  0
 11 10  2  0  0  0  0
 12 11  1  0  0  0  0
 12 13  1  0  0  0  0
 13  9  2  0  0  0  0
 15 11  1  0  0  0  0
 16 12  1  0  0  0  0
 17 18  1  0  0  0  0
 18 19  2  0  0  0  0
 20 18  1  0  0  0  0
 21 20  2  0  0  0  0
 22 21  1  0  0  0  0
 23 21  1  0  0  0  0
 24 23  1  0  0  0  0
 25 23  2  0  0  0  0
 25 26  1  0  0  0  0
 26 27  2  0  0  0  0
 27 20  1  0  0  0  0
M  END
>  <minimizedAffinity>
-4.73944569

$$$$

 OpenBabel03252508523D

 27 29  0  0  0  0  0  0  0  0999 V2000
   37.6590   27.6560   39.2090 C   0  0  0  0  0  0  0  0  0  0  0  0
   37.2390   26.9890   40.3550 C   0  0  0  0  0  0  0  0  0  0  0  0
   36.7800   25.6810   40.1720 C   0  0  0  0  0  0  0  0  0  0  0  0
   36.7660   25.1420   38.9290 N   0  0  0  0  0  0  0  0  0  0  0  0
   37.1860   25.8390   37.8540 C   0  0  0  0  0  0  0  0  0  0  0  0
   37.6350   27.0990   37.9910 N   0  0  0  0  0  0  0  0  0  0  0  0
   36.4490   25.1420   41.0440 H   0  0  0  0  0  0  0  0  0  0  0  0
   37.1430   25.3360   36.8960 H   0  0  0  0  0  0  0  0  0  0  0  0
   37.2940   27.6450   41.6440 C   0  0  0  0  0  0  0  0  0  0  0  0
   38.2560   27.3310   42.6040 C   0  0  0  0  0  0  0  0  0  0  0  0
   37.9470   28.1700   43.6500 C   0  0  0  0  0  0  0  0  0  0  0  0
   36.8700   28.9440   43.3490 N   0  0  0  0  0  0  0  0  0  0  0  0
   36.5090   28.5950   42.1320 N   0  0  0  0  0  0  0  0  0  0  0  0
   39.0770   26.6250   42.6210 H   0  0  0  0  0  0  0  0  0  0  0  0
   38.4280   28.2810   44.6240 H   0  0  0  0  0  0  0  0  0  0  0  0
   36.3770   29.6760   43.9050 H   0  0  0  0  0  0  0  0  0  0  0  0
   38.1210   28.9540   39.3450 O   0  0  0  0  0  0  0  0  0  0  0  0
   37.4650   30.1060   39.0240 C   0  0  0  0  0  0  0  0  0  0  0  0
   36.3800   30.2260   38.3530 O   0  0  0  0  0  0  0  0  0  0  0  0
   37.9480   31.4600   39.4280 C   0  0  0  0  0  0  0  0  0  0  0  0
   37.1390   32.5680   39.3270 C   0  0  0  0  0  0  0  0  0  0  0  0
   36.1260   32.5160   38.9570 H   0  0  0  0  0  0  0  0  0  0  0  0
   37.5340   33.8530   39.6840 C   0  0  0  0  0  0  0  0  0  0  0  0
   36.8780   34.7030   39.5940 H   0  0  0  0  0  0  0  0  0  0  0  0
   38.8100   34.0320   40.1690 C   0  0  0  0  0  3  0  0  0  0  0  0
   39.5930   32.9050   40.2580 C   0  0  0  0  0  3  0  0  0  0  0  0
   39.1580   31.7030   39.9000 N   0  0  0  0  0  0  0  0  0  0  0  0
  1 17  1  0  0  0  0
  1  2  1  0  0  0  0
  2  9  1  0  0  0  0
  3  2  2  0  0  0  0
  3  7  1  0  0  0  0
  4  3  1  0  0  0  0
  5  6  1  0  0  0  0
  5  4  2  0  0  0  0
  6  1  2  0  0  0  0
  8  5  1  0  0  0  0
  9 13  2  0  0  0  0
  9 10  1  0  0  0  0
 10 14  1  0  0  0  0
 10 11  2  0  0  0  0
 11 15  1  0  0  0  0
 12 11  1  0  0  0  0
 12 16  1  0  0  0  0
 13 12  1  0  0  0  0
 18 17  1  0  0  0  0
 18 20  1  0  0  0  0
 19 18  2  0  0  0  0
 20 27  1  0  0  0  0
 21 20  2  0  0  0  0
 21 23  1  0  0  0  0
 22 21  1  0  0  0  0
 23 25  2  0  0  0  0
 24 23  1  0  0  0  0
 25 26  1  0  0  0  0
 27 26  2  0  0  0  0
M  END
>  <minimizedAffinity>
-4.7075367

$$$$
