
 OpenBabel03252508493D

 27 29  0  0  0  0  0  0  0  0999 V2000
   45.9830   34.2300   41.0390 C   0  0  0  0  0  0  0  0  0  0  0  0
   46.5670   34.8060   42.1630 C   0  0  0  0  0  0  0  0  0  0  0  0
   47.9210   35.1350   42.0530 C   0  0  0  0  0  0  0  0  0  0  0  0
   48.5810   34.8850   40.8960 N   0  0  0  0  0  0  0  0  0  0  0  0
   47.9620   34.3230   39.8380 C   0  0  0  0  0  0  0  0  0  0  0  0
   46.6590   33.9940   39.9070 N   0  0  0  0  0  0  0  0  0  0  0  0
   48.3970   35.5830   42.9090 H   0  0  0  0  0  0  0  0  0  0  0  0
   48.5590   34.1580   38.9500 H   0  0  0  0  0  0  0  0  0  0  0  0
   45.7810   35.0380   43.3560 C   0  0  0  0  0  0  0  0  0  0  0  0
   45.1080   36.2370   43.5870 C   0  0  0  0  0  0  0  0  0  0  0  0
   44.5040   36.0340   44.8060 C   0  0  0  0  0  0  0  0  0  0  0  0
   44.7900   34.7940   45.2880 N   0  0  0  0  0  0  0  0  0  0  0  0
   45.5620   34.2290   44.3820 N   0  0  0  0  0  0  0  0  0  0  0  0
   45.0190   37.1540   43.0170 H   0  0  0  0  0  0  0  0  0  0  0  0
   43.8700   36.7000   45.3940 H   0  0  0  0  0  0  0  0  0  0  0  0
   44.5010   34.3200   46.1710 H   0  0  0  0  0  0  0  0  0  0  0  0
   44.6440   33.8870   41.1050 O   0  0  0  0  0  0  0  0  0  0  0  0
   43.5840   34.5840   40.6040 C   0  0  0  0  0  0  0  0  0  0  0  0
   43.2950   35.8160   40.8050 O   0  0  0  0  0  0  0  0  0  0  0  0
   42.5570   33.9750   39.7080 C   0  0  0  0  0  0  0  0  0  0  0  0
   42.4970   32.6150   39.5100 C   0  0  0  0  0  0  0  0  0  0  0  0
   43.1800   31.9270   39.9880 H   0  0  0  0  0  0  0  0  0  0  0  0
   41.5670   31.9890   38.6870 C   0  0  0  0  0  0  0  0  0  0  0  0
   41.5440   30.9210   38.5500 H   0  0  0  0  0  0  0  0  0  0  0  0
   40.6480   32.7740   38.0270 C   0  0  0  0  0  3  0  0  0  0  0  0
   40.7340   34.1290   38.2470 C   0  0  0  0  0  3  0  0  0  0  0  0
   41.6470   34.6680   39.0460 N   0  0  0  0  0  0  0  0  0  0  0  0
  1 17  1  0  0  0  0
  1  2  1  0  0  0  0
  2  9  1  0  0  0  0
  3  2  2  0  0  0  0
  3  7  1  0  0  0  0
  4  3  1  0  0  0  0
  5  6  1  0  0  0  0
  5  4  2  0  0  0  0
  6  1  2  0  0  0  0
  8  5  1  0  0  0  0
  9 10  1  0  0  0  0
  9 13  2  0  0  0  0
 10 11  2  0  0  0  0
 11 12  1  0  0  0  0
 11 15  1  0  0  0  0
 12 16  1  0  0  0  0
 13 12  1  0  0  0  0
 14 10  1  0  0  0  0
 18 19  2  0  0  0  0
 18 17  1  0  0  0  0
 20 18  1  0  0  0  0
 21 20  1  0  0  0  0
 21 22  1  0  0  0  0
 23 21  2  0  0  0  0
 24 23  1  0  0  0  0
 25 26  2  0  0  0  0
 25 23  1  0  0  0  0
 26 27  1  0  0  0  0
 27 20  2  0  0  0  0
M  END
>  <minimizedAffinity>
-5.27104568

>  <minimizedRMSD>
0.584706247

$$$$
