
 OpenBabel03252508503D

 27 29  0  0  0  0  0  0  0  0999 V2000
   45.9260   34.2350   41.0350 C   0  0  0  0  0  0  0  0  0  0  0  0
   46.5260   34.7980   42.1560 C   0  0  0  0  0  0  0  0  0  0  0  0
   47.8860   35.1010   42.0400 C   0  0  0  0  0  0  0  0  0  0  0  0
   48.5350   34.8420   40.8780 N   0  0  0  0  0  0  0  0  0  0  0  0
   47.8990   34.2940   39.8230 C   0  0  0  0  0  0  0  0  0  0  0  0
   46.5910   33.9890   39.8980 N   0  0  0  0  0  0  0  0  0  0  0  0
   48.3750   35.5390   42.8940 H   0  0  0  0  0  0  0  0  0  0  0  0
   48.4890   34.1190   38.9320 H   0  0  0  0  0  0  0  0  0  0  0  0
   45.7510   35.0420   43.3540 C   0  0  0  0  0  0  0  0  0  0  0  0
   45.1100   36.2570   43.5960 C   0  0  0  0  0  0  0  0  0  0  0  0
   44.5070   36.0610   44.8170 C   0  0  0  0  0  0  0  0  0  0  0  0
   44.7620   34.8100   45.2890 N   0  0  0  0  0  0  0  0  0  0  0  0
   45.5150   34.2320   44.3760 N   0  0  0  0  0  0  0  0  0  0  0  0
   45.0430   37.1800   43.0330 H   0  0  0  0  0  0  0  0  0  0  0  0
   43.8920   36.7390   45.4110 H   0  0  0  0  0  0  0  0  0  0  0  0
   44.4640   34.3380   46.1690 H   0  0  0  0  0  0  0  0  0  0  0  0
   44.5810   33.9180   41.1070 O   0  0  0  0  0  0  0  0  0  0  0  0
   43.5300   34.6440   40.6280 C   0  0  0  0  0  0  0  0  0  0  0  0
   43.2680   35.8780   40.8500 O   0  0  0  0  0  0  0  0  0  0  0  0
   42.4820   34.0690   39.7330 C   0  0  0  0  0  0  0  0  0  0  0  0
   41.6030   34.8770   39.0500 C   0  0  0  0  0  0  0  0  0  0  0  0
   41.6280   35.9540   39.1200 H   0  0  0  0  0  0  0  0  0  0  0  0
   40.6050   34.4000   38.2050 C   0  0  0  0  0  0  0  0  0  0  0  0
   39.9320   35.0560   37.6820 H   0  0  0  0  0  0  0  0  0  0  0  0
   40.4860   33.0380   38.0420 C   0  0  0  0  0  3  0  0  0  0  0  0
   41.3790   32.2580   38.7390 C   0  0  0  0  0  3  0  0  0  0  0  0
   42.3110   32.7740   39.5310 N   0  0  0  0  0  0  0  0  0  0  0  0
  1 17  1  0  0  0  0
  1  2  1  0  0  0  0
  2  9  1  0  0  0  0
  3  2  2  0  0  0  0
  3  7  1  0  0  0  0
  4  3  1  0  0  0  0
  5  6  1  0  0  0  0
  5  4  2  0  0  0  0
  6  1  2  0  0  0  0
  8  5  1  0  0  0  0
  9 10  1  0  0  0  0
  9 13  2  0  0  0  0
 10 11  2  0  0  0  0
 11 12  1  0  0  0  0
 11 15  1  0  0  0  0
 12 16  1  0  0  0  0
 13 12  1  0  0  0  0
 14 10  1  0  0  0  0
 18 19  2  0  0  0  0
 18 17  1  0  0  0  0
 20 18  1  0  0  0  0
 21 22  1  0  0  0  0
 21 20  2  0  0  0  0
 23 21  1  0  0  0  0
 24 23  1  0  0  0  0
 25 23  2  0  0  0  0
 25 26  1  0  0  0  0
 26 27  2  0  0  0  0
 27 20  1  0  0  0  0
M  END
>  <minimizedAffinity>
-5.42043304

>  <minimizedRMSD>
0.683795989

$$$$
