
 OpenBabel03252508023D

 41 44  0  0  1  0  0  0  0  0999 V2000
   42.0720   33.2640   41.1390 C   0  0  0  0  0  0  0  0  0  0  0  0
   42.7920   34.4050   41.3300 C   0  0  0  0  0  0  0  0  0  0  0  0
   42.1110   35.6340   41.2890 C   0  0  0  0  0  0  0  0  0  0  0  0
   40.7620   35.7400   41.0680 C   0  0  0  0  0  0  0  0  0  0  0  0
   40.0430   34.5910   40.8790 C   0  0  0  0  0  0  0  0  0  0  0  0
   40.6960   33.3950   40.9170 C   0  0  0  0  0  0  0  0  0  0  0  0
   42.6050   36.5870   41.4190 H   0  0  0  0  0  0  0  0  0  0  0  0
   40.2480   36.6640   41.0380 H   0  0  0  0  0  0  0  0  0  0  0  0
   38.9820   34.5820   40.7010 H   0  0  0  0  0  0  0  0  0  0  0  0
   40.1230   32.4860   40.7650 H   0  0  0  0  0  0  0  0  0  0  0  0
   42.7560   31.7230   41.2250 S   0  0  0  0  0  0  0  0  0  0  0  0
   41.7430   30.8870   40.4100 O   0  0  0  0  0  0  0  0  0  0  0  0
   42.7580   31.1790   42.6160 O   0  0  0  0  0  0  0  0  0  0  0  0
   44.0020   31.0430   40.3130 C   0  0  0  0  0  0  0  0  0  0  0  0
   43.9100   31.2920   38.9180 C   0  0  0  0  0  0  0  0  0  0  0  0
   43.0580   31.8320   38.4650 H   0  0  0  0  0  0  0  0  0  0  0  0
   44.8520   30.8920   38.0040 C   0  0  0  0  0  0  0  0  0  0  0  0
   44.7600   31.0940   36.9480 H   0  0  0  0  0  0  0  0  0  0  0  0
   45.9190   30.2200   38.5130 C   0  0  0  0  0  3  0  0  0  0  0  0
   46.0830   29.9420   39.8390 C   0  0  0  0  0  3  0  0  0  0  0  0
   45.1200   30.3680   40.6470 N   0  0  0  0  0  0  0  0  0  0  0  0
   44.2350   34.3930   41.5570 C   0  0  0  0  0  0  0  0  0  0  0  0
   45.1150   34.3210   40.6270 O   0  0  0  0  0  0  0  0  0  0  0  0
   44.5850   34.4720   42.9440 C   0  0  0  0  0  0  0  0  0  0  0  0
   44.3080   35.7200   43.5830 C   0  0  0  0  0  0  0  0  0  0  0  0
   44.6300   35.8150   44.9320 C   0  0  0  0  0  0  0  0  0  0  0  0
   45.1780   34.7350   45.5460 N   0  0  0  0  0  0  0  0  0  0  0  0
   45.4240   33.5570   44.8880 C   0  0  0  0  0  0  0  0  0  0  0  0
   45.1250   33.4730   43.6390 N   0  0  0  0  0  0  0  0  0  0  0  0
   43.8840   36.6180   43.1810 H   0  0  0  0  0  0  0  0  0  0  0  0
   44.4630   36.7220   45.5270 H   0  0  0  0  0  0  0  0  0  0  0  0
   46.0130   32.4380   45.6440 C   0  0  1  0  0  0  0  0  0  0  0  0
   46.9630   32.7400   46.7820 C   0  0  0  0  0  0  0  0  0  0  0  0
   45.5470   32.3290   47.0530 C   0  0  1  0  0  0  0  0  0  0  0  0
   46.2340   31.5150   45.1130 H   0  0  0  0  0  0  0  0  0  0  0  0
   47.2910   33.7850   46.8930 H   0  0  0  0  0  0  0  0  0  0  0  0
   47.7190   31.9770   47.0540 H   0  0  0  0  0  0  0  0  0  0  0  0
   45.3610   31.3330   47.5270 H   0  0  0  0  0  0  0  0  0  0  0  0
   44.7750   33.3990   47.6490 N   0  0  0  0  0  0  0  0  0  0  0  0
   43.7930   33.1640   47.8190 H   0  0  0  0  0  0  0  0  0  0  0  0
   45.2620   33.9210   48.3830 H   0  0  0  0  0  0  0  0  0  0  0  0
  1 11  1  0  0  0  0
  1  2  1  0  0  0  0
  2 22  1  0  0  0  0
  3  2  2  0  0  0  0
  3  7  1  0  0  0  0
  4  3  1  0  0  0  0
  5  6  1  0  0  0  0
  5  4  2  0  0  0  0
  6  1  2  0  0  0  0
  8  4  1  0  0  0  0
  9  5  1  0  0  0  0
 10  6  1  0  0  0  0
 11 13  2  0  0  0  0
 12 11  2  0  0  0  0
 14 21  1  0  0  0  0
 14 11  1  0  0  0  0
 15 14  2  0  0  0  0
 16 15  1  0  0  0  0
 17 19  2  0  0  0  0
 17 15  1  0  0  0  0
 18 17  1  0  0  0  0
 19 20  1  0  0  0  0
 20 21  2  0  0  0  0
 22 24  1  0  0  0  0
 23 22  2  0  0  0  0
 24 25  2  0  0  0  0
 24 29  1  0  0  0  0
 25 26  1  0  0  0  0
 26 31  1  0  0  0  0
 26 27  2  0  0  0  0
 28 27  1  0  0  0  0
 28 32  1  0  0  0  0
 29 28  2  0  0  0  0
 30 25  1  0  0  0  0
 32 35  1  6  0  0  0
 32 33  1  0  0  0  0
 32 34  1  0  0  0  0
 33 36  1  0  0  0  0
 33 34  1  0  0  0  0
 33 37  1  0  0  0  0
 34 38  1  1  0  0  0
 34 39  1  0  0  0  0
 39 40  1  0  0  0  0
 39 41  1  0  0  0  0
M  END
>  <minimizedAffinity>
-5.75174332

>  <minimizedRMSD>
1.18787968

$$$$
