REMARK  Name = 
REMARK  6 active torsions:
REMARK  status: ('A' for Active; 'I' for Inactive)
REMARK    1  A    between atoms: C_1  and  C_11
REMARK    2  A    between atoms: C_5  and  C_7
REMARK    3  A    between atoms: C_9  and  N_10
REMARK    4  A    between atoms: C_11  and  C_14
REMARK    5  A    between atoms: C_13  and  S_19
REMARK    6  A    between atoms: S_19  and  C_34
REMARK                            x       y       z     vdW  Elec       q    Type
REMARK                         _______ _______ _______ _____ _____    ______ ____
ROOT
ATOM      1  C   UNL     1      41.987  33.317  41.313  0.00  0.00    +0.000 A 
ATOM      2  C   UNL     1      42.801  34.410  41.318  0.00  0.00    +0.000 A 
ATOM      3  C   UNL     1      42.225  35.668  41.073  0.00  0.00    +0.000 A 
ATOM      4  C   UNL     1      40.888  35.849  40.831  0.00  0.00    +0.000 A 
ATOM      5  C   UNL     1      40.074  34.749  40.828  0.00  0.00    +0.000 A 
ATOM      6  C   UNL     1      40.625  33.525  41.064  0.00  0.00    +0.000 A 
ATOM      7  H   UNL     1      42.798  36.585  41.049  0.00  0.00    +0.000 HD
ATOM      8  H   UNL     1      40.453  36.796  40.647  0.00  0.00    +0.000 HD
ATOM      9  H   UNL     1      39.014  34.800  40.648  0.00  0.00    +0.000 HD
ATOM     10  H   UNL     1      39.977  32.655  41.060  0.00  0.00    +0.000 HD
ENDROOT
BRANCH   1  11
ATOM     11  S   UNL     1      42.541  31.759  41.653  0.00  0.00    +0.000 S 
ATOM     12  O   UNL     1      42.396  31.070  40.276  0.00  0.00    +0.000 OA
ATOM     13  O   UNL     1      41.647  31.034  42.605  0.00  0.00    +0.000 OA
BRANCH  11  14
ATOM     14  C   UNL     1      44.119  31.171  41.745  0.00  0.00    +0.000 A 
ATOM     15  C   UNL     1      44.301  29.887  41.166  0.00  0.00    +0.000 A 
ATOM     16  H   UNL     1      43.463  29.299  40.746  0.00  0.00    +0.000 HD
ATOM     17  C   UNL     1      45.515  29.255  41.069  0.00  0.00    +0.000 A 
ATOM     18  H   UNL     1      45.628  28.279  40.623  0.00  0.00    +0.000 HD
ATOM     19  C   UNL     1      46.577  29.938  41.573  0.00  0.00    +0.000 A 
ATOM     20  C   UNL     1      46.487  31.173  42.146  0.00  0.00    +0.000 A 
ATOM     21  N   UNL     1      45.273  31.705  42.194  0.00  0.00    +0.000 NA
ENDBRANCH  11  14
ENDBRANCH   1  11
BRANCH   2  22
ATOM     22  C   UNL     1      44.240  34.314  41.552  0.00  0.00    +0.000 C 
ATOM     23  O   UNL     1      45.116  34.149  40.630  0.00  0.00    +0.000 OA
BRANCH  22  24
ATOM     24  C   UNL     1      44.592  34.426  42.937  0.00  0.00    +0.000 A 
ATOM     25  C   UNL     1      44.313  35.687  43.548  0.00  0.00    +0.000 A 
ATOM     26  C   UNL     1      44.636  35.814  44.894  0.00  0.00    +0.000 A 
ATOM     27  N   UNL     1      45.187  34.749  45.531  0.00  0.00    +0.000 NA
ATOM     28  C   UNL     1      45.435  33.557  44.900  0.00  0.00    +0.000 A 
ATOM     29  N   UNL     1      45.135  33.444  43.654  0.00  0.00    +0.000 NA
ATOM     30  H   UNL     1      43.886  36.575  43.126  0.00  0.00    +0.000 HD
ATOM     31  H   UNL     1      44.468  36.734  45.468  0.00  0.00    +0.000 HD
BRANCH  28  32
ATOM     32  C   UNL     1      46.027  32.457  45.681  0.00  0.00    +0.000 C 
ATOM     33  C   UNL     1      46.959  32.787  46.826  0.00  0.00    +0.000 C 
ATOM     34  C   UNL     1      45.544  32.364  47.085  0.00  0.00    +0.000 C 
ATOM     35  H   UNL     1      46.266  31.528  45.167  0.00  0.00    +0.000 HD
ATOM     36  H   UNL     1      47.273  33.838  46.925  0.00  0.00    +0.000 HD
ATOM     37  H   UNL     1      47.720  32.038  47.119  0.00  0.00    +0.000 HD
ATOM     38  H   UNL     1      45.364  31.373  47.572  0.00  0.00    +0.000 HD
BRANCH  34  39
ATOM     39  N   UNL     1      44.752  33.434  47.655  0.00  0.00    +0.000 NA
ATOM     40  H   UNL     1      43.771  33.190  47.816  0.00  0.00    +0.000 HD
ATOM     41  H   UNL     1      45.224  33.973  48.387  0.00  0.00    +0.000 HD
ENDBRANCH  34  39
ENDBRANCH  28  32
ENDBRANCH  22  24
ENDBRANCH   2  22
TORSDOF 6
