
 OpenBabel03252508023D

 41 44  0  0  1  0  0  0  0  0999 V2000
   42.0680   33.2620   41.1580 C   0  0  0  0  0  0  0  0  0  0  0  0
   42.7980   34.3990   41.3310 C   0  0  0  0  0  0  0  0  0  0  0  0
   42.1300   35.6340   41.2690 C   0  0  0  0  0  0  0  0  0  0  0  0
   40.7820   35.7490   41.0440 C   0  0  0  0  0  0  0  0  0  0  0  0
   40.0530   34.6040   40.8720 C   0  0  0  0  0  0  0  0  0  0  0  0
   40.6940   33.4030   40.9300 C   0  0  0  0  0  0  0  0  0  0  0  0
   42.6330   36.5840   41.3850 H   0  0  0  0  0  0  0  0  0  0  0  0
   40.2780   36.6780   40.9980 H   0  0  0  0  0  0  0  0  0  0  0  0
   38.9920   34.6030   40.6920 H   0  0  0  0  0  0  0  0  0  0  0  0
   40.1120   32.4970   40.7920 H   0  0  0  0  0  0  0  0  0  0  0  0
   42.7370   31.7160   41.2700 S   0  0  0  0  0  0  0  0  0  0  0  0
   41.6780   30.8640   40.5330 O   0  0  0  0  0  0  0  0  0  0  0  0
   42.7960   31.2240   42.6790 O   0  0  0  0  0  0  0  0  0  0  0  0
   43.9320   30.9870   40.3290 C   0  0  0  0  0  0  0  0  0  0  0  0
   44.4500   29.7800   40.8710 C   0  0  0  0  0  0  0  0  0  0  0  0
   44.1380   29.3880   41.8570 H   0  0  0  0  0  0  0  0  0  0  0  0
   45.3750   28.9900   40.2370 C   0  0  0  0  0  0  0  0  0  0  0  0
   45.7530   28.0770   40.6690 H   0  0  0  0  0  0  0  0  0  0  0  0
   45.7920   29.4310   39.0200 C   0  0  0  0  0  3  0  0  0  0  0  0
   45.3450   30.5780   38.4310 C   0  0  0  0  0  3  0  0  0  0  0  0
   44.4510   31.2760   39.1190 N   0  0  0  0  0  0  0  0  0  0  0  0
   44.2410   34.3770   41.5620 C   0  0  0  0  0  0  0  0  0  0  0  0
   45.1230   34.2910   40.6350 O   0  0  0  0  0  0  0  0  0  0  0  0
   44.5890   34.4630   42.9500 C   0  0  0  0  0  0  0  0  0  0  0  0
   44.3060   35.7120   43.5830 C   0  0  0  0  0  0  0  0  0  0  0  0
   44.6260   35.8140   44.9320 C   0  0  0  0  0  0  0  0  0  0  0  0
   45.1760   34.7380   45.5510 N   0  0  0  0  0  0  0  0  0  0  0  0
   45.4280   33.5590   44.8980 C   0  0  0  0  0  0  0  0  0  0  0  0
   45.1320   33.4690   43.6500 N   0  0  0  0  0  0  0  0  0  0  0  0
   43.8790   36.6070   43.1770 H   0  0  0  0  0  0  0  0  0  0  0  0
   44.4550   36.7230   45.5230 H   0  0  0  0  0  0  0  0  0  0  0  0
   46.0200   32.4450   45.6600 C   0  0  1  0  0  0  0  0  0  0  0  0
   46.9640   32.7550   46.8010 C   0  0  0  0  0  0  0  0  0  0  0  0
   45.5480   32.3380   47.0670 C   0  0  1  0  0  0  0  0  0  0  0  0
   46.2480   31.5210   45.1320 H   0  0  0  0  0  0  0  0  0  0  0  0
   47.2860   33.8020   46.9100 H   0  0  0  0  0  0  0  0  0  0  0  0
   47.7220   31.9970   47.0780 H   0  0  0  0  0  0  0  0  0  0  0  0
   45.3660   31.3420   47.5430 H   0  0  0  0  0  0  0  0  0  0  0  0
   44.7690   33.4060   47.6580 N   0  0  0  0  0  0  0  0  0  0  0  0
   43.7880   33.1660   47.8240 H   0  0  0  0  0  0  0  0  0  0  0  0
   45.2510   33.9330   48.3920 H   0  0  0  0  0  0  0  0  0  0  0  0
  1 11  1  0  0  0  0
  1  2  1  0  0  0  0
  2 22  1  0  0  0  0
  3  2  2  0  0  0  0
  3  7  1  0  0  0  0
  4  3  1  0  0  0  0
  5  6  1  0  0  0  0
  5  4  2  0  0  0  0
  6  1  2  0  0  0  0
  8  4  1  0  0  0  0
  9  5  1  0  0  0  0
 10  6  1  0  0  0  0
 11 13  2  0  0  0  0
 12 11  2  0  0  0  0
 14 15  1  0  0  0  0
 14 11  1  0  0  0  0
 15 16  1  0  0  0  0
 17 18  1  0  0  0  0
 17 15  2  0  0  0  0
 19 17  1  0  0  0  0
 20 19  2  0  0  0  0
 20 21  1  0  0  0  0
 21 14  2  0  0  0  0
 22 24  1  0  0  0  0
 23 22  2  0  0  0  0
 24 25  2  0  0  0  0
 24 29  1  0  0  0  0
 25 26  1  0  0  0  0
 26 31  1  0  0  0  0
 26 27  2  0  0  0  0
 28 27  1  0  0  0  0
 28 32  1  0  0  0  0
 29 28  2  0  0  0  0
 30 25  1  0  0  0  0
 32 35  1  6  0  0  0
 32 33  1  0  0  0  0
 32 34  1  0  0  0  0
 33 36  1  0  0  0  0
 33 34  1  0  0  0  0
 33 37  1  0  0  0  0
 34 38  1  1  0  0  0
 34 39  1  0  0  0  0
 39 40  1  0  0  0  0
 39 41  1  0  0  0  0
M  END
>  <minimizedAffinity>
-5.6865344

>  <minimizedRMSD>
1.19509268

$$$$
