
 OpenBabel03252508023D

 41 44  0  0  1  0  0  0  0  0999 V2000
   42.0860   33.2560   41.1630 C   0  0  0  0  0  0  0  0  0  0  0  0
   42.8000   34.4040   41.3360 C   0  0  0  0  0  0  0  0  0  0  0  0
   42.1130   35.6290   41.2720 C   0  0  0  0  0  0  0  0  0  0  0  0
   40.7640   35.7240   41.0470 C   0  0  0  0  0  0  0  0  0  0  0  0
   40.0510   34.5690   40.8750 C   0  0  0  0  0  0  0  0  0  0  0  0
   40.7100   33.3770   40.9350 C   0  0  0  0  0  0  0  0  0  0  0  0
   42.6020   36.5860   41.3880 H   0  0  0  0  0  0  0  0  0  0  0  0
   40.2460   36.6460   40.9990 H   0  0  0  0  0  0  0  0  0  0  0  0
   38.9900   34.5510   40.6950 H   0  0  0  0  0  0  0  0  0  0  0  0
   40.1420   32.4630   40.7980 H   0  0  0  0  0  0  0  0  0  0  0  0
   42.7780   31.7200   41.2770 S   0  0  0  0  0  0  0  0  0  0  0  0
   41.8120   30.8790   40.4090 O   0  0  0  0  0  0  0  0  0  0  0  0
   42.7150   31.1710   42.6650 O   0  0  0  0  0  0  0  0  0  0  0  0
   44.0720   31.0540   40.4260 C   0  0  0  0  0  0  0  0  0  0  0  0
   45.2130   30.7690   41.2230 C   0  0  0  0  0  0  0  0  0  0  0  0
   45.2660   31.0210   42.2980 H   0  0  0  0  0  0  0  0  0  0  0  0
   46.3490   30.1600   40.7480 C   0  0  0  0  0  0  0  0  0  0  0  0
   47.2020   29.9530   41.3740 H   0  0  0  0  0  0  0  0  0  0  0  0
   46.3310   29.8320   39.4290 C   0  0  0  0  0  3  0  0  0  0  0  0
   45.2770   30.0720   38.5960 C   0  0  0  0  0  3  0  0  0  0  0  0
   44.2250   30.6620   39.1450 N   0  0  0  0  0  0  0  0  0  0  0  0
   44.2420   34.4030   41.5660 C   0  0  0  0  0  0  0  0  0  0  0  0
   45.1260   34.3430   40.6390 O   0  0  0  0  0  0  0  0  0  0  0  0
   44.5890   34.4780   42.9550 C   0  0  0  0  0  0  0  0  0  0  0  0
   44.3070   35.7220   43.5990 C   0  0  0  0  0  0  0  0  0  0  0  0
   44.6240   35.8130   44.9490 C   0  0  0  0  0  0  0  0  0  0  0  0
   45.1730   34.7320   45.5600 N   0  0  0  0  0  0  0  0  0  0  0  0
   45.4230   33.5570   44.8980 C   0  0  0  0  0  0  0  0  0  0  0  0
   45.1290   33.4770   43.6480 N   0  0  0  0  0  0  0  0  0  0  0  0
   43.8820   36.6210   43.1990 H   0  0  0  0  0  0  0  0  0  0  0  0
   44.4540   36.7180   45.5460 H   0  0  0  0  0  0  0  0  0  0  0  0
   46.0120   32.4360   45.6520 C   0  0  1  0  0  0  0  0  0  0  0  0
   46.9650   32.7350   46.7880 C   0  0  0  0  0  0  0  0  0  0  0  0
   45.5480   32.3260   47.0610 C   0  0  1  0  0  0  0  0  0  0  0  0
   46.2310   31.5130   45.1190 H   0  0  0  0  0  0  0  0  0  0  0  0
   47.2940   33.7800   46.9000 H   0  0  0  0  0  0  0  0  0  0  0  0
   47.7200   31.9710   47.0580 H   0  0  0  0  0  0  0  0  0  0  0  0
   45.3620   31.3300   47.5350 H   0  0  0  0  0  0  0  0  0  0  0  0
   44.7790   33.3970   47.6610 N   0  0  0  0  0  0  0  0  0  0  0  0
   43.7970   33.1630   47.8320 H   0  0  0  0  0  0  0  0  0  0  0  0
   45.2690   33.9170   48.3940 H   0  0  0  0  0  0  0  0  0  0  0  0
  1 11  1  0  0  0  0
  1  2  1  0  0  0  0
  2 22  1  0  0  0  0
  3  2  2  0  0  0  0
  3  7  1  0  0  0  0
  4  3  1  0  0  0  0
  5  6  1  0  0  0  0
  5  4  2  0  0  0  0
  6  1  2  0  0  0  0
  8  4  1  0  0  0  0
  9  5  1  0  0  0  0
 10  6  1  0  0  0  0
 11 13  2  0  0  0  0
 12 11  2  0  0  0  0
 14 15  1  0  0  0  0
 14 11  1  0  0  0  0
 15 16  1  0  0  0  0
 17 15  2  0  0  0  0
 17 18  1  0  0  0  0
 19 17  1  0  0  0  0
 20 21  1  0  0  0  0
 20 19  2  0  0  0  0
 21 14  2  0  0  0  0
 22 24  1  0  0  0  0
 23 22  2  0  0  0  0
 24 25  2  0  0  0  0
 24 29  1  0  0  0  0
 25 26  1  0  0  0  0
 26 31  1  0  0  0  0
 26 27  2  0  0  0  0
 28 27  1  0  0  0  0
 28 32  1  0  0  0  0
 29 28  2  0  0  0  0
 30 25  1  0  0  0  0
 32 35  1  6  0  0  0
 32 33  1  0  0  0  0
 32 34  1  0  0  0  0
 33 36  1  0  0  0  0
 33 37  1  0  0  0  0
 33 34  1  0  0  0  0
 34 38  1  1  0  0  0
 34 39  1  0  0  0  0
 39 40  1  0  0  0  0
 39 41  1  0  0  0  0
M  END
>  <minimizedAffinity>
-5.69831896

>  <minimizedRMSD>
1.13318717

$$$$
