
 OpenBabel03252507443D

 36 38  0  0  0  0  0  0  0  0999 V2000
   47.4480   34.6100   40.8640 C   0  0  0  0  0  0  0  0  0  0  0  0
   47.7260   35.5670   40.3410 H   0  0  0  0  0  0  0  0  0  0  0  0
   46.8070   34.0220   40.2020 H   0  0  0  0  0  0  0  0  0  0  0  0
   48.6890   33.9180   41.2260 C   0  0  0  0  0  0  0  0  0  0  0  0
   48.9240   32.7140   40.5850 C   0  0  0  0  0  0  0  0  0  0  0  0
   50.0560   31.9430   40.8220 C   0  0  0  0  0  0  0  0  0  0  0  0
   50.9420   32.4570   41.7480 N   0  0  0  0  0  0  0  0  0  0  0  0
   50.6860   33.6330   42.3570 C   0  0  0  0  0  0  0  0  0  0  0  0
   49.5890   34.3300   42.0920 N   0  0  0  0  0  0  0  0  0  0  0  0
   50.2460   31.0110   40.3320 H   0  0  0  0  0  0  0  0  0  0  0  0
   51.3860   34.0490   43.0940 H   0  0  0  0  0  0  0  0  0  0  0  0
   47.7440   32.0790   39.3570 S   0  0  0  0  0  0  0  0  0  0  0  0
   46.2910   31.4430   40.1410 C   0  0  0  0  0  0  0  0  0  0  0  0
   46.0910   31.2180   41.5000 C   0  0  0  0  0  0  0  0  0  0  0  0
   46.9310   31.4710   42.1030 H   0  0  0  0  0  0  0  0  0  0  0  0
   44.8820   30.7140   41.9230 C   0  0  0  0  0  0  0  0  0  0  0  0
   44.7710   30.5560   42.9760 H   0  0  0  0  0  0  0  0  0  0  0  0
   43.8480   30.4180   41.0550 C   0  0  0  0  0  0  0  0  0  0  0  0
   44.1010   30.6610   39.7210 C   0  0  0  0  0  0  0  0  0  0  0  0
   45.2890   31.1590   39.2700 N   0  0  0  0  0  0  0  0  0  0  0  0
   46.6290   34.9780   42.0620 C   0  0  0  0  0  0  0  0  0  0  0  0
   46.8600   34.3750   42.9650 H   0  0  0  0  0  0  0  0  0  0  0  0
   46.8930   36.0290   42.3470 H   0  0  0  0  0  0  0  0  0  0  0  0
   45.1610   34.9380   41.8070 C   0  0  0  0  0  0  0  0  0  0  0  0
   44.2620   35.5120   42.7660 C   0  0  0  0  0  0  0  0  0  0  0  0
   42.6160   35.2160   42.0130 S   0  0  0  0  0  0  0  0  0  0  0  0
   43.4270   34.3610   40.5190 C   0  0  0  0  0  0  0  0  0  0  0  0
   44.5350   34.4290   40.7800 N   0  0  0  0  0  0  0  0  0  0  0  0
   44.5270   35.9920   43.6960 H   0  0  0  0  0  0  0  0  0  0  0  0
   42.6970   33.8320   39.4410 O   0  0  0  0  0  0  0  0  0  0  0  0
   40.6880   34.1750   37.7470 O   0  0  0  0  0  0  0  0  0  0  0  0
   41.7400   34.9240   38.5540 P   0  0  0  0  0  0  0  0  0  0  0  0
   40.9810   35.9690   39.6410 O   0  0  0  0  0  0  0  0  0  0  0  0
   40.2770   35.4910   40.1510 H   0  0  0  0  0  0  0  0  0  0  0  0
   42.7360   35.8390   37.5280 O   0  0  0  0  0  0  0  0  0  0  0  0
   42.9970   36.7030   37.9560 H   0  0  0  0  0  0  0  0  0  0  0  0
  1  4  1  0  0  0  0
  1 21  1  0  0  0  0
  2  1  1  0  0  0  0
  3  1  1  0  0  0  0
  4  9  1  0  0  0  0
  5  6  1  0  0  0  0
  5  4  2  0  0  0  0
  6  7  2  0  0  0  0
  7  8  1  0  0  0  0
  8 11  1  0  0  0  0
  9  8  2  0  0  0  0
 10  6  1  0  0  0  0
 12 13  1  0  0  0  0
 12  5  1  0  0  0  0
 13 14  1  0  0  0  0
 14 16  2  0  0  0  0
 14 15  1  0  0  0  0
 16 17  1  0  0  0  0
 18 16  1  0  0  0  0
 19 18  2  0  0  0  0
 20 19  1  0  0  0  0
 20 13  2  0  0  0  0
 21 23  1  0  0  0  0
 21 22  1  0  0  0  0
 24 21  1  0  0  0  0
 24 25  2  0  0  0  0
 25 29  1  0  0  0  0
 26 25  1  0  0  0  0
 27 28  2  0  0  0  0
 27 26  1  0  0  0  0
 28 24  1  0  0  0  0
 30 27  1  0  0  0  0
 31 32  2  0  0  0  0
 32 30  1  0  0  0  0
 32 33  1  0  0  0  0
 33 34  1  0  0  0  0
 35 36  1  0  0  0  0
 35 32  1  0  0  0  0
M  END
>  <minimizedAffinity>
-4.42910194

>  <minimizedRMSD>
1.12509251

$$$$
