
 OpenBabel03252507453D

 36 38  0  0  0  0  0  0  0  0999 V2000
   47.1960   34.4680   40.9040 C   0  0  0  0  0  0  0  0  0  0  0  0
   47.3550   35.3130   40.1780 H   0  0  0  0  0  0  0  0  0  0  0  0
   46.6070   33.6890   40.4130 H   0  0  0  0  0  0  0  0  0  0  0  0
   48.5130   34.0000   41.3460 C   0  0  0  0  0  0  0  0  0  0  0  0
   48.8960   32.7470   40.8990 C   0  0  0  0  0  0  0  0  0  0  0  0
   50.1160   32.1690   41.2330 C   0  0  0  0  0  0  0  0  0  0  0  0
   50.9310   32.9300   42.0480 N   0  0  0  0  0  0  0  0  0  0  0  0
   50.5310   34.1470   42.4670 C   0  0  0  0  0  0  0  0  0  0  0  0
   49.3550   34.6530   42.1180 N   0  0  0  0  0  0  0  0  0  0  0  0
   50.4200   31.2020   40.8920 H   0  0  0  0  0  0  0  0  0  0  0  0
   51.1730   34.7580   43.1150 H   0  0  0  0  0  0  0  0  0  0  0  0
   47.8040   31.7850   39.8110 S   0  0  0  0  0  0  0  0  0  0  0  0
   46.7470   30.7210   40.7510 C   0  0  0  0  0  0  0  0  0  0  0  0
   47.0100   29.4200   41.1670 C   0  0  0  0  0  0  0  0  0  0  0  0
   47.9650   29.0590   40.8660 H   0  0  0  0  0  0  0  0  0  0  0  0
   46.0570   28.7450   41.8960 C   0  0  0  0  0  0  0  0  0  0  0  0
   46.2990   27.7470   42.1960 H   0  0  0  0  0  0  0  0  0  0  0  0
   44.8410   29.3060   42.2380 C   0  0  0  0  0  3  0  0  0  0  0  0
   44.6340   30.5970   41.7990 C   0  0  0  0  0  3  0  0  0  0  0  0
   45.5580   31.2910   41.0750 N   0  0  0  0  0  0  0  0  0  0  0  0
   46.3700   35.0000   42.0350 C   0  0  0  0  0  0  0  0  0  0  0  0
   46.5810   34.5150   43.0110 H   0  0  0  0  0  0  0  0  0  0  0  0
   46.6480   36.0750   42.1850 H   0  0  0  0  0  0  0  0  0  0  0  0
   44.9040   34.9490   41.7680 C   0  0  0  0  0  0  0  0  0  0  0  0
   43.9910   35.4630   42.7480 C   0  0  0  0  0  0  0  0  0  0  0  0
   42.3550   35.1780   41.9710 S   0  0  0  0  0  0  0  0  0  0  0  0
   43.1870   34.4060   40.4430 C   0  0  0  0  0  0  0  0  0  0  0  0
   44.2930   34.4790   40.7150 N   0  0  0  0  0  0  0  0  0  0  0  0
   44.2430   35.9040   43.7000 H   0  0  0  0  0  0  0  0  0  0  0  0
   42.4710   33.9170   39.3380 O   0  0  0  0  0  0  0  0  0  0  0  0
   40.4840   34.3390   37.6360 O   0  0  0  0  0  0  0  0  0  0  0  0
   41.5550   35.0470   38.4570 P   0  0  0  0  0  0  0  0  0  0  0  0
   40.8220   36.1040   39.5510 O   0  0  0  0  0  0  0  0  0  0  0  0
   40.1010   35.6430   40.0510 H   0  0  0  0  0  0  0  0  0  0  0  0
   42.5850   35.9410   37.4470 O   0  0  0  0  0  0  0  0  0  0  0  0
   42.8700   36.7920   37.8850 H   0  0  0  0  0  0  0  0  0  0  0  0
  1  4  1  0  0  0  0
  1 21  1  0  0  0  0
  2  1  1  0  0  0  0
  3  1  1  0  0  0  0
  4  9  1  0  0  0  0
  5  6  1  0  0  0  0
  5  4  2  0  0  0  0
  6  7  2  0  0  0  0
  7  8  1  0  0  0  0
  8 11  1  0  0  0  0
  9  8  2  0  0  0  0
 10  6  1  0  0  0  0
 12 13  1  0  0  0  0
 12  5  1  0  0  0  0
 13 20  2  0  0  0  0
 13 14  1  0  0  0  0
 14 16  2  0  0  0  0
 15 14  1  0  0  0  0
 16 17  1  0  0  0  0
 16 18  1  0  0  0  0
 19 18  2  0  0  0  0
 20 19  1  0  0  0  0
 21 23  1  0  0  0  0
 21 22  1  0  0  0  0
 24 21  1  0  0  0  0
 24 25  2  0  0  0  0
 25 29  1  0  0  0  0
 26 25  1  0  0  0  0
 27 28  2  0  0  0  0
 27 26  1  0  0  0  0
 28 24  1  0  0  0  0
 30 27  1  0  0  0  0
 31 32  2  0  0  0  0
 32 30  1  0  0  0  0
 32 33  1  0  0  0  0
 33 34  1  0  0  0  0
 35 36  1  0  0  0  0
 35 32  1  0  0  0  0
M  END
>  <minimizedAffinity>
-4.33717251

>  <minimizedRMSD>
0.232574016

$$$$
