
 OpenBabel03252507453D

 36 38  0  0  0  0  0  0  0  0999 V2000
   47.3920   34.5600   40.9060 C   0  0  0  0  0  0  0  0  0  0  0  0
   47.6820   35.4300   40.2540 H   0  0  0  0  0  0  0  0  0  0  0  0
   46.7440   33.8910   40.3330 H   0  0  0  0  0  0  0  0  0  0  0  0
   48.6250   33.9120   41.3660 C   0  0  0  0  0  0  0  0  0  0  0  0
   48.7610   32.5710   41.0530 C   0  0  0  0  0  0  0  0  0  0  0  0
   49.8730   31.8210   41.4200 C   0  0  0  0  0  0  0  0  0  0  0  0
   50.8450   32.5050   42.1230 N   0  0  0  0  0  0  0  0  0  0  0  0
   50.6850   33.8120   42.4120 C   0  0  0  0  0  0  0  0  0  0  0  0
   49.6030   34.4810   42.0380 N   0  0  0  0  0  0  0  0  0  0  0  0
   49.9860   30.7840   41.1830 H   0  0  0  0  0  0  0  0  0  0  0  0
   51.4540   34.3620   42.9710 H   0  0  0  0  0  0  0  0  0  0  0  0
   47.4680   31.7100   40.1080 S   0  0  0  0  0  0  0  0  0  0  0  0
   46.0500   31.3880   41.1180 C   0  0  0  0  0  0  0  0  0  0  0  0
   45.9630   31.4650   42.5050 C   0  0  0  0  0  0  0  0  0  0  0  0
   46.8730   31.7540   42.9750 H   0  0  0  0  0  0  0  0  0  0  0  0
   44.7640   31.1750   43.1160 C   0  0  0  0  0  0  0  0  0  0  0  0
   44.7410   31.2470   44.1830 H   0  0  0  0  0  0  0  0  0  0  0  0
   43.6340   30.8070   42.4120 C   0  0  0  0  0  3  0  0  0  0  0  0
   43.7780   30.7470   41.0400 C   0  0  0  0  0  3  0  0  0  0  0  0
   44.9520   31.0280   40.4050 N   0  0  0  0  0  0  0  0  0  0  0  0
   46.5770   35.1040   42.0390 C   0  0  0  0  0  0  0  0  0  0  0  0
   46.8220   34.6540   43.0240 H   0  0  0  0  0  0  0  0  0  0  0  0
   46.8290   36.1900   42.1510 H   0  0  0  0  0  0  0  0  0  0  0  0
   45.1080   35.0060   41.8070 C   0  0  0  0  0  0  0  0  0  0  0  0
   44.2020   35.5180   42.7940 C   0  0  0  0  0  0  0  0  0  0  0  0
   42.5580   35.1690   42.0620 S   0  0  0  0  0  0  0  0  0  0  0  0
   43.3780   34.3850   40.5330 C   0  0  0  0  0  0  0  0  0  0  0  0
   44.4870   34.4950   40.7790 N   0  0  0  0  0  0  0  0  0  0  0  0
   44.4620   35.9870   43.7310 H   0  0  0  0  0  0  0  0  0  0  0  0
   42.6520   33.8510   39.4560 O   0  0  0  0  0  0  0  0  0  0  0  0
   40.6630   34.1930   37.7380 O   0  0  0  0  0  0  0  0  0  0  0  0
   41.7140   34.9410   38.5480 P   0  0  0  0  0  0  0  0  0  0  0  0
   40.9530   36.0040   39.6160 O   0  0  0  0  0  0  0  0  0  0  0  0
   40.2410   35.5380   40.1240 H   0  0  0  0  0  0  0  0  0  0  0  0
   42.7280   35.8370   37.5220 O   0  0  0  0  0  0  0  0  0  0  0  0
   42.9920   36.7030   37.9430 H   0  0  0  0  0  0  0  0  0  0  0  0
  1  4  1  0  0  0  0
  1 21  1  0  0  0  0
  2  1  1  0  0  0  0
  3  1  1  0  0  0  0
  4  9  1  0  0  0  0
  5  4  2  0  0  0  0
  5  6  1  0  0  0  0
  6  7  2  0  0  0  0
  7  8  1  0  0  0  0
  8 11  1  0  0  0  0
  9  8  2  0  0  0  0
 10  6  1  0  0  0  0
 12  5  1  0  0  0  0
 12 13  1  0  0  0  0
 13 14  1  0  0  0  0
 14 15  1  0  0  0  0
 14 16  2  0  0  0  0
 16 17  1  0  0  0  0
 18 16  1  0  0  0  0
 19 18  2  0  0  0  0
 20 19  1  0  0  0  0
 20 13  2  0  0  0  0
 21 23  1  0  0  0  0
 21 22  1  0  0  0  0
 24 21  1  0  0  0  0
 24 25  2  0  0  0  0
 25 29  1  0  0  0  0
 26 25  1  0  0  0  0
 27 28  2  0  0  0  0
 27 26  1  0  0  0  0
 28 24  1  0  0  0  0
 30 27  1  0  0  0  0
 31 32  2  0  0  0  0
 32 30  1  0  0  0  0
 32 33  1  0  0  0  0
 33 34  1  0  0  0  0
 35 36  1  0  0  0  0
 35 32  1  0  0  0  0
M  END
>  <minimizedAffinity>
-4.40860271

>  <minimizedRMSD>
1.14446068

$$$$
