
 OpenBabel03242513003D

 34 37  0  0  0  0  0  0  0  0999 V2000
   40.5400   30.7210   40.6030 F   0  0  0  0  0  0  0  0  0  0  0  0
   39.3820   31.3880   40.3370 C   0  0  0  0  0  0  0  0  0  0  0  0
   39.3790   32.5480   39.5860 C   0  0  0  0  0  0  0  0  0  0  0  0
   38.1760   33.1510   39.3700 C   0  0  0  0  0  0  0  0  0  0  0  0
   36.9780   32.6760   39.8520 C   0  0  0  0  0  0  0  0  0  0  0  0
   37.0280   31.5280   40.5880 C   0  0  0  0  0  0  0  0  0  0  0  0
   38.2130   30.8770   40.8390 C   0  0  0  0  0  0  0  0  0  0  0  0
   38.1630   34.0640   38.7800 H   0  0  0  0  0  0  0  0  0  0  0  0
   36.0320   33.1600   39.6740 H   0  0  0  0  0  0  0  0  0  0  0  0
   36.1520   31.0710   41.0120 H   0  0  0  0  0  0  0  0  0  0  0  0
   42.3270   33.3680   37.3250 C   0  0  0  0  0  0  0  0  0  0  0  0
   41.0850   32.8780   37.7640 C   0  0  0  0  0  0  0  0  0  0  0  0
   40.6620   33.0390   39.0820 C   0  0  0  0  0  0  0  0  0  0  0  0
   41.5370   33.7030   39.9110 N   0  0  0  0  0  0  0  0  0  0  0  0
   42.7260   34.1610   39.4550 C   0  0  0  0  0  0  0  0  0  0  0  0
   43.1110   33.9970   38.1920 N   0  0  0  0  0  0  0  0  0  0  0  0
   42.4360   33.1280   36.2760 H   0  0  0  0  0  0  0  0  0  0  0  0
   40.3460   32.3470   37.1670 H   0  0  0  0  0  0  0  0  0  0  0  0
   43.4250   34.6840   40.0870 H   0  0  0  0  0  0  0  0  0  0  0  0
   38.2530   29.6440   41.6320 C   0  0  0  0  0  0  0  0  0  0  0  0
   38.4530   29.5220   42.9770 C   0  0  0  0  0  0  0  0  0  0  0  0
   38.4180   28.1850   43.3200 C   0  0  0  0  0  0  0  0  0  0  0  0
   38.1980   27.5270   42.1800 N   0  0  0  0  0  0  0  0  0  0  0  0
   38.0950   28.3830   41.1510 N   0  0  0  0  0  0  0  0  0  0  0  0
   38.6180   30.3020   43.7000 H   0  0  0  0  0  0  0  0  0  0  0  0
   38.5270   27.6520   44.2550 H   0  0  0  0  0  0  0  0  0  0  0  0
   38.0530   26.1470   41.8350 C   0  0  0  0  0  0  0  0  0  0  0  0
   36.9470   25.3570   42.1020 C   0  0  0  0  0  0  0  0  0  0  0  0
   36.1320   25.8320   42.6130 H   0  0  0  0  0  0  0  0  0  0  0  0
   37.0030   24.0420   41.6860 C   0  0  0  0  0  0  0  0  0  0  0  0
   36.1240   23.4160   41.8980 H   0  0  0  0  0  0  0  0  0  0  0  0
   38.1190   23.5420   41.0300 C   0  0  0  0  0  3  0  0  0  0  0  0
   39.2000   24.3690   40.7860 C   0  0  0  0  0  3  0  0  0  0  0  0
   39.1570   25.6710   41.1930 N   0  0  0  0  0  0  0  0  0  0  0  0
  2  1  1  0  0  0  0
  2  7  1  0  0  0  0
  3  2  2  0  0  0  0
  4  3  1  0  0  0  0
  4  5  2  0  0  0  0
  5  6  1  0  0  0  0
  6  7  2  0  0  0  0
  6 10  1  0  0  0  0
  7 20  1  0  0  0  0
  8  4  1  0  0  0  0
  9  5  1  0  0  0  0
 11 12  2  0  0  0  0
 11 16  1  0  0  0  0
 12 13  1  0  0  0  0
 13  3  1  0  0  0  0
 13 14  2  0  0  0  0
 15 14  1  0  0  0  0
 15 19  1  0  0  0  0
 16 15  2  0  0  0  0
 17 11  1  0  0  0  0
 18 12  1  0  0  0  0
 20 21  1  0  0  0  0
 21 22  2  0  0  0  0
 21 25  1  0  0  0  0
 22 26  1  0  0  0  0
 23 22  1  0  0  0  0
 24 20  2  0  0  0  0
 24 23  1  0  0  0  0
 27 28  1  0  0  0  0
 27 23  1  0  0  0  0
 28 29  1  0  0  0  0
 30 31  1  0  0  0  0
 30 28  2  0  0  0  0
 32 30  1  0  0  0  0
 33 32  2  0  0  0  0
 33 34  1  0  0  0  0
 34 27  2  0  0  0  0
M  END
>  <minimizedAffinity>
-5.9276123

$$$$

 OpenBabel03242513003D

 34 37  0  0  0  0  0  0  0  0999 V2000
   37.8880   27.8490   39.5910 F   0  0  0  0  0  0  0  0  0  0  0  0
   37.6600   27.7980   40.9330 C   0  0  0  0  0  0  0  0  0  0  0  0
   37.5330   26.5910   41.5940 C   0  0  0  0  0  0  0  0  0  0  0  0
   37.3050   26.6330   42.9370 C   0  0  0  0  0  0  0  0  0  0  0  0
   37.1960   27.7960   43.6640 C   0  0  0  0  0  0  0  0  0  0  0  0
   37.3280   28.9640   42.9710 C   0  0  0  0  0  0  0  0  0  0  0  0
   37.5590   28.9830   41.6160 C   0  0  0  0  0  0  0  0  0  0  0  0
   37.2030   25.6890   43.4660 H   0  0  0  0  0  0  0  0  0  0  0  0
   37.0160   27.8180   44.7260 H   0  0  0  0  0  0  0  0  0  0  0  0
   37.2600   29.9290   43.4410 H   0  0  0  0  0  0  0  0  0  0  0  0
   36.7190   23.4290   39.6410 C   0  0  0  0  0  0  0  0  0  0  0  0
   36.5570   24.6020   40.3990 C   0  0  0  0  0  0  0  0  0  0  0  0
   37.6510   25.3650   40.8050 C   0  0  0  0  0  0  0  0  0  0  0  0
   38.8830   24.8930   40.4140 N   0  0  0  0  0  0  0  0  0  0  0  0
   39.0040   23.7600   39.6850 C   0  0  0  0  0  0  0  0  0  0  0  0
   37.9460   23.0450   39.3070 N   0  0  0  0  0  0  0  0  0  0  0  0
   35.7410   23.0120   39.4460 H   0  0  0  0  0  0  0  0  0  0  0  0
   35.6180   25.0320   40.7410 H   0  0  0  0  0  0  0  0  0  0  0  0
   39.9580   23.3730   39.3690 H   0  0  0  0  0  0  0  0  0  0  0  0
   37.6990   30.2460   40.8830 C   0  0  0  0  0  0  0  0  0  0  0  0
   36.7260   31.1620   40.6030 C   0  0  0  0  0  0  0  0  0  0  0  0
   37.2810   32.2080   39.8920 C   0  0  0  0  0  0  0  0  0  0  0  0
   38.5740   31.9030   39.7560 N   0  0  0  0  0  0  0  0  0  0  0  0
   38.8490   30.7280   40.3440 N   0  0  0  0  0  0  0  0  0  0  0  0
   35.6830   31.1280   40.8660 H   0  0  0  0  0  0  0  0  0  0  0  0
   36.8800   33.1220   39.4780 H   0  0  0  0  0  0  0  0  0  0  0  0
   39.6910   32.5460   39.1360 C   0  0  0  0  0  0  0  0  0  0  0  0
   40.3150   33.6970   39.5870 C   0  0  0  0  0  0  0  0  0  0  0  0
   39.9190   34.1380   40.4800 H   0  0  0  0  0  0  0  0  0  0  0  0
   41.3830   34.1610   38.8430 C   0  0  0  0  0  0  0  0  0  0  0  0
   41.8780   35.0750   39.2030 H   0  0  0  0  0  0  0  0  0  0  0  0
   41.8040   33.4990   37.6990 C   0  0  0  0  0  3  0  0  0  0  0  0
   41.1480   32.3530   37.2880 C   0  0  0  0  0  3  0  0  0  0  0  0
   40.0920   31.8840   38.0140 N   0  0  0  0  0  0  0  0  0  0  0  0
  1  2  1  0  0  0  0
  2  3  2  0  0  0  0
  2  7  1  0  0  0  0
  3  4  1  0  0  0  0
  4  8  1  0  0  0  0
  4  5  2  0  0  0  0
  5  9  1  0  0  0  0
  6 10  1  0  0  0  0
  6  5  1  0  0  0  0
  7  6  2  0  0  0  0
 11 12  1  0  0  0  0
 12 18  1  0  0  0  0
 12 13  2  0  0  0  0
 13  3  1  0  0  0  0
 14 13  1  0  0  0  0
 15 14  2  0  0  0  0
 16 11  2  0  0  0  0
 16 15  1  0  0  0  0
 17 11  1  0  0  0  0
 19 15  1  0  0  0  0
 20  7  1  0  0  0  0
 21 25  1  0  0  0  0
 21 20  1  0  0  0  0
 22 21  2  0  0  0  0
 23 22  1  0  0  0  0
 23 24  1  0  0  0  0
 24 20  2  0  0  0  0
 26 22  1  0  0  0  0
 27 28  1  0  0  0  0
 27 23  1  0  0  0  0
 28 29  1  0  0  0  0
 30 31  1  0  0  0  0
 30 28  2  0  0  0  0
 32 30  1  0  0  0  0
 33 32  2  0  0  0  0
 33 34  1  0  0  0  0
 34 27  2  0  0  0  0
M  END
>  <minimizedAffinity>
-5.84022522

$$$$

 OpenBabel03242513003D

 34 37  0  0  0  0  0  0  0  0999 V2000
   40.1500   29.9910   40.7650 F   0  0  0  0  0  0  0  0  0  0  0  0
   39.1330   30.8390   40.4460 C   0  0  0  0  0  0  0  0  0  0  0  0
   37.8320   30.5750   40.8320 C   0  0  0  0  0  0  0  0  0  0  0  0
   36.8760   31.4760   40.4690 C   0  0  0  0  0  0  0  0  0  0  0  0
   37.1300   32.6210   39.7500 C   0  0  0  0  0  0  0  0  0  0  0  0
   38.4280   32.8420   39.3900 C   0  0  0  0  0  0  0  0  0  0  0  0
   39.4340   31.9680   39.7280 C   0  0  0  0  0  0  0  0  0  0  0  0
   35.8490   31.2780   40.7670 H   0  0  0  0  0  0  0  0  0  0  0  0
   36.3660   33.3280   39.4690 H   0  0  0  0  0  0  0  0  0  0  0  0
   38.7360   33.7050   38.8280 H   0  0  0  0  0  0  0  0  0  0  0  0
   36.9640   26.9960   41.7870 C   0  0  0  0  0  0  0  0  0  0  0  0
   37.1940   28.1470   41.0120 C   0  0  0  0  0  0  0  0  0  0  0  0
   37.5800   29.3530   41.5950 C   0  0  0  0  0  0  0  0  0  0  0  0
   37.7180   29.3350   42.9640 N   0  0  0  0  0  0  0  0  0  0  0  0
   37.4870   28.2100   43.6790 C   0  0  0  0  0  0  0  0  0  0  0  0
   37.1190   27.0680   43.1040 N   0  0  0  0  0  0  0  0  0  0  0  0
   36.6780   26.1910   41.1240 H   0  0  0  0  0  0  0  0  0  0  0  0
   37.1060   28.2330   39.9310 H   0  0  0  0  0  0  0  0  0  0  0  0
   37.5890   28.1750   44.7510 H   0  0  0  0  0  0  0  0  0  0  0  0
   40.8250   32.2160   39.3360 C   0  0  0  0  0  0  0  0  0  0  0  0
   41.7160   33.0730   39.9150 C   0  0  0  0  0  0  0  0  0  0  0  0
   42.9170   33.0030   39.2370 C   0  0  0  0  0  0  0  0  0  0  0  0
   42.7290   32.1080   38.2650 N   0  0  0  0  0  0  0  0  0  0  0  0
   41.4790   31.6210   38.3040 N   0  0  0  0  0  0  0  0  0  0  0  0
   41.5640   33.7220   40.7600 H   0  0  0  0  0  0  0  0  0  0  0  0
   43.8700   33.5000   39.3560 H   0  0  0  0  0  0  0  0  0  0  0  0
   43.5530   31.5760   37.2240 C   0  0  0  0  0  0  0  0  0  0  0  0
   44.8810   31.8960   36.9990 C   0  0  0  0  0  0  0  0  0  0  0  0
   45.3220   32.6080   37.6700 H   0  0  0  0  0  0  0  0  0  0  0  0
   45.5040   31.2710   35.9370 C   0  0  0  0  0  0  0  0  0  0  0  0
   46.5590   31.5260   35.7600 H   0  0  0  0  0  0  0  0  0  0  0  0
   44.8230   30.3640   35.1370 C   0  0  0  0  0  3  0  0  0  0  0  0
   43.4970   30.0760   35.4010 C   0  0  0  0  0  3  0  0  0  0  0  0
   42.8700   30.6880   36.4480 N   0  0  0  0  0  0  0  0  0  0  0  0
  2  1  1  0  0  0  0
  2  3  1  0  0  0  0
  3 13  1  0  0  0  0
  4  8  1  0  0  0  0
  4  3  2  0  0  0  0
  5  4  1  0  0  0  0
  6  7  1  0  0  0  0
  6  5  2  0  0  0  0
  7  2  2  0  0  0  0
  9  5  1  0  0  0  0
 10  6  1  0  0  0  0
 11 16  1  0  0  0  0
 12 13  1  0  0  0  0
 12 11  2  0  0  0  0
 13 14  2  0  0  0  0
 14 15  1  0  0  0  0
 15 19  1  0  0  0  0
 16 15  2  0  0  0  0
 17 11  1  0  0  0  0
 18 12  1  0  0  0  0
 20  7  1  0  0  0  0
 20 21  1  0  0  0  0
 21 25  1  0  0  0  0
 22 26  1  0  0  0  0
 22 21  2  0  0  0  0
 23 24  1  0  0  0  0
 23 22  1  0  0  0  0
 24 20  2  0  0  0  0
 27 23  1  0  0  0  0
 28 27  1  0  0  0  0
 28 29  1  0  0  0  0
 30 28  2  0  0  0  0
 31 30  1  0  0  0  0
 32 33  2  0  0  0  0
 32 30  1  0  0  0  0
 33 34  1  0  0  0  0
 34 27  2  0  0  0  0
M  END
>  <minimizedAffinity>
-5.60537577

$$$$

 OpenBabel03242513003D

 34 37  0  0  0  0  0  0  0  0999 V2000
   40.2110   30.8870   38.6980 F   0  0  0  0  0  0  0  0  0  0  0  0
   39.4270   31.9080   39.1430 C   0  0  0  0  0  0  0  0  0  0  0  0
   39.9480   33.1690   39.3620 C   0  0  0  0  0  0  0  0  0  0  0  0
   39.0910   34.1310   39.8090 C   0  0  0  0  0  0  0  0  0  0  0  0
   37.7540   33.9200   40.0520 C   0  0  0  0  0  0  0  0  0  0  0  0
   37.2830   32.6590   39.8230 C   0  0  0  0  0  0  0  0  0  0  0  0
   38.0990   31.6500   39.3720 C   0  0  0  0  0  0  0  0  0  0  0  0
   39.4910   35.1270   39.9850 H   0  0  0  0  0  0  0  0  0  0  0  0
   37.0850   34.6880   40.4060 H   0  0  0  0  0  0  0  0  0  0  0  0
   36.2540   32.3860   39.9800 H   0  0  0  0  0  0  0  0  0  0  0  0
   43.7270   33.3550   39.7460 C   0  0  0  0  0  0  0  0  0  0  0  0
   42.3700   33.1430   40.0440 C   0  0  0  0  0  0  0  0  0  0  0  0
   41.3720   33.3750   39.0990 C   0  0  0  0  0  0  0  0  0  0  0  0
   41.8050   33.8210   37.8720 N   0  0  0  0  0  0  0  0  0  0  0  0
   43.1200   34.0150   37.6190 C   0  0  0  0  0  0  0  0  0  0  0  0
   44.0590   33.7870   38.5350 N   0  0  0  0  0  0  0  0  0  0  0  0
   44.3110   33.1100   40.6230 H   0  0  0  0  0  0  0  0  0  0  0  0
   41.9570   32.7930   40.9870 H   0  0  0  0  0  0  0  0  0  0  0  0
   43.4810   34.3630   36.6650 H   0  0  0  0  0  0  0  0  0  0  0  0
   37.5810   30.2990   39.1290 C   0  0  0  0  0  0  0  0  0  0  0  0
   36.9740   29.8280   38.0000 C   0  0  0  0  0  0  0  0  0  0  0  0
   36.6380   28.5010   38.1880 C   0  0  0  0  0  0  0  0  0  0  0  0
   37.0470   28.1990   39.4220 N   0  0  0  0  0  0  0  0  0  0  0  0
   37.6180   29.2640   40.0070 N   0  0  0  0  0  0  0  0  0  0  0  0
   36.7640   30.3560   37.0860 H   0  0  0  0  0  0  0  0  0  0  0  0
   36.1540   27.7610   37.5670 H   0  0  0  0  0  0  0  0  0  0  0  0
   37.0080   27.0160   40.2250 C   0  0  0  0  0  0  0  0  0  0  0  0
   36.7820   25.7310   39.7630 C   0  0  0  0  0  0  0  0  0  0  0  0
   36.6230   25.6230   38.7080 H   0  0  0  0  0  0  0  0  0  0  0  0
   36.7820   24.7190   40.7030 C   0  0  0  0  0  0  0  0  0  0  0  0
   36.6030   23.6980   40.3340 H   0  0  0  0  0  0  0  0  0  0  0  0
   37.0000   24.9870   42.0470 C   0  0  0  0  0  3  0  0  0  0  0  0
   37.2220   26.2870   42.4610 C   0  0  0  0  0  3  0  0  0  0  0  0
   37.2240   27.2960   41.5410 N   0  0  0  0  0  0  0  0  0  0  0  0
  1  2  1  0  0  0  0
  2  3  2  0  0  0  0
  2  7  1  0  0  0  0
  3  4  1  0  0  0  0
  4  8  1  0  0  0  0
  4  5  2  0  0  0  0
  5  9  1  0  0  0  0
  6 10  1  0  0  0  0
  6  5  1  0  0  0  0
  7  6  2  0  0  0  0
 11 12  1  0  0  0  0
 11 17  1  0  0  0  0
 12 18  1  0  0  0  0
 13  3  1  0  0  0  0
 13 12  2  0  0  0  0
 14 13  1  0  0  0  0
 15 14  2  0  0  0  0
 15 16  1  0  0  0  0
 16 11  2  0  0  0  0
 19 15  1  0  0  0  0
 20  7  1  0  0  0  0
 20 24  2  0  0  0  0
 21 22  2  0  0  0  0
 21 20  1  0  0  0  0
 22 23  1  0  0  0  0
 23 24  1  0  0  0  0
 23 27  1  0  0  0  0
 25 21  1  0  0  0  0
 26 22  1  0  0  0  0
 27 34  1  0  0  0  0
 28 27  2  0  0  0  0
 28 30  1  0  0  0  0
 29 28  1  0  0  0  0
 30 32  2  0  0  0  0
 31 30  1  0  0  0  0
 32 33  1  0  0  0  0
 34 33  2  0  0  0  0
M  END
>  <minimizedAffinity>
-5.59530306

$$$$

 OpenBabel03242513003D

 34 37  0  0  0  0  0  0  0  0999 V2000
   33.1280   29.2800   39.1580 F   0  0  0  0  0  0  0  0  0  0  0  0
   33.5210   29.1250   37.8630 C   0  0  0  0  0  0  0  0  0  0  0  0
   32.6530   29.3690   36.8160 C   0  0  0  0  0  0  0  0  0  0  0  0
   33.1300   29.1870   35.5530 C   0  0  0  0  0  0  0  0  0  0  0  0
   34.4120   28.7800   35.2630 C   0  0  0  0  0  0  0  0  0  0  0  0
   35.2350   28.5500   36.3280 C   0  0  0  0  0  0  0  0  0  0  0  0
   34.8090   28.7170   37.6240 C   0  0  0  0  0  0  0  0  0  0  0  0
   32.4550   29.3770   34.7210 H   0  0  0  0  0  0  0  0  0  0  0  0
   34.7790   28.6400   34.2600 H   0  0  0  0  0  0  0  0  0  0  0  0
   36.2550   28.2290   36.2150 H   0  0  0  0  0  0  0  0  0  0  0  0
   29.5090   30.3640   38.7120 C   0  0  0  0  0  0  0  0  0  0  0  0
   30.8240   29.9460   38.4460 C   0  0  0  0  0  0  0  0  0  0  0  0
   31.2940   29.8010   37.1420 C   0  0  0  0  0  0  0  0  0  0  0  0
   30.3900   30.0930   36.1480 N   0  0  0  0  0  0  0  0  0  0  0  0
   29.1300   30.4930   36.4380 C   0  0  0  0  0  0  0  0  0  0  0  0
   28.7000   30.6250   37.6910 N   0  0  0  0  0  0  0  0  0  0  0  0
   29.3730   30.4040   39.7840 H   0  0  0  0  0  0  0  0  0  0  0  0
   31.5900   29.7000   39.1790 H   0  0  0  0  0  0  0  0  0  0  0  0
   28.4060   30.7260   35.6750 H   0  0  0  0  0  0  0  0  0  0  0  0
   35.7030   28.4670   38.7600 C   0  0  0  0  0  0  0  0  0  0  0  0
   36.3670   29.3870   39.5180 C   0  0  0  0  0  0  0  0  0  0  0  0
   37.1020   28.7300   40.4860 C   0  0  0  0  0  0  0  0  0  0  0  0
   36.8670   27.4300   40.2930 N   0  0  0  0  0  0  0  0  0  0  0  0
   36.0290   27.2470   39.2620 N   0  0  0  0  0  0  0  0  0  0  0  0
   36.3600   30.4590   39.4240 H   0  0  0  0  0  0  0  0  0  0  0  0
   37.7570   29.0640   41.2780 H   0  0  0  0  0  0  0  0  0  0  0  0
   37.3070   26.2310   40.9360 C   0  0  0  0  0  0  0  0  0  0  0  0
   36.9340   24.9430   40.5890 C   0  0  0  0  0  0  0  0  0  0  0  0
   36.2550   24.8470   39.7650 H   0  0  0  0  0  0  0  0  0  0  0  0
   37.4720   23.9140   41.3370 C   0  0  0  0  0  0  0  0  0  0  0  0
   37.1750   22.8910   41.0600 H   0  0  0  0  0  0  0  0  0  0  0  0
   38.3450   24.1670   42.3850 C   0  0  0  0  0  3  0  0  0  0  0  0
   38.6880   25.4700   42.6940 C   0  0  0  0  0  3  0  0  0  0  0  0
   38.1630   26.4960   41.9630 N   0  0  0  0  0  0  0  0  0  0  0  0
  2  1  1  0  0  0  0
  3 13  1  0  0  0  0
  3  2  2  0  0  0  0
  4  3  1  0  0  0  0
  5  4  2  0  0  0  0
  5  6  1  0  0  0  0
  6  7  2  0  0  0  0
  7  2  1  0  0  0  0
  7 20  1  0  0  0  0
  8  4  1  0  0  0  0
  9  5  1  0  0  0  0
 10  6  1  0  0  0  0
 11 17  1  0  0  0  0
 12 11  1  0  0  0  0
 12 18  1  0  0  0  0
 13 12  2  0  0  0  0
 14 15  2  0  0  0  0
 14 13  1  0  0  0  0
 15 16  1  0  0  0  0
 16 11  2  0  0  0  0
 19 15  1  0  0  0  0
 20 24  2  0  0  0  0
 20 21  1  0  0  0  0
 21 22  2  0  0  0  0
 22 26  1  0  0  0  0
 23 22  1  0  0  0  0
 23 27  1  0  0  0  0
 24 23  1  0  0  0  0
 25 21  1  0  0  0  0
 27 34  1  0  0  0  0
 28 27  2  0  0  0  0
 28 30  1  0  0  0  0
 29 28  1  0  0  0  0
 30 32  2  0  0  0  0
 31 30  1  0  0  0  0
 32 33  1  0  0  0  0
 34 33  2  0  0  0  0
M  END
>  <minimizedAffinity>
-5.43459654

$$$$

 OpenBabel03242513003D

 34 37  0  0  0  0  0  0  0  0999 V2000
   39.3420   26.8650   39.6400 F   0  0  0  0  0  0  0  0  0  0  0  0
   38.5090   26.1490   40.4460 C   0  0  0  0  0  0  0  0  0  0  0  0
   38.1960   24.8320   40.1650 C   0  0  0  0  0  0  0  0  0  0  0  0
   37.3540   24.1920   41.0250 C   0  0  0  0  0  0  0  0  0  0  0  0
   36.8050   24.7750   42.1430 C   0  0  0  0  0  0  0  0  0  0  0  0
   37.1420   26.0770   42.3820 C   0  0  0  0  0  0  0  0  0  0  0  0
   37.9860   26.7720   41.5500 C   0  0  0  0  0  0  0  0  0  0  0  0
   37.1010   23.1560   40.8140 H   0  0  0  0  0  0  0  0  0  0  0  0
   36.1410   24.2590   42.8170 H   0  0  0  0  0  0  0  0  0  0  0  0
   36.7690   26.6270   43.2270 H   0  0  0  0  0  0  0  0  0  0  0  0
   38.7430   23.5610   36.6220 C   0  0  0  0  0  0  0  0  0  0  0  0
   38.1340   24.1500   37.7430 C   0  0  0  0  0  0  0  0  0  0  0  0
   38.7880   24.2290   38.9720 C   0  0  0  0  0  0  0  0  0  0  0  0
   40.0560   23.6960   39.0060 N   0  0  0  0  0  0  0  0  0  0  0  0
   40.6130   23.1350   37.9080 C   0  0  0  0  0  0  0  0  0  0  0  0
   39.9710   23.0690   36.7430 N   0  0  0  0  0  0  0  0  0  0  0  0
   38.0530   23.6140   35.7910 H   0  0  0  0  0  0  0  0  0  0  0  0
   37.1400   24.5910   37.7890 H   0  0  0  0  0  0  0  0  0  0  0  0
   41.6040   22.7120   37.9130 H   0  0  0  0  0  0  0  0  0  0  0  0
   38.3390   28.1710   41.8170 C   0  0  0  0  0  0  0  0  0  0  0  0
   39.0720   28.6620   42.8580 C   0  0  0  0  0  0  0  0  0  0  0  0
   39.1710   30.0350   42.7340 C   0  0  0  0  0  0  0  0  0  0  0  0
   38.4980   30.3430   41.6230 N   0  0  0  0  0  0  0  0  0  0  0  0
   37.9890   29.2390   41.0540 N   0  0  0  0  0  0  0  0  0  0  0  0
   39.5230   28.1200   43.6710 H   0  0  0  0  0  0  0  0  0  0  0  0
   39.6500   30.8040   43.3230 H   0  0  0  0  0  0  0  0  0  0  0  0
   38.2140   31.5640   40.9340 C   0  0  0  0  0  0  0  0  0  0  0  0
   37.1750   31.7680   40.0420 C   0  0  0  0  0  0  0  0  0  0  0  0
   36.5310   30.9300   39.8580 H   0  0  0  0  0  0  0  0  0  0  0  0
   37.0710   33.0250   39.4790 C   0  0  0  0  0  0  0  0  0  0  0  0
   36.2450   33.1860   38.7720 H   0  0  0  0  0  0  0  0  0  0  0  0
   37.9720   34.0320   39.7980 C   0  0  0  0  0  3  0  0  0  0  0  0
   38.9940   33.7800   40.6940 C   0  0  0  0  0  3  0  0  0  0  0  0
   39.1070   32.5410   41.2570 N   0  0  0  0  0  0  0  0  0  0  0  0
  1  2  1  0  0  0  0
  2  7  1  0  0  0  0
  3  2  2  0  0  0  0
  3  4  1  0  0  0  0
  4  5  2  0  0  0  0
  5  6  1  0  0  0  0
  5  9  1  0  0  0  0
  6 10  1  0  0  0  0
  7 20  1  0  0  0  0
  7  6  2  0  0  0  0
  8  4  1  0  0  0  0
 11 16  2  0  0  0  0
 11 12  1  0  0  0  0
 12 18  1  0  0  0  0
 12 13  2  0  0  0  0
 13 14  1  0  0  0  0
 13  3  1  0  0  0  0
 15 19  1  0  0  0  0
 15 14  2  0  0  0  0
 16 15  1  0  0  0  0
 17 11  1  0  0  0  0
 20 21  1  0  0  0  0
 21 25  1  0  0  0  0
 22 21  2  0  0  0  0
 22 26  1  0  0  0  0
 23 22  1  0  0  0  0
 24 23  1  0  0  0  0
 24 20  2  0  0  0  0
 27 34  1  0  0  0  0
 27 23  1  0  0  0  0
 28 27  2  0  0  0  0
 29 28  1  0  0  0  0
 30 32  2  0  0  0  0
 30 28  1  0  0  0  0
 31 30  1  0  0  0  0
 32 33  1  0  0  0  0
 33 34  2  0  0  0  0
M  END
>  <minimizedAffinity>
-5.41583109

$$$$

 OpenBabel03242513003D

 34 37  0  0  0  0  0  0  0  0999 V2000
   38.6060   28.9010   40.6990 F   0  0  0  0  0  0  0  0  0  0  0  0
   37.5380   28.8340   39.8570 C   0  0  0  0  0  0  0  0  0  0  0  0
   36.8860   27.6390   39.6190 C   0  0  0  0  0  0  0  0  0  0  0  0
   35.8270   27.6640   38.7610 C   0  0  0  0  0  0  0  0  0  0  0  0
   35.3750   28.7980   38.1270 C   0  0  0  0  0  0  0  0  0  0  0  0
   36.0490   29.9560   38.3920 C   0  0  0  0  0  0  0  0  0  0  0  0
   37.1230   29.9910   39.2470 C   0  0  0  0  0  0  0  0  0  0  0  0
   35.3070   26.7290   38.5660 H   0  0  0  0  0  0  0  0  0  0  0  0
   34.5360   28.8070   37.4500 H   0  0  0  0  0  0  0  0  0  0  0  0
   35.7790   30.8990   37.9500 H   0  0  0  0  0  0  0  0  0  0  0  0
   37.5810   24.9730   42.2410 C   0  0  0  0  0  0  0  0  0  0  0  0
   37.0830   26.1350   41.6270 C   0  0  0  0  0  0  0  0  0  0  0  0
   37.3810   26.4430   40.3010 C   0  0  0  0  0  0  0  0  0  0  0  0
   38.1860   25.5410   39.6460 N   0  0  0  0  0  0  0  0  0  0  0  0
   38.6490   24.4320   40.2680 C   0  0  0  0  0  0  0  0  0  0  0  0
   38.3530   24.1550   41.5350 N   0  0  0  0  0  0  0  0  0  0  0  0
   37.2200   24.9450   43.2600 H   0  0  0  0  0  0  0  0  0  0  0  0
   36.4430   26.8890   42.0810 H   0  0  0  0  0  0  0  0  0  0  0  0
   39.2810   23.7120   39.7740 H   0  0  0  0  0  0  0  0  0  0  0  0
   37.8390   31.2410   39.5240 C   0  0  0  0  0  0  0  0  0  0  0  0
   37.3830   32.3300   40.2110 C   0  0  0  0  0  0  0  0  0  0  0  0
   38.3730   33.2920   40.2410 C   0  0  0  0  0  0  0  0  0  0  0  0
   39.4040   32.7680   39.5740 N   0  0  0  0  0  0  0  0  0  0  0  0
   39.1060   31.5350   39.1340 N   0  0  0  0  0  0  0  0  0  0  0  0
   36.4220   32.4720   40.6730 H   0  0  0  0  0  0  0  0  0  0  0  0
   38.4360   34.2830   40.6680 H   0  0  0  0  0  0  0  0  0  0  0  0
   40.7160   33.2280   39.2410 C   0  0  0  0  0  0  0  0  0  0  0  0
   41.6330   33.7700   40.1270 C   0  0  0  0  0  0  0  0  0  0  0  0
   41.3210   33.8480   41.1500 H   0  0  0  0  0  0  0  0  0  0  0  0
   42.8520   34.1570   39.6060 C   0  0  0  0  0  0  0  0  0  0  0  0
   43.5790   34.5870   40.3100 H   0  0  0  0  0  0  0  0  0  0  0  0
   43.1380   34.0050   38.2560 C   0  0  0  0  0  3  0  0  0  0  0  0
   42.1900   33.4580   37.4110 C   0  0  0  0  0  3  0  0  0  0  0  0
   40.9810   33.0720   37.9130 N   0  0  0  0  0  0  0  0  0  0  0  0
  2  1  1  0  0  0  0
  3  2  1  0  0  0  0
  3 13  1  0  0  0  0
  4  3  2  0  0  0  0
  5  6  2  0  0  0  0
  5  4  1  0  0  0  0
  6  7  1  0  0  0  0
  7 20  1  0  0  0  0
  7  2  2  0  0  0  0
  8  4  1  0  0  0  0
  9  5  1  0  0  0  0
 10  6  1  0  0  0  0
 11 17  1  0  0  0  0
 12 18  1  0  0  0  0
 12 11  1  0  0  0  0
 13 12  2  0  0  0  0
 14 15  2  0  0  0  0
 14 13  1  0  0  0  0
 15 16  1  0  0  0  0
 16 11  2  0  0  0  0
 19 15  1  0  0  0  0
 20 21  1  0  0  0  0
 21 22  2  0  0  0  0
 21 25  1  0  0  0  0
 22 26  1  0  0  0  0
 23 22  1  0  0  0  0
 24 20  2  0  0  0  0
 24 23  1  0  0  0  0
 27 23  1  0  0  0  0
 27 28  1  0  0  0  0
 28 29  1  0  0  0  0
 30 28  2  0  0  0  0
 30 31  1  0  0  0  0
 32 30  1  0  0  0  0
 33 34  1  0  0  0  0
 33 32  2  0  0  0  0
 34 27  2  0  0  0  0
M  END
>  <minimizedAffinity>
-5.41507864

$$$$

 OpenBabel03242513003D

 34 37  0  0  0  0  0  0  0  0999 V2000
   36.5430   27.0230   38.7830 F   0  0  0  0  0  0  0  0  0  0  0  0
   36.7050   26.3930   39.9800 C   0  0  0  0  0  0  0  0  0  0  0  0
   36.7110   25.0140   40.0690 C   0  0  0  0  0  0  0  0  0  0  0  0
   36.8790   24.4680   41.3070 C   0  0  0  0  0  0  0  0  0  0  0  0
   37.0400   25.2030   42.4580 C   0  0  0  0  0  0  0  0  0  0  0  0
   37.0270   26.5610   42.3230 C   0  0  0  0  0  0  0  0  0  0  0  0
   36.8620   27.1680   41.1010 C   0  0  0  0  0  0  0  0  0  0  0  0
   36.8850   23.3840   41.3880 H   0  0  0  0  0  0  0  0  0  0  0  0
   37.1720   24.7610   43.4330 H   0  0  0  0  0  0  0  0  0  0  0  0
   37.1440   27.2290   43.1580 H   0  0  0  0  0  0  0  0  0  0  0  0
   37.3820   22.9730   36.9300 C   0  0  0  0  0  0  0  0  0  0  0  0
   37.5970   23.7030   38.1120 C   0  0  0  0  0  0  0  0  0  0  0  0
   36.5380   24.2490   38.8350 C   0  0  0  0  0  0  0  0  0  0  0  0
   35.2850   24.0250   38.3140 N   0  0  0  0  0  0  0  0  0  0  0  0
   35.1130   23.3190   37.1730 C   0  0  0  0  0  0  0  0  0  0  0  0
   36.1380   22.8050   36.4970 N   0  0  0  0  0  0  0  0  0  0  0  0
   38.3420   22.6510   36.5490 H   0  0  0  0  0  0  0  0  0  0  0  0
   38.5560   23.9170   38.5810 H   0  0  0  0  0  0  0  0  0  0  0  0
   34.1410   23.1320   36.7480 H   0  0  0  0  0  0  0  0  0  0  0  0
   36.8500   28.6290   40.9690 C   0  0  0  0  0  0  0  0  0  0  0  0
   35.7630   29.4520   40.8980 C   0  0  0  0  0  0  0  0  0  0  0  0
   36.1930   30.7590   40.7780 C   0  0  0  0  0  0  0  0  0  0  0  0
   37.5270   30.6990   40.7780 N   0  0  0  0  0  0  0  0  0  0  0  0
   37.9450   29.4290   40.8930 N   0  0  0  0  0  0  0  0  0  0  0  0
   34.7210   29.1840   40.9250 H   0  0  0  0  0  0  0  0  0  0  0  0
   35.6810   31.7070   40.6930 H   0  0  0  0  0  0  0  0  0  0  0  0
   38.5700   31.6730   40.6870 C   0  0  0  0  0  0  0  0  0  0  0  0
   39.9250   31.4230   40.8170 C   0  0  0  0  0  0  0  0  0  0  0  0
   40.2080   30.4060   41.0050 H   0  0  0  0  0  0  0  0  0  0  0  0
   40.7760   32.5040   40.6960 C   0  0  0  0  0  0  0  0  0  0  0  0
   41.8520   32.3040   40.7990 H   0  0  0  0  0  0  0  0  0  0  0  0
   40.2860   33.7800   40.4530 C   0  0  0  0  0  3  0  0  0  0  0  0
   38.9240   33.9800   40.3300 C   0  0  0  0  0  3  0  0  0  0  0  0
   38.0730   32.9200   40.4480 N   0  0  0  0  0  0  0  0  0  0  0  0
  1  2  1  0  0  0  0
  2  3  2  0  0  0  0
  2  7  1  0  0  0  0
  3  4  1  0  0  0  0
  4  8  1  0  0  0  0
  4  5  2  0  0  0  0
  5  9  1  0  0  0  0
  6  5  1  0  0  0  0
  6 10  1  0  0  0  0
  7  6  2  0  0  0  0
 11 12  1  0  0  0  0
 12 18  1  0  0  0  0
 12 13  2  0  0  0  0
 13  3  1  0  0  0  0
 14 13  1  0  0  0  0
 15 14  2  0  0  0  0
 16 11  2  0  0  0  0
 16 15  1  0  0  0  0
 17 11  1  0  0  0  0
 19 15  1  0  0  0  0
 20  7  1  0  0  0  0
 21 25  1  0  0  0  0
 21 20  1  0  0  0  0
 22 21  2  0  0  0  0
 23 22  1  0  0  0  0
 23 24  1  0  0  0  0
 24 20  2  0  0  0  0
 26 22  1  0  0  0  0
 27 23  1  0  0  0  0
 27 28  1  0  0  0  0
 28 29  1  0  0  0  0
 30 31  1  0  0  0  0
 30 28  2  0  0  0  0
 32 30  1  0  0  0  0
 33 34  1  0  0  0  0
 33 32  2  0  0  0  0
 34 27  2  0  0  0  0
M  END
>  <minimizedAffinity>
-5.3891449

$$$$

 OpenBabel03242513003D

 34 37  0  0  0  0  0  0  0  0999 V2000
   38.4370   29.3340   39.7880 F   0  0  0  0  0  0  0  0  0  0  0  0
   38.0240   28.9510   41.0280 C   0  0  0  0  0  0  0  0  0  0  0  0
   38.6460   29.4220   42.1690 C   0  0  0  0  0  0  0  0  0  0  0  0
   38.1690   28.9850   43.3680 C   0  0  0  0  0  0  0  0  0  0  0  0
   37.1150   28.1120   43.5060 C   0  0  0  0  0  0  0  0  0  0  0  0
   36.5300   27.6720   42.3540 C   0  0  0  0  0  0  0  0  0  0  0  0
   36.9690   28.0790   41.1160 C   0  0  0  0  0  0  0  0  0  0  0  0
   38.6520   29.3490   44.2720 H   0  0  0  0  0  0  0  0  0  0  0  0
   36.7450   27.7730   44.4600 H   0  0  0  0  0  0  0  0  0  0  0  0
   35.6990   26.9890   42.3480 H   0  0  0  0  0  0  0  0  0  0  0  0
   42.0940   31.0240   42.3100 C   0  0  0  0  0  0  0  0  0  0  0  0
   41.0470   30.1030   42.4940 C   0  0  0  0  0  0  0  0  0  0  0  0
   39.7660   30.3480   42.0030 C   0  0  0  0  0  0  0  0  0  0  0  0
   39.6020   31.5390   41.3340 N   0  0  0  0  0  0  0  0  0  0  0  0
   40.6310   32.4040   41.1760 C   0  0  0  0  0  0  0  0  0  0  0  0
   41.8480   32.1510   41.6520 N   0  0  0  0  0  0  0  0  0  0  0  0
   42.9860   30.6230   42.7710 H   0  0  0  0  0  0  0  0  0  0  0  0
   41.1040   29.1460   43.0080 H   0  0  0  0  0  0  0  0  0  0  0  0
   40.5250   33.3410   40.6560 H   0  0  0  0  0  0  0  0  0  0  0  0
   36.3320   27.5990   39.8850 C   0  0  0  0  0  0  0  0  0  0  0  0
   36.4840   26.3820   39.2860 C   0  0  0  0  0  0  0  0  0  0  0  0
   35.7060   26.3400   38.1450 C   0  0  0  0  0  0  0  0  0  0  0  0
   35.1030   27.5280   38.0780 N   0  0  0  0  0  0  0  0  0  0  0  0
   35.4630   28.3030   39.1130 N   0  0  0  0  0  0  0  0  0  0  0  0
   37.0940   25.5540   39.6020 H   0  0  0  0  0  0  0  0  0  0  0  0
   35.5310   25.5860   37.3900 H   0  0  0  0  0  0  0  0  0  0  0  0
   34.1820   28.1310   37.1640 C   0  0  0  0  0  0  0  0  0  0  0  0
   33.1460   28.9840   37.5040 C   0  0  0  0  0  0  0  0  0  0  0  0
   33.0320   29.2080   38.5470 H   0  0  0  0  0  0  0  0  0  0  0  0
   32.3640   29.4610   36.4700 C   0  0  0  0  0  0  0  0  0  0  0  0
   31.5430   30.1400   36.7410 H   0  0  0  0  0  0  0  0  0  0  0  0
   32.6130   29.0970   35.1540 C   0  0  0  0  0  3  0  0  0  0  0  0
   33.6590   28.2410   34.8640 C   0  0  0  0  0  3  0  0  0  0  0  0
   34.4390   27.7630   35.8770 N   0  0  0  0  0  0  0  0  0  0  0  0
  1  2  1  0  0  0  0
  2  7  2  0  0  0  0
  2  3  1  0  0  0  0
  3  4  2  0  0  0  0
  4  5  1  0  0  0  0
  4  8  1  0  0  0  0
  5  9  1  0  0  0  0
  6  5  2  0  0  0  0
  7  6  1  0  0  0  0
 10  6  1  0  0  0  0
 11 12  1  0  0  0  0
 11 17  1  0  0  0  0
 12 18  1  0  0  0  0
 13  3  1  0  0  0  0
 13 12  2  0  0  0  0
 14 13  1  0  0  0  0
 15 14  2  0  0  0  0
 15 16  1  0  0  0  0
 16 11  2  0  0  0  0
 19 15  1  0  0  0  0
 20  7  1  0  0  0  0
 21 25  1  0  0  0  0
 21 20  1  0  0  0  0
 22 21  2  0  0  0  0
 23 22  1  0  0  0  0
 23 24  1  0  0  0  0
 24 20  2  0  0  0  0
 26 22  1  0  0  0  0
 27 28  1  0  0  0  0
 27 23  1  0  0  0  0
 28 29  1  0  0  0  0
 30 31  1  0  0  0  0
 30 28  2  0  0  0  0
 32 30  1  0  0  0  0
 33 32  2  0  0  0  0
 33 34  1  0  0  0  0
 34 27  2  0  0  0  0
M  END
>  <minimizedAffinity>
-5.2747426

$$$$
