
     RDKit          3D

 38 40  0  0  0  0  0  0  0  0999 V2000
   46.3335   35.0182   41.9033 C   0  0  0  0  0  0  0  0  0  0  0  0
   44.8607   34.9509   41.6860 C   0  0  0  0  0  0  0  0  0  0  0  0
   43.9750   35.4348   42.7052 C   0  0  0  0  0  0  0  0  0  0  0  0
   42.3172   35.1398   41.9795 S   0  0  0  0  0  0  0  0  0  0  0  0
   43.1068   34.4075   40.4109 C   0  0  0  0  0  0  0  0  0  0  0  0
   44.2198   34.4907   40.6462 N   0  0  0  0  0  0  0  0  0  0  0  0
   42.3604   33.9274   39.3225 O   0  0  0  0  0  0  0  0  0  0  0  0
   40.4154   34.3948   37.5840 O   0  0  0  0  0  0  0  0  0  0  0  0
   41.4846   35.0782   38.4258 P   0  0  0  0  0  0  0  0  0  0  0  0
   40.7536   36.1493   39.5085 O   0  0  0  0  0  0  0  0  0  0  0  0
   42.5534   35.9508   37.4367 O   0  0  0  0  0  0  0  0  0  0  0  0
   47.1222   34.3245   40.8342 C   0  0  0  0  0  0  0  0  0  0  0  0
   48.4565   33.9250   41.2930 C   0  0  0  0  0  0  0  0  0  0  0  0
   48.9299   32.7183   40.8096 C   0  0  0  0  0  0  0  0  0  0  0  0
   50.1762   32.2059   41.1542 C   0  0  0  0  0  0  0  0  0  0  0  0
   50.9197   32.9853   42.0178 N   0  0  0  0  0  0  0  0  0  0  0  0
   50.4317   34.1565   42.4716 C   0  0  0  0  0  0  0  0  0  0  0  0
   49.2347   34.6000   42.1115 N   0  0  0  0  0  0  0  0  0  0  0  0
   47.9286   31.7311   39.6576 S   0  0  0  0  0  0  0  0  0  0  0  0
   46.5685   34.6691   42.9303 H   0  0  0  0  0  0  0  0  0  0  0  0
   46.6265   36.1003   41.8964 H   0  0  0  0  0  0  0  0  0  0  0  0
   44.2544   35.8621   43.6557 H   0  0  0  0  0  0  0  0  0  0  0  0
   40.0136   35.7027   39.9939 H   0  0  0  0  0  0  0  0  0  0  0  0
   42.8481   36.7952   37.8815 H   0  0  0  0  0  0  0  0  0  0  0  0
   47.2523   35.0544   39.9868 H   0  0  0  0  0  0  0  0  0  0  0  0
   46.5185   33.4828   40.4827 H   0  0  0  0  0  0  0  0  0  0  0  0
   50.5502   31.2738   40.7857 H   0  0  0  0  0  0  0  0  0  0  0  0
   51.0176   34.7820   43.1587 H   0  0  0  0  0  0  0  0  0  0  0  0
   46.8973   30.5878   40.5306 C   0  0  0  0  0  0  0  0  0  0  0  0
   47.2829   29.4032   41.1517 C   0  0  0  0  0  0  0  0  0  0  0  0
   48.3237   29.1971   41.0700 H   0  0  0  0  0  0  0  0  0  0  0  0
   46.3295   28.6400   41.7862 C   0  0  0  0  0  0  0  0  0  0  0  0
   46.6680   27.7375   42.2506 H   0  0  0  0  0  0  0  0  0  0  0  0
   44.9955   28.9974   41.8360 C   0  0  0  0  0  0  0  0  0  0  0  0
   44.6699   30.1803   41.2043 C   0  0  0  0  0  0  0  0  0  0  0  0
   45.5917   30.9583   40.5672 N   0  0  0  0  0  0  0  0  0  0  0  0
   44.2475   28.4099   42.3271 H   0  0  0  0  0  0  0  0  0  0  0  0
   43.6116   30.4702   41.2400 H   0  0  0  0  0  0  0  0  0  0  0  0
  2  1  1  0
  2  3  2  0
  4  3  1  0
  5  6  2  0
  5  4  1  0
  6  2  1  0
  7  5  1  0
  8  9  2  0
  9  7  1  0
  9 10  1  0
 11  9  1  0
 12 13  1  0
 12  1  1  0
 13 18  2  0
 14 15  2  0
 14 13  1  0
 15 16  1  0
 16 17  2  0
 18 17  1  0
 19 14  1  0
  1 20  1  0
  1 21  1  0
  3 22  1  0
 10 23  1  0
 11 24  1  0
 12 25  1  0
 12 26  1  0
 15 27  1  0
 17 28  1  0
 29 30  2  0
 30 31  1  0
 30 32  1  0
 32 33  1  0
 32 34  2  0
 34 35  1  0
 35 36  2  0
 36 29  1  0
 34 37  1  0
 35 38  1  0
 19 29  1  0
M  ISO  8  20   8  21   8  22  14  23   3  24   3  25   8  26   8  27  14
M  ISO  3  28  14  31  15  33  16
M  END
>  <DihAtoms>  (1) 
13,18,28,29

>  <DihDeg>  (1) 
-0.0008914454463969197

$$$$
