
 OpenBabel03252508593D

 44 46  0  0  1  0  0  0  0  0999 V2000
   46.5830   34.5720   43.6060 N   0  0  0  0  0  0  0  0  0  0  0  0
   46.0630   35.5200   42.6920 C   0  0  0  0  0  0  0  0  0  0  0  0
   44.5550   35.6650   42.6920 C   0  0  0  0  0  0  0  0  0  0  0  0
   43.9240   35.4630   44.0440 C   0  0  0  0  0  0  0  0  0  0  0  0
   44.9480   35.2200   45.1220 C   0  0  0  0  0  0  0  0  0  0  0  0
   45.7710   34.0020   44.5720 C   0  0  2  0  0  0  0  0  0  0  0  0
   46.4590   36.5250   43.0050 H   0  0  0  0  0  0  0  0  0  0  0  0
   46.3590   35.4070   41.6490 H   0  0  0  0  0  0  0  0  0  0  0  0
   44.1720   34.8760   42.0000 H   0  0  0  0  0  0  0  0  0  0  0  0
   44.3400   36.6510   42.2370 H   0  0  0  0  0  0  0  0  0  0  0  0
   43.1910   34.6530   44.0610 H   0  0  0  0  0  0  0  0  0  0  0  0
   43.4480   36.4450   44.3050 H   0  0  0  0  0  0  0  0  0  0  0  0
   44.4120   34.8280   46.0210 H   0  0  0  0  0  0  0  0  0  0  0  0
   45.6150   36.0640   45.3230 H   0  0  0  0  0  0  0  0  0  0  0  0
   44.9920   33.2840   44.2690 H   0  0  0  0  0  0  0  0  0  0  0  0
   47.6790   33.7910   43.0930 C   0  0  0  0  0  0  0  0  0  0  0  0
   48.4000   34.4900   42.6220 H   0  0  0  0  0  0  0  0  0  0  0  0
   48.2040   33.3190   43.9710 H   0  0  0  0  0  0  0  0  0  0  0  0
   47.1530   32.7340   42.1890 C   0  0  0  0  0  0  0  0  0  0  0  0
   47.3310   31.7120   42.5680 H   0  0  0  0  0  0  0  0  0  0  0  0
   46.0400   32.8240   42.0850 H   0  0  0  0  0  0  0  0  0  0  0  0
   49.2150   32.0850   39.1130 C   0  0  0  0  0  0  0  0  0  0  0  0
   48.6490   31.9340   40.4010 C   0  0  0  0  0  0  0  0  0  0  0  0
   47.7540   32.8810   40.8400 C   0  0  0  0  0  0  0  0  0  0  0  0
   47.4590   33.9050   40.0230 N   0  0  0  0  0  0  0  0  0  0  0  0
   48.0090   34.0320   38.7990 C   0  0  0  0  0  0  0  0  0  0  0  0
   48.8830   33.1330   38.3380 N   0  0  0  0  0  0  0  0  0  0  0  0
   49.9040   31.2960   38.8570 H   0  0  0  0  0  0  0  0  0  0  0  0
   48.8940   31.1040   41.0500 H   0  0  0  0  0  0  0  0  0  0  0  0
   47.7880   34.8490   38.1230 H   0  0  0  0  0  0  0  0  0  0  0  0
   46.4940   33.6200   45.6950 O   0  0  0  0  0  0  0  0  0  0  0  0
   45.6930   31.1930   44.9760 O   0  0  0  0  0  0  0  0  0  0  0  0
   46.1860   32.0200   46.1600 P   0  0  2  0  0  0  0  0  0  0  0  0
   44.9000   32.0790   47.2710 O   0  0  0  0  0  0  0  0  0  0  0  0
   45.0670   32.8340   47.8790 H   0  0  0  0  0  0  0  0  0  0  0  0
   47.5050   31.3410   46.9210 O   0  0  0  0  0  0  0  0  0  0  0  0
   47.7590   30.0240   47.1720 C   0  0  0  0  0  0  0  0  0  0  0  0
   46.8570   28.9890   47.1350 C   0  0  0  0  0  0  0  0  0  0  0  0
   45.8360   29.2360   46.8800 H   0  0  0  0  0  0  0  0  0  0  0  0
   47.1840   27.6750   47.4010 C   0  0  0  0  0  0  0  0  0  0  0  0
   46.4610   26.8730   47.3670 H   0  0  0  0  0  0  0  0  0  0  0  0
   48.5020   27.3470   47.7310 C   0  0  0  0  0  3  0  0  0  0  0  0
   49.3520   28.4380   47.7490 C   0  0  0  0  0  3  0  0  0  0  0  0
   49.0490   29.7150   47.4920 N   0  0  0  0  0  0  0  0  0  0  0  0
  1  6  1  0  0  0  0
  2  3  1  0  0  0  0
  2  7  1  0  0  0  0
  2  1  1  0  0  0  0
  3  4  1  0  0  0  0
  4 11  1  0  0  0  0
  4 12  1  0  0  0  0
  4  5  1  0  0  0  0
  5 14  1  0  0  0  0
  5 13  1  0  0  0  0
  6 15  1  6  0  0  0
  6  5  1  0  0  0  0
  6 31  1  0  0  0  0
  8  2  1  0  0  0  0
  9  3  1  0  0  0  0
 10  3  1  0  0  0  0
 16  1  1  0  0  0  0
 16 18  1  0  0  0  0
 17 16  1  0  0  0  0
 19 20  1  0  0  0  0
 19 16  1  0  0  0  0
 21 19  1  0  0  0  0
 22 23  1  0  0  0  0
 23 24  2  0  0  0  0
 23 29  1  0  0  0  0
 24 19  1  0  0  0  0
 25 24  1  0  0  0  0
 26 25  2  0  0  0  0
 27 26  1  0  0  0  0
 27 22  2  0  0  0  0
 28 22  1  0  0  0  0
 30 26  1  0  0  0  0
 31 33  1  0  0  0  0
 33 32  2  6  0  0  0
 33 36  1  0  0  0  0
 33 34  1  0  0  0  0
 34 35  1  0  0  0  0
 36 37  1  0  0  0  0
 37 44  1  0  0  0  0
 38 37  2  0  0  0  0
 38 40  1  0  0  0  0
 39 38  1  0  0  0  0
 40 42  2  0  0  0  0
 41 40  1  0  0  0  0
 42 43  1  0  0  0  0
 44 43  2  0  0  0  0
M  END
>  <minimizedAffinity>
-4.38232899

>  <minimizedRMSD>
1.46494234

$$$$
