
     RDKit          3D

 46 48  0  0  0  0  0  0  0  0999 V2000
   47.1753   34.1687   43.0903 N   0  0  0  0  0  0  0  0  0  0  0  0
   46.6510   35.3557   42.5254 C   0  0  0  0  0  0  0  0  0  0  0  0
   45.1669   35.5775   42.7378 C   0  0  0  0  0  0  0  0  0  0  0  0
   44.6561   35.0526   44.0518 C   0  0  0  0  0  0  0  0  0  0  0  0
   45.7550   34.4704   44.9020 C   0  0  0  0  0  0  0  0  0  0  0  0
   46.4154   33.4040   43.9586 C   0  0  2  0  0  0  0  0  0  0  0  0
   48.1469   33.4973   42.2661 C   0  0  0  0  0  0  0  0  0  0  0  0
   47.4450   32.6637   41.2530 C   0  0  0  0  0  0  0  0  0  0  0  0
   49.3310   32.2831   38.0229 C   0  0  0  0  0  0  0  0  0  0  0  0
   48.8114   32.0065   39.3085 C   0  0  0  0  0  0  0  0  0  0  0  0
   47.9967   32.9418   39.9041 C   0  0  0  0  0  0  0  0  0  0  0  0
   47.7340   34.0751   39.2332 N   0  0  0  0  0  0  0  0  0  0  0  0
   48.2394   34.3205   38.0072 C   0  0  0  0  0  0  0  0  0  0  0  0
   49.0331   33.4371   37.3981 N   0  0  0  0  0  0  0  0  0  0  0  0
   47.2090   32.6920   44.8501 O   0  0  0  0  0  0  0  0  0  0  0  0
   46.0010   30.5456   43.8576 O   0  0  0  0  0  0  0  0  0  0  0  0
   46.6441   31.1180   45.1183 P   0  0  2  0  0  0  0  0  0  0  0  0
   45.4030   31.2412   46.2746 O   0  0  0  0  0  0  0  0  0  0  0  0
   47.8416   30.1372   45.7373 O   0  0  0  0  0  0  0  0  0  0  0  0
   47.1584   36.2149   43.0434 H   0  0  0  0  0  0  0  0  0  0  0  0
   46.8337   35.5136   41.4618 H   0  0  0  0  0  0  0  0  0  0  0  0
   44.6544   35.0286   41.9107 H   0  0  0  0  0  0  0  0  0  0  0  0
   44.9927   36.6610   42.5870 H   0  0  0  0  0  0  0  0  0  0  0  0
   43.8625   34.3100   43.9400 H   0  0  0  0  0  0  0  0  0  0  0  0
   44.2913   35.9520   44.6161 H   0  0  0  0  0  0  0  0  0  0  0  0
   45.2770   33.8799   45.7223 H   0  0  0  0  0  0  0  0  0  0  0  0
   46.5066   35.1898   45.2403 H   0  0  0  0  0  0  0  0  0  0  0  0
   45.5528   32.8391   43.5701 H   0  0  0  0  0  0  0  0  0  0  0  0
   48.8237   34.2682   41.8465 H   0  0  0  0  0  0  0  0  0  0  0  0
   48.7700   32.8411   42.9368 H   0  0  0  0  0  0  0  0  0  0  0  0
   47.5050   31.5816   41.4658 H   0  0  0  0  0  0  0  0  0  0  0  0
   46.3496   32.9047   41.2369 H   0  0  0  0  0  0  0  0  0  0  0  0
   49.9569   31.4937   37.6389 H   0  0  0  0  0  0  0  0  0  0  0  0
   49.0297   31.0898   39.8401 H   0  0  0  0  0  0  0  0  0  0  0  0
   48.0416   35.2270   37.4470 H   0  0  0  0  0  0  0  0  0  0  0  0
   45.7038   31.8712   46.9678 H   0  0  0  0  0  0  0  0  0  0  0  0
   47.9441   28.7769   45.6791 C   0  0  0  0  0  0  0  0  0  0  0  0
   47.0524   27.8606   46.1822 C   0  0  0  0  0  0  0  0  0  0  0  0
   46.1743   28.2510   46.6778 H   0  0  0  0  0  0  0  0  0  0  0  0
   47.2198   26.4950   46.0874 C   0  0  0  0  0  0  0  0  0  0  0  0
   46.5073   25.7891   46.4894 H   0  0  0  0  0  0  0  0  0  0  0  0
   48.3525   25.9819   45.4481 C   0  0  0  0  0  0  0  0  0  0  0  0
   49.2027   26.9617   44.9685 C   0  0  0  0  0  0  0  0  0  0  0  0
   49.0534   28.2884   45.0530 N   0  0  0  0  0  0  0  0  0  0  0  0
   48.5728   24.9365   45.3235 H   0  0  0  0  0  0  0  0  0  0  0  0
   50.1011   26.5945   44.4614 H   0  0  0  0  0  0  0  0  0  0  0  0
  1  6  1  0
  2  3  1  0
  2  1  1  0
  3  4  1  0
  4  5  1  0
  6 15  1  0
  6  5  1  0
  7  1  1  0
  8  7  1  0
  9 10  2  0
 10 11  1  0
 11  8  1  0
 12 11  2  0
 13 12  1  0
 14 13  2  0
 14  9  1  0
 17 15  1  6
 16 17  2  0
 17 19  1  0
 17 18  1  0
  2 20  1  0
  2 21  1  0
  3 22  1  0
  3 23  1  0
  4 24  1  0
  4 25  1  0
  5 26  1  0
  5 27  1  0
  6 28  1  6
  7 29  1  0
  7 30  1  0
  8 31  1  0
  8 32  1  0
  9 33  1  0
 10 34  1  0
 13 35  1  0
 18 36  1  0
 37 38  2  0
 38 39  1  0
 38 40  1  0
 40 41  1  0
 40 42  2  0
 42 43  1  0
 43 44  2  0
 44 37  1  0
 42 45  1  0
 43 46  1  0
 19 37  1  0
M  ISO  8  20  13  21  13  22  13  23  13  24  13  25  13  26  13  27  13
M  ISO  8  28  13  29   8  30   8  31   8  32   8  33  14  34  14  35  14
M  ISO  3  36   3  39  15  41  16
M  END
>  <DihAtoms>  (1) 
16,18,36,37

>  <DihDeg>  (1) 
-0.0004380918991230143

$$$$
