
 OpenBabel03252508593D

 44 46  0  0  1  0  0  0  0  0999 V2000
   46.5920   34.5420   43.6080 N   0  0  0  0  0  0  0  0  0  0  0  0
   46.0800   35.4830   42.6830 C   0  0  0  0  0  0  0  0  0  0  0  0
   44.5720   35.6360   42.6780 C   0  0  0  0  0  0  0  0  0  0  0  0
   43.9380   35.4520   44.0300 C   0  0  0  0  0  0  0  0  0  0  0  0
   44.9570   35.2150   45.1130 C   0  0  0  0  0  0  0  0  0  0  0  0
   45.7740   33.9870   44.5780 C   0  0  2  0  0  0  0  0  0  0  0  0
   46.4800   36.4890   42.9860 H   0  0  0  0  0  0  0  0  0  0  0  0
   46.3780   35.3570   41.6420 H   0  0  0  0  0  0  0  0  0  0  0  0
   44.1870   34.8420   41.9930 H   0  0  0  0  0  0  0  0  0  0  0  0
   44.3640   36.6180   42.2120 H   0  0  0  0  0  0  0  0  0  0  0  0
   43.2000   34.6460   44.0540 H   0  0  0  0  0  0  0  0  0  0  0  0
   43.4650   36.4390   44.2790 H   0  0  0  0  0  0  0  0  0  0  0  0
   44.4160   34.8360   46.0150 H   0  0  0  0  0  0  0  0  0  0  0  0
   45.6280   36.0570   45.3070 H   0  0  0  0  0  0  0  0  0  0  0  0
   44.9930   33.2700   44.2810 H   0  0  0  0  0  0  0  0  0  0  0  0
   47.6860   33.7500   43.1070 C   0  0  0  0  0  0  0  0  0  0  0  0
   48.4040   34.4380   42.6160 H   0  0  0  0  0  0  0  0  0  0  0  0
   48.2150   33.2970   43.9920 H   0  0  0  0  0  0  0  0  0  0  0  0
   47.1540   32.6730   42.2290 C   0  0  0  0  0  0  0  0  0  0  0  0
   47.3520   31.6590   42.6190 H   0  0  0  0  0  0  0  0  0  0  0  0
   46.0380   32.7490   42.1470 H   0  0  0  0  0  0  0  0  0  0  0  0
   49.3080   32.1320   39.1960 C   0  0  0  0  0  0  0  0  0  0  0  0
   48.7720   31.9950   40.4970 C   0  0  0  0  0  0  0  0  0  0  0  0
   47.7260   32.8080   40.8660 C   0  0  0  0  0  0  0  0  0  0  0  0
   47.2630   33.6950   39.9710 N   0  0  0  0  0  0  0  0  0  0  0  0
   47.7880   33.8110   38.7340 C   0  0  0  0  0  0  0  0  0  0  0  0
   48.8030   33.0390   38.3400 N   0  0  0  0  0  0  0  0  0  0  0  0
   50.1230   31.4540   38.9980 H   0  0  0  0  0  0  0  0  0  0  0  0
   49.1530   31.2760   41.2100 H   0  0  0  0  0  0  0  0  0  0  0  0
   47.4320   34.5190   37.9950 H   0  0  0  0  0  0  0  0  0  0  0  0
   46.4930   33.6130   45.7070 O   0  0  0  0  0  0  0  0  0  0  0  0
   45.6850   31.1820   45.0080 O   0  0  0  0  0  0  0  0  0  0  0  0
   46.1800   32.0180   46.1850 P   0  0  2  0  0  0  0  0  0  0  0  0
   44.8930   32.0900   47.2950 O   0  0  0  0  0  0  0  0  0  0  0  0
   45.0620   32.8500   47.8970 H   0  0  0  0  0  0  0  0  0  0  0  0
   47.4960   31.3410   46.9520 O   0  0  0  0  0  0  0  0  0  0  0  0
   47.7570   30.0230   47.1930 C   0  0  0  0  0  0  0  0  0  0  0  0
   46.8600   28.9840   47.1540 C   0  0  0  0  0  0  0  0  0  0  0  0
   45.8350   29.2290   46.9080 H   0  0  0  0  0  0  0  0  0  0  0  0
   47.1930   27.6710   47.4100 C   0  0  0  0  0  0  0  0  0  0  0  0
   46.4730   26.8660   47.3740 H   0  0  0  0  0  0  0  0  0  0  0  0
   48.5150   27.3450   47.7300 C   0  0  0  0  0  3  0  0  0  0  0  0
   49.3600   28.4410   47.7500 C   0  0  0  0  0  3  0  0  0  0  0  0
   49.0500   29.7190   47.5040 N   0  0  0  0  0  0  0  0  0  0  0  0
  1  6  1  0  0  0  0
  2  7  1  0  0  0  0
  2  1  1  0  0  0  0
  3  2  1  0  0  0  0
  3  4  1  0  0  0  0
  4 11  1  0  0  0  0
  4 12  1  0  0  0  0
  4  5  1  0  0  0  0
  5 14  1  0  0  0  0
  5 13  1  0  0  0  0
  6 15  1  6  0  0  0
  6  5  1  0  0  0  0
  6 31  1  0  0  0  0
  8  2  1  0  0  0  0
  9  3  1  0  0  0  0
 10  3  1  0  0  0  0
 16  1  1  0  0  0  0
 16 18  1  0  0  0  0
 17 16  1  0  0  0  0
 19 20  1  0  0  0  0
 19 16  1  0  0  0  0
 21 19  1  0  0  0  0
 22 23  1  0  0  0  0
 23 24  2  0  0  0  0
 23 29  1  0  0  0  0
 24 19  1  0  0  0  0
 25 24  1  0  0  0  0
 26 25  2  0  0  0  0
 27 26  1  0  0  0  0
 27 22  2  0  0  0  0
 28 22  1  0  0  0  0
 30 26  1  0  0  0  0
 31 33  1  0  0  0  0
 33 32  2  6  0  0  0
 33 36  1  0  0  0  0
 33 34  1  0  0  0  0
 34 35  1  0  0  0  0
 36 37  1  0  0  0  0
 37 44  1  0  0  0  0
 38 37  2  0  0  0  0
 38 40  1  0  0  0  0
 39 38  1  0  0  0  0
 40 42  2  0  0  0  0
 41 40  1  0  0  0  0
 42 43  1  0  0  0  0
 44 43  2  0  0  0  0
M  END
>  <minimizedAffinity>
-4.3865037

>  <minimizedRMSD>
1.63871288

$$$$
