
 OpenBabel03242519263D

 39 42  0  0  0  0  0  0  0  0999 V2000
   37.1420   28.4460   41.6930 C   0  0  0  0  0  0  0  0  0  0  0  0
   35.8400   28.5040   41.1640 C   0  0  0  0  0  0  0  0  0  0  0  0
   35.4510   29.5910   40.3640 C   0  0  0  0  0  0  0  0  0  0  0  0
   36.4010   30.5540   40.1500 N   0  0  0  0  0  0  0  0  0  0  0  0
   37.6590   30.4630   40.6850 C   0  0  0  0  0  0  0  0  0  0  0  0
   38.0040   29.4280   41.4350 N   0  0  0  0  0  0  0  0  0  0  0  0
   35.0280   27.8000   41.2740 H   0  0  0  0  0  0  0  0  0  0  0  0
   34.4880   29.7110   39.9260 H   0  0  0  0  0  0  0  0  0  0  0  0
   37.4260   27.2590   42.5170 C   0  0  0  0  0  0  0  0  0  0  0  0
   38.2640   27.5320   43.6850 C   0  0  0  0  0  0  0  0  0  0  0  0
   39.6190   26.9230   43.6240 C   0  0  0  0  0  0  0  0  0  0  0  0
   39.6020   25.4380   43.3130 C   0  0  0  0  0  0  0  0  0  0  0  0
   38.4860   25.0120   42.3910 C   0  0  0  0  0  0  0  0  0  0  0  0
   38.0280   26.2080   41.5670 C   0  0  0  0  0  0  0  0  0  0  0  0
   36.4200   26.8120   42.7760 H   0  0  0  0  0  0  0  0  0  0  0  0
   38.3980   28.6020   43.9120 H   0  0  0  0  0  0  0  0  0  0  0  0
   37.7490   27.0940   44.5900 H   0  0  0  0  0  0  0  0  0  0  0  0
   40.3700   27.4480   43.0250 H   0  0  0  0  0  0  0  0  0  0  0  0
   40.0240   26.9760   44.6800 H   0  0  0  0  0  0  0  0  0  0  0  0
   39.6570   24.8010   44.2220 H   0  0  0  0  0  0  0  0  0  0  0  0
   40.5470   25.2170   42.7600 H   0  0  0  0  0  0  0  0  0  0  0  0
   37.6140   24.7850   43.0630 H   0  0  0  0  0  0  0  0  0  0  0  0
   38.7620   24.1920   41.7270 H   0  0  0  0  0  0  0  0  0  0  0  0
   37.2380   25.9290   40.8690 H   0  0  0  0  0  0  0  0  0  0  0  0
   38.9330   26.6410   41.0990 H   0  0  0  0  0  0  0  0  0  0  0  0
   38.5440   31.5830   40.3640 C   0  0  0  0  0  0  0  0  0  0  0  0
   38.0490   32.8360   40.5300 N   0  0  0  0  0  0  0  0  0  0  0  0
   39.0040   33.7240   40.1890 C   0  0  0  0  0  0  0  0  0  0  0  0
   40.0930   33.0130   39.8110 N   0  0  0  0  0  0  0  0  0  0  0  0
   39.8150   31.7060   39.9170 N   0  0  0  0  0  0  0  0  0  0  0  0
   38.9990   34.8010   40.1850 H   0  0  0  0  0  0  0  0  0  0  0  0
   41.3850   33.3960   39.3560 C   0  0  0  0  0  0  0  0  0  0  0  0
   42.4780   33.3880   40.1980 C   0  0  0  0  0  0  0  0  0  0  0  0
   42.3310   33.0770   41.2310 H   0  0  0  0  0  0  0  0  0  0  0  0
   43.7040   33.7830   39.6520 C   0  0  0  0  0  0  0  0  0  0  0  0
   44.5300   33.7660   40.3250 H   0  0  0  0  0  0  0  0  0  0  0  0
   43.7640   34.1550   38.3230 C   0  0  0  0  0  3  0  0  0  0  0  0
   42.6490   34.1560   37.4920 C   0  0  0  0  0  3  0  0  0  0  0  0
   41.4900   33.7690   38.0580 N   0  0  0  0  0  0  0  0  0  0  0  0
  1  9  1  0  0  0  0
  2  7  1  0  0  0  0
  2  1  2  0  0  0  0
  3  2  1  0  0  0  0
  4  3  2  0  0  0  0
  4  5  1  0  0  0  0
  5  6  2  0  0  0  0
  6  1  1  0  0  0  0
  8  3  1  0  0  0  0
  9 15  1  0  0  0  0
  9 10  1  0  0  0  0
 10 16  1  0  0  0  0
 10 17  1  0  0  0  0
 11 10  1  0  0  0  0
 11 19  1  0  0  0  0
 12 11  1  0  0  0  0
 12 20  1  0  0  0  0
 13 22  1  0  0  0  0
 13 12  1  0  0  0  0
 14 13  1  0  0  0  0
 14  9  1  0  0  0  0
 18 11  1  0  0  0  0
 21 12  1  0  0  0  0
 23 13  1  0  0  0  0
 24 14  1  0  0  0  0
 25 14  1  0  0  0  0
 26 27  1  0  0  0  0
 26  5  1  0  0  0  0
 28 27  2  0  0  0  0
 29 30  1  0  0  0  0
 29 28  1  0  0  0  0
 30 26  2  0  0  0  0
 31 28  1  0  0  0  0
 32 29  1  0  0  0  0
 32 33  1  0  0  0  0
 33 34  1  0  0  0  0
 35 33  2  0  0  0  0
 35 36  1  0  0  0  0
 37 35  1  0  0  0  0
 38 39  1  0  0  0  0
 38 37  2  0  0  0  0
 39 32  2  0  0  0  0
M  END
>  <minimizedAffinity>
-6.00903797

$$$$

 OpenBabel03242519263D

 39 42  0  0  0  0  0  0  0  0999 V2000
   37.2290   26.7300   42.1200 C   0  0  0  0  0  0  0  0  0  0  0  0
   37.0830   27.1880   43.4420 C   0  0  0  0  0  0  0  0  0  0  0  0
   37.3270   28.5360   43.7540 C   0  0  0  0  0  0  0  0  0  0  0  0
   37.7040   29.3390   42.7100 N   0  0  0  0  0  0  0  0  0  0  0  0
   37.8380   28.8550   41.4350 C   0  0  0  0  0  0  0  0  0  0  0  0
   37.6020   27.5810   41.1640 N   0  0  0  0  0  0  0  0  0  0  0  0
   36.7910   26.6380   44.3250 H   0  0  0  0  0  0  0  0  0  0  0  0
   37.2390   28.9620   44.7260 H   0  0  0  0  0  0  0  0  0  0  0  0
   36.9490   25.2990   41.9230 C   0  0  0  0  0  0  0  0  0  0  0  0
   38.0290   24.4150   42.3640 C   0  0  0  0  0  0  0  0  0  0  0  0
   38.7200   23.6930   41.2630 C   0  0  0  0  0  0  0  0  0  0  0  0
   37.7720   22.9580   40.3340 C   0  0  0  0  0  0  0  0  0  0  0  0
   36.4430   23.6430   40.1370 C   0  0  0  0  0  0  0  0  0  0  0  0
   36.5920   25.1280   40.4350 C   0  0  0  0  0  0  0  0  0  0  0  0
   35.9630   25.1010   42.4400 H   0  0  0  0  0  0  0  0  0  0  0  0
   38.8070   24.9100   42.9680 H   0  0  0  0  0  0  0  0  0  0  0  0
   37.5780   23.6290   43.0390 H   0  0  0  0  0  0  0  0  0  0  0  0
   39.4750   24.2530   40.7030 H   0  0  0  0  0  0  0  0  0  0  0  0
   39.3070   22.8650   41.7650 H   0  0  0  0  0  0  0  0  0  0  0  0
   37.6530   21.8840   40.5930 H   0  0  0  0  0  0  0  0  0  0  0  0
   38.2560   22.9490   39.3280 H   0  0  0  0  0  0  0  0  0  0  0  0
   35.7820   23.2570   40.9610 H   0  0  0  0  0  0  0  0  0  0  0  0
   36.0300   23.5090   39.1360 H   0  0  0  0  0  0  0  0  0  0  0  0
   35.6540   25.6610   40.2770 H   0  0  0  0  0  0  0  0  0  0  0  0
   37.4440   25.4940   39.8300 H   0  0  0  0  0  0  0  0  0  0  0  0
   38.2570   29.8470   40.4440 C   0  0  0  0  0  0  0  0  0  0  0  0
   37.4890   29.9810   39.3330 N   0  0  0  0  0  0  0  0  0  0  0  0
   38.0300   30.9350   38.5490 C   0  0  0  0  0  0  0  0  0  0  0  0
   39.1370   31.3890   39.1830 N   0  0  0  0  0  0  0  0  0  0  0  0
   39.2780   30.7280   40.3390 N   0  0  0  0  0  0  0  0  0  0  0  0
   37.7190   31.3260   37.5960 H   0  0  0  0  0  0  0  0  0  0  0  0
   40.1020   32.3800   38.8470 C   0  0  0  0  0  0  0  0  0  0  0  0
   40.9090   32.2540   37.7340 C   0  0  0  0  0  0  0  0  0  0  0  0
   40.7910   31.3700   37.1100 H   0  0  0  0  0  0  0  0  0  0  0  0
   41.8240   33.2830   37.4920 C   0  0  0  0  0  0  0  0  0  0  0  0
   42.4330   33.1580   36.6270 H   0  0  0  0  0  0  0  0  0  0  0  0
   41.8780   34.3570   38.3590 C   0  0  0  0  0  3  0  0  0  0  0  0
   41.0550   34.4650   39.4750 C   0  0  0  0  0  3  0  0  0  0  0  0
   40.1900   33.4520   39.6700 N   0  0  0  0  0  0  0  0  0  0  0  0
  1  2  1  0  0  0  0
  2  3  2  0  0  0  0
  2  7  1  0  0  0  0
  3  8  1  0  0  0  0
  4  3  1  0  0  0  0
  5  4  2  0  0  0  0
  6  5  1  0  0  0  0
  6  1  2  0  0  0  0
  9  1  1  0  0  0  0
  9 10  1  0  0  0  0
  9 15  1  0  0  0  0
 10 16  1  0  0  0  0
 10 17  1  0  0  0  0
 11 19  1  0  0  0  0
 11 10  1  0  0  0  0
 12 20  1  0  0  0  0
 12 11  1  0  0  0  0
 13 12  1  0  0  0  0
 13 14  1  0  0  0  0
 13 22  1  0  0  0  0
 14  9  1  0  0  0  0
 18 11  1  0  0  0  0
 21 12  1  0  0  0  0
 23 13  1  0  0  0  0
 24 14  1  0  0  0  0
 25 14  1  0  0  0  0
 26  5  1  0  0  0  0
 27 26  1  0  0  0  0
 28 29  1  0  0  0  0
 28 27  2  0  0  0  0
 29 30  1  0  0  0  0
 30 26  2  0  0  0  0
 31 28  1  0  0  0  0
 32 29  1  0  0  0  0
 32 39  1  0  0  0  0
 33 32  2  0  0  0  0
 34 33  1  0  0  0  0
 35 33  1  0  0  0  0
 35 37  2  0  0  0  0
 36 35  1  0  0  0  0
 37 38  1  0  0  0  0
 38 39  2  0  0  0  0
M  END
>  <minimizedAffinity>
-5.87765169

$$$$

 OpenBabel03242519263D

 39 42  0  0  0  0  0  0  0  0999 V2000
   32.4330   29.2660   36.6910 C   0  0  0  0  0  0  0  0  0  0  0  0
   32.9650   29.5020   35.4100 C   0  0  0  0  0  0  0  0  0  0  0  0
   34.2960   29.1560   35.1230 C   0  0  0  0  0  0  0  0  0  0  0  0
   35.0080   28.5930   36.1490 N   0  0  0  0  0  0  0  0  0  0  0  0
   34.4550   28.3810   37.3840 C   0  0  0  0  0  0  0  0  0  0  0  0
   33.1980   28.7140   37.6320 N   0  0  0  0  0  0  0  0  0  0  0  0
   32.4870   29.9350   34.5430 H   0  0  0  0  0  0  0  0  0  0  0  0
   34.7730   29.3000   34.1820 H   0  0  0  0  0  0  0  0  0  0  0  0
   31.0310   29.6760   36.8670 C   0  0  0  0  0  0  0  0  0  0  0  0
   30.6280   30.7980   36.0200 C   0  0  0  0  0  0  0  0  0  0  0  0
   30.3340   32.0530   36.7610 C   0  0  0  0  0  0  0  0  0  0  0  0
   29.3520   31.8650   37.9030 C   0  0  0  0  0  0  0  0  0  0  0  0
   29.4540   30.5280   38.5930 C   0  0  0  0  0  0  0  0  0  0  0  0
   30.8450   29.9510   38.3710 C   0  0  0  0  0  0  0  0  0  0  0  0
   30.4110   28.7430   36.7070 H   0  0  0  0  0  0  0  0  0  0  0  0
   31.3470   31.0520   35.2230 H   0  0  0  0  0  0  0  0  0  0  0  0
   29.6770   30.5040   35.4850 H   0  0  0  0  0  0  0  0  0  0  0  0
   31.1920   32.6580   37.0680 H   0  0  0  0  0  0  0  0  0  0  0  0
   29.7780   32.7150   36.0300 H   0  0  0  0  0  0  0  0  0  0  0  0
   28.3050   32.1110   37.6220 H   0  0  0  0  0  0  0  0  0  0  0  0
   29.6170   32.6230   38.6790 H   0  0  0  0  0  0  0  0  0  0  0  0
   28.7720   29.8420   38.0190 H   0  0  0  0  0  0  0  0  0  0  0  0
   29.2420   30.5740   39.6620 H   0  0  0  0  0  0  0  0  0  0  0  0
   30.9640   28.9930   38.8790 H   0  0  0  0  0  0  0  0  0  0  0  0
   31.5700   30.7310   38.6720 H   0  0  0  0  0  0  0  0  0  0  0  0
   35.3590   27.7800   38.3650 C   0  0  0  0  0  0  0  0  0  0  0  0
   35.9610   26.6110   38.0250 N   0  0  0  0  0  0  0  0  0  0  0  0
   36.7500   26.2210   39.0450 C   0  0  0  0  0  0  0  0  0  0  0  0
   36.6330   27.1550   40.0190 N   0  0  0  0  0  0  0  0  0  0  0  0
   35.7860   28.1070   39.6060 N   0  0  0  0  0  0  0  0  0  0  0  0
   37.3830   25.3570   39.1580 H   0  0  0  0  0  0  0  0  0  0  0  0
   37.2180   27.2810   41.3090 C   0  0  0  0  0  0  0  0  0  0  0  0
   36.5130   27.8030   42.3740 C   0  0  0  0  0  0  0  0  0  0  0  0
   35.4850   28.1190   42.2060 H   0  0  0  0  0  0  0  0  0  0  0  0
   37.1800   27.8840   43.6010 C   0  0  0  0  0  0  0  0  0  0  0  0
   36.6100   28.2900   44.4040 H   0  0  0  0  0  0  0  0  0  0  0  0
   38.4870   27.4470   43.6890 C   0  0  0  0  0  3  0  0  0  0  0  0
   39.1810   26.9240   42.6020 C   0  0  0  0  0  3  0  0  0  0  0  0
   38.5010   26.8640   41.4420 N   0  0  0  0  0  0  0  0  0  0  0  0
  1  9  1  0  0  0  0
  1  6  1  0  0  0  0
  2  1  2  0  0  0  0
  3  2  1  0  0  0  0
  3  4  2  0  0  0  0
  4  5  1  0  0  0  0
  5  6  2  0  0  0  0
  5 26  1  0  0  0  0
  7  2  1  0  0  0  0
  8  3  1  0  0  0  0
  9 14  1  0  0  0  0
 10 11  1  0  0  0  0
 10  9  1  0  0  0  0
 11 18  1  0  0  0  0
 11 12  1  0  0  0  0
 12 13  1  0  0  0  0
 12 21  1  0  0  0  0
 13 23  1  0  0  0  0
 14 13  1  0  0  0  0
 14 25  1  0  0  0  0
 14 24  1  0  0  0  0
 15  9  1  0  0  0  0
 16 10  1  0  0  0  0
 17 10  1  0  0  0  0
 19 11  1  0  0  0  0
 20 12  1  0  0  0  0
 22 13  1  0  0  0  0
 26 30  2  0  0  0  0
 27 26  1  0  0  0  0
 27 28  2  0  0  0  0
 28 31  1  0  0  0  0
 28 29  1  0  0  0  0
 29 32  1  0  0  0  0
 30 29  1  0  0  0  0
 32 39  2  0  0  0  0
 32 33  1  0  0  0  0
 33 35  2  0  0  0  0
 34 33  1  0  0  0  0
 35 37  1  0  0  0  0
 35 36  1  0  0  0  0
 38 37  2  0  0  0  0
 39 38  1  0  0  0  0
M  END
>  <minimizedAffinity>
-5.85729551

$$$$

 OpenBabel03242519263D

 39 42  0  0  0  0  0  0  0  0999 V2000
   37.9630   25.1230   41.7740 C   0  0  0  0  0  0  0  0  0  0  0  0
   38.9670   24.9170   42.7380 C   0  0  0  0  0  0  0  0  0  0  0  0
   39.6340   26.0140   43.3080 C   0  0  0  0  0  0  0  0  0  0  0  0
   39.2460   27.2520   42.8680 N   0  0  0  0  0  0  0  0  0  0  0  0
   38.2650   27.4120   41.9260 C   0  0  0  0  0  0  0  0  0  0  0  0
   37.6480   26.3640   41.4030 N   0  0  0  0  0  0  0  0  0  0  0  0
   39.3390   23.9890   43.1470 H   0  0  0  0  0  0  0  0  0  0  0  0
   40.4030   25.9450   44.0410 H   0  0  0  0  0  0  0  0  0  0  0  0
   37.3430   23.8950   41.2510 C   0  0  0  0  0  0  0  0  0  0  0  0
   38.3010   22.9160   40.7390 C   0  0  0  0  0  0  0  0  0  0  0  0
   38.2430   22.7120   39.2670 C   0  0  0  0  0  0  0  0  0  0  0  0
   36.8470   22.4140   38.7520 C   0  0  0  0  0  0  0  0  0  0  0  0
   35.7460   23.1110   39.5130 C   0  0  0  0  0  0  0  0  0  0  0  0
   36.3110   24.3450   40.2000 C   0  0  0  0  0  0  0  0  0  0  0  0
   36.6900   23.4960   42.0850 H   0  0  0  0  0  0  0  0  0  0  0  0
   39.3520   23.1260   40.9970 H   0  0  0  0  0  0  0  0  0  0  0  0
   38.0660   21.9190   41.2170 H   0  0  0  0  0  0  0  0  0  0  0  0
   38.7480   23.4570   38.6450 H   0  0  0  0  0  0  0  0  0  0  0  0
   38.8160   21.7550   39.0700 H   0  0  0  0  0  0  0  0  0  0  0  0
   36.6480   21.3270   38.6340 H   0  0  0  0  0  0  0  0  0  0  0  0
   36.7960   22.8210   37.7140 H   0  0  0  0  0  0  0  0  0  0  0  0
   35.4790   22.4170   40.3560 H   0  0  0  0  0  0  0  0  0  0  0  0
   34.8990   23.3940   38.8860 H   0  0  0  0  0  0  0  0  0  0  0  0
   35.5350   24.8900   40.7390 H   0  0  0  0  0  0  0  0  0  0  0  0
   36.8390   24.9320   39.4250 H   0  0  0  0  0  0  0  0  0  0  0  0
   37.9820   28.8020   41.5650 C   0  0  0  0  0  0  0  0  0  0  0  0
   36.6780   29.1700   41.4760 N   0  0  0  0  0  0  0  0  0  0  0  0
   36.6220   30.4740   41.1390 C   0  0  0  0  0  0  0  0  0  0  0  0
   37.8980   30.9090   41.0200 N   0  0  0  0  0  0  0  0  0  0  0  0
   38.7300   29.8920   41.2800 N   0  0  0  0  0  0  0  0  0  0  0  0
   35.7800   31.1250   40.9750 H   0  0  0  0  0  0  0  0  0  0  0  0
   38.4580   32.1750   40.6910 C   0  0  0  0  0  0  0  0  0  0  0  0
   37.6690   33.2240   40.2640 C   0  0  0  0  0  0  0  0  0  0  0  0
   36.5950   33.0620   40.1850 H   0  0  0  0  0  0  0  0  0  0  0  0
   38.3170   34.4270   39.9650 C   0  0  0  0  0  0  0  0  0  0  0  0
   37.6820   35.2190   39.6400 H   0  0  0  0  0  0  0  0  0  0  0  0
   39.6880   34.5090   40.1080 C   0  0  0  0  0  3  0  0  0  0  0  0
   40.4650   33.4390   40.5390 C   0  0  0  0  0  3  0  0  0  0  0  0
   39.8010   32.3020   40.8150 N   0  0  0  0  0  0  0  0  0  0  0  0
  1  2  1  0  0  0  0
  2  7  1  0  0  0  0
  2  3  2  0  0  0  0
  3  8  1  0  0  0  0
  4  3  1  0  0  0  0
  5  4  2  0  0  0  0
  6  1  2  0  0  0  0
  6  5  1  0  0  0  0
  9  1  1  0  0  0  0
  9 15  1  0  0  0  0
 10 16  1  0  0  0  0
 10 17  1  0  0  0  0
 10  9  1  0  0  0  0
 11 10  1  0  0  0  0
 12 11  1  0  0  0  0
 12 13  1  0  0  0  0
 13 14  1  0  0  0  0
 13 22  1  0  0  0  0
 14 24  1  0  0  0  0
 14  9  1  0  0  0  0
 18 11  1  0  0  0  0
 19 11  1  0  0  0  0
 20 12  1  0  0  0  0
 21 12  1  0  0  0  0
 23 13  1  0  0  0  0
 25 14  1  0  0  0  0
 26  5  1  0  0  0  0
 27 26  1  0  0  0  0
 28 27  2  0  0  0  0
 29 28  1  0  0  0  0
 29 30  1  0  0  0  0
 30 26  2  0  0  0  0
 31 28  1  0  0  0  0
 32 39  1  0  0  0  0
 32 29  1  0  0  0  0
 33 32  2  0  0  0  0
 34 33  1  0  0  0  0
 35 37  2  0  0  0  0
 35 33  1  0  0  0  0
 36 35  1  0  0  0  0
 37 38  1  0  0  0  0
 38 39  2  0  0  0  0
M  END
>  <minimizedAffinity>
-5.73815012

$$$$

 OpenBabel03242519263D

 39 42  0  0  0  0  0  0  0  0999 V2000
   39.6980   33.1780   40.4880 C   0  0  0  0  0  0  0  0  0  0  0  0
   38.6400   33.9020   39.9080 C   0  0  0  0  0  0  0  0  0  0  0  0
   37.3660   33.3220   39.7940 C   0  0  0  0  0  0  0  0  0  0  0  0
   37.2390   32.0450   40.2720 N   0  0  0  0  0  0  0  0  0  0  0  0
   38.2930   31.3710   40.8290 C   0  0  0  0  0  0  0  0  0  0  0  0
   39.4860   31.9380   40.9280 N   0  0  0  0  0  0  0  0  0  0  0  0
   38.6410   34.9050   39.5060 H   0  0  0  0  0  0  0  0  0  0  0  0
   36.5150   33.8010   39.3690 H   0  0  0  0  0  0  0  0  0  0  0  0
   40.9820   33.8930   40.5470 C   0  0  0  0  0  0  0  0  0  0  0  0
   41.3650   34.5330   39.2880 C   0  0  0  0  0  0  0  0  0  0  0  0
   42.5540   33.9290   38.6290 C   0  0  0  0  0  0  0  0  0  0  0  0
   43.7530   33.7980   39.5480 C   0  0  0  0  0  0  0  0  0  0  0  0
   43.4010   33.5160   40.9880 C   0  0  0  0  0  0  0  0  0  0  0  0
   42.0210   32.8760   41.0540 C   0  0  0  0  0  0  0  0  0  0  0  0
   40.8980   34.6150   41.4130 H   0  0  0  0  0  0  0  0  0  0  0  0
   40.5620   34.5770   38.5340 H   0  0  0  0  0  0  0  0  0  0  0  0
   41.6270   35.6090   39.5120 H   0  0  0  0  0  0  0  0  0  0  0  0
   42.3880   33.0130   38.0540 H   0  0  0  0  0  0  0  0  0  0  0  0
   42.8870   34.6840   37.8530 H   0  0  0  0  0  0  0  0  0  0  0  0
   44.4710   34.6410   39.4520 H   0  0  0  0  0  0  0  0  0  0  0  0
   44.3250   32.9040   39.2000 H   0  0  0  0  0  0  0  0  0  0  0  0
   43.2660   34.5240   41.4660 H   0  0  0  0  0  0  0  0  0  0  0  0
   44.1270   32.8770   41.4940 H   0  0  0  0  0  0  0  0  0  0  0  0
   41.7450   32.6340   42.0800 H   0  0  0  0  0  0  0  0  0  0  0  0
   42.0320   32.0160   40.3580 H   0  0  0  0  0  0  0  0  0  0  0  0
   37.9840   30.0140   41.2800 C   0  0  0  0  0  0  0  0  0  0  0  0
   37.9790   29.7870   42.6190 N   0  0  0  0  0  0  0  0  0  0  0  0
   37.6730   28.4930   42.8350 C   0  0  0  0  0  0  0  0  0  0  0  0
   37.4890   27.9200   41.6220 N   0  0  0  0  0  0  0  0  0  0  0  0
   37.6780   28.8460   40.6720 N   0  0  0  0  0  0  0  0  0  0  0  0
   37.5710   27.9340   43.7490 H   0  0  0  0  0  0  0  0  0  0  0  0
   37.1530   26.5970   41.2220 C   0  0  0  0  0  0  0  0  0  0  0  0
   37.2050   25.5400   42.1070 C   0  0  0  0  0  0  0  0  0  0  0  0
   37.5120   25.7410   43.1330 H   0  0  0  0  0  0  0  0  0  0  0  0
   36.8540   24.2780   41.6150 C   0  0  0  0  0  0  0  0  0  0  0  0
   36.9030   23.4830   42.3220 H   0  0  0  0  0  0  0  0  0  0  0  0
   36.4800   24.1510   40.2920 C   0  0  0  0  0  3  0  0  0  0  0  0
   36.4340   25.2300   39.4150 C   0  0  0  0  0  3  0  0  0  0  0  0
   36.7790   26.4240   39.9310 N   0  0  0  0  0  0  0  0  0  0  0  0
  1  9  1  0  0  0  0
  1  6  1  0  0  0  0
  2  1  2  0  0  0  0
  3  2  1  0  0  0  0
  3  4  2  0  0  0  0
  4  5  1  0  0  0  0
  5  6  2  0  0  0  0
  5 26  1  0  0  0  0
  7  2  1  0  0  0  0
  8  3  1  0  0  0  0
  9 14  1  0  0  0  0
  9 15  1  0  0  0  0
 10 17  1  0  0  0  0
 10  9  1  0  0  0  0
 11 10  1  0  0  0  0
 11 12  1  0  0  0  0
 12 13  1  0  0  0  0
 13 14  1  0  0  0  0
 13 22  1  0  0  0  0
 13 23  1  0  0  0  0
 14 24  1  0  0  0  0
 16 10  1  0  0  0  0
 18 11  1  0  0  0  0
 19 11  1  0  0  0  0
 20 12  1  0  0  0  0
 21 12  1  0  0  0  0
 25 14  1  0  0  0  0
 26 27  1  0  0  0  0
 27 28  2  0  0  0  0
 28 31  1  0  0  0  0
 29 28  1  0  0  0  0
 30 26  2  0  0  0  0
 30 29  1  0  0  0  0
 32 29  1  0  0  0  0
 32 33  1  0  0  0  0
 33 34  1  0  0  0  0
 35 33  2  0  0  0  0
 35 36  1  0  0  0  0
 37 35  1  0  0  0  0
 38 39  1  0  0  0  0
 38 37  2  0  0  0  0
 39 32  2  0  0  0  0
M  END
>  <minimizedAffinity>
-5.68584442

$$$$

 OpenBabel03242519263D

 39 42  0  0  0  0  0  0  0  0999 V2000
   36.5880   27.1120   39.7660 C   0  0  0  0  0  0  0  0  0  0  0  0
   36.7540   25.7840   39.3310 C   0  0  0  0  0  0  0  0  0  0  0  0
   36.0190   25.3030   38.2350 C   0  0  0  0  0  0  0  0  0  0  0  0
   35.1610   26.1930   37.6460 N   0  0  0  0  0  0  0  0  0  0  0  0
   35.0250   27.4790   38.1000 C   0  0  0  0  0  0  0  0  0  0  0  0
   35.7290   27.9110   39.1350 N   0  0  0  0  0  0  0  0  0  0  0  0
   37.4000   25.0130   39.7250 H   0  0  0  0  0  0  0  0  0  0  0  0
   36.0850   24.3150   37.8430 H   0  0  0  0  0  0  0  0  0  0  0  0
   37.4110   27.4930   40.9250 C   0  0  0  0  0  0  0  0  0  0  0  0
   37.3490   26.5440   42.0370 C   0  0  0  0  0  0  0  0  0  0  0  0
   36.6750   27.0680   43.2550 C   0  0  0  0  0  0  0  0  0  0  0  0
   37.2220   28.4040   43.7220 C   0  0  0  0  0  0  0  0  0  0  0  0
   37.6830   29.3080   42.6050 C   0  0  0  0  0  0  0  0  0  0  0  0
   36.9750   28.9180   41.3150 C   0  0  0  0  0  0  0  0  0  0  0  0
   38.4570   27.6540   40.5260 H   0  0  0  0  0  0  0  0  0  0  0  0
   36.8730   25.5810   41.7910 H   0  0  0  0  0  0  0  0  0  0  0  0
   38.4090   26.2900   42.3340 H   0  0  0  0  0  0  0  0  0  0  0  0
   35.5810   27.0620   43.2550 H   0  0  0  0  0  0  0  0  0  0  0  0
   36.9540   26.3540   44.0880 H   0  0  0  0  0  0  0  0  0  0  0  0
   37.9870   28.3070   44.5220 H   0  0  0  0  0  0  0  0  0  0  0  0
   36.3750   28.9420   44.2110 H   0  0  0  0  0  0  0  0  0  0  0  0
   38.7600   29.0370   42.4270 H   0  0  0  0  0  0  0  0  0  0  0  0
   37.5190   30.3670   42.8090 H   0  0  0  0  0  0  0  0  0  0  0  0
   37.2660   29.5690   40.4900 H   0  0  0  0  0  0  0  0  0  0  0  0
   35.8910   28.9000   41.5360 H   0  0  0  0  0  0  0  0  0  0  0  0
   34.0590   28.2920   37.3610 C   0  0  0  0  0  0  0  0  0  0  0  0
   34.2160   28.3780   36.0150 N   0  0  0  0  0  0  0  0  0  0  0  0
   33.2370   29.1590   35.5170 C   0  0  0  0  0  0  0  0  0  0  0  0
   32.4740   29.5560   36.5630 N   0  0  0  0  0  0  0  0  0  0  0  0
   32.9720   29.0280   37.6890 N   0  0  0  0  0  0  0  0  0  0  0  0
   33.0220   29.4650   34.5080 H   0  0  0  0  0  0  0  0  0  0  0  0
   31.3170   30.3780   36.6540 C   0  0  0  0  0  0  0  0  0  0  0  0
   30.9610   31.2400   35.6370 C   0  0  0  0  0  0  0  0  0  0  0  0
   31.5930   31.2780   34.7500 H   0  0  0  0  0  0  0  0  0  0  0  0
   29.8050   32.0050   35.8250 C   0  0  0  0  0  0  0  0  0  0  0  0
   29.5560   32.6600   35.0220 H   0  0  0  0  0  0  0  0  0  0  0  0
   29.0860   31.8650   36.9950 C   0  0  0  0  0  3  0  0  0  0  0  0
   29.4620   30.9900   38.0090 C   0  0  0  0  0  3  0  0  0  0  0  0
   30.5800   30.2740   37.7870 N   0  0  0  0  0  0  0  0  0  0  0  0
  1  9  1  0  0  0  0
  2  7  1  0  0  0  0
  2  1  1  0  0  0  0
  3  2  2  0  0  0  0
  4  5  2  0  0  0  0
  4  3  1  0  0  0  0
  5  6  1  0  0  0  0
  6  1  2  0  0  0  0
  8  3  1  0  0  0  0
  9 14  1  0  0  0  0
  9 10  1  0  0  0  0
 10 17  1  0  0  0  0
 10 11  1  0  0  0  0
 11 12  1  0  0  0  0
 11 19  1  0  0  0  0
 12 21  1  0  0  0  0
 12 20  1  0  0  0  0
 13 23  1  0  0  0  0
 13 12  1  0  0  0  0
 14 25  1  0  0  0  0
 14 13  1  0  0  0  0
 15  9  1  0  0  0  0
 16 10  1  0  0  0  0
 18 11  1  0  0  0  0
 22 13  1  0  0  0  0
 24 14  1  0  0  0  0
 26 30  2  0  0  0  0
 26  5  1  0  0  0  0
 27 26  1  0  0  0  0
 28 27  2  0  0  0  0
 28 29  1  0  0  0  0
 29 32  1  0  0  0  0
 29 30  1  0  0  0  0
 31 28  1  0  0  0  0
 32 39  1  0  0  0  0
 33 35  1  0  0  0  0
 33 32  2  0  0  0  0
 34 33  1  0  0  0  0
 35 37  2  0  0  0  0
 36 35  1  0  0  0  0
 37 38  1  0  0  0  0
 39 38  2  0  0  0  0
M  END
>  <minimizedAffinity>
-5.58674288

$$$$

 OpenBabel03242519263D

 39 42  0  0  0  0  0  0  0  0999 V2000
   40.5760   33.2440   39.9340 C   0  0  0  0  0  0  0  0  0  0  0  0
   39.8930   34.4730   39.9880 C   0  0  0  0  0  0  0  0  0  0  0  0
   38.5070   34.5010   40.2160 C   0  0  0  0  0  0  0  0  0  0  0  0
   37.8960   33.2850   40.3750 N   0  0  0  0  0  0  0  0  0  0  0  0
   38.5960   32.1090   40.3140 C   0  0  0  0  0  0  0  0  0  0  0  0
   39.9020   32.1060   40.0990 N   0  0  0  0  0  0  0  0  0  0  0  0
   40.2830   35.4750   39.8770 H   0  0  0  0  0  0  0  0  0  0  0  0
   37.9170   35.3860   40.2710 H   0  0  0  0  0  0  0  0  0  0  0  0
   42.0230   33.3480   39.6860 C   0  0  0  0  0  0  0  0  0  0  0  0
   42.3990   34.4600   38.8130 C   0  0  0  0  0  0  0  0  0  0  0  0
   42.9310   34.0480   37.4870 C   0  0  0  0  0  0  0  0  0  0  0  0
   44.0560   33.0330   37.5760 C   0  0  0  0  0  0  0  0  0  0  0  0
   43.9290   32.0680   38.7290 C   0  0  0  0  0  0  0  0  0  0  0  0
   42.4700   31.9750   39.1500 C   0  0  0  0  0  0  0  0  0  0  0  0
   42.5120   33.3870   40.7050 H   0  0  0  0  0  0  0  0  0  0  0  0
   41.5930   35.1890   38.6280 H   0  0  0  0  0  0  0  0  0  0  0  0
   43.2190   35.0420   39.3280 H   0  0  0  0  0  0  0  0  0  0  0  0
   42.1970   33.7650   36.7270 H   0  0  0  0  0  0  0  0  0  0  0  0
   43.4290   34.9700   37.0600 H   0  0  0  0  0  0  0  0  0  0  0  0
   45.0660   33.4970   37.5300 H   0  0  0  0  0  0  0  0  0  0  0  0
   43.9950   32.4070   36.6540 H   0  0  0  0  0  0  0  0  0  0  0  0
   44.4400   32.5690   39.5960 H   0  0  0  0  0  0  0  0  0  0  0  0
   44.3110   31.0710   38.5030 H   0  0  0  0  0  0  0  0  0  0  0  0
   42.3370   31.2640   39.9660 H   0  0  0  0  0  0  0  0  0  0  0  0
   41.8840   31.7530   38.2370 H   0  0  0  0  0  0  0  0  0  0  0  0
   37.7860   30.9040   40.4960 C   0  0  0  0  0  0  0  0  0  0  0  0
   36.4450   31.0680   40.6240 N   0  0  0  0  0  0  0  0  0  0  0  0
   35.8760   29.8560   40.7770 C   0  0  0  0  0  0  0  0  0  0  0  0
   36.8740   28.9410   40.7440 N   0  0  0  0  0  0  0  0  0  0  0  0
   38.0400   29.5780   40.5720 N   0  0  0  0  0  0  0  0  0  0  0  0
   34.8460   29.5700   40.9070 H   0  0  0  0  0  0  0  0  0  0  0  0
   36.8850   27.5230   40.8520 C   0  0  0  0  0  0  0  0  0  0  0  0
   36.5830   26.7140   39.7750 C   0  0  0  0  0  0  0  0  0  0  0  0
   36.3330   27.1900   38.8280 H   0  0  0  0  0  0  0  0  0  0  0  0
   36.6230   25.3320   39.9860 C   0  0  0  0  0  0  0  0  0  0  0  0
   36.3860   24.7340   39.1360 H   0  0  0  0  0  0  0  0  0  0  0  0
   36.9560   24.8490   41.2360 C   0  0  0  0  0  3  0  0  0  0  0  0
   37.2580   25.6820   42.3090 C   0  0  0  0  0  3  0  0  0  0  0  0
   37.2070   27.0040   42.0610 N   0  0  0  0  0  0  0  0  0  0  0  0
  1  2  2  0  0  0  0
  1  6  1  0  0  0  0
  2  3  1  0  0  0  0
  3  8  1  0  0  0  0
  3  4  2  0  0  0  0
  5  4  1  0  0  0  0
  5 26  1  0  0  0  0
  6  5  2  0  0  0  0
  7  2  1  0  0  0  0
  9  1  1  0  0  0  0
  9 15  1  0  0  0  0
 10 17  1  0  0  0  0
 10  9  1  0  0  0  0
 11 12  1  0  0  0  0
 11 10  1  0  0  0  0
 12 13  1  0  0  0  0
 13 14  1  0  0  0  0
 13 22  1  0  0  0  0
 14  9  1  0  0  0  0
 14 24  1  0  0  0  0
 16 10  1  0  0  0  0
 18 11  1  0  0  0  0
 19 11  1  0  0  0  0
 20 12  1  0  0  0  0
 21 12  1  0  0  0  0
 23 13  1  0  0  0  0
 25 14  1  0  0  0  0
 26 30  2  0  0  0  0
 26 27  1  0  0  0  0
 27 28  2  0  0  0  0
 28 31  1  0  0  0  0
 29 28  1  0  0  0  0
 29 32  1  0  0  0  0
 30 29  1  0  0  0  0
 32 39  1  0  0  0  0
 33 35  1  0  0  0  0
 33 32  2  0  0  0  0
 34 33  1  0  0  0  0
 35 37  2  0  0  0  0
 36 35  1  0  0  0  0
 37 38  1  0  0  0  0
 39 38  2  0  0  0  0
M  END
>  <minimizedAffinity>
-5.47909689

$$$$

 OpenBabel03242519263D

 39 42  0  0  0  0  0  0  0  0999 V2000
   36.9520   28.9650   41.2560 C   0  0  0  0  0  0  0  0  0  0  0  0
   37.1600   28.3950   42.5250 C   0  0  0  0  0  0  0  0  0  0  0  0
   38.1630   28.8990   43.3700 C   0  0  0  0  0  0  0  0  0  0  0  0
   38.8930   29.9490   42.8810 N   0  0  0  0  0  0  0  0  0  0  0  0
   38.6620   30.4770   41.6380 C   0  0  0  0  0  0  0  0  0  0  0  0
   37.7110   29.9860   40.8580 N   0  0  0  0  0  0  0  0  0  0  0  0
   36.6400   27.5730   42.9970 H   0  0  0  0  0  0  0  0  0  0  0  0
   38.3840   28.5260   44.3420 H   0  0  0  0  0  0  0  0  0  0  0  0
   35.8760   28.3460   40.4650 C   0  0  0  0  0  0  0  0  0  0  0  0
   36.3330   27.2840   39.5680 C   0  0  0  0  0  0  0  0  0  0  0  0
   36.2250   27.6130   38.1220 C   0  0  0  0  0  0  0  0  0  0  0  0
   34.8470   28.1020   37.7150 C   0  0  0  0  0  0  0  0  0  0  0  0
   34.1350   28.9010   38.7780 C   0  0  0  0  0  0  0  0  0  0  0  0
   35.1600   29.4960   39.7330 C   0  0  0  0  0  0  0  0  0  0  0  0
   35.0980   28.0040   41.2120 H   0  0  0  0  0  0  0  0  0  0  0  0
   37.3670   26.9460   39.7480 H   0  0  0  0  0  0  0  0  0  0  0  0
   35.6830   26.3770   39.7470 H   0  0  0  0  0  0  0  0  0  0  0  0
   37.0130   28.2420   37.6980 H   0  0  0  0  0  0  0  0  0  0  0  0
   36.3360   26.6270   37.5770 H   0  0  0  0  0  0  0  0  0  0  0  0
   34.2040   27.2970   37.2980 H   0  0  0  0  0  0  0  0  0  0  0  0
   34.9980   28.8070   36.8620 H   0  0  0  0  0  0  0  0  0  0  0  0
   33.5790   28.1460   39.3980 H   0  0  0  0  0  0  0  0  0  0  0  0
   33.5050   29.6960   38.3740 H   0  0  0  0  0  0  0  0  0  0  0  0
   34.6810   30.1030   40.5010 H   0  0  0  0  0  0  0  0  0  0  0  0
   35.9060   30.0300   39.1140 H   0  0  0  0  0  0  0  0  0  0  0  0
   39.5400   31.5880   41.2700 C   0  0  0  0  0  0  0  0  0  0  0  0
   38.9500   32.7330   40.8410 N   0  0  0  0  0  0  0  0  0  0  0  0
   39.9130   33.6310   40.5550 C   0  0  0  0  0  0  0  0  0  0  0  0
   41.1020   33.0350   40.8100 N   0  0  0  0  0  0  0  0  0  0  0  0
   40.8770   31.7880   41.2460 N   0  0  0  0  0  0  0  0  0  0  0  0
   39.8500   34.6430   40.1920 H   0  0  0  0  0  0  0  0  0  0  0  0
   42.4480   33.4820   40.6990 C   0  0  0  0  0  0  0  0  0  0  0  0
   43.1660   33.3290   39.5310 C   0  0  0  0  0  0  0  0  0  0  0  0
   42.6750   32.8540   38.6830 H   0  0  0  0  0  0  0  0  0  0  0  0
   44.4820   33.8030   39.5250 C   0  0  0  0  0  0  0  0  0  0  0  0
   45.0100   33.6720   38.6090 H   0  0  0  0  0  0  0  0  0  0  0  0
   44.9930   34.3910   40.6660 C   0  0  0  0  0  3  0  0  0  0  0  0
   44.2520   34.5350   41.8340 C   0  0  0  0  0  3  0  0  0  0  0  0
   42.9910   34.0650   41.7950 N   0  0  0  0  0  0  0  0  0  0  0  0
  1  2  1  0  0  0  0
  2  7  1  0  0  0  0
  2  3  2  0  0  0  0
  3  8  1  0  0  0  0
  4  3  1  0  0  0  0
  5  4  2  0  0  0  0
  6  1  2  0  0  0  0
  6  5  1  0  0  0  0
  9 15  1  0  0  0  0
  9  1  1  0  0  0  0
 10 17  1  0  0  0  0
 10 16  1  0  0  0  0
 10  9  1  0  0  0  0
 11 10  1  0  0  0  0
 12 11  1  0  0  0  0
 12 13  1  0  0  0  0
 13 22  1  0  0  0  0
 13 14  1  0  0  0  0
 14  9  1  0  0  0  0
 14 24  1  0  0  0  0
 18 11  1  0  0  0  0
 19 11  1  0  0  0  0
 20 12  1  0  0  0  0
 21 12  1  0  0  0  0
 23 13  1  0  0  0  0
 25 14  1  0  0  0  0
 26  5  1  0  0  0  0
 27 26  1  0  0  0  0
 28 29  1  0  0  0  0
 28 27  2  0  0  0  0
 29 30  1  0  0  0  0
 30 26  2  0  0  0  0
 31 28  1  0  0  0  0
 32 29  1  0  0  0  0
 32 39  1  0  0  0  0
 33 32  2  0  0  0  0
 34 33  1  0  0  0  0
 35 33  1  0  0  0  0
 35 37  2  0  0  0  0
 36 35  1  0  0  0  0
 37 38  1  0  0  0  0
 39 38  2  0  0  0  0
M  END
>  <minimizedAffinity>
-5.43811655

$$$$

 OpenBabel03242519263D

 39 42  0  0  0  0  0  0  0  0999 V2000
   36.8850   27.9460   41.8300 C   0  0  0  0  0  0  0  0  0  0  0  0
   37.3010   29.2020   42.3090 C   0  0  0  0  0  0  0  0  0  0  0  0
   36.9450   30.3740   41.6210 C   0  0  0  0  0  0  0  0  0  0  0  0
   36.1910   30.2050   40.4900 N   0  0  0  0  0  0  0  0  0  0  0  0
   35.8070   28.9640   40.0540 C   0  0  0  0  0  0  0  0  0  0  0  0
   36.1530   27.8730   40.7190 N   0  0  0  0  0  0  0  0  0  0  0  0
   37.8910   29.4360   43.1830 H   0  0  0  0  0  0  0  0  0  0  0  0
   37.2190   31.3590   41.9160 H   0  0  0  0  0  0  0  0  0  0  0  0
   37.3250   26.7960   42.6360 C   0  0  0  0  0  0  0  0  0  0  0  0
   38.4180   27.1000   43.5590 C   0  0  0  0  0  0  0  0  0  0  0  0
   39.7070   26.4380   43.2220 C   0  0  0  0  0  0  0  0  0  0  0  0
   39.5810   24.9400   43.0160 C   0  0  0  0  0  0  0  0  0  0  0  0
   38.2710   24.5070   42.4060 C   0  0  0  0  0  0  0  0  0  0  0  0
   37.6620   25.6720   41.6390 C   0  0  0  0  0  0  0  0  0  0  0  0
   36.3960   26.4020   43.1490 H   0  0  0  0  0  0  0  0  0  0  0  0
   38.6280   28.1750   43.6820 H   0  0  0  0  0  0  0  0  0  0  0  0
   38.1190   26.7310   44.5840 H   0  0  0  0  0  0  0  0  0  0  0  0
   40.3100   26.9010   42.4350 H   0  0  0  0  0  0  0  0  0  0  0  0
   40.3480   26.5320   44.1510 H   0  0  0  0  0  0  0  0  0  0  0  0
   39.8320   24.3510   43.9250 H   0  0  0  0  0  0  0  0  0  0  0  0
   40.3650   24.6530   42.2740 H   0  0  0  0  0  0  0  0  0  0  0  0
   37.5750   24.3490   43.2750 H   0  0  0  0  0  0  0  0  0  0  0  0
   38.3640   23.6420   41.7480 H   0  0  0  0  0  0  0  0  0  0  0  0
   36.7240   25.3870   41.1620 H   0  0  0  0  0  0  0  0  0  0  0  0
   38.4420   26.0450   40.9480 H   0  0  0  0  0  0  0  0  0  0  0  0
   35.0130   28.9660   38.8240 C   0  0  0  0  0  0  0  0  0  0  0  0
   35.6880   28.9790   37.6460 N   0  0  0  0  0  0  0  0  0  0  0  0
   34.7940   28.9740   36.6380 C   0  0  0  0  0  0  0  0  0  0  0  0
   33.5620   28.9590   37.1990 N   0  0  0  0  0  0  0  0  0  0  0  0
   33.6930   28.9530   38.5330 N   0  0  0  0  0  0  0  0  0  0  0  0
   34.9340   28.9810   35.5710 H   0  0  0  0  0  0  0  0  0  0  0  0
   32.2510   28.9470   36.6460 C   0  0  0  0  0  0  0  0  0  0  0  0
   31.4160   30.0410   36.7460 C   0  0  0  0  0  0  0  0  0  0  0  0
   31.7850   30.9250   37.2630 H   0  0  0  0  0  0  0  0  0  0  0  0
   30.1470   29.9280   36.1690 C   0  0  0  0  0  0  0  0  0  0  0  0
   29.5250   30.7880   36.2620 H   0  0  0  0  0  0  0  0  0  0  0  0
   29.7950   28.7510   35.5380 C   0  0  0  0  0  3  0  0  0  0  0  0
   30.6520   27.6590   35.4480 C   0  0  0  0  0  3  0  0  0  0  0  0
   31.8630   27.8120   36.0170 N   0  0  0  0  0  0  0  0  0  0  0  0
  1  2  1  0  0  0  0
  1  9  1  0  0  0  0
  2  7  1  0  0  0  0
  3  8  1  0  0  0  0
  3  2  2  0  0  0  0
  4  3  1  0  0  0  0
  5  4  2  0  0  0  0
  5  6  1  0  0  0  0
  6  1  2  0  0  0  0
  9 15  1  0  0  0  0
  9 10  1  0  0  0  0
 10 16  1  0  0  0  0
 10 17  1  0  0  0  0
 11 10  1  0  0  0  0
 11 19  1  0  0  0  0
 12 11  1  0  0  0  0
 12 20  1  0  0  0  0
 13 12  1  0  0  0  0
 13 22  1  0  0  0  0
 14 13  1  0  0  0  0
 14  9  1  0  0  0  0
 18 11  1  0  0  0  0
 21 12  1  0  0  0  0
 23 13  1  0  0  0  0
 24 14  1  0  0  0  0
 25 14  1  0  0  0  0
 26  5  1  0  0  0  0
 27 26  1  0  0  0  0
 28 29  1  0  0  0  0
 28 27  2  0  0  0  0
 29 30  1  0  0  0  0
 30 26  2  0  0  0  0
 31 28  1  0  0  0  0
 32 33  1  0  0  0  0
 32 29  1  0  0  0  0
 33 34  1  0  0  0  0
 35 36  1  0  0  0  0
 35 33  2  0  0  0  0
 37 35  1  0  0  0  0
 38 37  2  0  0  0  0
 38 39  1  0  0  0  0
 39 32  2  0  0  0  0
M  END
>  <minimizedAffinity>
-5.42807388

$$$$
