
     RDKit          3D

 45 48  0  0  0  0  0  0  0  0999 V2000
   47.0483   34.7960   41.9550 C   0  0  2  0  0  0  0  0  0  0  0  0
   46.2922   34.1772   40.7806 C   0  0  0  0  0  0  0  0  0  0  0  0
   47.4939   33.9923   39.8293 C   0  0  0  0  0  0  0  0  0  0  0  0
   48.6378   33.6254   40.7227 C   0  0  1  0  0  0  0  0  0  0  0  0
   48.1311   33.7689   42.1255 C   0  0  0  0  0  0  0  0  0  0  0  0
   44.5503   35.9934   44.5035 C   0  0  0  0  0  0  0  0  0  0  0  0
   45.2789   35.9698   43.3036 C   0  0  0  0  0  0  0  0  0  0  0  0
   46.1873   34.9312   43.1540 C   0  0  0  0  0  0  0  0  0  0  0  0
   46.3510   33.9693   44.1601 N   0  0  0  0  0  0  0  0  0  0  0  0
   45.6143   34.0507   45.2975 C   0  0  0  0  0  0  0  0  0  0  0  0
   44.7234   35.0531   45.4662 N   0  0  0  0  0  0  0  0  0  0  0  0
   49.1223   32.2027   40.5623 C   0  0  2  0  0  0  0  0  0  0  0  0
   49.7594   31.6094   41.7326 C   0  0  0  0  0  0  0  0  0  0  0  0
   50.5476   31.8764   40.4937 C   0  0  1  0  0  0  0  0  0  0  0  0
   50.9205   30.7622   39.7019 O   0  0  0  0  0  0  0  0  0  0  0  0
   52.0376   30.2239   37.4089 O   0  0  0  0  0  0  0  0  0  0  0  0
   51.8818   31.3156   38.4383 P   0  0  1  0  0  0  0  0  0  0  0  0
   51.1270   32.6449   37.6643 O   0  0  0  0  0  0  0  0  0  0  0  0
   53.3963   31.8175   38.8993 O   0  0  0  0  0  0  0  0  0  0  0  0
   47.4834   35.7511   41.6032 H   0  0  0  0  0  0  0  0  0  0  0  0
   45.8588   33.2174   41.0581 H   0  0  0  0  0  0  0  0  0  0  0  0
   45.5713   34.8953   40.3391 H   0  0  0  0  0  0  0  0  0  0  0  0
   47.2608   33.2541   39.0415 H   0  0  0  0  0  0  0  0  0  0  0  0
   47.6700   35.0115   39.4184 H   0  0  0  0  0  0  0  0  0  0  0  0
   49.5160   34.2843   40.5347 H   0  0  0  0  0  0  0  0  0  0  0  0
   48.9483   34.2348   42.7181 H   0  0  0  0  0  0  0  0  0  0  0  0
   47.7688   32.8374   42.5577 H   0  0  0  0  0  0  0  0  0  0  0  0
   43.8306   36.7892   44.6573 H   0  0  0  0  0  0  0  0  0  0  0  0
   45.1611   36.7031   42.5244 H   0  0  0  0  0  0  0  0  0  0  0  0
   45.8334   33.2530   45.9920 H   0  0  0  0  0  0  0  0  0  0  0  0
   48.4334   31.5756   39.9706 H   0  0  0  0  0  0  0  0  0  0  0  0
   49.5052   30.5536   41.9842 H   0  0  0  0  0  0  0  0  0  0  0  0
   50.0062   32.1959   42.6389 H   0  0  0  0  0  0  0  0  0  0  0  0
   51.2535   32.7129   40.4245 H   0  0  0  0  0  0  0  0  0  0  0  0
   51.7546   33.3621   37.4475 H   0  0  0  0  0  0  0  0  0  0  0  0
   54.1350   31.1069   39.8346 C   0  0  0  0  0  0  0  0  0  0  0  0
   54.1779   31.2317   41.2071 C   0  0  0  0  0  0  0  0  0  0  0  0
   53.5326   32.0015   41.5770 H   0  0  0  0  0  0  0  0  0  0  0  0
   55.0033   30.3968   41.9274 C   0  0  0  0  0  0  0  0  0  0  0  0
   55.0006   30.5359   43.0076 H   0  0  0  0  0  0  0  0  0  0  0  0
   55.7850   29.4420   41.3034 C   0  0  0  0  0  0  0  0  0  0  0  0
   55.7153   29.3472   39.9289 C   0  0  0  0  0  0  0  0  0  0  0  0
   54.8977   30.1750   39.2230 N   0  0  0  0  0  0  0  0  0  0  0  0
   56.3993   28.8354   41.9563 H   0  0  0  0  0  0  0  0  0  0  0  0
   56.3305   28.5977   39.4543 H   0  0  0  0  0  0  0  0  0  0  0  0
  1  5  1  0
  1  8  1  0
  2  1  1  0
  3  4  1  0
  3  2  1  0
  4  5  1  0
  6 11  2  0
  7  6  1  0
  8  7  2  0
  8  9  1  0
  9 10  2  0
 10 11  1  0
 12  4  1  0
 12 13  1  0
 14 12  1  0
 14 13  1  0
 15 14  1  0
 16 17  2  0
 17 19  1  1
 17 15  1  0
 18 17  1  0
  1 20  1  6
  2 21  1  0
  2 22  1  0
  3 23  1  0
  3 24  1  0
  4 25  1  1
  5 26  1  0
  5 27  1  0
  6 28  1  0
  7 29  1  0
 10 30  1  0
 12 31  1  6
 13 32  1  0
 13 33  1  0
 14 34  1  1
 18 35  1  0
 36 37  2  0
 37 38  1  0
 37 39  1  0
 39 40  1  0
 39 41  2  0
 41 42  1  0
 42 43  2  0
 43 36  1  0
 41 44  1  0
 42 45  1  0
 19 36  1  0
M  ISO  8  20  13  21  13  22  13  23  13  24  13  25  13  26  13  27  13
M  ISO  8  28  14  29  14  30  14  31  13  32  13  33  13  34  13  35   3
M  ISO  2  38  15  40  16
M  END
>  <DihAtoms>  (1) 
16,18,35,36

>  <DihDeg>  (1) 
-0.00013751654449956606

$$$$
