
 OpenBabel03252509073D

 40 43  0  0  0  0  0  0  0  0999 V2000
   47.8450   31.8740   38.9530 C   0  0  0  0  0  0  0  0  0  0  0  0
   47.2280   33.0890   38.8960 C   0  0  0  0  0  0  0  0  0  0  0  0
   47.7320   34.0850   38.0770 C   0  0  0  0  0  0  0  0  0  0  0  0
   48.8530   33.8530   37.3170 C   0  0  0  0  0  0  0  0  0  0  0  0
   49.5160   32.6260   37.3440 C   0  0  0  0  0  0  0  0  0  0  0  0
   48.9840   31.6370   38.1820 C   0  0  0  0  0  0  0  0  0  0  0  0
   47.2740   35.0620   38.0030 H   0  0  0  0  0  0  0  0  0  0  0  0
   49.3340   34.5460   36.6480 H   0  0  0  0  0  0  0  0  0  0  0  0
   50.3900   32.3530   36.7920 H   0  0  0  0  0  0  0  0  0  0  0  0
   49.4730   30.6640   38.2310 H   0  0  0  0  0  0  0  0  0  0  0  0
   45.0810   34.8660   43.2420 Cl  0  0  0  0  0  0  0  0  0  0  0  0
   45.0300   34.2440   41.6090 C   0  0  0  0  0  0  0  0  0  0  0  0
   46.1710   33.9420   40.9390 C   0  0  0  0  0  0  0  0  0  0  0  0
   46.0270   33.4400   39.6550 C   0  0  0  0  0  0  0  0  0  0  0  0
   44.7940   33.2560   39.0800 C   0  0  0  0  0  0  0  0  0  0  0  0
   43.6650   33.5640   39.7660 C   0  0  0  0  0  0  0  0  0  0  0  0
   43.7940   34.0600   41.0390 C   0  0  0  0  0  0  0  0  0  0  0  0
   44.7410   32.8590   38.0650 H   0  0  0  0  0  0  0  0  0  0  0  0
   42.7200   33.4010   39.2730 H   0  0  0  0  0  0  0  0  0  0  0  0
   42.8730   34.2990   41.5690 H   0  0  0  0  0  0  0  0  0  0  0  0
   49.3630   35.5260   42.1840 C   0  0  0  0  0  0  0  0  0  0  0  0
   48.1300   35.3420   41.5520 C   0  0  0  0  0  0  0  0  0  0  0  0
   47.4500   34.1440   41.5920 C   0  0  0  0  0  0  0  0  0  0  0  0
   48.0820   33.1680   42.2940 N   0  0  0  0  0  0  0  0  0  0  0  0
   49.2560   33.3300   42.9010 C   0  0  0  0  0  0  0  0  0  0  0  0
   49.8890   34.5040   42.8430 N   0  0  0  0  0  0  0  0  0  0  0  0
   49.8360   36.4920   42.1090 H   0  0  0  0  0  0  0  0  0  0  0  0
   47.6620   36.1510   41.0020 H   0  0  0  0  0  0  0  0  0  0  0  0
   49.6010   32.4350   43.4120 H   0  0  0  0  0  0  0  0  0  0  0  0
   47.2300   30.6270   39.9000 S   0  0  0  0  0  0  0  0  0  0  0  0
   47.0860   29.3410   39.1140 O   0  0  0  0  0  0  0  0  0  0  0  0
   48.4030   30.2930   40.8910 O   0  0  0  0  0  0  0  0  0  0  0  0
   45.8250   30.7070   40.8790 C   0  0  0  0  0  0  0  0  0  0  0  0
   45.9520   30.2420   42.2170 C   0  0  0  0  0  0  0  0  0  0  0  0
   46.9420   29.8570   42.5480 H   0  0  0  0  0  0  0  0  0  0  0  0
   45.0160   30.1710   43.2570 C   0  0  0  0  0  0  0  0  0  0  0  0
   45.2640   29.7910   44.2240 H   0  0  0  0  0  0  0  0  0  0  0  0
   43.7880   30.6400   42.8660 C   0  0  0  0  0  3  0  0  0  0  0  0
   43.6010   31.0990   41.5980 C   0  0  0  0  0  3  0  0  0  0  0  0
   44.5640   31.1190   40.6940 N   0  0  0  0  0  0  0  0  0  0  0  0
  1 30  1  0  0  0  0
  2  1  1  0  0  0  0
  2 14  1  0  0  0  0
  3  2  2  0  0  0  0
  4  5  2  0  0  0  0
  4  3  1  0  0  0  0
  5  6  1  0  0  0  0
  6 10  1  0  0  0  0
  6  1  2  0  0  0  0
  7  3  1  0  0  0  0
  8  4  1  0  0  0  0
  9  5  1  0  0  0  0
 12 11  1  0  0  0  0
 13 23  1  0  0  0  0
 13 12  2  0  0  0  0
 14 13  1  0  0  0  0
 15 14  2  0  0  0  0
 15 16  1  0  0  0  0
 16 17  2  0  0  0  0
 17 20  1  0  0  0  0
 17 12  1  0  0  0  0
 18 15  1  0  0  0  0
 19 16  1  0  0  0  0
 21 26  1  0  0  0  0
 22 23  1  0  0  0  0
 22 21  2  0  0  0  0
 23 24  2  0  0  0  0
 24 25  1  0  0  0  0
 25 29  1  0  0  0  0
 26 25  2  0  0  0  0
 27 21  1  0  0  0  0
 28 22  1  0  0  0  0
 30 33  1  0  0  0  0
 30 32  2  0  0  0  0
 31 30  2  0  0  0  0
 33 34  1  0  0  0  0
 34 35  1  0  0  0  0
 34 36  2  0  0  0  0
 36 37  1  0  0  0  0
 38 36  1  0  0  0  0
 39 38  2  0  0  0  0
 40 33  2  0  0  0  0
 40 39  1  0  0  0  0
M  END
>  <minimizedAffinity>
-4.41185093

>  <minimizedRMSD>
0.37222448

$$$$
