
 OpenBabel03242511073D

 26 28  0  0  1  0  0  0  0  0999 V2000
   37.4930   27.4000   42.5450 C   0  0  1  0  0  0  0  0  0  0  0  0
   36.5540   27.6780   43.6790 C   0  0  0  0  0  0  0  0  0  0  0  0
   37.3270   28.7930   42.9730 C   0  0  2  0  0  0  0  0  0  0  0  0
   37.0370   27.0750   41.5910 H   0  0  0  0  0  0  0  0  0  0  0  0
   35.5010   27.5200   43.4750 H   0  0  0  0  0  0  0  0  0  0  0  0
   36.9630   27.3170   44.6710 H   0  0  0  0  0  0  0  0  0  0  0  0
   38.1950   29.1790   43.5980 H   0  0  0  0  0  0  0  0  0  0  0  0
   40.0170   24.6940   42.8380 C   0  0  0  0  0  0  0  0  0  0  0  0
   41.1390   25.4210   43.3690 C   0  0  0  0  0  0  0  0  0  0  0  0
   40.9900   26.8230   43.6010 C   0  0  0  0  0  0  0  0  0  0  0  0
   39.8210   27.4070   43.3200 N   0  0  0  0  0  0  0  0  0  0  0  0
   38.7740   26.6850   42.8150 C   0  0  0  0  0  0  0  0  0  0  0  0
   38.8800   25.3440   42.5800 N   0  0  0  0  0  0  0  0  0  0  0  0
   40.1640   23.6370   42.6740 H   0  0  0  0  0  0  0  0  0  0  0  0
   42.0500   24.8910   43.5740 H   0  0  0  0  0  0  0  0  0  0  0  0
   41.8620   27.3230   44.0010 H   0  0  0  0  0  0  0  0  0  0  0  0
   36.5640   29.7580   42.2560 N   0  0  0  0  0  0  0  0  0  0  0  0
   35.6490   29.9770   42.7620 H   0  0  0  0  0  0  0  0  0  0  0  0
   36.7630   30.4710   41.0490 C   0  0  0  0  0  0  0  0  0  0  0  0
   36.4700   29.8780   39.8200 C   0  0  0  0  0  0  0  0  0  0  0  0
   36.0850   28.8540   39.7940 H   0  0  0  0  0  0  0  0  0  0  0  0
   36.6510   30.5430   38.6390 C   0  0  0  0  0  0  0  0  0  0  0  0
   36.4010   30.0180   37.7170 H   0  0  0  0  0  0  0  0  0  0  0  0
   37.1310   31.8300   38.5920 C   0  0  0  0  0  3  0  0  0  0  0  0
   37.4100   32.3900   39.8120 C   0  0  0  0  0  3  0  0  0  0  0  0
   37.2220   31.7120   40.9420 N   0  0  0  0  0  0  0  0  0  0  0  0
  1  4  1  6  0  0  0
  1 12  1  0  0  0  0
  1  3  1  0  0  0  0
  1  2  1  0  0  0  0
  2  6  1  0  0  0  0
  3  7  1  1  0  0  0
  3  2  1  0  0  0  0
  5  2  1  0  0  0  0
  8  9  1  0  0  0  0
  9 15  1  0  0  0  0
  9 10  2  0  0  0  0
 10 16  1  0  0  0  0
 11 10  1  0  0  0  0
 12 11  2  0  0  0  0
 13 12  1  0  0  0  0
 13  8  2  0  0  0  0
 14  8  1  0  0  0  0
 17 18  1  0  0  0  0
 17  3  1  0  0  0  0
 19 17  1  0  0  0  0
 20 19  2  0  0  0  0
 21 20  1  0  0  0  0
 22 20  1  0  0  0  0
 23 22  1  0  0  0  0
 24 22  2  0  0  0  0
 24 25  1  0  0  0  0
 25 26  2  0  0  0  0
 26 19  1  0  0  0  0
M  END
>  <minimizedAffinity>
-4.87355804

$$$$

 OpenBabel03242511073D

 26 28  0  0  1  0  0  0  0  0999 V2000
   37.1430   27.2030   42.4620 C   0  0  1  0  0  0  0  0  0  0  0  0
   36.3500   27.6520   43.6520 C   0  0  0  0  0  0  0  0  0  0  0  0
   37.2360   28.6120   42.8560 C   0  0  2  0  0  0  0  0  0  0  0  0
   36.5690   26.9370   41.5550 H   0  0  0  0  0  0  0  0  0  0  0  0
   35.2730   27.6640   43.5300 H   0  0  0  0  0  0  0  0  0  0  0  0
   36.7710   27.2500   44.6220 H   0  0  0  0  0  0  0  0  0  0  0  0
   38.2000   28.8640   43.4030 H   0  0  0  0  0  0  0  0  0  0  0  0
   40.3750   25.8410   43.6790 C   0  0  0  0  0  0  0  0  0  0  0  0
   40.4410   24.6010   42.9540 C   0  0  0  0  0  0  0  0  0  0  0  0
   39.3640   24.2720   42.0750 C   0  0  0  0  0  0  0  0  0  0  0  0
   38.3400   25.1220   41.9560 N   0  0  0  0  0  0  0  0  0  0  0  0
   38.3090   26.2940   42.6620 C   0  0  0  0  0  0  0  0  0  0  0  0
   39.3200   26.6420   43.5110 N   0  0  0  0  0  0  0  0  0  0  0  0
   41.2050   26.0590   44.3340 H   0  0  0  0  0  0  0  0  0  0  0  0
   41.2930   23.9640   43.0950 H   0  0  0  0  0  0  0  0  0  0  0  0
   39.4620   23.3280   41.5540 H   0  0  0  0  0  0  0  0  0  0  0  0
   36.5860   29.6740   42.1660 N   0  0  0  0  0  0  0  0  0  0  0  0
   35.8110   30.1030   42.7630 H   0  0  0  0  0  0  0  0  0  0  0  0
   36.7490   30.2650   40.8890 C   0  0  0  0  0  0  0  0  0  0  0  0
   37.0230   31.6280   40.7690 C   0  0  0  0  0  0  0  0  0  0  0  0
   37.1110   32.2410   41.6700 H   0  0  0  0  0  0  0  0  0  0  0  0
   37.1860   32.2230   39.5490 C   0  0  0  0  0  0  0  0  0  0  0  0
   37.3990   33.2920   39.5300 H   0  0  0  0  0  0  0  0  0  0  0  0
   37.0900   31.5180   38.3730 C   0  0  0  0  0  3  0  0  0  0  0  0
   36.8210   30.1810   38.5190 C   0  0  0  0  0  3  0  0  0  0  0  0
   36.6680   29.6360   39.7230 N   0  0  0  0  0  0  0  0  0  0  0  0
  1  4  1  6  0  0  0
  1 12  1  0  0  0  0
  1  3  1  0  0  0  0
  1  2  1  0  0  0  0
  2  6  1  0  0  0  0
  3  7  1  1  0  0  0
  3  2  1  0  0  0  0
  5  2  1  0  0  0  0
  8 14  1  0  0  0  0
  9 15  1  0  0  0  0
  9  8  2  0  0  0  0
 10  9  1  0  0  0  0
 11 10  2  0  0  0  0
 11 12  1  0  0  0  0
 12 13  2  0  0  0  0
 13  8  1  0  0  0  0
 16 10  1  0  0  0  0
 17 18  1  0  0  0  0
 17  3  1  0  0  0  0
 19 17  1  0  0  0  0
 20 19  1  0  0  0  0
 20 21  1  0  0  0  0
 22 20  2  0  0  0  0
 23 22  1  0  0  0  0
 24 25  2  0  0  0  0
 24 22  1  0  0  0  0
 25 26  1  0  0  0  0
 26 19  2  0  0  0  0
M  END
>  <minimizedAffinity>
-4.8390913

$$$$

 OpenBabel03242511073D

 26 28  0  0  1  0  0  0  0  0999 V2000
   36.3580   28.7250   39.9930 C   0  0  1  0  0  0  0  0  0  0  0  0
   34.9550   29.1350   39.6640 C   0  0  0  0  0  0  0  0  0  0  0  0
   35.7310   29.7540   40.8280 C   0  0  2  0  0  0  0  0  0  0  0  0
   37.1440   29.0250   39.2730 H   0  0  0  0  0  0  0  0  0  0  0  0
   34.8220   29.6790   38.7360 H   0  0  0  0  0  0  0  0  0  0  0  0
   34.2040   28.3280   39.9190 H   0  0  0  0  0  0  0  0  0  0  0  0
   35.3810   29.3630   41.8370 H   0  0  0  0  0  0  0  0  0  0  0  0
   36.7330   25.0410   40.2440 C   0  0  0  0  0  0  0  0  0  0  0  0
   37.0480   24.8920   41.6390 C   0  0  0  0  0  0  0  0  0  0  0  0
   37.1290   26.0680   42.4450 C   0  0  0  0  0  0  0  0  0  0  0  0
   36.9090   27.2590   41.8800 N   0  0  0  0  0  0  0  0  0  0  0  0
   36.6120   27.3640   40.5490 C   0  0  0  0  0  0  0  0  0  0  0  0
   36.5270   26.2630   39.7470 N   0  0  0  0  0  0  0  0  0  0  0  0
   36.6810   24.1320   39.6630 H   0  0  0  0  0  0  0  0  0  0  0  0
   37.2130   23.9050   42.0300 H   0  0  0  0  0  0  0  0  0  0  0  0
   37.3690   25.9010   43.4870 H   0  0  0  0  0  0  0  0  0  0  0  0
   36.0340   31.1420   40.7400 N   0  0  0  0  0  0  0  0  0  0  0  0
   35.1460   31.7330   40.7840 H   0  0  0  0  0  0  0  0  0  0  0  0
   37.2350   31.8810   40.6130 C   0  0  0  0  0  0  0  0  0  0  0  0
   37.2590   33.0780   39.8950 C   0  0  0  0  0  0  0  0  0  0  0  0
   36.3400   33.4430   39.4270 H   0  0  0  0  0  0  0  0  0  0  0  0
   38.4040   33.8110   39.7570 C   0  0  0  0  0  0  0  0  0  0  0  0
   38.3490   34.7360   39.1820 H   0  0  0  0  0  0  0  0  0  0  0  0
   39.5970   33.4170   40.3160 C   0  0  0  0  0  3  0  0  0  0  0  0
   39.5460   32.2390   41.0160 C   0  0  0  0  0  3  0  0  0  0  0  0
   38.4130   31.5500   41.1290 N   0  0  0  0  0  0  0  0  0  0  0  0
  1  4  1  6  0  0  0
  1 12  1  0  0  0  0
  1  3  1  0  0  0  0
  2  6  1  0  0  0  0
  2  1  1  0  0  0  0
  2  3  1  0  0  0  0
  3  7  1  1  0  0  0
  5  2  1  0  0  0  0
  8  9  1  0  0  0  0
  9 15  1  0  0  0  0
  9 10  2  0  0  0  0
 10 16  1  0  0  0  0
 11 10  1  0  0  0  0
 12 11  2  0  0  0  0
 13  8  2  0  0  0  0
 13 12  1  0  0  0  0
 14  8  1  0  0  0  0
 17 18  1  0  0  0  0
 17  3  1  0  0  0  0
 19 17  1  0  0  0  0
 19 26  1  0  0  0  0
 20 19  2  0  0  0  0
 21 20  1  0  0  0  0
 22 20  1  0  0  0  0
 22 24  2  0  0  0  0
 23 22  1  0  0  0  0
 24 25  1  0  0  0  0
 25 26  2  0  0  0  0
M  END
>  <minimizedAffinity>
-4.71236515

$$$$

 OpenBabel03242511073D

 26 28  0  0  1  0  0  0  0  0999 V2000
   38.5840   32.8110   40.0280 C   0  0  1  0  0  0  0  0  0  0  0  0
   37.2690   33.3790   39.5880 C   0  0  0  0  0  0  0  0  0  0  0  0
   37.5240   31.8720   39.6500 C   0  0  2  0  0  0  0  0  0  0  0  0
   38.8410   32.9260   41.0980 H   0  0  0  0  0  0  0  0  0  0  0  0
   36.6830   33.8720   40.3540 H   0  0  0  0  0  0  0  0  0  0  0  0
   37.3350   33.8700   38.5700 H   0  0  0  0  0  0  0  0  0  0  0  0
   37.6730   31.4170   38.6190 H   0  0  0  0  0  0  0  0  0  0  0  0
   41.7250   34.1610   38.5820 C   0  0  0  0  0  0  0  0  0  0  0  0
   41.9380   33.2500   37.4900 C   0  0  0  0  0  0  0  0  0  0  0  0
   40.9950   32.1950   37.2930 C   0  0  0  0  0  0  0  0  0  0  0  0
   39.9540   32.0920   38.1250 N   0  0  0  0  0  0  0  0  0  0  0  0
   39.7820   32.9760   39.1540 C   0  0  0  0  0  0  0  0  0  0  0  0
   40.6620   33.9970   39.3730 N   0  0  0  0  0  0  0  0  0  0  0  0
   42.4560   34.9460   38.7020 H   0  0  0  0  0  0  0  0  0  0  0  0
   42.7960   33.3900   36.8590 H   0  0  0  0  0  0  0  0  0  0  0  0
   41.2020   31.5370   36.4590 H   0  0  0  0  0  0  0  0  0  0  0  0
   36.7560   31.1220   40.5850 N   0  0  0  0  0  0  0  0  0  0  0  0
   35.7480   31.4740   40.6250 H   0  0  0  0  0  0  0  0  0  0  0  0
   37.0420   30.0360   41.4470 C   0  0  0  0  0  0  0  0  0  0  0  0
   36.2580   28.8810   41.4160 C   0  0  0  0  0  0  0  0  0  0  0  0
   35.4170   28.8200   40.7200 H   0  0  0  0  0  0  0  0  0  0  0  0
   36.5120   27.8180   42.2360 C   0  0  0  0  0  0  0  0  0  0  0  0
   35.8590   26.9480   42.1580 H   0  0  0  0  0  0  0  0  0  0  0  0
   37.5500   27.8210   43.1380 C   0  0  0  0  0  3  0  0  0  0  0  0
   38.3040   28.9670   43.1480 C   0  0  0  0  0  3  0  0  0  0  0  0
   38.0270   29.9830   42.3350 N   0  0  0  0  0  0  0  0  0  0  0  0
  1  4  1  1  0  0  0
  2  3  1  0  0  0  0
  2  1  1  0  0  0  0
  2  5  1  0  0  0  0
  3  7  1  6  0  0  0
  3  1  1  0  0  0  0
  3 17  1  0  0  0  0
  6  2  1  0  0  0  0
  8 14  1  0  0  0  0
  8 13  1  0  0  0  0
  9  8  2  0  0  0  0
 10  9  1  0  0  0  0
 10 11  2  0  0  0  0
 11 12  1  0  0  0  0
 12 13  2  0  0  0  0
 12  1  1  0  0  0  0
 15  9  1  0  0  0  0
 16 10  1  0  0  0  0
 17 18  1  0  0  0  0
 17 19  1  0  0  0  0
 19 26  1  0  0  0  0
 20 19  2  0  0  0  0
 20 22  1  0  0  0  0
 21 20  1  0  0  0  0
 22 24  2  0  0  0  0
 23 22  1  0  0  0  0
 24 25  1  0  0  0  0
 26 25  2  0  0  0  0
M  END
>  <minimizedAffinity>
-4.67727184

$$$$

 OpenBabel03242511073D

 26 28  0  0  1  0  0  0  0  0999 V2000
   36.8300   30.1340   39.0720 C   0  0  1  0  0  0  0  0  0  0  0  0
   36.8580   31.5630   39.5230 C   0  0  0  0  0  0  0  0  0  0  0  0
   36.0170   30.5010   40.2350 C   0  0  2  0  0  0  0  0  0  0  0  0
   37.7550   29.5460   39.2280 H   0  0  0  0  0  0  0  0  0  0  0  0
   37.7910   31.9090   39.9530 H   0  0  0  0  0  0  0  0  0  0  0  0
   36.3170   32.2480   38.8030 H   0  0  0  0  0  0  0  0  0  0  0  0
   34.9090   30.5970   39.9980 H   0  0  0  0  0  0  0  0  0  0  0  0
   34.3320   28.9110   36.6130 C   0  0  0  0  0  0  0  0  0  0  0  0
   35.0300   29.1370   35.3770 C   0  0  0  0  0  0  0  0  0  0  0  0
   36.3370   29.7110   35.4310 C   0  0  0  0  0  0  0  0  0  0  0  0
   36.8630   30.0160   36.6220 N   0  0  0  0  0  0  0  0  0  0  0  0
   36.1710   29.7870   37.7790 C   0  0  0  0  0  0  0  0  0  0  0  0
   34.9200   29.2410   37.7660 N   0  0  0  0  0  0  0  0  0  0  0  0
   33.3470   28.4760   36.5360 H   0  0  0  0  0  0  0  0  0  0  0  0
   34.5500   28.8690   34.4550 H   0  0  0  0  0  0  0  0  0  0  0  0
   36.8190   29.8610   34.4740 H   0  0  0  0  0  0  0  0  0  0  0  0
   36.3680   30.1900   41.5790 N   0  0  0  0  0  0  0  0  0  0  0  0
   35.9410   30.8930   42.2610 H   0  0  0  0  0  0  0  0  0  0  0  0
   37.1420   29.1700   42.1840 C   0  0  0  0  0  0  0  0  0  0  0  0
   36.6040   27.8970   42.3840 C   0  0  0  0  0  0  0  0  0  0  0  0
   35.5770   27.6920   42.0710 H   0  0  0  0  0  0  0  0  0  0  0  0
   37.3290   26.8940   42.9650 C   0  0  0  0  0  0  0  0  0  0  0  0
   36.8450   25.9250   43.0900 H   0  0  0  0  0  0  0  0  0  0  0  0
   38.6250   27.0770   43.3840 C   0  0  0  0  0  3  0  0  0  0  0  0
   39.1290   28.3350   43.1750 C   0  0  0  0  0  3  0  0  0  0  0  0
   38.3940   29.2880   42.6080 N   0  0  0  0  0  0  0  0  0  0  0  0
  1  4  1  1  0  0  0
  1  2  1  0  0  0  0
  1  3  1  0  0  0  0
  2  5  1  0  0  0  0
  2  3  1  0  0  0  0
  3  7  1  6  0  0  0
  3 17  1  0  0  0  0
  6  2  1  0  0  0  0
  8 13  1  0  0  0  0
  9 10  1  0  0  0  0
  9  8  2  0  0  0  0
 10 11  2  0  0  0  0
 11 12  1  0  0  0  0
 12  1  1  0  0  0  0
 13 12  2  0  0  0  0
 14  8  1  0  0  0  0
 15  9  1  0  0  0  0
 16 10  1  0  0  0  0
 17 19  1  0  0  0  0
 17 18  1  0  0  0  0
 19 20  2  0  0  0  0
 19 26  1  0  0  0  0
 20 22  1  0  0  0  0
 21 20  1  0  0  0  0
 22 23  1  0  0  0  0
 22 24  2  0  0  0  0
 25 24  1  0  0  0  0
 26 25  2  0  0  0  0
M  END
>  <minimizedAffinity>
-4.61137486

$$$$

 OpenBabel03242511073D

 26 28  0  0  1  0  0  0  0  0999 V2000
   38.8600   29.7540   41.5380 C   0  0  1  0  0  0  0  0  0  0  0  0
   39.6070   30.2260   42.7480 C   0  0  0  0  0  0  0  0  0  0  0  0
   38.2640   29.5000   42.8540 C   0  0  2  0  0  0  0  0  0  0  0  0
   39.3040   28.9090   40.9790 H   0  0  0  0  0  0  0  0  0  0  0  0
   40.5330   29.7080   42.9680 H   0  0  0  0  0  0  0  0  0  0  0  0
   39.5900   31.3530   42.8480 H   0  0  0  0  0  0  0  0  0  0  0  0
   37.4100   30.2070   43.1050 H   0  0  0  0  0  0  0  0  0  0  0  0
   36.9950   31.2450   38.6950 C   0  0  0  0  0  0  0  0  0  0  0  0
   37.1740   32.6480   38.9550 C   0  0  0  0  0  0  0  0  0  0  0  0
   37.9250   33.0330   40.1070 C   0  0  0  0  0  0  0  0  0  0  0  0
   38.4340   32.0830   40.8980 N   0  0  0  0  0  0  0  0  0  0  0  0
   38.2440   30.7570   40.6210 C   0  0  0  0  0  0  0  0  0  0  0  0
   37.5320   30.3510   39.5300 N   0  0  0  0  0  0  0  0  0  0  0  0
   36.4220   30.9880   37.8170 H   0  0  0  0  0  0  0  0  0  0  0  0
   36.7390   33.3590   38.2780 H   0  0  0  0  0  0  0  0  0  0  0  0
   38.0300   34.1000   40.2580 H   0  0  0  0  0  0  0  0  0  0  0  0
   38.2620   28.2280   43.4930 N   0  0  0  0  0  0  0  0  0  0  0  0
   38.2840   28.3320   44.5560 H   0  0  0  0  0  0  0  0  0  0  0  0
   38.2360   26.8920   43.0250 C   0  0  0  0  0  0  0  0  0  0  0  0
   37.0590   26.3420   42.5160 C   0  0  0  0  0  0  0  0  0  0  0  0
   36.1520   26.9510   42.4810 H   0  0  0  0  0  0  0  0  0  0  0  0
   37.0060   25.0550   42.0580 C   0  0  0  0  0  0  0  0  0  0  0  0
   36.0530   24.6920   41.6740 H   0  0  0  0  0  0  0  0  0  0  0  0
   38.1050   24.2290   42.0700 C   0  0  0  0  0  3  0  0  0  0  0  0
   39.2480   24.7930   42.5740 C   0  0  0  0  0  3  0  0  0  0  0  0
   39.2630   26.0500   43.0130 N   0  0  0  0  0  0  0  0  0  0  0  0
  1  4  1  6  0  0  0
  1  2  1  0  0  0  0
  1  3  1  0  0  0  0
  2  6  1  0  0  0  0
  2  3  1  0  0  0  0
  2  5  1  0  0  0  0
  3  7  1  1  0  0  0
  3 17  1  0  0  0  0
  8  9  2  0  0  0  0
  8 13  1  0  0  0  0
  9 10  1  0  0  0  0
 10 16  1  0  0  0  0
 10 11  2  0  0  0  0
 12 11  1  0  0  0  0
 12  1  1  0  0  0  0
 13 12  2  0  0  0  0
 14  8  1  0  0  0  0
 15  9  1  0  0  0  0
 17 18  1  0  0  0  0
 19 17  1  0  0  0  0
 20 19  2  0  0  0  0
 21 20  1  0  0  0  0
 22 24  2  0  0  0  0
 22 20  1  0  0  0  0
 23 22  1  0  0  0  0
 24 25  1  0  0  0  0
 25 26  2  0  0  0  0
 26 19  1  0  0  0  0
M  END
>  <minimizedAffinity>
-4.59695387

$$$$

 OpenBabel03242511073D

 26 28  0  0  1  0  0  0  0  0999 V2000
   36.8620   30.1480   39.0480 C   0  0  1  0  0  0  0  0  0  0  0  0
   36.8540   31.5790   39.4960 C   0  0  0  0  0  0  0  0  0  0  0  0
   36.0300   30.5000   40.2030 C   0  0  2  0  0  0  0  0  0  0  0  0
   37.7970   29.5810   39.2150 H   0  0  0  0  0  0  0  0  0  0  0  0
   37.7750   31.9460   39.9330 H   0  0  0  0  0  0  0  0  0  0  0  0
   36.3050   32.2500   38.7700 H   0  0  0  0  0  0  0  0  0  0  0  0
   34.9230   30.5720   39.9560 H   0  0  0  0  0  0  0  0  0  0  0  0
   36.2990   29.6960   35.4070 C   0  0  0  0  0  0  0  0  0  0  0  0
   34.9750   29.1330   35.4020 C   0  0  0  0  0  0  0  0  0  0  0  0
   34.3240   28.9210   36.6550 C   0  0  0  0  0  0  0  0  0  0  0  0
   34.9620   29.2510   37.7820 N   0  0  0  0  0  0  0  0  0  0  0  0
   36.2210   29.7850   37.7510 C   0  0  0  0  0  0  0  0  0  0  0  0
   36.8750   30.0010   36.5720 N   0  0  0  0  0  0  0  0  0  0  0  0
   36.7620   29.8430   34.4430 H   0  0  0  0  0  0  0  0  0  0  0  0
   34.5190   28.8910   34.4600 H   0  0  0  0  0  0  0  0  0  0  0  0
   33.3300   28.4950   36.5960 H   0  0  0  0  0  0  0  0  0  0  0  0
   36.3760   30.2010   41.5520 N   0  0  0  0  0  0  0  0  0  0  0  0
   35.9520   30.9130   42.2250 H   0  0  0  0  0  0  0  0  0  0  0  0
   37.1410   29.1810   42.1680 C   0  0  0  0  0  0  0  0  0  0  0  0
   36.5960   27.9120   42.3720 C   0  0  0  0  0  0  0  0  0  0  0  0
   35.5710   27.7080   42.0520 H   0  0  0  0  0  0  0  0  0  0  0  0
   37.3130   26.9090   42.9630 C   0  0  0  0  0  0  0  0  0  0  0  0
   36.8240   25.9430   43.0910 H   0  0  0  0  0  0  0  0  0  0  0  0
   38.6070   27.0890   43.3920 C   0  0  0  0  0  3  0  0  0  0  0  0
   39.1170   28.3440   43.1800 C   0  0  0  0  0  3  0  0  0  0  0  0
   38.3900   29.2970   42.6010 N   0  0  0  0  0  0  0  0  0  0  0  0
  1  4  1  1  0  0  0
  1  2  1  0  0  0  0
  1  3  1  0  0  0  0
  2  5  1  0  0  0  0
  2  3  1  0  0  0  0
  3  7  1  6  0  0  0
  3 17  1  0  0  0  0
  6  2  1  0  0  0  0
  8 13  1  0  0  0  0
  9  8  2  0  0  0  0
  9 10  1  0  0  0  0
 10 11  2  0  0  0  0
 12 11  1  0  0  0  0
 12  1  1  0  0  0  0
 13 12  2  0  0  0  0
 14  8  1  0  0  0  0
 15  9  1  0  0  0  0
 16 10  1  0  0  0  0
 17 19  1  0  0  0  0
 17 18  1  0  0  0  0
 19 20  2  0  0  0  0
 19 26  1  0  0  0  0
 20 22  1  0  0  0  0
 21 20  1  0  0  0  0
 22 23  1  0  0  0  0
 22 24  2  0  0  0  0
 25 24  1  0  0  0  0
 26 25  2  0  0  0  0
M  END
>  <minimizedAffinity>
-4.59647751

$$$$

 OpenBabel03242511073D

 26 28  0  0  1  0  0  0  0  0999 V2000
   38.4270   29.9710   41.4560 C   0  0  1  0  0  0  0  0  0  0  0  0
   38.7890   29.6390   42.8720 C   0  0  0  0  0  0  0  0  0  0  0  0
   37.3360   29.6790   42.3920 C   0  0  2  0  0  0  0  0  0  0  0  0
   38.6890   29.2200   40.6880 H   0  0  0  0  0  0  0  0  0  0  0  0
   39.2940   28.6920   43.0250 H   0  0  0  0  0  0  0  0  0  0  0  0
   39.1670   30.5420   43.4390 H   0  0  0  0  0  0  0  0  0  0  0  0
   36.7890   30.6090   42.7500 H   0  0  0  0  0  0  0  0  0  0  0  0
   37.7570   33.3170   39.9950 C   0  0  0  0  0  0  0  0  0  0  0  0
   39.0730   33.8960   40.0200 C   0  0  0  0  0  0  0  0  0  0  0  0
   40.1470   33.1160   40.5470 C   0  0  0  0  0  0  0  0  0  0  0  0
   39.8940   31.8820   40.9960 N   0  0  0  0  0  0  0  0  0  0  0  0
   38.6290   31.3620   40.9570 C   0  0  0  0  0  0  0  0  0  0  0  0
   37.5780   32.0780   40.4600 N   0  0  0  0  0  0  0  0  0  0  0  0
   36.9680   33.9330   39.5900 H   0  0  0  0  0  0  0  0  0  0  0  0
   39.2070   34.8930   39.6430 H   0  0  0  0  0  0  0  0  0  0  0  0
   41.1160   33.5970   40.5440 H   0  0  0  0  0  0  0  0  0  0  0  0
   36.6130   28.4530   42.4100 N   0  0  0  0  0  0  0  0  0  0  0  0
   35.7960   28.4990   43.0960 H   0  0  0  0  0  0  0  0  0  0  0  0
   36.7470   27.2210   41.7250 C   0  0  0  0  0  0  0  0  0  0  0  0
   37.0450   26.0500   42.4240 C   0  0  0  0  0  0  0  0  0  0  0  0
   37.1760   26.0890   43.5090 H   0  0  0  0  0  0  0  0  0  0  0  0
   37.1780   24.8470   41.7880 C   0  0  0  0  0  0  0  0  0  0  0  0
   37.4120   23.9740   42.3970 H   0  0  0  0  0  0  0  0  0  0  0  0
   37.0280   24.7190   40.4270 C   0  0  0  0  0  3  0  0  0  0  0  0
   36.7350   25.8840   39.7650 C   0  0  0  0  0  3  0  0  0  0  0  0
   36.6130   27.0370   40.4170 N   0  0  0  0  0  0  0  0  0  0  0  0
  1  4  1  6  0  0  0
  1  3  1  0  0  0  0
  1  2  1  0  0  0  0
  2  5  1  0  0  0  0
  2  6  1  0  0  0  0
  3 17  1  0  0  0  0
  3  7  1  1  0  0  0
  3  2  1  0  0  0  0
  8  9  2  0  0  0  0
  8 13  1  0  0  0  0
  9 10  1  0  0  0  0
 10 11  2  0  0  0  0
 12 11  1  0  0  0  0
 12  1  1  0  0  0  0
 13 12  2  0  0  0  0
 14  8  1  0  0  0  0
 15  9  1  0  0  0  0
 16 10  1  0  0  0  0
 17 18  1  0  0  0  0
 19 17  1  0  0  0  0
 19 20  1  0  0  0  0
 20 21  1  0  0  0  0
 22 23  1  0  0  0  0
 22 20  2  0  0  0  0
 24 22  1  0  0  0  0
 25 26  1  0  0  0  0
 25 24  2  0  0  0  0
 26 19  2  0  0  0  0
M  END
>  <minimizedAffinity>
-4.51433611

$$$$

 OpenBabel03242511073D

 26 28  0  0  1  0  0  0  0  0999 V2000
   38.9200   29.6790   41.4770 C   0  0  1  0  0  0  0  0  0  0  0  0
   39.8170   30.0710   42.6120 C   0  0  0  0  0  0  0  0  0  0  0  0
   38.4230   29.4820   42.8420 C   0  0  2  0  0  0  0  0  0  0  0  0
   39.2260   28.7950   40.8860 H   0  0  0  0  0  0  0  0  0  0  0  0
   40.7030   29.4630   42.7510 H   0  0  0  0  0  0  0  0  0  0  0  0
   39.9210   31.1940   42.7050 H   0  0  0  0  0  0  0  0  0  0  0  0
   37.6700   30.2700   43.1650 H   0  0  0  0  0  0  0  0  0  0  0  0
   37.9790   33.0150   40.1480 C   0  0  0  0  0  0  0  0  0  0  0  0
   37.1800   32.6410   39.0110 C   0  0  0  0  0  0  0  0  0  0  0  0
   37.0000   31.2510   38.7360 C   0  0  0  0  0  0  0  0  0  0  0  0
   37.5740   30.3510   39.5400 N   0  0  0  0  0  0  0  0  0  0  0  0
   38.3280   30.7410   40.6130 C   0  0  0  0  0  0  0  0  0  0  0  0
   38.5230   32.0600   40.9060 N   0  0  0  0  0  0  0  0  0  0  0  0
   38.0950   34.0730   40.3270 H   0  0  0  0  0  0  0  0  0  0  0  0
   36.7470   33.4160   38.4070 H   0  0  0  0  0  0  0  0  0  0  0  0
   36.3920   31.0240   37.8700 H   0  0  0  0  0  0  0  0  0  0  0  0
   38.3530   28.2150   43.4870 N   0  0  0  0  0  0  0  0  0  0  0  0
   38.3770   28.3220   44.5490 H   0  0  0  0  0  0  0  0  0  0  0  0
   38.2580   26.8800   43.0250 C   0  0  0  0  0  0  0  0  0  0  0  0
   39.3410   26.0080   43.1500 C   0  0  0  0  0  0  0  0  0  0  0  0
   40.2690   26.3640   43.6070 H   0  0  0  0  0  0  0  0  0  0  0  0
   39.2760   24.7140   42.7140 C   0  0  0  0  0  0  0  0  0  0  0  0
   40.1610   24.0900   42.8430 H   0  0  0  0  0  0  0  0  0  0  0  0
   38.1450   24.1960   42.1280 C   0  0  0  0  0  3  0  0  0  0  0  0
   37.0970   25.0720   42.0190 C   0  0  0  0  0  3  0  0  0  0  0  0
   37.1960   26.3260   42.4540 N   0  0  0  0  0  0  0  0  0  0  0  0
  1  4  1  6  0  0  0
  1  2  1  0  0  0  0
  1  3  1  0  0  0  0
  2  6  1  0  0  0  0
  2  5  1  0  0  0  0
  2  3  1  0  0  0  0
  3  7  1  1  0  0  0
  3 17  1  0  0  0  0
  8 14  1  0  0  0  0
  8 13  1  0  0  0  0
  9  8  2  0  0  0  0
 10  9  1  0  0  0  0
 10 11  2  0  0  0  0
 11 12  1  0  0  0  0
 12 13  2  0  0  0  0
 12  1  1  0  0  0  0
 15  9  1  0  0  0  0
 16 10  1  0  0  0  0
 17 18  1  0  0  0  0
 19 20  1  0  0  0  0
 19 17  1  0  0  0  0
 20 21  1  0  0  0  0
 22 23  1  0  0  0  0
 22 20  2  0  0  0  0
 24 22  1  0  0  0  0
 25 24  2  0  0  0  0
 25 26  1  0  0  0  0
 26 19  2  0  0  0  0
M  END
>  <minimizedAffinity>
-4.43924713

$$$$
