
 OpenBabel03252506393D

 43 46  0  0  1  0  0  0  0  0999 V2000
   38.6490   27.3160   36.2190 C   0  0  0  0  0  0  0  0  0  0  0  0
   37.4340   27.9940   35.9520 C   0  0  0  0  0  0  0  0  0  0  0  0
   36.4520   27.9900   36.8850 C   0  0  0  0  0  0  0  0  0  0  0  0
   36.7010   27.3200   38.0380 N   0  0  0  0  0  0  0  0  0  0  0  0
   37.8390   26.6870   38.2830 C   0  0  0  0  0  0  0  0  0  0  0  0
   38.8220   26.6760   37.3840 N   0  0  0  0  0  0  0  0  0  0  0  0
   37.9900   26.0070   39.5420 N   0  0  0  0  0  0  0  0  0  0  0  0
   39.2190   25.4940   40.0320 C   0  0  0  0  0  0  0  0  0  0  0  0
   38.8060   24.2130   40.7320 C   0  0  0  0  0  0  0  0  0  0  0  0
   37.3080   24.2040   40.7390 C   0  0  0  0  0  0  0  0  0  0  0  0
   36.9770   25.6770   40.5150 C   0  0  1  0  0  0  0  0  0  0  0  0
   39.4940   27.2660   35.5270 H   0  0  0  0  0  0  0  0  0  0  0  0
   35.5370   28.4940   36.6970 H   0  0  0  0  0  0  0  0  0  0  0  0
   39.7850   25.1150   39.1220 H   0  0  0  0  0  0  0  0  0  0  0  0
   39.9140   26.0160   40.6050 H   0  0  0  0  0  0  0  0  0  0  0  0
   39.1950   23.2990   40.2900 H   0  0  0  0  0  0  0  0  0  0  0  0
   39.2070   24.2320   41.7830 H   0  0  0  0  0  0  0  0  0  0  0  0
   36.8490   23.5410   39.9800 H   0  0  0  0  0  0  0  0  0  0  0  0
   36.9710   23.9450   41.7690 H   0  0  0  0  0  0  0  0  0  0  0  0
   35.9580   25.7300   40.0950 H   0  0  0  0  0  0  0  0  0  0  0  0
   37.3320   28.6550   34.6760 N   0  0  0  0  0  0  0  0  0  0  0  0
   36.9820   27.9940   33.9210 H   0  0  0  0  0  0  0  0  0  0  0  0
   37.5620   29.6520   34.4860 H   0  0  0  0  0  0  0  0  0  0  0  0
   37.2050   26.5570   42.0410 S   0  0  0  0  0  0  0  0  0  0  0  0
   39.4250   28.9050   41.2270 O   0  0  0  0  0  0  0  0  0  0  0  0
   38.2190   29.0600   41.4730 C   0  0  0  0  0  0  0  0  0  0  0  0
   37.0550   28.2970   41.9890 C   0  0  1  0  0  0  0  0  0  0  0  0
   35.9350   28.8210   41.1260 C   0  0  0  0  0  0  0  0  0  0  0  0
   36.1640   30.3110   41.3900 C   0  0  0  0  0  0  0  0  0  0  0  0
   37.6140   30.3470   41.2300 N   0  0  0  0  0  0  0  0  0  0  0  0
   36.8800   28.8500   42.9510 H   0  0  0  0  0  0  0  0  0  0  0  0
   34.9510   28.4710   41.4530 H   0  0  0  0  0  0  0  0  0  0  0  0
   36.1460   28.6320   40.0400 H   0  0  0  0  0  0  0  0  0  0  0  0
   35.8790   30.5260   42.4400 H   0  0  0  0  0  0  0  0  0  0  0  0
   35.6150   30.8990   40.6390 H   0  0  0  0  0  0  0  0  0  0  0  0
   38.1750   31.6140   40.8690 C   0  0  0  0  0  0  0  0  0  0  0  0
   37.2590   32.3740   40.1360 C   0  0  0  0  0  0  0  0  0  0  0  0
   36.2490   32.0840   39.8550 H   0  0  0  0  0  0  0  0  0  0  0  0
   37.6160   33.6480   39.6880 C   0  0  0  0  0  0  0  0  0  0  0  0
   36.9340   34.2660   39.1180 H   0  0  0  0  0  0  0  0  0  0  0  0
   38.8770   34.1610   39.9700 C   0  0  0  0  0  3  0  0  0  0  0  0
   39.7140   33.3370   40.7010 C   0  0  0  0  0  3  0  0  0  0  0  0
   39.3760   32.1080   41.1360 N   0  0  0  0  0  0  0  0  0  0  0  0
  1  6  1  0  0  0  0
  2  1  2  0  0  0  0
  2  3  1  0  0  0  0
  3  4  2  0  0  0  0
  4  5  1  0  0  0  0
  5  7  1  0  0  0  0
  6  5  2  0  0  0  0
  7  8  1  0  0  0  0
  7 11  1  0  0  0  0
  8 15  1  0  0  0  0
  8  9  1  0  0  0  0
  9 10  1  0  0  0  0
  9 17  1  0  0  0  0
 10 19  1  0  0  0  0
 11 20  1  6  0  0  0
 11 10  1  0  0  0  0
 11 24  1  0  0  0  0
 12  1  1  0  0  0  0
 13  3  1  0  0  0  0
 14  8  1  0  0  0  0
 16  9  1  0  0  0  0
 18 10  1  0  0  0  0
 21  2  1  0  0  0  0
 22 21  1  0  0  0  0
 23 21  1  0  0  0  0
 25 26  2  0  0  0  0
 26 27  1  0  0  0  0
 27 24  1  0  0  0  0
 27 31  1  1  0  0  0
 28 29  1  0  0  0  0
 28 32  1  0  0  0  0
 28 27  1  0  0  0  0
 29 34  1  0  0  0  0
 30 29  1  0  0  0  0
 30 26  1  0  0  0  0
 33 28  1  0  0  0  0
 35 29  1  0  0  0  0
 36 43  1  0  0  0  0
 36 30  1  0  0  0  0
 37 36  2  0  0  0  0
 38 37  1  0  0  0  0
 39 41  2  0  0  0  0
 39 37  1  0  0  0  0
 40 39  1  0  0  0  0
 41 42  1  0  0  0  0
 42 43  2  0  0  0  0
M  END
>  <minimizedAffinity>
-5.86037874

$$$$

 OpenBabel03252506393D

 43 46  0  0  1  0  0  0  0  0999 V2000
   39.1100   32.1470   39.0490 C   0  0  0  0  0  0  0  0  0  0  0  0
   39.6930   31.5300   37.9140 C   0  0  0  0  0  0  0  0  0  0  0  0
   39.8330   30.1830   37.8890 C   0  0  0  0  0  0  0  0  0  0  0  0
   39.3990   29.4980   38.9770 N   0  0  0  0  0  0  0  0  0  0  0  0
   38.8550   30.0800   40.0370 C   0  0  0  0  0  0  0  0  0  0  0  0
   38.7040   31.4020   40.0870 N   0  0  0  0  0  0  0  0  0  0  0  0
   38.4340   29.2520   41.1350 N   0  0  0  0  0  0  0  0  0  0  0  0
   37.6350   29.7030   42.2170 C   0  0  0  0  0  0  0  0  0  0  0  0
   38.2020   28.9510   43.4060 C   0  0  0  0  0  0  0  0  0  0  0  0
   39.1840   27.9670   42.8480 C   0  0  0  0  0  0  0  0  0  0  0  0
   38.7450   27.8660   41.3900 C   0  0  1  0  0  0  0  0  0  0  0  0
   38.9580   33.2240   39.1570 H   0  0  0  0  0  0  0  0  0  0  0  0
   40.2680   29.7080   37.0450 H   0  0  0  0  0  0  0  0  0  0  0  0
   37.9560   30.7750   42.4170 H   0  0  0  0  0  0  0  0  0  0  0  0
   36.5940   29.7060   42.2480 H   0  0  0  0  0  0  0  0  0  0  0  0
   38.6680   29.5730   44.1660 H   0  0  0  0  0  0  0  0  0  0  0  0
   37.3600   28.4180   43.9290 H   0  0  0  0  0  0  0  0  0  0  0  0
   40.2450   28.2640   42.9570 H   0  0  0  0  0  0  0  0  0  0  0  0
   38.9830   26.9770   43.3200 H   0  0  0  0  0  0  0  0  0  0  0  0
   39.6120   27.5160   40.8040 H   0  0  0  0  0  0  0  0  0  0  0  0
   40.1010   32.4030   36.8440 N   0  0  0  0  0  0  0  0  0  0  0  0
   41.0880   32.7690   36.9950 H   0  0  0  0  0  0  0  0  0  0  0  0
   39.5280   32.6620   36.0150 H   0  0  0  0  0  0  0  0  0  0  0  0
   37.3060   26.8300   41.2920 S   0  0  0  0  0  0  0  0  0  0  0  0
   35.3520   29.0140   39.7050 O   0  0  0  0  0  0  0  0  0  0  0  0
   35.7820   27.9340   39.2720 C   0  0  0  0  0  0  0  0  0  0  0  0
   36.5020   26.7250   39.7440 C   0  0  1  0  0  0  0  0  0  0  0  0
   37.4010   26.4220   38.5710 C   0  0  0  0  0  0  0  0  0  0  0  0
   36.3160   26.4050   37.4920 C   0  0  0  0  0  0  0  0  0  0  0  0
   35.5940   27.6130   37.8790 N   0  0  0  0  0  0  0  0  0  0  0  0
   35.6890   25.9600   39.6110 H   0  0  0  0  0  0  0  0  0  0  0  0
   37.9230   25.4670   38.6750 H   0  0  0  0  0  0  0  0  0  0  0  0
   38.0800   27.2900   38.3560 H   0  0  0  0  0  0  0  0  0  0  0  0
   35.6870   25.5040   37.6450 H   0  0  0  0  0  0  0  0  0  0  0  0
   36.7920   26.4640   36.5010 H   0  0  0  0  0  0  0  0  0  0  0  0
   34.8440   28.2550   36.8420 C   0  0  0  0  0  0  0  0  0  0  0  0
   33.4770   28.2310   37.1280 C   0  0  0  0  0  0  0  0  0  0  0  0
   33.0010   27.7960   38.0040 H   0  0  0  0  0  0  0  0  0  0  0  0
   32.5710   28.8090   36.2340 C   0  0  0  0  0  0  0  0  0  0  0  0
   31.5050   28.8100   36.4210 H   0  0  0  0  0  0  0  0  0  0  0  0
   33.0270   29.4070   35.0650 C   0  0  0  0  0  3  0  0  0  0  0  0
   34.3960   29.3830   34.8690 C   0  0  0  0  0  3  0  0  0  0  0  0
   35.2740   28.8270   35.7260 N   0  0  0  0  0  0  0  0  0  0  0  0
  1 12  1  0  0  0  0
  1  6  1  0  0  0  0
  2  1  2  0  0  0  0
  3  2  1  0  0  0  0
  3  4  2  0  0  0  0
  4  5  1  0  0  0  0
  5  6  2  0  0  0  0
  5  7  1  0  0  0  0
  7 11  1  0  0  0  0
  7  8  1  0  0  0  0
  8 15  1  0  0  0  0
  8 14  1  0  0  0  0
  8  9  1  0  0  0  0
  9 17  1  0  0  0  0
  9 16  1  0  0  0  0
 10 18  1  0  0  0  0
 10 19  1  0  0  0  0
 10  9  1  0  0  0  0
 11 20  1  6  0  0  0
 11 10  1  0  0  0  0
 13  3  1  0  0  0  0
 21 22  1  0  0  0  0
 21  2  1  0  0  0  0
 23 21  1  0  0  0  0
 24 11  1  0  0  0  0
 26 25  2  0  0  0  0
 26 27  1  0  0  0  0
 27 31  1  1  0  0  0
 27 24  1  0  0  0  0
 28 32  1  0  0  0  0
 28 27  1  0  0  0  0
 29 34  1  0  0  0  0
 29 30  1  0  0  0  0
 29 28  1  0  0  0  0
 30 26  1  0  0  0  0
 33 28  1  0  0  0  0
 35 29  1  0  0  0  0
 36 37  1  0  0  0  0
 36 30  1  0  0  0  0
 37 38  1  0  0  0  0
 39 40  1  0  0  0  0
 39 37  2  0  0  0  0
 41 39  1  0  0  0  0
 42 41  2  0  0  0  0
 42 43  1  0  0  0  0
 43 36  2  0  0  0  0
M  END
>  <minimizedAffinity>
-5.47870016

$$$$

 OpenBabel03252506393D

 43 46  0  0  1  0  0  0  0  0999 V2000
   37.1510   30.1290   36.8050 C   0  0  0  0  0  0  0  0  0  0  0  0
   38.0350   29.0610   36.5100 C   0  0  0  0  0  0  0  0  0  0  0  0
   39.1160   28.8560   37.2990 C   0  0  0  0  0  0  0  0  0  0  0  0
   39.2870   29.7070   38.3420 N   0  0  0  0  0  0  0  0  0  0  0  0
   38.4580   30.7050   38.6130 C   0  0  0  0  0  0  0  0  0  0  0  0
   37.3860   30.9280   37.8550 N   0  0  0  0  0  0  0  0  0  0  0  0
   38.7420   31.5460   39.7450 N   0  0  0  0  0  0  0  0  0  0  0  0
   37.8340   32.4910   40.2880 C   0  0  0  0  0  0  0  0  0  0  0  0
   38.7330   33.6410   40.7010 C   0  0  0  0  0  0  0  0  0  0  0  0
   40.1400   33.1570   40.5210 C   0  0  0  0  0  0  0  0  0  0  0  0
   39.9590   31.6410   40.5140 C   0  0  1  0  0  0  0  0  0  0  0  0
   36.2560   30.3680   36.2250 H   0  0  0  0  0  0  0  0  0  0  0  0
   39.7850   28.0600   37.0890 H   0  0  0  0  0  0  0  0  0  0  0  0
   37.2630   32.9200   39.4040 H   0  0  0  0  0  0  0  0  0  0  0  0
   37.1210   32.3010   41.0240 H   0  0  0  0  0  0  0  0  0  0  0  0
   38.5730   34.5700   40.1600 H   0  0  0  0  0  0  0  0  0  0  0  0
   38.5330   33.8840   41.7810 H   0  0  0  0  0  0  0  0  0  0  0  0
   40.6420   33.5330   39.6080 H   0  0  0  0  0  0  0  0  0  0  0  0
   40.7120   33.4150   41.4410 H   0  0  0  0  0  0  0  0  0  0  0  0
   40.8240   31.2050   39.9860 H   0  0  0  0  0  0  0  0  0  0  0  0
   37.7070   28.2510   35.3640 N   0  0  0  0  0  0  0  0  0  0  0  0
   38.1070   28.6630   34.4690 H   0  0  0  0  0  0  0  0  0  0  0  0
   37.1530   27.3710   35.3780 H   0  0  0  0  0  0  0  0  0  0  0  0
   39.7400   31.0800   42.1850 S   0  0  0  0  0  0  0  0  0  0  0  0
   37.4380   28.7980   41.4140 O   0  0  0  0  0  0  0  0  0  0  0  0
   38.5700   28.5990   41.8810 C   0  0  0  0  0  0  0  0  0  0  0  0
   39.7140   29.3540   42.4500 C   0  0  1  0  0  0  0  0  0  0  0  0
   40.8920   28.5980   41.8880 C   0  0  0  0  0  0  0  0  0  0  0  0
   40.4720   27.2030   42.3540 C   0  0  0  0  0  0  0  0  0  0  0  0
   39.0670   27.2480   41.9610 N   0  0  0  0  0  0  0  0  0  0  0  0
   39.6820   28.9720   43.5070 H   0  0  0  0  0  0  0  0  0  0  0  0
   41.8460   28.9270   42.3120 H   0  0  0  0  0  0  0  0  0  0  0  0
   40.8690   28.6030   40.7650 H   0  0  0  0  0  0  0  0  0  0  0  0
   40.5710   27.1610   43.4580 H   0  0  0  0  0  0  0  0  0  0  0  0
   41.0650   26.4480   41.8160 H   0  0  0  0  0  0  0  0  0  0  0  0
   38.4400   25.9820   41.7280 C   0  0  0  0  0  0  0  0  0  0  0  0
   39.2480   25.1640   40.9350 C   0  0  0  0  0  0  0  0  0  0  0  0
   40.2250   25.4110   40.5270 H   0  0  0  0  0  0  0  0  0  0  0  0
   38.8120   23.8810   40.5930 C   0  0  0  0  0  0  0  0  0  0  0  0
   39.4100   23.2180   39.9800 H   0  0  0  0  0  0  0  0  0  0  0  0
   37.5800   23.4180   41.0400 C   0  0  0  0  0  3  0  0  0  0  0  0
   36.8520   24.2980   41.8200 C   0  0  0  0  0  3  0  0  0  0  0  0
   37.2660   25.5360   42.1530 N   0  0  0  0  0  0  0  0  0  0  0  0
  1  6  1  0  0  0  0
  2  1  2  0  0  0  0
  2  3  1  0  0  0  0
  3  4  2  0  0  0  0
  4  5  1  0  0  0  0
  5  7  1  0  0  0  0
  6  5  2  0  0  0  0
  7  8  1  0  0  0  0
  7 11  1  0  0  0  0
  8  9  1  0  0  0  0
  8 15  1  0  0  0  0
  9 17  1  0  0  0  0
 10  9  1  0  0  0  0
 10 19  1  0  0  0  0
 11 20  1  6  0  0  0
 11 10  1  0  0  0  0
 11 24  1  0  0  0  0
 12  1  1  0  0  0  0
 13  3  1  0  0  0  0
 14  8  1  0  0  0  0
 16  9  1  0  0  0  0
 18 10  1  0  0  0  0
 21 23  1  0  0  0  0
 21  2  1  0  0  0  0
 22 21  1  0  0  0  0
 24 27  1  0  0  0  0
 25 26  2  0  0  0  0
 26 30  1  0  0  0  0
 26 27  1  0  0  0  0
 27 31  1  1  0  0  0
 28 32  1  0  0  0  0
 28 29  1  0  0  0  0
 28 27  1  0  0  0  0
 29 34  1  0  0  0  0
 30 29  1  0  0  0  0
 33 28  1  0  0  0  0
 35 29  1  0  0  0  0
 36 30  1  0  0  0  0
 36 43  1  0  0  0  0
 37 36  2  0  0  0  0
 38 37  1  0  0  0  0
 39 37  1  0  0  0  0
 39 41  2  0  0  0  0
 40 39  1  0  0  0  0
 41 42  1  0  0  0  0
 42 43  2  0  0  0  0
M  END
>  <minimizedAffinity>
-5.46652222

$$$$

 OpenBabel03252506393D

 43 46  0  0  1  0  0  0  0  0999 V2000
   37.2200   25.2530   41.9410 C   0  0  0  0  0  0  0  0  0  0  0  0
   38.3020   24.6370   41.2650 C   0  0  0  0  0  0  0  0  0  0  0  0
   39.0880   25.3810   40.4510 C   0  0  0  0  0  0  0  0  0  0  0  0
   38.7780   26.6970   40.3320 N   0  0  0  0  0  0  0  0  0  0  0  0
   37.7640   27.2690   40.9660 C   0  0  0  0  0  0  0  0  0  0  0  0
   36.9770   26.5610   41.7730 N   0  0  0  0  0  0  0  0  0  0  0  0
   37.5300   28.6730   40.7600 N   0  0  0  0  0  0  0  0  0  0  0  0
   36.6410   29.4590   41.5400 C   0  0  0  0  0  0  0  0  0  0  0  0
   36.0390   30.4130   40.5260 C   0  0  0  0  0  0  0  0  0  0  0  0
   36.7990   30.2030   39.2510 C   0  0  0  0  0  0  0  0  0  0  0  0
   38.0810   29.5400   39.7480 C   0  0  1  0  0  0  0  0  0  0  0  0
   36.5350   24.7320   42.6160 H   0  0  0  0  0  0  0  0  0  0  0  0
   39.9010   24.9320   39.9390 H   0  0  0  0  0  0  0  0  0  0  0  0
   35.7680   28.7790   41.7990 H   0  0  0  0  0  0  0  0  0  0  0  0
   36.8820   29.9630   42.4190 H   0  0  0  0  0  0  0  0  0  0  0  0
   34.9700   30.2980   40.3610 H   0  0  0  0  0  0  0  0  0  0  0  0
   36.1740   31.4660   40.8980 H   0  0  0  0  0  0  0  0  0  0  0  0
   36.2670   29.5940   38.4940 H   0  0  0  0  0  0  0  0  0  0  0  0
   37.0800   31.2040   38.8510 H   0  0  0  0  0  0  0  0  0  0  0  0
   38.5140   28.9770   38.9030 H   0  0  0  0  0  0  0  0  0  0  0  0
   38.4920   23.2290   41.5020 N   0  0  0  0  0  0  0  0  0  0  0  0
   37.9060   22.6390   40.8390 H   0  0  0  0  0  0  0  0  0  0  0  0
   39.1150   22.8100   42.2220 H   0  0  0  0  0  0  0  0  0  0  0  0
   39.1420   30.7860   40.4410 S   0  0  0  0  0  0  0  0  0  0  0  0
   41.9830   29.5350   39.2310 O   0  0  0  0  0  0  0  0  0  0  0  0
   41.4530   30.6180   38.9410 C   0  0  0  0  0  0  0  0  0  0  0  0
   40.3380   31.4930   39.3830 C   0  0  1  0  0  0  0  0  0  0  0  0
   39.8110   32.0090   38.0680 C   0  0  0  0  0  0  0  0  0  0  0  0
   41.1390   32.5300   37.5130 C   0  0  0  0  0  0  0  0  0  0  0  0
   41.9830   31.3860   37.8420 N   0  0  0  0  0  0  0  0  0  0  0  0
   40.9290   32.3750   39.7530 H   0  0  0  0  0  0  0  0  0  0  0  0
   39.0580   32.7930   38.1930 H   0  0  0  0  0  0  0  0  0  0  0  0
   39.4780   31.1610   37.4120 H   0  0  0  0  0  0  0  0  0  0  0  0
   41.4360   33.4210   38.1030 H   0  0  0  0  0  0  0  0  0  0  0  0
   41.0310   32.7140   36.4340 H   0  0  0  0  0  0  0  0  0  0  0  0
   43.1600   31.2250   37.0410 C   0  0  0  0  0  0  0  0  0  0  0  0
   42.9360   30.3170   36.0030 C   0  0  0  0  0  0  0  0  0  0  0  0
   42.0130   29.7810   35.7930 H   0  0  0  0  0  0  0  0  0  0  0  0
   43.9660   30.0210   35.1070 C   0  0  0  0  0  0  0  0  0  0  0  0
   43.8310   29.3220   34.2910 H   0  0  0  0  0  0  0  0  0  0  0  0
   45.2100   30.6270   35.2440 C   0  0  0  0  0  3  0  0  0  0  0  0
   45.3350   31.5110   36.3000 C   0  0  0  0  0  3  0  0  0  0  0  0
   44.3470   31.8010   37.1680 N   0  0  0  0  0  0  0  0  0  0  0  0
  1 12  1  0  0  0  0
  2 21  1  0  0  0  0
  2  1  2  0  0  0  0
  3  2  1  0  0  0  0
  4  3  2  0  0  0  0
  4  5  1  0  0  0  0
  5  6  2  0  0  0  0
  6  1  1  0  0  0  0
  7  5  1  0  0  0  0
  7  8  1  0  0  0  0
  8 14  1  0  0  0  0
  8 15  1  0  0  0  0
  9 17  1  0  0  0  0
  9  8  1  0  0  0  0
 10 11  1  0  0  0  0
 10  9  1  0  0  0  0
 11 20  1  6  0  0  0
 11 24  1  0  0  0  0
 11  7  1  0  0  0  0
 13  3  1  0  0  0  0
 16  9  1  0  0  0  0
 18 10  1  0  0  0  0
 19 10  1  0  0  0  0
 21 23  1  0  0  0  0
 22 21  1  0  0  0  0
 26 25  2  0  0  0  0
 26 27  1  0  0  0  0
 27 31  1  1  0  0  0
 27 24  1  0  0  0  0
 28 32  1  0  0  0  0
 28 27  1  0  0  0  0
 29 30  1  0  0  0  0
 29 28  1  0  0  0  0
 29 34  1  0  0  0  0
 30 26  1  0  0  0  0
 33 28  1  0  0  0  0
 35 29  1  0  0  0  0
 36 43  1  0  0  0  0
 36 30  1  0  0  0  0
 37 36  2  0  0  0  0
 38 37  1  0  0  0  0
 39 41  2  0  0  0  0
 39 37  1  0  0  0  0
 40 39  1  0  0  0  0
 41 42  1  0  0  0  0
 42 43  2  0  0  0  0
M  END
>  <minimizedAffinity>
-5.44937897

$$$$

 OpenBabel03252506393D

 43 46  0  0  1  0  0  0  0  0999 V2000
   38.1660   25.1300   41.9990 C   0  0  0  0  0  0  0  0  0  0  0  0
   37.9200   24.1260   41.0310 C   0  0  0  0  0  0  0  0  0  0  0  0
   37.3130   24.4590   39.8670 C   0  0  0  0  0  0  0  0  0  0  0  0
   36.9720   25.7620   39.7020 N   0  0  0  0  0  0  0  0  0  0  0  0
   37.2030   26.6980   40.6120 C   0  0  0  0  0  0  0  0  0  0  0  0
   37.7990   26.3980   41.7640 N   0  0  0  0  0  0  0  0  0  0  0  0
   36.7940   28.0480   40.3280 N   0  0  0  0  0  0  0  0  0  0  0  0
   37.1800   29.1790   41.0930 C   0  0  0  0  0  0  0  0  0  0  0  0
   35.9390   30.0500   41.0770 C   0  0  0  0  0  0  0  0  0  0  0  0
   34.9860   29.4040   40.1180 C   0  0  0  0  0  0  0  0  0  0  0  0
   35.9150   28.5230   39.2870 C   0  0  1  0  0  0  0  0  0  0  0  0
   38.6480   24.9530   42.9640 H   0  0  0  0  0  0  0  0  0  0  0  0
   37.1230   23.7170   39.1330 H   0  0  0  0  0  0  0  0  0  0  0  0
   37.2280   28.8250   42.1720 H   0  0  0  0  0  0  0  0  0  0  0  0
   38.0350   29.7550   40.9430 H   0  0  0  0  0  0  0  0  0  0  0  0
   35.4690   30.2020   42.0450 H   0  0  0  0  0  0  0  0  0  0  0  0
   36.2250   31.0780   40.7180 H   0  0  0  0  0  0  0  0  0  0  0  0
   34.1690   28.8310   40.5990 H   0  0  0  0  0  0  0  0  0  0  0  0
   34.5910   30.1960   39.4410 H   0  0  0  0  0  0  0  0  0  0  0  0
   35.3060   27.7140   38.8500 H   0  0  0  0  0  0  0  0  0  0  0  0
   38.3460   22.7910   41.3640 N   0  0  0  0  0  0  0  0  0  0  0  0
   37.5990   22.2690   41.9120 H   0  0  0  0  0  0  0  0  0  0  0  0
   39.2600   22.3620   41.1150 H   0  0  0  0  0  0  0  0  0  0  0  0
   36.7680   29.5400   38.1060 S   0  0  0  0  0  0  0  0  0  0  0  0
   39.9780   30.1340   37.4360 O   0  0  0  0  0  0  0  0  0  0  0  0
   39.2170   30.8130   38.1420 C   0  0  0  0  0  0  0  0  0  0  0  0
   37.8590   30.7500   38.7370 C   0  0  1  0  0  0  0  0  0  0  0  0
   37.3920   32.1770   38.5910 C   0  0  0  0  0  0  0  0  0  0  0  0
   38.5910   32.8470   39.2660 C   0  0  0  0  0  0  0  0  0  0  0  0
   39.6620   32.1010   38.6130 N   0  0  0  0  0  0  0  0  0  0  0  0
   38.1340   30.7110   39.8260 H   0  0  0  0  0  0  0  0  0  0  0  0
   36.4450   32.3660   39.1060 H   0  0  0  0  0  0  0  0  0  0  0  0
   37.3920   32.4880   37.5120 H   0  0  0  0  0  0  0  0  0  0  0  0
   38.5540   32.6140   40.3500 H   0  0  0  0  0  0  0  0  0  0  0  0
   38.5830   33.9220   39.0310 H   0  0  0  0  0  0  0  0  0  0  0  0
   40.9340   32.7560   38.5510 C   0  0  0  0  0  0  0  0  0  0  0  0
   41.5130   32.8420   39.8190 C   0  0  0  0  0  0  0  0  0  0  0  0
   41.0930   32.4770   40.7540 H   0  0  0  0  0  0  0  0  0  0  0  0
   42.7620   33.4500   39.9720 C   0  0  0  0  0  0  0  0  0  0  0  0
   43.2420   33.5360   40.9390 H   0  0  0  0  0  0  0  0  0  0  0  0
   43.4290   33.9670   38.8670 C   0  0  0  0  0  3  0  0  0  0  0  0
   42.7780   33.8330   37.6530 C   0  0  0  0  0  3  0  0  0  0  0  0
   41.5740   33.2490   37.5000 N   0  0  0  0  0  0  0  0  0  0  0  0
  1 12  1  0  0  0  0
  2 21  1  0  0  0  0
  2  1  2  0  0  0  0
  3  2  1  0  0  0  0
  4  3  2  0  0  0  0
  4  5  1  0  0  0  0
  5  6  2  0  0  0  0
  6  1  1  0  0  0  0
  7  5  1  0  0  0  0
  7  8  1  0  0  0  0
  8 14  1  0  0  0  0
  9  8  1  0  0  0  0
  9 16  1  0  0  0  0
 10 18  1  0  0  0  0
 10  9  1  0  0  0  0
 11 20  1  6  0  0  0
 11 10  1  0  0  0  0
 11  7  1  0  0  0  0
 13  3  1  0  0  0  0
 15  8  1  0  0  0  0
 17  9  1  0  0  0  0
 19 10  1  0  0  0  0
 21 22  1  0  0  0  0
 23 21  1  0  0  0  0
 24 27  1  0  0  0  0
 24 11  1  0  0  0  0
 25 26  2  0  0  0  0
 26 30  1  0  0  0  0
 26 27  1  0  0  0  0
 27 31  1  1  0  0  0
 28 27  1  0  0  0  0
 28 32  1  0  0  0  0
 28 29  1  0  0  0  0
 29 34  1  0  0  0  0
 30 29  1  0  0  0  0
 33 28  1  0  0  0  0
 35 29  1  0  0  0  0
 36 30  1  0  0  0  0
 36 37  1  0  0  0  0
 37 39  2  0  0  0  0
 37 38  1  0  0  0  0
 39 40  1  0  0  0  0
 41 39  1  0  0  0  0
 42 41  2  0  0  0  0
 43 42  1  0  0  0  0
 43 36  2  0  0  0  0
M  END
>  <minimizedAffinity>
-5.42526913

$$$$

 OpenBabel03252506393D

 43 46  0  0  1  0  0  0  0  0999 V2000
   38.0430   27.5550   36.6150 C   0  0  0  0  0  0  0  0  0  0  0  0
   37.4300   28.7390   36.1330 C   0  0  0  0  0  0  0  0  0  0  0  0
   36.9560   29.6480   37.0170 C   0  0  0  0  0  0  0  0  0  0  0  0
   37.1010   29.3600   38.3350 N   0  0  0  0  0  0  0  0  0  0  0  0
   37.6750   28.2510   38.7810 C   0  0  0  0  0  0  0  0  0  0  0  0
   38.1510   27.3400   37.9340 N   0  0  0  0  0  0  0  0  0  0  0  0
   37.7710   28.0500   40.2020 N   0  0  0  0  0  0  0  0  0  0  0  0
   38.5560   27.0410   40.8160 C   0  0  0  0  0  0  0  0  0  0  0  0
   37.7110   26.6160   42.0020 C   0  0  0  0  0  0  0  0  0  0  0  0
   36.5670   27.5820   42.0670 C   0  0  0  0  0  0  0  0  0  0  0  0
   37.0970   28.7630   41.2600 C   0  0  1  0  0  0  0  0  0  0  0  0
   38.4530   26.7680   35.9770 H   0  0  0  0  0  0  0  0  0  0  0  0
   36.4950   30.5380   36.6700 H   0  0  0  0  0  0  0  0  0  0  0  0
   38.5000   26.1380   40.1280 H   0  0  0  0  0  0  0  0  0  0  0  0
   39.5570   27.1280   41.0930 H   0  0  0  0  0  0  0  0  0  0  0  0
   37.3490   25.5910   41.9690 H   0  0  0  0  0  0  0  0  0  0  0  0
   38.3380   26.6820   42.9340 H   0  0  0  0  0  0  0  0  0  0  0  0
   35.6100   27.1870   41.6720 H   0  0  0  0  0  0  0  0  0  0  0  0
   36.4660   27.9230   43.1230 H   0  0  0  0  0  0  0  0  0  0  0  0
   36.2280   29.3340   40.8940 H   0  0  0  0  0  0  0  0  0  0  0  0
   37.3560   28.8900   34.7030 N   0  0  0  0  0  0  0  0  0  0  0  0
   36.4850   28.4270   34.3060 H   0  0  0  0  0  0  0  0  0  0  0  0
   38.0490   29.3830   34.1050 H   0  0  0  0  0  0  0  0  0  0  0  0
   38.2300   29.6870   42.2690 S   0  0  0  0  0  0  0  0  0  0  0  0
   40.9500   30.0800   40.3850 O   0  0  0  0  0  0  0  0  0  0  0  0
   40.1060   30.9400   40.6790 C   0  0  0  0  0  0  0  0  0  0  0  0
   38.9330   31.1250   41.5690 C   0  0  1  0  0  0  0  0  0  0  0  0
   38.0070   31.9340   40.6950 C   0  0  0  0  0  0  0  0  0  0  0  0
   38.9940   33.0480   40.3400 C   0  0  0  0  0  0  0  0  0  0  0  0
   40.1580   32.2240   40.0260 N   0  0  0  0  0  0  0  0  0  0  0  0
   39.3430   31.9130   42.2570 H   0  0  0  0  0  0  0  0  0  0  0  0
   37.1250   32.2940   41.2340 H   0  0  0  0  0  0  0  0  0  0  0  0
   37.7660   31.3790   39.7490 H   0  0  0  0  0  0  0  0  0  0  0  0
   39.1760   33.6540   41.2510 H   0  0  0  0  0  0  0  0  0  0  0  0
   38.6030   33.6180   39.4840 H   0  0  0  0  0  0  0  0  0  0  0  0
   41.1240   32.8130   39.1480 C   0  0  0  0  0  0  0  0  0  0  0  0
   42.1740   33.3820   39.8730 C   0  0  0  0  0  0  0  0  0  0  0  0
   42.2850   33.4010   40.9550 H   0  0  0  0  0  0  0  0  0  0  0  0
   43.2240   34.0100   39.1960 C   0  0  0  0  0  0  0  0  0  0  0  0
   44.0540   34.4630   39.7230 H   0  0  0  0  0  0  0  0  0  0  0  0
   43.2250   34.0690   37.8070 C   0  0  0  0  0  3  0  0  0  0  0  0
   42.1450   33.4770   37.1780 C   0  0  0  0  0  3  0  0  0  0  0  0
   41.1310   32.8710   37.8240 N   0  0  0  0  0  0  0  0  0  0  0  0
  1  6  1  0  0  0  0
  2  1  2  0  0  0  0
  2  3  1  0  0  0  0
  3  4  2  0  0  0  0
  4  5  1  0  0  0  0
  5  7  1  0  0  0  0
  6  5  2  0  0  0  0
  7  8  1  0  0  0  0
  7 11  1  0  0  0  0
  8 15  1  0  0  0  0
  8  9  1  0  0  0  0
  9 10  1  0  0  0  0
  9 17  1  0  0  0  0
 10 19  1  0  0  0  0
 11 20  1  6  0  0  0
 11 10  1  0  0  0  0
 11 24  1  0  0  0  0
 12  1  1  0  0  0  0
 13  3  1  0  0  0  0
 14  8  1  0  0  0  0
 16  9  1  0  0  0  0
 18 10  1  0  0  0  0
 21  2  1  0  0  0  0
 22 21  1  0  0  0  0
 23 21  1  0  0  0  0
 25 26  2  0  0  0  0
 26 27  1  0  0  0  0
 27 31  1  1  0  0  0
 27 24  1  0  0  0  0
 28 32  1  0  0  0  0
 28 27  1  0  0  0  0
 29 28  1  0  0  0  0
 29 34  1  0  0  0  0
 30 29  1  0  0  0  0
 30 26  1  0  0  0  0
 33 28  1  0  0  0  0
 35 29  1  0  0  0  0
 36 37  1  0  0  0  0
 36 30  1  0  0  0  0
 37 38  1  0  0  0  0
 39 40  1  0  0  0  0
 39 37  2  0  0  0  0
 41 39  1  0  0  0  0
 42 41  2  0  0  0  0
 42 43  1  0  0  0  0
 43 36  2  0  0  0  0
M  END
>  <minimizedAffinity>
-5.42314196

$$$$

 OpenBabel03252506393D

 43 46  0  0  1  0  0  0  0  0999 V2000
   42.9800   30.3750   36.0330 C   0  0  0  0  0  0  0  0  0  0  0  0
   43.1660   29.0570   36.5200 C   0  0  0  0  0  0  0  0  0  0  0  0
   42.7340   28.7420   37.7640 C   0  0  0  0  0  0  0  0  0  0  0  0
   42.1420   29.7310   38.4800 N   0  0  0  0  0  0  0  0  0  0  0  0
   41.9710   30.9630   38.0200 C   0  0  0  0  0  0  0  0  0  0  0  0
   42.3840   31.3000   36.8000 N   0  0  0  0  0  0  0  0  0  0  0  0
   41.3320   31.9310   38.8700 N   0  0  0  0  0  0  0  0  0  0  0  0
   40.8770   33.2020   38.4340 C   0  0  0  0  0  0  0  0  0  0  0  0
   41.1730   34.1020   39.6190 C   0  0  0  0  0  0  0  0  0  0  0  0
   41.6140   33.1990   40.7310 C   0  0  0  0  0  0  0  0  0  0  0  0
   41.0610   31.8480   40.2850 C   0  0  1  0  0  0  0  0  0  0  0  0
   43.2950   30.7190   35.0440 H   0  0  0  0  0  0  0  0  0  0  0  0
   42.8670   27.7590   38.1410 H   0  0  0  0  0  0  0  0  0  0  0  0
   41.6270   33.5530   37.6550 H   0  0  0  0  0  0  0  0  0  0  0  0
   39.9360   33.4130   38.0410 H   0  0  0  0  0  0  0  0  0  0  0  0
   41.9120   34.8790   39.4360 H   0  0  0  0  0  0  0  0  0  0  0  0
   40.2300   34.6470   39.9020 H   0  0  0  0  0  0  0  0  0  0  0  0
   42.7080   33.1800   40.9000 H   0  0  0  0  0  0  0  0  0  0  0  0
   41.0600   33.4940   41.6510 H   0  0  0  0  0  0  0  0  0  0  0  0
   41.6570   31.0640   40.7810 H   0  0  0  0  0  0  0  0  0  0  0  0
   43.8140   28.1270   35.6310 N   0  0  0  0  0  0  0  0  0  0  0  0
   44.8720   28.1750   35.7210 H   0  0  0  0  0  0  0  0  0  0  0  0
   43.3370   27.4780   34.9730 H   0  0  0  0  0  0  0  0  0  0  0  0
   39.3190   31.7970   40.6300 S   0  0  0  0  0  0  0  0  0  0  0  0
   39.2120   28.6060   39.6770 O   0  0  0  0  0  0  0  0  0  0  0  0
   38.9130   29.0720   40.7870 C   0  0  0  0  0  0  0  0  0  0  0  0
   38.7110   30.3820   41.4540 C   0  0  1  0  0  0  0  0  0  0  0  0
   39.3000   30.1280   42.8190 C   0  0  0  0  0  0  0  0  0  0  0  0
   38.4970   28.8680   43.1490 C   0  0  0  0  0  0  0  0  0  0  0  0
   38.6470   28.1670   41.8780 N   0  0  0  0  0  0  0  0  0  0  0  0
   37.6090   30.3160   41.6650 H   0  0  0  0  0  0  0  0  0  0  0  0
   39.1180   30.9510   43.5160 H   0  0  0  0  0  0  0  0  0  0  0  0
   40.3800   29.8320   42.7370 H   0  0  0  0  0  0  0  0  0  0  0  0
   37.4400   29.1620   43.3130 H   0  0  0  0  0  0  0  0  0  0  0  0
   38.9640   28.3560   44.0030 H   0  0  0  0  0  0  0  0  0  0  0  0
   38.5100   26.7420   41.9270 C   0  0  0  0  0  0  0  0  0  0  0  0
   37.2010   26.3570   41.6260 C   0  0  0  0  0  0  0  0  0  0  0  0
   36.3680   27.0120   41.3820 H   0  0  0  0  0  0  0  0  0  0  0  0
   36.8610   25.0010   41.6210 C   0  0  0  0  0  0  0  0  0  0  0  0
   35.8580   24.6640   41.3930 H   0  0  0  0  0  0  0  0  0  0  0  0
   37.8200   24.0380   41.9140 C   0  0  0  0  0  3  0  0  0  0  0  0
   39.0870   24.5150   42.1990 C   0  0  0  0  0  3  0  0  0  0  0  0
   39.4210   25.8200   42.2050 N   0  0  0  0  0  0  0  0  0  0  0  0
  1  2  2  0  0  0  0
  1  6  1  0  0  0  0
  2  3  1  0  0  0  0
  3 13  1  0  0  0  0
  3  4  2  0  0  0  0
  5  4  1  0  0  0  0
  5  7  1  0  0  0  0
  6  5  2  0  0  0  0
  7 11  1  0  0  0  0
  8  7  1  0  0  0  0
  8  9  1  0  0  0  0
  9 17  1  0  0  0  0
  9 10  1  0  0  0  0
 10 18  1  0  0  0  0
 10 19  1  0  0  0  0
 11 24  1  0  0  0  0
 11 10  1  0  0  0  0
 11 20  1  1  0  0  0
 12  1  1  0  0  0  0
 14  8  1  0  0  0  0
 15  8  1  0  0  0  0
 16  9  1  0  0  0  0
 21 22  1  0  0  0  0
 21  2  1  0  0  0  0
 23 21  1  0  0  0  0
 24 27  1  0  0  0  0
 25 26  2  0  0  0  0
 26 27  1  0  0  0  0
 26 30  1  0  0  0  0
 27 31  1  1  0  0  0
 27 28  1  0  0  0  0
 28 29  1  0  0  0  0
 28 32  1  0  0  0  0
 29 34  1  0  0  0  0
 29 35  1  0  0  0  0
 30 36  1  0  0  0  0
 30 29  1  0  0  0  0
 33 28  1  0  0  0  0
 36 43  1  0  0  0  0
 37 36  2  0  0  0  0
 38 37  1  0  0  0  0
 39 37  1  0  0  0  0
 39 41  2  0  0  0  0
 40 39  1  0  0  0  0
 41 42  1  0  0  0  0
 42 43  2  0  0  0  0
M  END
>  <minimizedAffinity>
-5.41520309

$$$$

 OpenBabel03252506393D

 43 46  0  0  1  0  0  0  0  0999 V2000
   41.0750   29.3520   37.4550 C   0  0  0  0  0  0  0  0  0  0  0  0
   41.7090   28.6220   38.4910 C   0  0  0  0  0  0  0  0  0  0  0  0
   41.2230   28.6990   39.7520 C   0  0  0  0  0  0  0  0  0  0  0  0
   40.1380   29.4910   39.9460 N   0  0  0  0  0  0  0  0  0  0  0  0
   39.5490   30.1740   38.9740 C   0  0  0  0  0  0  0  0  0  0  0  0
   40.0060   30.1140   37.7240 N   0  0  0  0  0  0  0  0  0  0  0  0
   38.4060   30.9840   39.2980 N   0  0  0  0  0  0  0  0  0  0  0  0
   37.5440   31.5740   38.3370 C   0  0  0  0  0  0  0  0  0  0  0  0
   37.1910   32.9110   38.9610 C   0  0  0  0  0  0  0  0  0  0  0  0
   37.7520   32.8850   40.3510 C   0  0  0  0  0  0  0  0  0  0  0  0
   37.9280   31.3890   40.5980 C   0  0  1  0  0  0  0  0  0  0  0  0
   41.3980   29.3500   36.4100 H   0  0  0  0  0  0  0  0  0  0  0  0
   41.6880   28.1570   40.5370 H   0  0  0  0  0  0  0  0  0  0  0  0
   38.2070   31.8690   37.4620 H   0  0  0  0  0  0  0  0  0  0  0  0
   36.7000   31.1300   37.9200 H   0  0  0  0  0  0  0  0  0  0  0  0
   37.5470   33.7830   38.4180 H   0  0  0  0  0  0  0  0  0  0  0  0
   36.0710   33.0110   38.9880 H   0  0  0  0  0  0  0  0  0  0  0  0
   38.6940   33.4550   40.4770 H   0  0  0  0  0  0  0  0  0  0  0  0
   36.9590   33.2420   41.0470 H   0  0  0  0  0  0  0  0  0  0  0  0
   38.6940   31.2690   41.3830 H   0  0  0  0  0  0  0  0  0  0  0  0
   42.8510   27.8290   38.1140 N   0  0  0  0  0  0  0  0  0  0  0  0
   43.7480   28.4000   38.1400 H   0  0  0  0  0  0  0  0  0  0  0  0
   42.8350   26.8240   37.8470 H   0  0  0  0  0  0  0  0  0  0  0  0
   36.3460   30.6790   40.9800 S   0  0  0  0  0  0  0  0  0  0  0  0
   36.7930   27.8960   39.2030 O   0  0  0  0  0  0  0  0  0  0  0  0
   36.6690   27.9930   40.4330 C   0  0  0  0  0  0  0  0  0  0  0  0
   36.3210   29.0010   41.4650 C   0  0  1  0  0  0  0  0  0  0  0  0
   37.2690   28.6390   42.5820 C   0  0  0  0  0  0  0  0  0  0  0  0
   36.9040   27.1560   42.6780 C   0  0  0  0  0  0  0  0  0  0  0  0
   36.9060   26.8320   41.2550 N   0  0  0  0  0  0  0  0  0  0  0  0
   35.3550   28.5630   41.8360 H   0  0  0  0  0  0  0  0  0  0  0  0
   37.0670   29.1940   43.5030 H   0  0  0  0  0  0  0  0  0  0  0  0
   38.3350   28.7050   42.2360 H   0  0  0  0  0  0  0  0  0  0  0  0
   35.8800   27.0770   43.0970 H   0  0  0  0  0  0  0  0  0  0  0  0
   37.6760   26.6320   43.2600 H   0  0  0  0  0  0  0  0  0  0  0  0
   37.1380   25.4580   40.9250 C   0  0  0  0  0  0  0  0  0  0  0  0
   38.3340   25.0050   41.4870 C   0  0  0  0  0  0  0  0  0  0  0  0
   39.0270   25.5800   42.0970 H   0  0  0  0  0  0  0  0  0  0  0  0
   38.7410   23.6840   41.2800 C   0  0  0  0  0  0  0  0  0  0  0  0
   39.6620   23.2970   41.6990 H   0  0  0  0  0  0  0  0  0  0  0  0
   37.9600   22.8220   40.5200 C   0  0  0  0  0  3  0  0  0  0  0  0
   36.7930   23.3590   40.0070 C   0  0  0  0  0  3  0  0  0  0  0  0
   36.3960   24.6310   40.2020 N   0  0  0  0  0  0  0  0  0  0  0  0
  1  6  2  0  0  0  0
  1  2  1  0  0  0  0
  2  3  2  0  0  0  0
  3  4  1  0  0  0  0
  3 13  1  0  0  0  0
  5  7  1  0  0  0  0
  5  4  2  0  0  0  0
  6  5  1  0  0  0  0
  7 11  1  0  0  0  0
  8  9  1  0  0  0  0
  8  7  1  0  0  0  0
  9 17  1  0  0  0  0
  9 10  1  0  0  0  0
 10 18  1  0  0  0  0
 10 11  1  0  0  0  0
 10 19  1  0  0  0  0
 11 24  1  0  0  0  0
 11 20  1  1  0  0  0
 12  1  1  0  0  0  0
 14  8  1  0  0  0  0
 15  8  1  0  0  0  0
 16  9  1  0  0  0  0
 21 22  1  0  0  0  0
 21  2  1  0  0  0  0
 23 21  1  0  0  0  0
 24 27  1  0  0  0  0
 25 26  2  0  0  0  0
 26 30  1  0  0  0  0
 26 27  1  0  0  0  0
 27 31  1  1  0  0  0
 27 28  1  0  0  0  0
 28 29  1  0  0  0  0
 28 32  1  0  0  0  0
 29 34  1  0  0  0  0
 29 35  1  0  0  0  0
 30 29  1  0  0  0  0
 33 28  1  0  0  0  0
 36 30  1  0  0  0  0
 36 37  1  0  0  0  0
 37 38  1  0  0  0  0
 39 37  2  0  0  0  0
 39 40  1  0  0  0  0
 41 39  1  0  0  0  0
 42 43  1  0  0  0  0
 42 41  2  0  0  0  0
 43 36  2  0  0  0  0
M  END
>  <minimizedAffinity>
-5.40274382

$$$$

 OpenBabel03252506393D

 43 46  0  0  1  0  0  0  0  0999 V2000
   39.4050   32.5690   39.2820 C   0  0  0  0  0  0  0  0  0  0  0  0
   39.8540   32.7240   40.6170 C   0  0  0  0  0  0  0  0  0  0  0  0
   39.3570   31.9160   41.5830 C   0  0  0  0  0  0  0  0  0  0  0  0
   38.4390   30.9930   41.2010 N   0  0  0  0  0  0  0  0  0  0  0  0
   38.0220   30.8520   39.9510 C   0  0  0  0  0  0  0  0  0  0  0  0
   38.4950   31.6320   38.9810 N   0  0  0  0  0  0  0  0  0  0  0  0
   37.0420   29.8390   39.6630 N   0  0  0  0  0  0  0  0  0  0  0  0
   36.6810   29.4230   38.3560 C   0  0  0  0  0  0  0  0  0  0  0  0
   35.1910   29.1640   38.4720 C   0  0  0  0  0  0  0  0  0  0  0  0
   34.8580   29.2810   39.9280 C   0  0  0  0  0  0  0  0  0  0  0  0
   36.2220   29.0910   40.5850 C   0  0  1  0  0  0  0  0  0  0  0  0
   39.7510   33.1740   38.4390 H   0  0  0  0  0  0  0  0  0  0  0  0
   39.6850   32.0220   42.5870 H   0  0  0  0  0  0  0  0  0  0  0  0
   36.7280   30.3540   37.7060 H   0  0  0  0  0  0  0  0  0  0  0  0
   37.1420   28.6670   37.8060 H   0  0  0  0  0  0  0  0  0  0  0  0
   34.5610   29.8210   37.8770 H   0  0  0  0  0  0  0  0  0  0  0  0
   34.9760   28.1240   38.0990 H   0  0  0  0  0  0  0  0  0  0  0  0
   34.3740   30.2360   40.2120 H   0  0  0  0  0  0  0  0  0  0  0  0
   34.2330   28.4030   40.2080 H   0  0  0  0  0  0  0  0  0  0  0  0
   36.1790   29.5590   41.5840 H   0  0  0  0  0  0  0  0  0  0  0  0
   40.8330   33.7550   40.8520 N   0  0  0  0  0  0  0  0  0  0  0  0
   40.3730   34.6960   41.0310 H   0  0  0  0  0  0  0  0  0  0  0  0
   41.8650   33.6270   40.8550 H   0  0  0  0  0  0  0  0  0  0  0  0
   36.6250   27.3610   40.5850 S   0  0  0  0  0  0  0  0  0  0  0  0
   39.9300   27.7530   40.4170 O   0  0  0  0  0  0  0  0  0  0  0  0
   39.2740   27.2720   41.3540 C   0  0  0  0  0  0  0  0  0  0  0  0
   37.8910   26.8370   41.6690 C   0  0  1  0  0  0  0  0  0  0  0  0
   37.7420   27.2890   43.0990 C   0  0  0  0  0  0  0  0  0  0  0  0
   38.9980   26.6120   43.6520 C   0  0  0  0  0  0  0  0  0  0  0  0
   39.9390   26.9930   42.6030 N   0  0  0  0  0  0  0  0  0  0  0  0
   38.0670   25.7340   41.7960 H   0  0  0  0  0  0  0  0  0  0  0  0
   36.8180   26.9300   43.5620 H   0  0  0  0  0  0  0  0  0  0  0  0
   37.8900   28.3990   43.1830 H   0  0  0  0  0  0  0  0  0  0  0  0
   38.8310   25.5160   43.6510 H   0  0  0  0  0  0  0  0  0  0  0  0
   39.2310   27.0360   44.6400 H   0  0  0  0  0  0  0  0  0  0  0  0
   41.3200   27.0250   42.9800 C   0  0  0  0  0  0  0  0  0  0  0  0
   41.8510   25.7340   43.0360 C   0  0  0  0  0  0  0  0  0  0  0  0
   41.3260   24.8030   42.8300 H   0  0  0  0  0  0  0  0  0  0  0  0
   43.1910   25.5500   43.3870 C   0  0  0  0  0  0  0  0  0  0  0  0
   43.6380   24.5650   43.4420 H   0  0  0  0  0  0  0  0  0  0  0  0
   43.9950   26.6460   43.6800 C   0  0  0  0  0  3  0  0  0  0  0  0
   43.3810   27.8830   43.5960 C   0  0  0  0  0  3  0  0  0  0  0  0
   42.0900   28.0660   43.2590 N   0  0  0  0  0  0  0  0  0  0  0  0
  1  2  1  0  0  0  0
  2 21  1  0  0  0  0
  2  3  2  0  0  0  0
  3 13  1  0  0  0  0
  4  3  1  0  0  0  0
  5  4  2  0  0  0  0
  6  1  2  0  0  0  0
  6  5  1  0  0  0  0
  7  5  1  0  0  0  0
  7 11  1  0  0  0  0
  8  9  1  0  0  0  0
  8  7  1  0  0  0  0
  9 10  1  0  0  0  0
 10 19  1  0  0  0  0
 10 18  1  0  0  0  0
 10 11  1  0  0  0  0
 11 24  1  0  0  0  0
 11 20  1  1  0  0  0
 12  1  1  0  0  0  0
 14  8  1  0  0  0  0
 15  8  1  0  0  0  0
 16  9  1  0  0  0  0
 17  9  1  0  0  0  0
 21 23  1  0  0  0  0
 21 22  1  0  0  0  0
 24 27  1  0  0  0  0
 25 26  2  0  0  0  0
 26 27  1  0  0  0  0
 26 30  1  0  0  0  0
 27 31  1  1  0  0  0
 27 28  1  0  0  0  0
 28 33  1  0  0  0  0
 28 32  1  0  0  0  0
 28 29  1  0  0  0  0
 29 35  1  0  0  0  0
 30 36  1  0  0  0  0
 30 29  1  0  0  0  0
 34 29  1  0  0  0  0
 36 37  2  0  0  0  0
 36 43  1  0  0  0  0
 37 39  1  0  0  0  0
 38 37  1  0  0  0  0
 39 40  1  0  0  0  0
 39 41  2  0  0  0  0
 42 41  1  0  0  0  0
 43 42  2  0  0  0  0
M  END
>  <minimizedAffinity>
-5.31263256

$$$$
