
 OpenBabel03252509103D

 40 43  0  0  0  0  0  0  0  0999 V2000
   36.1420   27.7190   39.0450 C   0  0  0  0  0  0  0  0  0  0  0  0
   35.7950   28.4560   40.1390 C   0  0  0  0  0  0  0  0  0  0  0  0
   34.6200   29.1890   40.1360 C   0  0  0  0  0  0  0  0  0  0  0  0
   33.8000   29.1750   39.0340 C   0  0  0  0  0  0  0  0  0  0  0  0
   34.1160   28.4350   37.8940 C   0  0  0  0  0  0  0  0  0  0  0  0
   35.3110   27.7050   37.9250 C   0  0  0  0  0  0  0  0  0  0  0  0
   34.3060   29.7850   40.9810 H   0  0  0  0  0  0  0  0  0  0  0  0
   32.8670   29.7010   38.9160 H   0  0  0  0  0  0  0  0  0  0  0  0
   33.5440   28.3630   36.9930 H   0  0  0  0  0  0  0  0  0  0  0  0
   35.5940   27.1140   37.0530 H   0  0  0  0  0  0  0  0  0  0  0  0
   39.5290   30.7430   42.8720 Cl  0  0  0  0  0  0  0  0  0  0  0  0
   38.2720   29.5540   42.6250 C   0  0  0  0  0  0  0  0  0  0  0  0
   37.5520   29.5250   41.4740 C   0  0  0  0  0  0  0  0  0  0  0  0
   36.5880   28.5350   41.3660 C   0  0  0  0  0  0  0  0  0  0  0  0
   36.3620   27.6270   42.3700 C   0  0  0  0  0  0  0  0  0  0  0  0
   37.0920   27.6720   43.5120 C   0  0  0  0  0  0  0  0  0  0  0  0
   38.0510   28.6470   43.6320 C   0  0  0  0  0  0  0  0  0  0  0  0
   35.5890   26.8700   42.2300 H   0  0  0  0  0  0  0  0  0  0  0  0
   36.8790   26.9370   44.2710 H   0  0  0  0  0  0  0  0  0  0  0  0
   38.6230   28.6620   44.5580 H   0  0  0  0  0  0  0  0  0  0  0  0
   37.3700   32.5800   39.2650 C   0  0  0  0  0  0  0  0  0  0  0  0
   37.0910   31.6470   40.2680 C   0  0  0  0  0  0  0  0  0  0  0  0
   37.8350   30.5000   40.4390 C   0  0  0  0  0  0  0  0  0  0  0  0
   38.8540   30.3600   39.5510 N   0  0  0  0  0  0  0  0  0  0  0  0
   39.1310   31.2410   38.5920 C   0  0  0  0  0  0  0  0  0  0  0  0
   38.3900   32.3430   38.4540 N   0  0  0  0  0  0  0  0  0  0  0  0
   36.7430   33.4540   39.1930 H   0  0  0  0  0  0  0  0  0  0  0  0
   36.2660   31.8010   40.9540 H   0  0  0  0  0  0  0  0  0  0  0  0
   39.9840   30.9550   37.9810 H   0  0  0  0  0  0  0  0  0  0  0  0
   37.5380   26.7800   39.0340 S   0  0  0  0  0  0  0  0  0  0  0  0
   37.4770   25.6930   37.9810 O   0  0  0  0  0  0  0  0  0  0  0  0
   38.6390   27.7470   38.4650 O   0  0  0  0  0  0  0  0  0  0  0  0
   38.2590   26.0330   40.3990 C   0  0  0  0  0  0  0  0  0  0  0  0
   37.5610   24.9300   40.9640 C   0  0  0  0  0  0  0  0  0  0  0  0
   36.6010   24.6200   40.4980 H   0  0  0  0  0  0  0  0  0  0  0  0
   37.8690   24.1150   42.0610 C   0  0  0  0  0  0  0  0  0  0  0  0
   37.2370   23.3120   42.3710 H   0  0  0  0  0  0  0  0  0  0  0  0
   39.0500   24.4840   42.6530 C   0  0  0  0  0  3  0  0  0  0  0  0
   39.7660   25.5320   42.1580 C   0  0  0  0  0  3  0  0  0  0  0  0
   39.3750   26.2350   41.1100 N   0  0  0  0  0  0  0  0  0  0  0  0
  1  2  1  0  0  0  0
  2 14  1  0  0  0  0
  3  2  2  0  0  0  0
  3  7  1  0  0  0  0
  4  3  1  0  0  0  0
  5  6  1  0  0  0  0
  5  4  2  0  0  0  0
  6  1  2  0  0  0  0
  8  4  1  0  0  0  0
  9  5  1  0  0  0  0
 10  6  1  0  0  0  0
 12 11  1  0  0  0  0
 12 17  1  0  0  0  0
 13 12  2  0  0  0  0
 14 13  1  0  0  0  0
 14 15  2  0  0  0  0
 15 16  1  0  0  0  0
 16 17  2  0  0  0  0
 16 19  1  0  0  0  0
 17 20  1  0  0  0  0
 18 15  1  0  0  0  0
 21 22  1  0  0  0  0
 22 23  2  0  0  0  0
 22 28  1  0  0  0  0
 23 13  1  0  0  0  0
 24 23  1  0  0  0  0
 25 24  2  0  0  0  0
 26 25  1  0  0  0  0
 26 21  2  0  0  0  0
 27 21  1  0  0  0  0
 29 25  1  0  0  0  0
 30  1  1  0  0  0  0
 30 33  1  0  0  0  0
 31 30  2  0  0  0  0
 32 30  2  0  0  0  0
 33 34  2  0  0  0  0
 33 40  1  0  0  0  0
 34 36  1  0  0  0  0
 35 34  1  0  0  0  0
 36 37  1  0  0  0  0
 36 38  2  0  0  0  0
 39 38  1  0  0  0  0
 40 39  2  0  0  0  0
M  END
>  <minimizedAffinity>
-6.76541281

$$$$

 OpenBabel03252509103D

 40 43  0  0  0  0  0  0  0  0999 V2000
   36.2000   27.0410   39.2470 C   0  0  0  0  0  0  0  0  0  0  0  0
   35.9620   28.1070   40.0650 C   0  0  0  0  0  0  0  0  0  0  0  0
   35.0070   29.0480   39.7170 C   0  0  0  0  0  0  0  0  0  0  0  0
   34.2960   28.9110   38.5490 C   0  0  0  0  0  0  0  0  0  0  0  0
   34.5070   27.8380   37.6840 C   0  0  0  0  0  0  0  0  0  0  0  0
   35.4790   26.9020   38.0600 C   0  0  0  0  0  0  0  0  0  0  0  0
   34.7870   29.9060   40.3360 H   0  0  0  0  0  0  0  0  0  0  0  0
   33.5340   29.5740   38.1760 H   0  0  0  0  0  0  0  0  0  0  0  0
   34.0060   27.6480   36.7580 H   0  0  0  0  0  0  0  0  0  0  0  0
   35.6740   26.0480   37.4100 H   0  0  0  0  0  0  0  0  0  0  0  0
   39.5350   30.6790   42.7590 Cl  0  0  0  0  0  0  0  0  0  0  0  0
   38.2630   29.4960   42.5750 C   0  0  0  0  0  0  0  0  0  0  0  0
   37.6400   29.3170   41.3820 C   0  0  0  0  0  0  0  0  0  0  0  0
   36.6540   28.3440   41.3320 C   0  0  0  0  0  0  0  0  0  0  0  0
   36.3140   27.5950   42.4310 C   0  0  0  0  0  0  0  0  0  0  0  0
   36.9490   27.7880   43.6140 C   0  0  0  0  0  0  0  0  0  0  0  0
   37.9280   28.7480   43.6770 C   0  0  0  0  0  0  0  0  0  0  0  0
   35.5290   26.8440   42.3340 H   0  0  0  0  0  0  0  0  0  0  0  0
   36.6490   27.1750   44.4480 H   0  0  0  0  0  0  0  0  0  0  0  0
   38.4220   28.8830   44.6380 H   0  0  0  0  0  0  0  0  0  0  0  0
   37.9290   32.1580   38.9140 C   0  0  0  0  0  0  0  0  0  0  0  0
   37.5380   31.3870   40.0120 C   0  0  0  0  0  0  0  0  0  0  0  0
   38.0400   30.1250   40.2470 C   0  0  0  0  0  0  0  0  0  0  0  0
   38.9400   29.7040   39.3210 N   0  0  0  0  0  0  0  0  0  0  0  0
   39.3220   30.4280   38.2700 C   0  0  0  0  0  0  0  0  0  0  0  0
   38.8160   31.6480   38.0730 N   0  0  0  0  0  0  0  0  0  0  0  0
   37.4920   33.1370   38.7960 H   0  0  0  0  0  0  0  0  0  0  0  0
   36.8150   31.7660   40.7260 H   0  0  0  0  0  0  0  0  0  0  0  0
   40.0510   29.9210   37.6430 H   0  0  0  0  0  0  0  0  0  0  0  0
   37.3180   25.8540   39.6630 S   0  0  0  0  0  0  0  0  0  0  0  0
   36.6660   24.6980   40.3920 O   0  0  0  0  0  0  0  0  0  0  0  0
   37.7150   25.2110   38.2860 O   0  0  0  0  0  0  0  0  0  0  0  0
   38.8020   26.1140   40.4830 C   0  0  0  0  0  0  0  0  0  0  0  0
   38.9710   25.4390   41.7240 C   0  0  0  0  0  0  0  0  0  0  0  0
   38.1430   24.7940   42.0890 H   0  0  0  0  0  0  0  0  0  0  0  0
   40.0420   25.4360   42.6270 C   0  0  0  0  0  0  0  0  0  0  0  0
   40.0230   24.8710   43.5330 H   0  0  0  0  0  0  0  0  0  0  0  0
   41.0730   26.2310   42.1950 C   0  0  0  0  0  3  0  0  0  0  0  0
   40.9730   26.9020   41.0140 C   0  0  0  0  0  3  0  0  0  0  0  0
   39.9050   26.8300   40.2380 N   0  0  0  0  0  0  0  0  0  0  0  0
  1 30  1  0  0  0  0
  1  2  1  0  0  0  0
  2 14  1  0  0  0  0
  3  2  2  0  0  0  0
  3  7  1  0  0  0  0
  4  3  1  0  0  0  0
  5  6  1  0  0  0  0
  5  4  2  0  0  0  0
  6  1  2  0  0  0  0
  8  4  1  0  0  0  0
  9  5  1  0  0  0  0
 10  6  1  0  0  0  0
 12 11  1  0  0  0  0
 12 17  1  0  0  0  0
 13 12  2  0  0  0  0
 14 13  1  0  0  0  0
 14 15  2  0  0  0  0
 15 16  1  0  0  0  0
 16 17  2  0  0  0  0
 16 19  1  0  0  0  0
 17 20  1  0  0  0  0
 18 15  1  0  0  0  0
 21 22  1  0  0  0  0
 22 23  2  0  0  0  0
 22 28  1  0  0  0  0
 23 13  1  0  0  0  0
 24 23  1  0  0  0  0
 25 24  2  0  0  0  0
 26 25  1  0  0  0  0
 26 21  2  0  0  0  0
 27 21  1  0  0  0  0
 29 25  1  0  0  0  0
 30 31  2  0  0  0  0
 30 33  1  0  0  0  0
 32 30  2  0  0  0  0
 33 34  1  0  0  0  0
 34 35  1  0  0  0  0
 34 36  2  0  0  0  0
 36 37  1  0  0  0  0
 38 36  1  0  0  0  0
 39 38  2  0  0  0  0
 40 33  2  0  0  0  0
 40 39  1  0  0  0  0
M  END
>  <minimizedAffinity>
-6.27559566

$$$$

 OpenBabel03252509103D

 40 43  0  0  0  0  0  0  0  0999 V2000
   37.2580   29.5110   38.7160 C   0  0  0  0  0  0  0  0  0  0  0  0
   36.6450   28.8380   39.7320 C   0  0  0  0  0  0  0  0  0  0  0  0
   35.3470   28.3820   39.5770 C   0  0  0  0  0  0  0  0  0  0  0  0
   34.6730   28.6030   38.4000 C   0  0  0  0  0  0  0  0  0  0  0  0
   35.2610   29.2860   37.3350 C   0  0  0  0  0  0  0  0  0  0  0  0
   36.5750   29.7360   37.5200 C   0  0  0  0  0  0  0  0  0  0  0  0
   34.8240   27.8450   40.3560 H   0  0  0  0  0  0  0  0  0  0  0  0
   33.6670   28.2980   38.1650 H   0  0  0  0  0  0  0  0  0  0  0  0
   34.8190   29.5050   36.3870 H   0  0  0  0  0  0  0  0  0  0  0  0
   37.0700   30.2750   36.7110 H   0  0  0  0  0  0  0  0  0  0  0  0
   38.8890   25.4350   42.8980 Cl  0  0  0  0  0  0  0  0  0  0  0  0
   38.2930   27.0210   42.4710 C   0  0  0  0  0  0  0  0  0  0  0  0
   37.7290   27.2540   41.2590 C   0  0  0  0  0  0  0  0  0  0  0  0
   37.2720   28.5410   41.0200 C   0  0  0  0  0  0  0  0  0  0  0  0
   37.3840   29.5390   41.9560 C   0  0  0  0  0  0  0  0  0  0  0  0
   37.9510   29.2860   43.1620 C   0  0  0  0  0  0  0  0  0  0  0  0
   38.4060   28.0150   43.4120 C   0  0  0  0  0  0  0  0  0  0  0  0
   37.0080   30.5330   41.7120 H   0  0  0  0  0  0  0  0  0  0  0  0
   38.0160   30.1010   43.8650 H   0  0  0  0  0  0  0  0  0  0  0  0
   38.8570   27.8380   44.3880 H   0  0  0  0  0  0  0  0  0  0  0  0
   38.4460   24.8920   38.4040 C   0  0  0  0  0  0  0  0  0  0  0  0
   38.5570   25.9430   39.3180 C   0  0  0  0  0  0  0  0  0  0  0  0
   37.6230   26.1660   40.3070 C   0  0  0  0  0  0  0  0  0  0  0  0
   36.5940   25.2790   40.3100 N   0  0  0  0  0  0  0  0  0  0  0  0
   36.4750   24.2730   39.4450 C   0  0  0  0  0  0  0  0  0  0  0  0
   37.3990   24.0850   38.5000 N   0  0  0  0  0  0  0  0  0  0  0  0
   39.2160   24.7810   37.6580 H   0  0  0  0  0  0  0  0  0  0  0  0
   39.3980   26.6270   39.2780 H   0  0  0  0  0  0  0  0  0  0  0  0
   35.5850   23.6720   39.6070 H   0  0  0  0  0  0  0  0  0  0  0  0
   38.8510   30.0360   38.8530 S   0  0  0  0  0  0  0  0  0  0  0  0
   39.7260   29.0050   39.5350 O   0  0  0  0  0  0  0  0  0  0  0  0
   39.3840   30.0150   37.3750 O   0  0  0  0  0  0  0  0  0  0  0  0
   39.3610   31.5420   39.4940 C   0  0  0  0  0  0  0  0  0  0  0  0
   38.3400   32.4900   39.7840 C   0  0  0  0  0  0  0  0  0  0  0  0
   37.2850   32.2060   39.5790 H   0  0  0  0  0  0  0  0  0  0  0  0
   38.4160   33.7880   40.3040 C   0  0  0  0  0  0  0  0  0  0  0  0
   37.5480   34.3890   40.4680 H   0  0  0  0  0  0  0  0  0  0  0  0
   39.7120   34.1580   40.5610 C   0  0  0  0  0  3  0  0  0  0  0  0
   40.7340   33.2950   40.3060 C   0  0  0  0  0  3  0  0  0  0  0  0
   40.5430   32.0850   39.8100 N   0  0  0  0  0  0  0  0  0  0  0  0
  1 30  1  0  0  0  0
  1  2  1  0  0  0  0
  2 14  1  0  0  0  0
  3  2  2  0  0  0  0
  3  7  1  0  0  0  0
  4  3  1  0  0  0  0
  5  6  1  0  0  0  0
  5  4  2  0  0  0  0
  6  1  2  0  0  0  0
  8  4  1  0  0  0  0
  9  5  1  0  0  0  0
 10  6  1  0  0  0  0
 12 11  1  0  0  0  0
 12 17  1  0  0  0  0
 13 12  2  0  0  0  0
 14 13  1  0  0  0  0
 14 15  2  0  0  0  0
 15 16  1  0  0  0  0
 16 17  2  0  0  0  0
 16 19  1  0  0  0  0
 17 20  1  0  0  0  0
 18 15  1  0  0  0  0
 21 26  2  0  0  0  0
 21 22  1  0  0  0  0
 22 23  2  0  0  0  0
 23 24  1  0  0  0  0
 23 13  1  0  0  0  0
 25 29  1  0  0  0  0
 25 24  2  0  0  0  0
 26 25  1  0  0  0  0
 27 21  1  0  0  0  0
 28 22  1  0  0  0  0
 30 33  1  0  0  0  0
 30 31  2  0  0  0  0
 32 30  2  0  0  0  0
 33 34  2  0  0  0  0
 33 40  1  0  0  0  0
 34 36  1  0  0  0  0
 35 34  1  0  0  0  0
 36 37  1  0  0  0  0
 36 38  2  0  0  0  0
 39 38  1  0  0  0  0
 40 39  2  0  0  0  0
M  END
>  <minimizedAffinity>
-5.81133366

$$$$

 OpenBabel03252509103D

 40 43  0  0  0  0  0  0  0  0999 V2000
   37.4480   25.3770   39.8790 C   0  0  0  0  0  0  0  0  0  0  0  0
   37.0010   26.6350   40.1560 C   0  0  0  0  0  0  0  0  0  0  0  0
   36.1810   27.2940   39.2560 C   0  0  0  0  0  0  0  0  0  0  0  0
   35.8140   26.6820   38.0810 C   0  0  0  0  0  0  0  0  0  0  0  0
   36.2480   25.3970   37.7570 C   0  0  0  0  0  0  0  0  0  0  0  0
   37.0760   24.7550   38.6860 C   0  0  0  0  0  0  0  0  0  0  0  0
   35.8050   28.2910   39.4360 H   0  0  0  0  0  0  0  0  0  0  0  0
   35.1850   27.0930   37.3090 H   0  0  0  0  0  0  0  0  0  0  0  0
   36.0170   24.8430   36.8720 H   0  0  0  0  0  0  0  0  0  0  0  0
   37.4370   23.7490   38.4690 H   0  0  0  0  0  0  0  0  0  0  0  0
   39.8450   30.2050   42.5680 Cl  0  0  0  0  0  0  0  0  0  0  0  0
   38.5950   28.9860   42.4920 C   0  0  0  0  0  0  0  0  0  0  0  0
   38.3220   28.3330   41.3340 C   0  0  0  0  0  0  0  0  0  0  0  0
   37.3230   27.3730   41.3780 C   0  0  0  0  0  0  0  0  0  0  0  0
   36.6350   27.0920   42.5320 C   0  0  0  0  0  0  0  0  0  0  0  0
   36.9220   27.7550   43.6800 C   0  0  0  0  0  0  0  0  0  0  0  0
   37.9100   28.7080   43.6500 C   0  0  0  0  0  0  0  0  0  0  0  0
   35.8570   26.3270   42.5070 H   0  0  0  0  0  0  0  0  0  0  0  0
   36.3560   27.4990   44.5600 H   0  0  0  0  0  0  0  0  0  0  0  0
   38.1220   29.2250   44.5840 H   0  0  0  0  0  0  0  0  0  0  0  0
   39.4610   29.9710   38.1300 C   0  0  0  0  0  0  0  0  0  0  0  0
   38.7220   29.6670   39.2760 C   0  0  0  0  0  0  0  0  0  0  0  0
   39.0830   28.6580   40.1430 C   0  0  0  0  0  0  0  0  0  0  0  0
   40.2110   27.9930   39.7830 N   0  0  0  0  0  0  0  0  0  0  0  0
   40.9250   28.2720   38.6950 C   0  0  0  0  0  0  0  0  0  0  0  0
   40.5480   29.2570   37.8760 N   0  0  0  0  0  0  0  0  0  0  0  0
   39.1170   30.7750   37.4990 H   0  0  0  0  0  0  0  0  0  0  0  0
   37.8260   30.2260   39.5230 H   0  0  0  0  0  0  0  0  0  0  0  0
   41.7950   27.6320   38.5760 H   0  0  0  0  0  0  0  0  0  0  0  0
   38.4050   24.5300   40.9730 S   0  0  0  0  0  0  0  0  0  0  0  0
   37.6230   24.1150   42.2020 O   0  0  0  0  0  0  0  0  0  0  0  0
   38.6720   23.1570   40.2570 O   0  0  0  0  0  0  0  0  0  0  0  0
   39.9340   25.0300   41.5690 C   0  0  0  0  0  0  0  0  0  0  0  0
   39.9680   25.5170   42.9050 C   0  0  0  0  0  0  0  0  0  0  0  0
   39.0160   25.5490   43.4780 H   0  0  0  0  0  0  0  0  0  0  0  0
   41.0330   25.9950   43.6790 C   0  0  0  0  0  0  0  0  0  0  0  0
   40.9020   26.3340   44.6840 H   0  0  0  0  0  0  0  0  0  0  0  0
   42.2170   25.9670   42.9870 C   0  0  0  0  0  3  0  0  0  0  0  0
   42.2500   25.5100   41.7040 C   0  0  0  0  0  3  0  0  0  0  0  0
   41.1740   25.0810   41.0700 N   0  0  0  0  0  0  0  0  0  0  0  0
  1  2  1  0  0  0  0
  1 30  1  0  0  0  0
  2 14  1  0  0  0  0
  3  7  1  0  0  0  0
  3  2  2  0  0  0  0
  4  3  1  0  0  0  0
  5  4  2  0  0  0  0
  5  6  1  0  0  0  0
  6  1  2  0  0  0  0
  8  4  1  0  0  0  0
  9  5  1  0  0  0  0
 10  6  1  0  0  0  0
 12 11  1  0  0  0  0
 12 17  1  0  0  0  0
 13 14  1  0  0  0  0
 13 12  2  0  0  0  0
 14 15  2  0  0  0  0
 15 16  1  0  0  0  0
 16 19  1  0  0  0  0
 17 16  2  0  0  0  0
 17 20  1  0  0  0  0
 18 15  1  0  0  0  0
 21 22  1  0  0  0  0
 22 28  1  0  0  0  0
 22 23  2  0  0  0  0
 23 13  1  0  0  0  0
 24 23  1  0  0  0  0
 25 24  2  0  0  0  0
 26 21  2  0  0  0  0
 26 25  1  0  0  0  0
 27 21  1  0  0  0  0
 29 25  1  0  0  0  0
 30 33  1  0  0  0  0
 30 31  2  0  0  0  0
 32 30  2  0  0  0  0
 33 34  1  0  0  0  0
 34 35  1  0  0  0  0
 34 36  2  0  0  0  0
 36 37  1  0  0  0  0
 38 36  1  0  0  0  0
 39 38  2  0  0  0  0
 40 33  2  0  0  0  0
 40 39  1  0  0  0  0
M  END
>  <minimizedAffinity>
-5.75943947

$$$$

 OpenBabel03252509103D

 40 43  0  0  0  0  0  0  0  0999 V2000
   37.3390   25.8010   39.8570 C   0  0  0  0  0  0  0  0  0  0  0  0
   37.1320   26.5460   40.9800 C   0  0  0  0  0  0  0  0  0  0  0  0
   37.0220   25.9250   42.2130 C   0  0  0  0  0  0  0  0  0  0  0  0
   37.1240   24.5580   42.3090 C   0  0  0  0  0  0  0  0  0  0  0  0
   37.3350   23.7570   41.1870 C   0  0  0  0  0  0  0  0  0  0  0  0
   37.4410   24.4120   39.9530 C   0  0  0  0  0  0  0  0  0  0  0  0
   36.8590   26.4770   43.1280 H   0  0  0  0  0  0  0  0  0  0  0  0
   37.0550   23.9670   43.2070 H   0  0  0  0  0  0  0  0  0  0  0  0
   37.4270   22.6920   41.1620 H   0  0  0  0  0  0  0  0  0  0  0  0
   37.6060   23.8220   39.0510 H   0  0  0  0  0  0  0  0  0  0  0  0
   39.2670   31.1590   41.8780 Cl  0  0  0  0  0  0  0  0  0  0  0  0
   37.9620   30.1050   41.3890 C   0  0  0  0  0  0  0  0  0  0  0  0
   38.1160   28.7560   41.3810 C   0  0  0  0  0  0  0  0  0  0  0  0
   37.0180   28.0040   40.9930 C   0  0  0  0  0  0  0  0  0  0  0  0
   35.8300   28.5870   40.6280 C   0  0  0  0  0  0  0  0  0  0  0  0
   35.6960   29.9360   40.6410 C   0  0  0  0  0  0  0  0  0  0  0  0
   36.7750   30.6930   41.0260 C   0  0  0  0  0  0  0  0  0  0  0  0
   34.9990   27.9450   40.3290 H   0  0  0  0  0  0  0  0  0  0  0  0
   34.7430   30.3470   40.3480 H   0  0  0  0  0  0  0  0  0  0  0  0
   36.6410   31.7730   41.0290 H   0  0  0  0  0  0  0  0  0  0  0  0
   40.9280   27.3620   43.4780 C   0  0  0  0  0  0  0  0  0  0  0  0
   39.6990   27.9090   43.0980 C   0  0  0  0  0  0  0  0  0  0  0  0
   39.3870   28.1870   41.7850 C   0  0  0  0  0  0  0  0  0  0  0  0
   40.3740   27.8840   40.9030 N   0  0  0  0  0  0  0  0  0  0  0  0
   41.5490   27.3630   41.2500 C   0  0  0  0  0  0  0  0  0  0  0  0
   41.8190   27.1050   42.5320 N   0  0  0  0  0  0  0  0  0  0  0  0
   41.1000   27.1720   44.5250 H   0  0  0  0  0  0  0  0  0  0  0  0
   38.9400   28.1350   43.8390 H   0  0  0  0  0  0  0  0  0  0  0  0
   42.2080   27.1900   40.4030 H   0  0  0  0  0  0  0  0  0  0  0  0
   37.5250   26.5270   38.3500 S   0  0  0  0  0  0  0  0  0  0  0  0
   38.7980   27.3430   38.2720 O   0  0  0  0  0  0  0  0  0  0  0  0
   37.8290   25.3240   37.3870 O   0  0  0  0  0  0  0  0  0  0  0  0
   36.3450   27.4680   37.5350 C   0  0  0  0  0  0  0  0  0  0  0  0
   35.0030   27.0030   37.6010 C   0  0  0  0  0  0  0  0  0  0  0  0
   34.7970   26.0680   38.1660 H   0  0  0  0  0  0  0  0  0  0  0  0
   33.8230   27.5270   37.0550 C   0  0  0  0  0  0  0  0  0  0  0  0
   32.8740   27.0570   37.1920 H   0  0  0  0  0  0  0  0  0  0  0  0
   34.0580   28.6800   36.3510 C   0  0  0  0  0  3  0  0  0  0  0  0
   35.3220   29.1780   36.2530 C   0  0  0  0  0  3  0  0  0  0  0  0
   36.3670   28.5940   36.8120 N   0  0  0  0  0  0  0  0  0  0  0  0
  1  6  2  0  0  0  0
  1  2  1  0  0  0  0
  2 14  1  0  0  0  0
  2  3  2  0  0  0  0
  3  4  1  0  0  0  0
  3  7  1  0  0  0  0
  4  8  1  0  0  0  0
  5  4  2  0  0  0  0
  6  5  1  0  0  0  0
  9  5  1  0  0  0  0
 10  6  1  0  0  0  0
 12 11  1  0  0  0  0
 13 12  1  0  0  0  0
 13 23  1  0  0  0  0
 14 13  2  0  0  0  0
 15 16  2  0  0  0  0
 15 14  1  0  0  0  0
 16 17  1  0  0  0  0
 17 20  1  0  0  0  0
 17 12  2  0  0  0  0
 18 15  1  0  0  0  0
 19 16  1  0  0  0  0
 21 27  1  0  0  0  0
 22 21  1  0  0  0  0
 22 28  1  0  0  0  0
 23 22  2  0  0  0  0
 24 25  2  0  0  0  0
 24 23  1  0  0  0  0
 25 26  1  0  0  0  0
 26 21  2  0  0  0  0
 29 25  1  0  0  0  0
 30  1  1  0  0  0  0
 31 30  2  0  0  0  0
 32 30  2  0  0  0  0
 33 34  1  0  0  0  0
 33 30  1  0  0  0  0
 34 35  1  0  0  0  0
 36 37  1  0  0  0  0
 36 34  2  0  0  0  0
 38 36  1  0  0  0  0
 39 38  2  0  0  0  0
 39 40  1  0  0  0  0
 40 33  2  0  0  0  0
M  END
>  <minimizedAffinity>
-5.75647831

$$$$

 OpenBabel03252509103D

 40 43  0  0  0  0  0  0  0  0999 V2000
   36.5040   29.2790   39.2550 C   0  0  0  0  0  0  0  0  0  0  0  0
   36.6350   28.0480   39.8270 C   0  0  0  0  0  0  0  0  0  0  0  0
   36.1660   26.9240   39.1670 C   0  0  0  0  0  0  0  0  0  0  0  0
   35.5690   27.0450   37.9350 C   0  0  0  0  0  0  0  0  0  0  0  0
   35.4140   28.2850   37.3140 C   0  0  0  0  0  0  0  0  0  0  0  0
   35.8970   29.4040   38.0050 C   0  0  0  0  0  0  0  0  0  0  0  0
   36.2500   25.9300   39.5840 H   0  0  0  0  0  0  0  0  0  0  0  0
   35.1690   26.2490   37.3310 H   0  0  0  0  0  0  0  0  0  0  0  0
   34.9660   28.4770   36.3630 H   0  0  0  0  0  0  0  0  0  0  0  0
   35.7950   30.3910   37.5530 H   0  0  0  0  0  0  0  0  0  0  0  0
   40.6950   26.4160   42.5660 Cl  0  0  0  0  0  0  0  0  0  0  0  0
   39.0850   27.0750   42.3900 C   0  0  0  0  0  0  0  0  0  0  0  0
   38.5490   27.2950   41.1630 C   0  0  0  0  0  0  0  0  0  0  0  0
   37.2600   27.8050   41.1270 C   0  0  0  0  0  0  0  0  0  0  0  0
   36.5550   28.0800   42.2720 C   0  0  0  0  0  0  0  0  0  0  0  0
   37.1090   27.8530   43.4890 C   0  0  0  0  0  0  0  0  0  0  0  0
   38.3830   27.3470   43.5390 C   0  0  0  0  0  0  0  0  0  0  0  0
   35.5440   28.4820   42.1830 H   0  0  0  0  0  0  0  0  0  0  0  0
   36.5150   28.0840   44.3590 H   0  0  0  0  0  0  0  0  0  0  0  0
   38.8050   27.1740   44.5280 H   0  0  0  0  0  0  0  0  0  0  0  0
   40.8580   27.5930   38.1920 C   0  0  0  0  0  0  0  0  0  0  0  0
   40.1110   27.9070   39.3300 C   0  0  0  0  0  0  0  0  0  0  0  0
   39.3290   26.9780   39.9830 C   0  0  0  0  0  0  0  0  0  0  0  0
   39.3520   25.7410   39.4220 N   0  0  0  0  0  0  0  0  0  0  0  0
   40.0590   25.4270   38.3390 C   0  0  0  0  0  0  0  0  0  0  0  0
   40.8070   26.3520   37.7310 N   0  0  0  0  0  0  0  0  0  0  0  0
   41.4460   28.3730   37.7360 H   0  0  0  0  0  0  0  0  0  0  0  0
   40.1230   28.9100   39.7430 H   0  0  0  0  0  0  0  0  0  0  0  0
   39.9500   24.3880   38.0410 H   0  0  0  0  0  0  0  0  0  0  0  0
   37.1060   30.6590   40.0080 S   0  0  0  0  0  0  0  0  0  0  0  0
   36.8020   31.9110   39.2130 O   0  0  0  0  0  0  0  0  0  0  0  0
   36.1910   30.8270   41.2740 O   0  0  0  0  0  0  0  0  0  0  0  0
   38.7080   30.8740   40.5790 C   0  0  0  0  0  0  0  0  0  0  0  0
   38.9030   30.7690   41.9840 C   0  0  0  0  0  0  0  0  0  0  0  0
   38.0180   30.5600   42.6240 H   0  0  0  0  0  0  0  0  0  0  0  0
   40.0630   30.8900   42.7600 C   0  0  0  0  0  0  0  0  0  0  0  0
   40.0520   30.7850   43.8230 H   0  0  0  0  0  0  0  0  0  0  0  0
   41.1660   31.1520   41.9880 C   0  0  0  0  0  3  0  0  0  0  0  0
   41.0450   31.2630   40.6360 C   0  0  0  0  0  3  0  0  0  0  0  0
   39.8910   31.1300   40.0070 N   0  0  0  0  0  0  0  0  0  0  0  0
  1  2  1  0  0  0  0
  1 30  1  0  0  0  0
  2 14  1  0  0  0  0
  3  7  1  0  0  0  0
  3  2  2  0  0  0  0
  4  3  1  0  0  0  0
  5  4  2  0  0  0  0
  5  6  1  0  0  0  0
  6  1  2  0  0  0  0
  8  4  1  0  0  0  0
  9  5  1  0  0  0  0
 10  6  1  0  0  0  0
 12 11  1  0  0  0  0
 12 17  1  0  0  0  0
 13 12  2  0  0  0  0
 14 13  1  0  0  0  0
 14 15  2  0  0  0  0
 15 16  1  0  0  0  0
 16 17  2  0  0  0  0
 16 19  1  0  0  0  0
 17 20  1  0  0  0  0
 18 15  1  0  0  0  0
 21 22  1  0  0  0  0
 22 28  1  0  0  0  0
 22 23  2  0  0  0  0
 23 13  1  0  0  0  0
 24 23  1  0  0  0  0
 25 24  2  0  0  0  0
 26 21  2  0  0  0  0
 26 25  1  0  0  0  0
 27 21  1  0  0  0  0
 29 25  1  0  0  0  0
 30 33  1  0  0  0  0
 30 32  2  0  0  0  0
 31 30  2  0  0  0  0
 33 34  1  0  0  0  0
 34 35  1  0  0  0  0
 34 36  2  0  0  0  0
 36 37  1  0  0  0  0
 38 36  1  0  0  0  0
 39 38  2  0  0  0  0
 40 33  2  0  0  0  0
 40 39  1  0  0  0  0
M  END
>  <minimizedAffinity>
-5.70039558

$$$$

 OpenBabel03252509103D

 40 43  0  0  0  0  0  0  0  0999 V2000
   41.2810   27.6040   42.3740 C   0  0  0  0  0  0  0  0  0  0  0  0
   40.3270   28.5720   42.4870 C   0  0  0  0  0  0  0  0  0  0  0  0
   40.6990   29.9020   42.5920 C   0  0  0  0  0  0  0  0  0  0  0  0
   42.0280   30.2500   42.5830 C   0  0  0  0  0  0  0  0  0  0  0  0
   43.0360   29.2930   42.4700 C   0  0  0  0  0  0  0  0  0  0  0  0
   42.6310   27.9560   42.3650 C   0  0  0  0  0  0  0  0  0  0  0  0
   39.9760   30.7000   42.6830 H   0  0  0  0  0  0  0  0  0  0  0  0
   42.4360   31.2440   42.6580 H   0  0  0  0  0  0  0  0  0  0  0  0
   44.0910   29.4660   42.4530 H   0  0  0  0  0  0  0  0  0  0  0  0
   43.3890   27.1770   42.2750 H   0  0  0  0  0  0  0  0  0  0  0  0
   35.7790   28.6620   40.0460 Cl  0  0  0  0  0  0  0  0  0  0  0  0
   36.8170   28.3410   41.4160 C   0  0  0  0  0  0  0  0  0  0  0  0
   38.1510   28.5860   41.3560 C   0  0  0  0  0  0  0  0  0  0  0  0
   38.8870   28.3140   42.4990 C   0  0  0  0  0  0  0  0  0  0  0  0
   38.3050   27.8170   43.6380 C   0  0  0  0  0  0  0  0  0  0  0  0
   36.9710   27.5790   43.6780 C   0  0  0  0  0  0  0  0  0  0  0  0
   36.2290   27.8460   42.5540 C   0  0  0  0  0  0  0  0  0  0  0  0
   38.9350   27.6200   44.5070 H   0  0  0  0  0  0  0  0  0  0  0  0
   36.5590   27.1900   44.5950 H   0  0  0  0  0  0  0  0  0  0  0  0
   35.1600   27.6470   42.6120 H   0  0  0  0  0  0  0  0  0  0  0  0
   39.8590   28.8530   38.0020 C   0  0  0  0  0  0  0  0  0  0  0  0
   39.3140   28.3290   39.1760 C   0  0  0  0  0  0  0  0  0  0  0  0
   38.7180   29.1200   40.1340 C   0  0  0  0  0  0  0  0  0  0  0  0
   38.7100   30.4450   39.8330 N   0  0  0  0  0  0  0  0  0  0  0  0
   39.2250   30.9590   38.7180 C   0  0  0  0  0  0  0  0  0  0  0  0
   39.7960   30.1630   37.8110 N   0  0  0  0  0  0  0  0  0  0  0  0
   40.3100   28.1710   37.2990 H   0  0  0  0  0  0  0  0  0  0  0  0
   39.3430   27.2630   39.3730 H   0  0  0  0  0  0  0  0  0  0  0  0
   39.1230   32.0390   38.6570 H   0  0  0  0  0  0  0  0  0  0  0  0
   40.8620   25.9840   42.1950 S   0  0  0  0  0  0  0  0  0  0  0  0
   42.0290   25.1510   41.7050 O   0  0  0  0  0  0  0  0  0  0  0  0
   40.6750   25.4770   43.6700 O   0  0  0  0  0  0  0  0  0  0  0  0
   39.5020   25.3850   41.3390 C   0  0  0  0  0  0  0  0  0  0  0  0
   38.4880   24.7570   42.1130 C   0  0  0  0  0  0  0  0  0  0  0  0
   38.6330   24.6860   43.2130 H   0  0  0  0  0  0  0  0  0  0  0  0
   37.2730   24.1720   41.7310 C   0  0  0  0  0  0  0  0  0  0  0  0
   36.6050   23.7310   42.4380 H   0  0  0  0  0  0  0  0  0  0  0  0
   37.0770   24.2460   40.3760 C   0  0  0  0  0  3  0  0  0  0  0  0
   38.0120   24.8380   39.5800 C   0  0  0  0  0  3  0  0  0  0  0  0
   39.1290   25.3580   40.0540 N   0  0  0  0  0  0  0  0  0  0  0  0
  1  2  1  0  0  0  0
  2 14  1  0  0  0  0
  2  3  2  0  0  0  0
  3  7  1  0  0  0  0
  4  3  1  0  0  0  0
  4  8  1  0  0  0  0
  5  4  2  0  0  0  0
  6  1  2  0  0  0  0
  6  5  1  0  0  0  0
  9  5  1  0  0  0  0
 10  6  1  0  0  0  0
 11 12  1  0  0  0  0
 12 17  1  0  0  0  0
 13 12  2  0  0  0  0
 13 14  1  0  0  0  0
 14 15  2  0  0  0  0
 15 16  1  0  0  0  0
 15 18  1  0  0  0  0
 16 19  1  0  0  0  0
 17 20  1  0  0  0  0
 17 16  2  0  0  0  0
 21 22  1  0  0  0  0
 22 28  1  0  0  0  0
 22 23  2  0  0  0  0
 23 13  1  0  0  0  0
 24 23  1  0  0  0  0
 25 24  2  0  0  0  0
 26 21  2  0  0  0  0
 26 25  1  0  0  0  0
 27 21  1  0  0  0  0
 29 25  1  0  0  0  0
 30  1  1  0  0  0  0
 30 32  2  0  0  0  0
 31 30  2  0  0  0  0
 33 34  1  0  0  0  0
 33 30  1  0  0  0  0
 34 35  1  0  0  0  0
 36 34  2  0  0  0  0
 36 37  1  0  0  0  0
 38 36  1  0  0  0  0
 39 40  1  0  0  0  0
 39 38  2  0  0  0  0
 40 33  2  0  0  0  0
M  END
>  <minimizedAffinity>
-5.67887783

$$$$

 OpenBabel03252509103D

 40 43  0  0  0  0  0  0  0  0999 V2000
   38.1780   27.0480   41.2940 C   0  0  0  0  0  0  0  0  0  0  0  0
   37.4450   28.1940   41.2040 C   0  0  0  0  0  0  0  0  0  0  0  0
   37.2310   28.9700   42.3300 C   0  0  0  0  0  0  0  0  0  0  0  0
   37.7570   28.5890   43.5410 C   0  0  0  0  0  0  0  0  0  0  0  0
   38.5130   27.4250   43.6790 C   0  0  0  0  0  0  0  0  0  0  0  0
   38.7130   26.6600   42.5230 C   0  0  0  0  0  0  0  0  0  0  0  0
   36.6560   29.8850   42.3040 H   0  0  0  0  0  0  0  0  0  0  0  0
   37.6580   29.1070   44.4800 H   0  0  0  0  0  0  0  0  0  0  0  0
   38.9610   27.0490   44.5740 H   0  0  0  0  0  0  0  0  0  0  0  0
   39.2980   25.7420   42.5890 H   0  0  0  0  0  0  0  0  0  0  0  0
   37.5560   31.5010   37.2420 Cl  0  0  0  0  0  0  0  0  0  0  0  0
   36.8760   30.1790   38.1610 C   0  0  0  0  0  0  0  0  0  0  0  0
   37.4710   29.7390   39.2990 C   0  0  0  0  0  0  0  0  0  0  0  0
   36.8470   28.6950   39.9660 C   0  0  0  0  0  0  0  0  0  0  0  0
   35.6870   28.1270   39.5040 C   0  0  0  0  0  0  0  0  0  0  0  0
   35.1080   28.5810   38.3640 C   0  0  0  0  0  0  0  0  0  0  0  0
   35.7140   29.6150   37.6950 C   0  0  0  0  0  0  0  0  0  0  0  0
   35.2410   27.3070   40.0690 H   0  0  0  0  0  0  0  0  0  0  0  0
   34.1970   28.1040   38.0420 H   0  0  0  0  0  0  0  0  0  0  0  0
   35.2290   29.9610   36.7840 H   0  0  0  0  0  0  0  0  0  0  0  0
   39.8760   32.0990   40.9990 C   0  0  0  0  0  0  0  0  0  0  0  0
   38.6950   31.4880   40.5680 C   0  0  0  0  0  0  0  0  0  0  0  0
   38.6900   30.3780   39.7520 C   0  0  0  0  0  0  0  0  0  0  0  0
   39.9280   29.9360   39.4090 N   0  0  0  0  0  0  0  0  0  0  0  0
   41.0610   30.5070   39.8120 C   0  0  0  0  0  0  0  0  0  0  0  0
   41.0300   31.5820   40.6030 N   0  0  0  0  0  0  0  0  0  0  0  0
   39.8000   32.9650   41.6370 H   0  0  0  0  0  0  0  0  0  0  0  0
   37.7280   31.8770   40.8690 H   0  0  0  0  0  0  0  0  0  0  0  0
   41.9510   30.0100   39.4330 H   0  0  0  0  0  0  0  0  0  0  0  0
   38.4980   26.1080   39.9350 S   0  0  0  0  0  0  0  0  0  0  0  0
   39.2970   26.8710   38.8980 O   0  0  0  0  0  0  0  0  0  0  0  0
   39.5330   25.0420   40.4480 O   0  0  0  0  0  0  0  0  0  0  0  0
   37.3430   25.2150   39.0350 C   0  0  0  0  0  0  0  0  0  0  0  0
   36.4170   24.4360   39.7830 C   0  0  0  0  0  0  0  0  0  0  0  0
   36.4960   24.4460   40.8910 H   0  0  0  0  0  0  0  0  0  0  0  0
   35.3680   23.6070   39.3630 C   0  0  0  0  0  0  0  0  0  0  0  0
   34.7500   23.0760   40.0530 H   0  0  0  0  0  0  0  0  0  0  0  0
   35.2580   23.5790   37.9960 C   0  0  0  0  0  3  0  0  0  0  0  0
   36.1140   24.3050   37.2250 C   0  0  0  0  0  3  0  0  0  0  0  0
   37.0740   25.0570   37.7330 N   0  0  0  0  0  0  0  0  0  0  0  0
  1  6  1  0  0  0  0
  2  1  2  0  0  0  0
  2  3  1  0  0  0  0
  3  4  2  0  0  0  0
  4  5  1  0  0  0  0
  4  8  1  0  0  0  0
  5  9  1  0  0  0  0
  6 10  1  0  0  0  0
  6  5  2  0  0  0  0
  7  3  1  0  0  0  0
 11 12  1  0  0  0  0
 12 13  1  0  0  0  0
 13 23  1  0  0  0  0
 13 14  2  0  0  0  0
 14  2  1  0  0  0  0
 15 14  1  0  0  0  0
 15 18  1  0  0  0  0
 16 15  2  0  0  0  0
 17 12  2  0  0  0  0
 17 16  1  0  0  0  0
 19 16  1  0  0  0  0
 20 17  1  0  0  0  0
 21 27  1  0  0  0  0
 22 28  1  0  0  0  0
 22 21  2  0  0  0  0
 23 22  1  0  0  0  0
 24 23  2  0  0  0  0
 24 25  1  0  0  0  0
 25 26  2  0  0  0  0
 26 21  1  0  0  0  0
 29 25  1  0  0  0  0
 30 32  2  0  0  0  0
 30  1  1  0  0  0  0
 31 30  2  0  0  0  0
 33 34  1  0  0  0  0
 33 30  1  0  0  0  0
 34 35  1  0  0  0  0
 36 34  2  0  0  0  0
 36 37  1  0  0  0  0
 38 36  1  0  0  0  0
 39 40  1  0  0  0  0
 39 38  2  0  0  0  0
 40 33  2  0  0  0  0
M  END
>  <minimizedAffinity>
-5.64181614

$$$$

 OpenBabel03252509103D

 40 43  0  0  0  0  0  0  0  0999 V2000
   37.2770   29.2830   39.0330 C   0  0  0  0  0  0  0  0  0  0  0  0
   37.5640   29.7750   40.2720 C   0  0  0  0  0  0  0  0  0  0  0  0
   37.7330   31.1370   40.4560 C   0  0  0  0  0  0  0  0  0  0  0  0
   37.6100   31.9980   39.3920 C   0  0  0  0  0  0  0  0  0  0  0  0
   37.3170   31.5390   38.1070 C   0  0  0  0  0  0  0  0  0  0  0  0
   37.1530   30.1560   37.9510 C   0  0  0  0  0  0  0  0  0  0  0  0
   37.9610   31.5680   41.4210 H   0  0  0  0  0  0  0  0  0  0  0  0
   37.7190   33.0690   39.4120 H   0  0  0  0  0  0  0  0  0  0  0  0
   37.2030   32.1280   37.2230 H   0  0  0  0  0  0  0  0  0  0  0  0
   36.9230   29.7580   36.9630 H   0  0  0  0  0  0  0  0  0  0  0  0
   40.6210   27.3870   43.6790 Cl  0  0  0  0  0  0  0  0  0  0  0  0
   39.0690   27.8630   43.0300 C   0  0  0  0  0  0  0  0  0  0  0  0
   38.9830   28.6390   41.9190 C   0  0  0  0  0  0  0  0  0  0  0  0
   37.7080   28.9510   41.4730 C   0  0  0  0  0  0  0  0  0  0  0  0
   36.5820   28.5050   42.1180 C   0  0  0  0  0  0  0  0  0  0  0  0
   36.6890   27.7300   43.2270 C   0  0  0  0  0  0  0  0  0  0  0  0
   37.9460   27.4130   43.6790 C   0  0  0  0  0  0  0  0  0  0  0  0
   35.6040   28.7830   41.7230 H   0  0  0  0  0  0  0  0  0  0  0  0
   35.7770   27.4030   43.6980 H   0  0  0  0  0  0  0  0  0  0  0  0
   38.0050   26.7900   44.5700 H   0  0  0  0  0  0  0  0  0  0  0  0
   42.0780   30.6080   41.0300 C   0  0  0  0  0  0  0  0  0  0  0  0
   40.9060   30.1920   41.6660 C   0  0  0  0  0  0  0  0  0  0  0  0
   40.2010   29.0770   41.2660 C   0  0  0  0  0  0  0  0  0  0  0  0
   40.7460   28.4270   40.2060 N   0  0  0  0  0  0  0  0  0  0  0  0
   41.8620   28.8110   39.5890 C   0  0  0  0  0  0  0  0  0  0  0  0
   42.5200   29.8960   40.0030 N   0  0  0  0  0  0  0  0  0  0  0  0
   42.5740   31.4910   41.3990 H   0  0  0  0  0  0  0  0  0  0  0  0
   40.5070   30.7440   42.5110 H   0  0  0  0  0  0  0  0  0  0  0  0
   42.1400   28.1630   38.7620 H   0  0  0  0  0  0  0  0  0  0  0  0
   37.0180   27.6390   38.7850 S   0  0  0  0  0  0  0  0  0  0  0  0
   35.5440   27.2920   38.8100 O   0  0  0  0  0  0  0  0  0  0  0  0
   37.3960   27.4220   37.2750 O   0  0  0  0  0  0  0  0  0  0  0  0
   37.7880   26.3610   39.6300 C   0  0  0  0  0  0  0  0  0  0  0  0
   36.9530   25.5310   40.4280 C   0  0  0  0  0  0  0  0  0  0  0  0
   35.8650   25.7550   40.4610 H   0  0  0  0  0  0  0  0  0  0  0  0
   37.2590   24.4230   41.2290 C   0  0  0  0  0  0  0  0  0  0  0  0
   36.5130   23.8930   41.7790 H   0  0  0  0  0  0  0  0  0  0  0  0
   38.6000   24.1320   41.2030 C   0  0  0  0  0  3  0  0  0  0  0  0
   39.4510   24.8890   40.4570 C   0  0  0  0  0  3  0  0  0  0  0  0
   39.0470   25.9200   39.7360 N   0  0  0  0  0  0  0  0  0  0  0  0
  1  2  1  0  0  0  0
  2  3  2  0  0  0  0
  2 14  1  0  0  0  0
  3  7  1  0  0  0  0
  4  8  1  0  0  0  0
  4  3  1  0  0  0  0
  5  4  2  0  0  0  0
  6  5  1  0  0  0  0
  6  1  2  0  0  0  0
  9  5  1  0  0  0  0
 10  6  1  0  0  0  0
 12 11  1  0  0  0  0
 12 17  1  0  0  0  0
 13 12  2  0  0  0  0
 14 13  1  0  0  0  0
 14 15  2  0  0  0  0
 15 16  1  0  0  0  0
 16 17  2  0  0  0  0
 16 19  1  0  0  0  0
 17 20  1  0  0  0  0
 18 15  1  0  0  0  0
 21 27  1  0  0  0  0
 21 22  1  0  0  0  0
 22 28  1  0  0  0  0
 23 22  2  0  0  0  0
 23 13  1  0  0  0  0
 24 23  1  0  0  0  0
 25 26  1  0  0  0  0
 25 24  2  0  0  0  0
 26 21  2  0  0  0  0
 29 25  1  0  0  0  0
 30 31  2  0  0  0  0
 30  1  1  0  0  0  0
 30 33  1  0  0  0  0
 32 30  2  0  0  0  0
 33 40  2  0  0  0  0
 33 34  1  0  0  0  0
 34 35  1  0  0  0  0
 34 36  2  0  0  0  0
 36 37  1  0  0  0  0
 38 36  1  0  0  0  0
 39 38  2  0  0  0  0
 40 39  1  0  0  0  0
M  END
>  <minimizedAffinity>
-5.61929226

$$$$
