
 OpenBabel03242513043D

 34 37  0  0  0  0  0  0  0  0999 V2000
   45.9250   33.1890   41.7210 C   0  0  0  0  0  0  0  0  0  0  0  0
   47.0690   33.8870   41.3620 C   0  0  0  0  0  0  0  0  0  0  0  0
   48.0700   33.9760   42.3260 C   0  0  0  0  0  0  0  0  0  0  0  0
   47.8560   33.3810   43.5380 N   0  0  0  0  0  0  0  0  0  0  0  0
   46.7320   32.7140   43.8460 C   0  0  0  0  0  0  0  0  0  0  0  0
   45.7570   32.6160   42.9310 N   0  0  0  0  0  0  0  0  0  0  0  0
   45.0610   33.0230   41.1030 H   0  0  0  0  0  0  0  0  0  0  0  0
   46.9800   30.7950   45.3650 C   0  0  0  0  0  0  0  0  0  0  0  0
   46.5970   32.1140   45.1570 C   0  0  0  0  0  0  0  0  0  0  0  0
   46.0760   32.9210   46.1630 C   0  0  0  0  0  0  0  0  0  0  0  0
   45.9200   32.4000   47.4490 C   0  0  0  0  0  0  0  0  0  0  0  0
   45.4620   32.8690   48.6420 N   0  0  0  0  0  0  0  0  0  0  0  0
   45.5730   31.8260   49.5530 C   0  0  0  0  0  0  0  0  0  0  0  0
   46.0960   30.7460   48.8980 N   0  0  0  0  0  0  0  0  0  0  0  0
   46.3110   31.0830   47.6210 C   0  0  0  0  0  0  0  0  0  0  0  0
   46.8260   30.2670   46.6510 C   0  0  0  0  0  0  0  0  0  0  0  0
   47.3790   30.2200   44.5410 H   0  0  0  0  0  0  0  0  0  0  0  0
   45.7790   33.9390   46.0090 H   0  0  0  0  0  0  0  0  0  0  0  0
   45.1150   33.8340   48.7510 H   0  0  0  0  0  0  0  0  0  0  0  0
   45.2550   31.9960   50.5820 H   0  0  0  0  0  0  0  0  0  0  0  0
   47.1200   29.2500   46.8150 H   0  0  0  0  0  0  0  0  0  0  0  0
   49.3260   34.7040   42.0250 C   0  0  0  0  0  0  0  0  0  0  0  0
   49.0620   35.8250   41.2430 F   0  0  0  0  0  0  0  0  0  0  0  0
   49.9220   35.1440   43.1680 F   0  0  0  0  0  0  0  0  0  0  0  0
   50.1650   33.8490   41.3330 F   0  0  0  0  0  0  0  0  0  0  0  0
   47.1980   34.4440   40.1350 O   0  0  0  0  0  0  0  0  0  0  0  0
   47.3920   33.7380   38.9930 C   0  0  0  0  0  0  0  0  0  0  0  0
   48.3600   34.4340   38.2520 C   0  0  0  0  0  0  0  0  0  0  0  0
   48.8940   35.3650   38.4840 H   0  0  0  0  0  0  0  0  0  0  0  0
   48.8250   34.0060   37.0000 C   0  0  0  0  0  0  0  0  0  0  0  0
   49.5530   34.4700   36.3740 H   0  0  0  0  0  0  0  0  0  0  0  0
   48.3000   32.8290   36.4680 C   0  0  0  0  0  0  0  0  0  0  0  0
   47.3530   32.1680   37.2160 C   0  0  0  0  0  0  0  0  0  0  0  0
   46.9460   32.6240   38.4070 N   0  0  0  0  0  0  0  0  0  0  0  0
  1  6  1  0  0  0  0
  2  1  2  0  0  0  0
  2  3  1  0  0  0  0
  3  4  2  0  0  0  0
  4  5  1  0  0  0  0
  5  9  1  0  0  0  0
  6  5  2  0  0  0  0
  7  1  1  0  0  0  0
  8 16  1  0  0  0  0
  9  8  2  0  0  0  0
  9 10  1  0  0  0  0
 10 11  2  0  0  0  0
 11 15  1  0  0  0  0
 11 12  1  0  0  0  0
 12 19  1  0  0  0  0
 12 13  1  0  0  0  0
 13 20  1  0  0  0  0
 14 13  2  0  0  0  0
 15 14  1  0  0  0  0
 16 21  1  0  0  0  0
 16 15  2  0  0  0  0
 17  8  1  0  0  0  0
 18 10  1  0  0  0  0
 22  3  1  0  0  0  0
 22 24  1  0  0  0  0
 23 22  1  0  0  0  0
 25 22  1  0  0  0  0
 26  2  1  0  0  0  0
 27 26  1  0  0  0  0
 28 29  1  0  0  0  0
 28 27  2  0  0  0  0
 30 28  1  0  0  0  0
 31 30  1  0  0  0  0
 32 30  2  0  0  0  0
 32 33  1  0  0  0  0
 33 34  2  0  0  0  0
 34 27  1  0  0  0  0
M  END
>  <minimizedAffinity>
-6.27791882

>  <minimizedRMSD>
1.34990072

$$$$
