
 OpenBabel03252504463D

 26 27  0  0  0  0  0  0  0  0999 V2000
   45.7720   32.7120   47.5050 O   0  0  0  0  0  0  0  0  0  0  0  0
   45.4170   34.7150   44.5070 C   0  0  0  0  0  0  0  0  0  0  0  0
   46.3870   34.1530   43.6910 C   0  0  0  0  0  0  0  0  0  0  0  0
   47.1360   33.0890   44.2160 C   0  0  0  0  0  0  0  0  0  0  0  0
   46.8760   32.6680   45.4830 N   0  0  0  0  0  0  0  0  0  0  0  0
   45.9200   33.2550   46.2290 C   0  0  0  0  0  0  0  0  0  0  0  0
   45.1740   34.2890   45.7500 N   0  0  0  0  0  0  0  0  0  0  0  0
   46.6030   34.4780   42.6820 H   0  0  0  0  0  0  0  0  0  0  0  0
   47.9030   32.5940   43.6610 H   0  0  0  0  0  0  0  0  0  0  0  0
   44.6130   35.8460   43.9600 C   0  0  0  0  0  0  0  0  0  0  0  0
   43.9320   36.2710   44.6930 H   0  0  0  0  0  0  0  0  0  0  0  0
   45.3320   36.6180   43.5630 H   0  0  0  0  0  0  0  0  0  0  0  0
   44.1090   35.4610   43.0470 H   0  0  0  0  0  0  0  0  0  0  0  0
   46.0150   31.0190   49.4350 O   0  0  0  0  0  0  0  0  0  0  0  0
   46.7360   31.4920   48.1630 P   0  0  1  0  0  0  0  0  0  0  0  0
   46.8620   30.1420   47.1470 O   0  0  0  0  0  0  0  0  0  0  0  0
   46.6900   29.2880   47.6290 H   0  0  0  0  0  0  0  0  0  0  0  0
   48.2770   32.0550   48.5030 O   0  0  0  0  0  0  0  0  0  0  0  0
   49.1830   31.5170   49.3920 C   0  0  0  0  0  0  0  0  0  0  0  0
   50.2440   32.3250   49.7520 C   0  0  0  0  0  0  0  0  0  0  0  0
   50.3420   33.3280   49.3440 H   0  0  0  0  0  0  0  0  0  0  0  0
   51.2280   31.9260   50.6300 C   0  0  0  0  0  0  0  0  0  0  0  0
   52.0500   32.5770   50.8980 H   0  0  0  0  0  0  0  0  0  0  0  0
   51.1280   30.6390   51.1700 C   0  0  0  0  0  0  0  0  0  0  0  0
   50.0630   29.8420   50.8030 C   0  0  0  0  0  0  0  0  0  0  0  0
   49.1150   30.2680   49.9370 N   0  0  0  0  0  0  0  0  0  0  0  0
  1 15  1  0  0  0  0
  2  7  1  0  0  0  0
  3  4  1  0  0  0  0
  3  2  2  0  0  0  0
  4  5  2  0  0  0  0
  5  6  1  0  0  0  0
  6  1  1  0  0  0  0
  7  6  2  0  0  0  0
  8  3  1  0  0  0  0
  9  4  1  0  0  0  0
 10  2  1  0  0  0  0
 10 11  1  0  0  0  0
 12 10  1  0  0  0  0
 13 10  1  0  0  0  0
 15 18  1  0  0  0  0
 15 14  2  1  0  0  0
 16 17  1  0  0  0  0
 16 15  1  0  0  0  0
 18 19  1  0  0  0  0
 19 20  2  0  0  0  0
 19 26  1  0  0  0  0
 20 22  1  0  0  0  0
 21 20  1  0  0  0  0
 22 23  1  0  0  0  0
 22 24  2  0  0  0  0
 25 24  1  0  0  0  0
 26 25  2  0  0  0  0
M  END
>  <minimizedAffinity>
-4.97340059

>  <minimizedRMSD>
1.4804858

$$$$
