REMARK  Name = 
REMARK  4 active torsions:
REMARK  status: ('A' for Active; 'I' for Inactive)
REMARK    1  A    between atoms: C_3  and  C_10
REMARK    2  A    between atoms: C_4  and  C_15
REMARK    3  A    between atoms: C_14  and  S_20
REMARK    4  A    between atoms: S_20  and  C_33
REMARK                            x       y       z     vdW  Elec       q    Type
REMARK                         _______ _______ _______ _____ _____    ______ ____
ROOT
ATOM      1  C   UNL     1      47.805  31.873  38.994  0.00  0.00    +0.000 A 
ATOM      2  C   UNL     1      47.236  33.107  38.876  0.00  0.00    +0.000 A 
ATOM      3  C   UNL     1      47.757  34.028  37.983  0.00  0.00    +0.000 A 
ATOM      4  C   UNL     1      48.847  33.702  37.212  0.00  0.00    +0.000 A 
ATOM      5  C   UNL     1      49.460  32.452  37.300  0.00  0.00    +0.000 A 
ATOM      6  C   UNL     1      48.912  31.541  38.212  0.00  0.00    +0.000 A 
ATOM      7  H   UNL     1      47.337  35.016  37.858  0.00  0.00    +0.000 HD
ATOM      8  H   UNL     1      49.337  34.331  36.488  0.00  0.00    +0.000 HD
ATOM      9  H   UNL     1      50.307  32.109  36.745  0.00  0.00    +0.000 HD
ATOM     10  H   UNL     1      49.363  30.553  38.311  0.00  0.00    +0.000 HD
ENDROOT
BRANCH   2  14
ATOM     11 CL   UNL     1      45.286  35.296  43.125  0.00  0.00    +0.000 Cl
ATOM     12  C   UNL     1      45.163  34.544  41.552  0.00  0.00    +0.000 A 
ATOM     13  C   UNL     1      46.272  34.155  40.873  0.00  0.00    +0.000 A 
ATOM     14  C   UNL     1      46.071  33.554  39.640  0.00  0.00    +0.000 A 
ATOM     15  C   UNL     1      44.815  33.361  39.121  0.00  0.00    +0.000 A 
ATOM     16  C   UNL     1      43.719  33.757  39.815  0.00  0.00    +0.000 A 
ATOM     17  C   UNL     1      43.904  34.352  41.038  0.00  0.00    +0.000 A 
ATOM     18  H   UNL     1      44.717  32.884  38.145  0.00  0.00    +0.000 HD
ATOM     19  H   UNL     1      42.754  33.583  39.367  0.00  0.00    +0.000 HD
ATOM     20  H   UNL     1      43.008  34.660  41.575  0.00  0.00    +0.000 HD
BRANCH  13  23
ATOM     21  C   UNL     1      49.542  35.742  41.890  0.00  0.00    +0.000 A 
ATOM     22  C   UNL     1      48.284  35.544  41.315  0.00  0.00    +0.000 A 
ATOM     23  C   UNL     1      47.577  34.371  41.467  0.00  0.00    +0.000 A 
ATOM     24  N   UNL     1      48.210  33.434  42.220  0.00  0.00    +0.000 NA
ATOM     25  C   UNL     1      49.408  33.609  42.774  0.00  0.00    +0.000 A 
ATOM     26  N   UNL     1      50.066  34.759  42.607  0.00  0.00    +0.000 NA
ATOM     27  H   UNL     1      50.035  36.687  41.727  0.00  0.00    +0.000 HD
ATOM     28  H   UNL     1      47.817  36.322  40.721  0.00  0.00    +0.000 HD
ATOM     29  H   UNL     1      49.749  32.746  43.340  0.00  0.00    +0.000 HD
ENDBRANCH  13  23
ENDBRANCH   2  14
BRANCH   1  30
ATOM     30  S   UNL     1      47.167  30.714  40.034  0.00  0.00    +0.000 S 
ATOM     31  O   UNL     1      46.802  29.440  39.301  0.00  0.00    +0.000 OA
ATOM     32  O   UNL     1      48.398  30.269  40.903  0.00  0.00    +0.000 OA
BRANCH  30  33
ATOM     33  C   UNL     1      45.892  30.961  41.154  0.00  0.00    +0.000 A 
ATOM     34  C   UNL     1      46.124  31.914  42.184  0.00  0.00    +0.000 A 
ATOM     35  H   UNL     1      47.105  32.437  42.206  0.00  0.00    +0.000 HD
ATOM     36  C   UNL     1      45.306  32.344  43.237  0.00  0.00    +0.000 A 
ATOM     37  H   UNL     1      45.623  33.079  43.943  0.00  0.00    +0.000 HD
ATOM     38  C   UNL     1      44.090  31.708  43.227  0.00  0.00    +0.000 A 
ATOM     39  C   UNL     1      43.807  30.784  42.267  0.00  0.00    +0.000 A 
ATOM     40  N   UNL     1      44.663  30.456  41.315  0.00  0.00    +0.000 NA
ENDBRANCH  30  33
ENDBRANCH   1  30
TORSDOF 4
