
 OpenBabel03252509073D

 40 43  0  0  0  0  0  0  0  0999 V2000
   47.7800   31.8960   39.0860 C   0  0  0  0  0  0  0  0  0  0  0  0
   47.2010   33.1230   38.9430 C   0  0  0  0  0  0  0  0  0  0  0  0
   47.7090   34.0260   38.0250 C   0  0  0  0  0  0  0  0  0  0  0  0
   48.7970   33.6910   37.2550 C   0  0  0  0  0  0  0  0  0  0  0  0
   49.4200   32.4480   37.3680 C   0  0  0  0  0  0  0  0  0  0  0  0
   48.8850   31.5540   38.3050 C   0  0  0  0  0  0  0  0  0  0  0  0
   47.2810   35.0080   37.8800 H   0  0  0  0  0  0  0  0  0  0  0  0
   49.2770   34.3070   36.5140 H   0  0  0  0  0  0  0  0  0  0  0  0
   50.2660   32.0990   36.8160 H   0  0  0  0  0  0  0  0  0  0  0  0
   49.3440   30.5720   38.4240 H   0  0  0  0  0  0  0  0  0  0  0  0
   45.2600   35.3900   43.1540 Cl  0  0  0  0  0  0  0  0  0  0  0  0
   45.1330   34.6040   41.5990 C   0  0  0  0  0  0  0  0  0  0  0  0
   46.2410   34.2070   40.9220 C   0  0  0  0  0  0  0  0  0  0  0  0
   46.0370   33.5780   39.7030 C   0  0  0  0  0  0  0  0  0  0  0  0
   44.7790   33.3660   39.1960 C   0  0  0  0  0  0  0  0  0  0  0  0
   43.6850   33.7700   39.8870 C   0  0  0  0  0  0  0  0  0  0  0  0
   43.8720   34.3920   41.0960 C   0  0  0  0  0  0  0  0  0  0  0  0
   44.6790   32.8670   38.2310 H   0  0  0  0  0  0  0  0  0  0  0  0
   42.7180   33.5790   39.4490 H   0  0  0  0  0  0  0  0  0  0  0  0
   42.9770   34.7060   41.6310 H   0  0  0  0  0  0  0  0  0  0  0  0
   49.5480   35.7960   41.8070 C   0  0  0  0  0  0  0  0  0  0  0  0
   48.2890   35.5770   41.2430 C   0  0  0  0  0  0  0  0  0  0  0  0
   47.5480   34.4450   41.5040 C   0  0  0  0  0  0  0  0  0  0  0  0
   48.1490   33.5700   42.3510 N   0  0  0  0  0  0  0  0  0  0  0  0
   49.3480   33.7650   42.8960 C   0  0  0  0  0  0  0  0  0  0  0  0
   50.0390   34.8750   42.6230 N   0  0  0  0  0  0  0  0  0  0  0  0
   50.0690   36.7060   41.5560 H   0  0  0  0  0  0  0  0  0  0  0  0
   47.8480   36.3050   40.5710 H   0  0  0  0  0  0  0  0  0  0  0  0
   49.6600   32.9540   43.5480 H   0  0  0  0  0  0  0  0  0  0  0  0
   47.1570   30.7570   40.1560 S   0  0  0  0  0  0  0  0  0  0  0  0
   47.4840   29.3420   39.7260 O   0  0  0  0  0  0  0  0  0  0  0  0
   48.0350   30.9340   41.4470 O   0  0  0  0  0  0  0  0  0  0  0  0
   45.5390   30.6850   40.7200 C   0  0  0  0  0  0  0  0  0  0  0  0
   44.5700   30.1800   39.8100 C   0  0  0  0  0  0  0  0  0  0  0  0
   44.9100   29.8660   38.7980 H   0  0  0  0  0  0  0  0  0  0  0  0
   43.1890   29.9930   39.9500 C   0  0  0  0  0  0  0  0  0  0  0  0
   42.5820   29.5980   39.1660 H   0  0  0  0  0  0  0  0  0  0  0  0
   42.7490   30.3760   41.1920 C   0  0  0  0  0  3  0  0  0  0  0  0
   43.6290   30.8690   42.1090 C   0  0  0  0  0  3  0  0  0  0  0  0
   44.9200   31.0020   41.8630 N   0  0  0  0  0  0  0  0  0  0  0  0
  1 30  1  0  0  0  0
  2  1  1  0  0  0  0
  2 14  1  0  0  0  0
  3  2  2  0  0  0  0
  4  5  2  0  0  0  0
  4  3  1  0  0  0  0
  5  6  1  0  0  0  0
  6 10  1  0  0  0  0
  6  1  2  0  0  0  0
  7  3  1  0  0  0  0
  8  4  1  0  0  0  0
  9  5  1  0  0  0  0
 12 11  1  0  0  0  0
 13 23  1  0  0  0  0
 13 12  2  0  0  0  0
 14 13  1  0  0  0  0
 15 14  2  0  0  0  0
 15 16  1  0  0  0  0
 16 17  2  0  0  0  0
 17 12  1  0  0  0  0
 17 20  1  0  0  0  0
 18 15  1  0  0  0  0
 19 16  1  0  0  0  0
 21 26  1  0  0  0  0
 22 23  1  0  0  0  0
 22 21  2  0  0  0  0
 23 24  2  0  0  0  0
 24 25  1  0  0  0  0
 25 29  1  0  0  0  0
 26 25  2  0  0  0  0
 27 21  1  0  0  0  0
 28 22  1  0  0  0  0
 30 33  1  0  0  0  0
 30 32  2  0  0  0  0
 31 30  2  0  0  0  0
 33 40  1  0  0  0  0
 34 36  1  0  0  0  0
 34 33  2  0  0  0  0
 35 34  1  0  0  0  0
 36 38  2  0  0  0  0
 37 36  1  0  0  0  0
 38 39  1  0  0  0  0
 40 39  2  0  0  0  0
M  END
>  <minimizedAffinity>
-4.63562441

>  <minimizedRMSD>
0.7612831

$$$$
