
 OpenBabel03252509073D

 40 43  0  0  0  0  0  0  0  0999 V2000
   46.9920   31.6540   39.4250 C   0  0  0  0  0  0  0  0  0  0  0  0
   46.6540   32.9590   39.2200 C   0  0  0  0  0  0  0  0  0  0  0  0
   47.3230   33.7060   38.2650 C   0  0  0  0  0  0  0  0  0  0  0  0
   48.3270   33.1350   37.5200 C   0  0  0  0  0  0  0  0  0  0  0  0
   48.7050   31.8040   37.6970 C   0  0  0  0  0  0  0  0  0  0  0  0
   48.0110   31.0730   38.6700 C   0  0  0  0  0  0  0  0  0  0  0  0
   47.0880   34.7430   38.0700 H   0  0  0  0  0  0  0  0  0  0  0  0
   48.9150   33.6130   36.7550 H   0  0  0  0  0  0  0  0  0  0  0  0
   49.4690   31.2750   37.1680 H   0  0  0  0  0  0  0  0  0  0  0  0
   48.2770   30.0290   38.8380 H   0  0  0  0  0  0  0  0  0  0  0  0
   45.2020   35.8380   43.2510 Cl  0  0  0  0  0  0  0  0  0  0  0  0
   44.9150   34.9670   41.7630 C   0  0  0  0  0  0  0  0  0  0  0  0
   45.9280   34.3390   41.1130 C   0  0  0  0  0  0  0  0  0  0  0  0
   45.5980   33.6620   39.9490 C   0  0  0  0  0  0  0  0  0  0  0  0
   44.3130   33.6270   39.4670 C   0  0  0  0  0  0  0  0  0  0  0  0
   43.3150   34.2610   40.1310 C   0  0  0  0  0  0  0  0  0  0  0  0
   43.6280   34.9340   41.2860 C   0  0  0  0  0  0  0  0  0  0  0  0
   44.1130   33.0800   38.5450 H   0  0  0  0  0  0  0  0  0  0  0  0
   42.3230   34.2050   39.7140 H   0  0  0  0  0  0  0  0  0  0  0  0
   42.8090   35.4350   41.8000 H   0  0  0  0  0  0  0  0  0  0  0  0
   49.4570   35.4330   41.8840 C   0  0  0  0  0  0  0  0  0  0  0  0
   48.1680   35.3870   41.3460 C   0  0  0  0  0  0  0  0  0  0  0  0
   47.2670   34.3960   41.6670 C   0  0  0  0  0  0  0  0  0  0  0  0
   47.7420   33.4750   42.5460 N   0  0  0  0  0  0  0  0  0  0  0  0
   48.9670   33.5060   43.0660 C   0  0  0  0  0  0  0  0  0  0  0  0
   49.8160   34.4820   42.7340 N   0  0  0  0  0  0  0  0  0  0  0  0
   50.1070   36.2400   41.5850 H   0  0  0  0  0  0  0  0  0  0  0  0
   47.8320   36.1450   40.6470 H   0  0  0  0  0  0  0  0  0  0  0  0
   49.1640   32.6840   43.7500 H   0  0  0  0  0  0  0  0  0  0  0  0
   46.1660   30.7040   40.5430 S   0  0  0  0  0  0  0  0  0  0  0  0
   46.3380   29.2260   40.2620 O   0  0  0  0  0  0  0  0  0  0  0  0
   46.9780   30.8980   41.8740 O   0  0  0  0  0  0  0  0  0  0  0  0
   44.5200   30.8810   40.9910 C   0  0  0  0  0  0  0  0  0  0  0  0
   43.5520   30.4830   40.0270 C   0  0  0  0  0  0  0  0  0  0  0  0
   43.9120   30.0890   39.0520 H   0  0  0  0  0  0  0  0  0  0  0  0
   42.1520   30.4970   40.0750 C   0  0  0  0  0  0  0  0  0  0  0  0
   41.5490   30.1620   39.2600 H   0  0  0  0  0  0  0  0  0  0  0  0
   41.6890   30.9840   41.2720 C   0  0  0  0  0  3  0  0  0  0  0  0
   42.5670   31.3810   42.2350 C   0  0  0  0  0  3  0  0  0  0  0  0
   43.8770   31.3230   42.0790 N   0  0  0  0  0  0  0  0  0  0  0  0
  1 30  1  0  0  0  0
  2  1  1  0  0  0  0
  2 14  1  0  0  0  0
  3  2  2  0  0  0  0
  4  5  2  0  0  0  0
  4  3  1  0  0  0  0
  5  6  1  0  0  0  0
  6 10  1  0  0  0  0
  6  1  2  0  0  0  0
  7  3  1  0  0  0  0
  8  4  1  0  0  0  0
  9  5  1  0  0  0  0
 12 11  1  0  0  0  0
 13 23  1  0  0  0  0
 13 12  2  0  0  0  0
 14 13  1  0  0  0  0
 15 14  2  0  0  0  0
 15 16  1  0  0  0  0
 16 17  2  0  0  0  0
 17 12  1  0  0  0  0
 17 20  1  0  0  0  0
 18 15  1  0  0  0  0
 19 16  1  0  0  0  0
 21 26  1  0  0  0  0
 22 23  1  0  0  0  0
 22 21  2  0  0  0  0
 23 24  2  0  0  0  0
 24 25  1  0  0  0  0
 25 29  1  0  0  0  0
 26 25  2  0  0  0  0
 27 21  1  0  0  0  0
 28 22  1  0  0  0  0
 30 33  1  0  0  0  0
 30 32  2  0  0  0  0
 31 30  2  0  0  0  0
 33 40  1  0  0  0  0
 34 36  1  0  0  0  0
 34 33  2  0  0  0  0
 35 34  1  0  0  0  0
 36 38  2  0  0  0  0
 37 36  1  0  0  0  0
 38 39  1  0  0  0  0
 40 39  2  0  0  0  0
M  END
>  <minimizedAffinity>
-4.75160122

>  <minimizedRMSD>
1.1323266

$$$$
