
 OpenBabel03252506123D

 35 37  0  0  0  0  0  0  0  0999 V2000
   45.2660   33.5510   41.1350 F   0  0  0  0  0  0  0  0  0  0  0  0
   46.4370   34.1690   41.0540 C   0  0  0  0  0  0  0  0  0  0  0  0
   46.8970   34.8630   42.1480 C   0  0  0  0  0  0  0  0  0  0  0  0
   48.1250   35.5390   42.1540 C   0  0  0  0  0  0  0  0  0  0  0  0
   48.9230   35.5150   41.0110 C   0  0  0  0  0  0  0  0  0  0  0  0
   48.4250   34.8100   39.9420 C   0  0  0  0  0  0  0  0  0  0  0  0
   47.2380   34.1500   39.9180 C   0  0  0  0  0  0  0  0  0  0  0  0
   48.4210   36.0660   43.0580 H   0  0  0  0  0  0  0  0  0  0  0  0
   49.8600   36.0510   41.0650 H   0  0  0  0  0  0  0  0  0  0  0  0
   49.1400   34.8620   39.1260 H   0  0  0  0  0  0  0  0  0  0  0  0
   45.5010   33.9640   45.4220 C   0  0  0  0  0  0  0  0  0  0  0  0
   44.6160   35.0560   45.6570 C   0  0  0  0  0  0  0  0  0  0  0  0
   44.5090   36.0920   44.6860 C   0  0  0  0  0  0  0  0  0  0  0  0
   45.2830   35.9600   43.5710 N   0  0  0  0  0  0  0  0  0  0  0  0
   46.1020   34.9230   43.3800 C   0  0  0  0  0  0  0  0  0  0  0  0
   46.2080   33.9410   44.2940 N   0  0  0  0  0  0  0  0  0  0  0  0
   44.0330   35.0910   46.5710 H   0  0  0  0  0  0  0  0  0  0  0  0
   43.8470   36.9140   44.8570 H   0  0  0  0  0  0  0  0  0  0  0  0
   45.5920   32.9510   46.3970 N   0  0  0  0  0  0  0  0  0  0  0  0
   45.5370   31.9310   46.1220 H   0  0  0  0  0  0  0  0  0  0  0  0
   45.7140   33.2480   47.4020 H   0  0  0  0  0  0  0  0  0  0  0  0
   46.8280   33.4760   38.7970 O   0  0  0  0  0  0  0  0  0  0  0  0
   48.4170   34.6240   37.0230 O   0  0  0  0  0  0  0  0  0  0  0  0
   47.6620   33.3510   37.3450 P   0  0  2  0  0  0  0  0  0  0  0  0
   46.5170   33.0260   36.1140 O   0  0  0  0  0  0  0  0  0  0  0  0
   46.9750   32.9450   35.2380 H   0  0  0  0  0  0  0  0  0  0  0  0
   48.7390   32.0580   37.2830 O   0  0  0  0  0  0  0  0  0  0  0  0
   49.8390   31.8360   38.0600 C   0  0  0  0  0  0  0  0  0  0  0  0
   49.9290   31.6320   39.4270 C   0  0  0  0  0  0  0  0  0  0  0  0
   48.9930   31.6560   39.9280 H   0  0  0  0  0  0  0  0  0  0  0  0
   51.1550   31.4230   40.0240 C   0  0  0  0  0  0  0  0  0  0  0  0
   51.1640   31.2680   41.1070 H   0  0  0  0  0  0  0  0  0  0  0  0
   52.3370   31.4060   39.2980 C   0  0  0  0  0  3  0  0  0  0  0  0
   52.1890   31.6130   37.9510 C   0  0  0  0  0  3  0  0  0  0  0  0
   51.0030   31.8190   37.3460 N   0  0  0  0  0  0  0  0  0  0  0  0
  2  1  1  0  0  0  0
  2  3  1  0  0  0  0
  3  4  2  0  0  0  0
  3 15  1  0  0  0  0
  4  8  1  0  0  0  0
  5  9  1  0  0  0  0
  5  4  1  0  0  0  0
  6  5  2  0  0  0  0
  7  6  1  0  0  0  0
  7  2  2  0  0  0  0
 10  6  1  0  0  0  0
 11 12  1  0  0  0  0
 11 19  1  0  0  0  0
 12 17  1  0  0  0  0
 13 18  1  0  0  0  0
 13 12  2  0  0  0  0
 14 13  1  0  0  0  0
 15 14  2  0  0  0  0
 15 16  1  0  0  0  0
 16 11  2  0  0  0  0
 19 21  1  0  0  0  0
 20 19  1  0  0  0  0
 22  7  1  0  0  0  0
 24 23  2  6  0  0  0
 24 22  1  0  0  0  0
 25 24  1  0  0  0  0
 26 25  1  0  0  0  0
 27 24  1  0  0  0  0
 27 28  1  0  0  0  0
 28 29  1  0  0  0  0
 29 30  1  0  0  0  0
 29 31  2  0  0  0  0
 31 32  1  0  0  0  0
 33 31  1  0  0  0  0
 34 33  2  0  0  0  0
 35 34  1  0  0  0  0
 35 28  2  0  0  0  0
M  END
>  <minimizedAffinity>
-6.42655849

>  <minimizedRMSD>
1.73695982

$$$$
