
 OpenBabel03242515113D

 35 37  0  0  0  0  0  0  0  0999 V2000
   36.7400   30.4420   39.3050 C   0  0  0  0  0  0  0  0  0  0  0  0
   36.4620   30.3260   37.9730 C   0  0  0  0  0  0  0  0  0  0  0  0
   35.4730   29.5340   37.4520 C   0  0  0  0  0  0  0  0  0  0  0  0
   34.6950   28.7970   38.3200 C   0  0  0  0  0  0  0  0  0  0  0  0
   34.9450   28.8900   39.6580 C   0  0  0  0  0  0  0  0  0  0  0  0
   35.9540   29.7000   40.1620 C   0  0  0  0  0  0  0  0  0  0  0  0
   37.0530   30.8910   37.2500 H   0  0  0  0  0  0  0  0  0  0  0  0
   35.2510   29.4410   36.3980 H   0  0  0  0  0  0  0  0  0  0  0  0
   33.9020   28.1600   37.9380 H   0  0  0  0  0  0  0  0  0  0  0  0
   34.3040   28.2890   40.3060 H   0  0  0  0  0  0  0  0  0  0  0  0
   39.9030   31.4730   40.8410 C   0  0  0  0  0  0  0  0  0  0  0  0
   39.8540   32.8600   40.7770 C   0  0  0  0  0  0  0  0  0  0  0  0
   38.7270   33.4510   40.2040 C   0  0  0  0  0  0  0  0  0  0  0  0
   37.7060   32.6740   39.7210 N   0  0  0  0  0  0  0  0  0  0  0  0
   37.8040   31.3000   39.8070 C   0  0  0  0  0  0  0  0  0  0  0  0
   38.8890   30.7560   40.3580 N   0  0  0  0  0  0  0  0  0  0  0  0
   40.7760   30.9980   41.2850 H   0  0  0  0  0  0  0  0  0  0  0  0
   40.6350   33.4820   41.1460 H   0  0  0  0  0  0  0  0  0  0  0  0
   38.5940   34.5320   40.1080 H   0  0  0  0  0  0  0  0  0  0  0  0
   36.0830   29.6860   41.5650 N   0  0  0  0  0  0  0  0  0  0  0  0
   35.4860   30.4310   41.9930 H   0  0  0  0  0  0  0  0  0  0  0  0
   36.9940   28.7180   42.6290 S   0  0  0  0  0  0  0  0  0  0  0  0
   38.0240   29.6030   43.3370 O   0  0  0  0  0  0  0  0  0  0  0  0
   38.9260   29.2420   43.5200 H   0  0  0  0  0  0  0  0  0  0  0  0
   36.1880   28.0160   43.6710 O   0  0  0  0  0  0  0  0  0  0  0  0
   36.2890   28.1040   44.6580 H   0  0  0  0  0  0  0  0  0  0  0  0
   37.8950   27.6540   41.6760 O   0  0  0  0  0  0  0  0  0  0  0  0
   38.6250   26.6210   42.2440 C   0  0  0  0  0  0  0  0  0  0  0  0
   38.3240   25.3980   41.6390 C   0  0  0  0  0  0  0  0  0  0  0  0
   37.6200   25.2330   40.8330 H   0  0  0  0  0  0  0  0  0  0  0  0
   38.9640   24.2360   42.0790 C   0  0  0  0  0  0  0  0  0  0  0  0
   38.7670   23.2590   41.6450 H   0  0  0  0  0  0  0  0  0  0  0  0
   39.8760   24.3320   43.0980 C   0  0  0  0  0  3  0  0  0  0  0  0
   40.1400   25.5630   43.6630 C   0  0  0  0  0  3  0  0  0  0  0  0
   39.5290   26.6640   43.2420 N   0  0  0  0  0  0  0  0  0  0  0  0
  1 15  1  0  0  0  0
  1  6  1  0  0  0  0
  2  1  2  0  0  0  0
  3  2  1  0  0  0  0
  3  4  2  0  0  0  0
  4  5  1  0  0  0  0
  5  6  2  0  0  0  0
  5 10  1  0  0  0  0
  6 20  1  0  0  0  0
  7  2  1  0  0  0  0
  8  3  1  0  0  0  0
  9  4  1  0  0  0  0
 11 17  1  0  0  0  0
 12 11  1  0  0  0  0
 12 18  1  0  0  0  0
 13 12  2  0  0  0  0
 14 15  2  0  0  0  0
 14 13  1  0  0  0  0
 15 16  1  0  0  0  0
 16 11  2  0  0  0  0
 19 13  1  0  0  0  0
 20 21  1  0  0  0  0
 20 22  1  0  0  0  0
 22 23  1  0  0  0  0
 22 25  1  0  0  0  0
 23 24  1  0  0  0  0
 25 26  1  0  0  0  0
 27 28  1  0  0  0  0
 27 22  1  0  0  0  0
 28 35  1  0  0  0  0
 29 31  1  0  0  0  0
 29 28  2  0  0  0  0
 30 29  1  0  0  0  0
 31 33  2  0  0  0  0
 32 31  1  0  0  0  0
 33 34  1  0  0  0  0
 35 34  2  0  0  0  0
M  END
>  <minimizedAffinity>
-5.92166376

$$$$

 OpenBabel03242515113D

 35 37  0  0  0  0  0  0  0  0999 V2000
   36.5720   30.4030   38.9260 C   0  0  0  0  0  0  0  0  0  0  0  0
   36.1660   30.1130   37.6560 C   0  0  0  0  0  0  0  0  0  0  0  0
   35.1370   29.2640   37.3430 C   0  0  0  0  0  0  0  0  0  0  0  0
   34.4540   28.6520   38.3730 C   0  0  0  0  0  0  0  0  0  0  0  0
   34.8330   28.9200   39.6570 C   0  0  0  0  0  0  0  0  0  0  0  0
   35.8800   29.7840   39.9470 C   0  0  0  0  0  0  0  0  0  0  0  0
   36.6780   30.5750   36.8090 H   0  0  0  0  0  0  0  0  0  0  0  0
   34.8130   29.0340   36.3380 H   0  0  0  0  0  0  0  0  0  0  0  0
   33.6320   27.9740   38.1580 H   0  0  0  0  0  0  0  0  0  0  0  0
   34.2630   28.4130   40.4380 H   0  0  0  0  0  0  0  0  0  0  0  0
   38.4520   33.2110   40.3440 C   0  0  0  0  0  0  0  0  0  0  0  0
   39.7120   33.0740   39.7730 C   0  0  0  0  0  0  0  0  0  0  0  0
   39.9220   32.0110   38.8940 C   0  0  0  0  0  0  0  0  0  0  0  0
   38.9070   31.1340   38.6110 N   0  0  0  0  0  0  0  0  0  0  0  0
   37.6740   31.3140   39.2040 C   0  0  0  0  0  0  0  0  0  0  0  0
   37.4940   32.3350   40.0400 N   0  0  0  0  0  0  0  0  0  0  0  0
   38.2740   34.0350   41.0320 H   0  0  0  0  0  0  0  0  0  0  0  0
   40.5130   33.7430   39.9800 H   0  0  0  0  0  0  0  0  0  0  0  0
   40.8760   31.8180   38.3960 H   0  0  0  0  0  0  0  0  0  0  0  0
   36.1470   29.9550   41.3200 N   0  0  0  0  0  0  0  0  0  0  0  0
   35.4270   30.5770   41.7560 H   0  0  0  0  0  0  0  0  0  0  0  0
   37.3720   29.3560   42.3390 S   0  0  0  0  0  0  0  0  0  0  0  0
   38.4160   30.4560   42.5510 O   0  0  0  0  0  0  0  0  0  0  0  0
   39.3720   30.2120   42.5960 H   0  0  0  0  0  0  0  0  0  0  0  0
   36.8950   28.9020   43.6800 O   0  0  0  0  0  0  0  0  0  0  0  0
   37.1920   29.2510   44.5640 H   0  0  0  0  0  0  0  0  0  0  0  0
   38.1700   28.1370   41.4850 O   0  0  0  0  0  0  0  0  0  0  0  0
   37.6630   26.8480   41.4290 C   0  0  0  0  0  0  0  0  0  0  0  0
   37.4330   26.4530   40.1080 C   0  0  0  0  0  0  0  0  0  0  0  0
   37.6110   27.0440   39.2180 H   0  0  0  0  0  0  0  0  0  0  0  0
   36.9210   25.1790   39.8490 C   0  0  0  0  0  0  0  0  0  0  0  0
   36.7220   24.8220   38.8430 H   0  0  0  0  0  0  0  0  0  0  0  0
   36.6590   24.3470   40.9070 C   0  0  0  0  0  3  0  0  0  0  0  0
   36.9030   24.7820   42.1940 C   0  0  0  0  0  3  0  0  0  0  0  0
   37.3900   25.9940   42.4350 N   0  0  0  0  0  0  0  0  0  0  0  0
  1 15  1  0  0  0  0
  1  6  1  0  0  0  0
  2  1  2  0  0  0  0
  3  2  1  0  0  0  0
  3  4  2  0  0  0  0
  4  5  1  0  0  0  0
  5  6  2  0  0  0  0
  5 10  1  0  0  0  0
  6 20  1  0  0  0  0
  7  2  1  0  0  0  0
  8  3  1  0  0  0  0
  9  4  1  0  0  0  0
 11 17  1  0  0  0  0
 12 18  1  0  0  0  0
 12 11  2  0  0  0  0
 13 12  1  0  0  0  0
 14 13  2  0  0  0  0
 14 15  1  0  0  0  0
 15 16  2  0  0  0  0
 16 11  1  0  0  0  0
 19 13  1  0  0  0  0
 20 21  1  0  0  0  0
 20 22  1  0  0  0  0
 22 23  1  0  0  0  0
 22 25  1  0  0  0  0
 23 24  1  0  0  0  0
 25 26  1  0  0  0  0
 27 22  1  0  0  0  0
 28 27  1  0  0  0  0
 28 35  1  0  0  0  0
 29 28  2  0  0  0  0
 30 29  1  0  0  0  0
 31 29  1  0  0  0  0
 31 33  2  0  0  0  0
 32 31  1  0  0  0  0
 33 34  1  0  0  0  0
 34 35  2  0  0  0  0
M  END
>  <minimizedAffinity>
-5.80242538

$$$$

 OpenBabel03242515113D

 35 37  0  0  0  0  0  0  0  0999 V2000
   37.2690   30.8850   37.6620 C   0  0  0  0  0  0  0  0  0  0  0  0
   37.2390   31.2010   36.3340 C   0  0  0  0  0  0  0  0  0  0  0  0
   36.6850   30.4120   35.3600 C   0  0  0  0  0  0  0  0  0  0  0  0
   36.1130   29.2130   35.7320 C   0  0  0  0  0  0  0  0  0  0  0  0
   36.1240   28.8660   37.0520 C   0  0  0  0  0  0  0  0  0  0  0  0
   36.6930   29.6840   38.0200 C   0  0  0  0  0  0  0  0  0  0  0  0
   37.6800   32.1400   35.9940 H   0  0  0  0  0  0  0  0  0  0  0  0
   36.6600   30.6590   34.3080 H   0  0  0  0  0  0  0  0  0  0  0  0
   35.6640   28.5650   34.9830 H   0  0  0  0  0  0  0  0  0  0  0  0
   35.6600   27.9100   37.2980 H   0  0  0  0  0  0  0  0  0  0  0  0
   39.6690   32.1970   40.1010 C   0  0  0  0  0  0  0  0  0  0  0  0
   39.0680   33.3690   40.5430 C   0  0  0  0  0  0  0  0  0  0  0  0
   37.8290   33.7160   40.0040 C   0  0  0  0  0  0  0  0  0  0  0  0
   37.2330   32.9150   39.0650 N   0  0  0  0  0  0  0  0  0  0  0  0
   37.8710   31.7610   38.6570 C   0  0  0  0  0  0  0  0  0  0  0  0
   39.0540   31.4480   39.1850 N   0  0  0  0  0  0  0  0  0  0  0  0
   40.6360   31.9140   40.5120 H   0  0  0  0  0  0  0  0  0  0  0  0
   39.5140   34.0050   41.2710 H   0  0  0  0  0  0  0  0  0  0  0  0
   37.2770   34.6160   40.2870 H   0  0  0  0  0  0  0  0  0  0  0  0
   36.6230   29.1850   39.3350 N   0  0  0  0  0  0  0  0  0  0  0  0
   37.4270   28.5420   39.5240 H   0  0  0  0  0  0  0  0  0  0  0  0
   35.5170   29.4340   40.6060 S   0  0  0  0  0  0  0  0  0  0  0  0
   35.6910   30.8610   41.1340 O   0  0  0  0  0  0  0  0  0  0  0  0
   35.6100   31.0290   42.1050 H   0  0  0  0  0  0  0  0  0  0  0  0
   34.0850   29.2490   40.2260 O   0  0  0  0  0  0  0  0  0  0  0  0
   33.3610   29.9290   40.2940 H   0  0  0  0  0  0  0  0  0  0  0  0
   35.9900   28.4240   41.8740 O   0  0  0  0  0  0  0  0  0  0  0  0
   37.3110   28.3590   42.2890 C   0  0  0  0  0  0  0  0  0  0  0  0
   37.5510   27.1980   43.0290 C   0  0  0  0  0  0  0  0  0  0  0  0
   36.8320   26.4260   43.2690 H   0  0  0  0  0  0  0  0  0  0  0  0
   38.8320   26.9560   43.5340 C   0  0  0  0  0  0  0  0  0  0  0  0
   39.0730   26.0700   44.1160 H   0  0  0  0  0  0  0  0  0  0  0  0
   39.8210   27.8720   43.2870 C   0  0  0  0  0  3  0  0  0  0  0  0
   39.5350   29.0040   42.5520 C   0  0  0  0  0  3  0  0  0  0  0  0
   38.3170   29.2300   42.0740 N   0  0  0  0  0  0  0  0  0  0  0  0
  1  6  1  0  0  0  0
  1 15  1  0  0  0  0
  2  1  2  0  0  0  0
  3  4  2  0  0  0  0
  3  2  1  0  0  0  0
  4  5  1  0  0  0  0
  5 10  1  0  0  0  0
  5  6  2  0  0  0  0
  6 20  1  0  0  0  0
  7  2  1  0  0  0  0
  8  3  1  0  0  0  0
  9  4  1  0  0  0  0
 11 17  1  0  0  0  0
 11 12  1  0  0  0  0
 12 18  1  0  0  0  0
 13 19  1  0  0  0  0
 13 12  2  0  0  0  0
 14 13  1  0  0  0  0
 15 14  2  0  0  0  0
 15 16  1  0  0  0  0
 16 11  2  0  0  0  0
 20 21  1  0  0  0  0
 20 22  1  0  0  0  0
 22 23  1  0  0  0  0
 22 27  1  0  0  0  0
 23 24  1  0  0  0  0
 25 26  1  0  0  0  0
 25 22  1  0  0  0  0
 27 28  1  0  0  0  0
 28 29  1  0  0  0  0
 29 30  1  0  0  0  0
 29 31  2  0  0  0  0
 31 32  1  0  0  0  0
 33 31  1  0  0  0  0
 34 33  2  0  0  0  0
 35 28  2  0  0  0  0
 35 34  1  0  0  0  0
M  END
>  <minimizedAffinity>
-5.79890394

$$$$

 OpenBabel03242515113D

 35 37  0  0  0  0  0  0  0  0999 V2000
   36.7410   30.4250   38.9880 C   0  0  0  0  0  0  0  0  0  0  0  0
   36.5880   30.2740   37.6400 C   0  0  0  0  0  0  0  0  0  0  0  0
   35.8470   29.2840   37.0490 C   0  0  0  0  0  0  0  0  0  0  0  0
   35.2060   28.3690   37.8580 C   0  0  0  0  0  0  0  0  0  0  0  0
   35.3380   28.4910   39.2110 C   0  0  0  0  0  0  0  0  0  0  0  0
   36.0940   29.5030   39.7860 C   0  0  0  0  0  0  0  0  0  0  0  0
   37.0770   30.9750   36.9610 H   0  0  0  0  0  0  0  0  0  0  0  0
   35.7240   29.1630   35.9820 H   0  0  0  0  0  0  0  0  0  0  0  0
   34.6110   27.5730   37.4190 H   0  0  0  0  0  0  0  0  0  0  0  0
   34.8130   27.7460   39.8100 H   0  0  0  0  0  0  0  0  0  0  0  0
   37.8320   33.7970   39.9200 C   0  0  0  0  0  0  0  0  0  0  0  0
   39.0040   33.5690   40.6320 C   0  0  0  0  0  0  0  0  0  0  0  0
   39.4270   32.2500   40.7960 C   0  0  0  0  0  0  0  0  0  0  0  0
   38.6980   31.2170   40.2650 N   0  0  0  0  0  0  0  0  0  0  0  0
   37.5410   31.4960   39.5660 C   0  0  0  0  0  0  0  0  0  0  0  0
   37.1550   32.7630   39.4210 N   0  0  0  0  0  0  0  0  0  0  0  0
   37.4900   34.8210   39.7850 H   0  0  0  0  0  0  0  0  0  0  0  0
   39.5840   34.3560   41.0530 H   0  0  0  0  0  0  0  0  0  0  0  0
   40.3330   31.9680   41.3390 H   0  0  0  0  0  0  0  0  0  0  0  0
   36.1300   29.4930   41.1940 N   0  0  0  0  0  0  0  0  0  0  0  0
   35.3830   30.1130   41.5820 H   0  0  0  0  0  0  0  0  0  0  0  0
   37.1250   28.6850   42.3160 S   0  0  0  0  0  0  0  0  0  0  0  0
   38.5590   28.6740   41.7800 O   0  0  0  0  0  0  0  0  0  0  0  0
   39.1210   27.8740   41.9230 H   0  0  0  0  0  0  0  0  0  0  0  0
   37.1410   29.2940   43.6800 O   0  0  0  0  0  0  0  0  0  0  0  0
   37.9390   29.6420   44.1640 H   0  0  0  0  0  0  0  0  0  0  0  0
   36.6380   27.0690   42.3310 O   0  0  0  0  0  0  0  0  0  0  0  0
   37.2730   26.1180   41.5470 C   0  0  0  0  0  0  0  0  0  0  0  0
   37.1180   24.8360   42.0830 C   0  0  0  0  0  0  0  0  0  0  0  0
   36.5820   24.5760   42.9870 H   0  0  0  0  0  0  0  0  0  0  0  0
   37.6910   23.7420   41.4290 C   0  0  0  0  0  0  0  0  0  0  0  0
   37.6020   22.7260   41.8020 H   0  0  0  0  0  0  0  0  0  0  0  0
   38.3930   23.9610   40.2720 C   0  0  0  0  0  3  0  0  0  0  0  0
   38.5190   25.2450   39.7820 C   0  0  0  0  0  3  0  0  0  0  0  0
   37.9720   26.2810   40.4070 N   0  0  0  0  0  0  0  0  0  0  0  0
  1 15  1  0  0  0  0
  1  6  1  0  0  0  0
  2  1  2  0  0  0  0
  3  2  1  0  0  0  0
  3  4  2  0  0  0  0
  4  5  1  0  0  0  0
  5  6  2  0  0  0  0
  5 10  1  0  0  0  0
  6 20  1  0  0  0  0
  7  2  1  0  0  0  0
  8  3  1  0  0  0  0
  9  4  1  0  0  0  0
 11 12  1  0  0  0  0
 12 13  2  0  0  0  0
 12 18  1  0  0  0  0
 13 19  1  0  0  0  0
 14 13  1  0  0  0  0
 15 14  2  0  0  0  0
 16 15  1  0  0  0  0
 16 11  2  0  0  0  0
 17 11  1  0  0  0  0
 20 21  1  0  0  0  0
 20 22  1  0  0  0  0
 22 27  1  0  0  0  0
 22 25  1  0  0  0  0
 23 24  1  0  0  0  0
 23 22  1  0  0  0  0
 25 26  1  0  0  0  0
 28 29  1  0  0  0  0
 28 27  1  0  0  0  0
 29 30  1  0  0  0  0
 31 32  1  0  0  0  0
 31 29  2  0  0  0  0
 33 31  1  0  0  0  0
 34 33  2  0  0  0  0
 34 35  1  0  0  0  0
 35 28  2  0  0  0  0
M  END
>  <minimizedAffinity>
-5.78525782

$$$$

 OpenBabel03242515113D

 35 37  0  0  0  0  0  0  0  0999 V2000
   37.2560   31.4470   39.5760 C   0  0  0  0  0  0  0  0  0  0  0  0
   37.1940   32.7730   39.2600 C   0  0  0  0  0  0  0  0  0  0  0  0
   37.9500   33.7500   39.8550 C   0  0  0  0  0  0  0  0  0  0  0  0
   38.8380   33.3830   40.8430 C   0  0  0  0  0  0  0  0  0  0  0  0
   38.9260   32.0650   41.1840 C   0  0  0  0  0  0  0  0  0  0  0  0
   38.1500   31.0940   40.5670 C   0  0  0  0  0  0  0  0  0  0  0  0
   36.5040   33.1090   38.4830 H   0  0  0  0  0  0  0  0  0  0  0  0
   37.9030   34.8000   39.6050 H   0  0  0  0  0  0  0  0  0  0  0  0
   39.4520   34.1340   41.3330 H   0  0  0  0  0  0  0  0  0  0  0  0
   39.6430   31.8220   41.9710 H   0  0  0  0  0  0  0  0  0  0  0  0
   35.9060   29.2830   36.9450 C   0  0  0  0  0  0  0  0  0  0  0  0
   34.9040   28.5730   37.5960 C   0  0  0  0  0  0  0  0  0  0  0  0
   34.6870   28.8350   38.9490 C   0  0  0  0  0  0  0  0  0  0  0  0
   35.4470   29.7700   39.6050 N   0  0  0  0  0  0  0  0  0  0  0  0
   36.4290   30.4480   38.9130 C   0  0  0  0  0  0  0  0  0  0  0  0
   36.6210   30.1820   37.6210 N   0  0  0  0  0  0  0  0  0  0  0  0
   36.0870   29.0880   35.8890 H   0  0  0  0  0  0  0  0  0  0  0  0
   34.3040   27.8440   37.1060 H   0  0  0  0  0  0  0  0  0  0  0  0
   33.9240   28.3310   39.5490 H   0  0  0  0  0  0  0  0  0  0  0  0
   38.3590   29.7800   41.0310 N   0  0  0  0  0  0  0  0  0  0  0  0
   39.1170   29.3150   40.4810 H   0  0  0  0  0  0  0  0  0  0  0  0
   37.6310   28.8660   42.2700 S   0  0  0  0  0  0  0  0  0  0  0  0
   38.0280   29.4660   43.6210 O   0  0  0  0  0  0  0  0  0  0  0  0
   38.2070   28.8630   44.3830 H   0  0  0  0  0  0  0  0  0  0  0  0
   36.1400   28.8110   42.2050 O   0  0  0  0  0  0  0  0  0  0  0  0
   35.5040   29.1150   42.9080 H   0  0  0  0  0  0  0  0  0  0  0  0
   38.3400   27.3340   42.2320 O   0  0  0  0  0  0  0  0  0  0  0  0
   37.7620   26.2890   41.5270 C   0  0  0  0  0  0  0  0  0  0  0  0
   38.0810   25.0550   42.1010 C   0  0  0  0  0  0  0  0  0  0  0  0
   38.6950   24.8910   42.9780 H   0  0  0  0  0  0  0  0  0  0  0  0
   37.5870   23.8810   41.5280 C   0  0  0  0  0  0  0  0  0  0  0  0
   37.8040   22.8960   41.9320 H   0  0  0  0  0  0  0  0  0  0  0  0
   36.7960   23.9750   40.4120 C   0  0  0  0  0  3  0  0  0  0  0  0
   36.5080   25.2160   39.8820 C   0  0  0  0  0  3  0  0  0  0  0  0
   36.9810   26.3300   40.4300 N   0  0  0  0  0  0  0  0  0  0  0  0
  1  6  1  0  0  0  0
  2  1  2  0  0  0  0
  2  3  1  0  0  0  0
  3  4  2  0  0  0  0
  4  5  1  0  0  0  0
  4  9  1  0  0  0  0
  5 10  1  0  0  0  0
  6 20  1  0  0  0  0
  6  5  2  0  0  0  0
  7  2  1  0  0  0  0
  8  3  1  0  0  0  0
 11 12  2  0  0  0  0
 11 16  1  0  0  0  0
 12 13  1  0  0  0  0
 13 19  1  0  0  0  0
 13 14  2  0  0  0  0
 15  1  1  0  0  0  0
 15 14  1  0  0  0  0
 16 15  2  0  0  0  0
 17 11  1  0  0  0  0
 18 12  1  0  0  0  0
 20 22  1  0  0  0  0
 21 20  1  0  0  0  0
 22 23  1  0  0  0  0
 23 24  1  0  0  0  0
 25 22  1  0  0  0  0
 25 26  1  0  0  0  0
 27 22  1  0  0  0  0
 28 29  1  0  0  0  0
 28 27  1  0  0  0  0
 29 30  1  0  0  0  0
 31 32  1  0  0  0  0
 31 29  2  0  0  0  0
 33 31  1  0  0  0  0
 34 33  2  0  0  0  0
 34 35  1  0  0  0  0
 35 28  2  0  0  0  0
M  END
>  <minimizedAffinity>
-5.71518803

$$$$

 OpenBabel03242515113D

 35 37  0  0  0  0  0  0  0  0999 V2000
   37.3520   31.5560   39.8420 C   0  0  0  0  0  0  0  0  0  0  0  0
   37.2400   32.8840   39.5530 C   0  0  0  0  0  0  0  0  0  0  0  0
   38.0990   33.8530   40.0030 C   0  0  0  0  0  0  0  0  0  0  0  0
   39.1550   33.4740   40.8050 C   0  0  0  0  0  0  0  0  0  0  0  0
   39.2970   32.1530   41.1140 C   0  0  0  0  0  0  0  0  0  0  0  0
   38.4130   31.1900   40.6450 C   0  0  0  0  0  0  0  0  0  0  0  0
   36.4190   33.2300   38.9210 H   0  0  0  0  0  0  0  0  0  0  0  0
   38.0120   34.9060   39.7750 H   0  0  0  0  0  0  0  0  0  0  0  0
   39.8540   34.2180   41.1770 H   0  0  0  0  0  0  0  0  0  0  0  0
   40.1470   31.9000   41.7510 H   0  0  0  0  0  0  0  0  0  0  0  0
   34.6430   29.0880   39.7820 C   0  0  0  0  0  0  0  0  0  0  0  0
   34.6040   28.6880   38.4510 C   0  0  0  0  0  0  0  0  0  0  0  0
   35.5130   29.2660   37.5650 C   0  0  0  0  0  0  0  0  0  0  0  0
   36.4130   30.2010   38.0060 N   0  0  0  0  0  0  0  0  0  0  0  0
   36.4110   30.5650   39.3370 C   0  0  0  0  0  0  0  0  0  0  0  0
   35.5340   30.0010   40.1680 N   0  0  0  0  0  0  0  0  0  0  0  0
   33.9390   28.6460   40.4850 H   0  0  0  0  0  0  0  0  0  0  0  0
   33.9130   27.9640   38.0890 H   0  0  0  0  0  0  0  0  0  0  0  0
   35.5610   29.0180   36.5010 H   0  0  0  0  0  0  0  0  0  0  0  0
   38.6980   29.8720   41.0530 N   0  0  0  0  0  0  0  0  0  0  0  0
   39.5330   29.5050   40.5410 H   0  0  0  0  0  0  0  0  0  0  0  0
   37.9590   28.8280   42.1770 S   0  0  0  0  0  0  0  0  0  0  0  0
   36.9030   29.6160   42.9570 O   0  0  0  0  0  0  0  0  0  0  0  0
   36.7800   29.4320   43.9210 H   0  0  0  0  0  0  0  0  0  0  0  0
   37.2960   27.6350   41.5710 O   0  0  0  0  0  0  0  0  0  0  0  0
   36.3340   27.3870   41.6480 H   0  0  0  0  0  0  0  0  0  0  0  0
   39.1390   28.4100   43.3100 O   0  0  0  0  0  0  0  0  0  0  0  0
   39.8940   27.2560   43.1710 C   0  0  0  0  0  0  0  0  0  0  0  0
   41.1840   27.4330   43.6790 C   0  0  0  0  0  0  0  0  0  0  0  0
   41.5830   28.3340   44.1280 H   0  0  0  0  0  0  0  0  0  0  0  0
   42.0960   26.3750   43.6270 C   0  0  0  0  0  0  0  0  0  0  0  0
   43.1110   26.4580   44.0060 H   0  0  0  0  0  0  0  0  0  0  0  0
   41.6930   25.1850   43.0780 C   0  0  0  0  0  3  0  0  0  0  0  0
   40.4080   25.0590   42.5900 C   0  0  0  0  0  3  0  0  0  0  0  0
   39.5460   26.0670   42.6410 N   0  0  0  0  0  0  0  0  0  0  0  0
  1  6  1  0  0  0  0
  2  1  2  0  0  0  0
  2  3  1  0  0  0  0
  3  4  2  0  0  0  0
  4  5  1  0  0  0  0
  4  9  1  0  0  0  0
  5 10  1  0  0  0  0
  6 20  1  0  0  0  0
  6  5  2  0  0  0  0
  7  2  1  0  0  0  0
  8  3  1  0  0  0  0
 11 16  1  0  0  0  0
 11 17  1  0  0  0  0
 12 11  2  0  0  0  0
 13 14  2  0  0  0  0
 13 12  1  0  0  0  0
 14 15  1  0  0  0  0
 15  1  1  0  0  0  0
 15 16  2  0  0  0  0
 18 12  1  0  0  0  0
 19 13  1  0  0  0  0
 20 22  1  0  0  0  0
 21 20  1  0  0  0  0
 22 23  1  0  0  0  0
 22 27  1  0  0  0  0
 23 24  1  0  0  0  0
 25 26  1  0  0  0  0
 25 22  1  0  0  0  0
 28 27  1  0  0  0  0
 28 29  1  0  0  0  0
 29 30  1  0  0  0  0
 31 29  2  0  0  0  0
 31 32  1  0  0  0  0
 33 31  1  0  0  0  0
 34 35  1  0  0  0  0
 34 33  2  0  0  0  0
 35 28  2  0  0  0  0
M  END
>  <minimizedAffinity>
-5.6696105

$$$$

 OpenBabel03242515113D

 35 37  0  0  0  0  0  0  0  0999 V2000
   38.3320   31.0000   41.3640 C   0  0  0  0  0  0  0  0  0  0  0  0
   39.4100   31.8210   41.2030 C   0  0  0  0  0  0  0  0  0  0  0  0
   39.3850   33.0120   40.5240 C   0  0  0  0  0  0  0  0  0  0  0  0
   38.1960   33.4220   39.9590 C   0  0  0  0  0  0  0  0  0  0  0  0
   37.0980   32.6240   40.1010 C   0  0  0  0  0  0  0  0  0  0  0  0
   37.1480   31.4220   40.7940 C   0  0  0  0  0  0  0  0  0  0  0  0
   40.3720   31.5370   41.6340 H   0  0  0  0  0  0  0  0  0  0  0  0
   40.2380   33.6640   40.3960 H   0  0  0  0  0  0  0  0  0  0  0  0
   38.1440   34.3610   39.4150 H   0  0  0  0  0  0  0  0  0  0  0  0
   36.1800   32.9900   39.6370 H   0  0  0  0  0  0  0  0  0  0  0  0
   39.6180   27.7880   42.5730 C   0  0  0  0  0  0  0  0  0  0  0  0
   38.6280   27.3550   43.4470 C   0  0  0  0  0  0  0  0  0  0  0  0
   37.5080   28.1680   43.6260 C   0  0  0  0  0  0  0  0  0  0  0  0
   37.4010   29.3580   42.9530 N   0  0  0  0  0  0  0  0  0  0  0  0
   38.4120   29.7430   42.0960 C   0  0  0  0  0  0  0  0  0  0  0  0
   39.4720   28.9520   41.9400 N   0  0  0  0  0  0  0  0  0  0  0  0
   40.4970   27.1640   42.4240 H   0  0  0  0  0  0  0  0  0  0  0  0
   38.6920   26.4360   43.9790 H   0  0  0  0  0  0  0  0  0  0  0  0
   36.6770   27.9170   44.2910 H   0  0  0  0  0  0  0  0  0  0  0  0
   35.9300   30.7170   40.8510 N   0  0  0  0  0  0  0  0  0  0  0  0
   35.3390   31.0750   41.6360 H   0  0  0  0  0  0  0  0  0  0  0  0
   35.2860   29.4500   39.9130 S   0  0  0  0  0  0  0  0  0  0  0  0
   35.9350   28.1350   40.3540 O   0  0  0  0  0  0  0  0  0  0  0  0
   36.1510   27.4510   39.6740 H   0  0  0  0  0  0  0  0  0  0  0  0
   33.8050   29.2960   40.0140 O   0  0  0  0  0  0  0  0  0  0  0  0
   33.3120   28.4860   40.3200 H   0  0  0  0  0  0  0  0  0  0  0  0
   35.8080   29.6990   38.3260 O   0  0  0  0  0  0  0  0  0  0  0  0
   36.9500   29.0820   37.8390 C   0  0  0  0  0  0  0  0  0  0  0  0
   36.7910   28.7120   36.5000 C   0  0  0  0  0  0  0  0  0  0  0  0
   35.9110   28.8670   35.8880 H   0  0  0  0  0  0  0  0  0  0  0  0
   37.8400   28.0740   35.8320 C   0  0  0  0  0  0  0  0  0  0  0  0
   37.7700   27.7650   34.7930 H   0  0  0  0  0  0  0  0  0  0  0  0
   39.0030   27.8290   36.5160 C   0  0  0  0  0  3  0  0  0  0  0  0
   39.1120   28.2130   37.8370 C   0  0  0  0  0  3  0  0  0  0  0  0
   38.1120   28.8190   38.4670 N   0  0  0  0  0  0  0  0  0  0  0  0
  1 15  1  0  0  0  0
  2  1  1  0  0  0  0
  2  7  1  0  0  0  0
  3  2  2  0  0  0  0
  4  5  2  0  0  0  0
  4  3  1  0  0  0  0
  5  6  1  0  0  0  0
  6 20  1  0  0  0  0
  6  1  2  0  0  0  0
  8  3  1  0  0  0  0
  9  4  1  0  0  0  0
 10  5  1  0  0  0  0
 11 12  1  0  0  0  0
 12 13  2  0  0  0  0
 12 18  1  0  0  0  0
 13 19  1  0  0  0  0
 14 13  1  0  0  0  0
 15 14  2  0  0  0  0
 16 15  1  0  0  0  0
 16 11  2  0  0  0  0
 17 11  1  0  0  0  0
 20 21  1  0  0  0  0
 22 25  1  0  0  0  0
 22 23  1  0  0  0  0
 22 20  1  0  0  0  0
 24 23  1  0  0  0  0
 25 26  1  0  0  0  0
 27 22  1  0  0  0  0
 28 27  1  0  0  0  0
 28 35  1  0  0  0  0
 29 28  2  0  0  0  0
 30 29  1  0  0  0  0
 31 29  1  0  0  0  0
 31 33  2  0  0  0  0
 32 31  1  0  0  0  0
 33 34  1  0  0  0  0
 34 35  2  0  0  0  0
M  END
>  <minimizedAffinity>
-5.53588629

$$$$

 OpenBabel03242515113D

 35 37  0  0  0  0  0  0  0  0999 V2000
   36.7620   26.2120   39.9820 C   0  0  0  0  0  0  0  0  0  0  0  0
   36.3940   24.8980   39.9530 C   0  0  0  0  0  0  0  0  0  0  0  0
   36.6410   24.0000   40.9580 C   0  0  0  0  0  0  0  0  0  0  0  0
   37.3070   24.4390   42.0840 C   0  0  0  0  0  0  0  0  0  0  0  0
   37.6890   25.7470   42.1460 C   0  0  0  0  0  0  0  0  0  0  0  0
   37.4270   26.6380   41.1140 C   0  0  0  0  0  0  0  0  0  0  0  0
   35.8650   24.5070   39.0820 H   0  0  0  0  0  0  0  0  0  0  0  0
   36.3500   22.9590   40.9380 H   0  0  0  0  0  0  0  0  0  0  0  0
   37.5170   23.7510   42.8980 H   0  0  0  0  0  0  0  0  0  0  0  0
   38.2120   26.0490   43.0550 H   0  0  0  0  0  0  0  0  0  0  0  0
   35.3140   29.0160   38.1180 C   0  0  0  0  0  0  0  0  0  0  0  0
   35.8860   28.8920   36.8570 C   0  0  0  0  0  0  0  0  0  0  0  0
   36.7760   27.8390   36.6410 C   0  0  0  0  0  0  0  0  0  0  0  0
   37.0680   26.9590   37.6510 N   0  0  0  0  0  0  0  0  0  0  0  0
   36.4750   27.1270   38.8860 C   0  0  0  0  0  0  0  0  0  0  0  0
   35.6280   28.1390   39.0720 N   0  0  0  0  0  0  0  0  0  0  0  0
   34.6190   29.8330   38.3020 H   0  0  0  0  0  0  0  0  0  0  0  0
   35.6720   29.5630   36.0600 H   0  0  0  0  0  0  0  0  0  0  0  0
   37.2760   27.6560   35.6860 H   0  0  0  0  0  0  0  0  0  0  0  0
   37.8850   27.9530   41.3320 N   0  0  0  0  0  0  0  0  0  0  0  0
   38.8370   28.0790   40.9170 H   0  0  0  0  0  0  0  0  0  0  0  0
   37.1950   29.3010   42.1090 S   0  0  0  0  0  0  0  0  0  0  0  0
   35.7420   29.4430   41.6450 O   0  0  0  0  0  0  0  0  0  0  0  0
   35.3680   30.3470   41.5020 H   0  0  0  0  0  0  0  0  0  0  0  0
   37.2020   29.2270   43.6010 O   0  0  0  0  0  0  0  0  0  0  0  0
   36.4070   29.2570   44.2000 H   0  0  0  0  0  0  0  0  0  0  0  0
   37.9910   30.6690   41.5220 O   0  0  0  0  0  0  0  0  0  0  0  0
   38.1440   30.8840   40.1610 C   0  0  0  0  0  0  0  0  0  0  0  0
   37.3460   31.9450   39.7250 C   0  0  0  0  0  0  0  0  0  0  0  0
   36.6810   32.5450   40.3340 H   0  0  0  0  0  0  0  0  0  0  0  0
   37.3650   32.3130   38.3770 C   0  0  0  0  0  0  0  0  0  0  0  0
   36.7640   33.1290   37.9840 H   0  0  0  0  0  0  0  0  0  0  0  0
   38.1740   31.6170   37.5160 C   0  0  0  0  0  3  0  0  0  0  0  0
   38.9450   30.5770   37.9950 C   0  0  0  0  0  3  0  0  0  0  0  0
   38.9230   30.2310   39.2760 N   0  0  0  0  0  0  0  0  0  0  0  0
  1  6  1  0  0  0  0
  2  1  2  0  0  0  0
  2  3  1  0  0  0  0
  3  4  2  0  0  0  0
  4  5  1  0  0  0  0
  4  9  1  0  0  0  0
  5 10  1  0  0  0  0
  6 20  1  0  0  0  0
  6  5  2  0  0  0  0
  7  2  1  0  0  0  0
  8  3  1  0  0  0  0
 11 17  1  0  0  0  0
 11 16  1  0  0  0  0
 12 11  2  0  0  0  0
 13 12  1  0  0  0  0
 13 14  2  0  0  0  0
 14 15  1  0  0  0  0
 15 16  2  0  0  0  0
 15  1  1  0  0  0  0
 18 12  1  0  0  0  0
 19 13  1  0  0  0  0
 20 22  1  0  0  0  0
 21 20  1  0  0  0  0
 22 25  1  0  0  0  0
 23 22  1  0  0  0  0
 24 23  1  0  0  0  0
 25 26  1  0  0  0  0
 27 22  1  0  0  0  0
 28 27  1  0  0  0  0
 29 28  1  0  0  0  0
 29 30  1  0  0  0  0
 31 29  2  0  0  0  0
 32 31  1  0  0  0  0
 33 34  2  0  0  0  0
 33 31  1  0  0  0  0
 34 35  1  0  0  0  0
 35 28  2  0  0  0  0
M  END
>  <minimizedAffinity>
-5.51388693

$$$$

 OpenBabel03242515113D

 35 37  0  0  0  0  0  0  0  0999 V2000
   36.1560   28.1130   39.0990 C   0  0  0  0  0  0  0  0  0  0  0  0
   35.3640   27.3200   38.3200 C   0  0  0  0  0  0  0  0  0  0  0  0
   34.8250   27.7010   37.1190 C   0  0  0  0  0  0  0  0  0  0  0  0
   35.0920   28.9710   36.6520 C   0  0  0  0  0  0  0  0  0  0  0  0
   35.8820   29.7900   37.4050 C   0  0  0  0  0  0  0  0  0  0  0  0
   36.4160   29.3800   38.6190 C   0  0  0  0  0  0  0  0  0  0  0  0
   35.1250   26.3070   38.6510 H   0  0  0  0  0  0  0  0  0  0  0  0
   34.1970   27.0750   36.5000 H   0  0  0  0  0  0  0  0  0  0  0  0
   34.6800   29.3030   35.7020 H   0  0  0  0  0  0  0  0  0  0  0  0
   36.0660   30.7850   36.9950 H   0  0  0  0  0  0  0  0  0  0  0  0
   38.2500   26.3060   41.5030 C   0  0  0  0  0  0  0  0  0  0  0  0
   37.7870   26.7560   42.7340 C   0  0  0  0  0  0  0  0  0  0  0  0
   36.7470   27.6870   42.7440 C   0  0  0  0  0  0  0  0  0  0  0  0
   36.2080   28.1360   41.5660 N   0  0  0  0  0  0  0  0  0  0  0  0
   36.7040   27.6580   40.3700 C   0  0  0  0  0  0  0  0  0  0  0  0
   37.6970   26.7700   40.3830 N   0  0  0  0  0  0  0  0  0  0  0  0
   39.0610   25.5800   41.4810 H   0  0  0  0  0  0  0  0  0  0  0  0
   38.1920   26.4200   43.6590 H   0  0  0  0  0  0  0  0  0  0  0  0
   36.3140   28.1010   43.6580 H   0  0  0  0  0  0  0  0  0  0  0  0
   37.2100   30.3420   39.2750 N   0  0  0  0  0  0  0  0  0  0  0  0
   38.1580   30.3900   38.8380 H   0  0  0  0  0  0  0  0  0  0  0  0
   36.9080   31.3860   40.5860 S   0  0  0  0  0  0  0  0  0  0  0  0
   36.7180   32.8070   40.0480 O   0  0  0  0  0  0  0  0  0  0  0  0
   37.0760   33.5700   40.5640 H   0  0  0  0  0  0  0  0  0  0  0  0
   35.7060   31.0300   41.3980 O   0  0  0  0  0  0  0  0  0  0  0  0
   34.9100   31.6060   41.5620 H   0  0  0  0  0  0  0  0  0  0  0  0
   38.3220   31.4390   41.5080 O   0  0  0  0  0  0  0  0  0  0  0  0
   39.2920   30.4550   41.3970 C   0  0  0  0  0  0  0  0  0  0  0  0
   39.6810   29.9860   42.6550 C   0  0  0  0  0  0  0  0  0  0  0  0
   39.3030   30.3190   43.6130 H   0  0  0  0  0  0  0  0  0  0  0  0
   40.6540   28.9860   42.7460 C   0  0  0  0  0  0  0  0  0  0  0  0
   40.9940   28.5860   43.6970 H   0  0  0  0  0  0  0  0  0  0  0  0
   41.2000   28.4920   41.5900 C   0  0  0  0  0  3  0  0  0  0  0  0
   40.7830   28.9870   40.3710 C   0  0  0  0  0  3  0  0  0  0  0  0
   39.8580   29.9370   40.2900 N   0  0  0  0  0  0  0  0  0  0  0  0
  1 15  1  0  0  0  0
  2  7  1  0  0  0  0
  2  1  2  0  0  0  0
  3  2  1  0  0  0  0
  4  3  2  0  0  0  0
  4  5  1  0  0  0  0
  5  6  2  0  0  0  0
  6  1  1  0  0  0  0
  6 20  1  0  0  0  0
  8  3  1  0  0  0  0
  9  4  1  0  0  0  0
 10  5  1  0  0  0  0
 11 12  1  0  0  0  0
 12 13  2  0  0  0  0
 12 18  1  0  0  0  0
 13 19  1  0  0  0  0
 14 13  1  0  0  0  0
 15 16  1  0  0  0  0
 15 14  2  0  0  0  0
 16 11  2  0  0  0  0
 17 11  1  0  0  0  0
 20 22  1  0  0  0  0
 21 20  1  0  0  0  0
 22 25  1  0  0  0  0
 22 27  1  0  0  0  0
 23 24  1  0  0  0  0
 23 22  1  0  0  0  0
 25 26  1  0  0  0  0
 28 27  1  0  0  0  0
 28 29  1  0  0  0  0
 29 31  2  0  0  0  0
 29 30  1  0  0  0  0
 31 32  1  0  0  0  0
 33 31  1  0  0  0  0
 34 33  2  0  0  0  0
 35 34  1  0  0  0  0
 35 28  2  0  0  0  0
M  END
>  <minimizedAffinity>
-5.46407843

$$$$
