
 OpenBabel03242517583D

 42 44  0  0  0  0  0  0  0  0999 V2000
   37.7140   30.3290   38.8640 O   0  0  0  0  0  0  0  0  0  0  0  0
   39.1010   31.6690   40.4000 C   0  0  0  0  0  0  0  0  0  0  0  0
   38.1070   31.5050   39.4970 C   0  0  0  0  0  0  0  0  0  0  0  0
   37.3720   32.6130   39.1280 C   0  0  0  0  0  0  0  0  0  0  0  0
   37.6090   33.8690   39.6370 C   0  0  0  0  0  0  0  0  0  0  0  0
   38.6280   34.0240   40.5570 C   0  0  0  0  0  0  0  0  0  0  0  0
   39.3670   32.9120   40.9300 C   0  0  0  0  0  0  0  0  0  0  0  0
   36.5600   32.5740   38.4150 H   0  0  0  0  0  0  0  0  0  0  0  0
   37.0330   34.7360   39.3480 H   0  0  0  0  0  0  0  0  0  0  0  0
   38.8230   35.0040   40.9620 H   0  0  0  0  0  0  0  0  0  0  0  0
   40.1720   32.9980   41.6480 H   0  0  0  0  0  0  0  0  0  0  0  0
   39.9230   30.2100   40.9010 S   0  0  0  0  0  0  0  0  0  0  0  0
   41.2430   30.4360   41.5150 O   0  0  0  0  0  0  0  0  0  0  0  0
   40.2280   29.4470   39.5890 O   0  0  0  0  0  0  0  0  0  0  0  0
   38.8630   29.0900   41.7230 C   0  0  0  0  0  0  0  0  0  0  0  0
   38.2890   29.4450   42.9270 C   0  0  0  0  0  0  0  0  0  0  0  0
   38.5200   30.4250   43.3250 H   0  0  0  0  0  0  0  0  0  0  0  0
   37.4660   28.5020   43.5060 C   0  0  0  0  0  0  0  0  0  0  0  0
   37.0040   28.7530   44.4470 H   0  0  0  0  0  0  0  0  0  0  0  0
   37.2810   27.3000   42.8580 C   0  0  0  0  0  3  0  0  0  0  0  0
   37.8610   26.9570   41.6540 C   0  0  0  0  0  3  0  0  0  0  0  0
   38.6520   27.9150   41.1360 N   0  0  0  0  0  0  0  0  0  0  0  0
   34.5890   29.1020   39.9580 C   0  0  0  0  0  0  0  0  0  0  0  0
   33.9100   28.8780   38.7430 C   0  0  0  0  0  0  0  0  0  0  0  0
   34.5400   29.1540   37.5570 C   0  0  0  0  0  0  0  0  0  0  0  0
   35.7930   29.6310   37.6480 N   0  0  0  0  0  0  0  0  0  0  0  0
   36.4300   29.8410   38.7890 C   0  0  0  0  0  0  0  0  0  0  0  0
   35.8300   29.5770   39.9450 N   0  0  0  0  0  0  0  0  0  0  0  0
   34.0970   28.8870   40.8940 H   0  0  0  0  0  0  0  0  0  0  0  0
   32.9130   28.4910   38.8430 H   0  0  0  0  0  0  0  0  0  0  0  0
   33.9320   28.9370   36.2410 C   0  0  0  0  0  0  0  0  0  0  0  0
   34.2990   27.9730   35.8310 H   0  0  0  0  0  0  0  0  0  0  0  0
   34.2740   29.7480   35.5400 H   0  0  0  0  0  0  0  0  0  0  0  0
   32.4370   28.8640   36.2950 C   0  0  0  0  0  0  0  0  0  0  0  0
   32.2060   28.6550   37.3910 H   0  0  0  0  0  0  0  0  0  0  0  0
   31.9950   28.0130   35.7740 H   0  0  0  0  0  0  0  0  0  0  0  0
   31.7640   30.1220   35.9930 C   0  0  0  0  0  3  0  0  0  0  0  0
   30.8770   30.9700   36.4980 C   0  0  0  0  0  3  0  0  0  0  0  0
   30.3060   32.2030   35.8230 C   0  0  0  0  0  0  0  0  0  0  0  0
   30.4090   33.0100   36.5600 H   0  0  0  0  0  0  0  0  0  0  0  0
   29.2150   32.0160   35.6140 H   0  0  0  0  0  0  0  0  0  0  0  0
   30.8930   32.3390   34.9040 H   0  0  0  0  0  0  0  0  0  0  0  0
  1  3  1  0  0  0  0
  2 12  1  0  0  0  0
  2  7  1  0  0  0  0
  3  2  2  0  0  0  0
  4  3  1  0  0  0  0
  4  5  2  0  0  0  0
  5  6  1  0  0  0  0
  6  7  2  0  0  0  0
  6 10  1  0  0  0  0
  7 11  1  0  0  0  0
  8  4  1  0  0  0  0
  9  5  1  0  0  0  0
 12 13  2  0  0  0  0
 12 15  1  0  0  0  0
 14 12  2  0  0  0  0
 15 16  1  0  0  0  0
 16 17  1  0  0  0  0
 16 18  2  0  0  0  0
 18 19  1  0  0  0  0
 20 18  1  0  0  0  0
 21 20  2  0  0  0  0
 22 21  1  0  0  0  0
 22 15  2  0  0  0  0
 23 29  1  0  0  0  0
 24 30  1  0  0  0  0
 24 23  2  0  0  0  0
 25 26  2  0  0  0  0
 25 24  1  0  0  0  0
 26 27  1  0  0  0  0
 27  1  1  0  0  0  0
 27 28  2  0  0  0  0
 28 23  1  0  0  0  0
 31 34  1  0  0  0  0
 31 25  1  0  0  0  0
 32 31  1  0  0  0  0
 33 31  1  0  0  0  0
 34 35  1  0  0  0  0
 36 34  1  0  0  0  0
 37 34  1  0  0  0  0
 37 38  2  0  0  0  0
 39 38  1  0  0  0  0
 39 40  1  0  0  0  0
 41 39  1  0  0  0  0
 42 39  1  0  0  0  0
M  END
>  <minimizedAffinity>
-5.83439302

$$$$

 OpenBabel03242517583D

 42 44  0  0  0  0  0  0  0  0999 V2000
   40.0870   29.7750   39.9040 O   0  0  0  0  0  0  0  0  0  0  0  0
   38.5850   31.4420   38.8810 C   0  0  0  0  0  0  0  0  0  0  0  0
   39.0660   30.1890   39.0510 C   0  0  0  0  0  0  0  0  0  0  0  0
   38.5090   29.1690   38.3060 C   0  0  0  0  0  0  0  0  0  0  0  0
   37.4930   29.3750   37.4020 C   0  0  0  0  0  0  0  0  0  0  0  0
   37.0110   30.6600   37.2370 C   0  0  0  0  0  0  0  0  0  0  0  0
   37.5680   31.6850   37.9840 C   0  0  0  0  0  0  0  0  0  0  0  0
   38.8310   28.1400   38.3790 H   0  0  0  0  0  0  0  0  0  0  0  0
   37.0570   28.5770   36.8200 H   0  0  0  0  0  0  0  0  0  0  0  0
   36.2140   30.8320   36.5310 H   0  0  0  0  0  0  0  0  0  0  0  0
   37.2140   32.7010   37.8790 H   0  0  0  0  0  0  0  0  0  0  0  0
   39.2610   32.6670   39.9290 S   0  0  0  0  0  0  0  0  0  0  0  0
   39.1130   32.3870   41.3670 O   0  0  0  0  0  0  0  0  0  0  0  0
   38.3990   33.9280   39.6850 O   0  0  0  0  0  0  0  0  0  0  0  0
   40.8370   33.2080   39.3990 C   0  0  0  0  0  0  0  0  0  0  0  0
   41.7780   33.5990   40.3300 C   0  0  0  0  0  0  0  0  0  0  0  0
   41.5000   33.5540   41.3760 H   0  0  0  0  0  0  0  0  0  0  0  0
   42.9930   34.0120   39.8260 C   0  0  0  0  0  0  0  0  0  0  0  0
   43.7470   34.3220   40.5300 H   0  0  0  0  0  0  0  0  0  0  0  0
   43.1780   34.0050   38.4600 C   0  0  0  0  0  3  0  0  0  0  0  0
   42.2280   33.6120   37.5390 C   0  0  0  0  0  3  0  0  0  0  0  0
   41.0630   33.2200   38.0880 N   0  0  0  0  0  0  0  0  0  0  0  0
   40.8740   27.5810   42.5550 C   0  0  0  0  0  0  0  0  0  0  0  0
   39.7040   27.6250   43.3420 C   0  0  0  0  0  0  0  0  0  0  0  0
   38.6560   28.4140   42.9470 C   0  0  0  0  0  0  0  0  0  0  0  0
   38.8280   29.1040   41.8080 N   0  0  0  0  0  0  0  0  0  0  0  0
   39.9270   29.0630   41.0690 C   0  0  0  0  0  0  0  0  0  0  0  0
   40.9500   28.3010   41.4420 N   0  0  0  0  0  0  0  0  0  0  0  0
   41.7020   26.9610   42.8630 H   0  0  0  0  0  0  0  0  0  0  0  0
   39.7240   27.0110   44.2230 H   0  0  0  0  0  0  0  0  0  0  0  0
   37.3900   28.5140   43.6800 C   0  0  0  0  0  0  0  0  0  0  0  0
   36.7820   29.3310   43.2360 H   0  0  0  0  0  0  0  0  0  0  0  0
   37.6040   28.8020   44.7460 H   0  0  0  0  0  0  0  0  0  0  0  0
   36.5760   27.2590   43.6120 C   0  0  0  0  0  0  0  0  0  0  0  0
   35.5240   27.6200   43.3590 H   0  0  0  0  0  0  0  0  0  0  0  0
   36.4450   26.7380   44.5620 H   0  0  0  0  0  0  0  0  0  0  0  0
   36.9470   26.3620   42.5240 C   0  0  0  0  0  3  0  0  0  0  0  0
   36.9530   25.0750   42.1980 C   0  0  0  0  0  3  0  0  0  0  0  0
   37.5390   24.4550   40.9440 C   0  0  0  0  0  0  0  0  0  0  0  0
   36.7510   23.8000   40.5490 H   0  0  0  0  0  0  0  0  0  0  0  0
   38.4320   23.8370   41.2420 H   0  0  0  0  0  0  0  0  0  0  0  0
   37.8090   25.2970   40.2920 H   0  0  0  0  0  0  0  0  0  0  0  0
  1 27  1  0  0  0  0
  2  3  1  0  0  0  0
  2 12  1  0  0  0  0
  3  1  1  0  0  0  0
  4  8  1  0  0  0  0
  4  3  2  0  0  0  0
  5  4  1  0  0  0  0
  6  5  2  0  0  0  0
  6  7  1  0  0  0  0
  7  2  2  0  0  0  0
  9  5  1  0  0  0  0
 10  6  1  0  0  0  0
 11  7  1  0  0  0  0
 12 13  2  0  0  0  0
 14 12  2  0  0  0  0
 15 12  1  0  0  0  0
 15 16  1  0  0  0  0
 16 17  1  0  0  0  0
 18 16  2  0  0  0  0
 18 19  1  0  0  0  0
 20 18  1  0  0  0  0
 21 22  1  0  0  0  0
 21 20  2  0  0  0  0
 22 15  2  0  0  0  0
 23 29  1  0  0  0  0
 23 24  1  0  0  0  0
 24 30  1  0  0  0  0
 25 24  2  0  0  0  0
 25 31  1  0  0  0  0
 26 25  1  0  0  0  0
 27 28  1  0  0  0  0
 27 26  2  0  0  0  0
 28 23  2  0  0  0  0
 31 33  1  0  0  0  0
 32 31  1  0  0  0  0
 34 31  1  0  0  0  0
 34 36  1  0  0  0  0
 35 34  1  0  0  0  0
 37 34  1  0  0  0  0
 38 37  2  0  0  0  0
 39 41  1  0  0  0  0
 39 38  1  0  0  0  0
 40 39  1  0  0  0  0
 42 39  1  0  0  0  0
M  END
>  <minimizedAffinity>
-5.60696554

$$$$

 OpenBabel03242517583D

 42 44  0  0  0  0  0  0  0  0999 V2000
   35.9810   27.9320   39.9440 O   0  0  0  0  0  0  0  0  0  0  0  0
   37.4700   29.5690   41.0310 C   0  0  0  0  0  0  0  0  0  0  0  0
   36.7230   28.4410   41.0070 C   0  0  0  0  0  0  0  0  0  0  0  0
   36.6590   27.6760   42.1530 C   0  0  0  0  0  0  0  0  0  0  0  0
   37.3170   28.0140   43.3130 C   0  0  0  0  0  0  0  0  0  0  0  0
   38.0760   29.1690   43.3270 C   0  0  0  0  0  0  0  0  0  0  0  0
   38.1420   29.9380   42.1760 C   0  0  0  0  0  0  0  0  0  0  0  0
   36.0880   26.7610   42.2230 H   0  0  0  0  0  0  0  0  0  0  0  0
   37.2670   27.4140   44.2100 H   0  0  0  0  0  0  0  0  0  0  0  0
   38.5960   29.4420   44.2300 H   0  0  0  0  0  0  0  0  0  0  0  0
   38.7270   30.8480   42.1520 H   0  0  0  0  0  0  0  0  0  0  0  0
   37.5930   30.4350   39.5180 S   0  0  0  0  0  0  0  0  0  0  0  0
   36.3550   30.4450   38.7200 O   0  0  0  0  0  0  0  0  0  0  0  0
   38.5990   29.6230   38.6690 O   0  0  0  0  0  0  0  0  0  0  0  0
   38.4230   31.9640   39.6850 C   0  0  0  0  0  0  0  0  0  0  0  0
   37.7180   33.0940   40.0470 C   0  0  0  0  0  0  0  0  0  0  0  0
   36.6530   32.9890   40.2180 H   0  0  0  0  0  0  0  0  0  0  0  0
   38.4500   34.2570   40.1550 C   0  0  0  0  0  0  0  0  0  0  0  0
   37.9250   35.1540   40.4360 H   0  0  0  0  0  0  0  0  0  0  0  0
   39.8050   34.2100   39.9010 C   0  0  0  0  0  3  0  0  0  0  0  0
   40.4990   33.0730   39.5400 C   0  0  0  0  0  3  0  0  0  0  0  0
   39.7330   31.9700   39.4500 N   0  0  0  0  0  0  0  0  0  0  0  0
   36.8190   25.9940   37.1140 C   0  0  0  0  0  0  0  0  0  0  0  0
   36.9150   24.6950   37.6550 C   0  0  0  0  0  0  0  0  0  0  0  0
   36.6880   24.5040   38.9930 C   0  0  0  0  0  0  0  0  0  0  0  0
   36.3840   25.6010   39.7070 N   0  0  0  0  0  0  0  0  0  0  0  0
   36.2950   26.8200   39.1990 C   0  0  0  0  0  0  0  0  0  0  0  0
   36.5120   27.0180   37.9030 N   0  0  0  0  0  0  0  0  0  0  0  0
   36.9960   26.1500   36.0620 H   0  0  0  0  0  0  0  0  0  0  0  0
   37.1640   23.9250   36.9490 H   0  0  0  0  0  0  0  0  0  0  0  0
   36.7410   23.1940   39.6500 C   0  0  0  0  0  0  0  0  0  0  0  0
   36.4830   22.4100   38.9070 H   0  0  0  0  0  0  0  0  0  0  0  0
   35.9610   23.1560   40.4580 H   0  0  0  0  0  0  0  0  0  0  0  0
   38.0990   22.8690   40.1940 C   0  0  0  0  0  0  0  0  0  0  0  0
   38.8150   23.1670   39.3580 H   0  0  0  0  0  0  0  0  0  0  0  0
   38.3000   21.8060   40.3350 H   0  0  0  0  0  0  0  0  0  0  0  0
   38.4920   23.6760   41.3430 C   0  0  0  0  0  3  0  0  0  0  0  0
   39.4770   24.4530   41.7750 C   0  0  0  0  0  3  0  0  0  0  0  0
   39.6040   25.0880   43.1470 C   0  0  0  0  0  0  0  0  0  0  0  0
   39.8330   26.1450   42.9570 H   0  0  0  0  0  0  0  0  0  0  0  0
   40.4690   24.6020   43.6800 H   0  0  0  0  0  0  0  0  0  0  0  0
   38.6440   24.9070   43.6490 H   0  0  0  0  0  0  0  0  0  0  0  0
  1  3  1  0  0  0  0
  2  7  1  0  0  0  0
  3  2  2  0  0  0  0
  3  4  1  0  0  0  0
  4  8  1  0  0  0  0
  4  5  2  0  0  0  0
  5  6  1  0  0  0  0
  5  9  1  0  0  0  0
  6 10  1  0  0  0  0
  7  6  2  0  0  0  0
 11  7  1  0  0  0  0
 12 15  1  0  0  0  0
 12  2  1  0  0  0  0
 13 12  2  0  0  0  0
 14 12  2  0  0  0  0
 15 16  1  0  0  0  0
 16 18  2  0  0  0  0
 16 17  1  0  0  0  0
 18 19  1  0  0  0  0
 20 18  1  0  0  0  0
 21 20  2  0  0  0  0
 22 21  1  0  0  0  0
 22 15  2  0  0  0  0
 23 24  2  0  0  0  0
 23 28  1  0  0  0  0
 24 25  1  0  0  0  0
 25 31  1  0  0  0  0
 25 26  2  0  0  0  0
 27 26  1  0  0  0  0
 27  1  1  0  0  0  0
 28 27  2  0  0  0  0
 29 23  1  0  0  0  0
 30 24  1  0  0  0  0
 31 34  1  0  0  0  0
 31 33  1  0  0  0  0
 32 31  1  0  0  0  0
 34 36  1  0  0  0  0
 34 37  1  0  0  0  0
 35 34  1  0  0  0  0
 37 38  2  0  0  0  0
 38 39  1  0  0  0  0
 39 42  1  0  0  0  0
 39 41  1  0  0  0  0
 40 39  1  0  0  0  0
M  END
>  <minimizedAffinity>
-5.37992239

$$$$

 OpenBabel03242517583D

 42 44  0  0  0  0  0  0  0  0999 V2000
   38.1540   26.8700   38.9270 O   0  0  0  0  0  0  0  0  0  0  0  0
   38.0280   26.6320   41.3780 C   0  0  0  0  0  0  0  0  0  0  0  0
   37.7930   26.2270   40.1080 C   0  0  0  0  0  0  0  0  0  0  0  0
   37.1140   25.0420   39.9170 C   0  0  0  0  0  0  0  0  0  0  0  0
   36.6670   24.2610   40.9590 C   0  0  0  0  0  0  0  0  0  0  0  0
   36.9110   24.6860   42.2500 C   0  0  0  0  0  0  0  0  0  0  0  0
   37.5940   25.8770   42.4450 C   0  0  0  0  0  0  0  0  0  0  0  0
   36.8850   24.6420   38.9390 H   0  0  0  0  0  0  0  0  0  0  0  0
   36.1360   23.3330   40.8080 H   0  0  0  0  0  0  0  0  0  0  0  0
   36.5660   24.0820   43.0740 H   0  0  0  0  0  0  0  0  0  0  0  0
   37.8020   26.2380   43.4430 H   0  0  0  0  0  0  0  0  0  0  0  0
   38.9810   28.0870   41.5500 S   0  0  0  0  0  0  0  0  0  0  0  0
   40.3950   27.9360   41.1680 O   0  0  0  0  0  0  0  0  0  0  0  0
   39.0160   28.3700   43.0710 O   0  0  0  0  0  0  0  0  0  0  0  0
   38.1590   29.5060   40.9450 C   0  0  0  0  0  0  0  0  0  0  0  0
   38.8150   30.3700   40.0930 C   0  0  0  0  0  0  0  0  0  0  0  0
   39.8370   30.1320   39.8240 H   0  0  0  0  0  0  0  0  0  0  0  0
   38.0930   31.4630   39.6640 C   0  0  0  0  0  0  0  0  0  0  0  0
   38.5800   32.1540   38.9970 H   0  0  0  0  0  0  0  0  0  0  0  0
   36.7950   31.6120   40.1070 C   0  0  0  0  0  3  0  0  0  0  0  0
   36.1500   30.7400   40.9600 C   0  0  0  0  0  3  0  0  0  0  0  0
   36.9040   29.6930   41.3450 N   0  0  0  0  0  0  0  0  0  0  0  0
   37.2400   29.1830   36.4220 C   0  0  0  0  0  0  0  0  0  0  0  0
   35.8690   29.3850   36.6820 C   0  0  0  0  0  0  0  0  0  0  0  0
   35.2750   28.7180   37.7220 C   0  0  0  0  0  0  0  0  0  0  0  0
   36.0680   27.9000   38.4330 N   0  0  0  0  0  0  0  0  0  0  0  0
   37.3560   27.7110   38.1880 C   0  0  0  0  0  0  0  0  0  0  0  0
   37.9430   28.3520   37.1830 N   0  0  0  0  0  0  0  0  0  0  0  0
   37.7110   29.7060   35.6040 H   0  0  0  0  0  0  0  0  0  0  0  0
   35.3760   30.0750   36.0220 H   0  0  0  0  0  0  0  0  0  0  0  0
   33.8640   28.8730   38.0900 C   0  0  0  0  0  0  0  0  0  0  0  0
   33.6970   29.9140   38.4370 H   0  0  0  0  0  0  0  0  0  0  0  0
   33.6330   28.1930   38.9550 H   0  0  0  0  0  0  0  0  0  0  0  0
   32.9320   28.6250   36.9430 C   0  0  0  0  0  0  0  0  0  0  0  0
   32.1680   27.8870   37.3580 H   0  0  0  0  0  0  0  0  0  0  0  0
   33.3690   28.0920   36.0970 H   0  0  0  0  0  0  0  0  0  0  0  0
   32.1580   29.7930   36.5370 C   0  0  0  0  0  3  0  0  0  0  0  0
   30.9890   30.3840   36.7460 C   0  0  0  0  0  3  0  0  0  0  0  0
   30.4460   31.6090   36.0350 C   0  0  0  0  0  0  0  0  0  0  0  0
   30.1020   32.2790   36.8330 H   0  0  0  0  0  0  0  0  0  0  0  0
   29.5700   31.2900   35.4030 H   0  0  0  0  0  0  0  0  0  0  0  0
   31.2790   31.9980   35.4320 H   0  0  0  0  0  0  0  0  0  0  0  0
  1  3  1  0  0  0  0
  2 12  1  0  0  0  0
  2  7  1  0  0  0  0
  3  2  2  0  0  0  0
  4  3  1  0  0  0  0
  4  5  2  0  0  0  0
  5  6  1  0  0  0  0
  6  7  2  0  0  0  0
  6 10  1  0  0  0  0
  7 11  1  0  0  0  0
  8  4  1  0  0  0  0
  9  5  1  0  0  0  0
 12 14  2  0  0  0  0
 13 12  2  0  0  0  0
 15 22  1  0  0  0  0
 15 12  1  0  0  0  0
 16 15  2  0  0  0  0
 17 16  1  0  0  0  0
 18 16  1  0  0  0  0
 18 20  2  0  0  0  0
 19 18  1  0  0  0  0
 20 21  1  0  0  0  0
 21 22  2  0  0  0  0
 23 24  2  0  0  0  0
 23 28  1  0  0  0  0
 24 25  1  0  0  0  0
 25 31  1  0  0  0  0
 25 26  2  0  0  0  0
 27 26  1  0  0  0  0
 27  1  1  0  0  0  0
 28 27  2  0  0  0  0
 29 23  1  0  0  0  0
 30 24  1  0  0  0  0
 31 32  1  0  0  0  0
 31 33  1  0  0  0  0
 34 35  1  0  0  0  0
 34 31  1  0  0  0  0
 36 34  1  0  0  0  0
 37 38  2  0  0  0  0
 37 34  1  0  0  0  0
 39 38  1  0  0  0  0
 39 40  1  0  0  0  0
 41 39  1  0  0  0  0
 42 39  1  0  0  0  0
M  END
>  <minimizedAffinity>
-5.37414598

$$$$

 OpenBabel03242517583D

 42 44  0  0  0  0  0  0  0  0999 V2000
   40.0570   30.3580   40.1570 O   0  0  0  0  0  0  0  0  0  0  0  0
   38.3310   31.7100   39.0310 C   0  0  0  0  0  0  0  0  0  0  0  0
   39.2490   31.4800   39.9980 C   0  0  0  0  0  0  0  0  0  0  0  0
   39.4350   32.4480   40.9630 C   0  0  0  0  0  0  0  0  0  0  0  0
   38.7280   33.6280   40.9830 C   0  0  0  0  0  0  0  0  0  0  0  0
   37.7920   33.8510   39.9910 C   0  0  0  0  0  0  0  0  0  0  0  0
   37.6040   32.8800   39.0200 C   0  0  0  0  0  0  0  0  0  0  0  0
   40.1470   32.3490   41.7700 H   0  0  0  0  0  0  0  0  0  0  0  0
   38.8750   34.3850   41.7390 H   0  0  0  0  0  0  0  0  0  0  0  0
   37.2320   34.7720   39.9970 H   0  0  0  0  0  0  0  0  0  0  0  0
   36.8800   33.0220   38.2300 H   0  0  0  0  0  0  0  0  0  0  0  0
   38.2180   30.4920   37.7820 S   0  0  0  0  0  0  0  0  0  0  0  0
   39.5080   29.9020   37.3890 O   0  0  0  0  0  0  0  0  0  0  0  0
   37.7350   31.2500   36.5220 O   0  0  0  0  0  0  0  0  0  0  0  0
   36.9000   29.3750   38.0500 C   0  0  0  0  0  0  0  0  0  0  0  0
   37.0810   28.2850   38.8770 C   0  0  0  0  0  0  0  0  0  0  0  0
   38.0520   28.1600   39.3390 H   0  0  0  0  0  0  0  0  0  0  0  0
   35.9900   27.4560   39.0320 C   0  0  0  0  0  0  0  0  0  0  0  0
   36.1030   26.5970   39.6730 H   0  0  0  0  0  0  0  0  0  0  0  0
   34.8240   27.7670   38.3660 C   0  0  0  0  0  3  0  0  0  0  0  0
   34.6560   28.8610   37.5420 C   0  0  0  0  0  3  0  0  0  0  0  0
   35.7530   29.6330   37.4280 N   0  0  0  0  0  0  0  0  0  0  0  0
   41.2440   28.0630   42.5640 C   0  0  0  0  0  0  0  0  0  0  0  0
   40.0780   27.7640   43.2980 C   0  0  0  0  0  0  0  0  0  0  0  0
   38.8930   28.3600   42.9520 C   0  0  0  0  0  0  0  0  0  0  0  0
   38.9360   29.2070   41.9110 N   0  0  0  0  0  0  0  0  0  0  0  0
   40.0310   29.4880   41.2220 C   0  0  0  0  0  0  0  0  0  0  0  0
   41.1860   28.9170   41.5470 N   0  0  0  0  0  0  0  0  0  0  0  0
   42.1790   27.5970   42.8320 H   0  0  0  0  0  0  0  0  0  0  0  0
   40.2120   27.0630   44.1010 H   0  0  0  0  0  0  0  0  0  0  0  0
   37.6220   28.1020   43.6350 C   0  0  0  0  0  0  0  0  0  0  0  0
   37.1880   29.0700   43.9640 H   0  0  0  0  0  0  0  0  0  0  0  0
   37.8190   27.4950   44.5620 H   0  0  0  0  0  0  0  0  0  0  0  0
   36.6120   27.4320   42.7550 C   0  0  0  0  0  0  0  0  0  0  0  0
   36.4680   28.1590   41.8890 H   0  0  0  0  0  0  0  0  0  0  0  0
   35.6120   27.3420   43.1810 H   0  0  0  0  0  0  0  0  0  0  0  0
   37.0790   26.1930   42.1440 C   0  0  0  0  0  3  0  0  0  0  0  0
   37.0190   24.8760   42.2960 C   0  0  0  0  0  3  0  0  0  0  0  0
   37.7520   23.8280   41.4780 C   0  0  0  0  0  0  0  0  0  0  0  0
   36.9850   23.0970   41.1910 H   0  0  0  0  0  0  0  0  0  0  0  0
   38.5170   23.3360   42.1420 H   0  0  0  0  0  0  0  0  0  0  0  0
   38.2090   24.3710   40.6390 H   0  0  0  0  0  0  0  0  0  0  0  0
  1 27  1  0  0  0  0
  2  3  1  0  0  0  0
  3  1  1  0  0  0  0
  3  4  2  0  0  0  0
  4  5  1  0  0  0  0
  4  8  1  0  0  0  0
  5  9  1  0  0  0  0
  6 10  1  0  0  0  0
  6  5  2  0  0  0  0
  7  2  2  0  0  0  0
  7  6  1  0  0  0  0
 11  7  1  0  0  0  0
 12 15  1  0  0  0  0
 12  2  1  0  0  0  0
 13 12  2  0  0  0  0
 14 12  2  0  0  0  0
 15 16  1  0  0  0  0
 16 18  2  0  0  0  0
 16 17  1  0  0  0  0
 18 19  1  0  0  0  0
 20 18  1  0  0  0  0
 21 20  2  0  0  0  0
 22 21  1  0  0  0  0
 22 15  2  0  0  0  0
 23 29  1  0  0  0  0
 23 24  1  0  0  0  0
 24 30  1  0  0  0  0
 25 24  2  0  0  0  0
 25 31  1  0  0  0  0
 26 25  1  0  0  0  0
 27 28  1  0  0  0  0
 27 26  2  0  0  0  0
 28 23  2  0  0  0  0
 31 32  1  0  0  0  0
 31 33  1  0  0  0  0
 34 36  1  0  0  0  0
 34 31  1  0  0  0  0
 35 34  1  0  0  0  0
 37 38  2  0  0  0  0
 37 34  1  0  0  0  0
 39 41  1  0  0  0  0
 39 38  1  0  0  0  0
 40 39  1  0  0  0  0
 42 39  1  0  0  0  0
M  END
>  <minimizedAffinity>
-5.37065697

$$$$

 OpenBabel03242517583D

 42 44  0  0  0  0  0  0  0  0999 V2000
   35.8550   29.8480   40.7570 O   0  0  0  0  0  0  0  0  0  0  0  0
   36.4240   29.9240   38.3590 C   0  0  0  0  0  0  0  0  0  0  0  0
   35.6260   29.6060   39.4050 C   0  0  0  0  0  0  0  0  0  0  0  0
   34.4360   28.9590   39.1430 C   0  0  0  0  0  0  0  0  0  0  0  0
   34.0320   28.6250   37.8710 C   0  0  0  0  0  0  0  0  0  0  0  0
   34.8550   28.9540   36.8120 C   0  0  0  0  0  0  0  0  0  0  0  0
   36.0520   29.6050   37.0720 C   0  0  0  0  0  0  0  0  0  0  0  0
   33.7390   28.6680   39.9160 H   0  0  0  0  0  0  0  0  0  0  0  0
   33.0990   28.1190   37.6680 H   0  0  0  0  0  0  0  0  0  0  0  0
   34.5480   28.6970   35.8110 H   0  0  0  0  0  0  0  0  0  0  0  0
   36.7200   29.8770   36.2660 H   0  0  0  0  0  0  0  0  0  0  0  0
   37.8650   30.8330   38.7490 S   0  0  0  0  0  0  0  0  0  0  0  0
   37.6100   32.1320   39.3940 O   0  0  0  0  0  0  0  0  0  0  0  0
   38.4980   31.1920   37.3840 O   0  0  0  0  0  0  0  0  0  0  0  0
   39.1130   29.8400   39.4660 C   0  0  0  0  0  0  0  0  0  0  0  0
   39.1880   28.4980   39.1520 C   0  0  0  0  0  0  0  0  0  0  0  0
   38.4570   28.1020   38.4580 H   0  0  0  0  0  0  0  0  0  0  0  0
   40.2010   27.7890   39.7620 C   0  0  0  0  0  0  0  0  0  0  0  0
   40.2840   26.7400   39.5340 H   0  0  0  0  0  0  0  0  0  0  0  0
   41.0480   28.4560   40.6220 C   0  0  0  0  0  3  0  0  0  0  0  0
   40.9620   29.7990   40.9280 C   0  0  0  0  0  3  0  0  0  0  0  0
   39.9550   30.4380   40.3040 N   0  0  0  0  0  0  0  0  0  0  0  0
   38.0880   28.9810   43.3500 C   0  0  0  0  0  0  0  0  0  0  0  0
   38.0510   27.5720   43.3220 C   0  0  0  0  0  0  0  0  0  0  0  0
   37.2540   26.9360   42.4060 C   0  0  0  0  0  0  0  0  0  0  0  0
   36.5490   27.7280   41.5820 N   0  0  0  0  0  0  0  0  0  0  0  0
   36.5830   29.0520   41.6090 C   0  0  0  0  0  0  0  0  0  0  0  0
   37.3520   29.6790   42.4930 N   0  0  0  0  0  0  0  0  0  0  0  0
   38.7140   29.4850   44.0700 H   0  0  0  0  0  0  0  0  0  0  0  0
   38.6780   27.0850   44.0470 H   0  0  0  0  0  0  0  0  0  0  0  0
   37.1610   25.4780   42.2790 C   0  0  0  0  0  0  0  0  0  0  0  0
   36.1400   25.2140   41.9310 H   0  0  0  0  0  0  0  0  0  0  0  0
   37.2980   25.0110   43.2930 H   0  0  0  0  0  0  0  0  0  0  0  0
   38.1350   24.9150   41.2890 C   0  0  0  0  0  0  0  0  0  0  0  0
   38.0500   25.6080   40.3880 H   0  0  0  0  0  0  0  0  0  0  0  0
   37.8720   23.9360   40.8850 H   0  0  0  0  0  0  0  0  0  0  0  0
   39.5290   24.9980   41.7080 C   0  0  0  0  0  3  0  0  0  0  0  0
   40.3130   24.7620   42.7530 C   0  0  0  0  0  3  0  0  0  0  0  0
   41.7920   25.0770   42.8730 C   0  0  0  0  0  0  0  0  0  0  0  0
   42.2560   24.1520   43.2400 H   0  0  0  0  0  0  0  0  0  0  0  0
   41.9170   25.8940   43.6370 H   0  0  0  0  0  0  0  0  0  0  0  0
   42.1140   25.3870   41.8680 H   0  0  0  0  0  0  0  0  0  0  0  0
  1 27  1  0  0  0  0
  2 12  1  0  0  0  0
  2  3  1  0  0  0  0
  3  1  1  0  0  0  0
  4  3  2  0  0  0  0
  4  8  1  0  0  0  0
  5  4  1  0  0  0  0
  6  7  1  0  0  0  0
  6  5  2  0  0  0  0
  7  2  2  0  0  0  0
  9  5  1  0  0  0  0
 10  6  1  0  0  0  0
 11  7  1  0  0  0  0
 12 13  2  0  0  0  0
 12 15  1  0  0  0  0
 14 12  2  0  0  0  0
 15 22  1  0  0  0  0
 16 15  2  0  0  0  0
 16 18  1  0  0  0  0
 17 16  1  0  0  0  0
 18 20  2  0  0  0  0
 19 18  1  0  0  0  0
 20 21  1  0  0  0  0
 22 21  2  0  0  0  0
 23 29  1  0  0  0  0
 24 23  1  0  0  0  0
 24 30  1  0  0  0  0
 25 24  2  0  0  0  0
 26 27  2  0  0  0  0
 26 25  1  0  0  0  0
 27 28  1  0  0  0  0
 28 23  2  0  0  0  0
 31 25  1  0  0  0  0
 31 33  1  0  0  0  0
 32 31  1  0  0  0  0
 34 37  1  0  0  0  0
 34 31  1  0  0  0  0
 35 34  1  0  0  0  0
 36 34  1  0  0  0  0
 37 38  2  0  0  0  0
 38 39  1  0  0  0  0
 39 40  1  0  0  0  0
 39 41  1  0  0  0  0
 42 39  1  0  0  0  0
M  END
>  <minimizedAffinity>
-5.31464958

$$$$

 OpenBabel03242517583D

 42 44  0  0  0  0  0  0  0  0999 V2000
   36.0900   29.3810   40.5010 O   0  0  0  0  0  0  0  0  0  0  0  0
   37.3600   30.2810   38.5900 C   0  0  0  0  0  0  0  0  0  0  0  0
   36.7220   30.3890   39.7770 C   0  0  0  0  0  0  0  0  0  0  0  0
   36.6630   31.6310   40.3760 C   0  0  0  0  0  0  0  0  0  0  0  0
   37.2220   32.7560   39.8150 C   0  0  0  0  0  0  0  0  0  0  0  0
   37.8710   32.6340   38.6010 C   0  0  0  0  0  0  0  0  0  0  0  0
   37.9310   31.3870   37.9990 C   0  0  0  0  0  0  0  0  0  0  0  0
   36.1750   31.8090   41.3230 H   0  0  0  0  0  0  0  0  0  0  0  0
   37.1760   33.7280   40.2850 H   0  0  0  0  0  0  0  0  0  0  0  0
   38.3130   33.5090   38.1530 H   0  0  0  0  0  0  0  0  0  0  0  0
   38.4310   31.2550   37.0490 H   0  0  0  0  0  0  0  0  0  0  0  0
   37.4890   28.6640   37.9370 S   0  0  0  0  0  0  0  0  0  0  0  0
   38.4060   27.7810   38.6760 O   0  0  0  0  0  0  0  0  0  0  0  0
   38.1490   28.8400   36.5490 O   0  0  0  0  0  0  0  0  0  0  0  0
   35.9350   27.9880   37.5060 C   0  0  0  0  0  0  0  0  0  0  0  0
   35.6800   26.6520   37.7370 C   0  0  0  0  0  0  0  0  0  0  0  0
   36.4670   26.0590   38.1860 H   0  0  0  0  0  0  0  0  0  0  0  0
   34.4300   26.2020   37.3670 C   0  0  0  0  0  0  0  0  0  0  0  0
   34.2030   25.1620   37.5360 H   0  0  0  0  0  0  0  0  0  0  0  0
   33.5450   27.0980   36.8060 C   0  0  0  0  0  3  0  0  0  0  0  0
   33.8130   28.4330   36.5810 C   0  0  0  0  0  3  0  0  0  0  0  0
   35.0460   28.8140   36.9610 N   0  0  0  0  0  0  0  0  0  0  0  0
   37.8350   28.5560   43.4570 C   0  0  0  0  0  0  0  0  0  0  0  0
   37.8370   27.1460   43.4240 C   0  0  0  0  0  0  0  0  0  0  0  0
   37.2340   26.4960   42.3780 C   0  0  0  0  0  0  0  0  0  0  0  0
   36.6710   27.2750   41.4400 N   0  0  0  0  0  0  0  0  0  0  0  0
   36.6700   28.5980   41.4720 C   0  0  0  0  0  0  0  0  0  0  0  0
   37.2510   29.2400   42.4800 N   0  0  0  0  0  0  0  0  0  0  0  0
   38.3080   29.0720   44.2780 H   0  0  0  0  0  0  0  0  0  0  0  0
   38.3320   26.6710   44.2500 H   0  0  0  0  0  0  0  0  0  0  0  0
   37.1990   25.0370   42.2380 C   0  0  0  0  0  0  0  0  0  0  0  0
   36.2730   24.6530   42.7160 H   0  0  0  0  0  0  0  0  0  0  0  0
   38.0690   24.5920   42.7940 H   0  0  0  0  0  0  0  0  0  0  0  0
   37.1860   24.5890   40.8080 C   0  0  0  0  0  0  0  0  0  0  0  0
   38.0280   23.8230   40.7470 H   0  0  0  0  0  0  0  0  0  0  0  0
   37.4780   25.3490   40.0810 H   0  0  0  0  0  0  0  0  0  0  0  0
   35.9800   23.8680   40.4170 C   0  0  0  0  0  3  0  0  0  0  0  0
   35.4410   23.2350   39.3830 C   0  0  0  0  0  3  0  0  0  0  0  0
   34.0420   22.6550   39.2960 C   0  0  0  0  0  0  0  0  0  0  0  0
   34.1750   21.6320   38.9200 H   0  0  0  0  0  0  0  0  0  0  0  0
   33.4570   23.2610   38.5480 H   0  0  0  0  0  0  0  0  0  0  0  0
   33.6270   22.7240   40.3110 H   0  0  0  0  0  0  0  0  0  0  0  0
  1 27  1  0  0  0  0
  2  3  1  0  0  0  0
  3  4  2  0  0  0  0
  3  1  1  0  0  0  0
  4  8  1  0  0  0  0
  5  9  1  0  0  0  0
  5  4  1  0  0  0  0
  6  5  2  0  0  0  0
  7  2  2  0  0  0  0
  7  6  1  0  0  0  0
 10  6  1  0  0  0  0
 11  7  1  0  0  0  0
 12  2  1  0  0  0  0
 12 13  2  0  0  0  0
 14 12  2  0  0  0  0
 15 16  1  0  0  0  0
 15 12  1  0  0  0  0
 16 17  1  0  0  0  0
 18 19  1  0  0  0  0
 18 16  2  0  0  0  0
 20 18  1  0  0  0  0
 21 20  2  0  0  0  0
 21 22  1  0  0  0  0
 22 15  2  0  0  0  0
 23 29  1  0  0  0  0
 24 23  1  0  0  0  0
 24 30  1  0  0  0  0
 25 24  2  0  0  0  0
 26 27  2  0  0  0  0
 26 25  1  0  0  0  0
 27 28  1  0  0  0  0
 28 23  2  0  0  0  0
 31 25  1  0  0  0  0
 31 32  1  0  0  0  0
 31 33  1  0  0  0  0
 34 31  1  0  0  0  0
 35 34  1  0  0  0  0
 36 34  1  0  0  0  0
 37 34  1  0  0  0  0
 38 37  2  0  0  0  0
 39 38  1  0  0  0  0
 39 42  1  0  0  0  0
 40 39  1  0  0  0  0
 41 39  1  0  0  0  0
M  END
>  <minimizedAffinity>
-5.30905056

$$$$

 OpenBabel03242517583D

 42 44  0  0  0  0  0  0  0  0999 V2000
   38.4280   26.2820   38.6590 O   0  0  0  0  0  0  0  0  0  0  0  0
   37.2620   24.7210   40.1700 C   0  0  0  0  0  0  0  0  0  0  0  0
   37.4360   25.3620   38.9910 C   0  0  0  0  0  0  0  0  0  0  0  0
   36.5440   25.1050   37.9710 C   0  0  0  0  0  0  0  0  0  0  0  0
   35.4900   24.2310   38.1040 C   0  0  0  0  0  0  0  0  0  0  0  0
   35.3210   23.5830   39.3130 C   0  0  0  0  0  0  0  0  0  0  0  0
   36.2170   23.8390   40.3390 C   0  0  0  0  0  0  0  0  0  0  0  0
   36.6080   25.5710   36.9980 H   0  0  0  0  0  0  0  0  0  0  0  0
   34.7920   24.0300   37.3040 H   0  0  0  0  0  0  0  0  0  0  0  0
   34.4990   22.8960   39.4280 H   0  0  0  0  0  0  0  0  0  0  0  0
   36.1150   23.3490   41.2980 H   0  0  0  0  0  0  0  0  0  0  0  0
   38.4850   25.0120   41.3840 S   0  0  0  0  0  0  0  0  0  0  0  0
   39.8560   24.6840   40.9580 O   0  0  0  0  0  0  0  0  0  0  0  0
   38.1770   24.0040   42.5170 O   0  0  0  0  0  0  0  0  0  0  0  0
   38.2700   26.5410   42.2020 C   0  0  0  0  0  0  0  0  0  0  0  0
   37.0270   26.8890   42.6930 C   0  0  0  0  0  0  0  0  0  0  0  0
   36.2150   26.1870   42.5500 H   0  0  0  0  0  0  0  0  0  0  0  0
   36.9460   28.1120   43.3240 C   0  0  0  0  0  0  0  0  0  0  0  0
   35.9880   28.4090   43.7170 H   0  0  0  0  0  0  0  0  0  0  0  0
   38.0850   28.8830   43.4180 C   0  0  0  0  0  3  0  0  0  0  0  0
   39.3220   28.5240   42.9240 C   0  0  0  0  0  3  0  0  0  0  0  0
   39.3400   27.3210   42.3190 N   0  0  0  0  0  0  0  0  0  0  0  0
   39.6780   29.5440   39.1690 C   0  0  0  0  0  0  0  0  0  0  0  0
   38.5270   30.2480   39.5790 C   0  0  0  0  0  0  0  0  0  0  0  0
   37.3310   29.5870   39.6740 C   0  0  0  0  0  0  0  0  0  0  0  0
   37.3470   28.2810   39.3600 N   0  0  0  0  0  0  0  0  0  0  0  0
   38.4280   27.6200   38.9750 C   0  0  0  0  0  0  0  0  0  0  0  0
   39.5940   28.2500   38.8790 N   0  0  0  0  0  0  0  0  0  0  0  0
   40.6220   30.0600   39.0930 H   0  0  0  0  0  0  0  0  0  0  0  0
   38.6830   31.2880   39.7970 H   0  0  0  0  0  0  0  0  0  0  0  0
   36.0820   30.2200   40.1100 C   0  0  0  0  0  0  0  0  0  0  0  0
   35.7450   30.9270   39.3240 H   0  0  0  0  0  0  0  0  0  0  0  0
   36.2810   30.8240   41.0380 H   0  0  0  0  0  0  0  0  0  0  0  0
   34.9760   29.2340   40.3340 C   0  0  0  0  0  0  0  0  0  0  0  0
   34.3660   29.6860   41.1850 H   0  0  0  0  0  0  0  0  0  0  0  0
   35.2890   28.2670   40.7310 H   0  0  0  0  0  0  0  0  0  0  0  0
   34.0470   29.1120   39.2170 C   0  0  0  0  0  3  0  0  0  0  0  0
   34.0250   28.9120   37.9050 C   0  0  0  0  0  3  0  0  0  0  0  0
   32.8100   28.9450   36.9970 C   0  0  0  0  0  0  0  0  0  0  0  0
   32.8690   28.0260   36.4010 H   0  0  0  0  0  0  0  0  0  0  0  0
   32.9000   29.8420   36.3220 H   0  0  0  0  0  0  0  0  0  0  0  0
   31.9400   29.0070   37.6660 H   0  0  0  0  0  0  0  0  0  0  0  0
  1 27  1  0  0  0  0
  1  3  1  0  0  0  0
  2  7  1  0  0  0  0
  2 12  1  0  0  0  0
  3  2  2  0  0  0  0
  4  5  2  0  0  0  0
  4  3  1  0  0  0  0
  5  6  1  0  0  0  0
  6 10  1  0  0  0  0
  6  7  2  0  0  0  0
  7 11  1  0  0  0  0
  8  4  1  0  0  0  0
  9  5  1  0  0  0  0
 12 15  1  0  0  0  0
 12 14  2  0  0  0  0
 13 12  2  0  0  0  0
 15 22  2  0  0  0  0
 15 16  1  0  0  0  0
 16 18  2  0  0  0  0
 17 16  1  0  0  0  0
 18 20  1  0  0  0  0
 18 19  1  0  0  0  0
 21 20  2  0  0  0  0
 22 21  1  0  0  0  0
 23 24  1  0  0  0  0
 24 25  2  0  0  0  0
 24 30  1  0  0  0  0
 25 31  1  0  0  0  0
 26 25  1  0  0  0  0
 27 26  2  0  0  0  0
 28 27  1  0  0  0  0
 28 23  2  0  0  0  0
 29 23  1  0  0  0  0
 31 34  1  0  0  0  0
 31 33  1  0  0  0  0
 32 31  1  0  0  0  0
 34 36  1  0  0  0  0
 34 35  1  0  0  0  0
 37 34  1  0  0  0  0
 38 37  2  0  0  0  0
 39 42  1  0  0  0  0
 39 38  1  0  0  0  0
 40 39  1  0  0  0  0
 41 39  1  0  0  0  0
M  END
>  <minimizedAffinity>
-5.25295067

$$$$

 OpenBabel03242517583D

 42 44  0  0  0  0  0  0  0  0999 V2000
   38.0140   26.5800   38.7570 O   0  0  0  0  0  0  0  0  0  0  0  0
   37.2940   24.8250   40.3320 C   0  0  0  0  0  0  0  0  0  0  0  0
   37.2060   25.5270   39.1790 C   0  0  0  0  0  0  0  0  0  0  0  0
   36.2080   25.1920   38.2870 C   0  0  0  0  0  0  0  0  0  0  0  0
   35.3040   24.1830   38.5230 C   0  0  0  0  0  0  0  0  0  0  0  0
   35.4020   23.4750   39.7050 C   0  0  0  0  0  0  0  0  0  0  0  0
   36.4050   23.8090   40.6020 C   0  0  0  0  0  0  0  0  0  0  0  0
   36.0660   25.6980   37.3420 H   0  0  0  0  0  0  0  0  0  0  0  0
   34.5230   23.9220   37.8230 H   0  0  0  0  0  0  0  0  0  0  0  0
   34.6980   22.6820   39.9000 H   0  0  0  0  0  0  0  0  0  0  0  0
   36.5100   23.2750   41.5370 H   0  0  0  0  0  0  0  0  0  0  0  0
   38.6420   25.2290   41.3700 S   0  0  0  0  0  0  0  0  0  0  0  0
   39.9630   24.9160   40.8000 O   0  0  0  0  0  0  0  0  0  0  0  0
   38.5090   24.2870   42.5900 O   0  0  0  0  0  0  0  0  0  0  0  0
   38.4680   26.8000   42.1160 C   0  0  0  0  0  0  0  0  0  0  0  0
   37.3020   27.1190   42.7830 C   0  0  0  0  0  0  0  0  0  0  0  0
   36.5220   26.3680   42.8210 H   0  0  0  0  0  0  0  0  0  0  0  0
   37.2490   28.3780   43.3420 C   0  0  0  0  0  0  0  0  0  0  0  0
   36.3510   28.6540   43.8690 H   0  0  0  0  0  0  0  0  0  0  0  0
   38.3390   29.2110   43.1980 C   0  0  0  0  0  3  0  0  0  0  0  0
   39.4990   28.8800   42.5290 C   0  0  0  0  0  3  0  0  0  0  0  0
   39.4930   27.6400   42.0050 N   0  0  0  0  0  0  0  0  0  0  0  0
   37.1900   29.4840   36.9270 C   0  0  0  0  0  0  0  0  0  0  0  0
   36.8050   30.3830   37.9440 C   0  0  0  0  0  0  0  0  0  0  0  0
   36.8340   29.9740   39.2520 C   0  0  0  0  0  0  0  0  0  0  0  0
   37.2390   28.7120   39.4700 N   0  0  0  0  0  0  0  0  0  0  0  0
   37.6010   27.8690   38.5160 C   0  0  0  0  0  0  0  0  0  0  0  0
   37.5760   28.2530   37.2440 N   0  0  0  0  0  0  0  0  0  0  0  0
   37.1680   29.8020   35.8960 H   0  0  0  0  0  0  0  0  0  0  0  0
   36.5090   31.3580   37.6020 H   0  0  0  0  0  0  0  0  0  0  0  0
   36.4750   30.8350   40.3830 C   0  0  0  0  0  0  0  0  0  0  0  0
   36.8060   30.3470   41.3230 H   0  0  0  0  0  0  0  0  0  0  0  0
   35.3560   30.9290   40.4330 H   0  0  0  0  0  0  0  0  0  0  0  0
   37.1280   32.1820   40.3200 C   0  0  0  0  0  0  0  0  0  0  0  0
   36.5430   32.8120   41.0700 H   0  0  0  0  0  0  0  0  0  0  0  0
   36.9970   32.7180   39.3790 H   0  0  0  0  0  0  0  0  0  0  0  0
   38.5070   32.2020   40.7940 C   0  0  0  0  0  3  0  0  0  0  0  0
   39.7480   31.9770   40.3800 C   0  0  0  0  0  3  0  0  0  0  0  0
   41.0090   32.0020   41.2230 C   0  0  0  0  0  0  0  0  0  0  0  0
   41.7160   32.6320   40.6670 H   0  0  0  0  0  0  0  0  0  0  0  0
   41.4080   30.9510   41.2900 H   0  0  0  0  0  0  0  0  0  0  0  0
   40.7070   32.4010   42.2010 H   0  0  0  0  0  0  0  0  0  0  0  0
  1  3  1  0  0  0  0
  2  7  1  0  0  0  0
  2 12  1  0  0  0  0
  3  2  2  0  0  0  0
  4  5  2  0  0  0  0
  4  3  1  0  0  0  0
  5  6  1  0  0  0  0
  6 10  1  0  0  0  0
  6  7  2  0  0  0  0
  7 11  1  0  0  0  0
  8  4  1  0  0  0  0
  9  5  1  0  0  0  0
 12 15  1  0  0  0  0
 12 14  2  0  0  0  0
 13 12  2  0  0  0  0
 15 16  1  0  0  0  0
 16 17  1  0  0  0  0
 16 18  2  0  0  0  0
 18 19  1  0  0  0  0
 20 18  1  0  0  0  0
 21 20  2  0  0  0  0
 22 15  2  0  0  0  0
 22 21  1  0  0  0  0
 23 28  2  0  0  0  0
 23 24  1  0  0  0  0
 24 25  2  0  0  0  0
 25 26  1  0  0  0  0
 25 31  1  0  0  0  0
 27  1  1  0  0  0  0
 27 26  2  0  0  0  0
 28 27  1  0  0  0  0
 29 23  1  0  0  0  0
 30 24  1  0  0  0  0
 31 33  1  0  0  0  0
 31 32  1  0  0  0  0
 34 31  1  0  0  0  0
 34 37  1  0  0  0  0
 34 35  1  0  0  0  0
 36 34  1  0  0  0  0
 38 37  2  0  0  0  0
 38 39  1  0  0  0  0
 39 41  1  0  0  0  0
 39 42  1  0  0  0  0
 40 39  1  0  0  0  0
M  END
>  <minimizedAffinity>
-5.24350929

$$$$
