
 OpenBabel03252506123D

 35 37  0  0  0  0  0  0  0  0999 V2000
   45.2670   33.5490   41.1360 F   0  0  0  0  0  0  0  0  0  0  0  0
   46.4370   34.1680   41.0550 C   0  0  0  0  0  0  0  0  0  0  0  0
   46.8980   34.8620   42.1480 C   0  0  0  0  0  0  0  0  0  0  0  0
   48.1240   35.5390   42.1540 C   0  0  0  0  0  0  0  0  0  0  0  0
   48.9230   35.5160   41.0110 C   0  0  0  0  0  0  0  0  0  0  0  0
   48.4250   34.8100   39.9420 C   0  0  0  0  0  0  0  0  0  0  0  0
   47.2390   34.1490   39.9180 C   0  0  0  0  0  0  0  0  0  0  0  0
   48.4200   36.0670   43.0580 H   0  0  0  0  0  0  0  0  0  0  0  0
   49.8590   36.0520   41.0650 H   0  0  0  0  0  0  0  0  0  0  0  0
   49.1400   34.8620   39.1270 H   0  0  0  0  0  0  0  0  0  0  0  0
   45.5020   33.9630   45.4220 C   0  0  0  0  0  0  0  0  0  0  0  0
   44.6170   35.0550   45.6580 C   0  0  0  0  0  0  0  0  0  0  0  0
   44.5100   36.0920   44.6870 C   0  0  0  0  0  0  0  0  0  0  0  0
   45.2830   35.9600   43.5720 N   0  0  0  0  0  0  0  0  0  0  0  0
   46.1020   34.9220   43.3810 C   0  0  0  0  0  0  0  0  0  0  0  0
   46.2080   33.9410   44.2940 N   0  0  0  0  0  0  0  0  0  0  0  0
   44.0340   35.0900   46.5720 H   0  0  0  0  0  0  0  0  0  0  0  0
   43.8480   36.9140   44.8590 H   0  0  0  0  0  0  0  0  0  0  0  0
   45.5920   32.9500   46.3980 N   0  0  0  0  0  0  0  0  0  0  0  0
   45.5370   31.9300   46.1220 H   0  0  0  0  0  0  0  0  0  0  0  0
   45.7150   33.2470   47.4030 H   0  0  0  0  0  0  0  0  0  0  0  0
   46.8290   33.4740   38.7980 O   0  0  0  0  0  0  0  0  0  0  0  0
   48.4160   34.6240   37.0240 O   0  0  0  0  0  0  0  0  0  0  0  0
   47.6620   33.3500   37.3460 P   0  0  2  0  0  0  0  0  0  0  0  0
   46.5170   33.0250   36.1160 O   0  0  0  0  0  0  0  0  0  0  0  0
   46.9740   32.9450   35.2390 H   0  0  0  0  0  0  0  0  0  0  0  0
   48.7400   32.0580   37.2830 O   0  0  0  0  0  0  0  0  0  0  0  0
   49.8400   31.8360   38.0590 C   0  0  0  0  0  0  0  0  0  0  0  0
   49.9300   31.6310   39.4270 C   0  0  0  0  0  0  0  0  0  0  0  0
   48.9930   31.6540   39.9280 H   0  0  0  0  0  0  0  0  0  0  0  0
   51.1550   31.4210   40.0230 C   0  0  0  0  0  0  0  0  0  0  0  0
   51.1650   31.2660   41.1070 H   0  0  0  0  0  0  0  0  0  0  0  0
   52.3370   31.4060   39.2980 C   0  0  0  0  0  3  0  0  0  0  0  0
   52.1900   31.6140   37.9510 C   0  0  0  0  0  3  0  0  0  0  0  0
   51.0040   31.8210   37.3460 N   0  0  0  0  0  0  0  0  0  0  0  0
  2  1  1  0  0  0  0
  2  3  1  0  0  0  0
  3  4  2  0  0  0  0
  3 15  1  0  0  0  0
  4  8  1  0  0  0  0
  5  9  1  0  0  0  0
  5  4  1  0  0  0  0
  6  5  2  0  0  0  0
  7  6  1  0  0  0  0
  7  2  2  0  0  0  0
 10  6  1  0  0  0  0
 11 12  1  0  0  0  0
 11 19  1  0  0  0  0
 12 17  1  0  0  0  0
 13 18  1  0  0  0  0
 13 12  2  0  0  0  0
 14 13  1  0  0  0  0
 15 14  2  0  0  0  0
 15 16  1  0  0  0  0
 16 11  2  0  0  0  0
 19 21  1  0  0  0  0
 20 19  1  0  0  0  0
 22  7  1  0  0  0  0
 24 23  2  6  0  0  0
 24 22  1  0  0  0  0
 25 24  1  0  0  0  0
 26 25  1  0  0  0  0
 27 24  1  0  0  0  0
 27 28  1  0  0  0  0
 28 29  1  0  0  0  0
 29 30  1  0  0  0  0
 29 31  2  0  0  0  0
 31 32  1  0  0  0  0
 33 31  1  0  0  0  0
 34 33  2  0  0  0  0
 35 34  1  0  0  0  0
 35 28  2  0  0  0  0
M  END
>  <minimizedAffinity>
-6.4268837

>  <minimizedRMSD>
1.73809659

$$$$
