
 OpenBabel03242515093D

 35 37  0  0  0  0  0  0  0  0999 V2000
   45.6770   33.7660   45.8430 C   0  0  0  0  0  0  0  0  0  0  0  0
   44.8040   34.8120   45.9150 C   0  0  0  0  0  0  0  0  0  0  0  0
   44.5280   35.6660   44.8790 C   0  0  0  0  0  0  0  0  0  0  0  0
   45.1690   35.4670   43.6740 C   0  0  0  0  0  0  0  0  0  0  0  0
   46.0490   34.4300   43.5680 C   0  0  0  0  0  0  0  0  0  0  0  0
   46.3120   33.5780   44.6320 C   0  0  0  0  0  0  0  0  0  0  0  0
   44.2730   35.0070   46.8490 H   0  0  0  0  0  0  0  0  0  0  0  0
   43.8360   36.4950   44.9330 H   0  0  0  0  0  0  0  0  0  0  0  0
   44.9710   36.1270   42.8340 H   0  0  0  0  0  0  0  0  0  0  0  0
   46.5320   34.3120   42.5960 H   0  0  0  0  0  0  0  0  0  0  0  0
   47.5060   31.7950   48.3340 C   0  0  0  0  0  0  0  0  0  0  0  0
   46.4940   31.2320   49.1030 C   0  0  0  0  0  0  0  0  0  0  0  0
   45.1730   31.5280   48.7670 C   0  0  0  0  0  0  0  0  0  0  0  0
   44.8940   32.3520   47.7070 N   0  0  0  0  0  0  0  0  0  0  0  0
   45.9350   32.8860   46.9760 C   0  0  0  0  0  0  0  0  0  0  0  0
   47.1900   32.5920   47.3130 N   0  0  0  0  0  0  0  0  0  0  0  0
   48.5420   31.5740   48.5850 H   0  0  0  0  0  0  0  0  0  0  0  0
   46.6890   30.5910   49.9290 H   0  0  0  0  0  0  0  0  0  0  0  0
   44.3080   31.1350   49.3100 H   0  0  0  0  0  0  0  0  0  0  0  0
   47.2440   32.5570   44.3610 N   0  0  0  0  0  0  0  0  0  0  0  0
   47.4090   31.9790   45.2170 H   0  0  0  0  0  0  0  0  0  0  0  0
   48.1010   32.1210   42.9560 S   0  0  0  0  0  0  0  0  0  0  0  0
   47.1710   32.2720   41.7490 O   0  0  0  0  0  0  0  0  0  0  0  0
   47.2240   31.6130   41.0140 H   0  0  0  0  0  0  0  0  0  0  0  0
   49.3290   32.9320   42.7030 O   0  0  0  0  0  0  0  0  0  0  0  0
   49.5190   33.4840   41.8960 H   0  0  0  0  0  0  0  0  0  0  0  0
   48.4250   30.4680   43.0710 O   0  0  0  0  0  0  0  0  0  0  0  0
   48.9790   29.9200   44.2180 C   0  0  0  0  0  0  0  0  0  0  0  0
   50.3010   29.5230   43.9980 C   0  0  0  0  0  0  0  0  0  0  0  0
   50.8570   29.6100   43.0730 H   0  0  0  0  0  0  0  0  0  0  0  0
   51.0290   28.9460   45.0430 C   0  0  0  0  0  0  0  0  0  0  0  0
   52.0580   28.6180   44.9280 H   0  0  0  0  0  0  0  0  0  0  0  0
   50.4200   28.7870   46.2610 C   0  0  0  0  0  0  0  0  0  0  0  0
   49.1120   29.1970   46.4280 C   0  0  0  0  0  0  0  0  0  0  0  0
   48.4250   29.7440   45.4320 N   0  0  0  0  0  0  0  0  0  0  0  0
  1  2  1  0  0  0  0
  1 15  1  0  0  0  0
  2  7  1  0  0  0  0
  3  8  1  0  0  0  0
  3  2  2  0  0  0  0
  4  3  1  0  0  0  0
  5  4  2  0  0  0  0
  5  6  1  0  0  0  0
  6  1  2  0  0  0  0
  9  4  1  0  0  0  0
 10  5  1  0  0  0  0
 11 17  1  0  0  0  0
 11 12  1  0  0  0  0
 12 18  1  0  0  0  0
 13 12  2  0  0  0  0
 13 19  1  0  0  0  0
 14 13  1  0  0  0  0
 15 16  1  0  0  0  0
 15 14  2  0  0  0  0
 16 11  2  0  0  0  0
 20  6  1  0  0  0  0
 20 21  1  0  0  0  0
 22 27  1  0  0  0  0
 22 20  1  0  0  0  0
 23 22  1  0  0  0  0
 24 23  1  0  0  0  0
 25 22  1  0  0  0  0
 26 25  1  0  0  0  0
 27 28  1  0  0  0  0
 28 35  1  0  0  0  0
 29 28  2  0  0  0  0
 29 31  1  0  0  0  0
 30 29  1  0  0  0  0
 31 33  2  0  0  0  0
 32 31  1  0  0  0  0
 33 34  1  0  0  0  0
 35 34  2  0  0  0  0
M  END
>  <minimizedAffinity>
-4.96462774

>  <minimizedRMSD>
1.15366435

$$$$
