
 OpenBabel03252506123D

 35 37  0  0  0  0  0  0  0  0999 V2000
   45.2430   33.5780   41.1160 F   0  0  0  0  0  0  0  0  0  0  0  0
   46.4230   34.1790   41.0400 C   0  0  0  0  0  0  0  0  0  0  0  0
   46.8960   34.8550   42.1390 C   0  0  0  0  0  0  0  0  0  0  0  0
   48.1340   35.5110   42.1500 C   0  0  0  0  0  0  0  0  0  0  0  0
   48.9310   35.4850   41.0060 C   0  0  0  0  0  0  0  0  0  0  0  0
   48.4210   34.7970   39.9310 C   0  0  0  0  0  0  0  0  0  0  0  0
   47.2230   34.1560   39.9020 C   0  0  0  0  0  0  0  0  0  0  0  0
   48.4390   36.0250   43.0590 H   0  0  0  0  0  0  0  0  0  0  0  0
   49.8760   36.0050   41.0640 H   0  0  0  0  0  0  0  0  0  0  0  0
   49.1360   34.8450   39.1160 H   0  0  0  0  0  0  0  0  0  0  0  0
   45.5030   33.9590   45.4150 C   0  0  0  0  0  0  0  0  0  0  0  0
   44.6210   35.0520   45.6520 C   0  0  0  0  0  0  0  0  0  0  0  0
   44.5140   36.0890   44.6810 C   0  0  0  0  0  0  0  0  0  0  0  0
   45.2850   35.9550   43.5640 N   0  0  0  0  0  0  0  0  0  0  0  0
   46.1030   34.9160   43.3730 C   0  0  0  0  0  0  0  0  0  0  0  0
   46.2080   33.9350   44.2860 N   0  0  0  0  0  0  0  0  0  0  0  0
   44.0390   35.0880   46.5660 H   0  0  0  0  0  0  0  0  0  0  0  0
   43.8540   36.9120   44.8530 H   0  0  0  0  0  0  0  0  0  0  0  0
   45.5930   32.9450   46.3910 N   0  0  0  0  0  0  0  0  0  0  0  0
   45.5360   31.9250   46.1150 H   0  0  0  0  0  0  0  0  0  0  0  0
   45.7180   33.2420   47.3950 H   0  0  0  0  0  0  0  0  0  0  0  0
   46.8020   33.4990   38.7760 O   0  0  0  0  0  0  0  0  0  0  0  0
   48.2540   34.7350   36.9450 O   0  0  0  0  0  0  0  0  0  0  0  0
   47.6120   33.4120   37.3080 P   0  0  2  0  0  0  0  0  0  0  0  0
   46.4710   32.9710   36.1100 O   0  0  0  0  0  0  0  0  0  0  0  0
   46.9150   32.9090   35.2250 H   0  0  0  0  0  0  0  0  0  0  0  0
   48.7890   32.2090   37.2450 O   0  0  0  0  0  0  0  0  0  0  0  0
   49.2240   31.4000   38.2530 C   0  0  0  0  0  0  0  0  0  0  0  0
   50.1860   31.6340   39.2220 C   0  0  0  0  0  0  0  0  0  0  0  0
   50.6400   32.5930   39.1550 H   0  0  0  0  0  0  0  0  0  0  0  0
   50.4810   30.6700   40.1630 C   0  0  0  0  0  0  0  0  0  0  0  0
   51.2490   30.9110   40.9040 H   0  0  0  0  0  0  0  0  0  0  0  0
   49.8420   29.4390   40.1860 C   0  0  0  0  0  3  0  0  0  0  0  0
   48.9010   29.2610   39.2050 C   0  0  0  0  0  3  0  0  0  0  0  0
   48.5960   30.1870   38.2750 N   0  0  0  0  0  0  0  0  0  0  0  0
  2  1  1  0  0  0  0
  2  3  1  0  0  0  0
  3  4  2  0  0  0  0
  3 15  1  0  0  0  0
  4  8  1  0  0  0  0
  5  9  1  0  0  0  0
  5  4  1  0  0  0  0
  6  5  2  0  0  0  0
  7  6  1  0  0  0  0
  7  2  2  0  0  0  0
 10  6  1  0  0  0  0
 11 12  1  0  0  0  0
 11 19  1  0  0  0  0
 12 17  1  0  0  0  0
 13 18  1  0  0  0  0
 13 12  2  0  0  0  0
 14 13  1  0  0  0  0
 15 14  2  0  0  0  0
 15 16  1  0  0  0  0
 16 11  2  0  0  0  0
 19 21  1  0  0  0  0
 20 19  1  0  0  0  0
 22  7  1  0  0  0  0
 24 23  2  6  0  0  0
 24 22  1  0  0  0  0
 25 24  1  0  0  0  0
 26 25  1  0  0  0  0
 27 24  1  0  0  0  0
 27 28  1  0  0  0  0
 28 35  2  0  0  0  0
 28 29  1  0  0  0  0
 29 31  2  0  0  0  0
 30 29  1  0  0  0  0
 31 33  1  0  0  0  0
 31 32  1  0  0  0  0
 34 33  2  0  0  0  0
 35 34  1  0  0  0  0
M  END
>  <minimizedAffinity>
-5.8142333

>  <minimizedRMSD>
1.06106091

$$$$
