
     RDKit          3D

 37 39  0  0  0  0  0  0  0  0999 V2000
   45.1355   33.5173   41.1531 F   0  0  0  0  0  0  0  0  0  0  0  0
   46.3236   34.0955   41.0412 C   0  0  0  0  0  0  0  0  0  0  0  0
   46.8254   34.7955   42.1132 C   0  0  0  0  0  0  0  0  0  0  0  0
   48.0728   35.4311   42.0862 C   0  0  0  0  0  0  0  0  0  0  0  0
   48.8514   35.3599   40.9305 C   0  0  0  0  0  0  0  0  0  0  0  0
   48.3132   34.6513   39.8838 C   0  0  0  0  0  0  0  0  0  0  0  0
   47.1050   34.0294   39.8921 C   0  0  0  0  0  0  0  0  0  0  0  0
   45.4608   34.0070   45.4286 C   0  0  0  0  0  0  0  0  0  0  0  0
   44.6109   35.1282   45.6554 C   0  0  0  0  0  0  0  0  0  0  0  0
   44.5161   36.1457   44.6630 C   0  0  0  0  0  0  0  0  0  0  0  0
   45.2661   35.9675   43.5379 N   0  0  0  0  0  0  0  0  0  0  0  0
   46.0526   34.9044   43.3571 C   0  0  0  0  0  0  0  0  0  0  0  0
   46.1470   33.9400   44.2897 N   0  0  0  0  0  0  0  0  0  0  0  0
   45.5398   33.0129   46.4250 N   0  0  0  0  0  0  0  0  0  0  0  0
   46.6548   33.3474   38.7918 O   0  0  0  0  0  0  0  0  0  0  0  0
   48.0965   34.6478   36.9973 O   0  0  0  0  0  0  0  0  0  0  0  0
   47.3380   33.3632   37.2580 P   0  0  2  0  0  0  0  0  0  0  0  0
   46.0679   33.1950   36.1221 O   0  0  0  0  0  0  0  0  0  0  0  0
   48.3636   32.0629   36.9521 O   0  0  0  0  0  0  0  0  0  0  0  0
   48.4010   35.9664   42.9752 H   0  0  0  0  0  0  0  0  0  0  0  0
   49.8048   35.8657   40.9593 H   0  0  0  0  0  0  0  0  0  0  0  0
   49.0151   34.6641   39.0561 H   0  0  0  0  0  0  0  0  0  0  0  0
   44.0446   35.1991   46.5774 H   0  0  0  0  0  0  0  0  0  0  0  0
   43.8797   36.9899   44.8274 H   0  0  0  0  0  0  0  0  0  0  0  0
   45.4522   31.9887   46.1731 H   0  0  0  0  0  0  0  0  0  0  0  0
   45.6881   33.3280   47.4212 H   0  0  0  0  0  0  0  0  0  0  0  0
   46.4353   33.1999   35.1996 H   0  0  0  0  0  0  0  0  0  0  0  0
   48.3742   30.8359   37.5476 C   0  0  0  0  0  0  0  0  0  0  0  0
   47.7005   29.6770   37.1969 C   0  0  0  0  0  0  0  0  0  0  0  0
   47.0896   29.7791   36.3327 H   0  0  0  0  0  0  0  0  0  0  0  0
   47.8510   28.5272   37.9427 C   0  0  0  0  0  0  0  0  0  0  0  0
   47.2939   27.6431   37.6174 H   0  0  0  0  0  0  0  0  0  0  0  0
   48.6690   28.4730   39.0609 C   0  0  0  0  0  0  0  0  0  0  0  0
   49.3112   29.6462   39.3627 C   0  0  0  0  0  0  0  0  0  0  0  0
   49.1797   30.7819   38.6491 N   0  0  0  0  0  0  0  0  0  0  0  0
   48.7667   27.5548   39.6265 H   0  0  0  0  0  0  0  0  0  0  0  0
   49.9653   29.6265   40.2458 H   0  0  0  0  0  0  0  0  0  0  0  0
  2  1  1  0
  2  3  2  0
  3 12  1  0
  4  3  1  0
  5  4  2  0
  6  7  2  0
  6  5  1  0
  7  2  1  0
  8  9  2  0
  8 14  1  0
 10  9  1  0
 11 10  2  0
 12 11  1  0
 12 13  2  0
 13  8  1  0
 15  7  1  0
 16 17  2  0
 17 15  1  1
 18 17  1  0
 19 17  1  0
  4 20  1  0
  5 21  1  0
  6 22  1  0
  9 23  1  0
 10 24  1  0
 14 25  1  0
 14 26  1  0
 18 27  1  0
 28 29  2  0
 29 30  1  0
 29 31  1  0
 31 32  1  0
 31 33  2  0
 33 34  1  0
 34 35  2  0
 35 28  1  0
 33 36  1  0
 34 37  1  0
 19 28  1  0
M  ISO  8  20  14  21  14  22  14  23  14  24  14  27   3  30  15  32  16
M  END
>  <DihAtoms>  (1) 
16,18,27,28

>  <DihDeg>  (1) 
0.00015749266399396578

$$$$
