
     RDKit          3D

 34 36  0  0  0  0  0  0  0  0999 V2000
   44.4903   35.7526   44.9976 C   0  0  0  0  0  0  0  0  0  0  0  0
   45.1336   35.7122   43.7395 C   0  0  0  0  0  0  0  0  0  0  0  0
   46.0170   34.7090   43.4899 C   0  0  0  0  0  0  0  0  0  0  0  0
   46.2350   33.8007   44.4592 N   0  0  0  0  0  0  0  0  0  0  0  0
   45.6212   33.8461   45.6494 C   0  0  0  0  0  0  0  0  0  0  0  0
   44.7427   34.8136   45.9440 N   0  0  0  0  0  0  0  0  0  0  0  0
   45.9253   32.8369   46.6095 N   0  0  0  0  0  0  0  0  0  0  0  0
   45.1500   32.5556   47.8077 C   0  0  0  0  0  0  0  0  0  0  0  0
   46.2507   32.2461   48.8093 C   0  0  0  0  0  0  0  0  0  0  0  0
   47.5305   32.0775   48.0263 C   0  0  0  0  0  0  0  0  0  0  0  0
   47.0338   31.9034   46.6048 C   0  0  1  0  0  0  0  0  0  0  0  0
   44.7572   36.7748   42.8603 N   0  0  0  0  0  0  0  0  0  0  0  0
   46.4947   30.1955   46.4136 S   0  0  0  0  0  0  0  0  0  0  0  0
   43.7752   36.5050   45.2924 H   0  0  0  0  0  0  0  0  0  0  0  0
   46.4795   34.7086   42.5403 H   0  0  0  0  0  0  0  0  0  0  0  0
   44.4440   31.7181   47.6714 H   0  0  0  0  0  0  0  0  0  0  0  0
   44.5372   33.4244   48.1152 H   0  0  0  0  0  0  0  0  0  0  0  0
   46.3364   33.1389   49.4711 H   0  0  0  0  0  0  0  0  0  0  0  0
   45.9945   31.3888   49.4425 H   0  0  0  0  0  0  0  0  0  0  0  0
   48.2418   32.8963   48.1516 H   0  0  0  0  0  0  0  0  0  0  0  0
   47.9532   31.0919   48.3376 H   0  0  0  0  0  0  0  0  0  0  0  0
   47.8229   32.1947   45.8806 H   0  0  0  0  0  0  0  0  0  0  0  0
   45.5253   37.2512   42.3465 H   0  0  0  0  0  0  0  0  0  0  0  0
   43.7724   37.0660   42.7318 H   0  0  0  0  0  0  0  0  0  0  0  0
   45.7643   29.8910   44.8152 C   0  0  0  0  0  0  0  0  0  0  0  0
   46.5823   30.1202   43.7162 C   0  0  0  0  0  0  0  0  0  0  0  0
   47.6188   30.4686   43.8106 H   0  0  0  0  0  0  0  0  0  0  0  0
   46.0681   29.8997   42.4490 C   0  0  0  0  0  0  0  0  0  0  0  0
   46.6859   30.0719   41.5930 H   0  0  0  0  0  0  0  0  0  0  0  0
   44.7613   29.4577   42.2667 C   0  0  0  0  0  0  0  0  0  0  0  0
   43.9894   29.2451   43.3980 C   0  0  0  0  0  0  0  0  0  0  0  0
   44.4891   29.4602   44.6503 N   0  0  0  0  0  0  0  0  0  0  0  0
   44.3174   29.2720   41.2985 H   0  0  0  0  0  0  0  0  0  0  0  0
   42.9569   28.8982   43.3147 H   0  0  0  0  0  0  0  0  0  0  0  0
  1  6  2  0
  2  1  1  0
  3  2  2  0
  3  4  1  0
  4  5  2  0
  5  6  1  0
  5  7  1  0
  7 11  1  0
  7  8  1  0
  8  9  1  0
 10  9  1  0
 11 10  1  0
 12  2  1  0
 13 11  1  0
  1 14  1  0
  3 15  1  0
  8 16  1  0
  8 17  1  0
  9 18  1  0
  9 19  1  0
 10 20  1  0
 10 21  1  0
 11 22  1  6
 12 23  1  0
 12 24  1  0
 25 26  2  0
 26 27  1  0
 26 28  1  0
 28 29  1  0
 28 30  2  0
 30 31  1  0
 31 32  2  0
 32 25  1  0
 30 33  1  0
 31 34  1  0
 13 25  1  0
M  ISO  8  14  14  15  14  16  13  17  13  18  13  19  13  20  13  21  13
M  ISO  3  22  13  27  15  29  16
M  END
>  <DihAtoms>  (1) 
10,12,24,25

>  <DihDeg>  (1) 
-90.01767572618681

$$$$
