REMARK  Name = 
REMARK  3 active torsions:
REMARK  status: ('A' for Active; 'I' for Inactive)
REMARK    1  A    between atoms: C_2  and  N_12
REMARK    2  A    between atoms: C_11  and  S_13
REMARK    3  A    between atoms: S_13  and  C_25
REMARK                            x       y       z     vdW  Elec       q    Type
REMARK                         _______ _______ _______ _____ _____    ______ ____
ROOT
ATOM      1  C   UNL     1      44.490  35.753  44.998  0.00  0.00    +0.000 A 
ATOM      2  C   UNL     1      45.134  35.712  43.739  0.00  0.00    +0.000 A 
ATOM      3  C   UNL     1      46.017  34.709  43.490  0.00  0.00    +0.000 A 
ATOM      4  N   UNL     1      46.235  33.801  44.459  0.00  0.00    +0.000 NA
ATOM      5  C   UNL     1      45.621  33.846  45.649  0.00  0.00    +0.000 A 
ATOM      6  N   UNL     1      44.743  34.814  45.944  0.00  0.00    +0.000 NA
ATOM      7  N   UNL     1      45.925  32.837  46.609  0.00  0.00    +0.000 N 
ATOM      8  C   UNL     1      45.150  32.556  47.808  0.00  0.00    +0.000 C 
ATOM      9  C   UNL     1      46.251  32.246  48.809  0.00  0.00    +0.000 C 
ATOM     10  C   UNL     1      47.531  32.078  48.026  0.00  0.00    +0.000 C 
ATOM     11  C   UNL     1      47.034  31.903  46.605  0.00  0.00    +0.000 C 
ATOM     12  H   UNL     1      43.775  36.505  45.292  0.00  0.00    +0.000 HD
ATOM     13  H   UNL     1      46.480  34.709  42.540  0.00  0.00    +0.000 HD
ATOM     14  H   UNL     1      44.444  31.718  47.671  0.00  0.00    +0.000 HD
ATOM     15  H   UNL     1      44.537  33.424  48.115  0.00  0.00    +0.000 HD
ATOM     16  H   UNL     1      46.336  33.139  49.471  0.00  0.00    +0.000 HD
ATOM     17  H   UNL     1      45.995  31.389  49.443  0.00  0.00    +0.000 HD
ATOM     18  H   UNL     1      48.242  32.896  48.152  0.00  0.00    +0.000 HD
ATOM     19  H   UNL     1      47.953  31.092  48.338  0.00  0.00    +0.000 HD
ATOM     20  H   UNL     1      47.823  32.195  45.881  0.00  0.00    +0.000 HD
ENDROOT
BRANCH   2  21
ATOM     21  N   UNL     1      44.757  36.775  42.860  0.00  0.00    +0.000 N 
ATOM     22  H   UNL     1      45.525  37.251  42.346  0.00  0.00    +0.000 HD
ATOM     23  H   UNL     1      43.772  37.066  42.732  0.00  0.00    +0.000 HD
ENDBRANCH   2  21
BRANCH  11  24
ATOM     24  S   UNL     1      46.495  30.195  46.414  0.00  0.00    +0.000 S 
BRANCH  24  25
ATOM     25  C   UNL     1      45.764  29.891  44.815  0.00  0.00    +0.000 A 
ATOM     26  C   UNL     1      46.648  29.803  43.747  0.00  0.00    +0.000 A 
ATOM     27  H   UNL     1      47.733  29.912  43.864  0.00  0.00    +0.000 HD
ATOM     28  C   UNL     1      46.136  29.567  42.481  0.00  0.00    +0.000 A 
ATOM     29  H   UNL     1      46.804  29.496  41.649  0.00  0.00    +0.000 HD
ATOM     30  C   UNL     1      44.769  29.419  42.271  0.00  0.00    +0.000 A 
ATOM     31  C   UNL     1      43.933  29.516  43.372  0.00  0.00    +0.000 A 
ATOM     32  N   UNL     1      44.430  29.749  44.623  0.00  0.00    +0.000 NA
ENDBRANCH  24  25
ENDBRANCH  11  24
TORSDOF 3
