
 OpenBabel03252509123D

 31 34  0  0  0  0  0  0  0  0999 V2000
   47.3610   32.3950   44.3050 C   0  0  0  0  0  0  0  0  0  0  0  0
   47.8480   33.0560   43.1720 C   0  0  0  0  0  0  0  0  0  0  0  0
   47.3270   34.2460   42.7330 C   0  0  0  0  0  0  0  0  0  0  0  0
   46.2630   34.8440   43.4290 C   0  0  0  0  0  0  0  0  0  0  0  0
   45.5240   35.9660   43.2980 N   0  0  0  0  0  0  0  0  0  0  0  0
   44.6140   36.0260   44.2880 C   0  0  0  0  0  0  0  0  0  0  0  0
   44.8130   34.9100   45.0340 N   0  0  0  0  0  0  0  0  0  0  0  0
   45.8090   34.1750   44.5320 C   0  0  0  0  0  0  0  0  0  0  0  0
   46.3060   32.9770   45.0060 C   0  0  0  0  0  0  0  0  0  0  0  0
   47.7950   31.4590   44.6220 H   0  0  0  0  0  0  0  0  0  0  0  0
   45.6560   36.6620   42.5410 H   0  0  0  0  0  0  0  0  0  0  0  0
   43.8870   36.8250   44.4260 H   0  0  0  0  0  0  0  0  0  0  0  0
   45.8910   32.5080   45.8890 H   0  0  0  0  0  0  0  0  0  0  0  0
   49.7490   30.8280   40.9640 C   0  0  0  0  0  0  0  0  0  0  0  0
   51.0450   31.3520   41.0530 C   0  0  0  0  0  0  0  0  0  0  0  0
   51.2530   32.4610   41.8670 C   0  0  0  0  0  0  0  0  0  0  0  0
   50.1820   32.9880   42.5430 N   0  0  0  0  0  0  0  0  0  0  0  0
   48.9510   32.4560   42.4310 C   0  0  0  0  0  0  0  0  0  0  0  0
   48.7060   31.3720   41.6450 N   0  0  0  0  0  0  0  0  0  0  0  0
   49.4520   29.9740   40.3700 H   0  0  0  0  0  0  0  0  0  0  0  0
   51.8080   30.8610   40.4810 H   0  0  0  0  0  0  0  0  0  0  0  0
   52.2520   32.8700   41.9400 H   0  0  0  0  0  0  0  0  0  0  0  0
   47.9510   35.0850   41.2980 S   0  0  0  0  0  0  0  0  0  0  0  0
   47.5130   34.2760   39.7660 C   0  0  0  0  0  0  0  0  0  0  0  0
   48.2690   34.4040   38.6100 C   0  0  0  0  0  0  0  0  0  0  0  0
   49.1630   35.0170   38.6310 H   0  0  0  0  0  0  0  0  0  0  0  0
   47.9100   33.7680   37.4360 C   0  0  0  0  0  0  0  0  0  0  0  0
   48.4760   33.8480   36.5220 H   0  0  0  0  0  0  0  0  0  0  0  0
   46.7680   32.9730   37.3770 C   0  0  0  0  0  3  0  0  0  0  0  0
   46.0430   32.8710   38.5430 C   0  0  0  0  0  3  0  0  0  0  0  0
   46.4070   33.4900   39.6590 N   0  0  0  0  0  0  0  0  0  0  0  0
  1 10  1  0  0  0  0
  1  9  1  0  0  0  0
  2  1  2  0  0  0  0
  3  2  1  0  0  0  0
  3  4  2  0  0  0  0
  4  8  1  0  0  0  0
  5  4  1  0  0  0  0
  5  6  1  0  0  0  0
  6 12  1  0  0  0  0
  6  7  2  0  0  0  0
  8  9  2  0  0  0  0
  8  7  1  0  0  0  0
  9 13  1  0  0  0  0
 11  5  1  0  0  0  0
 14 15  2  0  0  0  0
 14 19  1  0  0  0  0
 15 16  1  0  0  0  0
 16 22  1  0  0  0  0
 16 17  2  0  0  0  0
 18 17  1  0  0  0  0
 18  2  1  0  0  0  0
 19 18  2  0  0  0  0
 20 14  1  0  0  0  0
 21 15  1  0  0  0  0
 23  3  1  0  0  0  0
 24 23  1  0  0  0  0
 25 26  1  0  0  0  0
 25 24  2  0  0  0  0
 27 25  1  0  0  0  0
 28 27  1  0  0  0  0
 29 27  2  0  0  0  0
 29 30  1  0  0  0  0
 30 31  2  0  0  0  0
 31 24  1  0  0  0  0
M  END
>  <minimizedAffinity>
-5.112463

>  <minimizedRMSD>
5.02308178

$$$$
