
 OpenBabel03242513553D

 18 19  0  0  0  0  0  0  0  0999 V2000
   36.7500   30.0070   39.0080 C   0  0  0  0  0  0  0  0  0  0  0  0
   36.6880   30.8190   40.1460 C   0  0  0  0  0  0  0  0  0  0  0  0
   37.1070   32.1560   39.9950 C   0  0  0  0  0  0  0  0  0  0  0  0
   37.5350   32.5680   38.7870 N   0  0  0  0  0  0  0  0  0  0  0  0
   37.5820   31.7570   37.7110 C   0  0  0  0  0  0  0  0  0  0  0  0
   37.1810   30.4660   37.8420 N   0  0  0  0  0  0  0  0  0  0  0  0
   36.4170   28.9850   39.1750 H   0  0  0  0  0  0  0  0  0  0  0  0
   37.0970   32.8640   40.8130 H   0  0  0  0  0  0  0  0  0  0  0  0
   37.9380   32.1850   36.7980 H   0  0  0  0  0  0  0  0  0  0  0  0
   36.2530   30.4150   41.3880 O   0  0  0  0  0  0  0  0  0  0  0  0
   36.9490   29.3630   41.9720 C   0  0  0  0  0  0  0  0  0  0  0  0
   36.4640   28.0750   42.1340 C   0  0  0  0  0  0  0  0  0  0  0  0
   35.4630   27.8860   41.7720 H   0  0  0  0  0  0  0  0  0  0  0  0
   37.2710   27.1210   42.7370 C   0  0  0  0  0  0  0  0  0  0  0  0
   36.8900   26.1190   42.8610 H   0  0  0  0  0  0  0  0  0  0  0  0
   38.5240   27.5300   43.1410 C   0  0  0  0  0  3  0  0  0  0  0  0
   39.0120   28.8090   42.9830 C   0  0  0  0  0  3  0  0  0  0  0  0
   38.1840   29.6900   42.3920 N   0  0  0  0  0  0  0  0  0  0  0  0
  1  7  1  0  0  0  0
  1  2  1  0  0  0  0
  2 10  1  0  0  0  0
  3  2  2  0  0  0  0
  3  8  1  0  0  0  0
  4  3  1  0  0  0  0
  5  6  1  0  0  0  0
  5  4  2  0  0  0  0
  6  1  2  0  0  0  0
  9  5  1  0  0  0  0
 10 11  1  0  0  0  0
 11 12  2  0  0  0  0
 11 18  1  0  0  0  0
 12 14  1  0  0  0  0
 13 12  1  0  0  0  0
 14 15  1  0  0  0  0
 14 16  2  0  0  0  0
 17 16  1  0  0  0  0
 18 17  2  0  0  0  0
M  END
>  <minimizedAffinity>
-3.99799085

$$$$

 OpenBabel03242513553D

 18 19  0  0  0  0  0  0  0  0999 V2000
   38.4530   29.5940   42.5830 C   0  0  0  0  0  0  0  0  0  0  0  0
   37.1450   29.3790   42.1340 C   0  0  0  0  0  0  0  0  0  0  0  0
   36.6410   28.0680   42.2540 C   0  0  0  0  0  0  0  0  0  0  0  0
   37.4320   27.1160   42.7810 N   0  0  0  0  0  0  0  0  0  0  0  0
   38.6890   27.3580   43.2040 C   0  0  0  0  0  0  0  0  0  0  0  0
   39.1880   28.6170   43.0950 N   0  0  0  0  0  0  0  0  0  0  0  0
   38.7970   30.6190   42.4700 H   0  0  0  0  0  0  0  0  0  0  0  0
   35.6420   27.7990   41.9370 H   0  0  0  0  0  0  0  0  0  0  0  0
   39.2320   26.5310   43.6080 H   0  0  0  0  0  0  0  0  0  0  0  0
   36.3230   30.3400   41.5930 O   0  0  0  0  0  0  0  0  0  0  0  0
   36.6940   30.8400   40.3500 C   0  0  0  0  0  0  0  0  0  0  0  0
   36.6390   30.1390   39.1560 C   0  0  0  0  0  0  0  0  0  0  0  0
   36.2770   29.1210   39.2100 H   0  0  0  0  0  0  0  0  0  0  0  0
   37.0430   30.7650   37.9870 C   0  0  0  0  0  0  0  0  0  0  0  0
   36.9990   30.2150   37.0580 H   0  0  0  0  0  0  0  0  0  0  0  0
   37.4790   32.0690   38.0950 C   0  0  0  0  0  3  0  0  0  0  0  0
   37.5360   32.7710   39.2800 C   0  0  0  0  0  3  0  0  0  0  0  0
   37.1320   32.1120   40.3800 N   0  0  0  0  0  0  0  0  0  0  0  0
  1  6  1  0  0  0  0
  2  3  1  0  0  0  0
  2  1  2  0  0  0  0
  3  4  2  0  0  0  0
  4  5  1  0  0  0  0
  5  9  1  0  0  0  0
  6  5  2  0  0  0  0
  7  1  1  0  0  0  0
  8  3  1  0  0  0  0
 10  2  1  0  0  0  0
 11 18  1  0  0  0  0
 11 10  1  0  0  0  0
 12 13  1  0  0  0  0
 12 11  2  0  0  0  0
 14 16  2  0  0  0  0
 14 12  1  0  0  0  0
 15 14  1  0  0  0  0
 16 17  1  0  0  0  0
 17 18  2  0  0  0  0
M  END
>  <minimizedAffinity>
-3.97504735

$$$$

 OpenBabel03242513553D

 18 19  0  0  0  0  0  0  0  0999 V2000
   36.1490   29.4170   39.1470 C   0  0  0  0  0  0  0  0  0  0  0  0
   36.1350   29.5800   40.5370 C   0  0  0  0  0  0  0  0  0  0  0  0
   36.5430   30.8340   41.0320 C   0  0  0  0  0  0  0  0  0  0  0  0
   36.9170   31.7860   40.1570 N   0  0  0  0  0  0  0  0  0  0  0  0
   36.9180   31.5940   38.8220 C   0  0  0  0  0  0  0  0  0  0  0  0
   36.5270   30.3890   38.3310 N   0  0  0  0  0  0  0  0  0  0  0  0
   35.8260   28.4330   38.8130 H   0  0  0  0  0  0  0  0  0  0  0  0
   36.5670   31.0610   42.0900 H   0  0  0  0  0  0  0  0  0  0  0  0
   37.2330   32.4160   38.2150 H   0  0  0  0  0  0  0  0  0  0  0  0
   35.7560   28.6180   41.4460 O   0  0  0  0  0  0  0  0  0  0  0  0
   36.7780   27.8630   42.0070 C   0  0  0  0  0  0  0  0  0  0  0  0
   37.4310   28.1550   43.1940 C   0  0  0  0  0  0  0  0  0  0  0  0
   37.1090   29.0450   43.7160 H   0  0  0  0  0  0  0  0  0  0  0  0
   38.4370   27.3090   43.6360 C   0  0  0  0  0  0  0  0  0  0  0  0
   38.9440   27.5400   44.5610 H   0  0  0  0  0  0  0  0  0  0  0  0
   38.7240   26.2140   42.8480 C   0  0  0  0  0  3  0  0  0  0  0  0
   38.0780   25.9190   41.6670 C   0  0  0  0  0  3  0  0  0  0  0  0
   37.1120   26.7750   41.2890 N   0  0  0  0  0  0  0  0  0  0  0  0
  1  2  1  0  0  0  0
  2  3  2  0  0  0  0
  2 10  1  0  0  0  0
  3  8  1  0  0  0  0
  4  3  1  0  0  0  0
  5  4  2  0  0  0  0
  6  5  1  0  0  0  0
  6  1  2  0  0  0  0
  7  1  1  0  0  0  0
  9  5  1  0  0  0  0
 10 11  1  0  0  0  0
 11 12  1  0  0  0  0
 12 14  2  0  0  0  0
 12 13  1  0  0  0  0
 14 15  1  0  0  0  0
 16 14  1  0  0  0  0
 17 16  2  0  0  0  0
 18 17  1  0  0  0  0
 18 11  2  0  0  0  0
M  END
>  <minimizedAffinity>
-3.86685038

$$$$

 OpenBabel03242513553D

 18 19  0  0  0  0  0  0  0  0999 V2000
   35.8200   28.8790   41.0500 C   0  0  0  0  0  0  0  0  0  0  0  0
   36.8230   28.8990   42.0240 C   0  0  0  0  0  0  0  0  0  0  0  0
   37.8460   29.8550   41.8620 C   0  0  0  0  0  0  0  0  0  0  0  0
   37.8000   30.6770   40.7980 N   0  0  0  0  0  0  0  0  0  0  0  0
   36.8170   30.6300   39.8760 C   0  0  0  0  0  0  0  0  0  0  0  0
   35.8240   29.7140   40.0210 N   0  0  0  0  0  0  0  0  0  0  0  0
   35.0540   28.1250   41.2180 H   0  0  0  0  0  0  0  0  0  0  0  0
   38.6660   29.9520   42.5610 H   0  0  0  0  0  0  0  0  0  0  0  0
   36.8750   31.3290   39.0700 H   0  0  0  0  0  0  0  0  0  0  0  0
   36.8850   28.0660   43.1180 O   0  0  0  0  0  0  0  0  0  0  0  0
   37.6770   26.9310   42.9850 C   0  0  0  0  0  0  0  0  0  0  0  0
   37.3450   25.8060   42.2470 C   0  0  0  0  0  0  0  0  0  0  0  0
   36.3900   25.8250   41.7400 H   0  0  0  0  0  0  0  0  0  0  0  0
   38.2340   24.7430   42.2020 C   0  0  0  0  0  0  0  0  0  0  0  0
   37.9730   23.8680   41.6270 H   0  0  0  0  0  0  0  0  0  0  0  0
   39.4110   24.8830   42.9080 C   0  0  0  0  0  3  0  0  0  0  0  0
   39.7460   25.9990   43.6430 C   0  0  0  0  0  3  0  0  0  0  0  0
   38.8450   26.9980   43.6490 N   0  0  0  0  0  0  0  0  0  0  0  0
  1  7  1  0  0  0  0
  1  2  1  0  0  0  0
  2 10  1  0  0  0  0
  3  2  2  0  0  0  0
  3  8  1  0  0  0  0
  4  3  1  0  0  0  0
  5  6  1  0  0  0  0
  5  4  2  0  0  0  0
  6  1  2  0  0  0  0
  9  5  1  0  0  0  0
 11 10  1  0  0  0  0
 11 18  1  0  0  0  0
 12 11  2  0  0  0  0
 13 12  1  0  0  0  0
 14 12  1  0  0  0  0
 14 16  2  0  0  0  0
 15 14  1  0  0  0  0
 16 17  1  0  0  0  0
 17 18  2  0  0  0  0
M  END
>  <minimizedAffinity>
-3.77827144

$$$$

 OpenBabel03242513553D

 18 19  0  0  0  0  0  0  0  0999 V2000
   38.9230   30.2960   39.6130 C   0  0  0  0  0  0  0  0  0  0  0  0
   38.5540   30.9630   40.7860 C   0  0  0  0  0  0  0  0  0  0  0  0
   37.5140   31.9080   40.6770 C   0  0  0  0  0  0  0  0  0  0  0  0
   36.9480   32.1120   39.4740 N   0  0  0  0  0  0  0  0  0  0  0  0
   37.3300   31.4500   38.3620 C   0  0  0  0  0  0  0  0  0  0  0  0
   38.3300   30.5360   38.4530 N   0  0  0  0  0  0  0  0  0  0  0  0
   39.7290   29.5770   39.7480 H   0  0  0  0  0  0  0  0  0  0  0  0
   37.1550   32.4760   41.5250 H   0  0  0  0  0  0  0  0  0  0  0  0
   36.8140   31.6870   37.4560 H   0  0  0  0  0  0  0  0  0  0  0  0
   39.1210   30.7670   42.0240 O   0  0  0  0  0  0  0  0  0  0  0  0
   38.9180   29.5210   42.6050 C   0  0  0  0  0  0  0  0  0  0  0  0
   37.7060   29.0510   43.0870 C   0  0  0  0  0  0  0  0  0  0  0  0
   36.8600   29.7180   42.9990 H   0  0  0  0  0  0  0  0  0  0  0  0
   37.6480   27.7830   43.6440 C   0  0  0  0  0  0  0  0  0  0  0  0
   36.7030   27.4200   44.0190 H   0  0  0  0  0  0  0  0  0  0  0  0
   38.8240   27.0620   43.6800 C   0  0  0  0  0  3  0  0  0  0  0  0
   40.0310   27.5240   43.2020 C   0  0  0  0  0  3  0  0  0  0  0  0
   40.0250   28.7610   42.6730 N   0  0  0  0  0  0  0  0  0  0  0  0
  1  7  1  0  0  0  0
  1  2  1  0  0  0  0
  2 10  1  0  0  0  0
  3  2  2  0  0  0  0
  3  8  1  0  0  0  0
  4  3  1  0  0  0  0
  5  6  1  0  0  0  0
  5  4  2  0  0  0  0
  6  1  2  0  0  0  0
  9  5  1  0  0  0  0
 10 11  1  0  0  0  0
 11 18  2  0  0  0  0
 11 12  1  0  0  0  0
 12 14  2  0  0  0  0
 13 12  1  0  0  0  0
 14 16  1  0  0  0  0
 14 15  1  0  0  0  0
 17 16  2  0  0  0  0
 18 17  1  0  0  0  0
M  END
>  <minimizedAffinity>
-3.76806498

$$$$

 OpenBabel03242513553D

 18 19  0  0  0  0  0  0  0  0999 V2000
   38.2000   27.7960   41.1680 C   0  0  0  0  0  0  0  0  0  0  0  0
   38.5940   29.0480   41.6510 C   0  0  0  0  0  0  0  0  0  0  0  0
   38.1550   29.3960   42.9440 C   0  0  0  0  0  0  0  0  0  0  0  0
   37.3940   28.5210   43.6260 N   0  0  0  0  0  0  0  0  0  0  0  0
   37.0310   27.3210   43.1290 C   0  0  0  0  0  0  0  0  0  0  0  0
   37.4480   26.9730   41.8840 N   0  0  0  0  0  0  0  0  0  0  0  0
   38.5630   27.5730   40.1670 H   0  0  0  0  0  0  0  0  0  0  0  0
   38.4060   30.3400   43.4080 H   0  0  0  0  0  0  0  0  0  0  0  0
   36.4250   26.7010   43.7540 H   0  0  0  0  0  0  0  0  0  0  0  0
   39.3720   29.9550   40.9670 O   0  0  0  0  0  0  0  0  0  0  0  0
   38.7240   31.0890   40.4930 C   0  0  0  0  0  0  0  0  0  0  0  0
   37.6870   31.0930   39.5740 C   0  0  0  0  0  0  0  0  0  0  0  0
   37.3670   30.1290   39.2030 H   0  0  0  0  0  0  0  0  0  0  0  0
   37.1320   32.3040   39.1880 C   0  0  0  0  0  0  0  0  0  0  0  0
   36.3240   32.3030   38.4720 H   0  0  0  0  0  0  0  0  0  0  0  0
   37.6600   33.4430   39.7600 C   0  0  0  0  0  3  0  0  0  0  0  0
   38.6910   33.4450   40.6750 C   0  0  0  0  0  3  0  0  0  0  0  0
   39.1890   32.2410   41.0100 N   0  0  0  0  0  0  0  0  0  0  0  0
  1  2  2  0  0  0  0
  1  6  1  0  0  0  0
  2  3  1  0  0  0  0
  3  8  1  0  0  0  0
  3  4  2  0  0  0  0
  5  4  1  0  0  0  0
  5  9  1  0  0  0  0
  6  5  2  0  0  0  0
  7  1  1  0  0  0  0
 10  2  1  0  0  0  0
 11 10  1  0  0  0  0
 11 18  1  0  0  0  0
 12 11  2  0  0  0  0
 13 12  1  0  0  0  0
 14 12  1  0  0  0  0
 14 16  2  0  0  0  0
 15 14  1  0  0  0  0
 16 17  1  0  0  0  0
 17 18  2  0  0  0  0
M  END
>  <minimizedAffinity>
-3.75605106

$$$$

 OpenBabel03242513553D

 18 19  0  0  0  0  0  0  0  0999 V2000
   39.3180   26.9840   43.6800 C   0  0  0  0  0  0  0  0  0  0  0  0
   38.0920   27.4570   43.2000 C   0  0  0  0  0  0  0  0  0  0  0  0
   37.3410   26.5740   42.3980 C   0  0  0  0  0  0  0  0  0  0  0  0
   37.8370   25.3490   42.1440 N   0  0  0  0  0  0  0  0  0  0  0  0
   39.0250   24.9260   42.6230 C   0  0  0  0  0  0  0  0  0  0  0  0
   39.7590   25.7660   43.3970 N   0  0  0  0  0  0  0  0  0  0  0  0
   39.8600   27.7000   44.2930 H   0  0  0  0  0  0  0  0  0  0  0  0
   36.3810   26.8440   41.9800 H   0  0  0  0  0  0  0  0  0  0  0  0
   39.3270   23.9340   42.3610 H   0  0  0  0  0  0  0  0  0  0  0  0
   37.5690   28.7050   43.4510 O   0  0  0  0  0  0  0  0  0  0  0  0
   37.7510   29.6600   42.4580 C   0  0  0  0  0  0  0  0  0  0  0  0
   38.9550   30.2710   42.1460 C   0  0  0  0  0  0  0  0  0  0  0  0
   39.8140   29.9720   42.7310 H   0  0  0  0  0  0  0  0  0  0  0  0
   38.9910   31.2110   41.1270 C   0  0  0  0  0  0  0  0  0  0  0  0
   39.9310   31.6850   40.8870 H   0  0  0  0  0  0  0  0  0  0  0  0
   37.8020   31.4770   40.4810 C   0  0  0  0  0  3  0  0  0  0  0  0
   36.6020   30.8720   40.7860 C   0  0  0  0  0  3  0  0  0  0  0  0
   36.6290   29.9700   41.7840 N   0  0  0  0  0  0  0  0  0  0  0  0
  1  7  1  0  0  0  0
  2 10  1  0  0  0  0
  2  1  2  0  0  0  0
  3  2  1  0  0  0  0
  4  3  2  0  0  0  0
  4  5  1  0  0  0  0
  5  6  2  0  0  0  0
  6  1  1  0  0  0  0
  8  3  1  0  0  0  0
  9  5  1  0  0  0  0
 11 10  1  0  0  0  0
 12 11  1  0  0  0  0
 12 13  1  0  0  0  0
 14 12  2  0  0  0  0
 15 14  1  0  0  0  0
 16 17  2  0  0  0  0
 16 14  1  0  0  0  0
 17 18  1  0  0  0  0
 18 11  2  0  0  0  0
M  END
>  <minimizedAffinity>
-3.70844173

$$$$

 OpenBabel03242513553D

 18 19  0  0  0  0  0  0  0  0999 V2000
   35.8730   28.2940   40.0230 C   0  0  0  0  0  0  0  0  0  0  0  0
   36.3540   28.6050   41.2990 C   0  0  0  0  0  0  0  0  0  0  0  0
   36.9390   29.8760   41.4650 C   0  0  0  0  0  0  0  0  0  0  0  0
   37.0020   30.7020   40.4040 N   0  0  0  0  0  0  0  0  0  0  0  0
   36.5280   30.3690   39.1860 C   0  0  0  0  0  0  0  0  0  0  0  0
   35.9610   29.1470   39.0130 N   0  0  0  0  0  0  0  0  0  0  0  0
   35.4310   27.3030   39.9460 H   0  0  0  0  0  0  0  0  0  0  0  0
   37.3400   30.2120   42.4110 H   0  0  0  0  0  0  0  0  0  0  0  0
   36.6270   31.1000   38.4120 H   0  0  0  0  0  0  0  0  0  0  0  0
   36.2980   27.7720   42.3940 O   0  0  0  0  0  0  0  0  0  0  0  0
   37.4420   27.0310   42.6640 C   0  0  0  0  0  0  0  0  0  0  0  0
   38.4730   27.4270   43.5020 C   0  0  0  0  0  0  0  0  0  0  0  0
   38.3660   28.3930   43.9760 H   0  0  0  0  0  0  0  0  0  0  0  0
   39.5590   26.5840   43.6800 C   0  0  0  0  0  0  0  0  0  0  0  0
   40.3610   26.8950   44.3320 H   0  0  0  0  0  0  0  0  0  0  0  0
   39.5370   25.3850   42.9980 C   0  0  0  0  0  3  0  0  0  0  0  0
   38.5140   24.9860   42.1650 C   0  0  0  0  0  3  0  0  0  0  0  0
   37.4880   25.8450   42.0310 N   0  0  0  0  0  0  0  0  0  0  0  0
  1  2  1  0  0  0  0
  2  3  2  0  0  0  0
  2 10  1  0  0  0  0
  3  8  1  0  0  0  0
  4  3  1  0  0  0  0
  5  4  2  0  0  0  0
  6  5  1  0  0  0  0
  6  1  2  0  0  0  0
  7  1  1  0  0  0  0
  9  5  1  0  0  0  0
 10 11  1  0  0  0  0
 11 12  1  0  0  0  0
 12 14  2  0  0  0  0
 12 13  1  0  0  0  0
 14 15  1  0  0  0  0
 16 14  1  0  0  0  0
 17 16  2  0  0  0  0
 18 17  1  0  0  0  0
 18 11  2  0  0  0  0
M  END
>  <minimizedAffinity>
-3.69224

$$$$

 OpenBabel03242513553D

 18 19  0  0  0  0  0  0  0  0999 V2000
   39.7840   27.5380   42.7760 C   0  0  0  0  0  0  0  0  0  0  0  0
   38.4690   27.9880   42.9410 C   0  0  0  0  0  0  0  0  0  0  0  0
   38.2680   29.3820   42.9140 C   0  0  0  0  0  0  0  0  0  0  0  0
   39.3320   30.1870   42.7360 N   0  0  0  0  0  0  0  0  0  0  0  0
   40.5870   29.7180   42.5820 C   0  0  0  0  0  0  0  0  0  0  0  0
   40.7960   28.3760   42.6050 N   0  0  0  0  0  0  0  0  0  0  0  0
   39.8880   26.4550   42.8040 H   0  0  0  0  0  0  0  0  0  0  0  0
   37.2910   29.8300   43.0310 H   0  0  0  0  0  0  0  0  0  0  0  0
   41.3620   30.4430   42.4470 H   0  0  0  0  0  0  0  0  0  0  0  0
   37.3700   27.1800   43.1220 O   0  0  0  0  0  0  0  0  0  0  0  0
   37.0920   26.2780   42.1020 C   0  0  0  0  0  0  0  0  0  0  0  0
   37.0150   24.9020   42.2490 C   0  0  0  0  0  0  0  0  0  0  0  0
   37.1870   24.5120   43.2430 H   0  0  0  0  0  0  0  0  0  0  0  0
   36.7290   24.1200   41.1400 C   0  0  0  0  0  0  0  0  0  0  0  0
   36.6690   23.0490   41.2590 H   0  0  0  0  0  0  0  0  0  0  0  0
   36.5370   24.7800   39.9440 C   0  0  0  0  0  3  0  0  0  0  0  0
   36.6120   26.1470   39.7920 C   0  0  0  0  0  3  0  0  0  0  0  0
   36.8930   26.8530   40.9020 N   0  0  0  0  0  0  0  0  0  0  0  0
  1  7  1  0  0  0  0
  1  2  1  0  0  0  0
  2 10  1  0  0  0  0
  3  2  2  0  0  0  0
  3  8  1  0  0  0  0
  4  3  1  0  0  0  0
  5  6  1  0  0  0  0
  5  4  2  0  0  0  0
  6  1  2  0  0  0  0
  9  5  1  0  0  0  0
 11 12  1  0  0  0  0
 11 10  1  0  0  0  0
 12 13  1  0  0  0  0
 14 15  1  0  0  0  0
 14 12  2  0  0  0  0
 16 14  1  0  0  0  0
 17 16  2  0  0  0  0
 17 18  1  0  0  0  0
 18 11  2  0  0  0  0
M  END
>  <minimizedAffinity>
-3.63043499

$$$$
