
 OpenBabel03252501043D

 30 32  0  0  1  0  0  0  0  0999 V2000
   37.2960   30.7660   37.5870 C   0  0  1  0  0  0  0  0  0  0  0  0
   38.1800   29.6070   37.3070 C   0  0  0  0  0  0  0  0  0  0  0  0
   37.0000   29.4900   38.2610 C   0  0  1  0  0  0  0  0  0  0  0  0
   36.5760   31.1370   36.8220 H   0  0  0  0  0  0  0  0  0  0  0  0
   39.1390   29.4420   37.8370 H   0  0  0  0  0  0  0  0  0  0  0  0
   38.1330   29.0910   36.3180 H   0  0  0  0  0  0  0  0  0  0  0  0
   36.2200   28.8280   37.8360 H   0  0  0  0  0  0  0  0  0  0  0  0
   39.8210   32.9500   39.3450 C   0  0  0  0  0  0  0  0  0  0  0  0
   39.2900   31.9310   38.5420 C   0  0  0  0  0  0  0  0  0  0  0  0
   37.9010   31.8430   38.4220 C   0  0  0  0  0  0  0  0  0  0  0  0
   37.1140   32.7400   39.0830 N   0  0  0  0  0  0  0  0  0  0  0  0
   37.6590   33.7130   39.8520 C   0  0  0  0  0  0  0  0  0  0  0  0
   39.0120   33.8180   39.9830 N   0  0  0  0  0  0  0  0  0  0  0  0
   40.8620   33.1280   39.5200 H   0  0  0  0  0  0  0  0  0  0  0  0
   39.9940   31.2740   38.0570 H   0  0  0  0  0  0  0  0  0  0  0  0
   36.9650   34.3930   40.3500 H   0  0  0  0  0  0  0  0  0  0  0  0
   37.1410   29.4340   39.5930 O   0  0  0  0  0  0  0  0  0  0  0  0
   34.5050   29.2380   39.8360 O   0  0  0  0  0  0  0  0  0  0  0  0
   35.8090   29.5150   40.5460 P   0  0  2  0  0  0  0  0  0  0  0  0
   35.6200   30.9990   41.3440 O   0  0  0  0  0  0  0  0  0  0  0  0
   35.0000   30.9100   42.1060 H   0  0  0  0  0  0  0  0  0  0  0  0
   35.9150   28.3340   41.7540 O   0  0  0  0  0  0  0  0  0  0  0  0
   37.1140   27.8380   42.2410 C   0  0  0  0  0  0  0  0  0  0  0  0
   38.1140   28.5080   42.9150 C   0  0  0  0  0  0  0  0  0  0  0  0
   37.9030   29.5740   43.0710 H   0  0  0  0  0  0  0  0  0  0  0  0
   39.2460   27.8670   43.3320 C   0  0  0  0  0  0  0  0  0  0  0  0
   39.9770   28.4760   43.8530 H   0  0  0  0  0  0  0  0  0  0  0  0
   39.4180   26.5200   43.0860 C   0  0  0  0  0  3  0  0  0  0  0  0
   38.3850   25.8760   42.4010 C   0  0  0  0  0  3  0  0  0  0  0  0
   37.2710   26.5270   41.9970 N   0  0  0  0  0  0  0  0  0  0  0  0
  1  4  1  6  0  0  0
  1  3  1  0  0  0  0
  1 10  1  0  0  0  0
  2  1  1  0  0  0  0
  2  5  1  0  0  0  0
  2  3  1  0  0  0  0
  3  7  1  6  0  0  0
  3 17  1  0  0  0  0
  6  2  1  0  0  0  0
  8 14  1  0  0  0  0
  8 13  1  0  0  0  0
  9  8  2  0  0  0  0
 10  9  1  0  0  0  0
 10 11  2  0  0  0  0
 11 12  1  0  0  0  0
 12 13  2  0  0  0  0
 12 16  1  0  0  0  0
 15  9  1  0  0  0  0
 17 19  1  0  0  0  0
 19 18  2  6  0  0  0
 19 20  1  0  0  0  0
 19 22  1  0  0  0  0
 20 21  1  0  0  0  0
 22 23  1  0  0  0  0
 23 24  1  0  0  0  0
 24 25  1  0  0  0  0
 24 26  2  0  0  0  0
 26 27  1  0  0  0  0
 28 26  1  0  0  0  0
 29 28  2  0  0  0  0
 30 23  2  0  0  0  0
 30 29  1  0  0  0  0
M  END
>  <minimizedAffinity>
-5.4270916

$$$$

 OpenBabel03252501043D

 30 32  0  0  1  0  0  0  0  0999 V2000
   37.3460   30.8920   37.8520 C   0  0  1  0  0  0  0  0  0  0  0  0
   38.2180   29.7560   37.4590 C   0  0  0  0  0  0  0  0  0  0  0  0
   37.1840   29.6140   38.5670 C   0  0  1  0  0  0  0  0  0  0  0  0
   36.5170   31.2350   37.1900 H   0  0  0  0  0  0  0  0  0  0  0  0
   39.2440   29.6240   37.8530 H   0  0  0  0  0  0  0  0  0  0  0  0
   38.0510   29.2290   36.4890 H   0  0  0  0  0  0  0  0  0  0  0  0
   36.3730   28.9260   38.2570 H   0  0  0  0  0  0  0  0  0  0  0  0
   40.0270   33.1240   39.2900 C   0  0  0  0  0  0  0  0  0  0  0  0
   39.4220   32.0800   38.5750 C   0  0  0  0  0  0  0  0  0  0  0  0
   38.0270   31.9940   38.5880 C   0  0  0  0  0  0  0  0  0  0  0  0
   37.3070   32.9160   39.2890 N   0  0  0  0  0  0  0  0  0  0  0  0
   37.9220   33.9120   39.9700 C   0  0  0  0  0  0  0  0  0  0  0  0
   39.2820   34.0160   39.9700 N   0  0  0  0  0  0  0  0  0  0  0  0
   41.0800   33.3030   39.3610 H   0  0  0  0  0  0  0  0  0  0  0  0
   40.0770   31.4040   38.0490 H   0  0  0  0  0  0  0  0  0  0  0  0
   37.2790   34.6120   40.5070 H   0  0  0  0  0  0  0  0  0  0  0  0
   37.5080   29.5760   39.8670 O   0  0  0  0  0  0  0  0  0  0  0  0
   35.1190   28.7610   40.6890 O   0  0  0  0  0  0  0  0  0  0  0  0
   36.3180   29.6290   40.9940 P   0  0  2  0  0  0  0  0  0  0  0  0
   35.7230   31.1870   41.2980 O   0  0  0  0  0  0  0  0  0  0  0  0
   35.2400   31.2160   42.1580 H   0  0  0  0  0  0  0  0  0  0  0  0
   36.9180   29.0510   42.4670 O   0  0  0  0  0  0  0  0  0  0  0  0
   37.6510   27.8800   42.5920 C   0  0  0  0  0  0  0  0  0  0  0  0
   37.3710   26.6300   42.0840 C   0  0  0  0  0  0  0  0  0  0  0  0
   36.4380   26.5860   41.5070 H   0  0  0  0  0  0  0  0  0  0  0  0
   38.2050   25.5690   42.3000 C   0  0  0  0  0  0  0  0  0  0  0  0
   37.9020   24.6250   41.8610 H   0  0  0  0  0  0  0  0  0  0  0  0
   39.3580   25.7260   43.0410 C   0  0  0  0  0  3  0  0  0  0  0  0
   39.6070   27.0070   43.5400 C   0  0  0  0  0  3  0  0  0  0  0  0
   38.7700   28.0450   43.3140 N   0  0  0  0  0  0  0  0  0  0  0  0
  1  4  1  6  0  0  0
  1  3  1  0  0  0  0
  1 10  1  0  0  0  0
  2  1  1  0  0  0  0
  2  5  1  0  0  0  0
  2  3  1  0  0  0  0
  3  7  1  6  0  0  0
  3 17  1  0  0  0  0
  6  2  1  0  0  0  0
  8 14  1  0  0  0  0
  8 13  1  0  0  0  0
  9 10  1  0  0  0  0
  9  8  2  0  0  0  0
 10 11  2  0  0  0  0
 11 12  1  0  0  0  0
 12 13  2  0  0  0  0
 12 16  1  0  0  0  0
 15  9  1  0  0  0  0
 17 19  1  0  0  0  0
 19 18  2  6  0  0  0
 19 20  1  0  0  0  0
 19 22  1  0  0  0  0
 20 21  1  0  0  0  0
 22 23  1  0  0  0  0
 23 30  1  0  0  0  0
 24 26  1  0  0  0  0
 24 23  2  0  0  0  0
 25 24  1  0  0  0  0
 26 28  2  0  0  0  0
 27 26  1  0  0  0  0
 28 29  1  0  0  0  0
 30 29  2  0  0  0  0
M  END
>  <minimizedAffinity>
-5.29729795

$$$$

 OpenBabel03252501043D

 30 32  0  0  1  0  0  0  0  0999 V2000
   37.3160   31.4350   38.0340 C   0  0  1  0  0  0  0  0  0  0  0  0
   37.6010   30.3410   37.0710 C   0  0  0  0  0  0  0  0  0  0  0  0
   36.5360   30.1900   38.1480 C   0  0  1  0  0  0  0  0  0  0  0  0
   36.7870   32.3610   37.7120 H   0  0  0  0  0  0  0  0  0  0  0  0
   38.4210   29.6120   37.2180 H   0  0  0  0  0  0  0  0  0  0  0  0
   37.2850   30.4360   36.0040 H   0  0  0  0  0  0  0  0  0  0  0  0
   35.5260   30.1470   37.6940 H   0  0  0  0  0  0  0  0  0  0  0  0
   40.6030   31.3580   39.8850 C   0  0  0  0  0  0  0  0  0  0  0  0
   39.6440   31.1290   38.8880 C   0  0  0  0  0  0  0  0  0  0  0  0
   38.3670   31.6670   39.0650 C   0  0  0  0  0  0  0  0  0  0  0  0
   38.0960   32.3890   40.1900 N   0  0  0  0  0  0  0  0  0  0  0  0
   39.0440   32.5920   41.1350 C   0  0  0  0  0  0  0  0  0  0  0  0
   40.2980   32.0770   40.9830 N   0  0  0  0  0  0  0  0  0  0  0  0
   41.6130   31.0040   39.8730 H   0  0  0  0  0  0  0  0  0  0  0  0
   39.9560   30.5490   38.0340 H   0  0  0  0  0  0  0  0  0  0  0  0
   38.7520   33.1800   42.0070 H   0  0  0  0  0  0  0  0  0  0  0  0
   36.7070   29.4380   39.2450 O   0  0  0  0  0  0  0  0  0  0  0  0
   34.1660   29.2570   39.9900 O   0  0  0  0  0  0  0  0  0  0  0  0
   35.5880   29.4950   40.4410 P   0  0  2  0  0  0  0  0  0  0  0  0
   35.5820   30.9490   41.3140 O   0  0  0  0  0  0  0  0  0  0  0  0
   35.1210   30.8360   42.1790 H   0  0  0  0  0  0  0  0  0  0  0  0
   35.9070   28.2670   41.5620 O   0  0  0  0  0  0  0  0  0  0  0  0
   37.1530   28.0500   42.1300 C   0  0  0  0  0  0  0  0  0  0  0  0
   37.7110   26.8640   42.5600 C   0  0  0  0  0  0  0  0  0  0  0  0
   37.0570   25.9930   42.4200 H   0  0  0  0  0  0  0  0  0  0  0  0
   38.9630   26.8210   43.1040 C   0  0  0  0  0  0  0  0  0  0  0  0
   39.3170   25.8440   43.4130 H   0  0  0  0  0  0  0  0  0  0  0  0
   39.7080   27.9750   43.2380 C   0  0  0  0  0  3  0  0  0  0  0  0
   39.1100   29.1560   42.7920 C   0  0  0  0  0  3  0  0  0  0  0  0
   37.8690   29.1790   42.2550 N   0  0  0  0  0  0  0  0  0  0  0  0
  1  4  1  6  0  0  0
  1  3  1  0  0  0  0
  1 10  1  0  0  0  0
  2  5  1  0  0  0  0
  2  1  1  0  0  0  0
  2  3  1  0  0  0  0
  3  7  1  6  0  0  0
  3 17  1  0  0  0  0
  6  2  1  0  0  0  0
  8 13  1  0  0  0  0
  9 10  1  0  0  0  0
  9  8  2  0  0  0  0
 10 11  2  0  0  0  0
 11 12  1  0  0  0  0
 12 16  1  0  0  0  0
 13 12  2  0  0  0  0
 14  8  1  0  0  0  0
 15  9  1  0  0  0  0
 17 19  1  0  0  0  0
 19 18  2  6  0  0  0
 19 20  1  0  0  0  0
 19 22  1  0  0  0  0
 20 21  1  0  0  0  0
 22 23  1  0  0  0  0
 23 30  2  0  0  0  0
 23 24  1  0  0  0  0
 24 26  2  0  0  0  0
 25 24  1  0  0  0  0
 26 28  1  0  0  0  0
 26 27  1  0  0  0  0
 29 28  2  0  0  0  0
 30 29  1  0  0  0  0
M  END
>  <minimizedAffinity>
-5.25055599

$$$$

 OpenBabel03252501043D

 30 32  0  0  1  0  0  0  0  0999 V2000
   35.5060   29.7460   40.3500 C   0  0  1  0  0  0  0  0  0  0  0  0
   35.4180   28.5470   39.4790 C   0  0  0  0  0  0  0  0  0  0  0  0
   36.0880   28.4860   40.8440 C   0  0  1  0  0  0  0  0  0  0  0  0
   34.6050   30.1490   40.8650 H   0  0  0  0  0  0  0  0  0  0  0  0
   36.1440   28.3390   38.6690 H   0  0  0  0  0  0  0  0  0  0  0  0
   34.4380   28.0310   39.3310 H   0  0  0  0  0  0  0  0  0  0  0  0
   35.4960   27.8610   41.5410 H   0  0  0  0  0  0  0  0  0  0  0  0
   37.7420   31.8550   38.1610 C   0  0  0  0  0  0  0  0  0  0  0  0
   36.8310   30.8620   38.5480 C   0  0  0  0  0  0  0  0  0  0  0  0
   36.4620   30.7960   39.8940 C   0  0  0  0  0  0  0  0  0  0  0  0
   36.9940   31.6880   40.7790 N   0  0  0  0  0  0  0  0  0  0  0  0
   37.8720   32.6350   40.3720 C   0  0  0  0  0  0  0  0  0  0  0  0
   38.2460   32.7190   39.0630 N   0  0  0  0  0  0  0  0  0  0  0  0
   38.1060   32.0150   37.1660 H   0  0  0  0  0  0  0  0  0  0  0  0
   36.4640   30.2060   37.7750 H   0  0  0  0  0  0  0  0  0  0  0  0
   38.2540   33.3130   41.1370 H   0  0  0  0  0  0  0  0  0  0  0  0
   37.4180   28.4270   41.0030 O   0  0  0  0  0  0  0  0  0  0  0  0
   37.4660   28.9710   43.6010 O   0  0  0  0  0  0  0  0  0  0  0  0
   38.0360   28.1200   42.4900 P   0  0  2  0  0  0  0  0  0  0  0  0
   39.7230   28.2700   42.5820 O   0  0  0  0  0  0  0  0  0  0  0  0
   40.0730   27.8070   43.3790 H   0  0  0  0  0  0  0  0  0  0  0  0
   37.6750   26.5250   42.9260 O   0  0  0  0  0  0  0  0  0  0  0  0
   37.8550   25.4390   42.0830 C   0  0  0  0  0  0  0  0  0  0  0  0
   36.9510   24.4560   41.7380 C   0  0  0  0  0  0  0  0  0  0  0  0
   35.9670   24.5770   42.2080 H   0  0  0  0  0  0  0  0  0  0  0  0
   37.2900   23.4430   40.8850 C   0  0  0  0  0  0  0  0  0  0  0  0
   36.5130   22.7170   40.6730 H   0  0  0  0  0  0  0  0  0  0  0  0
   38.5570   23.3790   40.3450 C   0  0  0  0  0  3  0  0  0  0  0  0
   39.4450   24.3910   40.7170 C   0  0  0  0  0  3  0  0  0  0  0  0
   39.0910   25.3860   41.5620 N   0  0  0  0  0  0  0  0  0  0  0  0
  1  3  1  0  0  0  0
  1  4  1  1  0  0  0
  2  1  1  0  0  0  0
  2  3  1  0  0  0  0
  3 17  1  0  0  0  0
  3  7  1  1  0  0  0
  5  2  1  0  0  0  0
  6  2  1  0  0  0  0
  8  9  2  0  0  0  0
  8 13  1  0  0  0  0
  9 10  1  0  0  0  0
 10  1  1  0  0  0  0
 10 11  2  0  0  0  0
 12 11  1  0  0  0  0
 12 16  1  0  0  0  0
 13 12  2  0  0  0  0
 14  8  1  0  0  0  0
 15  9  1  0  0  0  0
 17 19  1  0  0  0  0
 19 20  1  0  0  0  0
 19 22  1  0  0  0  0
 19 18  2  1  0  0  0
 20 21  1  0  0  0  0
 23 22  1  0  0  0  0
 24 23  1  0  0  0  0
 24 25  1  0  0  0  0
 26 24  2  0  0  0  0
 27 26  1  0  0  0  0
 28 29  2  0  0  0  0
 28 26  1  0  0  0  0
 29 30  1  0  0  0  0
 30 23  2  0  0  0  0
M  END
>  <minimizedAffinity>
-4.83206892

$$$$

 OpenBabel03252501043D

 30 32  0  0  1  0  0  0  0  0999 V2000
   37.0960   31.5250   38.5480 C   0  0  1  0  0  0  0  0  0  0  0  0
   37.5590   30.3510   37.7640 C   0  0  0  0  0  0  0  0  0  0  0  0
   36.9260   30.1860   39.1390 C   0  0  1  0  0  0  0  0  0  0  0  0
   36.1830   32.0900   38.2510 H   0  0  0  0  0  0  0  0  0  0  0  0
   38.6110   30.0060   37.7670 H   0  0  0  0  0  0  0  0  0  0  0  0
   36.9920   30.0200   36.8610 H   0  0  0  0  0  0  0  0  0  0  0  0
   35.9410   29.6850   39.0560 H   0  0  0  0  0  0  0  0  0  0  0  0
   40.4740   33.0770   39.1960 C   0  0  0  0  0  0  0  0  0  0  0  0
   39.4820   32.2660   38.6280 C   0  0  0  0  0  0  0  0  0  0  0  0
   38.1780   32.3790   39.1170 C   0  0  0  0  0  0  0  0  0  0  0  0
   37.9140   33.2630   40.1210 N   0  0  0  0  0  0  0  0  0  0  0  0
   38.8960   34.0320   40.6500 C   0  0  0  0  0  0  0  0  0  0  0  0
   40.1750   33.9390   40.1870 N   0  0  0  0  0  0  0  0  0  0  0  0
   41.5070   33.0890   38.9150 H   0  0  0  0  0  0  0  0  0  0  0  0
   39.7880   31.6010   37.8360 H   0  0  0  0  0  0  0  0  0  0  0  0
   38.6090   34.7160   41.4510 H   0  0  0  0  0  0  0  0  0  0  0  0
   37.6340   29.8880   40.2380 O   0  0  0  0  0  0  0  0  0  0  0  0
   35.4930   28.6340   41.1830 O   0  0  0  0  0  0  0  0  0  0  0  0
   36.9500   28.9640   41.4070 P   0  0  2  0  0  0  0  0  0  0  0  0
   37.0630   29.6250   42.9650 O   0  0  0  0  0  0  0  0  0  0  0  0
   36.9140   28.9310   43.6500 H   0  0  0  0  0  0  0  0  0  0  0  0
   37.7380   27.4670   41.4660 O   0  0  0  0  0  0  0  0  0  0  0  0
   37.2280   26.3070   40.9010 C   0  0  0  0  0  0  0  0  0  0  0  0
   36.8240   26.0870   39.6010 C   0  0  0  0  0  0  0  0  0  0  0  0
   36.9310   26.9650   38.9510 H   0  0  0  0  0  0  0  0  0  0  0  0
   36.3390   24.8740   39.2010 C   0  0  0  0  0  0  0  0  0  0  0  0
   36.0450   24.7950   38.1610 H   0  0  0  0  0  0  0  0  0  0  0  0
   36.2420   23.8300   40.0980 C   0  0  0  0  0  3  0  0  0  0  0  0
   36.6610   24.0900   41.4050 C   0  0  0  0  0  3  0  0  0  0  0  0
   37.1390   25.2980   41.7820 N   0  0  0  0  0  0  0  0  0  0  0  0
  1  4  1  6  0  0  0
  1 10  1  0  0  0  0
  1  3  1  0  0  0  0
  2  5  1  0  0  0  0
  2  1  1  0  0  0  0
  2  3  1  0  0  0  0
  3  7  1  6  0  0  0
  3 17  1  0  0  0  0
  6  2  1  0  0  0  0
  8 13  1  0  0  0  0
  9 10  1  0  0  0  0
  9  8  2  0  0  0  0
 10 11  2  0  0  0  0
 11 12  1  0  0  0  0
 12 16  1  0  0  0  0
 13 12  2  0  0  0  0
 14  8  1  0  0  0  0
 15  9  1  0  0  0  0
 17 19  1  0  0  0  0
 19 18  2  6  0  0  0
 19 22  1  0  0  0  0
 19 20  1  0  0  0  0
 20 21  1  0  0  0  0
 23 22  1  0  0  0  0
 23 30  1  0  0  0  0
 24 23  2  0  0  0  0
 25 24  1  0  0  0  0
 26 24  1  0  0  0  0
 26 28  2  0  0  0  0
 27 26  1  0  0  0  0
 28 29  1  0  0  0  0
 29 30  2  0  0  0  0
M  END
>  <minimizedAffinity>
-4.83073568

$$$$

 OpenBabel03252501043D

 30 32  0  0  1  0  0  0  0  0999 V2000
   37.1050   32.3560   39.3870 C   0  0  1  0  0  0  0  0  0  0  0  0
   36.8670   31.1180   38.6030 C   0  0  0  0  0  0  0  0  0  0  0  0
   36.7390   31.1310   40.1200 C   0  0  1  0  0  0  0  0  0  0  0  0
   36.3750   33.1970   39.3680 H   0  0  0  0  0  0  0  0  0  0  0  0
   37.6860   30.4470   38.2790 H   0  0  0  0  0  0  0  0  0  0  0  0
   35.9460   31.0160   37.9810 H   0  0  0  0  0  0  0  0  0  0  0  0
   35.6840   30.9830   40.4230 H   0  0  0  0  0  0  0  0  0  0  0  0
   40.2450   34.1610   40.4460 C   0  0  0  0  0  0  0  0  0  0  0  0
   38.9000   33.7670   40.4030 C   0  0  0  0  0  0  0  0  0  0  0  0
   38.5280   32.7930   39.4740 C   0  0  0  0  0  0  0  0  0  0  0  0
   39.4730   32.2620   38.6470 N   0  0  0  0  0  0  0  0  0  0  0  0
   40.7650   32.6650   38.7130 C   0  0  0  0  0  0  0  0  0  0  0  0
   41.1510   33.6130   39.6130 N   0  0  0  0  0  0  0  0  0  0  0  0
   40.6600   34.8930   41.1080 H   0  0  0  0  0  0  0  0  0  0  0  0
   38.2290   34.2420   41.1010 H   0  0  0  0  0  0  0  0  0  0  0  0
   41.4630   32.1940   38.0190 H   0  0  0  0  0  0  0  0  0  0  0  0
   37.6550   30.5880   40.9350 O   0  0  0  0  0  0  0  0  0  0  0  0
   37.7850   28.0700   40.1040 O   0  0  0  0  0  0  0  0  0  0  0  0
   37.5710   28.9880   41.2840 P   0  0  2  0  0  0  0  0  0  0  0  0
   36.1120   28.5150   42.0080 O   0  0  0  0  0  0  0  0  0  0  0  0
   36.2110   27.6430   42.4570 H   0  0  0  0  0  0  0  0  0  0  0  0
   38.7980   28.5920   42.3810 O   0  0  0  0  0  0  0  0  0  0  0  0
   39.1650   27.2900   42.6860 C   0  0  0  0  0  0  0  0  0  0  0  0
   40.3180   26.8380   43.2910 C   0  0  0  0  0  0  0  0  0  0  0  0
   41.0200   27.6390   43.5560 H   0  0  0  0  0  0  0  0  0  0  0  0
   40.5280   25.5080   43.5220 C   0  0  0  0  0  0  0  0  0  0  0  0
   41.4650   25.2480   44.0040 H   0  0  0  0  0  0  0  0  0  0  0  0
   39.5820   24.5760   43.1510 C   0  0  0  0  0  3  0  0  0  0  0  0
   38.4270   25.0700   42.5400 C   0  0  0  0  0  3  0  0  0  0  0  0
   38.2360   26.3910   42.3210 N   0  0  0  0  0  0  0  0  0  0  0  0
  1  4  1  6  0  0  0
  1 10  1  0  0  0  0
  1  3  1  0  0  0  0
  2  1  1  0  0  0  0
  2  3  1  0  0  0  0
  3  7  1  1  0  0  0
  3 17  1  0  0  0  0
  5  2  1  0  0  0  0
  6  2  1  0  0  0  0
  8 14  1  0  0  0  0
  9  8  1  0  0  0  0
  9 15  1  0  0  0  0
 10  9  2  0  0  0  0
 11 12  2  0  0  0  0
 11 10  1  0  0  0  0
 12 13  1  0  0  0  0
 13  8  2  0  0  0  0
 16 12  1  0  0  0  0
 17 19  1  0  0  0  0
 19 18  2  6  0  0  0
 19 20  1  0  0  0  0
 19 22  1  0  0  0  0
 20 21  1  0  0  0  0
 22 23  1  0  0  0  0
 23 24  1  0  0  0  0
 24 26  2  0  0  0  0
 24 25  1  0  0  0  0
 26 27  1  0  0  0  0
 28 26  1  0  0  0  0
 29 28  2  0  0  0  0
 30 29  1  0  0  0  0
 30 23  2  0  0  0  0
M  END
>  <minimizedAffinity>
-4.81605148

$$$$

 OpenBabel03252501043D

 30 32  0  0  1  0  0  0  0  0999 V2000
   40.2770   29.8100   42.6540 C   0  0  1  0  0  0  0  0  0  0  0  0
   41.3470   29.7200   41.6280 C   0  0  0  0  0  0  0  0  0  0  0  0
   40.3670   30.8850   41.6510 C   0  0  1  0  0  0  0  0  0  0  0  0
   40.5180   30.0560   43.7140 H   0  0  0  0  0  0  0  0  0  0  0  0
   41.2390   29.1270   40.6990 H   0  0  0  0  0  0  0  0  0  0  0  0
   42.4120   29.9010   41.9100 H   0  0  0  0  0  0  0  0  0  0  0  0
   40.8860   31.8260   41.9190 H   0  0  0  0  0  0  0  0  0  0  0  0
   37.0300   27.9600   43.1790 C   0  0  0  0  0  0  0  0  0  0  0  0
   38.0550   28.9030   43.3490 C   0  0  0  0  0  0  0  0  0  0  0  0
   39.1610   28.8340   42.4980 C   0  0  0  0  0  0  0  0  0  0  0  0
   39.2100   27.8630   41.5410 N   0  0  0  0  0  0  0  0  0  0  0  0
   38.2030   26.9670   41.4040 C   0  0  0  0  0  0  0  0  0  0  0  0
   37.1140   27.0160   42.2220 N   0  0  0  0  0  0  0  0  0  0  0  0
   36.1330   27.9030   43.7600 H   0  0  0  0  0  0  0  0  0  0  0  0
   37.9220   29.6340   44.1300 H   0  0  0  0  0  0  0  0  0  0  0  0
   38.3140   26.2200   40.6160 H   0  0  0  0  0  0  0  0  0  0  0  0
   39.3620   31.0100   40.7720 O   0  0  0  0  0  0  0  0  0  0  0  0
   39.8520   33.0960   39.2050 O   0  0  0  0  0  0  0  0  0  0  0  0
   38.9350   32.5040   40.2490 P   0  0  2  0  0  0  0  0  0  0  0  0
   38.8010   33.6580   41.4860 O   0  0  0  0  0  0  0  0  0  0  0  0
   38.2740   34.4350   41.1840 H   0  0  0  0  0  0  0  0  0  0  0  0
   37.4150   32.4220   39.5070 O   0  0  0  0  0  0  0  0  0  0  0  0
   36.7140   31.2410   39.3220 C   0  0  0  0  0  0  0  0  0  0  0  0
   36.5730   30.4930   38.1720 C   0  0  0  0  0  0  0  0  0  0  0  0
   37.0970   30.9150   37.3040 H   0  0  0  0  0  0  0  0  0  0  0  0
   35.8390   29.3400   38.1560 C   0  0  0  0  0  0  0  0  0  0  0  0
   35.7850   28.8210   37.2060 H   0  0  0  0  0  0  0  0  0  0  0  0
   35.2160   28.8920   39.3020 C   0  0  0  0  0  3  0  0  0  0  0  0
   35.3820   29.6760   40.4470 C   0  0  0  0  0  3  0  0  0  0  0  0
   36.1120   30.8140   40.4430 N   0  0  0  0  0  0  0  0  0  0  0  0
  1  4  1  1  0  0  0
  2  3  1  0  0  0  0
  2  6  1  0  0  0  0
  2  1  1  0  0  0  0
  3  7  1  1  0  0  0
  3  1  1  0  0  0  0
  5  2  1  0  0  0  0
  8  9  1  0  0  0  0
  8 14  1  0  0  0  0
  9 15  1  0  0  0  0
 10  1  1  0  0  0  0
 10  9  2  0  0  0  0
 11 10  1  0  0  0  0
 12 11  2  0  0  0  0
 12 13  1  0  0  0  0
 13  8  2  0  0  0  0
 16 12  1  0  0  0  0
 17  3  1  0  0  0  0
 19 18  2  6  0  0  0
 19 17  1  0  0  0  0
 19 20  1  0  0  0  0
 21 20  1  0  0  0  0
 22 19  1  0  0  0  0
 23 22  1  0  0  0  0
 23 30  1  0  0  0  0
 24 23  2  0  0  0  0
 25 24  1  0  0  0  0
 26 24  1  0  0  0  0
 26 28  2  0  0  0  0
 27 26  1  0  0  0  0
 28 29  1  0  0  0  0
 30 29  2  0  0  0  0
M  END
>  <minimizedAffinity>
-4.78739071

$$$$

 OpenBabel03252501043D

 30 32  0  0  1  0  0  0  0  0999 V2000
   40.5510   30.4110   38.5460 C   0  0  1  0  0  0  0  0  0  0  0  0
   40.6360   29.3970   39.6260 C   0  0  0  0  0  0  0  0  0  0  0  0
   39.3370   30.1330   39.3320 C   0  0  1  0  0  0  0  0  0  0  0  0
   40.5650   30.1100   37.4730 H   0  0  0  0  0  0  0  0  0  0  0  0
   41.0070   29.6330   40.6430 H   0  0  0  0  0  0  0  0  0  0  0  0
   40.7160   28.3120   39.3730 H   0  0  0  0  0  0  0  0  0  0  0  0
   38.5800   29.4370   38.9200 H   0  0  0  0  0  0  0  0  0  0  0  0
   41.7450   33.9790   38.2580 C   0  0  0  0  0  0  0  0  0  0  0  0
   41.0590   32.7900   37.9730 C   0  0  0  0  0  0  0  0  0  0  0  0
   41.2520   31.6980   38.8220 C   0  0  0  0  0  0  0  0  0  0  0  0
   42.0930   31.8200   39.8890 N   0  0  0  0  0  0  0  0  0  0  0  0
   42.7420   32.9830   40.1360 C   0  0  0  0  0  0  0  0  0  0  0  0
   42.5670   34.0620   39.3220 N   0  0  0  0  0  0  0  0  0  0  0  0
   41.6860   34.8850   37.6910 H   0  0  0  0  0  0  0  0  0  0  0  0
   40.4130   32.7940   37.1090 H   0  0  0  0  0  0  0  0  0  0  0  0
   43.3970   33.0040   41.0090 H   0  0  0  0  0  0  0  0  0  0  0  0
   38.8570   31.1090   40.1160 O   0  0  0  0  0  0  0  0  0  0  0  0
   36.4740   30.8490   38.9770 O   0  0  0  0  0  0  0  0  0  0  0  0
   37.2410   31.3770   40.1670 P   0  0  2  0  0  0  0  0  0  0  0  0
   36.8160   33.0110   40.3300 O   0  0  0  0  0  0  0  0  0  0  0  0
   35.8860   33.1000   40.6450 H   0  0  0  0  0  0  0  0  0  0  0  0
   36.5840   30.5770   41.5060 O   0  0  0  0  0  0  0  0  0  0  0  0
   37.0830   29.3860   42.0100 C   0  0  0  0  0  0  0  0  0  0  0  0
   37.9810   29.1940   43.0390 C   0  0  0  0  0  0  0  0  0  0  0  0
   38.3300   30.1270   43.5010 H   0  0  0  0  0  0  0  0  0  0  0  0
   38.3760   27.9410   43.4170 C   0  0  0  0  0  0  0  0  0  0  0  0
   39.0850   27.8890   44.2350 H   0  0  0  0  0  0  0  0  0  0  0  0
   37.8800   26.8270   42.7710 C   0  0  0  0  0  3  0  0  0  0  0  0
   36.9720   27.0610   41.7350 C   0  0  0  0  0  3  0  0  0  0  0  0
   36.5940   28.3090   41.3750 N   0  0  0  0  0  0  0  0  0  0  0  0
  1  4  1  6  0  0  0
  1 10  1  0  0  0  0
  1  3  1  0  0  0  0
  1  2  1  0  0  0  0
  2  5  1  0  0  0  0
  3  7  1  6  0  0  0
  3  2  1  0  0  0  0
  3 17  1  0  0  0  0
  6  2  1  0  0  0  0
  8 13  1  0  0  0  0
  9  8  2  0  0  0  0
  9 10  1  0  0  0  0
 10 11  2  0  0  0  0
 11 12  1  0  0  0  0
 12 16  1  0  0  0  0
 13 12  2  0  0  0  0
 14  8  1  0  0  0  0
 15  9  1  0  0  0  0
 17 19  1  0  0  0  0
 19 18  2  6  0  0  0
 19 20  1  0  0  0  0
 19 22  1  0  0  0  0
 20 21  1  0  0  0  0
 22 23  1  0  0  0  0
 23 24  1  0  0  0  0
 24 26  2  0  0  0  0
 24 25  1  0  0  0  0
 26 27  1  0  0  0  0
 28 26  1  0  0  0  0
 29 28  2  0  0  0  0
 30 29  1  0  0  0  0
 30 23  2  0  0  0  0
M  END
>  <minimizedAffinity>
-4.71370792

$$$$

 OpenBabel03252501043D

 30 32  0  0  1  0  0  0  0  0999 V2000
   37.2460   27.8680   43.3320 C   0  0  1  0  0  0  0  0  0  0  0  0
   38.2330   28.9780   43.3370 C   0  0  0  0  0  0  0  0  0  0  0  0
   37.0580   28.9660   42.3680 C   0  0  1  0  0  0  0  0  0  0  0  0
   36.5040   27.7560   44.1550 H   0  0  0  0  0  0  0  0  0  0  0  0
   39.1970   28.9250   42.7950 H   0  0  0  0  0  0  0  0  0  0  0  0
   38.2410   29.7180   44.1730 H   0  0  0  0  0  0  0  0  0  0  0  0
   36.3440   29.7770   42.6130 H   0  0  0  0  0  0  0  0  0  0  0  0
   39.5520   25.1200   42.1600 C   0  0  0  0  0  0  0  0  0  0  0  0
   39.1200   26.3450   42.6880 C   0  0  0  0  0  0  0  0  0  0  0  0
   37.7460   26.5730   42.7880 C   0  0  0  0  0  0  0  0  0  0  0  0
   36.8760   25.6080   42.3720 N   0  0  0  0  0  0  0  0  0  0  0  0
   37.3250   24.4350   41.8650 C   0  0  0  0  0  0  0  0  0  0  0  0
   38.6620   24.1910   41.7600 N   0  0  0  0  0  0  0  0  0  0  0  0
   40.5710   24.8210   42.0300 H   0  0  0  0  0  0  0  0  0  0  0  0
   39.8850   27.0430   42.9930 H   0  0  0  0  0  0  0  0  0  0  0  0
   36.5690   23.7120   41.5540 H   0  0  0  0  0  0  0  0  0  0  0  0
   37.1910   28.6880   41.0640 O   0  0  0  0  0  0  0  0  0  0  0  0
   34.6620   29.0370   40.3360 O   0  0  0  0  0  0  0  0  0  0  0  0
   36.1100   29.3060   39.9970 P   0  0  2  0  0  0  0  0  0  0  0  0
   36.3390   28.7830   38.4000 O   0  0  0  0  0  0  0  0  0  0  0  0
   35.8780   29.3820   37.7670 H   0  0  0  0  0  0  0  0  0  0  0  0
   36.2520   30.9920   39.9720 O   0  0  0  0  0  0  0  0  0  0  0  0
   37.4510   31.6590   39.7680 C   0  0  0  0  0  0  0  0  0  0  0  0
   37.9300   32.7850   40.4040 C   0  0  0  0  0  0  0  0  0  0  0  0
   37.2500   33.1840   41.1680 H   0  0  0  0  0  0  0  0  0  0  0  0
   39.1440   33.3240   40.0820 C   0  0  0  0  0  0  0  0  0  0  0  0
   39.4360   34.2090   40.6350 H   0  0  0  0  0  0  0  0  0  0  0  0
   39.9270   32.7470   39.1040 C   0  0  0  0  0  3  0  0  0  0  0  0
   39.4090   31.6080   38.4830 C   0  0  0  0  0  3  0  0  0  0  0  0
   38.2050   31.0900   38.8150 N   0  0  0  0  0  0  0  0  0  0  0  0
  1  2  1  0  0  0  0
  1  4  1  1  0  0  0
  2  6  1  0  0  0  0
  3  7  1  1  0  0  0
  3  1  1  0  0  0  0
  3  2  1  0  0  0  0
  5  2  1  0  0  0  0
  8  9  1  0  0  0  0
  9 10  2  0  0  0  0
  9 15  1  0  0  0  0
 10  1  1  0  0  0  0
 11 10  1  0  0  0  0
 12 11  2  0  0  0  0
 13 12  1  0  0  0  0
 13  8  2  0  0  0  0
 14  8  1  0  0  0  0
 16 12  1  0  0  0  0
 17  3  1  0  0  0  0
 19 18  2  1  0  0  0
 19 17  1  0  0  0  0
 20 19  1  0  0  0  0
 21 20  1  0  0  0  0
 22 19  1  0  0  0  0
 23 22  1  0  0  0  0
 23 24  1  0  0  0  0
 24 25  1  0  0  0  0
 26 24  2  0  0  0  0
 26 27  1  0  0  0  0
 28 26  1  0  0  0  0
 29 30  1  0  0  0  0
 29 28  2  0  0  0  0
 30 23  2  0  0  0  0
M  END
>  <minimizedAffinity>
-4.60524702

$$$$
