
     RDKit          3D

 33 36  0  0  0  0  0  0  0  0999 V2000
   47.4632   31.6807   44.8254 C   0  0  0  0  0  0  0  0  0  0  0  0
   46.7782   32.8666   44.5360 C   0  0  0  0  0  0  0  0  0  0  0  0
   45.9094   33.4504   45.4219 C   0  0  0  0  0  0  0  0  0  0  0  0
   45.6807   32.8554   46.6741 C   0  0  0  0  0  0  0  0  0  0  0  0
   44.9263   33.1304   47.7586 N   0  0  0  0  0  0  0  0  0  0  0  0
   45.1133   32.1792   48.6926 C   0  0  0  0  0  0  0  0  0  0  0  0
   46.0045   31.3096   48.1538 N   0  0  0  0  0  0  0  0  0  0  0  0
   46.3639   31.6980   46.9285 C   0  0  0  0  0  0  0  0  0  0  0  0
   47.2465   31.0794   46.0635 C   0  0  0  0  0  0  0  0  0  0  0  0
   46.3782   33.8193   41.0168 C   0  0  0  0  0  0  0  0  0  0  0  0
   47.4351   34.7192   40.8272 C   0  0  0  0  0  0  0  0  0  0  0  0
   48.2712   34.9887   41.9063 C   0  0  0  0  0  0  0  0  0  0  0  0
   48.0227   34.3634   43.1007 N   0  0  0  0  0  0  0  0  0  0  0  0
   46.9964   33.5045   43.2432 C   0  0  0  0  0  0  0  0  0  0  0  0
   46.1563   33.2141   42.2134 N   0  0  0  0  0  0  0  0  0  0  0  0
   45.0460   34.9581   45.0550 S   0  0  0  0  0  0  0  0  0  0  0  0
   48.1391   31.2505   44.1033 H   0  0  0  0  0  0  0  0  0  0  0  0
   44.3039   33.9558   47.8380 H   0  0  0  0  0  0  0  0  0  0  0  0
   44.6285   32.1517   49.6678 H   0  0  0  0  0  0  0  0  0  0  0  0
   47.7504   30.1618   46.3383 H   0  0  0  0  0  0  0  0  0  0  0  0
   45.6583   33.5234   40.2652 H   0  0  0  0  0  0  0  0  0  0  0  0
   47.5372   35.1507   39.8513 H   0  0  0  0  0  0  0  0  0  0  0  0
   49.0890   35.6826   41.7659 H   0  0  0  0  0  0  0  0  0  0  0  0
   43.4708   34.6870   44.2564 C   0  0  0  0  0  0  0  0  0  0  0  0
   43.3528   34.0348   43.0373 C   0  0  0  0  0  0  0  0  0  0  0  0
   44.2486   33.6733   42.5456 H   0  0  0  0  0  0  0  0  0  0  0  0
   42.1225   33.8364   42.4379 C   0  0  0  0  0  0  0  0  0  0  0  0
   41.9985   33.3339   41.4922 H   0  0  0  0  0  0  0  0  0  0  0  0
   40.9531   34.2894   43.0449 C   0  0  0  0  0  0  0  0  0  0  0  0
   41.1104   34.9314   44.2528 C   0  0  0  0  0  0  0  0  0  0  0  0
   42.3017   35.1107   44.8099 N   0  0  0  0  0  0  0  0  0  0  0  0
   39.9556   34.1967   42.6842 H   0  0  0  0  0  0  0  0  0  0  0  0
   40.2813   35.3391   44.8422 H   0  0  0  0  0  0  0  0  0  0  0  0
  1  9  2  0
  2  1  1  0
  2  3  2  0
  3  4  1  0
  4  8  2  0
  4  5  1  0
  5  6  1  0
  7  6  2  0
  8  7  1  0
  9  8  1  0
 10 15  2  0
 11 10  1  0
 11 12  2  0
 12 13  1  0
 13 14  2  0
 14  2  1  0
 15 14  1  0
 16  3  1  0
  1 17  1  0
  5 18  1  0
  6 19  1  0
  9 20  1  0
 10 21  1  0
 11 22  1  0
 12 23  1  0
 24 25  2  0
 25 26  1  0
 25 27  1  0
 27 28  1  0
 27 29  2  0
 29 30  1  0
 30 31  2  0
 31 24  1  0
 29 32  1  0
 30 33  1  0
 16 24  1  0
M  ISO  8  17  14  18   9  19  14  20  14  21  14  22  14  23  14  26  15
M  ISO  1  28  16
M  END
>  <DihAtoms>  (1) 
2,15,23,24

>  <DihDeg>  (1) 
90.01113371517017

$$$$
