
 OpenBabel03242519363D

 23 24  0  0  0  0  0  0  0  0999 V2000
   36.2630   28.5420   40.7200 O   0  0  0  0  0  0  0  0  0  0  0  0
   36.8080   29.8920   41.1570 P   0  0  1  0  0  0  0  0  0  0  0  0
   35.5690   30.9960   41.4210 O   0  0  0  0  0  0  0  0  0  0  0  0
   35.6520   31.7910   40.8310 H   0  0  0  0  0  0  0  0  0  0  0  0
   37.7040   29.7180   42.6030 O   0  0  0  0  0  0  0  0  0  0  0  0
   39.3000   26.6020   43.6800 C   0  0  0  0  0  0  0  0  0  0  0  0
   38.3550   27.6570   43.5830 C   0  0  0  0  0  0  0  0  0  0  0  0
   38.6430   28.6900   42.6850 C   0  0  0  0  0  0  0  0  0  0  0  0
   39.7890   28.6380   41.9620 N   0  0  0  0  0  0  0  0  0  0  0  0
   40.6670   27.6260   42.0720 C   0  0  0  0  0  0  0  0  0  0  0  0
   40.4300   26.6180   42.9200 N   0  0  0  0  0  0  0  0  0  0  0  0
   39.0960   25.7890   44.3710 H   0  0  0  0  0  0  0  0  0  0  0  0
   37.4550   27.6600   44.1770 H   0  0  0  0  0  0  0  0  0  0  0  0
   41.5400   27.7170   41.4320 H   0  0  0  0  0  0  0  0  0  0  0  0
   37.8640   30.4490   39.9510 O   0  0  0  0  0  0  0  0  0  0  0  0
   38.4620   31.7170   40.0180 C   0  0  0  0  0  0  0  0  0  0  0  0
   39.8360   31.7930   40.0730 C   0  0  0  0  0  0  0  0  0  0  0  0
   40.4340   30.8960   40.0640 H   0  0  0  0  0  0  0  0  0  0  0  0
   40.3280   33.0830   40.1360 C   0  0  0  0  0  0  0  0  0  0  0  0
   41.4080   33.2200   40.1820 H   0  0  0  0  0  0  0  0  0  0  0  0
   39.4430   34.1580   40.1400 C   0  0  0  0  0  3  0  0  0  0  0  0
   38.0730   34.0120   40.0830 C   0  0  0  0  0  3  0  0  0  0  0  0
   37.6170   32.7480   40.0210 N   0  0  0  0  0  0  0  0  0  0  0  0
  2  1  2  6  0  0  0
  2  3  1  0  0  0  0
  2  5  1  0  0  0  0
  4  3  1  0  0  0  0
  5  8  1  0  0  0  0
  6 12  1  0  0  0  0
  7  6  1  0  0  0  0
  7 13  1  0  0  0  0
  8  7  2  0  0  0  0
  9 10  2  0  0  0  0
  9  8  1  0  0  0  0
 10 11  1  0  0  0  0
 11  6  2  0  0  0  0
 14 10  1  0  0  0  0
 15 16  1  0  0  0  0
 15  2  1  0  0  0  0
 16 23  2  0  0  0  0
 16 17  1  0  0  0  0
 17 19  2  0  0  0  0
 18 17  1  0  0  0  0
 19 21  1  0  0  0  0
 19 20  1  0  0  0  0
 22 21  2  0  0  0  0
 23 22  1  0  0  0  0
M  END
>  <minimizedAffinity>
-4.631073

$$$$

 OpenBabel03242519363D

 23 24  0  0  0  0  0  0  0  0999 V2000
   36.4120   30.9050   38.8350 O   0  0  0  0  0  0  0  0  0  0  0  0
   37.1130   31.4110   40.0840 P   0  0  1  0  0  0  0  0  0  0  0  0
   36.9600   33.0770   40.2400 O   0  0  0  0  0  0  0  0  0  0  0  0
   37.8440   33.5300   40.2490 H   0  0  0  0  0  0  0  0  0  0  0  0
   36.4430   30.6670   41.4700 O   0  0  0  0  0  0  0  0  0  0  0  0
   37.0640   27.0780   41.8550 C   0  0  0  0  0  0  0  0  0  0  0  0
   36.4950   28.2960   41.3980 C   0  0  0  0  0  0  0  0  0  0  0  0
   37.0140   29.4800   41.9300 C   0  0  0  0  0  0  0  0  0  0  0  0
   38.0160   29.4140   42.8410 N   0  0  0  0  0  0  0  0  0  0  0  0
   38.5380   28.2460   43.2570 C   0  0  0  0  0  0  0  0  0  0  0  0
   38.0700   27.0890   42.7730 N   0  0  0  0  0  0  0  0  0  0  0  0
   36.6770   26.1450   41.4540 H   0  0  0  0  0  0  0  0  0  0  0  0
   35.6990   28.3040   40.6710 H   0  0  0  0  0  0  0  0  0  0  0  0
   39.3340   28.3450   43.9890 H   0  0  0  0  0  0  0  0  0  0  0  0
   38.7480   30.9630   39.9880 O   0  0  0  0  0  0  0  0  0  0  0  0
   39.7830   31.8970   40.1500 C   0  0  0  0  0  0  0  0  0  0  0  0
   40.7380   31.6580   41.1130 C   0  0  0  0  0  0  0  0  0  0  0  0
   40.6880   30.7730   41.7250 H   0  0  0  0  0  0  0  0  0  0  0  0
   41.7140   32.6330   41.1940 C   0  0  0  0  0  0  0  0  0  0  0  0
   42.5030   32.5110   41.9340 H   0  0  0  0  0  0  0  0  0  0  0  0
   41.6620   33.7320   40.3390 C   0  0  0  0  0  3  0  0  0  0  0  0
   40.6740   33.9110   39.3940 C   0  0  0  0  0  3  0  0  0  0  0  0
   39.7360   32.9490   39.3330 N   0  0  0  0  0  0  0  0  0  0  0  0
  2  1  2  6  0  0  0
  2  3  1  0  0  0  0
  2  5  1  0  0  0  0
  3  4  1  0  0  0  0
  5  8  1  0  0  0  0
  6 11  1  0  0  0  0
  7  6  2  0  0  0  0
  7  8  1  0  0  0  0
  8  9  2  0  0  0  0
  9 10  1  0  0  0  0
 10 14  1  0  0  0  0
 11 10  2  0  0  0  0
 12  6  1  0  0  0  0
 13  7  1  0  0  0  0
 15  2  1  0  0  0  0
 15 16  1  0  0  0  0
 16 17  1  0  0  0  0
 17 19  2  0  0  0  0
 17 18  1  0  0  0  0
 19 20  1  0  0  0  0
 21 19  1  0  0  0  0
 22 21  2  0  0  0  0
 23 22  1  0  0  0  0
 23 16  2  0  0  0  0
M  END
>  <minimizedAffinity>
-4.50543022

$$$$

 OpenBabel03242519363D

 23 24  0  0  0  0  0  0  0  0999 V2000
   34.6220   29.0420   38.6670 O   0  0  0  0  0  0  0  0  0  0  0  0
   35.7280   29.2010   39.6970 P   0  0  1  0  0  0  0  0  0  0  0  0
   35.1770   29.9990   41.0690 O   0  0  0  0  0  0  0  0  0  0  0  0
   35.6810   30.8390   41.2340 H   0  0  0  0  0  0  0  0  0  0  0  0
   36.3200   27.6640   40.1580 O   0  0  0  0  0  0  0  0  0  0  0  0
   39.1200   26.9540   42.4090 C   0  0  0  0  0  0  0  0  0  0  0  0
   38.3570   27.0670   41.2170 C   0  0  0  0  0  0  0  0  0  0  0  0
   37.0540   27.5600   41.3390 C   0  0  0  0  0  0  0  0  0  0  0  0
   36.5880   27.9000   42.5660 N   0  0  0  0  0  0  0  0  0  0  0  0
   37.3320   27.7840   43.6800 C   0  0  0  0  0  0  0  0  0  0  0  0
   38.5840   27.3160   43.6070 N   0  0  0  0  0  0  0  0  0  0  0  0
   40.1360   26.5740   42.3380 H   0  0  0  0  0  0  0  0  0  0  0  0
   38.7670   26.7850   40.2600 H   0  0  0  0  0  0  0  0  0  0  0  0
   36.8280   28.0950   44.5900 H   0  0  0  0  0  0  0  0  0  0  0  0
   37.0030   30.0560   38.9740 O   0  0  0  0  0  0  0  0  0  0  0  0
   37.5510   31.2070   39.5620 C   0  0  0  0  0  0  0  0  0  0  0  0
   37.2340   32.4340   39.0220 C   0  0  0  0  0  0  0  0  0  0  0  0
   36.5800   32.5030   38.1690 H   0  0  0  0  0  0  0  0  0  0  0  0
   37.8220   33.5040   39.6700 C   0  0  0  0  0  0  0  0  0  0  0  0
   37.6160   34.5060   39.2980 H   0  0  0  0  0  0  0  0  0  0  0  0
   38.6490   33.2740   40.7660 C   0  0  0  0  0  3  0  0  0  0  0  0
   38.9270   32.0160   41.2580 C   0  0  0  0  0  3  0  0  0  0  0  0
   38.3440   30.9900   40.6120 N   0  0  0  0  0  0  0  0  0  0  0  0
  2  1  2  6  0  0  0
  2  5  1  0  0  0  0
  2  3  1  0  0  0  0
  3  4  1  0  0  0  0
  5  8  1  0  0  0  0
  6 11  1  0  0  0  0
  7  8  1  0  0  0  0
  7  6  2  0  0  0  0
  8  9  2  0  0  0  0
  9 10  1  0  0  0  0
 10 14  1  0  0  0  0
 11 10  2  0  0  0  0
 12  6  1  0  0  0  0
 13  7  1  0  0  0  0
 15 16  1  0  0  0  0
 15  2  1  0  0  0  0
 16 23  1  0  0  0  0
 17 16  2  0  0  0  0
 17 19  1  0  0  0  0
 18 17  1  0  0  0  0
 19 21  2  0  0  0  0
 20 19  1  0  0  0  0
 21 22  1  0  0  0  0
 23 22  2  0  0  0  0
M  END
>  <minimizedAffinity>
-4.47320127

$$$$

 OpenBabel03242519363D

 23 24  0  0  0  0  0  0  0  0999 V2000
   40.6800   25.8350   41.1960 O   0  0  0  0  0  0  0  0  0  0  0  0
   40.7400   25.3890   42.6470 P   0  0  1  0  0  0  0  0  0  0  0  0
   42.2130   24.6660   43.0060 O   0  0  0  0  0  0  0  0  0  0  0  0
   42.0980   23.7290   43.3160 H   0  0  0  0  0  0  0  0  0  0  0  0
   40.5240   26.7350   43.6800 O   0  0  0  0  0  0  0  0  0  0  0  0
   37.3790   28.5710   43.2940 C   0  0  0  0  0  0  0  0  0  0  0  0
   38.3000   27.5620   43.6800 C   0  0  0  0  0  0  0  0  0  0  0  0
   39.6330   27.7360   43.2920 C   0  0  0  0  0  0  0  0  0  0  0  0
   39.9770   28.8370   42.5790 N   0  0  0  0  0  0  0  0  0  0  0  0
   39.0840   29.7780   42.2270 C   0  0  0  0  0  0  0  0  0  0  0  0
   37.7980   29.6500   42.5780 N   0  0  0  0  0  0  0  0  0  0  0  0
   36.3370   28.4570   43.5840 H   0  0  0  0  0  0  0  0  0  0  0  0
   37.9840   26.7020   44.2470 H   0  0  0  0  0  0  0  0  0  0  0  0
   39.5020   30.6030   41.6590 H   0  0  0  0  0  0  0  0  0  0  0  0
   39.4570   24.3110   42.9200 O   0  0  0  0  0  0  0  0  0  0  0  0
   38.4860   24.0520   41.9400 C   0  0  0  0  0  0  0  0  0  0  0  0
   37.2890   24.7280   42.0080 C   0  0  0  0  0  0  0  0  0  0  0  0
   37.1070   25.4400   42.7970 H   0  0  0  0  0  0  0  0  0  0  0  0
   36.4000   24.4050   41.0010 C   0  0  0  0  0  0  0  0  0  0  0  0
   35.4310   24.9020   40.9910 H   0  0  0  0  0  0  0  0  0  0  0  0
   36.7620   23.4650   40.0390 C   0  0  0  0  0  3  0  0  0  0  0  0
   37.9810   22.8210   40.0290 C   0  0  0  0  0  3  0  0  0  0  0  0
   38.8300   23.1520   41.0180 N   0  0  0  0  0  0  0  0  0  0  0  0
  2  1  2  6  0  0  0
  2 15  1  0  0  0  0
  2  3  1  0  0  0  0
  2  5  1  0  0  0  0
  3  4  1  0  0  0  0
  6 12  1  0  0  0  0
  6  7  1  0  0  0  0
  7 13  1  0  0  0  0
  8  7  2  0  0  0  0
  8  5  1  0  0  0  0
  9  8  1  0  0  0  0
 10 11  1  0  0  0  0
 10  9  2  0  0  0  0
 11  6  2  0  0  0  0
 14 10  1  0  0  0  0
 16 17  1  0  0  0  0
 16 15  1  0  0  0  0
 17 18  1  0  0  0  0
 19 17  2  0  0  0  0
 20 19  1  0  0  0  0
 21 19  1  0  0  0  0
 22 21  2  0  0  0  0
 22 23  1  0  0  0  0
 23 16  2  0  0  0  0
M  END
>  <minimizedAffinity>
-4.46089745

$$$$

 OpenBabel03242519363D

 23 24  0  0  0  0  0  0  0  0999 V2000
   38.5700   28.3560   41.5860 O   0  0  0  0  0  0  0  0  0  0  0  0
   37.2150   28.3450   42.2740 P   0  0  1  0  0  0  0  0  0  0  0  0
   37.2320   29.2690   43.6770 O   0  0  0  0  0  0  0  0  0  0  0  0
   37.0080   28.7270   44.4790 H   0  0  0  0  0  0  0  0  0  0  0  0
   36.0220   28.9710   41.2200 O   0  0  0  0  0  0  0  0  0  0  0  0
   37.0050   32.1780   39.7520 C   0  0  0  0  0  0  0  0  0  0  0  0
   36.6130   31.2120   40.7150 C   0  0  0  0  0  0  0  0  0  0  0  0
   36.4060   29.9060   40.2600 C   0  0  0  0  0  0  0  0  0  0  0  0
   36.5840   29.6280   38.9450 N   0  0  0  0  0  0  0  0  0  0  0  0
   36.9560   30.5620   38.0520 C   0  0  0  0  0  0  0  0  0  0  0  0
   37.1640   31.8240   38.4470 N   0  0  0  0  0  0  0  0  0  0  0  0
   37.1720   33.2000   40.0830 H   0  0  0  0  0  0  0  0  0  0  0  0
   36.4830   31.4760   41.7530 H   0  0  0  0  0  0  0  0  0  0  0  0
   37.0600   30.1950   37.0360 H   0  0  0  0  0  0  0  0  0  0  0  0
   36.8130   26.7320   42.6200 O   0  0  0  0  0  0  0  0  0  0  0  0
   37.4050   25.6580   41.9370 C   0  0  0  0  0  0  0  0  0  0  0  0
   36.8440   25.2470   40.7480 C   0  0  0  0  0  0  0  0  0  0  0  0
   35.9710   25.7420   40.3550 H   0  0  0  0  0  0  0  0  0  0  0  0
   37.4980   24.1850   40.1530 C   0  0  0  0  0  0  0  0  0  0  0  0
   37.1100   23.8060   39.2090 H   0  0  0  0  0  0  0  0  0  0  0  0
   38.6200   23.6360   40.7680 C   0  0  0  0  0  3  0  0  0  0  0  0
   39.1320   24.0960   41.9630 C   0  0  0  0  0  3  0  0  0  0  0  0
   38.4800   25.1310   42.5230 N   0  0  0  0  0  0  0  0  0  0  0  0
  2  1  2  6  0  0  0
  2 15  1  0  0  0  0
  2  3  1  0  0  0  0
  3  4  1  0  0  0  0
  5  2  1  0  0  0  0
  6 12  1  0  0  0  0
  6  7  1  0  0  0  0
  7 13  1  0  0  0  0
  8  7  2  0  0  0  0
  8  5  1  0  0  0  0
  9  8  1  0  0  0  0
 10 11  1  0  0  0  0
 10  9  2  0  0  0  0
 11  6  2  0  0  0  0
 14 10  1  0  0  0  0
 16 23  1  0  0  0  0
 16 15  1  0  0  0  0
 17 16  2  0  0  0  0
 18 17  1  0  0  0  0
 19 17  1  0  0  0  0
 19 21  2  0  0  0  0
 20 19  1  0  0  0  0
 21 22  1  0  0  0  0
 22 23  2  0  0  0  0
M  END
>  <minimizedAffinity>
-4.43045855

$$$$

 OpenBabel03242519363D

 23 24  0  0  0  0  0  0  0  0999 V2000
   37.6820   32.9380   40.2250 O   0  0  0  0  0  0  0  0  0  0  0  0
   37.4580   31.4730   40.5580 P   0  0  1  0  0  0  0  0  0  0  0  0
   35.8780   31.1920   41.0570 O   0  0  0  0  0  0  0  0  0  0  0  0
   35.8420   30.8200   41.9770 H   0  0  0  0  0  0  0  0  0  0  0  0
   37.7780   30.5070   39.1840 O   0  0  0  0  0  0  0  0  0  0  0  0
   36.2630   27.1960   38.7940 C   0  0  0  0  0  0  0  0  0  0  0  0
   37.1940   28.2080   39.1480 C   0  0  0  0  0  0  0  0  0  0  0  0
   36.8530   29.5260   38.8290 C   0  0  0  0  0  0  0  0  0  0  0  0
   35.6730   29.7730   38.2070 N   0  0  0  0  0  0  0  0  0  0  0  0
   34.8090   28.7950   37.8840 C   0  0  0  0  0  0  0  0  0  0  0  0
   35.0970   27.5200   38.1710 N   0  0  0  0  0  0  0  0  0  0  0  0
   36.5070   26.1640   39.0320 H   0  0  0  0  0  0  0  0  0  0  0  0
   38.1220   27.9680   39.6420 H   0  0  0  0  0  0  0  0  0  0  0  0
   33.9050   29.1400   37.3900 H   0  0  0  0  0  0  0  0  0  0  0  0
   38.5600   31.0350   41.7730 O   0  0  0  0  0  0  0  0  0  0  0  0
   38.5390   29.7640   42.3690 C   0  0  0  0  0  0  0  0  0  0  0  0
   39.7380   29.1320   42.6080 C   0  0  0  0  0  0  0  0  0  0  0  0
   40.6690   29.6060   42.3420 H   0  0  0  0  0  0  0  0  0  0  0  0
   39.6130   27.8880   43.1970 C   0  0  0  0  0  0  0  0  0  0  0  0
   40.5220   27.3290   43.4160 H   0  0  0  0  0  0  0  0  0  0  0  0
   38.3460   27.3900   43.4910 C   0  0  0  0  0  3  0  0  0  0  0  0
   37.1800   28.0770   43.2250 C   0  0  0  0  0  3  0  0  0  0  0  0
   37.3270   29.2850   42.6520 N   0  0  0  0  0  0  0  0  0  0  0  0
  2  1  2  6  0  0  0
  2  3  1  0  0  0  0
  2 15  1  0  0  0  0
  3  4  1  0  0  0  0
  5  2  1  0  0  0  0
  6 12  1  0  0  0  0
  6  7  1  0  0  0  0
  7 13  1  0  0  0  0
  8  7  2  0  0  0  0
  8  5  1  0  0  0  0
  9  8  1  0  0  0  0
 10 11  1  0  0  0  0
 10  9  2  0  0  0  0
 11  6  2  0  0  0  0
 14 10  1  0  0  0  0
 15 16  1  0  0  0  0
 16 17  2  0  0  0  0
 16 23  1  0  0  0  0
 17 19  1  0  0  0  0
 18 17  1  0  0  0  0
 19 20  1  0  0  0  0
 19 21  2  0  0  0  0
 22 21  1  0  0  0  0
 23 22  2  0  0  0  0
M  END
>  <minimizedAffinity>
-4.42620039

$$$$

 OpenBabel03242519363D

 23 24  0  0  0  0  0  0  0  0999 V2000
   35.0390   29.1110   38.8900 O   0  0  0  0  0  0  0  0  0  0  0  0
   36.1700   29.4790   39.8340 P   0  0  1  0  0  0  0  0  0  0  0  0
   37.6650   29.0600   39.1920 O   0  0  0  0  0  0  0  0  0  0  0  0
   38.1490   28.4160   39.7740 H   0  0  0  0  0  0  0  0  0  0  0  0
   36.1560   31.1630   40.1330 O   0  0  0  0  0  0  0  0  0  0  0  0
   38.7040   33.7930   40.1270 C   0  0  0  0  0  0  0  0  0  0  0  0
   37.4760   33.1210   39.8960 C   0  0  0  0  0  0  0  0  0  0  0  0
   37.3700   31.8080   40.3680 C   0  0  0  0  0  0  0  0  0  0  0  0
   38.4240   31.2490   41.0110 N   0  0  0  0  0  0  0  0  0  0  0  0
   39.5770   31.9090   41.2170 C   0  0  0  0  0  0  0  0  0  0  0  0
   39.7210   33.1660   40.7810 N   0  0  0  0  0  0  0  0  0  0  0  0
   38.8090   34.8140   39.7690 H   0  0  0  0  0  0  0  0  0  0  0  0
   36.6610   33.6030   39.3800 H   0  0  0  0  0  0  0  0  0  0  0  0
   40.3340   31.3360   41.7460 H   0  0  0  0  0  0  0  0  0  0  0  0
   35.9050   28.6850   41.3110 O   0  0  0  0  0  0  0  0  0  0  0  0
   36.8960   27.8990   41.9190 C   0  0  0  0  0  0  0  0  0  0  0  0
   37.3530   28.2680   43.1640 C   0  0  0  0  0  0  0  0  0  0  0  0
   36.9550   29.1400   43.6570 H   0  0  0  0  0  0  0  0  0  0  0  0
   38.3270   27.4330   43.6780 C   0  0  0  0  0  0  0  0  0  0  0  0
   38.7360   27.6630   44.6610 H   0  0  0  0  0  0  0  0  0  0  0  0
   38.7540   26.3350   42.9360 C   0  0  0  0  0  3  0  0  0  0  0  0
   38.2530   26.0210   41.6890 C   0  0  0  0  0  3  0  0  0  0  0  0
   37.3070   26.8470   41.2100 N   0  0  0  0  0  0  0  0  0  0  0  0
  2  1  2  6  0  0  0
  2  5  1  0  0  0  0
  2 15  1  0  0  0  0
  3  4  1  0  0  0  0
  3  2  1  0  0  0  0
  5  8  1  0  0  0  0
  6 11  1  0  0  0  0
  7  6  2  0  0  0  0
  7  8  1  0  0  0  0
  8  9  2  0  0  0  0
  9 10  1  0  0  0  0
 10 14  1  0  0  0  0
 11 10  2  0  0  0  0
 12  6  1  0  0  0  0
 13  7  1  0  0  0  0
 15 16  1  0  0  0  0
 16 17  1  0  0  0  0
 17 18  1  0  0  0  0
 17 19  2  0  0  0  0
 19 20  1  0  0  0  0
 21 19  1  0  0  0  0
 22 21  2  0  0  0  0
 23 22  1  0  0  0  0
 23 16  2  0  0  0  0
M  END
>  <minimizedAffinity>
-4.36780596

$$$$

 OpenBabel03242519363D

 23 24  0  0  0  0  0  0  0  0999 V2000
   38.9470   30.5320   42.3590 O   0  0  0  0  0  0  0  0  0  0  0  0
   38.0870   29.3720   41.8890 P   0  0  1  0  0  0  0  0  0  0  0  0
   38.8120   28.5460   40.6180 O   0  0  0  0  0  0  0  0  0  0  0  0
   38.2450   28.5550   39.8020 H   0  0  0  0  0  0  0  0  0  0  0  0
   37.8310   28.2770   43.1780 O   0  0  0  0  0  0  0  0  0  0  0  0
   39.9920   25.3440   43.5530 C   0  0  0  0  0  0  0  0  0  0  0  0
   39.5040   26.6710   43.6800 C   0  0  0  0  0  0  0  0  0  0  0  0
   38.2950   26.9690   43.0430 C   0  0  0  0  0  0  0  0  0  0  0  0
   37.6570   25.9960   42.3460 N   0  0  0  0  0  0  0  0  0  0  0  0
   38.1410   24.7460   42.2420 C   0  0  0  0  0  0  0  0  0  0  0  0
   39.2950   24.4200   42.8360 N   0  0  0  0  0  0  0  0  0  0  0  0
   40.9300   25.0900   44.0400 H   0  0  0  0  0  0  0  0  0  0  0  0
   40.0430   27.4150   44.2440 H   0  0  0  0  0  0  0  0  0  0  0  0
   37.5240   24.0730   41.6540 H   0  0  0  0  0  0  0  0  0  0  0  0
   36.5770   29.9910   41.4220 O   0  0  0  0  0  0  0  0  0  0  0  0
   36.0280   29.7300   40.1570 C   0  0  0  0  0  0  0  0  0  0  0  0
   34.7860   29.1390   40.0890 C   0  0  0  0  0  0  0  0  0  0  0  0
   34.2510   28.8850   40.9900 H   0  0  0  0  0  0  0  0  0  0  0  0
   34.3320   28.9240   38.8020 C   0  0  0  0  0  0  0  0  0  0  0  0
   33.3560   28.4600   38.6710 H   0  0  0  0  0  0  0  0  0  0  0  0
   35.1250   29.3000   37.7210 C   0  0  0  0  0  3  0  0  0  0  0  0
   36.3650   29.8900   37.8580 C   0  0  0  0  0  3  0  0  0  0  0  0
   36.7850   30.0900   39.1200 N   0  0  0  0  0  0  0  0  0  0  0  0
  2  1  2  1  0  0  0
  2  5  1  0  0  0  0
  3  2  1  0  0  0  0
  4  3  1  0  0  0  0
  6  7  1  0  0  0  0
  6 12  1  0  0  0  0
  7 13  1  0  0  0  0
  8  5  1  0  0  0  0
  8  7  2  0  0  0  0
  9  8  1  0  0  0  0
 10  9  2  0  0  0  0
 10 11  1  0  0  0  0
 11  6  2  0  0  0  0
 14 10  1  0  0  0  0
 15  2  1  0  0  0  0
 16 15  1  0  0  0  0
 17 16  1  0  0  0  0
 17 18  1  0  0  0  0
 19 17  2  0  0  0  0
 20 19  1  0  0  0  0
 21 22  2  0  0  0  0
 21 19  1  0  0  0  0
 22 23  1  0  0  0  0
 23 16  2  0  0  0  0
M  END
>  <minimizedAffinity>
-4.36077785

$$$$

 OpenBabel03242519363D

 23 24  0  0  0  0  0  0  0  0999 V2000
   35.8700   28.0870   39.7840 O   0  0  0  0  0  0  0  0  0  0  0  0
   36.8840   28.4530   40.8550 P   0  0  1  0  0  0  0  0  0  0  0  0
   38.4550   28.3770   40.2640 O   0  0  0  0  0  0  0  0  0  0  0  0
   39.0070   27.7240   40.7690 H   0  0  0  0  0  0  0  0  0  0  0  0
   36.5870   30.0400   41.4190 O   0  0  0  0  0  0  0  0  0  0  0  0
   37.7100   33.0460   39.6530 C   0  0  0  0  0  0  0  0  0  0  0  0
   36.8690   31.9930   40.1010 C   0  0  0  0  0  0  0  0  0  0  0  0
   37.4270   31.0680   40.9890 C   0  0  0  0  0  0  0  0  0  0  0  0
   38.7190   31.2140   41.3730 N   0  0  0  0  0  0  0  0  0  0  0  0
   39.4940   32.2220   40.9340 C   0  0  0  0  0  0  0  0  0  0  0  0
   38.9990   33.1290   40.0830 N   0  0  0  0  0  0  0  0  0  0  0  0
   37.2970   33.7780   38.9630 H   0  0  0  0  0  0  0  0  0  0  0  0
   35.8460   31.9140   39.7710 H   0  0  0  0  0  0  0  0  0  0  0  0
   40.5060   32.2130   41.3250 H   0  0  0  0  0  0  0  0  0  0  0  0
   36.6790   27.3880   42.1610 O   0  0  0  0  0  0  0  0  0  0  0  0
   37.5770   26.3380   42.4090 C   0  0  0  0  0  0  0  0  0  0  0  0
   37.2130   25.0630   42.0390 C   0  0  0  0  0  0  0  0  0  0  0  0
   36.2600   24.8800   41.5700 H   0  0  0  0  0  0  0  0  0  0  0  0
   38.1630   24.1000   42.3240 C   0  0  0  0  0  0  0  0  0  0  0  0
   37.9440   23.0670   42.0590 H   0  0  0  0  0  0  0  0  0  0  0  0
   39.3580   24.4720   42.9340 C   0  0  0  0  0  3  0  0  0  0  0  0
   39.6610   25.7720   43.2800 C   0  0  0  0  0  3  0  0  0  0  0  0
   38.7230   26.6910   42.9920 N   0  0  0  0  0  0  0  0  0  0  0  0
  2  1  2  6  0  0  0
  2  5  1  0  0  0  0
  2 15  1  0  0  0  0
  3  4  1  0  0  0  0
  3  2  1  0  0  0  0
  6 11  2  0  0  0  0
  6  7  1  0  0  0  0
  7  8  2  0  0  0  0
  8  9  1  0  0  0  0
  8  5  1  0  0  0  0
 10 14  1  0  0  0  0
 10  9  2  0  0  0  0
 11 10  1  0  0  0  0
 12  6  1  0  0  0  0
 13  7  1  0  0  0  0
 15 16  1  0  0  0  0
 16 23  1  0  0  0  0
 17 19  1  0  0  0  0
 17 16  2  0  0  0  0
 18 17  1  0  0  0  0
 19 21  2  0  0  0  0
 20 19  1  0  0  0  0
 21 22  1  0  0  0  0
 23 22  2  0  0  0  0
M  END
>  <minimizedAffinity>
-4.30416822

$$$$
