
 OpenBabel03252506343D

 32 34  0  0  1  0  0  0  0  0999 V2000
   44.4750   35.7150   44.9970 C   0  0  0  0  0  0  0  0  0  0  0  0
   45.1480   35.6880   43.7530 C   0  0  0  0  0  0  0  0  0  0  0  0
   46.0630   34.7090   43.5270 C   0  0  0  0  0  0  0  0  0  0  0  0
   46.2840   33.8100   44.5040 N   0  0  0  0  0  0  0  0  0  0  0  0
   45.6430   33.8420   45.6800 C   0  0  0  0  0  0  0  0  0  0  0  0
   44.7320   34.7860   45.9520 N   0  0  0  0  0  0  0  0  0  0  0  0
   45.9520   32.8440   46.6500 N   0  0  0  0  0  0  0  0  0  0  0  0
   45.1590   32.5460   47.8330 C   0  0  0  0  0  0  0  0  0  0  0  0
   46.2450   32.2690   48.8590 C   0  0  0  0  0  0  0  0  0  0  0  0
   47.5460   32.1340   48.1050 C   0  0  0  0  0  0  0  0  0  0  0  0
   47.0860   31.9410   46.6740 C   0  0  1  0  0  0  0  0  0  0  0  0
   43.7330   36.4480   45.2720 H   0  0  0  0  0  0  0  0  0  0  0  0
   46.5470   34.7180   42.5880 H   0  0  0  0  0  0  0  0  0  0  0  0
   44.4790   31.6880   47.6830 H   0  0  0  0  0  0  0  0  0  0  0  0
   44.5160   33.3970   48.1230 H   0  0  0  0  0  0  0  0  0  0  0  0
   46.2910   33.1660   49.5200 H   0  0  0  0  0  0  0  0  0  0  0  0
   45.9980   31.4070   49.4900 H   0  0  0  0  0  0  0  0  0  0  0  0
   48.2320   32.9710   48.2440 H   0  0  0  0  0  0  0  0  0  0  0  0
   47.9880   31.1600   48.4300 H   0  0  0  0  0  0  0  0  0  0  0  0
   47.8830   32.2520   45.9670 H   0  0  0  0  0  0  0  0  0  0  0  0
   44.7620   36.7370   42.8620 N   0  0  0  0  0  0  0  0  0  0  0  0
   45.5280   37.2330   42.3630 H   0  0  0  0  0  0  0  0  0  0  0  0
   43.7720   37.0010   42.7110 H   0  0  0  0  0  0  0  0  0  0  0  0
   46.5980   30.2180   46.4780 S   0  0  0  0  0  0  0  0  0  0  0  0
   45.7790   29.9210   44.9210 C   0  0  0  0  0  0  0  0  0  0  0  0
   46.4570   30.3410   43.7840 C   0  0  0  0  0  0  0  0  0  0  0  0
   47.4390   30.8280   43.8250 H   0  0  0  0  0  0  0  0  0  0  0  0
   45.8680   30.1340   42.5470 C   0  0  0  0  0  0  0  0  0  0  0  0
   46.3790   30.4520   41.6620 H   0  0  0  0  0  0  0  0  0  0  0  0
   44.6250   29.5210   42.4320 C   0  0  0  0  0  3  0  0  0  0  0  0
   43.9930   29.1220   43.5990 C   0  0  0  0  0  3  0  0  0  0  0  0
   44.5670   29.3220   44.8220 N   0  0  0  0  0  0  0  0  0  0  0  0
  1 12  1  0  0  0  0
  1  6  1  0  0  0  0
  2  1  2  0  0  0  0
  3  2  1  0  0  0  0
  3  4  2  0  0  0  0
  4  5  1  0  0  0  0
  5  6  2  0  0  0  0
  5  7  1  0  0  0  0
  7 11  1  0  0  0  0
  7  8  1  0  0  0  0
  8 15  1  0  0  0  0
  8  9  1  0  0  0  0
  9 17  1  0  0  0  0
  9 16  1  0  0  0  0
 10 18  1  0  0  0  0
 10 19  1  0  0  0  0
 10  9  1  0  0  0  0
 11 20  1  6  0  0  0
 11 10  1  0  0  0  0
 13  3  1  0  0  0  0
 14  8  1  0  0  0  0
 21  2  1  0  0  0  0
 22 21  1  0  0  0  0
 23 21  1  0  0  0  0
 24 11  1  0  0  0  0
 25 24  1  0  0  0  0
 26 27  1  0  0  0  0
 26 25  2  0  0  0  0
 28 26  1  0  0  0  0
 29 28  1  0  0  0  0
 30 28  2  0  0  0  0
 30 31  1  0  0  0  0
 31 32  2  0  0  0  0
 32 25  1  0  0  0  0
M  END
>  <minimizedAffinity>
-4.91286612

>  <minimizedRMSD>
0.261511356

$$$$
