
 OpenBabel03242512003D

 46 49  0  0  1  0  0  0  0  0999 V2000
   47.1010   34.0990   42.4750 C   0  0  2  0  0  0  0  0  0  0  0  0
   48.5160   34.5610   42.6580 C   0  0  0  0  0  0  0  0  0  0  0  0
   48.9180   35.5720   41.6580 C   0  0  0  0  0  0  0  0  0  0  0  0
   48.7260   35.0840   40.2430 C   0  0  0  0  0  0  0  0  0  0  0  0
   47.4340   34.3490   40.0270 C   0  0  0  0  0  0  0  0  0  0  0  0
   46.4730   34.4740   41.1840 C   0  0  1  0  0  0  0  0  0  0  0  0
   47.1600   32.9700   42.5240 H   0  0  0  0  0  0  0  0  0  0  0  0
   49.2540   33.7360   42.6800 H   0  0  0  0  0  0  0  0  0  0  0  0
   48.5780   35.0320   43.6670 H   0  0  0  0  0  0  0  0  0  0  0  0
   48.2700   36.4890   41.7610 H   0  0  0  0  0  0  0  0  0  0  0  0
   49.9930   35.8140   41.7870 H   0  0  0  0  0  0  0  0  0  0  0  0
   49.5520   34.3510   40.0520 H   0  0  0  0  0  0  0  0  0  0  0  0
   48.8940   35.9240   39.5400 H   0  0  0  0  0  0  0  0  0  0  0  0
   47.5510   33.2770   39.7770 H   0  0  0  0  0  0  0  0  0  0  0  0
   46.9550   34.8440   39.1390 H   0  0  0  0  0  0  0  0  0  0  0  0
   46.0500   35.4860   41.1100 H   0  0  0  0  0  0  0  0  0  0  0  0
   46.2270   34.4800   43.6020 C   0  0  0  0  0  0  0  0  0  0  0  0
   45.5300   35.6550   43.3760 C   0  0  0  0  0  0  0  0  0  0  0  0
   44.6520   36.1440   44.3590 C   0  0  0  0  0  0  0  0  0  0  0  0
   44.5580   35.3710   45.5220 N   0  0  0  0  0  0  0  0  0  0  0  0
   45.2610   34.2330   45.6920 C   0  0  0  0  0  0  0  0  0  0  0  0
   46.0900   33.8020   44.7220 N   0  0  0  0  0  0  0  0  0  0  0  0
   45.4670   36.3830   42.5820 H   0  0  0  0  0  0  0  0  0  0  0  0
   44.0380   37.0080   44.3800 H   0  0  0  0  0  0  0  0  0  0  0  0
   45.1360   33.6910   46.6150 H   0  0  0  0  0  0  0  0  0  0  0  0
   45.3260   33.5310   40.9350 C   0  0  2  0  0  0  0  0  0  0  0  0
   44.9680   33.2380   39.4870 C   0  0  0  0  0  0  0  0  0  0  0  0
   44.0620   34.0300   40.3320 C   0  0  1  0  0  0  0  0  0  0  0  0
   45.3360   32.6110   41.5600 H   0  0  0  0  0  0  0  0  0  0  0  0
   45.4920   33.8170   38.6870 H   0  0  0  0  0  0  0  0  0  0  0  0
   44.6580   32.2330   39.1870 H   0  0  0  0  0  0  0  0  0  0  0  0
   44.0350   35.1460   40.2100 H   0  0  0  0  0  0  0  0  0  0  0  0
   42.8360   33.4940   40.9920 C   0  0  0  0  0  0  0  0  0  0  0  0
   43.0460   33.0200   41.9720 H   0  0  0  0  0  0  0  0  0  0  0  0
   42.4160   32.6900   40.3410 H   0  0  0  0  0  0  0  0  0  0  0  0
   41.7540   34.5290   41.1850 C   0  0  0  0  0  0  0  0  0  0  0  0
   41.3290   34.4050   42.1980 H   0  0  0  0  0  0  0  0  0  0  0  0
   42.2000   35.5410   41.0920 H   0  0  0  0  0  0  0  0  0  0  0  0
   40.6510   34.3570   40.2050 C   0  0  0  0  0  0  0  0  0  0  0  0
   39.3810   33.9210   40.5180 C   0  0  0  0  0  0  0  0  0  0  0  0
   39.1690   33.6840   41.5600 H   0  0  0  0  0  0  0  0  0  0  0  0
   38.3940   33.7790   39.5710 C   0  0  0  0  0  0  0  0  0  0  0  0
   37.4060   33.4460   39.7760 H   0  0  0  0  0  0  0  0  0  0  0  0
   38.7050   34.0890   38.2700 C   0  0  0  0  0  0  0  0  0  0  0  0
   39.9630   34.5240   37.9450 C   0  0  0  0  0  0  0  0  0  0  0  0
   40.8980   34.6480   38.9040 N   0  0  0  0  0  0  0  0  0  0  0  0
  1  7  1  1  0  0  0
  1  2  1  0  0  0  0
  1 17  1  0  0  0  0
  2  8  1  0  0  0  0
  2  9  1  0  0  0  0
  3 10  1  0  0  0  0
  3 11  1  0  0  0  0
  3  2  1  0  0  0  0
  4  3  1  0  0  0  0
  5  4  1  0  0  0  0
  5  6  1  0  0  0  0
  6 16  1  1  0  0  0
  6  1  1  0  0  0  0
 12  4  1  0  0  0  0
 13  4  1  0  0  0  0
 14  5  1  0  0  0  0
 15  5  1  0  0  0  0
 17 22  1  0  0  0  0
 18 17  2  0  0  0  0
 18 19  1  0  0  0  0
 19 24  1  0  0  0  0
 19 20  2  0  0  0  0
 20 21  1  0  0  0  0
 21 25  1  0  0  0  0
 22 21  2  0  0  0  0
 23 18  1  0  0  0  0
 26  6  1  0  0  0  0
 26 29  1  1  0  0  0
 27 28  1  0  0  0  0
 27 26  1  0  0  0  0
 28 32  1  6  0  0  0
 28 26  1  0  0  0  0
 28 33  1  0  0  0  0
 30 27  1  0  0  0  0
 31 27  1  0  0  0  0
 33 36  1  0  0  0  0
 33 34  1  0  0  0  0
 35 33  1  0  0  0  0
 36 37  1  0  0  0  0
 38 36  1  0  0  0  0
 39 40  1  0  0  0  0
 39 36  1  0  0  0  0
 40 41  1  0  0  0  0
 42 43  1  0  0  0  0
 42 40  2  0  0  0  0
 44 42  1  0  0  0  0
 45 44  2  0  0  0  0
 45 46  1  0  0  0  0
 46 39  2  0  0  0  0
M  END
>  <minimizedAffinity>
-6.84393549

>  <minimizedRMSD>
1.3246094

$$$$
