REMARK  Name = 
REMARK  3 active torsions:
REMARK  status: ('A' for Active; 'I' for Inactive)
REMARK    1  A    between atoms: C_2  and  C_14
REMARK    2  A    between atoms: C_3  and  S_16
REMARK    3  A    between atoms: S_16  and  C_24
REMARK                            x       y       z     vdW  Elec       q    Type
REMARK                         _______ _______ _______ _____ _____    ______ ____
ROOT
ATOM      1  C   UNL     1      47.463  31.681  44.825  0.00  0.00    +0.000 A 
ATOM      2  C   UNL     1      46.778  32.867  44.536  0.00  0.00    +0.000 A 
ATOM      3  C   UNL     1      45.909  33.450  45.422  0.00  0.00    +0.000 A 
ATOM      4  C   UNL     1      45.681  32.855  46.674  0.00  0.00    +0.000 A 
ATOM      5  N   UNL     1      44.926  33.130  47.759  0.00  0.00    +0.000 N 
ATOM      6  C   UNL     1      45.113  32.179  48.693  0.00  0.00    +0.000 A 
ATOM      7  N   UNL     1      46.005  31.310  48.154  0.00  0.00    +0.000 NA
ATOM      8  C   UNL     1      46.364  31.698  46.928  0.00  0.00    +0.000 A 
ATOM      9  C   UNL     1      47.246  31.079  46.063  0.00  0.00    +0.000 A 
ATOM     10  H   UNL     1      48.139  31.250  44.103  0.00  0.00    +0.000 HD
ATOM     11  H   UNL     1      44.304  33.956  47.838  0.00  0.00    +0.000 HD
ATOM     12  H   UNL     1      44.629  32.152  49.668  0.00  0.00    +0.000 HD
ATOM     13  H   UNL     1      47.750  30.162  46.338  0.00  0.00    +0.000 HD
ENDROOT
BRANCH   2  18
ATOM     14  C   UNL     1      46.378  33.819  41.017  0.00  0.00    +0.000 A 
ATOM     15  C   UNL     1      47.435  34.719  40.827  0.00  0.00    +0.000 A 
ATOM     16  C   UNL     1      48.271  34.989  41.906  0.00  0.00    +0.000 A 
ATOM     17  N   UNL     1      48.023  34.363  43.101  0.00  0.00    +0.000 NA
ATOM     18  C   UNL     1      46.996  33.505  43.243  0.00  0.00    +0.000 A 
ATOM     19  N   UNL     1      46.156  33.214  42.213  0.00  0.00    +0.000 NA
ATOM     20  H   UNL     1      45.658  33.523  40.265  0.00  0.00    +0.000 HD
ATOM     21  H   UNL     1      47.537  35.151  39.851  0.00  0.00    +0.000 HD
ATOM     22  H   UNL     1      49.089  35.683  41.766  0.00  0.00    +0.000 HD
ENDBRANCH   2  18
BRANCH   3  23
ATOM     23  S   UNL     1      45.046  34.958  45.055  0.00  0.00    +0.000 S 
BRANCH  23  24
ATOM     24  C   UNL     1      43.471  34.687  44.256  0.00  0.00    +0.000 A 
ATOM     25  C   UNL     1      42.270  35.112  44.807  0.00  0.00    +0.000 A 
ATOM     26  H   UNL     1      42.283  35.630  45.759  0.00  0.00    +0.000 HD
ATOM     27  C   UNL     1      41.063  34.891  44.170  0.00  0.00    +0.000 A 
ATOM     28  H   UNL     1      40.114  35.209  44.572  0.00  0.00    +0.000 HD
ATOM     29  C   UNL     1      41.014  34.228  42.946  0.00  0.00    +0.000 A 
ATOM     30  C   UNL     1      42.225  33.822  42.432  0.00  0.00    +0.000 A 
ATOM     31  N   UNL     1      43.372  34.045  43.060  0.00  0.00    +0.000 NA
ENDBRANCH  23  24
ENDBRANCH   3  23
TORSDOF 3
