
     RDKit          3D

 44 48  0  0  0  0  0  0  0  0999 V2000
   44.5999   36.0031   44.4630 C   0  0  0  0  0  0  0  0  0  0  0  0
   45.4046   35.5341   43.3964 C   0  0  0  0  0  0  0  0  0  0  0  0
   46.1306   34.3948   43.5967 C   0  0  0  0  0  0  0  0  0  0  0  0
   46.0553   33.7549   44.8001 N   0  0  0  0  0  0  0  0  0  0  0  0
   45.2987   34.2058   45.7851 C   0  0  0  0  0  0  0  0  0  0  0  0
   44.5735   35.3180   45.6313 N   0  0  0  0  0  0  0  0  0  0  0  0
   47.0194   33.9047   42.5042 C   0  0  0  0  0  0  0  0  0  0  0  0
   47.3408   35.0463   41.5935 C   0  0  0  0  0  0  0  0  0  0  0  0
   48.8315   34.9389   41.4100 C   0  0  1  0  0  0  0  0  0  0  0  0
   49.7163   35.1359   42.5378 C   0  0  0  0  0  0  0  0  0  0  0  0
   49.5514   33.8175   41.7890 C   0  0  1  0  0  0  0  0  0  0  0  0
   43.9901   36.8920   44.4082 H   0  0  0  0  0  0  0  0  0  0  0  0
   45.3105   36.1743   42.5361 H   0  0  0  0  0  0  0  0  0  0  0  0
   45.2126   33.7263   46.7537 H   0  0  0  0  0  0  0  0  0  0  0  0
   47.8848   33.7314   43.1675 H   0  0  0  0  0  0  0  0  0  0  0  0
   46.6230   33.0186   42.0028 H   0  0  0  0  0  0  0  0  0  0  0  0
   47.1924   36.0391   42.1104 H   0  0  0  0  0  0  0  0  0  0  0  0
   46.7860   35.0496   40.6547 H   0  0  0  0  0  0  0  0  0  0  0  0
   49.1054   35.5918   40.5303 H   0  0  0  0  0  0  0  0  0  0  0  0
   49.4231   35.1956   43.5832 H   0  0  0  0  0  0  0  0  0  0  0  0
   50.7489   35.5728   42.3919 H   0  0  0  0  0  0  0  0  0  0  0  0
   50.2681   33.5864   40.9261 H   0  0  0  0  0  0  0  0  0  0  0  0
   49.8764   32.7116   42.6102 C   0  0  0  0  0  0  0  0  0  0  0  0
   50.9533   31.8397   42.3721 C   0  0  0  0  0  0  0  0  0  0  0  0
   51.5604   32.0121   41.4929 H   0  0  0  0  0  0  0  0  0  0  0  0
   51.1901   30.8136   43.2541 C   0  0  0  0  0  0  0  0  0  0  0  0
   52.0530   30.1941   42.9751 H   0  0  0  0  0  0  0  0  0  0  0  0
   50.3864   30.6360   44.3593 C   0  0  0  0  0  0  0  0  0  0  0  0
   49.3358   31.4352   44.6483 C   0  0  0  0  0  0  0  0  0  0  0  0
   49.1241   32.4364   43.7657 C   0  0  0  0  0  0  0  0  0  0  0  0
   48.2820   33.1102   43.9598 H   0  0  0  0  0  0  0  0  0  0  0  0
   48.3548   31.1423   46.0827 S   0  0  0  0  0  0  0  0  0  0  0  0
   49.0736   29.7121   46.8798 C   0  0  0  0  0  0  0  0  0  0  0  0
   48.4335   29.3379   48.0239 C   0  0  0  0  0  0  0  0  0  0  0  0
   47.5772   29.8226   48.4467 H   0  0  0  0  0  0  0  0  0  0  0  0
   48.9197   28.2327   48.7176 C   0  0  0  0  0  0  0  0  0  0  0  0
   48.4845   27.8585   49.6302 H   0  0  0  0  0  0  0  0  0  0  0  0
   50.0197   27.5671   48.2229 C   0  0  0  0  0  0  0  0  0  0  0  0
   50.4107   26.7064   48.7493 H   0  0  0  0  0  0  0  0  0  0  0  0
   50.5849   28.0227   47.0717 C   0  0  0  0  0  0  0  0  0  0  0  0
   51.4616   27.4522   46.7228 H   0  0  0  0  0  0  0  0  0  0  0  0
   50.1737   29.1059   46.3183 C   0  0  0  0  0  0  0  0  0  0  0  0
   50.7982   29.5318   45.1345 N   0  0  0  0  0  0  0  0  0  0  0  0
   51.6274   28.9071   44.8995 H   0  0  0  0  0  0  0  0  0  0  0  0
  1  6  2  0
  2  3  2  0
  2  1  1  0
  3  4  1  0
  4  5  2  0
  6  5  1  0
  7  3  1  0
  8  7  1  0
  9  8  1  0
  9 11  1  0
  9 10  1  0
 11 10  1  0
  1 12  1  0
  2 13  1  0
  5 14  1  0
  7 15  1  0
  7 16  1  0
  8 17  1  0
  8 18  1  0
  9 19  1  6
 10 20  1  0
 10 21  1  0
 11 22  1  6
 23 24  2  0
 24 25  1  0
 24 26  1  0
 26 27  1  0
 26 28  2  0
 28 29  1  0
 29 30  2  0
 30 31  1  0
 29 32  1  0
 32 33  1  0
 33 34  2  0
 34 35  1  0
 34 36  1  0
 36 37  1  0
 36 38  2  0
 38 39  1  0
 38 40  1  0
 40 41  1  0
 40 42  2  0
 42 43  1  0
 43 44  1  0
 30 23  1  0
 42 33  1  0
 43 28  1  0
 11 23  1  0
M  ISO  8  12  14  13  14  14  14  15   8  16   8  17   8  18   8  19  13
M  ISO  8  20  13  21  13  22  13  25  16  27  16  31  16  35  16  37  16
M  ISO  3  39  16  41  16  44   5
M  END
>  <DihAtoms>  (1) 
8,10,22,23

>  <DihDeg>  (1) 
-73.20479766172262

$$$$
