
 OpenBabel03242518503D

 36 39  0  0  0  0  0  0  0  0999 V2000
   46.5060   32.1670   47.2540 C   0  0  0  0  0  0  0  0  0  0  0  0
   47.5530   32.4090   48.1160 C   0  0  0  0  0  0  0  0  0  0  0  0
   47.8010   33.3880   48.4940 H   0  0  0  0  0  0  0  0  0  0  0  0
   48.3840   31.4070   48.5880 C   0  0  0  0  0  0  0  0  0  0  0  0
   49.2100   31.6610   49.2740 H   0  0  0  0  0  0  0  0  0  0  0  0
   48.2120   30.0770   48.2180 C   0  0  0  0  0  0  0  0  0  0  0  0
   47.1600   29.8660   47.3580 C   0  0  0  0  0  0  0  0  0  0  0  0
   46.3550   30.8450   46.9020 C   0  0  0  0  0  0  0  0  0  0  0  0
   45.5290   30.6260   46.2080 H   0  0  0  0  0  0  0  0  0  0  0  0
   46.8330   28.2020   46.8090 S   0  0  0  0  0  0  0  0  0  0  0  0
   48.0490   27.1830   47.6170 C   0  0  0  0  0  0  0  0  0  0  0  0
   47.9810   25.8520   47.3630 C   0  0  0  0  0  0  0  0  0  0  0  0
   47.2310   25.4230   46.7060 H   0  0  0  0  0  0  0  0  0  0  0  0
   48.9250   25.0410   47.9850 C   0  0  0  0  0  0  0  0  0  0  0  0
   48.9010   23.9800   47.8030 H   0  0  0  0  0  0  0  0  0  0  0  0
   49.9070   25.5290   48.8320 C   0  0  0  0  0  0  0  0  0  0  0  0
   50.6370   24.9040   49.3070 H   0  0  0  0  0  0  0  0  0  0  0  0
   49.9000   26.9070   49.0330 C   0  0  0  0  0  0  0  0  0  0  0  0
   50.6880   27.2720   49.7080 H   0  0  0  0  0  0  0  0  0  0  0  0
   48.9850   27.7480   48.4390 C   0  0  0  0  0  0  0  0  0  0  0  0
   49.0840   29.1060   48.7400 N   0  0  0  0  0  0  0  0  0  0  0  0
   49.8370   29.4330   49.3830 H   0  0  0  0  0  0  0  0  0  0  0  0
   45.6380   33.2300   46.7720 C   0  0  0  0  0  0  0  0  0  0  0  0
   44.7070   33.5560   47.5650 O   0  0  0  0  0  0  0  0  0  0  0  0
   44.9870   35.4530   43.9520 C   0  0  0  0  0  0  0  0  0  0  0  0
   46.0470   35.2180   43.0490 C   0  0  0  0  0  0  0  0  0  0  0  0
   46.9770   34.2710   43.4520 C   0  0  0  0  0  0  0  0  0  0  0  0
   46.7820   33.6800   44.6350 N   0  0  0  0  0  0  0  0  0  0  0  0
   45.7850   33.8970   45.4930 C   0  0  0  0  0  0  0  0  0  0  0  0
   44.8640   34.8150   45.1260 N   0  0  0  0  0  0  0  0  0  0  0  0
   44.2480   36.1920   43.6620 H   0  0  0  0  0  0  0  0  0  0  0  0
   46.1540   35.7240   42.1130 H   0  0  0  0  0  0  0  0  0  0  0  0
   48.0930   34.0090   42.5350 C   0  0  0  0  0  0  0  0  0  0  0  0
   48.6230   32.7540   42.7830 F   0  0  0  0  0  0  0  0  0  0  0  0
   49.1050   34.9190   42.8870 F   0  0  0  0  0  0  0  0  0  0  0  0
   47.7530   34.1060   41.2270 F   0  0  0  0  0  0  0  0  0  0  0  0
  1  2  1  0  0  0  0
  2  3  1  0  0  0  0
  2  4  2  0  0  0  0
  4  5  1  0  0  0  0
  6  4  1  0  0  0  0
  6 21  1  0  0  0  0
  7  6  2  0  0  0  0
  8  1  2  0  0  0  0
  8  7  1  0  0  0  0
  9  8  1  0  0  0  0
 10  7  1  0  0  0  0
 10 11  1  0  0  0  0
 11 20  1  0  0  0  0
 12 11  2  0  0  0  0
 12 14  1  0  0  0  0
 13 12  1  0  0  0  0
 14 16  2  0  0  0  0
 15 14  1  0  0  0  0
 16 18  1  0  0  0  0
 16 17  1  0  0  0  0
 18 19  1  0  0  0  0
 20 21  1  0  0  0  0
 20 18  2  0  0  0  0
 21 22  1  0  0  0  0
 23  1  1  0  0  0  0
 23 24  2  0  0  0  0
 25 30  1  0  0  0  0
 26 27  1  0  0  0  0
 26 25  2  0  0  0  0
 27 28  2  0  0  0  0
 28 29  1  0  0  0  0
 29 23  1  0  0  0  0
 30 29  2  0  0  0  0
 31 25  1  0  0  0  0
 32 26  1  0  0  0  0
 33 34  1  0  0  0  0
 33 35  1  0  0  0  0
 33 27  1  0  0  0  0
 36 33  1  0  0  0  0
M  END
>  <minimizedAffinity>
-5.92751122

>  <minimizedRMSD>
1.40470111

$$$$
