REMARK  Name = 
REMARK  4 active torsions:
REMARK  status: ('A' for Active; 'I' for Inactive)
REMARK    1  A    between atoms: C_1  and  O_11
REMARK    2  A    between atoms: C_2  and  C_7
REMARK    3  A    between atoms: C_5  and  C_17
REMARK    4  A    between atoms: O_11  and  C_12
REMARK                            x       y       z     vdW  Elec       q    Type
REMARK                         _______ _______ _______ _____ _____    ______ ____
ROOT
ATOM      1  C   UNL     1      48.127  31.569  45.191  0.00  0.00    +0.000 A 
ATOM      2  C   UNL     1      47.552  30.411  45.670  0.00  0.00    +0.000 A 
ATOM      3  H   UNL     1      46.495  30.281  45.603  0.00  0.00    +0.000 HD
ATOM      4  C   UNL     1      48.375  29.452  46.224  0.00  0.00    +0.000 A 
ATOM      5  H   UNL     1      47.844  28.557  46.584  0.00  0.00    +0.000 HD
ATOM      6  C   UNL     1      49.745  29.548  46.344  0.00  0.00    +0.000 A 
ATOM      7  C   UNL     1      50.260  30.720  45.851  0.00  0.00    +0.000 A 
ATOM      8  C   UNL     1      49.487  31.701  45.293  0.00  0.00    +0.000 A 
ATOM      9  H   UNL     1      49.955  32.615  44.917  0.00  0.00    +0.000 HD
ATOM     10  S   UNL     1      52.021  30.964  45.949  0.00  0.00    +0.000 S 
ATOM     11  C   UNL     1      52.701  29.511  46.719  0.00  0.00    +0.000 A 
ATOM     12  C   UNL     1      54.047  29.400  46.934  0.00  0.00    +0.000 A 
ATOM     13  H   UNL     1      54.698  30.229  46.620  0.00  0.00    +0.000 HD
ATOM     14  C   UNL     1      54.643  28.305  47.525  0.00  0.00    +0.000 A 
ATOM     15  H   UNL     1      55.697  28.305  47.653  0.00  0.00    +0.000 HD
ATOM     16  C   UNL     1      53.786  27.292  47.901  0.00  0.00    +0.000 A 
ATOM     17  H   UNL     1      54.202  26.420  48.364  0.00  0.00    +0.000 HD
ATOM     18  C   UNL     1      52.431  27.422  47.676  0.00  0.00    +0.000 A 
ATOM     19  H   UNL     1      51.833  26.561  48.011  0.00  0.00    +0.000 HD
ATOM     20  C   UNL     1      51.835  28.516  47.086  0.00  0.00    +0.000 A 
ATOM     21  N   UNL     1      50.432  28.466  46.940  0.00  0.00    +0.000 N 
ATOM     22  H   UNL     1      49.898  27.652  47.261  0.00  0.00    +0.000 HD
ENDROOT
BRANCH   1  27
ATOM     23  C   UNL     1      47.090  34.388  43.092  0.00  0.00    +0.000 A 
ATOM     24  C   UNL     1      45.778  34.596  43.502  0.00  0.00    +0.000 A 
ATOM     25  C   UNL     1      45.259  33.760  44.501  0.00  0.00    +0.000 A 
ATOM     26  N   UNL     1      46.058  32.795  45.017  0.00  0.00    +0.000 NA
ATOM     27  C   UNL     1      47.323  32.628  44.592  0.00  0.00    +0.000 A 
ATOM     28  N   UNL     1      47.847  33.414  43.636  0.00  0.00    +0.000 NA
ATOM     29  H   UNL     1      44.235  33.912  44.830  0.00  0.00    +0.000 HD
BRANCH  24  30
ATOM     30  C   UNL     1      44.981  35.680  42.876  0.00  0.00    +0.000 C 
ATOM     31  F   UNL     1      45.618  36.901  43.060  0.00  0.00    +0.000 F 
ATOM     32  F   UNL     1      44.955  35.467  41.509  0.00  0.00    +0.000 F 
ATOM     33  F   UNL     1      43.721  35.812  43.349  0.00  0.00    +0.000 F 
ENDBRANCH  24  30
BRANCH  23  34
ATOM     34  O   UNL     1      47.580  35.196  42.132  0.00  0.00    +0.000 OA
BRANCH  34  35
ATOM     35  C   UNL     1      48.875  35.191  41.573  0.00  0.00    +0.000 C 
ATOM     36  F   UNL     1      49.763  35.490  42.607  0.00  0.00    +0.000 F 
ATOM     37  F   UNL     1      49.129  33.973  41.005  0.00  0.00    +0.000 F 
ATOM     38  F   UNL     1      49.010  36.225  40.678  0.00  0.00    +0.000 F 
ENDBRANCH  34  35
ENDBRANCH  23  34
ENDBRANCH   1  27
TORSDOF 4
