
 OpenBabel03252502433D

 44 48  0  0  1  0  0  0  0  0999 V2000
   48.5210   35.2830   41.4990 C   0  0  1  0  0  0  0  0  0  0  0  0
   49.4040   34.9610   42.5990 C   0  0  0  0  0  0  0  0  0  0  0  0
   49.3800   34.2210   41.2660 C   0  0  1  0  0  0  0  0  0  0  0  0
   48.6920   36.3270   41.1020 H   0  0  0  0  0  0  0  0  0  0  0  0
   49.1320   34.4310   43.5080 H   0  0  0  0  0  0  0  0  0  0  0  0
   50.3730   35.5250   42.7460 H   0  0  0  0  0  0  0  0  0  0  0  0
   50.0970   34.5600   40.4390 H   0  0  0  0  0  0  0  0  0  0  0  0
   49.8550   32.8950   41.4010 C   0  0  0  0  0  0  0  0  0  0  0  0
   50.9280   32.5200   42.2290 C   0  0  0  0  0  0  0  0  0  0  0  0
   51.4360   33.2990   42.7840 H   0  0  0  0  0  0  0  0  0  0  0  0
   51.2860   31.1960   42.3020 C   0  0  0  0  0  0  0  0  0  0  0  0
   52.1330   31.0140   42.9770 H   0  0  0  0  0  0  0  0  0  0  0  0
   50.6070   30.2430   41.5740 C   0  0  0  0  0  0  0  0  0  0  0  0
   49.5690   30.5320   40.7580 C   0  0  0  0  0  0  0  0  0  0  0  0
   49.2370   31.8410   40.7050 C   0  0  0  0  0  0  0  0  0  0  0  0
   48.4010   32.1230   40.0550 H   0  0  0  0  0  0  0  0  0  0  0  0
   48.7530   29.2560   39.8610 S   0  0  0  0  0  0  0  0  0  0  0  0
   49.5880   27.7380   40.3030 C   0  0  0  0  0  0  0  0  0  0  0  0
   49.0800   26.6290   39.6920 C   0  0  0  0  0  0  0  0  0  0  0  0
   48.2590   26.6170   39.0060 H   0  0  0  0  0  0  0  0  0  0  0  0
   49.6660   25.3980   39.9740 C   0  0  0  0  0  0  0  0  0  0  0  0
   49.3380   24.4660   39.5420 H   0  0  0  0  0  0  0  0  0  0  0  0
   50.7280   25.3500   40.8500 C   0  0  0  0  0  0  0  0  0  0  0  0
   51.1940   24.4010   41.0800 H   0  0  0  0  0  0  0  0  0  0  0  0
   51.1580   26.5160   41.4050 C   0  0  0  0  0  0  0  0  0  0  0  0
   52.0100   26.4180   42.0980 H   0  0  0  0  0  0  0  0  0  0  0  0
   50.6420   27.7790   41.1860 C   0  0  0  0  0  0  0  0  0  0  0  0
   51.1290   28.9500   41.7900 N   0  0  0  0  0  0  0  0  0  0  0  0
   51.9460   28.7310   42.4350 H   0  0  0  0  0  0  0  0  0  0  0  0
   47.0340   35.1060   41.6480 C   0  0  0  0  0  0  0  0  0  0  0  0
   46.6780   36.0810   42.0920 H   0  0  0  0  0  0  0  0  0  0  0  0
   46.5180   34.9390   40.7030 H   0  0  0  0  0  0  0  0  0  0  0  0
   46.9140   33.9850   42.6310 C   0  0  0  0  0  0  0  0  0  0  0  0
   47.8340   33.9540   43.2410 H   0  0  0  0  0  0  0  0  0  0  0  0
   46.6020   33.0320   42.1990 H   0  0  0  0  0  0  0  0  0  0  0  0
   44.4870   35.9630   44.7020 C   0  0  0  0  0  0  0  0  0  0  0  0
   45.2770   35.5440   43.6040 C   0  0  0  0  0  0  0  0  0  0  0  0
   46.0400   34.4220   43.7570 C   0  0  0  0  0  0  0  0  0  0  0  0
   46.0120   33.7500   44.9450 N   0  0  0  0  0  0  0  0  0  0  0  0
   45.2690   34.1550   45.9600 C   0  0  0  0  0  0  0  0  0  0  0  0
   44.5090   35.2490   45.8520 N   0  0  0  0  0  0  0  0  0  0  0  0
   43.8510   36.8350   44.6840 H   0  0  0  0  0  0  0  0  0  0  0  0
   45.1430   36.2030   42.7630 H   0  0  0  0  0  0  0  0  0  0  0  0
   45.2210   33.6480   46.9180 H   0  0  0  0  0  0  0  0  0  0  0  0
  1  4  1  6  0  0  0
  1 30  1  0  0  0  0
  1  2  1  0  0  0  0
  2  6  1  0  0  0  0
  2  5  1  0  0  0  0
  3  7  1  6  0  0  0
  3  8  1  0  0  0  0
  3  1  1  0  0  0  0
  3  2  1  0  0  0  0
  8  9  1  0  0  0  0
  9 11  2  0  0  0  0
  9 10  1  0  0  0  0
 11 12  1  0  0  0  0
 13 28  1  0  0  0  0
 13 11  1  0  0  0  0
 14 13  2  0  0  0  0
 15 14  1  0  0  0  0
 15  8  2  0  0  0  0
 16 15  1  0  0  0  0
 17 18  1  0  0  0  0
 17 14  1  0  0  0  0
 18 27  1  0  0  0  0
 19 21  1  0  0  0  0
 19 18  2  0  0  0  0
 20 19  1  0  0  0  0
 21 23  2  0  0  0  0
 22 21  1  0  0  0  0
 23 24  1  0  0  0  0
 23 25  1  0  0  0  0
 25 26  1  0  0  0  0
 27 25  2  0  0  0  0
 27 28  1  0  0  0  0
 28 29  1  0  0  0  0
 30 31  1  0  0  0  0
 30 33  1  0  0  0  0
 32 30  1  0  0  0  0
 33 34  1  0  0  0  0
 33 38  1  0  0  0  0
 35 33  1  0  0  0  0
 36 41  1  0  0  0  0
 37 38  1  0  0  0  0
 37 36  2  0  0  0  0
 38 39  2  0  0  0  0
 39 40  1  0  0  0  0
 40 44  1  0  0  0  0
 41 40  2  0  0  0  0
 42 36  1  0  0  0  0
 43 37  1  0  0  0  0
M  END
>  <minimizedAffinity>
-4.68617392

>  <minimizedRMSD>
2.51492763

$$$$
