REMARK  Name = 
REMARK  4 active torsions:
REMARK  status: ('A' for Active; 'I' for Inactive)
REMARK    1  A    between atoms: C_1  and  O_11
REMARK    2  A    between atoms: C_2  and  C_7
REMARK    3  A    between atoms: C_5  and  C_17
REMARK    4  A    between atoms: O_11  and  C_12
REMARK                            x       y       z     vdW  Elec       q    Type
REMARK                         _______ _______ _______ _____ _____    ______ ____
ROOT
ATOM      1  C   UNL     1      48.127  31.569  45.191  0.00  0.00    +0.000 A 
ATOM      2  C   UNL     1      49.303  31.142  44.610  0.00  0.00    +0.000 A 
ATOM      3  H   UNL     1      49.636  31.593  43.702  0.00  0.00    +0.000 HD
ATOM      4  C   UNL     1      50.013  30.136  45.232  0.00  0.00    +0.000 A 
ATOM      5  H   UNL     1      50.939  29.849  44.710  0.00  0.00    +0.000 HD
ATOM      6  C   UNL     1      49.647  29.508  46.403  0.00  0.00    +0.000 A 
ATOM      7  C   UNL     1      48.472  29.973  46.934  0.00  0.00    +0.000 A 
ATOM      8  C   UNL     1      47.732  30.968  46.356  0.00  0.00    +0.000 A 
ATOM      9  H   UNL     1      46.801  31.298  46.826  0.00  0.00    +0.000 HD
ATOM     10  S   UNL     1      47.891  29.240  48.450  0.00  0.00    +0.000 S 
ATOM     11  C   UNL     1      49.082  28.000  48.911  0.00  0.00    +0.000 A 
ATOM     12  C   UNL     1      48.911  27.256  50.045  0.00  0.00    +0.000 A 
ATOM     13  H   UNL     1      48.020  27.441  50.665  0.00  0.00    +0.000 HD
ATOM     14  C   UNL     1      49.790  26.280  50.464  0.00  0.00    +0.000 A 
ATOM     15  H   UNL     1      49.576  25.750  51.359  0.00  0.00    +0.000 HD
ATOM     16  C   UNL     1      50.890  26.083  49.655  0.00  0.00    +0.000 A 
ATOM     17  H   UNL     1      51.603  25.335  49.939  0.00  0.00    +0.000 HD
ATOM     18  C   UNL     1      51.046  26.844  48.515  0.00  0.00    +0.000 A 
ATOM     19  H   UNL     1      51.954  26.612  47.939  0.00  0.00    +0.000 HD
ATOM     20  C   UNL     1      50.167  27.820  48.096  0.00  0.00    +0.000 A 
ATOM     21  N   UNL     1      50.497  28.493  46.900  0.00  0.00    +0.000 N 
ATOM     22  H   UNL     1      51.350  28.258  46.382  0.00  0.00    +0.000 HD
ENDROOT
BRANCH   1  27
ATOM     23  C   UNL     1      47.090  34.388  43.092  0.00  0.00    +0.000 A 
ATOM     24  C   UNL     1      45.778  34.596  43.502  0.00  0.00    +0.000 A 
ATOM     25  C   UNL     1      45.259  33.760  44.501  0.00  0.00    +0.000 A 
ATOM     26  N   UNL     1      46.058  32.795  45.017  0.00  0.00    +0.000 NA
ATOM     27  C   UNL     1      47.323  32.628  44.592  0.00  0.00    +0.000 A 
ATOM     28  N   UNL     1      47.847  33.414  43.636  0.00  0.00    +0.000 NA
ATOM     29  H   UNL     1      44.235  33.912  44.830  0.00  0.00    +0.000 HD
BRANCH  24  30
ATOM     30  C   UNL     1      44.981  35.680  42.876  0.00  0.00    +0.000 C 
ATOM     31  F   UNL     1      45.618  36.901  43.060  0.00  0.00    +0.000 F 
ATOM     32  F   UNL     1      44.955  35.467  41.509  0.00  0.00    +0.000 F 
ATOM     33  F   UNL     1      43.721  35.812  43.349  0.00  0.00    +0.000 F 
ENDBRANCH  24  30
BRANCH  23  34
ATOM     34  O   UNL     1      47.580  35.196  42.132  0.00  0.00    +0.000 OA
BRANCH  34  35
ATOM     35  C   UNL     1      48.875  35.191  41.573  0.00  0.00    +0.000 C 
ATOM     36  F   UNL     1      49.763  35.490  42.607  0.00  0.00    +0.000 F 
ATOM     37  F   UNL     1      49.129  33.973  41.005  0.00  0.00    +0.000 F 
ATOM     38  F   UNL     1      49.010  36.225  40.678  0.00  0.00    +0.000 F 
ENDBRANCH  34  35
ENDBRANCH  23  34
ENDBRANCH   1  27
TORSDOF 4
