REMARK  Name = 
REMARK  3 active torsions:
REMARK  status: ('A' for Active; 'I' for Inactive)
REMARK    1  A    between atoms: C_1  and  C_7
REMARK    2  A    between atoms: C_3  and  C_16
REMARK    3  A    between atoms: C_5  and  C_11
REMARK                            x       y       z     vdW  Elec       q    Type
REMARK                         _______ _______ _______ _____ _____    ______ ____
ROOT
ATOM      1  C   UNL     1      47.331  31.870  44.755  0.00  0.00    +0.000 A 
ATOM      2  C   UNL     1      48.578  31.283  44.749  0.00  0.00    +0.000 A 
ATOM      3  H   UNL     1      49.411  31.711  44.224  0.00  0.00    +0.000 HD
ATOM      4  C   UNL     1      48.724  30.089  45.464  0.00  0.00    +0.000 A 
ATOM      5  H   UNL     1      49.721  29.665  45.430  0.00  0.00    +0.000 HD
ATOM      6  C   UNL     1      47.725  29.454  46.171  0.00  0.00    +0.000 A 
ATOM      7  C   UNL     1      46.515  30.103  46.127  0.00  0.00    +0.000 A 
ATOM      8  C   UNL     1      46.315  31.258  45.453  0.00  0.00    +0.000 A 
ATOM      9  H   UNL     1      45.333  31.709  45.465  0.00  0.00    +0.000 HD
ATOM     10  S   UNL     1      45.152  29.365  47.010  0.00  0.00    +0.000 S 
ATOM     11  C   UNL     1      45.777  27.883  47.761  0.00  0.00    +0.000 A 
ATOM     12  C   UNL     1      44.915  27.127  48.503  0.00  0.00    +0.000 A 
ATOM     13  H   UNL     1      43.873  27.440  48.622  0.00  0.00    +0.000 HD
ATOM     14  C   UNL     1      45.328  25.963  49.118  0.00  0.00    +0.000 A 
ATOM     15  H   UNL     1      44.594  25.414  49.689  0.00  0.00    +0.000 HD
ATOM     16  C   UNL     1      46.644  25.590  48.955  0.00  0.00    +0.000 A 
ATOM     17  H   UNL     1      46.991  24.681  49.427  0.00  0.00    +0.000 HD
ATOM     18  C   UNL     1      47.471  26.389  48.196  0.00  0.00    +0.000 A 
ATOM     19  H   UNL     1      48.489  26.024  48.118  0.00  0.00    +0.000 HD
ATOM     20  C   UNL     1      47.088  27.557  47.570  0.00  0.00    +0.000 A 
ATOM     21  N   UNL     1      48.043  28.259  46.834  0.00  0.00    +0.000 N 
ATOM     22  H   UNL     1      49.013  27.886  46.776  0.00  0.00    +0.000 HD
ENDROOT
BRANCH   1  25
ATOM     23  C   UNL     1      47.843  34.792  42.415  0.00  0.00    +0.000 A 
ATOM     24  C   UNL     1      48.109  33.568  43.069  0.00  0.00    +0.000 A 
ATOM     25  C   UNL     1      47.176  33.111  44.014  0.00  0.00    +0.000 A 
ATOM     26  N   UNL     1      46.079  33.871  44.240  0.00  0.00    +0.000 NA
ATOM     27  C   UNL     1      45.853  35.036  43.599  0.00  0.00    +0.000 A 
ATOM     28  N   UNL     1      46.727  35.485  42.700  0.00  0.00    +0.000 NA
ATOM     29  H   UNL     1      48.976  32.991  42.874  0.00  0.00    +0.000 HD
BRANCH  23  30
ATOM     30  C   UNL     1      48.845  35.248  41.423  0.00  0.00    +0.000 C 
ATOM     31  F   UNL     1      48.379  35.169  40.136  0.00  0.00    +0.000 F 
ATOM     32  F   UNL     1      49.195  36.569  41.732  0.00  0.00    +0.000 F 
ATOM     33  F   UNL     1      50.023  34.512  41.581  0.00  0.00    +0.000 F 
ENDBRANCH  23  30
BRANCH  27  34
ATOM     34  C   UNL     1      44.624  35.822  43.897  0.00  0.00    +0.000 C 
ATOM     35  F   UNL     1      43.637  35.580  42.977  0.00  0.00    +0.000 F 
ATOM     36  F   UNL     1      44.933  37.195  43.920  0.00  0.00    +0.000 F 
ATOM     37  F   UNL     1      44.120  35.547  45.150  0.00  0.00    +0.000 F 
ENDBRANCH  27  34
ENDBRANCH   1  25
TORSDOF 3
