
     RDKit          3D

 40 44  0  0  0  0  0  0  0  0999 V2000
   45.3804   36.0756   43.1967 C   0  0  0  0  0  0  0  0  0  0  0  0
   46.1211   34.8786   43.0834 C   0  0  0  0  0  0  0  0  0  0  0  0
   46.0753   34.0399   44.1766 C   0  0  0  0  0  0  0  0  0  0  0  0
   45.3664   34.3464   45.2794 N   0  0  0  0  0  0  0  0  0  0  0  0
   44.6650   35.5069   45.3539 C   0  0  0  0  0  0  0  0  0  0  0  0
   44.6807   36.3634   44.3035 N   0  0  0  0  0  0  0  0  0  0  0  0
   46.7973   32.8516   44.1354 C   0  0  0  0  0  0  0  0  0  0  0  0
   47.7425   32.3282   43.2785 C   0  0  0  0  0  0  0  0  0  0  0  0
   48.2854   31.1393   43.4769 C   0  0  0  0  0  0  0  0  0  0  0  0
   47.8780   30.4221   44.5834 C   0  0  0  0  0  0  0  0  0  0  0  0
   46.6330   31.5664   45.3620 S   0  0  0  0  0  0  0  0  0  0  0  0
   46.8105   34.6349   41.8655 C   0  0  0  0  0  0  0  0  0  0  0  0
   47.8933   35.3226   41.6949 O   0  0  0  0  0  0  0  0  0  0  0  0
   45.3787   36.7743   42.3719 H   0  0  0  0  0  0  0  0  0  0  0  0
   44.1246   35.6581   46.2909 H   0  0  0  0  0  0  0  0  0  0  0  0
   48.2034   32.7494   42.4194 H   0  0  0  0  0  0  0  0  0  0  0  0
   49.0028   30.4864   43.0240 H   0  0  0  0  0  0  0  0  0  0  0  0
   48.0091   29.4956   45.1321 H   0  0  0  0  0  0  0  0  0  0  0  0
   46.2711   33.6423   40.8708 C   0  0  0  0  0  0  0  0  0  0  0  0
   46.3728   34.0249   39.5497 C   0  0  0  0  0  0  0  0  0  0  0  0
   46.8297   34.9868   39.2795 H   0  0  0  0  0  0  0  0  0  0  0  0
   45.9195   33.2630   38.5071 C   0  0  0  0  0  0  0  0  0  0  0  0
   46.0211   33.6086   37.4977 H   0  0  0  0  0  0  0  0  0  0  0  0
   45.3216   32.0305   38.8081 C   0  0  0  0  0  0  0  0  0  0  0  0
   45.2197   31.6438   40.1244 C   0  0  0  0  0  0  0  0  0  0  0  0
   45.6906   32.4471   41.1155 C   0  0  0  0  0  0  0  0  0  0  0  0
   45.6479   32.2115   42.1723 H   0  0  0  0  0  0  0  0  0  0  0  0
   44.4746   30.0840   40.5453 S   0  0  0  0  0  0  0  0  0  0  0  0
   43.8882   29.3867   39.0131 C   0  0  0  0  0  0  0  0  0  0  0  0
   43.1986   28.2245   39.0179 C   0  0  0  0  0  0  0  0  0  0  0  0
   43.0252   27.7394   39.9891 H   0  0  0  0  0  0  0  0  0  0  0  0
   42.7136   27.6177   37.8861 C   0  0  0  0  0  0  0  0  0  0  0  0
   42.1746   26.6887   37.9666 H   0  0  0  0  0  0  0  0  0  0  0  0
   42.9790   28.2904   36.6828 C   0  0  0  0  0  0  0  0  0  0  0  0
   42.6128   27.8406   35.7756 H   0  0  0  0  0  0  0  0  0  0  0  0
   43.6889   29.4824   36.6916 C   0  0  0  0  0  0  0  0  0  0  0  0
   43.8289   29.9028   35.7164 H   0  0  0  0  0  0  0  0  0  0  0  0
   44.1714   30.0715   37.8894 C   0  0  0  0  0  0  0  0  0  0  0  0
   44.8264   31.2885   37.7237 N   0  0  0  0  0  0  0  0  0  0  0  0
   44.9641   31.6778   36.7446 H   0  0  0  0  0  0  0  0  0  0  0  0
  1  6  2  0
  2  1  1  0
  2  3  2  0
  3  4  1  0
  4  5  2  0
  6  5  1  0
  7  3  1  0
  7 11  1  0
  8  9  1  0
  8  7  2  0
  9 10  2  0
 10 11  1  0
 12  2  1  0
 13 12  2  0
  1 14  1  0
  5 15  1  0
  8 16  1  0
  9 17  1  0
 10 18  1  0
 19 20  2  0
 20 21  1  0
 20 22  1  0
 22 23  1  0
 22 24  2  0
 24 25  1  0
 25 26  2  0
 26 27  1  0
 25 28  1  0
 28 29  1  0
 29 30  2  0
 30 31  1  0
 30 32  1  0
 32 33  1  0
 32 34  2  0
 34 35  1  0
 34 36  1  0
 36 37  1  0
 36 38  2  0
 38 39  1  0
 39 40  1  0
 26 19  1  0
 38 29  1  0
 39 24  1  0
 12 19  1  0
M  ISO  8  14  14  15  14  16  14  17  14  18  14  21  16  23  16  27  16
M  ISO  5  31  16  33  16  35  16  37  16  40   5
M  END
>  <DihAtoms>  (1) 
1,11,18,19

>  <DihDeg>  (1) 
19.611279885680464

$$$$
