
 OpenBabel03242518503D

 36 39  0  0  0  0  0  0  0  0999 V2000
   46.3750   32.4270   46.8290 C   0  0  0  0  0  0  0  0  0  0  0  0
   47.2290   32.4290   47.9100 C   0  0  0  0  0  0  0  0  0  0  0  0
   47.2750   33.2260   48.6330 H   0  0  0  0  0  0  0  0  0  0  0  0
   48.1110   31.3930   48.1730 C   0  0  0  0  0  0  0  0  0  0  0  0
   48.7730   31.4510   49.0520 H   0  0  0  0  0  0  0  0  0  0  0  0
   48.1880   30.2720   47.3530 C   0  0  0  0  0  0  0  0  0  0  0  0
   47.3230   30.2970   46.2840 C   0  0  0  0  0  0  0  0  0  0  0  0
   46.4700   31.3080   46.0320 C   0  0  0  0  0  0  0  0  0  0  0  0
   45.8020   31.2860   45.1580 H   0  0  0  0  0  0  0  0  0  0  0  0
   47.3240   28.9160   45.1580 S   0  0  0  0  0  0  0  0  0  0  0  0
   48.5300   27.7740   45.8000 C   0  0  0  0  0  0  0  0  0  0  0  0
   48.6910   26.6190   45.1080 C   0  0  0  0  0  0  0  0  0  0  0  0
   48.1220   26.3930   44.2130 H   0  0  0  0  0  0  0  0  0  0  0  0
   49.6320   25.7160   45.5970 C   0  0  0  0  0  0  0  0  0  0  0  0
   49.7870   24.7900   45.0690 H   0  0  0  0  0  0  0  0  0  0  0  0
   50.3900   25.9470   46.7320 C   0  0  0  0  0  0  0  0  0  0  0  0
   51.1160   25.2530   47.1040 H   0  0  0  0  0  0  0  0  0  0  0  0
   50.1580   27.1590   47.3760 C   0  0  0  0  0  0  0  0  0  0  0  0
   50.7710   27.3220   48.2770 H   0  0  0  0  0  0  0  0  0  0  0  0
   49.2360   28.0830   46.9300 C   0  0  0  0  0  0  0  0  0  0  0  0
   49.0950   29.2500   47.6810 N   0  0  0  0  0  0  0  0  0  0  0  0
   49.6840   29.3840   48.5310 H   0  0  0  0  0  0  0  0  0  0  0  0
   45.4530   33.5220   46.5690 C   0  0  0  0  0  0  0  0  0  0  0  0
   44.6250   33.7500   47.4980 O   0  0  0  0  0  0  0  0  0  0  0  0
   44.5610   36.1160   44.1620 C   0  0  0  0  0  0  0  0  0  0  0  0
   45.4090   35.8940   43.0550 C   0  0  0  0  0  0  0  0  0  0  0  0
   46.2830   34.8240   43.1760 C   0  0  0  0  0  0  0  0  0  0  0  0
   46.2390   34.1170   44.3090 N   0  0  0  0  0  0  0  0  0  0  0  0
   45.4420   34.3200   45.3590 C   0  0  0  0  0  0  0  0  0  0  0  0
   44.5790   35.3560   45.2680 N   0  0  0  0  0  0  0  0  0  0  0  0
   43.8690   36.9490   44.0940 H   0  0  0  0  0  0  0  0  0  0  0  0
   45.4030   36.4970   42.1710 H   0  0  0  0  0  0  0  0  0  0  0  0
   47.1810   34.5730   42.0410 C   0  0  0  0  0  0  0  0  0  0  0  0
   48.0170   33.5070   42.3290 F   0  0  0  0  0  0  0  0  0  0  0  0
   48.0210   35.6960   41.9560 F   0  0  0  0  0  0  0  0  0  0  0  0
   46.5290   34.3350   40.8780 F   0  0  0  0  0  0  0  0  0  0  0  0
  1  2  1  0  0  0  0
  2  4  2  0  0  0  0
  2  3  1  0  0  0  0
  4  5  1  0  0  0  0
  6 21  1  0  0  0  0
  6  4  1  0  0  0  0
  7  6  2  0  0  0  0
  8  7  1  0  0  0  0
  8  1  2  0  0  0  0
  9  8  1  0  0  0  0
 10 11  1  0  0  0  0
 10  7  1  0  0  0  0
 11 20  1  0  0  0  0
 12 14  1  0  0  0  0
 12 11  2  0  0  0  0
 13 12  1  0  0  0  0
 14 16  2  0  0  0  0
 15 14  1  0  0  0  0
 16 17  1  0  0  0  0
 16 18  1  0  0  0  0
 18 19  1  0  0  0  0
 20 18  2  0  0  0  0
 20 21  1  0  0  0  0
 21 22  1  0  0  0  0
 23  1  1  0  0  0  0
 23 24  2  0  0  0  0
 25 30  1  0  0  0  0
 26 27  1  0  0  0  0
 26 25  2  0  0  0  0
 27 28  2  0  0  0  0
 28 29  1  0  0  0  0
 29 23  1  0  0  0  0
 30 29  2  0  0  0  0
 31 25  1  0  0  0  0
 32 26  1  0  0  0  0
 33 34  1  0  0  0  0
 33 27  1  0  0  0  0
 35 33  1  0  0  0  0
 36 33  1  0  0  0  0
M  END
>  <minimizedAffinity>
-5.64731693

>  <minimizedRMSD>
1.15711343

$$$$
