
 OpenBabel03252504103D

 38 41  0  0  0  0  0  0  0  0999 V2000
   47.7290   31.1370   44.7960 C   0  0  0  0  0  0  0  0  0  0  0  0
   47.5100   30.5780   46.0360 C   0  0  0  0  0  0  0  0  0  0  0  0
   46.8510   31.0620   46.7230 H   0  0  0  0  0  0  0  0  0  0  0  0
   48.1580   29.4020   46.3490 C   0  0  0  0  0  0  0  0  0  0  0  0
   47.9320   29.0160   47.3560 H   0  0  0  0  0  0  0  0  0  0  0  0
   49.0210   28.7200   45.5180 C   0  0  0  0  0  0  0  0  0  0  0  0
   49.2000   29.3220   44.2990 C   0  0  0  0  0  0  0  0  0  0  0  0
   48.5820   30.4880   43.9420 C   0  0  0  0  0  0  0  0  0  0  0  0
   48.7640   30.9220   42.9550 H   0  0  0  0  0  0  0  0  0  0  0  0
   50.2950   28.5380   43.1330 S   0  0  0  0  0  0  0  0  0  0  0  0
   50.9150   27.0660   43.9180 C   0  0  0  0  0  0  0  0  0  0  0  0
   51.7890   26.2410   43.2660 C   0  0  0  0  0  0  0  0  0  0  0  0
   52.0990   26.5100   42.2440 H   0  0  0  0  0  0  0  0  0  0  0  0
   52.3090   25.0870   43.8110 C   0  0  0  0  0  0  0  0  0  0  0  0
   52.9830   24.5070   43.2300 H   0  0  0  0  0  0  0  0  0  0  0  0
   51.8910   24.7930   45.0920 C   0  0  0  0  0  0  0  0  0  0  0  0
   52.2680   23.9050   45.5580 H   0  0  0  0  0  0  0  0  0  0  0  0
   51.0080   25.6360   45.7340 C   0  0  0  0  0  0  0  0  0  0  0  0
   50.7360   25.3150   46.7510 H   0  0  0  0  0  0  0  0  0  0  0  0
   50.4890   26.7900   45.1900 C   0  0  0  0  0  0  0  0  0  0  0  0
   49.5980   27.5240   46.0030 N   0  0  0  0  0  0  0  0  0  0  0  0
   49.3600   27.2020   46.9470 H   0  0  0  0  0  0  0  0  0  0  0  0
   46.9920   34.2710   43.0450 C   0  0  0  0  0  0  0  0  0  0  0  0
   45.8290   34.6970   43.6780 C   0  0  0  0  0  0  0  0  0  0  0  0
   45.3070   33.8980   44.7050 C   0  0  0  0  0  0  0  0  0  0  0  0
   45.9570   32.7550   45.0310 N   0  0  0  0  0  0  0  0  0  0  0  0
   47.0800   32.3800   44.3940 C   0  0  0  0  0  0  0  0  0  0  0  0
   47.6040   33.1250   43.4050 N   0  0  0  0  0  0  0  0  0  0  0  0
   44.3990   34.2200   45.2060 H   0  0  0  0  0  0  0  0  0  0  0  0
   45.1890   35.9650   43.2490 C   0  0  0  0  0  0  0  0  0  0  0  0
   46.1590   36.9370   43.0390 F   0  0  0  0  0  0  0  0  0  0  0  0
   44.5890   35.7560   42.0200 F   0  0  0  0  0  0  0  0  0  0  0  0
   44.2920   36.4780   44.1220 F   0  0  0  0  0  0  0  0  0  0  0  0
   47.4870   35.0450   42.0600 O   0  0  0  0  0  0  0  0  0  0  0  0
   48.8240   35.1380   41.6200 C   0  0  0  0  0  0  0  0  0  0  0  0
   49.6020   35.4060   42.7470 F   0  0  0  0  0  0  0  0  0  0  0  0
   49.1890   33.9740   41.0010 F   0  0  0  0  0  0  0  0  0  0  0  0
   48.9820   36.2360   40.8090 F   0  0  0  0  0  0  0  0  0  0  0  0
  1  2  1  0  0  0  0
  2  4  2  0  0  0  0
  2  3  1  0  0  0  0
  4  5  1  0  0  0  0
  6 21  1  0  0  0  0
  6  4  1  0  0  0  0
  7  6  2  0  0  0  0
  8  7  1  0  0  0  0
  8  1  2  0  0  0  0
  9  8  1  0  0  0  0
 10 11  1  0  0  0  0
 10  7  1  0  0  0  0
 11 20  1  0  0  0  0
 12 14  1  0  0  0  0
 12 11  2  0  0  0  0
 13 12  1  0  0  0  0
 14 16  2  0  0  0  0
 15 14  1  0  0  0  0
 16 17  1  0  0  0  0
 16 18  1  0  0  0  0
 18 19  1  0  0  0  0
 20 18  2  0  0  0  0
 20 21  1  0  0  0  0
 21 22  1  0  0  0  0
 23 28  2  0  0  0  0
 23 24  1  0  0  0  0
 24 25  2  0  0  0  0
 25 26  1  0  0  0  0
 25 29  1  0  0  0  0
 27  1  1  0  0  0  0
 27 26  2  0  0  0  0
 28 27  1  0  0  0  0
 30 24  1  0  0  0  0
 30 33  1  0  0  0  0
 31 30  1  0  0  0  0
 32 30  1  0  0  0  0
 34 23  1  0  0  0  0
 35 34  1  0  0  0  0
 35 36  1  0  0  0  0
 37 35  1  0  0  0  0
 38 35  1  0  0  0  0
M  END
>  <minimizedAffinity>
-5.14406967

>  <minimizedRMSD>
1.40517437

$$$$
