
 OpenBabel03252503093D

 40 44  0  0  1  0  0  0  0  0999 V2000
   47.6030   34.2380   39.6280 C   0  0  0  0  0  0  0  0  0  0  0  0
   48.3510   34.5240   38.5050 C   0  0  0  0  0  0  0  0  0  0  0  0
   49.2200   35.1930   38.5680 H   0  0  0  0  0  0  0  0  0  0  0  0
   48.0720   34.0180   37.2650 C   0  0  0  0  0  0  0  0  0  0  0  0
   48.6850   34.2750   36.4240 H   0  0  0  0  0  0  0  0  0  0  0  0
   46.9660   33.1660   37.1390 C   0  0  0  0  0  0  0  0  0  0  0  0
   46.2170   32.8770   38.2560 C   0  0  0  0  0  0  0  0  0  0  0  0
   46.5470   33.4110   39.4620 C   0  0  0  0  0  0  0  0  0  0  0  0
   46.0090   33.2300   40.3850 H   0  0  0  0  0  0  0  0  0  0  0  0
   44.8110   31.7930   38.1370 S   0  0  0  0  0  0  0  0  0  0  0  0
   44.6370   31.3980   36.4080 C   0  0  0  0  0  0  0  0  0  0  0  0
   43.5960   30.6440   35.9870 C   0  0  0  0  0  0  0  0  0  0  0  0
   42.8820   30.2920   36.7460 H   0  0  0  0  0  0  0  0  0  0  0  0
   43.3870   30.2910   34.6770 C   0  0  0  0  0  0  0  0  0  0  0  0
   42.5370   29.6850   34.4160 H   0  0  0  0  0  0  0  0  0  0  0  0
   44.3420   30.7710   33.7670 C   0  0  0  0  0  0  0  0  0  0  0  0
   44.2080   30.5110   32.7300 H   0  0  0  0  0  0  0  0  0  0  0  0
   45.4050   31.5420   34.2120 C   0  0  0  0  0  0  0  0  0  0  0  0
   46.0680   31.8500   33.4280 H   0  0  0  0  0  0  0  0  0  0  0  0
   45.5800   31.8810   35.5790 C   0  0  0  0  0  0  0  0  0  0  0  0
   46.6750   32.6960   35.8480 N   0  0  0  0  0  0  0  0  0  0  0  0
   47.3240   32.9770   35.0540 H   0  0  0  0  0  0  0  0  0  0  0  0
   48.0640   34.9140   40.8910 C   0  0  1  0  0  3  0  0  0  0  0  0
   48.9060   35.8960   40.9280 O   0  0  0  0  0  1  0  0  0  0  0  0
   46.4380   35.1600   42.6780 C   0  0  0  0  0  0  0  0  0  0  0  0
   47.5670   34.4940   42.1540 C   0  0  0  0  0  0  0  0  0  0  0  0
   48.0650   33.4630   42.9240 C   0  0  0  0  0  0  0  0  0  0  0  0
   47.5040   33.1170   44.0980 N   0  0  0  0  0  0  0  0  0  0  0  0
   46.4180   33.7810   44.5710 C   0  0  0  0  0  0  0  0  0  0  0  0
   45.8950   34.8020   43.8490 N   0  0  0  0  0  0  0  0  0  0  0  0
   46.0040   35.9780   42.1190 H   0  0  0  0  0  0  0  0  0  0  0  0
   46.0420   33.4220   45.5310 H   0  0  0  0  0  0  0  0  0  0  0  0
   49.1860   32.7760   42.4720 C   0  0  0  0  0  0  0  0  0  0  0  0
   50.5230   33.0890   42.3490 C   0  0  0  0  0  0  0  0  0  0  0  0
   51.4050   32.2250   41.8750 C   0  0  0  0  0  0  0  0  0  0  0  0
   50.9470   30.9790   41.5010 C   0  0  0  0  0  0  0  0  0  0  0  0
   49.1260   31.0970   41.8700 S   0  0  0  0  0  0  0  0  0  0  0  0
   51.0550   33.9660   42.6260 H   0  0  0  0  0  0  0  0  0  0  0  0
   52.4530   32.1630   41.6650 H   0  0  0  0  0  0  0  0  0  0  0  0
   51.2390   30.0150   41.0970 H   0  0  0  0  0  0  0  0  0  0  0  0
  1 23  1  0  0  0  0
  2  3  1  0  0  0  0
  2  1  2  0  0  0  0
  4  2  1  0  0  0  0
  5  4  1  0  0  0  0
  6  4  2  0  0  0  0
  6  7  1  0  0  0  0
  7  8  2  0  0  0  0
  8  1  1  0  0  0  0
  8  9  1  0  0  0  0
 10  7  1  0  0  0  0
 11 10  1  0  0  0  0
 12 11  1  0  0  0  0
 12 13  1  0  0  0  0
 14 12  2  0  0  0  0
 15 14  1  0  0  0  0
 16 18  2  0  0  0  0
 16 14  1  0  0  0  0
 17 16  1  0  0  0  0
 18 20  1  0  0  0  0
 19 18  1  0  0  0  0
 20 21  1  0  0  0  0
 20 11  2  0  0  0  0
 21  6  1  0  0  0  0
 22 21  1  0  0  0  0
 23 24  1  6  0  0  0
 23 26  1  0  0  0  0
 25 30  1  0  0  0  0
 26 25  2  0  0  0  0
 26 27  1  0  0  0  0
 27 28  2  0  0  0  0
 28 29  1  0  0  0  0
 29 32  1  0  0  0  0
 30 29  2  0  0  0  0
 31 25  1  0  0  0  0
 33 27  1  0  0  0  0
 34 33  2  0  0  0  0
 34 38  1  0  0  0  0
 35 34  1  0  0  0  0
 36 37  1  0  0  0  0
 36 35  2  0  0  0  0
 37 33  1  0  0  0  0
 39 35  1  0  0  0  0
 40 36  1  0  0  0  0
M  END
>  <minimizedAffinity>
-6.24302292

>  <minimizedRMSD>
2.66723466

$$$$
