
     RDKit          3D

 38 41  0  0  0  0  0  0  0  0999 V2000
   47.0905   34.3884   43.0922 C   0  0  0  0  0  0  0  0  0  0  0  0
   45.7782   34.5960   43.5015 C   0  0  0  0  0  0  0  0  0  0  0  0
   45.2592   33.7602   44.5008 C   0  0  0  0  0  0  0  0  0  0  0  0
   46.0579   32.7950   45.0169 N   0  0  0  0  0  0  0  0  0  0  0  0
   47.3229   32.6281   44.5922 C   0  0  0  0  0  0  0  0  0  0  0  0
   47.8468   33.4145   43.6358 N   0  0  0  0  0  0  0  0  0  0  0  0
   44.9810   35.6797   42.8764 C   0  0  0  0  0  0  0  0  0  0  0  0
   45.6184   36.9015   43.0599 F   0  0  0  0  0  0  0  0  0  0  0  0
   44.9553   35.4665   41.5091 F   0  0  0  0  0  0  0  0  0  0  0  0
   43.7212   35.8125   43.3485 F   0  0  0  0  0  0  0  0  0  0  0  0
   47.5802   35.1962   42.1320 O   0  0  0  0  0  0  0  0  0  0  0  0
   48.8746   35.1915   41.5733 C   0  0  0  0  0  0  0  0  0  0  0  0
   49.7634   35.4905   42.6073 F   0  0  0  0  0  0  0  0  0  0  0  0
   49.1289   33.9726   41.0055 F   0  0  0  0  0  0  0  0  0  0  0  0
   49.0104   36.2249   40.6775 F   0  0  0  0  0  0  0  0  0  0  0  0
   44.2347   33.9120   44.8296 H   0  0  0  0  0  0  0  0  0  0  0  0
   48.1275   31.5694   45.1910 C   0  0  0  0  0  0  0  0  0  0  0  0
   49.4971   31.5309   45.0362 C   0  0  0  0  0  0  0  0  0  0  0  0
   49.9847   32.2901   44.4666 H   0  0  0  0  0  0  0  0  0  0  0  0
   50.1943   30.5000   45.6307 C   0  0  0  0  0  0  0  0  0  0  0  0
   51.2826   30.5362   45.4632 H   0  0  0  0  0  0  0  0  0  0  0  0
   49.6366   29.4860   46.3793 C   0  0  0  0  0  0  0  0  0  0  0  0
   48.2732   29.5759   46.4990 C   0  0  0  0  0  0  0  0  0  0  0  0
   47.5366   30.5778   45.9290 C   0  0  0  0  0  0  0  0  0  0  0  0
   46.4514   30.5979   46.0586 H   0  0  0  0  0  0  0  0  0  0  0  0
   47.4327   28.3226   47.4442 S   0  0  0  0  0  0  0  0  0  0  0  0
   48.6796   27.1965   48.0297 C   0  0  0  0  0  0  0  0  0  0  0  0
   48.3401   26.1149   48.7946 C   0  0  0  0  0  0  0  0  0  0  0  0
   47.2783   25.9582   49.0388 H   0  0  0  0  0  0  0  0  0  0  0  0
   49.2512   25.2018   49.2826 C   0  0  0  0  0  0  0  0  0  0  0  0
   48.8965   24.3905   49.8694 H   0  0  0  0  0  0  0  0  0  0  0  0
   50.5684   25.4401   48.9504 C   0  0  0  0  0  0  0  0  0  0  0  0
   51.3141   24.7579   49.3063 H   0  0  0  0  0  0  0  0  0  0  0  0
   50.8921   26.5364   48.1778 C   0  0  0  0  0  0  0  0  0  0  0  0
   51.9670   26.6388   47.9680 H   0  0  0  0  0  0  0  0  0  0  0  0
   49.9818   27.4492   47.6899 C   0  0  0  0  0  0  0  0  0  0  0  0
   50.5047   28.5078   46.9162 N   0  0  0  0  0  0  0  0  0  0  0  0
   51.5108   28.5802   46.7355 H   0  0  0  0  0  0  0  0  0  0  0  0
  1  2  2  0
  1  6  1  0
  2  3  1  0
  3  4  2  0
  5  4  1  0
  6  5  2  0
  7  8  1  0
  7 10  1  0
  7  2  1  0
  9  7  1  0
 11  1  1  0
 12 11  1  0
 12 13  1  0
 14 12  1  0
 15 12  1  0
  3 16  1  0
 17 18  2  0
 18 19  1  0
 18 20  1  0
 20 21  1  0
 20 22  2  0
 22 23  1  0
 23 24  2  0
 24 25  1  0
 23 26  1  0
 26 27  1  0
 27 28  2  0
 28 29  1  0
 28 30  1  0
 30 31  1  0
 30 32  2  0
 32 33  1  0
 32 34  1  0
 34 35  1  0
 34 36  2  0
 36 37  1  0
 37 38  1  0
 24 17  1  0
 36 27  1  0
 37 22  1  0
  5 17  1  0
M  ISO  8  16  14  19  16  21  16  25  16  29  16  31  16  33  16  35  16
M  ISO  1  38   5
M  END
>  <DihAtoms>  (1) 
3,4,16,17

>  <DihDeg>  (1) 
179.99917544483472

$$$$
