REMARK  Name = 
REMARK  3 active torsions:
REMARK  status: ('A' for Active; 'I' for Inactive)
REMARK    1  A    between atoms: C_2  and  C_12
REMARK    2  A    between atoms: C_3  and  C_7
REMARK    3  A    between atoms: C_12  and  C_19
REMARK                            x       y       z     vdW  Elec       q    Type
REMARK                         _______ _______ _______ _____ _____    ______ ____
ROOT
ATOM      1  C   UNL     1      46.271  33.642  40.871  0.00  0.00    +0.000 A 
ATOM      2  C   UNL     1      45.751  32.489  41.420  0.00  0.00    +0.000 A 
ATOM      3  H   UNL     1      45.738  32.344  42.509  0.00  0.00    +0.000 HD
ATOM      4  C   UNL     1      45.234  31.465  40.673  0.00  0.00    +0.000 A 
ATOM      5  H   UNL     1      44.843  30.589  41.150  0.00  0.00    +0.000 HD
ATOM      6  C   UNL     1      45.238  31.606  39.277  0.00  0.00    +0.000 A 
ATOM      7  C   UNL     1      45.754  32.755  38.725  0.00  0.00    +0.000 A 
ATOM      8  C   UNL     1      46.254  33.737  39.523  0.00  0.00    +0.000 A 
ATOM      9  H   UNL     1      46.674  34.669  39.164  0.00  0.00    +0.000 HD
ATOM     10  S   UNL     1      45.770  32.973  36.960  0.00  0.00    +0.000 S 
ATOM     11  C   UNL     1      45.151  31.451  36.268  0.00  0.00    +0.000 A 
ATOM     12  C   UNL     1      45.116  31.281  34.928  0.00  0.00    +0.000 A 
ATOM     13  H   UNL     1      45.476  32.109  34.300  0.00  0.00    +0.000 HD
ATOM     14  C   UNL     1      44.654  30.144  34.313  0.00  0.00    +0.000 A 
ATOM     15  H   UNL     1      44.653  30.081  33.237  0.00  0.00    +0.000 HD
ATOM     16  C   UNL     1      44.205  29.133  35.177  0.00  0.00    +0.000 A 
ATOM     17  H   UNL     1      43.834  28.228  34.726  0.00  0.00    +0.000 HD
ATOM     18  C   UNL     1      44.245  29.321  36.551  0.00  0.00    +0.000 A 
ATOM     19  H   UNL     1      43.877  28.483  37.107  0.00  0.00    +0.000 HD
ATOM     20  C   UNL     1      44.732  30.517  37.142  0.00  0.00    +0.000 A 
ATOM     21  N   UNL     1      44.742  30.523  38.533  0.00  0.00    +0.000 N 
ATOM     22  H   UNL     1      44.360  29.684  39.062  0.00  0.00    +0.000 HD
ENDROOT
BRANCH   1  23
ATOM     23  C   UNL     1      46.810  34.635  41.865  0.00  0.00    +0.000 C 
ATOM     24  O   UNL     1      47.893  35.323  41.695  0.00  0.00    +0.000 OA
BRANCH  23  26
ATOM     25  C   UNL     1      45.380  36.076  43.197  0.00  0.00    +0.000 A 
ATOM     26  C   UNL     1      46.121  34.879  43.083  0.00  0.00    +0.000 A 
ATOM     27  C   UNL     1      46.075  34.040  44.177  0.00  0.00    +0.000 A 
ATOM     28  N   UNL     1      45.366  34.346  45.279  0.00  0.00    +0.000 NA
ATOM     29  C   UNL     1      44.665  35.507  45.354  0.00  0.00    +0.000 A 
ATOM     30  N   UNL     1      44.681  36.363  44.303  0.00  0.00    +0.000 NA
ATOM     31  H   UNL     1      45.379  36.774  42.372  0.00  0.00    +0.000 HD
ATOM     32  H   UNL     1      44.125  35.658  46.291  0.00  0.00    +0.000 HD
BRANCH  27  33
ATOM     33  C   UNL     1      46.797  32.852  44.135  0.00  0.00    +0.000 A 
ATOM     34  C   UNL     1      47.742  32.328  43.279  0.00  0.00    +0.000 A 
ATOM     35  C   UNL     1      48.285  31.139  43.477  0.00  0.00    +0.000 A 
ATOM     36  C   UNL     1      47.878  30.422  44.583  0.00  0.00    +0.000 A 
ATOM     37  S   UNL     1      46.633  31.566  45.362  0.00  0.00    +0.000 S 
ATOM     38  H   UNL     1      48.203  32.749  42.419  0.00  0.00    +0.000 HD
ATOM     39  H   UNL     1      49.003  30.486  43.024  0.00  0.00    +0.000 HD
ATOM     40  H   UNL     1      48.009  29.496  45.132  0.00  0.00    +0.000 HD
ENDBRANCH  27  33
ENDBRANCH  23  26
ENDBRANCH   1  23
TORSDOF 3
