
     RDKit          3D

 40 44  0  0  0  0  0  0  0  0999 V2000
   45.3804   36.0756   43.1967 C   0  0  0  0  0  0  0  0  0  0  0  0
   46.1211   34.8786   43.0834 C   0  0  0  0  0  0  0  0  0  0  0  0
   46.0753   34.0399   44.1766 C   0  0  0  0  0  0  0  0  0  0  0  0
   45.3664   34.3464   45.2794 N   0  0  0  0  0  0  0  0  0  0  0  0
   44.6650   35.5069   45.3539 C   0  0  0  0  0  0  0  0  0  0  0  0
   44.6807   36.3634   44.3035 N   0  0  0  0  0  0  0  0  0  0  0  0
   46.7973   32.8516   44.1354 C   0  0  0  0  0  0  0  0  0  0  0  0
   47.7425   32.3282   43.2785 C   0  0  0  0  0  0  0  0  0  0  0  0
   48.2854   31.1393   43.4769 C   0  0  0  0  0  0  0  0  0  0  0  0
   47.8780   30.4221   44.5834 C   0  0  0  0  0  0  0  0  0  0  0  0
   46.6330   31.5664   45.3620 S   0  0  0  0  0  0  0  0  0  0  0  0
   46.8105   34.6349   41.8655 C   0  0  0  0  0  0  0  0  0  0  0  0
   47.8933   35.3226   41.6949 O   0  0  0  0  0  0  0  0  0  0  0  0
   45.3787   36.7743   42.3719 H   0  0  0  0  0  0  0  0  0  0  0  0
   44.1246   35.6581   46.2909 H   0  0  0  0  0  0  0  0  0  0  0  0
   48.2034   32.7494   42.4194 H   0  0  0  0  0  0  0  0  0  0  0  0
   49.0028   30.4864   43.0240 H   0  0  0  0  0  0  0  0  0  0  0  0
   48.0091   29.4956   45.1321 H   0  0  0  0  0  0  0  0  0  0  0  0
   46.2711   33.6423   40.8708 C   0  0  0  0  0  0  0  0  0  0  0  0
   47.1858   32.7164   40.4146 C   0  0  0  0  0  0  0  0  0  0  0  0
   48.2216   32.7261   40.7806 H   0  0  0  0  0  0  0  0  0  0  0  0
   46.8847   31.7495   39.4941 C   0  0  0  0  0  0  0  0  0  0  0  0
   47.6343   31.0550   39.1711 H   0  0  0  0  0  0  0  0  0  0  0  0
   45.5749   31.7064   38.9942 C   0  0  0  0  0  0  0  0  0  0  0  0
   44.6585   32.6268   39.4478 C   0  0  0  0  0  0  0  0  0  0  0  0
   45.0208   33.5633   40.3648 C   0  0  0  0  0  0  0  0  0  0  0  0
   44.3573   34.3183   40.7699 H   0  0  0  0  0  0  0  0  0  0  0  0
   42.9856   32.5991   38.8430 S   0  0  0  0  0  0  0  0  0  0  0  0
   42.9323   31.3280   37.5943 C   0  0  0  0  0  0  0  0  0  0  0  0
   41.7990   31.1191   36.8883 C   0  0  0  0  0  0  0  0  0  0  0  0
   40.9310   31.7530   37.1195 H   0  0  0  0  0  0  0  0  0  0  0  0
   41.6706   30.1623   35.9123 C   0  0  0  0  0  0  0  0  0  0  0  0
   40.7339   30.0511   35.3925 H   0  0  0  0  0  0  0  0  0  0  0  0
   42.8168   29.3866   35.6769 C   0  0  0  0  0  0  0  0  0  0  0  0
   42.7497   28.6260   34.9176 H   0  0  0  0  0  0  0  0  0  0  0  0
   43.9737   29.6106   36.4092 C   0  0  0  0  0  0  0  0  0  0  0  0
   44.7809   28.9596   36.1414 H   0  0  0  0  0  0  0  0  0  0  0  0
   44.0579   30.6132   37.4105 C   0  0  0  0  0  0  0  0  0  0  0  0
   45.3039   30.7327   38.0193 N   0  0  0  0  0  0  0  0  0  0  0  0
   46.0847   30.0660   37.7453 H   0  0  0  0  0  0  0  0  0  0  0  0
  1  6  2  0
  2  1  1  0
  2  3  2  0
  3  4  1  0
  4  5  2  0
  6  5  1  0
  7  3  1  0
  7 11  1  0
  8  9  1  0
  8  7  2  0
  9 10  2  0
 10 11  1  0
 12  2  1  0
 13 12  2  0
  1 14  1  0
  5 15  1  0
  8 16  1  0
  9 17  1  0
 10 18  1  0
 19 20  2  0
 20 21  1  0
 20 22  1  0
 22 23  1  0
 22 24  2  0
 24 25  1  0
 25 26  2  0
 26 27  1  0
 25 28  1  0
 28 29  1  0
 29 30  2  0
 30 31  1  0
 30 32  1  0
 32 33  1  0
 32 34  2  0
 34 35  1  0
 34 36  1  0
 36 37  1  0
 36 38  2  0
 38 39  1  0
 39 40  1  0
 26 19  1  0
 38 29  1  0
 39 24  1  0
 12 19  1  0
M  ISO  8  14  14  15  14  16  14  17  14  18  14  21  16  23  16  27  16
M  ISO  5  31  16  33  16  35  16  37  16  40   5
M  END
>  <DihAtoms>  (1) 
1,11,18,19

>  <DihDeg>  (1) 
19.611279885680464

$$$$
