
 OpenBabel03242512393D

 47 52  0  0  0  0  0  0  0  0999 V2000
   36.6640   30.0570   39.2170 C   0  0  0  0  0  0  0  0  0  0  0  0
   36.5500   29.9110   37.8260 C   0  0  0  0  0  0  0  0  0  0  0  0
   37.3910   30.7260   37.0490 C   0  0  0  0  0  0  0  0  0  0  0  0
   38.2460   31.5930   37.6790 N   0  0  0  0  0  0  0  0  0  0  0  0
   38.2980   31.6770   39.0120 C   0  0  0  0  0  0  0  0  0  0  0  0
   37.5020   30.9060   39.7840 N   0  0  0  0  0  0  0  0  0  0  0  0
   35.9120   29.2610   37.2770 H   0  0  0  0  0  0  0  0  0  0  0  0
   37.3750   30.6840   35.9670 H   0  0  0  0  0  0  0  0  0  0  0  0
   39.2150   32.6050   39.6640 C   0  0  0  0  0  0  0  0  0  0  0  0
   38.8270   33.9010   39.9360 C   0  0  0  0  0  0  0  0  0  0  0  0
   37.8290   34.2070   39.6540 H   0  0  0  0  0  0  0  0  0  0  0  0
   39.7080   34.7590   40.5520 C   0  0  0  0  0  0  0  0  0  0  0  0
   39.3090   35.7620   40.7240 H   0  0  0  0  0  0  0  0  0  0  0  0
   40.9880   34.4160   40.9300 C   0  0  0  0  0  0  0  0  0  0  0  0
   41.3540   33.1350   40.6540 C   0  0  0  0  0  0  0  0  0  0  0  0
   40.4950   32.2620   40.0430 C   0  0  0  0  0  0  0  0  0  0  0  0
   40.8200   31.2370   39.8350 H   0  0  0  0  0  0  0  0  0  0  0  0
   42.9950   32.6210   41.1160 S   0  0  0  0  0  0  0  0  0  0  0  0
   43.7790   34.0310   41.8730 C   0  0  0  0  0  0  0  0  0  0  0  0
   45.0650   33.8740   42.3150 C   0  0  0  0  0  0  0  0  0  0  0  0
   45.5820   32.9330   42.2070 H   0  0  0  0  0  0  0  0  0  0  0  0
   45.7210   34.9220   42.9070 C   0  0  0  0  0  0  0  0  0  0  0  0
   46.7290   34.8630   43.2730 H   0  0  0  0  0  0  0  0  0  0  0  0
   45.0610   36.1250   43.0440 C   0  0  0  0  0  0  0  0  0  0  0  0
   45.5570   36.9470   43.5000 H   0  0  0  0  0  0  0  0  0  0  0  0
   43.7670   36.2080   42.5760 C   0  0  0  0  0  0  0  0  0  0  0  0
   43.3010   37.1940   42.7170 H   0  0  0  0  0  0  0  0  0  0  0  0
   43.0540   35.1930   41.9730 C   0  0  0  0  0  0  0  0  0  0  0  0
   41.7420   35.4340   41.5500 N   0  0  0  0  0  0  0  0  0  0  0  0
   41.3470   36.3810   41.7050 H   0  0  0  0  0  0  0  0  0  0  0  0
   35.8060   29.2240   39.9960 C   0  0  0  0  0  0  0  0  0  0  0  0
   34.5680   29.3760   40.1740 O   0  0  0  0  0  0  0  0  0  0  0  0
   36.5770   28.0190   42.0760 C   0  0  0  0  0  0  0  0  0  0  0  0
   36.3370   28.0460   40.6950 C   0  0  0  0  0  0  0  0  0  0  0  0
   36.6100   26.9120   39.9780 C   0  0  0  0  0  0  0  0  0  0  0  0
   37.1090   25.7330   40.5200 C   0  0  0  0  0  0  0  0  0  0  0  0
   37.4360   24.5360   40.0040 N   0  0  0  0  0  0  0  0  0  0  0  0
   37.8750   23.7450   40.9960 C   0  0  0  0  0  0  0  0  0  0  0  0
   37.8240   24.4710   42.1830 C   0  0  0  0  0  0  0  0  0  0  0  0
   37.3370   25.7330   41.8860 C   0  0  0  0  0  0  0  0  0  0  0  0
   37.0760   26.8510   42.6380 C   0  0  0  0  0  0  0  0  0  0  0  0
   36.3550   28.9150   42.6070 H   0  0  0  0  0  0  0  0  0  0  0  0
   36.4560   26.8300   38.8880 H   0  0  0  0  0  0  0  0  0  0  0  0
   37.3720   24.2420   39.0160 H   0  0  0  0  0  0  0  0  0  0  0  0
   38.2270   22.7220   40.9870 H   0  0  0  0  0  0  0  0  0  0  0  0
   38.0950   24.1800   43.2020 H   0  0  0  0  0  0  0  0  0  0  0  0
   37.2520   26.8580   43.7060 H   0  0  0  0  0  0  0  0  0  0  0  0
  1  6  1  0  0  0  0
  1 31  1  0  0  0  0
  2  1  2  0  0  0  0
  3  4  2  0  0  0  0
  3  2  1  0  0  0  0
  4  5  1  0  0  0  0
  5  9  1  0  0  0  0
  5  6  2  0  0  0  0
  7  2  1  0  0  0  0
  8  3  1  0  0  0  0
  9 10  2  0  0  0  0
  9 16  1  0  0  0  0
 10 12  1  0  0  0  0
 11 10  1  0  0  0  0
 12 13  1  0  0  0  0
 12 14  2  0  0  0  0
 14 29  1  0  0  0  0
 15 14  1  0  0  0  0
 15 18  1  0  0  0  0
 16 15  2  0  0  0  0
 17 16  1  0  0  0  0
 18 19  1  0  0  0  0
 19 28  2  0  0  0  0
 19 20  1  0  0  0  0
 20 22  2  0  0  0  0
 21 20  1  0  0  0  0
 22 24  1  0  0  0  0
 22 23  1  0  0  0  0
 24 25  1  0  0  0  0
 26 27  1  0  0  0  0
 26 24  2  0  0  0  0
 28 26  1  0  0  0  0
 29 30  1  0  0  0  0
 29 28  1  0  0  0  0
 31 32  2  0  0  0  0
 31 34  1  0  0  0  0
 33 42  1  0  0  0  0
 33 41  1  0  0  0  0
 34 33  2  0  0  0  0
 35 36  2  0  0  0  0
 35 34  1  0  0  0  0
 36 40  1  0  0  0  0
 37 36  1  0  0  0  0
 37 38  1  0  0  0  0
 38 39  2  0  0  0  0
 39 46  1  0  0  0  0
 40 39  1  0  0  0  0
 40 41  2  0  0  0  0
 41 47  1  0  0  0  0
 43 35  1  0  0  0  0
 44 37  1  0  0  0  0
 45 38  1  0  0  0  0
M  END
>  <minimizedAffinity>
-8.08344555

$$$$

 OpenBabel03242512393D

 47 52  0  0  0  0  0  0  0  0999 V2000
   40.6900   34.3390   39.9000 C   0  0  0  0  0  0  0  0  0  0  0  0
   39.8890   35.4910   39.8690 C   0  0  0  0  0  0  0  0  0  0  0  0
   38.5190   35.2970   40.1120 C   0  0  0  0  0  0  0  0  0  0  0  0
   38.0580   34.0290   40.3550 N   0  0  0  0  0  0  0  0  0  0  0  0
   38.8830   32.9780   40.3680 C   0  0  0  0  0  0  0  0  0  0  0  0
   40.2050   33.1340   40.1390 N   0  0  0  0  0  0  0  0  0  0  0  0
   40.1820   36.4970   39.6870 H   0  0  0  0  0  0  0  0  0  0  0  0
   37.8220   36.1270   40.1080 H   0  0  0  0  0  0  0  0  0  0  0  0
   38.3750   31.6360   40.6300 C   0  0  0  0  0  0  0  0  0  0  0  0
   37.0170   31.3920   40.6510 C   0  0  0  0  0  0  0  0  0  0  0  0
   36.3440   32.2180   40.4670 H   0  0  0  0  0  0  0  0  0  0  0  0
   36.5590   30.1190   40.8990 C   0  0  0  0  0  0  0  0  0  0  0  0
   35.4700   30.0250   40.8950 H   0  0  0  0  0  0  0  0  0  0  0  0
   37.3750   29.0340   41.1380 C   0  0  0  0  0  0  0  0  0  0  0  0
   38.7100   29.2930   41.1150 C   0  0  0  0  0  0  0  0  0  0  0  0
   39.1900   30.5510   40.8690 C   0  0  0  0  0  0  0  0  0  0  0  0
   40.2710   30.7270   40.8570 H   0  0  0  0  0  0  0  0  0  0  0  0
   39.8260   27.9380   41.4150 S   0  0  0  0  0  0  0  0  0  0  0  0
   38.8160   26.4950   41.6870 C   0  0  0  0  0  0  0  0  0  0  0  0
   39.4620   25.3150   41.9410 C   0  0  0  0  0  0  0  0  0  0  0  0
   40.5390   25.2630   41.9760 H   0  0  0  0  0  0  0  0  0  0  0  0
   38.7400   24.1700   42.1580 C   0  0  0  0  0  0  0  0  0  0  0  0
   39.1860   23.2150   42.3620 H   0  0  0  0  0  0  0  0  0  0  0  0
   37.3630   24.2350   42.1150 C   0  0  0  0  0  0  0  0  0  0  0  0
   36.7900   23.3570   42.2810 H   0  0  0  0  0  0  0  0  0  0  0  0
   36.7830   25.4590   41.8530 C   0  0  0  0  0  0  0  0  0  0  0  0
   35.6840   25.4400   41.8330 H   0  0  0  0  0  0  0  0  0  0  0  0
   37.4530   26.6440   41.6270 C   0  0  0  0  0  0  0  0  0  0  0  0
   36.7190   27.8080   41.3730 N   0  0  0  0  0  0  0  0  0  0  0  0
   35.6840   27.7380   41.3650 H   0  0  0  0  0  0  0  0  0  0  0  0
   42.0790   34.5480   39.6540 C   0  0  0  0  0  0  0  0  0  0  0  0
   42.6210   34.7650   38.5370 O   0  0  0  0  0  0  0  0  0  0  0  0
   44.1550   33.6650   40.7880 C   0  0  0  0  0  0  0  0  0  0  0  0
   43.0490   34.5260   40.7570 C   0  0  0  0  0  0  0  0  0  0  0  0
   42.8800   35.3850   41.8100 C   0  0  0  0  0  0  0  0  0  0  0  0
   43.7270   35.4660   42.9100 C   0  0  0  0  0  0  0  0  0  0  0  0
   43.7410   36.2220   44.0210 N   0  0  0  0  0  0  0  0  0  0  0  0
   44.8080   35.8810   44.7610 C   0  0  0  0  0  0  0  0  0  0  0  0
   45.4930   34.8710   44.0910 C   0  0  0  0  0  0  0  0  0  0  0  0
   44.8110   34.6050   42.9150 C   0  0  0  0  0  0  0  0  0  0  0  0
   45.0130   33.7300   41.8770 C   0  0  0  0  0  0  0  0  0  0  0  0
   44.2600   33.0090   39.9560 H   0  0  0  0  0  0  0  0  0  0  0  0
   42.0440   36.1020   41.8820 H   0  0  0  0  0  0  0  0  0  0  0  0
   43.0610   36.9510   44.2900 H   0  0  0  0  0  0  0  0  0  0  0  0
   45.1620   36.2540   45.7120 H   0  0  0  0  0  0  0  0  0  0  0  0
   46.4050   34.3330   44.3650 H   0  0  0  0  0  0  0  0  0  0  0  0
   45.8590   33.0540   41.8750 H   0  0  0  0  0  0  0  0  0  0  0  0
  1  6  1  0  0  0  0
  2  1  2  0  0  0  0
  2  3  1  0  0  0  0
  3  4  2  0  0  0  0
  4  5  1  0  0  0  0
  5  9  1  0  0  0  0
  6  5  2  0  0  0  0
  7  2  1  0  0  0  0
  8  3  1  0  0  0  0
  9 10  2  0  0  0  0
  9 16  1  0  0  0  0
 10 12  1  0  0  0  0
 11 10  1  0  0  0  0
 12 14  2  0  0  0  0
 13 12  1  0  0  0  0
 14 29  1  0  0  0  0
 15 14  1  0  0  0  0
 15 18  1  0  0  0  0
 16 15  2  0  0  0  0
 17 16  1  0  0  0  0
 18 19  1  0  0  0  0
 19 20  1  0  0  0  0
 20 21  1  0  0  0  0
 20 22  2  0  0  0  0
 22 23  1  0  0  0  0
 24 22  1  0  0  0  0
 24 25  1  0  0  0  0
 26 24  2  0  0  0  0
 27 26  1  0  0  0  0
 28 19  2  0  0  0  0
 28 26  1  0  0  0  0
 29 28  1  0  0  0  0
 30 29  1  0  0  0  0
 31  1  1  0  0  0  0
 31 34  1  0  0  0  0
 32 31  2  0  0  0  0
 33 41  1  0  0  0  0
 34 33  2  0  0  0  0
 34 35  1  0  0  0  0
 35 43  1  0  0  0  0
 35 36  2  0  0  0  0
 36 40  1  0  0  0  0
 36 37  1  0  0  0  0
 37 44  1  0  0  0  0
 37 38  1  0  0  0  0
 38 45  1  0  0  0  0
 39 46  1  0  0  0  0
 39 38  2  0  0  0  0
 40 39  1  0  0  0  0
 41 40  2  0  0  0  0
 42 33  1  0  0  0  0
 47 41  1  0  0  0  0
M  END
>  <minimizedAffinity>
-7.88440323

$$$$

 OpenBabel03242512393D

 47 52  0  0  0  0  0  0  0  0999 V2000
   36.8670   25.3610   40.2070 C   0  0  0  0  0  0  0  0  0  0  0  0
   36.9760   24.7150   41.4480 C   0  0  0  0  0  0  0  0  0  0  0  0
   37.1930   25.5460   42.5600 C   0  0  0  0  0  0  0  0  0  0  0  0
   37.2860   26.9010   42.3710 N   0  0  0  0  0  0  0  0  0  0  0  0
   37.1720   27.4450   41.1560 C   0  0  0  0  0  0  0  0  0  0  0  0
   36.9630   26.6710   40.0690 N   0  0  0  0  0  0  0  0  0  0  0  0
   36.9140   23.6750   41.6620 H   0  0  0  0  0  0  0  0  0  0  0  0
   37.2910   25.1390   43.5590 H   0  0  0  0  0  0  0  0  0  0  0  0
   37.2720   28.8890   40.9750 C   0  0  0  0  0  0  0  0  0  0  0  0
   36.1370   29.6710   40.9260 C   0  0  0  0  0  0  0  0  0  0  0  0
   35.1750   29.1860   41.0260 H   0  0  0  0  0  0  0  0  0  0  0  0
   36.2540   31.0310   40.7550 C   0  0  0  0  0  0  0  0  0  0  0  0
   35.3010   31.5630   40.7300 H   0  0  0  0  0  0  0  0  0  0  0  0
   37.4550   31.6940   40.6240 C   0  0  0  0  0  0  0  0  0  0  0  0
   38.5640   30.9080   40.6730 C   0  0  0  0  0  0  0  0  0  0  0  0
   38.4730   29.5530   40.8430 C   0  0  0  0  0  0  0  0  0  0  0  0
   39.3850   28.9480   40.8790 H   0  0  0  0  0  0  0  0  0  0  0  0
   40.1520   31.6980   40.5100 S   0  0  0  0  0  0  0  0  0  0  0  0
   39.8370   33.4410   40.3100 C   0  0  0  0  0  0  0  0  0  0  0  0
   40.9230   34.2630   40.1640 C   0  0  0  0  0  0  0  0  0  0  0  0
   41.9270   33.8690   40.1700 H   0  0  0  0  0  0  0  0  0  0  0  0
   40.7460   35.6130   40.0060 C   0  0  0  0  0  0  0  0  0  0  0  0
   41.5540   36.3090   39.8870 H   0  0  0  0  0  0  0  0  0  0  0  0
   39.4620   36.1170   39.9980 C   0  0  0  0  0  0  0  0  0  0  0  0
   39.3090   37.1610   39.8760 H   0  0  0  0  0  0  0  0  0  0  0  0
   38.4190   35.2290   40.1510 C   0  0  0  0  0  0  0  0  0  0  0  0
   37.4240   35.6970   40.1350 H   0  0  0  0  0  0  0  0  0  0  0  0
   38.5310   33.8640   40.3130 C   0  0  0  0  0  0  0  0  0  0  0  0
   37.3720   33.0930   40.4560 N   0  0  0  0  0  0  0  0  0  0  0  0
   36.4570   33.5810   40.4340 H   0  0  0  0  0  0  0  0  0  0  0  0
   36.6460   24.5070   39.0860 C   0  0  0  0  0  0  0  0  0  0  0  0
   37.5240   24.0280   38.3190 O   0  0  0  0  0  0  0  0  0  0  0  0
   34.5530   24.7000   37.6860 C   0  0  0  0  0  0  0  0  0  0  0  0
   35.2860   24.0920   38.7160 C   0  0  0  0  0  0  0  0  0  0  0  0
   34.6940   23.0620   39.3970 C   0  0  0  0  0  0  0  0  0  0  0  0
   33.4180   22.5730   39.1410 C   0  0  0  0  0  0  0  0  0  0  0  0
   32.6710   21.5930   39.6790 N   0  0  0  0  0  0  0  0  0  0  0  0
   31.4930   21.5490   39.0380 C   0  0  0  0  0  0  0  0  0  0  0  0
   31.4960   22.5380   38.0580 C   0  0  0  0  0  0  0  0  0  0  0  0
   32.7170   23.1900   38.1190 C   0  0  0  0  0  0  0  0  0  0  0  0
   33.2770   24.2260   37.4140 C   0  0  0  0  0  0  0  0  0  0  0  0
   35.0390   25.4970   37.1740 H   0  0  0  0  0  0  0  0  0  0  0  0
   35.1850   22.5190   40.2230 H   0  0  0  0  0  0  0  0  0  0  0  0
   32.9300   20.9640   40.4560 H   0  0  0  0  0  0  0  0  0  0  0  0
   30.6330   20.9070   39.1740 H   0  0  0  0  0  0  0  0  0  0  0  0
   30.7270   22.8170   37.3320 H   0  0  0  0  0  0  0  0  0  0  0  0
   32.7340   24.7130   36.6140 H   0  0  0  0  0  0  0  0  0  0  0  0
  1  2  1  0  0  0  0
  2  7  1  0  0  0  0
  2  3  2  0  0  0  0
  3  8  1  0  0  0  0
  4  3  1  0  0  0  0
  5  4  2  0  0  0  0
  6  1  2  0  0  0  0
  6  5  1  0  0  0  0
  9  5  1  0  0  0  0
 10  9  1  0  0  0  0
 10 11  1  0  0  0  0
 12 10  2  0  0  0  0
 13 12  1  0  0  0  0
 14 15  2  0  0  0  0
 14 12  1  0  0  0  0
 15 16  1  0  0  0  0
 16 17  1  0  0  0  0
 16  9  2  0  0  0  0
 18 15  1  0  0  0  0
 19 28  1  0  0  0  0
 19 18  1  0  0  0  0
 20 21  1  0  0  0  0
 20 19  2  0  0  0  0
 22 20  1  0  0  0  0
 23 22  1  0  0  0  0
 24 22  2  0  0  0  0
 24 26  1  0  0  0  0
 25 24  1  0  0  0  0
 26 28  2  0  0  0  0
 27 26  1  0  0  0  0
 28 29  1  0  0  0  0
 29 14  1  0  0  0  0
 30 29  1  0  0  0  0
 31  1  1  0  0  0  0
 32 31  2  0  0  0  0
 33 34  1  0  0  0  0
 34 31  1  0  0  0  0
 34 35  2  0  0  0  0
 35 43  1  0  0  0  0
 36 35  1  0  0  0  0
 36 37  1  0  0  0  0
 37 44  1  0  0  0  0
 38 45  1  0  0  0  0
 38 37  1  0  0  0  0
 39 40  1  0  0  0  0
 39 38  2  0  0  0  0
 40 36  2  0  0  0  0
 41 33  2  0  0  0  0
 41 40  1  0  0  0  0
 42 33  1  0  0  0  0
 46 39  1  0  0  0  0
 47 41  1  0  0  0  0
M  END
>  <minimizedAffinity>
-7.76772022

$$$$

 OpenBabel03242512393D

 47 52  0  0  0  0  0  0  0  0999 V2000
   37.2850   25.4600   40.0620 C   0  0  0  0  0  0  0  0  0  0  0  0
   36.4540   24.9450   39.0560 C   0  0  0  0  0  0  0  0  0  0  0  0
   35.8170   25.8920   38.2360 C   0  0  0  0  0  0  0  0  0  0  0  0
   36.0370   27.2260   38.4640 N   0  0  0  0  0  0  0  0  0  0  0  0
   36.8430   27.6420   39.4460 C   0  0  0  0  0  0  0  0  0  0  0  0
   37.4690   26.7550   40.2490 N   0  0  0  0  0  0  0  0  0  0  0  0
   36.2420   23.9280   38.8270 H   0  0  0  0  0  0  0  0  0  0  0  0
   35.1570   25.5890   37.4320 H   0  0  0  0  0  0  0  0  0  0  0  0
   37.0650   29.0650   39.6720 C   0  0  0  0  0  0  0  0  0  0  0  0
   36.0760   29.8500   40.2290 C   0  0  0  0  0  0  0  0  0  0  0  0
   35.1360   29.3830   40.4910 H   0  0  0  0  0  0  0  0  0  0  0  0
   36.3070   31.1910   40.4340 C   0  0  0  0  0  0  0  0  0  0  0  0
   35.4650   31.7270   40.8790 H   0  0  0  0  0  0  0  0  0  0  0  0
   37.4850   31.8310   40.1180 C   0  0  0  0  0  0  0  0  0  0  0  0
   38.4480   31.0430   39.5700 C   0  0  0  0  0  0  0  0  0  0  0  0
   38.2430   29.7070   39.3570 C   0  0  0  0  0  0  0  0  0  0  0  0
   39.0390   29.0990   38.9140 H   0  0  0  0  0  0  0  0  0  0  0  0
   39.9990   31.8040   39.1360 S   0  0  0  0  0  0  0  0  0  0  0  0
   39.8610   33.5280   39.5690 C   0  0  0  0  0  0  0  0  0  0  0  0
   40.9460   34.3260   39.3240 C   0  0  0  0  0  0  0  0  0  0  0  0
   41.8470   33.9260   38.8860 H   0  0  0  0  0  0  0  0  0  0  0  0
   40.9020   35.6600   39.6350 C   0  0  0  0  0  0  0  0  0  0  0  0
   41.7180   36.3380   39.4670 H   0  0  0  0  0  0  0  0  0  0  0  0
   39.7500   36.1730   40.1940 C   0  0  0  0  0  0  0  0  0  0  0  0
   39.7000   37.2050   40.4400 H   0  0  0  0  0  0  0  0  0  0  0  0
   38.6980   35.3080   40.4120 C   0  0  0  0  0  0  0  0  0  0  0  0
   37.8130   35.7820   40.8600 H   0  0  0  0  0  0  0  0  0  0  0  0
   38.6810   33.9600   40.1220 C   0  0  0  0  0  0  0  0  0  0  0  0
   37.5330   33.2120   40.4030 N   0  0  0  0  0  0  0  0  0  0  0  0
   36.7230   33.7050   40.8250 H   0  0  0  0  0  0  0  0  0  0  0  0
   37.9270   24.4890   40.8870 C   0  0  0  0  0  0  0  0  0  0  0  0
   37.5990   23.2800   41.0220 O   0  0  0  0  0  0  0  0  0  0  0  0
   39.0180   25.1820   43.0560 C   0  0  0  0  0  0  0  0  0  0  0  0
   39.0990   24.8490   41.6960 C   0  0  0  0  0  0  0  0  0  0  0  0
   40.3360   24.8600   41.1100 C   0  0  0  0  0  0  0  0  0  0  0  0
   41.5210   25.1770   41.7650 C   0  0  0  0  0  0  0  0  0  0  0  0
   42.8080   25.2440   41.3820 N   0  0  0  0  0  0  0  0  0  0  0  0
   43.5530   25.6060   42.4390 C   0  0  0  0  0  0  0  0  0  0  0  0
   42.7040   25.7740   43.5290 C   0  0  0  0  0  0  0  0  0  0  0  0
   41.4130   25.5020   43.1070 C   0  0  0  0  0  0  0  0  0  0  0  0
   40.1900   25.5020   43.7290 C   0  0  0  0  0  0  0  0  0  0  0  0
   38.0440   25.1650   43.4850 H   0  0  0  0  0  0  0  0  0  0  0  0
   40.5070   24.6140   40.0470 H   0  0  0  0  0  0  0  0  0  0  0  0
   43.1910   25.0560   40.4420 H   0  0  0  0  0  0  0  0  0  0  0  0
   44.6180   25.7660   42.5370 H   0  0  0  0  0  0  0  0  0  0  0  0
   42.9260   26.0620   44.5610 H   0  0  0  0  0  0  0  0  0  0  0  0
   40.0980   25.7550   44.7780 H   0  0  0  0  0  0  0  0  0  0  0  0
  1  6  1  0  0  0  0
  1 31  1  0  0  0  0
  2  1  2  0  0  0  0
  3  4  2  0  0  0  0
  3  2  1  0  0  0  0
  4  5  1  0  0  0  0
  5  9  1  0  0  0  0
  5  6  2  0  0  0  0
  7  2  1  0  0  0  0
  8  3  1  0  0  0  0
  9 10  1  0  0  0  0
 10 12  2  0  0  0  0
 10 11  1  0  0  0  0
 12 13  1  0  0  0  0
 14 29  1  0  0  0  0
 14 12  1  0  0  0  0
 15 14  2  0  0  0  0
 16 15  1  0  0  0  0
 16  9  2  0  0  0  0
 17 16  1  0  0  0  0
 18 19  1  0  0  0  0
 18 15  1  0  0  0  0
 19 28  1  0  0  0  0
 20 19  2  0  0  0  0
 20 22  1  0  0  0  0
 21 20  1  0  0  0  0
 22 24  2  0  0  0  0
 23 22  1  0  0  0  0
 24 26  1  0  0  0  0
 24 25  1  0  0  0  0
 26 27  1  0  0  0  0
 28 29  1  0  0  0  0
 28 26  2  0  0  0  0
 29 30  1  0  0  0  0
 31 32  2  0  0  0  0
 31 34  1  0  0  0  0
 33 42  1  0  0  0  0
 33 41  1  0  0  0  0
 34 33  2  0  0  0  0
 35 34  1  0  0  0  0
 35 36  2  0  0  0  0
 36 40  1  0  0  0  0
 37 36  1  0  0  0  0
 37 38  1  0  0  0  0
 38 45  1  0  0  0  0
 38 39  2  0  0  0  0
 39 46  1  0  0  0  0
 40 39  1  0  0  0  0
 40 41  2  0  0  0  0
 41 47  1  0  0  0  0
 43 35  1  0  0  0  0
 44 37  1  0  0  0  0
M  END
>  <minimizedAffinity>
-7.58141232

$$$$

 OpenBabel03242512393D

 47 52  0  0  0  0  0  0  0  0999 V2000
   40.5850   34.5360   40.5710 C   0  0  0  0  0  0  0  0  0  0  0  0
   39.7630   35.5910   40.1440 C   0  0  0  0  0  0  0  0  0  0  0  0
   38.4110   35.2720   39.9290 C   0  0  0  0  0  0  0  0  0  0  0  0
   37.9880   33.9860   40.1420 N   0  0  0  0  0  0  0  0  0  0  0  0
   38.8320   33.0320   40.5490 C   0  0  0  0  0  0  0  0  0  0  0  0
   40.1360   33.3090   40.7640 N   0  0  0  0  0  0  0  0  0  0  0  0
   40.0260   36.6050   39.9610 H   0  0  0  0  0  0  0  0  0  0  0  0
   37.7000   36.0200   39.5990 H   0  0  0  0  0  0  0  0  0  0  0  0
   38.3630   31.6690   40.7710 C   0  0  0  0  0  0  0  0  0  0  0  0
   37.0200   31.3650   40.6800 C   0  0  0  0  0  0  0  0  0  0  0  0
   36.3290   32.1620   40.4410 H   0  0  0  0  0  0  0  0  0  0  0  0
   36.6000   30.0730   40.8930 C   0  0  0  0  0  0  0  0  0  0  0  0
   35.5200   29.9320   40.7990 H   0  0  0  0  0  0  0  0  0  0  0  0
   37.4410   29.0250   41.1990 C   0  0  0  0  0  0  0  0  0  0  0  0
   38.7600   29.3420   41.2850 C   0  0  0  0  0  0  0  0  0  0  0  0
   39.2030   30.6200   41.0780 C   0  0  0  0  0  0  0  0  0  0  0  0
   40.2730   30.8440   41.1540 H   0  0  0  0  0  0  0  0  0  0  0  0
   39.9060   28.0370   41.6780 S   0  0  0  0  0  0  0  0  0  0  0  0
   38.9420   26.5500   41.8690 C   0  0  0  0  0  0  0  0  0  0  0  0
   39.6160   25.3990   42.1770 C   0  0  0  0  0  0  0  0  0  0  0  0
   40.6870   25.3950   42.3000 H   0  0  0  0  0  0  0  0  0  0  0  0
   38.9300   24.2230   42.3360 C   0  0  0  0  0  0  0  0  0  0  0  0
   39.3990   23.2880   42.5780 H   0  0  0  0  0  0  0  0  0  0  0  0
   37.5600   24.2280   42.1800 C   0  0  0  0  0  0  0  0  0  0  0  0
   37.0140   23.3250   42.3000 H   0  0  0  0  0  0  0  0  0  0  0  0
   36.9500   25.4260   41.8690 C   0  0  0  0  0  0  0  0  0  0  0  0
   35.8580   25.3580   41.7590 H   0  0  0  0  0  0  0  0  0  0  0  0
   37.5830   26.6390   41.6970 C   0  0  0  0  0  0  0  0  0  0  0  0
   36.8220   27.7700   41.3820 N   0  0  0  0  0  0  0  0  0  0  0  0
   35.7950   27.6550   41.2890 H   0  0  0  0  0  0  0  0  0  0  0  0
   41.9550   34.8730   40.7870 C   0  0  0  0  0  0  0  0  0  0  0  0
   42.3950   35.8360   41.4700 O   0  0  0  0  0  0  0  0  0  0  0  0
   43.7430   33.0940   40.9010 C   0  0  0  0  0  0  0  0  0  0  0  0
   43.0280   34.0670   40.1890 C   0  0  0  0  0  0  0  0  0  0  0  0
   43.3540   34.2620   38.8730 C   0  0  0  0  0  0  0  0  0  0  0  0
   44.3430   33.5640   38.1900 C   0  0  0  0  0  0  0  0  0  0  0  0
   44.8080   33.6000   36.9300 N   0  0  0  0  0  0  0  0  0  0  0  0
   45.7880   32.6920   36.8050 C   0  0  0  0  0  0  0  0  0  0  0  0
   45.9490   32.0590   38.0350 C   0  0  0  0  0  0  0  0  0  0  0  0
   45.0330   32.6080   38.9170 C   0  0  0  0  0  0  0  0  0  0  0  0
   44.7350   32.3840   40.2380 C   0  0  0  0  0  0  0  0  0  0  0  0
   43.4670   32.9640   41.9220 H   0  0  0  0  0  0  0  0  0  0  0  0
   42.8530   35.0030   38.2270 H   0  0  0  0  0  0  0  0  0  0  0  0
   44.4860   34.2120   36.1620 H   0  0  0  0  0  0  0  0  0  0  0  0
   46.4040   32.4210   35.9580 H   0  0  0  0  0  0  0  0  0  0  0  0
   46.6400   31.2670   38.3370 H   0  0  0  0  0  0  0  0  0  0  0  0
   45.2710   31.6390   40.8110 H   0  0  0  0  0  0  0  0  0  0  0  0
  1  6  1  0  0  0  0
  1 31  1  0  0  0  0
  2  1  2  0  0  0  0
  3  4  2  0  0  0  0
  3  2  1  0  0  0  0
  4  5  1  0  0  0  0
  5  6  2  0  0  0  0
  5  9  1  0  0  0  0
  7  2  1  0  0  0  0
  8  3  1  0  0  0  0
  9 16  1  0  0  0  0
 10  9  2  0  0  0  0
 10 12  1  0  0  0  0
 11 10  1  0  0  0  0
 12 14  2  0  0  0  0
 13 12  1  0  0  0  0
 14 15  1  0  0  0  0
 14 29  1  0  0  0  0
 15 18  1  0  0  0  0
 16 17  1  0  0  0  0
 16 15  2  0  0  0  0
 18 19  1  0  0  0  0
 19 20  1  0  0  0  0
 20 21  1  0  0  0  0
 20 22  2  0  0  0  0
 22 23  1  0  0  0  0
 24 25  1  0  0  0  0
 24 22  1  0  0  0  0
 26 24  2  0  0  0  0
 27 26  1  0  0  0  0
 28 19  2  0  0  0  0
 28 26  1  0  0  0  0
 29 28  1  0  0  0  0
 30 29  1  0  0  0  0
 31 32  2  0  0  0  0
 33 42  1  0  0  0  0
 34 31  1  0  0  0  0
 34 33  2  0  0  0  0
 35 34  1  0  0  0  0
 36 35  2  0  0  0  0
 36 40  1  0  0  0  0
 37 36  1  0  0  0  0
 38 37  1  0  0  0  0
 38 39  2  0  0  0  0
 39 46  1  0  0  0  0
 39 40  1  0  0  0  0
 40 41  2  0  0  0  0
 41 47  1  0  0  0  0
 41 33  1  0  0  0  0
 43 35  1  0  0  0  0
 44 37  1  0  0  0  0
 45 38  1  0  0  0  0
M  END
>  <minimizedAffinity>
-7.51134777

$$$$

 OpenBabel03242512393D

 47 52  0  0  0  0  0  0  0  0999 V2000
   36.7200   25.2870   40.2560 C   0  0  0  0  0  0  0  0  0  0  0  0
   36.8110   24.6490   41.5020 C   0  0  0  0  0  0  0  0  0  0  0  0
   37.0370   25.4850   42.6090 C   0  0  0  0  0  0  0  0  0  0  0  0
   37.1540   26.8370   42.4090 N   0  0  0  0  0  0  0  0  0  0  0  0
   37.0570   27.3730   41.1890 C   0  0  0  0  0  0  0  0  0  0  0  0
   36.8400   26.5940   40.1070 N   0  0  0  0  0  0  0  0  0  0  0  0
   36.7300   23.6120   41.7240 H   0  0  0  0  0  0  0  0  0  0  0  0
   37.1210   25.0840   43.6120 H   0  0  0  0  0  0  0  0  0  0  0  0
   37.1840   28.8130   40.9970 C   0  0  0  0  0  0  0  0  0  0  0  0
   36.0610   29.6090   40.8930 C   0  0  0  0  0  0  0  0  0  0  0  0
   35.0900   29.1370   40.9590 H   0  0  0  0  0  0  0  0  0  0  0  0
   36.2040   30.9650   40.7130 C   0  0  0  0  0  0  0  0  0  0  0  0
   35.2590   31.5090   40.6420 H   0  0  0  0  0  0  0  0  0  0  0  0
   37.4180   31.6120   40.6240 C   0  0  0  0  0  0  0  0  0  0  0  0
   38.5130   30.8130   40.7280 C   0  0  0  0  0  0  0  0  0  0  0  0
   38.3970   29.4610   40.9080 C   0  0  0  0  0  0  0  0  0  0  0  0
   39.2990   28.8450   40.9880 H   0  0  0  0  0  0  0  0  0  0  0  0
   40.1160   31.5800   40.6220 S   0  0  0  0  0  0  0  0  0  0  0  0
   39.8340   33.3250   40.3910 C   0  0  0  0  0  0  0  0  0  0  0  0
   40.9350   34.1310   40.2810 C   0  0  0  0  0  0  0  0  0  0  0  0
   41.9320   33.7240   40.3330 H   0  0  0  0  0  0  0  0  0  0  0  0
   40.7820   35.4810   40.1020 C   0  0  0  0  0  0  0  0  0  0  0  0
   41.6040   36.1660   40.0090 H   0  0  0  0  0  0  0  0  0  0  0  0
   39.5070   36.0020   40.0350 C   0  0  0  0  0  0  0  0  0  0  0  0
   39.3720   37.0460   39.8960 H   0  0  0  0  0  0  0  0  0  0  0  0
   38.4460   35.1280   40.1540 C   0  0  0  0  0  0  0  0  0  0  0  0
   37.4600   35.6090   40.0920 H   0  0  0  0  0  0  0  0  0  0  0  0
   38.5340   33.7640   40.3350 C   0  0  0  0  0  0  0  0  0  0  0  0
   37.3600   33.0090   40.4380 N   0  0  0  0  0  0  0  0  0  0  0  0
   36.4540   33.5090   40.3730 H   0  0  0  0  0  0  0  0  0  0  0  0
   36.4900   24.4280   39.1400 C   0  0  0  0  0  0  0  0  0  0  0  0
   35.5810   24.5450   38.2740 O   0  0  0  0  0  0  0  0  0  0  0  0
   36.9170   21.9410   39.0650 C   0  0  0  0  0  0  0  0  0  0  0  0
   37.3520   23.2630   38.8990 C   0  0  0  0  0  0  0  0  0  0  0  0
   38.6430   23.4630   38.4890 C   0  0  0  0  0  0  0  0  0  0  0  0
   39.5560   22.4480   38.2230 C   0  0  0  0  0  0  0  0  0  0  0  0
   40.8380   22.4310   37.8190 N   0  0  0  0  0  0  0  0  0  0  0  0
   41.2400   21.1540   37.7190 C   0  0  0  0  0  0  0  0  0  0  0  0
   40.1720   20.3350   38.0750 C   0  0  0  0  0  0  0  0  0  0  0  0
   39.1010   21.1520   38.3950 C   0  0  0  0  0  0  0  0  0  0  0  0
   37.8130   20.9120   38.8050 C   0  0  0  0  0  0  0  0  0  0  0  0
   35.9090   21.8170   39.3840 H   0  0  0  0  0  0  0  0  0  0  0  0
   39.0820   24.4630   38.3290 H   0  0  0  0  0  0  0  0  0  0  0  0
   41.4390   23.2440   37.6120 H   0  0  0  0  0  0  0  0  0  0  0  0
   42.1920   20.7290   37.4280 H   0  0  0  0  0  0  0  0  0  0  0  0
   40.1020   19.2440   38.1190 H   0  0  0  0  0  0  0  0  0  0  0  0
   37.4510   19.9010   38.9410 H   0  0  0  0  0  0  0  0  0  0  0  0
  1  2  1  0  0  0  0
  2  7  1  0  0  0  0
  2  3  2  0  0  0  0
  3  8  1  0  0  0  0
  4  3  1  0  0  0  0
  5  4  2  0  0  0  0
  6  1  2  0  0  0  0
  6  5  1  0  0  0  0
  9  5  1  0  0  0  0
 10 11  1  0  0  0  0
 10  9  2  0  0  0  0
 12 10  1  0  0  0  0
 13 12  1  0  0  0  0
 14 12  2  0  0  0  0
 14 15  1  0  0  0  0
 15 16  2  0  0  0  0
 16 17  1  0  0  0  0
 16  9  1  0  0  0  0
 18 15  1  0  0  0  0
 19 18  1  0  0  0  0
 20 21  1  0  0  0  0
 20 19  2  0  0  0  0
 22 20  1  0  0  0  0
 23 22  1  0  0  0  0
 24 22  2  0  0  0  0
 24 26  1  0  0  0  0
 25 24  1  0  0  0  0
 26 28  2  0  0  0  0
 27 26  1  0  0  0  0
 28 19  1  0  0  0  0
 28 29  1  0  0  0  0
 29 14  1  0  0  0  0
 30 29  1  0  0  0  0
 31  1  1  0  0  0  0
 32 31  2  0  0  0  0
 33 42  1  0  0  0  0
 34 33  1  0  0  0  0
 34 31  1  0  0  0  0
 35 34  2  0  0  0  0
 36 40  2  0  0  0  0
 36 35  1  0  0  0  0
 37 36  1  0  0  0  0
 38 37  1  0  0  0  0
 38 39  2  0  0  0  0
 39 46  1  0  0  0  0
 39 40  1  0  0  0  0
 40 41  1  0  0  0  0
 41 47  1  0  0  0  0
 41 33  2  0  0  0  0
 43 35  1  0  0  0  0
 44 37  1  0  0  0  0
 45 38  1  0  0  0  0
M  END
>  <minimizedAffinity>
-7.17503738

$$$$

 OpenBabel03242512393D

 47 52  0  0  0  0  0  0  0  0999 V2000
   36.6230   25.1690   39.8200 C   0  0  0  0  0  0  0  0  0  0  0  0
   36.7100   24.4370   41.0130 C   0  0  0  0  0  0  0  0  0  0  0  0
   36.9490   25.1830   42.1800 C   0  0  0  0  0  0  0  0  0  0  0  0
   37.0820   26.5450   42.0830 N   0  0  0  0  0  0  0  0  0  0  0  0
   36.9880   27.1740   40.9080 C   0  0  0  0  0  0  0  0  0  0  0  0
   36.7580   26.4820   39.7710 N   0  0  0  0  0  0  0  0  0  0  0  0
   36.6170   23.3870   41.1560 H   0  0  0  0  0  0  0  0  0  0  0  0
   37.0320   24.7060   43.1490 H   0  0  0  0  0  0  0  0  0  0  0  0
   37.1310   28.6220   40.8260 C   0  0  0  0  0  0  0  0  0  0  0  0
   36.0510   29.4490   41.0550 C   0  0  0  0  0  0  0  0  0  0  0  0
   35.0990   28.9950   41.2950 H   0  0  0  0  0  0  0  0  0  0  0  0
   36.2090   30.8130   40.9720 C   0  0  0  0  0  0  0  0  0  0  0  0
   35.2970   31.3820   41.1690 H   0  0  0  0  0  0  0  0  0  0  0  0
   37.3990   31.4390   40.6700 C   0  0  0  0  0  0  0  0  0  0  0  0
   38.4530   30.6090   40.4470 C   0  0  0  0  0  0  0  0  0  0  0  0
   38.3220   29.2490   40.5240 C   0  0  0  0  0  0  0  0  0  0  0  0
   39.1900   28.6080   40.3390 H   0  0  0  0  0  0  0  0  0  0  0  0
   40.0240   31.3480   40.0510 S   0  0  0  0  0  0  0  0  0  0  0  0
   39.7740   33.1130   40.0520 C   0  0  0  0  0  0  0  0  0  0  0  0
   40.8560   33.9020   39.7690 C   0  0  0  0  0  0  0  0  0  0  0  0
   41.8210   33.4700   39.5550 H   0  0  0  0  0  0  0  0  0  0  0  0
   40.7270   35.2660   39.7550 C   0  0  0  0  0  0  0  0  0  0  0  0
   41.5370   35.9390   39.5410 H   0  0  0  0  0  0  0  0  0  0  0  0
   39.4940   35.8190   40.0290 C   0  0  0  0  0  0  0  0  0  0  0  0
   39.3770   36.8740   40.0210 H   0  0  0  0  0  0  0  0  0  0  0  0
   38.4490   34.9610   40.3050 C   0  0  0  0  0  0  0  0  0  0  0  0
   37.4960   35.4670   40.5130 H   0  0  0  0  0  0  0  0  0  0  0  0
   38.5150   33.5840   40.3340 C   0  0  0  0  0  0  0  0  0  0  0  0
   37.3630   32.8480   40.6320 N   0  0  0  0  0  0  0  0  0  0  0  0
   36.4870   33.3720   40.8210 H   0  0  0  0  0  0  0  0  0  0  0  0
   36.3790   24.4000   38.6420 C   0  0  0  0  0  0  0  0  0  0  0  0
   36.7630   23.2210   38.4210 O   0  0  0  0  0  0  0  0  0  0  0  0
   34.2190   25.1380   37.5620 C   0  0  0  0  0  0  0  0  0  0  0  0
   35.6100   24.9630   37.5250 C   0  0  0  0  0  0  0  0  0  0  0  0
   36.2700   25.3440   36.3860 C   0  0  0  0  0  0  0  0  0  0  0  0
   35.6600   25.8930   35.2640 C   0  0  0  0  0  0  0  0  0  0  0  0
   36.1150   26.3250   34.0750 N   0  0  0  0  0  0  0  0  0  0  0  0
   35.0740   26.7680   33.3520 C   0  0  0  0  0  0  0  0  0  0  0  0
   33.9190   26.6090   34.1130 C   0  0  0  0  0  0  0  0  0  0  0  0
   34.2870   26.0550   35.3280 C   0  0  0  0  0  0  0  0  0  0  0  0
   33.5910   25.6840   36.4510 C   0  0  0  0  0  0  0  0  0  0  0  0
   33.7340   24.8320   38.4600 H   0  0  0  0  0  0  0  0  0  0  0  0
   37.3610   25.2490   36.2560 H   0  0  0  0  0  0  0  0  0  0  0  0
   37.0920   26.3300   33.7430 H   0  0  0  0  0  0  0  0  0  0  0  0
   35.0280   27.1890   32.3560 H   0  0  0  0  0  0  0  0  0  0  0  0
   32.8790   26.8500   33.8770 H   0  0  0  0  0  0  0  0  0  0  0  0
   32.5170   25.8080   36.5080 H   0  0  0  0  0  0  0  0  0  0  0  0
  1  2  1  0  0  0  0
  2  7  1  0  0  0  0
  2  3  2  0  0  0  0
  3  8  1  0  0  0  0
  4  3  1  0  0  0  0
  5  4  2  0  0  0  0
  6  1  2  0  0  0  0
  6  5  1  0  0  0  0
  9  5  1  0  0  0  0
  9 10  1  0  0  0  0
 10 11  1  0  0  0  0
 12 10  2  0  0  0  0
 12 13  1  0  0  0  0
 14 12  1  0  0  0  0
 15 16  1  0  0  0  0
 15 14  2  0  0  0  0
 16  9  2  0  0  0  0
 17 16  1  0  0  0  0
 18 19  1  0  0  0  0
 18 15  1  0  0  0  0
 19 28  1  0  0  0  0
 20 19  2  0  0  0  0
 21 20  1  0  0  0  0
 22 20  1  0  0  0  0
 22 24  2  0  0  0  0
 23 22  1  0  0  0  0
 24 26  1  0  0  0  0
 25 24  1  0  0  0  0
 26 28  2  0  0  0  0
 26 27  1  0  0  0  0
 28 29  1  0  0  0  0
 29 14  1  0  0  0  0
 29 30  1  0  0  0  0
 31  1  1  0  0  0  0
 32 31  2  0  0  0  0
 33 42  1  0  0  0  0
 34 33  1  0  0  0  0
 34 31  1  0  0  0  0
 35 34  2  0  0  0  0
 36 40  2  0  0  0  0
 36 35  1  0  0  0  0
 37 36  1  0  0  0  0
 38 37  1  0  0  0  0
 38 39  2  0  0  0  0
 39 40  1  0  0  0  0
 40 41  1  0  0  0  0
 41 47  1  0  0  0  0
 41 33  2  0  0  0  0
 43 35  1  0  0  0  0
 44 37  1  0  0  0  0
 45 38  1  0  0  0  0
 46 39  1  0  0  0  0
M  END
>  <minimizedAffinity>
-7.12786627

$$$$

 OpenBabel03242512393D

 47 52  0  0  0  0  0  0  0  0999 V2000
   40.6870   34.0200   40.0020 C   0  0  0  0  0  0  0  0  0  0  0  0
   39.8120   35.1040   40.1740 C   0  0  0  0  0  0  0  0  0  0  0  0
   38.4420   34.7910   40.2160 C   0  0  0  0  0  0  0  0  0  0  0  0
   38.0540   33.4830   40.0890 N   0  0  0  0  0  0  0  0  0  0  0  0
   38.9480   32.5020   39.9280 C   0  0  0  0  0  0  0  0  0  0  0  0
   40.2700   32.7730   39.8840 N   0  0  0  0  0  0  0  0  0  0  0  0
   40.0470   36.1360   40.2770 H   0  0  0  0  0  0  0  0  0  0  0  0
   37.6910   35.5610   40.3460 H   0  0  0  0  0  0  0  0  0  0  0  0
   38.5150   31.1160   39.7960 C   0  0  0  0  0  0  0  0  0  0  0  0
   39.1620   30.1100   40.4840 C   0  0  0  0  0  0  0  0  0  0  0  0
   39.9940   30.3770   41.1210 H   0  0  0  0  0  0  0  0  0  0  0  0
   38.7370   28.8090   40.3440 C   0  0  0  0  0  0  0  0  0  0  0  0
   39.3110   28.0850   40.9280 H   0  0  0  0  0  0  0  0  0  0  0  0
   37.6830   28.4190   39.5460 C   0  0  0  0  0  0  0  0  0  0  0  0
   37.0580   29.4230   38.8750 C   0  0  0  0  0  0  0  0  0  0  0  0
   37.4610   30.7250   38.9980 C   0  0  0  0  0  0  0  0  0  0  0  0
   36.9360   31.5100   38.4440 H   0  0  0  0  0  0  0  0  0  0  0  0
   35.6860   28.9920   37.8240 S   0  0  0  0  0  0  0  0  0  0  0  0
   35.4860   27.2250   37.9420 C   0  0  0  0  0  0  0  0  0  0  0  0
   34.4780   26.6560   37.2110 C   0  0  0  0  0  0  0  0  0  0  0  0
   33.8330   27.2550   36.5880 H   0  0  0  0  0  0  0  0  0  0  0  0
   34.2740   25.3020   37.2600 C   0  0  0  0  0  0  0  0  0  0  0  0
   33.5030   24.7960   36.7110 H   0  0  0  0  0  0  0  0  0  0  0  0
   35.0990   24.5350   38.0560 C   0  0  0  0  0  0  0  0  0  0  0  0
   34.9540   23.4840   38.1040 H   0  0  0  0  0  0  0  0  0  0  0  0
   36.0920   25.1780   38.7640 C   0  0  0  0  0  0  0  0  0  0  0  0
   36.7120   24.5080   39.3770 H   0  0  0  0  0  0  0  0  0  0  0  0
   36.3480   26.5330   38.7560 C   0  0  0  0  0  0  0  0  0  0  0  0
   37.3970   27.0370   39.5330 N   0  0  0  0  0  0  0  0  0  0  0  0
   37.9540   26.3650   40.0940 H   0  0  0  0  0  0  0  0  0  0  0  0
   42.0740   34.3510   39.9610 C   0  0  0  0  0  0  0  0  0  0  0  0
   42.8170   34.3550   38.9440 O   0  0  0  0  0  0  0  0  0  0  0  0
   42.5800   35.9570   41.8430 C   0  0  0  0  0  0  0  0  0  0  0  0
   42.7900   34.7370   41.1850 C   0  0  0  0  0  0  0  0  0  0  0  0
   43.7070   33.8720   41.7220 C   0  0  0  0  0  0  0  0  0  0  0  0
   44.4440   34.1160   42.8750 C   0  0  0  0  0  0  0  0  0  0  0  0
   45.3690   33.4160   43.5540 N   0  0  0  0  0  0  0  0  0  0  0  0
   45.7590   34.1360   44.6170 C   0  0  0  0  0  0  0  0  0  0  0  0
   45.0540   35.3370   44.6090 C   0  0  0  0  0  0  0  0  0  0  0  0
   44.2170   35.3270   43.5050 C   0  0  0  0  0  0  0  0  0  0  0  0
   43.3070   36.2200   42.9960 C   0  0  0  0  0  0  0  0  0  0  0  0
   41.8620   36.6080   41.4020 H   0  0  0  0  0  0  0  0  0  0  0  0
   43.9450   32.8890   41.2810 H   0  0  0  0  0  0  0  0  0  0  0  0
   45.7400   32.4800   43.3230 H   0  0  0  0  0  0  0  0  0  0  0  0
   46.4790   33.9220   45.3970 H   0  0  0  0  0  0  0  0  0  0  0  0
   45.0880   36.1820   45.3020 H   0  0  0  0  0  0  0  0  0  0  0  0
   43.1250   37.1690   43.4840 H   0  0  0  0  0  0  0  0  0  0  0  0
  1  2  1  0  0  0  0
  2  3  2  0  0  0  0
  2  7  1  0  0  0  0
  3  8  1  0  0  0  0
  4  3  1  0  0  0  0
  5  4  2  0  0  0  0
  6  5  1  0  0  0  0
  6  1  2  0  0  0  0
  9  5  1  0  0  0  0
  9 10  1  0  0  0  0
 10 11  1  0  0  0  0
 12 10  2  0  0  0  0
 12 13  1  0  0  0  0
 14 12  1  0  0  0  0
 15 16  1  0  0  0  0
 15 14  2  0  0  0  0
 16  9  2  0  0  0  0
 17 16  1  0  0  0  0
 18 19  1  0  0  0  0
 18 15  1  0  0  0  0
 19 28  1  0  0  0  0
 20 22  1  0  0  0  0
 20 19  2  0  0  0  0
 21 20  1  0  0  0  0
 22 24  2  0  0  0  0
 23 22  1  0  0  0  0
 24 25  1  0  0  0  0
 24 26  1  0  0  0  0
 26 27  1  0  0  0  0
 28 26  2  0  0  0  0
 28 29  1  0  0  0  0
 29 14  1  0  0  0  0
 29 30  1  0  0  0  0
 31  1  1  0  0  0  0
 31 34  1  0  0  0  0
 32 31  2  0  0  0  0
 33 41  1  0  0  0  0
 34 35  1  0  0  0  0
 34 33  2  0  0  0  0
 35 36  2  0  0  0  0
 36 40  1  0  0  0  0
 36 37  1  0  0  0  0
 37 38  1  0  0  0  0
 38 45  1  0  0  0  0
 39 38  2  0  0  0  0
 39 46  1  0  0  0  0
 40 39  1  0  0  0  0
 41 47  1  0  0  0  0
 41 40  2  0  0  0  0
 42 33  1  0  0  0  0
 43 35  1  0  0  0  0
 44 37  1  0  0  0  0
M  END
>  <minimizedAffinity>
-6.96849298

$$$$

 OpenBabel03242512393D

 47 52  0  0  0  0  0  0  0  0999 V2000
   37.6480   30.5410   39.4780 C   0  0  0  0  0  0  0  0  0  0  0  0
   36.8480   31.2850   40.3580 C   0  0  0  0  0  0  0  0  0  0  0  0
   36.2020   30.5550   41.3710 C   0  0  0  0  0  0  0  0  0  0  0  0
   36.3870   29.1980   41.4360 N   0  0  0  0  0  0  0  0  0  0  0  0
   37.1660   28.5570   40.5590 C   0  0  0  0  0  0  0  0  0  0  0  0
   37.7990   29.2320   39.5750 N   0  0  0  0  0  0  0  0  0  0  0  0
   36.6630   32.3320   40.3620 H   0  0  0  0  0  0  0  0  0  0  0  0
   35.5630   31.0420   42.0980 H   0  0  0  0  0  0  0  0  0  0  0  0
   37.3500   27.1140   40.6450 C   0  0  0  0  0  0  0  0  0  0  0  0
   37.0970   26.4420   41.8230 C   0  0  0  0  0  0  0  0  0  0  0  0
   36.7590   27.0130   42.6770 H   0  0  0  0  0  0  0  0  0  0  0  0
   37.2780   25.0790   41.8820 C   0  0  0  0  0  0  0  0  0  0  0  0
   37.0520   24.6390   42.8560 H   0  0  0  0  0  0  0  0  0  0  0  0
   37.7060   24.3080   40.8230 C   0  0  0  0  0  0  0  0  0  0  0  0
   37.9510   24.9860   39.6700 C   0  0  0  0  0  0  0  0  0  0  0  0
   37.7780   26.3410   39.5860 C   0  0  0  0  0  0  0  0  0  0  0  0
   37.9840   26.8580   38.6430 H   0  0  0  0  0  0  0  0  0  0  0  0
   38.5070   24.0530   38.2580 S   0  0  0  0  0  0  0  0  0  0  0  0
   38.6010   22.3500   38.7760 C   0  0  0  0  0  0  0  0  0  0  0  0
   39.0110   21.4320   37.8460 C   0  0  0  0  0  0  0  0  0  0  0  0
   39.2680   21.7310   36.8420 H   0  0  0  0  0  0  0  0  0  0  0  0
   39.1030   20.1070   38.1840 C   0  0  0  0  0  0  0  0  0  0  0  0
   39.4180   19.3400   37.5020 H   0  0  0  0  0  0  0  0  0  0  0  0
   38.7760   19.7250   39.4680 C   0  0  0  0  0  0  0  0  0  0  0  0
   38.8430   18.7020   39.7450 H   0  0  0  0  0  0  0  0  0  0  0  0
   38.3710   20.7060   40.3490 C   0  0  0  0  0  0  0  0  0  0  0  0
   38.1260   20.3330   41.3540 H   0  0  0  0  0  0  0  0  0  0  0  0
   38.2580   22.0520   40.0710 C   0  0  0  0  0  0  0  0  0  0  0  0
   37.8310   22.9260   41.0770 N   0  0  0  0  0  0  0  0  0  0  0  0
   37.6120   22.5260   42.0080 H   0  0  0  0  0  0  0  0  0  0  0  0
   38.2990   31.2920   38.4540 C   0  0  0  0  0  0  0  0  0  0  0  0
   37.8860   31.4780   37.2780 O   0  0  0  0  0  0  0  0  0  0  0  0
   40.1730   32.0180   39.9820 C   0  0  0  0  0  0  0  0  0  0  0  0
   39.5870   31.9500   38.7100 C   0  0  0  0  0  0  0  0  0  0  0  0
   40.2610   32.5260   37.6660 C   0  0  0  0  0  0  0  0  0  0  0  0
   41.4870   33.1730   37.7750 C   0  0  0  0  0  0  0  0  0  0  0  0
   42.2960   33.7880   36.8960 N   0  0  0  0  0  0  0  0  0  0  0  0
   43.3750   34.2460   37.5510 C   0  0  0  0  0  0  0  0  0  0  0  0
   43.2400   33.9080   38.8950 C   0  0  0  0  0  0  0  0  0  0  0  0
   42.0430   33.2260   39.0410 C   0  0  0  0  0  0  0  0  0  0  0  0
   41.3980   32.6600   40.1130 C   0  0  0  0  0  0  0  0  0  0  0  0
   39.6260   31.5620   40.7740 H   0  0  0  0  0  0  0  0  0  0  0  0
   39.8860   32.5270   36.6280 H   0  0  0  0  0  0  0  0  0  0  0  0
   42.1440   33.9060   35.8810 H   0  0  0  0  0  0  0  0  0  0  0  0
   44.2430   34.7880   37.2010 H   0  0  0  0  0  0  0  0  0  0  0  0
   43.9030   34.1010   39.7430 H   0  0  0  0  0  0  0  0  0  0  0  0
   41.8270   32.6980   41.1050 H   0  0  0  0  0  0  0  0  0  0  0  0
  1  6  2  0  0  0  0
  1  2  1  0  0  0  0
  2  7  1  0  0  0  0
  2  3  2  0  0  0  0
  3  4  1  0  0  0  0
  3  8  1  0  0  0  0
  5  9  1  0  0  0  0
  5  4  2  0  0  0  0
  6  5  1  0  0  0  0
  9 10  1  0  0  0  0
 10 12  2  0  0  0  0
 10 11  1  0  0  0  0
 12 13  1  0  0  0  0
 14 29  1  0  0  0  0
 14 12  1  0  0  0  0
 15 14  2  0  0  0  0
 16 15  1  0  0  0  0
 16  9  2  0  0  0  0
 17 16  1  0  0  0  0
 18 19  1  0  0  0  0
 18 15  1  0  0  0  0
 19 28  1  0  0  0  0
 20 22  1  0  0  0  0
 20 19  2  0  0  0  0
 21 20  1  0  0  0  0
 22 24  2  0  0  0  0
 23 22  1  0  0  0  0
 24 25  1  0  0  0  0
 24 26  1  0  0  0  0
 26 27  1  0  0  0  0
 28 26  2  0  0  0  0
 28 29  1  0  0  0  0
 29 30  1  0  0  0  0
 31 34  1  0  0  0  0
 31  1  1  0  0  0  0
 32 31  2  0  0  0  0
 33 41  1  0  0  0  0
 33 42  1  0  0  0  0
 34 33  2  0  0  0  0
 35 36  2  0  0  0  0
 35 34  1  0  0  0  0
 36 40  1  0  0  0  0
 37 38  1  0  0  0  0
 37 36  1  0  0  0  0
 38 39  2  0  0  0  0
 39 40  1  0  0  0  0
 39 46  1  0  0  0  0
 40 41  2  0  0  0  0
 41 47  1  0  0  0  0
 43 35  1  0  0  0  0
 44 37  1  0  0  0  0
 45 38  1  0  0  0  0
M  END
>  <minimizedAffinity>
-6.94736958

$$$$
