REMARK  Name = 
REMARK  3 active torsions:
REMARK  status: ('A' for Active; 'I' for Inactive)
REMARK    1  A    between atoms: C_3  and  C_7
REMARK    2  A    between atoms: C_5  and  C_11
REMARK    3  A    between atoms: C_11  and  C_15
REMARK                            x       y       z     vdW  Elec       q    Type
REMARK                         _______ _______ _______ _____ _____    ______ ____
ROOT
ATOM      1  C   UNL     1      46.873  32.147  46.547  0.00  0.00    +0.000 A 
ATOM      2  C   UNL     1      47.844  32.004  45.581  0.00  0.00    +0.000 A 
ATOM      3  H   UNL     1      47.902  32.617  44.696  0.00  0.00    +0.000 HD
ATOM      4  C   UNL     1      48.851  31.056  45.663  0.00  0.00    +0.000 A 
ATOM      5  H   UNL     1      49.601  30.985  44.857  0.00  0.00    +0.000 HD
ATOM      6  C   UNL     1      48.947  30.180  46.739  0.00  0.00    +0.000 A 
ATOM      7  C   UNL     1      47.965  30.346  47.687  0.00  0.00    +0.000 A 
ATOM      8  C   UNL     1      46.987  31.269  47.602  0.00  0.00    +0.000 A 
ATOM      9  H   UNL     1      46.219  31.360  48.384  0.00  0.00    +0.000 HD
ATOM     10  S   UNL     1      47.977  29.285  49.119  0.00  0.00    +0.000 S 
ATOM     11  C   UNL     1      49.395  28.227  48.919  0.00  0.00    +0.000 A 
ATOM     12  C   UNL     1      49.623  27.335  49.915  0.00  0.00    +0.000 A 
ATOM     13  H   UNL     1      48.983  27.262  50.789  0.00  0.00    +0.000 HD
ATOM     14  C   UNL     1      50.728  26.500  49.774  0.00  0.00    +0.000 A 
ATOM     15  H   UNL     1      50.936  25.777  50.545  0.00  0.00    +0.000 HD
ATOM     16  C   UNL     1      51.580  26.543  48.682  0.00  0.00    +0.000 A 
ATOM     17  H   UNL     1      52.427  25.896  48.573  0.00  0.00    +0.000 HD
ATOM     18  C   UNL     1      51.267  27.490  47.711  0.00  0.00    +0.000 A 
ATOM     19  H   UNL     1      51.957  27.507  46.853  0.00  0.00    +0.000 HD
ATOM     20  C   UNL     1      50.186  28.338  47.808  0.00  0.00    +0.000 A 
ATOM     21  N   UNL     1      49.998  29.248  46.768  0.00  0.00    +0.000 N 
ATOM     22  H   UNL     1      50.663  29.249  45.965  0.00  0.00    +0.000 HD
ENDROOT
BRANCH   1  23
ATOM     23  C   UNL     1      45.825  33.151  46.449  0.00  0.00    +0.000 C 
ATOM     24  O   UNL     1      45.030  33.186  47.433  0.00  0.00    +0.000 OA
BRANCH  23  29
ATOM     25  C   UNL     1      44.598  35.929  44.425  0.00  0.00    +0.000 A 
ATOM     26  C   UNL     1      45.332  35.856  43.221  0.00  0.00    +0.000 A 
ATOM     27  C   UNL     1      46.250  34.819  43.142  0.00  0.00    +0.000 A 
ATOM     28  N   UNL     1      46.349  34.002  44.195  0.00  0.00    +0.000 NA
ATOM     29  C   UNL     1      45.660  34.064  45.335  0.00  0.00    +0.000 A 
ATOM     30  N   UNL     1      44.758  35.065  45.439  0.00  0.00    +0.000 NA
ATOM     31  H   UNL     1      43.875  36.733  44.513  0.00  0.00    +0.000 HD
ATOM     32  H   UNL     1      45.213  36.542  42.409  0.00  0.00    +0.000 HD
BRANCH  27  33
ATOM     33  C   UNL     1      47.032  34.721  41.903  0.00  0.00    +0.000 C 
ATOM     34  F   UNL     1      47.845  33.601  41.946  0.00  0.00    +0.000 F 
ATOM     35  F   UNL     1      47.907  35.821  41.910  0.00  0.00    +0.000 F 
ATOM     36  F   UNL     1      46.269  34.684  40.784  0.00  0.00    +0.000 F 
ENDBRANCH  27  33
ENDBRANCH  23  29
ENDBRANCH   1  23
TORSDOF 3
