
 OpenBabel03252503093D

 40 44  0  0  1  0  0  0  0  0999 V2000
   45.9810   34.1130   40.5650 C   0  0  0  0  0  0  0  0  0  0  0  0
   44.6040   34.1980   40.5590 C   0  0  0  0  0  0  0  0  0  0  0  0
   44.0750   34.7560   41.3450 H   0  0  0  0  0  0  0  0  0  0  0  0
   43.8160   33.6060   39.6100 C   0  0  0  0  0  0  0  0  0  0  0  0
   42.7500   33.7000   39.6540 H   0  0  0  0  0  0  0  0  0  0  0  0
   44.4510   32.8770   38.5940 C   0  0  0  0  0  0  0  0  0  0  0  0
   45.8230   32.7910   38.5940 C   0  0  0  0  0  0  0  0  0  0  0  0
   46.5500   33.4040   39.5660 C   0  0  0  0  0  0  0  0  0  0  0  0
   47.6320   33.3830   39.6320 H   0  0  0  0  0  0  0  0  0  0  0  0
   46.6650   31.8810   37.3170 S   0  0  0  0  0  0  0  0  0  0  0  0
   45.3890   31.1420   36.3150 C   0  0  0  0  0  0  0  0  0  0  0  0
   45.7210   30.3160   35.2980 C   0  0  0  0  0  0  0  0  0  0  0  0
   46.7900   30.1320   35.1200 H   0  0  0  0  0  0  0  0  0  0  0  0
   44.8050   29.7070   34.4760 C   0  0  0  0  0  0  0  0  0  0  0  0
   45.1430   29.0630   33.6820 H   0  0  0  0  0  0  0  0  0  0  0  0
   43.4600   29.9950   34.7590 C   0  0  0  0  0  0  0  0  0  0  0  0
   42.7150   29.5340   34.1330 H   0  0  0  0  0  0  0  0  0  0  0  0
   43.1330   30.8450   35.8050 C   0  0  0  0  0  0  0  0  0  0  0  0
   42.0790   30.9890   35.9250 H   0  0  0  0  0  0  0  0  0  0  0  0
   44.1180   31.4520   36.6280 C   0  0  0  0  0  0  0  0  0  0  0  0
   43.6170   32.2430   37.6580 N   0  0  0  0  0  0  0  0  0  0  0  0
   42.5670   32.3800   37.7480 H   0  0  0  0  0  0  0  0  0  0  0  0
   46.6580   34.8170   41.7090 C   0  0  1  0  0  3  0  0  0  0  0  0
   47.8430   35.3340   41.6490 O   0  0  0  0  0  1  0  0  0  0  0  0
   45.3640   36.1930   43.2350 C   0  0  0  0  0  0  0  0  0  0  0  0
   45.9960   34.9610   42.9580 C   0  0  0  0  0  0  0  0  0  0  0  0
   45.8790   33.9940   43.9350 C   0  0  0  0  0  0  0  0  0  0  0  0
   45.2020   34.2150   45.0770 N   0  0  0  0  0  0  0  0  0  0  0  0
   44.6070   35.4140   45.3100 C   0  0  0  0  0  0  0  0  0  0  0  0
   44.6960   36.3940   44.3780 N   0  0  0  0  0  0  0  0  0  0  0  0
   45.4230   36.9890   42.5070 H   0  0  0  0  0  0  0  0  0  0  0  0
   44.0840   35.4890   46.2660 H   0  0  0  0  0  0  0  0  0  0  0  0
   46.4930   32.7630   43.7300 C   0  0  0  0  0  0  0  0  0  0  0  0
   47.7780   32.2890   43.8870 C   0  0  0  0  0  0  0  0  0  0  0  0
   48.1020   31.0370   43.6120 C   0  0  0  0  0  0  0  0  0  0  0  0
   47.1040   30.2000   43.1570 C   0  0  0  0  0  0  0  0  0  0  0  0
   45.6200   31.3230   43.1380 S   0  0  0  0  0  0  0  0  0  0  0  0
   48.6480   32.7670   44.2650 H   0  0  0  0  0  0  0  0  0  0  0  0
   48.9600   30.3960   43.6260 H   0  0  0  0  0  0  0  0  0  0  0  0
   46.8800   29.1910   42.8280 H   0  0  0  0  0  0  0  0  0  0  0  0
  1 23  1  0  0  0  0
  2  1  1  0  0  0  0
  2  3  1  0  0  0  0
  4  5  1  0  0  0  0
  4  2  2  0  0  0  0
  6  4  1  0  0  0  0
  7  6  2  0  0  0  0
  7  8  1  0  0  0  0
  8  9  1  0  0  0  0
  8  1  2  0  0  0  0
 10  7  1  0  0  0  0
 11 20  1  0  0  0  0
 11 10  1  0  0  0  0
 12 11  2  0  0  0  0
 13 12  1  0  0  0  0
 14 16  2  0  0  0  0
 14 12  1  0  0  0  0
 15 14  1  0  0  0  0
 16 18  1  0  0  0  0
 17 16  1  0  0  0  0
 18 19  1  0  0  0  0
 18 20  2  0  0  0  0
 20 21  1  0  0  0  0
 21 22  1  0  0  0  0
 21  6  1  0  0  0  0
 23 24  1  6  0  0  0
 23 26  1  0  0  0  0
 25 30  1  0  0  0  0
 26 25  2  0  0  0  0
 26 27  1  0  0  0  0
 27 28  2  0  0  0  0
 28 29  1  0  0  0  0
 29 32  1  0  0  0  0
 30 29  2  0  0  0  0
 31 25  1  0  0  0  0
 33 34  2  0  0  0  0
 33 27  1  0  0  0  0
 34 38  1  0  0  0  0
 35 39  1  0  0  0  0
 35 34  1  0  0  0  0
 36 35  2  0  0  0  0
 37 36  1  0  0  0  0
 37 33  1  0  0  0  0
 40 36  1  0  0  0  0
M  END
>  <minimizedAffinity>
-5.56105089

>  <minimizedRMSD>
1.59775591

$$$$
