
     RDKit          3D

 38 41  0  0  0  0  0  0  0  0999 V2000
   47.0905   34.3884   43.0922 C   0  0  0  0  0  0  0  0  0  0  0  0
   45.7782   34.5960   43.5015 C   0  0  0  0  0  0  0  0  0  0  0  0
   45.2592   33.7602   44.5008 C   0  0  0  0  0  0  0  0  0  0  0  0
   46.0579   32.7950   45.0169 N   0  0  0  0  0  0  0  0  0  0  0  0
   47.3229   32.6281   44.5922 C   0  0  0  0  0  0  0  0  0  0  0  0
   47.8468   33.4145   43.6358 N   0  0  0  0  0  0  0  0  0  0  0  0
   44.9810   35.6797   42.8764 C   0  0  0  0  0  0  0  0  0  0  0  0
   45.6184   36.9015   43.0599 F   0  0  0  0  0  0  0  0  0  0  0  0
   44.9553   35.4665   41.5091 F   0  0  0  0  0  0  0  0  0  0  0  0
   43.7212   35.8125   43.3485 F   0  0  0  0  0  0  0  0  0  0  0  0
   47.5802   35.1962   42.1320 O   0  0  0  0  0  0  0  0  0  0  0  0
   48.8746   35.1915   41.5733 C   0  0  0  0  0  0  0  0  0  0  0  0
   49.7634   35.4905   42.6073 F   0  0  0  0  0  0  0  0  0  0  0  0
   49.1289   33.9726   41.0055 F   0  0  0  0  0  0  0  0  0  0  0  0
   49.0104   36.2249   40.6775 F   0  0  0  0  0  0  0  0  0  0  0  0
   44.2347   33.9120   44.8296 H   0  0  0  0  0  0  0  0  0  0  0  0
   48.1275   31.5694   45.1910 C   0  0  0  0  0  0  0  0  0  0  0  0
   49.4972   31.6821   45.3034 C   0  0  0  0  0  0  0  0  0  0  0  0
   49.9848   32.5613   44.9460 H   0  0  0  0  0  0  0  0  0  0  0  0
   50.1944   30.6415   45.8807 C   0  0  0  0  0  0  0  0  0  0  0  0
   51.2826   30.8034   45.9356 H   0  0  0  0  0  0  0  0  0  0  0  0
   49.6366   29.4776   46.3645 C   0  0  0  0  0  0  0  0  0  0  0  0
   48.2731   29.4215   46.2261 C   0  0  0  0  0  0  0  0  0  0  0  0
   47.5366   30.4262   45.6610 C   0  0  0  0  0  0  0  0  0  0  0  0
   46.4513   30.3256   45.5773 H   0  0  0  0  0  0  0  0  0  0  0  0
   47.4325   27.9659   46.8138 S   0  0  0  0  0  0  0  0  0  0  0  0
   48.6794   26.8839   47.4773 C   0  0  0  0  0  0  0  0  0  0  0  0
   48.3399   25.6713   48.0107 C   0  0  0  0  0  0  0  0  0  0  0  0
   47.2781   25.3814   48.0194 H   0  0  0  0  0  0  0  0  0  0  0  0
   49.2510   24.7827   48.5419 C   0  0  0  0  0  0  0  0  0  0  0  0
   48.8963   23.8619   48.9351 H   0  0  0  0  0  0  0  0  0  0  0  0
   50.5682   25.1900   48.5084 C   0  0  0  0  0  0  0  0  0  0  0  0
   51.3139   24.5334   48.9096 H   0  0  0  0  0  0  0  0  0  0  0  0
   50.8920   26.4168   47.9664 C   0  0  0  0  0  0  0  0  0  0  0  0
   51.9669   26.6492   47.9864 H   0  0  0  0  0  0  0  0  0  0  0  0
   49.9817   27.3051   47.4354 C   0  0  0  0  0  0  0  0  0  0  0  0
   50.5046   28.5134   46.9262 N   0  0  0  0  0  0  0  0  0  0  0  0
   51.5108   28.7055   46.9570 H   0  0  0  0  0  0  0  0  0  0  0  0
  1  2  2  0
  1  6  1  0
  2  3  1  0
  3  4  2  0
  5  4  1  0
  6  5  2  0
  7  8  1  0
  7 10  1  0
  7  2  1  0
  9  7  1  0
 11  1  1  0
 12 11  1  0
 12 13  1  0
 14 12  1  0
 15 12  1  0
  3 16  1  0
 17 18  2  0
 18 19  1  0
 18 20  1  0
 20 21  1  0
 20 22  2  0
 22 23  1  0
 23 24  2  0
 24 25  1  0
 23 26  1  0
 26 27  1  0
 27 28  2  0
 28 29  1  0
 28 30  1  0
 30 31  1  0
 30 32  2  0
 32 33  1  0
 32 34  1  0
 34 35  1  0
 34 36  2  0
 36 37  1  0
 37 38  1  0
 24 17  1  0
 36 27  1  0
 37 22  1  0
  5 17  1  0
M  ISO  8  16  14  19  16  21  16  25  16  29  16  31  16  33  16  35  16
M  ISO  1  38   5
M  END
>  <DihAtoms>  (1) 
3,4,16,17

>  <DihDeg>  (1) 
179.99917544483472

$$$$
