
     RDKit          3D

 37 40  0  0  0  0  0  0  0  0999 V2000
   47.8426   34.7916   42.4149 C   0  0  0  0  0  0  0  0  0  0  0  0
   48.1090   33.5675   43.0692 C   0  0  0  0  0  0  0  0  0  0  0  0
   47.1762   33.1112   44.0139 C   0  0  0  0  0  0  0  0  0  0  0  0
   46.0794   33.8708   44.2405 N   0  0  0  0  0  0  0  0  0  0  0  0
   45.8531   35.0363   43.5990 C   0  0  0  0  0  0  0  0  0  0  0  0
   46.7269   35.4849   42.6996 N   0  0  0  0  0  0  0  0  0  0  0  0
   48.8448   35.2482   41.4229 C   0  0  0  0  0  0  0  0  0  0  0  0
   48.3785   35.1687   40.1357 F   0  0  0  0  0  0  0  0  0  0  0  0
   49.1947   36.5691   41.7318 F   0  0  0  0  0  0  0  0  0  0  0  0
   50.0231   34.5123   41.5808 F   0  0  0  0  0  0  0  0  0  0  0  0
   44.6242   35.8223   43.8972 C   0  0  0  0  0  0  0  0  0  0  0  0
   43.6368   35.5799   42.9773 F   0  0  0  0  0  0  0  0  0  0  0  0
   44.9329   37.1946   43.9199 F   0  0  0  0  0  0  0  0  0  0  0  0
   44.1198   35.5475   45.1503 F   0  0  0  0  0  0  0  0  0  0  0  0
   48.9760   32.9912   42.8736 H   0  0  0  0  0  0  0  0  0  0  0  0
   47.3307   31.8705   44.7554 C   0  0  0  0  0  0  0  0  0  0  0  0
   48.5718   31.6083   45.2943 C   0  0  0  0  0  0  0  0  0  0  0  0
   49.4010   32.2814   45.1807 H   0  0  0  0  0  0  0  0  0  0  0  0
   48.7184   30.4132   46.0077 C   0  0  0  0  0  0  0  0  0  0  0  0
   49.7107   30.2508   46.4121 H   0  0  0  0  0  0  0  0  0  0  0  0
   47.7247   29.4799   46.2144 C   0  0  0  0  0  0  0  0  0  0  0  0
   46.5201   29.8163   45.6457 C   0  0  0  0  0  0  0  0  0  0  0  0
   46.3203   30.9561   44.9462 C   0  0  0  0  0  0  0  0  0  0  0  0
   45.3426   31.1502   44.5286 H   0  0  0  0  0  0  0  0  0  0  0  0
   45.1646   28.6756   45.8536 S   0  0  0  0  0  0  0  0  0  0  0  0
   45.7877   27.3160   46.8095 C   0  0  0  0  0  0  0  0  0  0  0  0
   44.9305   26.2950   47.1082 C   0  0  0  0  0  0  0  0  0  0  0  0
   43.8930   26.3300   46.7607 H   0  0  0  0  0  0  0  0  0  0  0  0
   45.3414   25.2050   47.8466 C   0  0  0  0  0  0  0  0  0  0  0  0
   44.6118   24.4342   48.0460 H   0  0  0  0  0  0  0  0  0  0  0  0
   46.6516   25.1831   48.2731 C   0  0  0  0  0  0  0  0  0  0  0  0
   46.9975   24.3389   48.8537 H   0  0  0  0  0  0  0  0  0  0  0  0
   47.4743   26.2392   47.9440 C   0  0  0  0  0  0  0  0  0  0  0  0
   48.4866   26.1431   48.3178 H   0  0  0  0  0  0  0  0  0  0  0  0
   47.0923   27.3417   47.2078 C   0  0  0  0  0  0  0  0  0  0  0  0
   48.0415   28.3319   46.9553 N   0  0  0  0  0  0  0  0  0  0  0  0
   49.0071   28.2139   47.3266 H   0  0  0  0  0  0  0  0  0  0  0  0
  1  6  2  0
  1  2  1  0
  2  3  2  0
  3  4  1  0
  5 11  1  0
  5  4  2  0
  6  5  1  0
  7 10  1  0
  7  9  1  0
  7  1  1  0
  8  7  1  0
 11 13  1  0
 11 14  1  0
 12 11  1  0
  2 15  1  0
 16 17  2  0
 17 18  1  0
 17 19  1  0
 19 20  1  0
 19 21  2  0
 21 22  1  0
 22 23  2  0
 23 24  1  0
 22 25  1  0
 25 26  1  0
 26 27  2  0
 27 28  1  0
 27 29  1  0
 29 30  1  0
 29 31  2  0
 31 32  1  0
 31 33  1  0
 33 34  1  0
 33 35  2  0
 35 36  1  0
 36 37  1  0
 23 16  1  0
 35 26  1  0
 36 21  1  0
  3 16  1  0
M  ISO  8  15  14  18  16  20  16  24  16  28  16  30  16  32  16  34  16
M  ISO  1  37   5
M  END
>  <DihAtoms>  (1) 
1,2,15,16

>  <DihDeg>  (1) 
179.99777258675522

$$$$
