
     RDKit          3D

 37 40  0  0  0  0  0  0  0  0999 V2000
   47.8426   34.7916   42.4149 C   0  0  0  0  0  0  0  0  0  0  0  0
   48.1090   33.5675   43.0692 C   0  0  0  0  0  0  0  0  0  0  0  0
   47.1762   33.1112   44.0139 C   0  0  0  0  0  0  0  0  0  0  0  0
   46.0794   33.8708   44.2405 N   0  0  0  0  0  0  0  0  0  0  0  0
   45.8531   35.0363   43.5990 C   0  0  0  0  0  0  0  0  0  0  0  0
   46.7269   35.4849   42.6996 N   0  0  0  0  0  0  0  0  0  0  0  0
   48.8448   35.2482   41.4229 C   0  0  0  0  0  0  0  0  0  0  0  0
   48.3785   35.1687   40.1357 F   0  0  0  0  0  0  0  0  0  0  0  0
   49.1947   36.5691   41.7318 F   0  0  0  0  0  0  0  0  0  0  0  0
   50.0231   34.5123   41.5808 F   0  0  0  0  0  0  0  0  0  0  0  0
   44.6242   35.8223   43.8972 C   0  0  0  0  0  0  0  0  0  0  0  0
   43.6368   35.5799   42.9773 F   0  0  0  0  0  0  0  0  0  0  0  0
   44.9329   37.1946   43.9199 F   0  0  0  0  0  0  0  0  0  0  0  0
   44.1198   35.5475   45.1503 F   0  0  0  0  0  0  0  0  0  0  0  0
   48.9760   32.9912   42.8736 H   0  0  0  0  0  0  0  0  0  0  0  0
   47.3307   31.8705   44.7554 C   0  0  0  0  0  0  0  0  0  0  0  0
   46.1792   31.2147   45.1343 C   0  0  0  0  0  0  0  0  0  0  0  0
   45.2008   31.5905   44.8997 H   0  0  0  0  0  0  0  0  0  0  0  0
   46.3303   30.0204   45.8482 C   0  0  0  0  0  0  0  0  0  0  0  0
   45.3979   29.5415   46.1238 H   0  0  0  0  0  0  0  0  0  0  0  0
   47.5341   29.4487   46.2019 C   0  0  0  0  0  0  0  0  0  0  0  0
   48.6315   30.1638   45.7872 C   0  0  0  0  0  0  0  0  0  0  0  0
   48.5462   31.3223   45.0953 C   0  0  0  0  0  0  0  0  0  0  0  0
   49.4563   31.8271   44.8040 H   0  0  0  0  0  0  0  0  0  0  0  0
   50.2409   29.5110   46.1937 S   0  0  0  0  0  0  0  0  0  0  0  0
   49.9656   28.0038   47.0897 C   0  0  0  0  0  0  0  0  0  0  0  0
   51.0573   27.3035   47.5191 C   0  0  0  0  0  0  0  0  0  0  0  0
   52.0653   27.6749   47.3083 H   0  0  0  0  0  0  0  0  0  0  0  0
   50.9234   26.1240   48.2212 C   0  0  0  0  0  0  0  0  0  0  0  0
   51.8284   25.6223   48.5302 H   0  0  0  0  0  0  0  0  0  0  0  0
   49.6450   25.6763   48.4746 C   0  0  0  0  0  0  0  0  0  0  0  0
   49.5142   24.7537   49.0234 H   0  0  0  0  0  0  0  0  0  0  0  0
   48.5784   26.4213   48.0187 C   0  0  0  0  0  0  0  0  0  0  0  0
   47.6102   25.9994   48.2600 H   0  0  0  0  0  0  0  0  0  0  0  0
   48.6809   27.6035   47.3147 C   0  0  0  0  0  0  0  0  0  0  0  0
   47.5067   28.2443   46.9200 N   0  0  0  0  0  0  0  0  0  0  0  0
   46.5896   27.8165   47.1653 H   0  0  0  0  0  0  0  0  0  0  0  0
  1  6  2  0
  1  2  1  0
  2  3  2  0
  3  4  1  0
  5 11  1  0
  5  4  2  0
  6  5  1  0
  7 10  1  0
  7  9  1  0
  7  1  1  0
  8  7  1  0
 11 13  1  0
 11 14  1  0
 12 11  1  0
  2 15  1  0
 16 17  2  0
 17 18  1  0
 17 19  1  0
 19 20  1  0
 19 21  2  0
 21 22  1  0
 22 23  2  0
 23 24  1  0
 22 25  1  0
 25 26  1  0
 26 27  2  0
 27 28  1  0
 27 29  1  0
 29 30  1  0
 29 31  2  0
 31 32  1  0
 31 33  1  0
 33 34  1  0
 33 35  2  0
 35 36  1  0
 36 37  1  0
 23 16  1  0
 35 26  1  0
 36 21  1  0
  3 16  1  0
M  ISO  8  15  14  18  16  20  16  24  16  28  16  30  16  32  16  34  16
M  ISO  1  37   5
M  END
>  <DihAtoms>  (1) 
1,2,15,16

>  <DihDeg>  (1) 
179.99777258675522

$$$$
