
     RDKit          3D

 40 44  0  0  0  0  0  0  0  0999 V2000
   45.3804   36.0756   43.1967 C   0  0  0  0  0  0  0  0  0  0  0  0
   46.1211   34.8786   43.0834 C   0  0  0  0  0  0  0  0  0  0  0  0
   46.0753   34.0399   44.1766 C   0  0  0  0  0  0  0  0  0  0  0  0
   45.3664   34.3464   45.2794 N   0  0  0  0  0  0  0  0  0  0  0  0
   44.6650   35.5069   45.3539 C   0  0  0  0  0  0  0  0  0  0  0  0
   44.6807   36.3634   44.3035 N   0  0  0  0  0  0  0  0  0  0  0  0
   46.7973   32.8516   44.1354 C   0  0  0  0  0  0  0  0  0  0  0  0
   47.7425   32.3282   43.2785 C   0  0  0  0  0  0  0  0  0  0  0  0
   48.2854   31.1393   43.4769 C   0  0  0  0  0  0  0  0  0  0  0  0
   47.8780   30.4221   44.5834 C   0  0  0  0  0  0  0  0  0  0  0  0
   46.6330   31.5664   45.3620 S   0  0  0  0  0  0  0  0  0  0  0  0
   46.8105   34.6349   41.8655 C   0  0  0  0  0  0  0  0  0  0  0  0
   47.8933   35.3226   41.6949 O   0  0  0  0  0  0  0  0  0  0  0  0
   45.3787   36.7743   42.3719 H   0  0  0  0  0  0  0  0  0  0  0  0
   44.1246   35.6581   46.2909 H   0  0  0  0  0  0  0  0  0  0  0  0
   48.2034   32.7494   42.4194 H   0  0  0  0  0  0  0  0  0  0  0  0
   49.0028   30.4864   43.0240 H   0  0  0  0  0  0  0  0  0  0  0  0
   48.0091   29.4956   45.1321 H   0  0  0  0  0  0  0  0  0  0  0  0
   46.2711   33.6423   40.8708 C   0  0  0  0  0  0  0  0  0  0  0  0
   45.7506   32.4891   41.4197 C   0  0  0  0  0  0  0  0  0  0  0  0
   45.7377   32.3442   42.5086 H   0  0  0  0  0  0  0  0  0  0  0  0
   45.2336   31.4654   40.6729 C   0  0  0  0  0  0  0  0  0  0  0  0
   44.8433   30.5887   41.1500 H   0  0  0  0  0  0  0  0  0  0  0  0
   45.2380   31.6057   39.2774 C   0  0  0  0  0  0  0  0  0  0  0  0
   45.7543   32.7552   38.7254 C   0  0  0  0  0  0  0  0  0  0  0  0
   46.2536   33.7369   39.5231 C   0  0  0  0  0  0  0  0  0  0  0  0
   46.6744   34.6685   39.1638 H   0  0  0  0  0  0  0  0  0  0  0  0
   45.7702   32.9730   36.9598 S   0  0  0  0  0  0  0  0  0  0  0  0
   45.1508   31.4512   36.2682 C   0  0  0  0  0  0  0  0  0  0  0  0
   45.1162   31.2809   34.9280 C   0  0  0  0  0  0  0  0  0  0  0  0
   45.4758   32.1086   34.3001 H   0  0  0  0  0  0  0  0  0  0  0  0
   44.6538   30.1442   34.3127 C   0  0  0  0  0  0  0  0  0  0  0  0
   44.6534   30.0807   33.2375 H   0  0  0  0  0  0  0  0  0  0  0  0
   44.2046   29.1333   35.1771 C   0  0  0  0  0  0  0  0  0  0  0  0
   43.8345   28.2281   34.7264 H   0  0  0  0  0  0  0  0  0  0  0  0
   44.2445   29.3212   36.5511 C   0  0  0  0  0  0  0  0  0  0  0  0
   43.8774   28.4827   37.1072 H   0  0  0  0  0  0  0  0  0  0  0  0
   44.7317   30.5166   37.1415 C   0  0  0  0  0  0  0  0  0  0  0  0
   44.7417   30.5231   38.5334 N   0  0  0  0  0  0  0  0  0  0  0  0
   44.3596   29.6841   39.0618 H   0  0  0  0  0  0  0  0  0  0  0  0
  1  6  2  0
  2  1  1  0
  2  3  2  0
  3  4  1  0
  4  5  2  0
  6  5  1  0
  7  3  1  0
  7 11  1  0
  8  9  1  0
  8  7  2  0
  9 10  2  0
 10 11  1  0
 12  2  1  0
 13 12  2  0
  1 14  1  0
  5 15  1  0
  8 16  1  0
  9 17  1  0
 10 18  1  0
 19 20  2  0
 20 21  1  0
 20 22  1  0
 22 23  1  0
 22 24  2  0
 24 25  1  0
 25 26  2  0
 26 27  1  0
 25 28  1  0
 28 29  1  0
 29 30  2  0
 30 31  1  0
 30 32  1  0
 32 33  1  0
 32 34  2  0
 34 35  1  0
 34 36  1  0
 36 37  1  0
 36 38  2  0
 38 39  1  0
 39 40  1  0
 26 19  1  0
 38 29  1  0
 39 24  1  0
 12 19  1  0
M  ISO  8  14  14  15  14  16  14  17  14  18  14  21  16  23  16  27  16
M  ISO  5  31  16  33  16  35  16  37  16  40   5
M  END
>  <DihAtoms>  (1) 
1,11,18,19

>  <DihDeg>  (1) 
19.611279885680464

$$$$
