
 OpenBabel03252502433D

 44 48  0  0  1  0  0  0  0  0999 V2000
   48.9010   35.1500   41.7050 C   0  0  1  0  0  0  0  0  0  0  0  0
   49.6060   34.5670   42.8260 C   0  0  0  0  0  0  0  0  0  0  0  0
   49.5880   33.9820   41.4180 C   0  0  1  0  0  0  0  0  0  0  0  0
   49.2830   36.1820   41.4470 H   0  0  0  0  0  0  0  0  0  0  0  0
   49.1620   34.0050   43.6430 H   0  0  0  0  0  0  0  0  0  0  0  0
   50.6370   34.9330   43.1130 H   0  0  0  0  0  0  0  0  0  0  0  0
   50.4290   34.2700   40.6950 H   0  0  0  0  0  0  0  0  0  0  0  0
   49.8190   32.5860   41.4340 C   0  0  0  0  0  0  0  0  0  0  0  0
   49.2310   31.6770   40.5380 C   0  0  0  0  0  0  0  0  0  0  0  0
   48.5410   32.0660   39.8010 H   0  0  0  0  0  0  0  0  0  0  0  0
   49.5510   30.3440   40.6320 C   0  0  0  0  0  0  0  0  0  0  0  0
   49.0380   29.7220   39.8860 H   0  0  0  0  0  0  0  0  0  0  0  0
   50.4370   29.8980   41.5890 C   0  0  0  0  0  0  0  0  0  0  0  0
   51.0380   30.7160   42.4810 C   0  0  0  0  0  0  0  0  0  0  0  0
   50.7060   32.0210   42.3690 C   0  0  0  0  0  0  0  0  0  0  0  0
   51.1700   32.7210   43.0720 H   0  0  0  0  0  0  0  0  0  0  0  0
   52.1590   30.0680   43.6770 S   0  0  0  0  0  0  0  0  0  0  0  0
   52.2280   28.3070   43.3750 C   0  0  0  0  0  0  0  0  0  0  0  0
   53.0610   27.6350   44.2190 C   0  0  0  0  0  0  0  0  0  0  0  0
   53.6410   28.0750   45.0040 H   0  0  0  0  0  0  0  0  0  0  0  0
   53.1830   26.2560   44.0630 C   0  0  0  0  0  0  0  0  0  0  0  0
   53.8140   25.6370   44.6780 H   0  0  0  0  0  0  0  0  0  0  0  0
   52.4610   25.6330   43.0690 C   0  0  0  0  0  0  0  0  0  0  0  0
   52.5430   24.5630   42.9340 H   0  0  0  0  0  0  0  0  0  0  0  0
   51.6570   26.3970   42.2800 C   0  0  0  0  0  0  0  0  0  0  0  0
   51.1040   25.8450   41.5020 H   0  0  0  0  0  0  0  0  0  0  0  0
   51.4740   27.7640   42.3600 C   0  0  0  0  0  0  0  0  0  0  0  0
   50.6290   28.5030   41.5150 N   0  0  0  0  0  0  0  0  0  0  0  0
   50.1510   27.8660   40.8090 H   0  0  0  0  0  0  0  0  0  0  0  0
   47.3980   35.2260   41.7160 C   0  0  0  0  0  0  0  0  0  0  0  0
   47.1690   36.1800   42.2750 H   0  0  0  0  0  0  0  0  0  0  0  0
   46.9570   35.2850   40.7210 H   0  0  0  0  0  0  0  0  0  0  0  0
   46.9950   34.0220   42.5070 C   0  0  0  0  0  0  0  0  0  0  0  0
   47.8340   33.7390   43.1660 H   0  0  0  0  0  0  0  0  0  0  0  0
   46.5650   33.2110   41.9150 H   0  0  0  0  0  0  0  0  0  0  0  0
   44.5480   35.9940   44.5600 C   0  0  0  0  0  0  0  0  0  0  0  0
   45.3520   35.5810   43.4700 C   0  0  0  0  0  0  0  0  0  0  0  0
   46.1080   34.4540   43.6250 C   0  0  0  0  0  0  0  0  0  0  0  0
   46.0610   33.7720   44.8060 N   0  0  0  0  0  0  0  0  0  0  0  0
   45.3050   34.1710   45.8140 C   0  0  0  0  0  0  0  0  0  0  0  0
   44.5520   35.2700   45.7050 N   0  0  0  0  0  0  0  0  0  0  0  0
   43.9170   36.8690   44.5420 H   0  0  0  0  0  0  0  0  0  0  0  0
   45.2320   36.2460   42.6330 H   0  0  0  0  0  0  0  0  0  0  0  0
   45.2420   33.6570   46.7670 H   0  0  0  0  0  0  0  0  0  0  0  0
  1  4  1  6  0  0  0
  1 30  1  0  0  0  0
  1  2  1  0  0  0  0
  2  6  1  0  0  0  0
  2  5  1  0  0  0  0
  3  7  1  6  0  0  0
  3  8  1  0  0  0  0
  3  1  1  0  0  0  0
  3  2  1  0  0  0  0
  8 15  1  0  0  0  0
  9 11  1  0  0  0  0
  9  8  2  0  0  0  0
 10  9  1  0  0  0  0
 11 13  2  0  0  0  0
 12 11  1  0  0  0  0
 13 14  1  0  0  0  0
 14 17  1  0  0  0  0
 15 14  2  0  0  0  0
 15 16  1  0  0  0  0
 18 17  1  0  0  0  0
 18 19  1  0  0  0  0
 19 20  1  0  0  0  0
 21 19  2  0  0  0  0
 21 22  1  0  0  0  0
 23 21  1  0  0  0  0
 24 23  1  0  0  0  0
 25 27  1  0  0  0  0
 25 23  2  0  0  0  0
 26 25  1  0  0  0  0
 27 18  2  0  0  0  0
 28 13  1  0  0  0  0
 28 27  1  0  0  0  0
 29 28  1  0  0  0  0
 30 31  1  0  0  0  0
 30 33  1  0  0  0  0
 32 30  1  0  0  0  0
 33 34  1  0  0  0  0
 33 38  1  0  0  0  0
 35 33  1  0  0  0  0
 36 41  1  0  0  0  0
 37 38  1  0  0  0  0
 37 36  2  0  0  0  0
 38 39  2  0  0  0  0
 39 40  1  0  0  0  0
 40 44  1  0  0  0  0
 41 40  2  0  0  0  0
 42 36  1  0  0  0  0
 43 37  1  0  0  0  0
M  END
>  <minimizedAffinity>
-4.72487879

>  <minimizedRMSD>
2.3564558

$$$$
