
     RDKit          3D

 38 41  0  0  0  0  0  0  0  0999 V2000
   47.0905   34.3884   43.0922 C   0  0  0  0  0  0  0  0  0  0  0  0
   45.7782   34.5960   43.5015 C   0  0  0  0  0  0  0  0  0  0  0  0
   45.2592   33.7602   44.5008 C   0  0  0  0  0  0  0  0  0  0  0  0
   46.0579   32.7950   45.0169 N   0  0  0  0  0  0  0  0  0  0  0  0
   47.3229   32.6281   44.5922 C   0  0  0  0  0  0  0  0  0  0  0  0
   47.8468   33.4145   43.6358 N   0  0  0  0  0  0  0  0  0  0  0  0
   44.9810   35.6797   42.8764 C   0  0  0  0  0  0  0  0  0  0  0  0
   45.6184   36.9015   43.0599 F   0  0  0  0  0  0  0  0  0  0  0  0
   44.9553   35.4665   41.5091 F   0  0  0  0  0  0  0  0  0  0  0  0
   43.7212   35.8125   43.3485 F   0  0  0  0  0  0  0  0  0  0  0  0
   47.5802   35.1962   42.1320 O   0  0  0  0  0  0  0  0  0  0  0  0
   48.8746   35.1915   41.5733 C   0  0  0  0  0  0  0  0  0  0  0  0
   49.7634   35.4905   42.6073 F   0  0  0  0  0  0  0  0  0  0  0  0
   49.1289   33.9726   41.0055 F   0  0  0  0  0  0  0  0  0  0  0  0
   49.0104   36.2249   40.6775 F   0  0  0  0  0  0  0  0  0  0  0  0
   44.2347   33.9120   44.8296 H   0  0  0  0  0  0  0  0  0  0  0  0
   48.1275   31.5694   45.1910 C   0  0  0  0  0  0  0  0  0  0  0  0
   47.5524   30.5625   45.9371 C   0  0  0  0  0  0  0  0  0  0  0  0
   46.4954   30.5525   46.0829 H   0  0  0  0  0  0  0  0  0  0  0  0
   48.3748   29.5938   46.4735 C   0  0  0  0  0  0  0  0  0  0  0  0
   47.8442   28.8239   47.0560 H   0  0  0  0  0  0  0  0  0  0  0  0
   49.7444   29.5396   46.3292 C   0  0  0  0  0  0  0  0  0  0  0  0
   50.2600   30.5652   45.5785 C   0  0  0  0  0  0  0  0  0  0  0  0
   49.4873   31.5491   45.0253 C   0  0  0  0  0  0  0  0  0  0  0  0
   49.9545   32.3423   44.4357 H   0  0  0  0  0  0  0  0  0  0  0  0
   52.0211   30.6073   45.3183 S   0  0  0  0  0  0  0  0  0  0  0  0
   52.7006   29.1986   46.1665 C   0  0  0  0  0  0  0  0  0  0  0  0
   54.0464   28.9561   46.1505 C   0  0  0  0  0  0  0  0  0  0  0  0
   54.6979   29.6526   45.6011 H   0  0  0  0  0  0  0  0  0  0  0  0
   54.6424   27.8860   46.7843 C   0  0  0  0  0  0  0  0  0  0  0  0
   55.6969   27.7765   46.7183 H   0  0  0  0  0  0  0  0  0  0  0  0
   53.7858   27.0418   47.4591 C   0  0  0  0  0  0  0  0  0  0  0  0
   54.2017   26.1954   47.9678 H   0  0  0  0  0  0  0  0  0  0  0  0
   52.4308   27.3023   47.4643 C   0  0  0  0  0  0  0  0  0  0  0  0
   51.8333   26.5719   48.0293 H   0  0  0  0  0  0  0  0  0  0  0  0
   51.8348   28.3716   46.8311 C   0  0  0  0  0  0  0  0  0  0  0  0
   50.4317   28.4713   46.9497 N   0  0  0  0  0  0  0  0  0  0  0  0
   49.8982   27.7770   47.4822 H   0  0  0  0  0  0  0  0  0  0  0  0
  1  2  2  0
  1  6  1  0
  2  3  1  0
  3  4  2  0
  5  4  1  0
  6  5  2  0
  7  8  1  0
  7 10  1  0
  7  2  1  0
  9  7  1  0
 11  1  1  0
 12 11  1  0
 12 13  1  0
 14 12  1  0
 15 12  1  0
  3 16  1  0
 17 18  2  0
 18 19  1  0
 18 20  1  0
 20 21  1  0
 20 22  2  0
 22 23  1  0
 23 24  2  0
 24 25  1  0
 23 26  1  0
 26 27  1  0
 27 28  2  0
 28 29  1  0
 28 30  1  0
 30 31  1  0
 30 32  2  0
 32 33  1  0
 32 34  1  0
 34 35  1  0
 34 36  2  0
 36 37  1  0
 37 38  1  0
 24 17  1  0
 36 27  1  0
 37 22  1  0
  5 17  1  0
M  ISO  8  16  14  19  16  21  16  25  16  29  16  31  16  33  16  35  16
M  ISO  1  38   5
M  END
>  <DihAtoms>  (1) 
3,4,16,17

>  <DihDeg>  (1) 
179.99917544483472

$$$$
