
     RDKit          3D

 36 39  0  0  0  0  0  0  0  0999 V2000
   44.5977   35.9289   44.4246 C   0  0  0  0  0  0  0  0  0  0  0  0
   45.3323   35.8560   43.2209 C   0  0  0  0  0  0  0  0  0  0  0  0
   46.2502   34.8187   43.1423 C   0  0  0  0  0  0  0  0  0  0  0  0
   46.3490   34.0025   44.1953 N   0  0  0  0  0  0  0  0  0  0  0  0
   45.6595   34.0639   45.3346 C   0  0  0  0  0  0  0  0  0  0  0  0
   44.7578   35.0646   45.4386 N   0  0  0  0  0  0  0  0  0  0  0  0
   47.0320   34.7212   41.9032 C   0  0  0  0  0  0  0  0  0  0  0  0
   47.8453   33.6009   41.9458 F   0  0  0  0  0  0  0  0  0  0  0  0
   47.9067   35.8213   41.9105 F   0  0  0  0  0  0  0  0  0  0  0  0
   46.2685   34.6836   40.7844 F   0  0  0  0  0  0  0  0  0  0  0  0
   45.8249   33.1509   46.4486 C   0  0  0  0  0  0  0  0  0  0  0  0
   45.0299   33.1856   47.4332 O   0  0  0  0  0  0  0  0  0  0  0  0
   43.8751   36.7327   44.5126 H   0  0  0  0  0  0  0  0  0  0  0  0
   45.2126   36.5419   42.4089 H   0  0  0  0  0  0  0  0  0  0  0  0
   46.8732   32.1473   46.5470 C   0  0  0  0  0  0  0  0  0  0  0  0
   47.7665   32.1196   47.5953 C   0  0  0  0  0  0  0  0  0  0  0  0
   47.7532   32.8254   48.4094 H   0  0  0  0  0  0  0  0  0  0  0  0
   48.7667   31.1683   47.7050 C   0  0  0  0  0  0  0  0  0  0  0  0
   49.4560   31.1971   48.5657 H   0  0  0  0  0  0  0  0  0  0  0  0
   48.9337   30.1676   46.7524 C   0  0  0  0  0  0  0  0  0  0  0  0
   48.0285   30.2201   45.7188 C   0  0  0  0  0  0  0  0  0  0  0  0
   47.0584   31.1484   45.6166 C   0  0  0  0  0  0  0  0  0  0  0  0
   46.3603   31.1533   44.7663 H   0  0  0  0  0  0  0  0  0  0  0  0
   48.1353   28.9910   44.4324 S   0  0  0  0  0  0  0  0  0  0  0  0
   49.4866   27.9282   44.8966 C   0  0  0  0  0  0  0  0  0  0  0  0
   49.7457   26.8890   44.0638 C   0  0  0  0  0  0  0  0  0  0  0  0
   49.1674   26.7071   43.1637 H   0  0  0  0  0  0  0  0  0  0  0  0
   50.8002   26.0495   44.4113 C   0  0  0  0  0  0  0  0  0  0  0  0
   51.0347   25.2165   43.7705 H   0  0  0  0  0  0  0  0  0  0  0  0
   51.5751   26.2304   45.5453 C   0  0  0  0  0  0  0  0  0  0  0  0
   52.3890   25.5856   45.8087 H   0  0  0  0  0  0  0  0  0  0  0  0
   51.2361   27.3226   46.3392 C   0  0  0  0  0  0  0  0  0  0  0  0
   51.8642   27.4478   47.2344 H   0  0  0  0  0  0  0  0  0  0  0  0
   50.2008   28.1796   46.0357 C   0  0  0  0  0  0  0  0  0  0  0  0
   49.9618   29.2262   46.9271 N   0  0  0  0  0  0  0  0  0  0  0  0
   50.5676   29.3261   47.7699 H   0  0  0  0  0  0  0  0  0  0  0  0
  1  6  2  0
  2  1  1  0
  3  2  2  0
  3  4  1  0
  4  5  2  0
  5  6  1  0
  5 11  1  0
  7  8  1  0
  7  3  1  0
  9  7  1  0
 10  7  1  0
 11 12  2  0
  1 13  1  0
  2 14  1  0
 15 16  2  0
 16 17  1  0
 16 18  1  0
 18 19  1  0
 18 20  2  0
 20 21  1  0
 21 22  2  0
 22 23  1  0
 21 24  1  0
 24 25  1  0
 25 26  2  0
 26 27  1  0
 26 28  1  0
 28 29  1  0
 28 30  2  0
 30 31  1  0
 30 32  1  0
 32 33  1  0
 32 34  2  0
 34 35  1  0
 35 36  1  0
 22 15  1  0
 34 25  1  0
 35 20  1  0
 11 15  1  0
M  ISO  8  13  14  14  14  17  16  19  16  23  16  27  16  29  16  31  16
M  ISO  2  33  16  36   5
M  END
>  <DihAtoms>  (1) 
4,10,14,15

>  <DihDeg>  (1) 
16.95244225262003

$$$$
