
 OpenBabel03252503093D

 40 44  0  0  1  0  0  0  0  0999 V2000
   46.6700   34.1600   40.5560 C   0  0  0  0  0  0  0  0  0  0  0  0
   47.5870   34.1100   39.5270 C   0  0  0  0  0  0  0  0  0  0  0  0
   48.5660   34.5980   39.6270 H   0  0  0  0  0  0  0  0  0  0  0  0
   47.3520   33.4740   38.3380 C   0  0  0  0  0  0  0  0  0  0  0  0
   48.0990   33.4670   37.5700 H   0  0  0  0  0  0  0  0  0  0  0  0
   46.1100   32.8450   38.1660 C   0  0  0  0  0  0  0  0  0  0  0  0
   45.1930   32.8910   39.1900 C   0  0  0  0  0  0  0  0  0  0  0  0
   45.4880   33.5390   40.3490 C   0  0  0  0  0  0  0  0  0  0  0  0
   44.8200   33.6170   41.1980 H   0  0  0  0  0  0  0  0  0  0  0  0
   43.6100   32.0980   39.0120 S   0  0  0  0  0  0  0  0  0  0  0  0
   43.5570   31.4690   37.3460 C   0  0  0  0  0  0  0  0  0  0  0  0
   42.4360   30.8750   36.8810 C   0  0  0  0  0  0  0  0  0  0  0  0
   41.5790   30.7970   37.5670 H   0  0  0  0  0  0  0  0  0  0  0  0
   42.3090   30.3620   35.6140 C   0  0  0  0  0  0  0  0  0  0  0  0
   41.3840   29.8990   35.3150 H   0  0  0  0  0  0  0  0  0  0  0  0
   43.4430   30.4920   34.7970 C   0  0  0  0  0  0  0  0  0  0  0  0
   43.3780   30.1000   33.7970 H   0  0  0  0  0  0  0  0  0  0  0  0
   44.5890   31.1030   35.2870 C   0  0  0  0  0  0  0  0  0  0  0  0
   45.3880   31.1460   34.5740 H   0  0  0  0  0  0  0  0  0  0  0  0
   44.6720   31.6190   36.6060 C   0  0  0  0  0  0  0  0  0  0  0  0
   45.8780   32.2370   36.9210 N   0  0  0  0  0  0  0  0  0  0  0  0
   46.6600   32.2540   36.2020 H   0  0  0  0  0  0  0  0  0  0  0  0
   47.1150   34.9290   41.7700 C   0  0  1  0  0  3  0  0  0  0  0  0
   48.2400   35.5630   41.8600 O   0  0  0  0  0  1  0  0  0  0  0  0
   45.5770   36.2060   43.1480 C   0  0  0  0  0  0  0  0  0  0  0  0
   46.2830   35.0050   42.9190 C   0  0  0  0  0  0  0  0  0  0  0  0
   46.0640   33.9980   43.8360 C   0  0  0  0  0  0  0  0  0  0  0  0
   45.2290   34.1550   44.8800 N   0  0  0  0  0  0  0  0  0  0  0  0
   44.5670   35.3250   45.0690 C   0  0  0  0  0  0  0  0  0  0  0  0
   44.7510   36.3440   44.1930 N   0  0  0  0  0  0  0  0  0  0  0  0
   45.7090   37.0320   42.4630 H   0  0  0  0  0  0  0  0  0  0  0  0
   43.9150   35.3480   45.9450 H   0  0  0  0  0  0  0  0  0  0  0  0
   46.7420   32.7940   43.6760 C   0  0  0  0  0  0  0  0  0  0  0  0
   48.0720   32.4340   43.6420 C   0  0  0  0  0  0  0  0  0  0  0  0
   48.4550   31.1800   43.4720 C   0  0  0  0  0  0  0  0  0  0  0  0
   47.4730   30.2210   43.3300 C   0  0  0  0  0  0  0  0  0  0  0  0
   45.9130   31.2290   43.4540 S   0  0  0  0  0  0  0  0  0  0  0  0
   48.9490   33.0180   43.7780 H   0  0  0  0  0  0  0  0  0  0  0  0
   49.3570   30.6060   43.4020 H   0  0  0  0  0  0  0  0  0  0  0  0
   47.2880   29.1630   43.1830 H   0  0  0  0  0  0  0  0  0  0  0  0
  1 23  1  0  0  0  0
  2  3  1  0  0  0  0
  2  1  2  0  0  0  0
  4  2  1  0  0  0  0
  5  4  1  0  0  0  0
  6  4  2  0  0  0  0
  6  7  1  0  0  0  0
  7  8  2  0  0  0  0
  8  1  1  0  0  0  0
  8  9  1  0  0  0  0
 10  7  1  0  0  0  0
 11 10  1  0  0  0  0
 12 11  1  0  0  0  0
 12 13  1  0  0  0  0
 14 12  2  0  0  0  0
 15 14  1  0  0  0  0
 16 18  2  0  0  0  0
 16 14  1  0  0  0  0
 17 16  1  0  0  0  0
 18 20  1  0  0  0  0
 19 18  1  0  0  0  0
 20 21  1  0  0  0  0
 20 11  2  0  0  0  0
 21  6  1  0  0  0  0
 22 21  1  0  0  0  0
 23 24  1  6  0  0  0
 23 26  1  0  0  0  0
 25 30  1  0  0  0  0
 26 25  2  0  0  0  0
 26 27  1  0  0  0  0
 27 28  2  0  0  0  0
 28 29  1  0  0  0  0
 29 32  1  0  0  0  0
 30 29  2  0  0  0  0
 31 25  1  0  0  0  0
 33 27  1  0  0  0  0
 34 33  2  0  0  0  0
 34 38  1  0  0  0  0
 35 34  1  0  0  0  0
 36 37  1  0  0  0  0
 36 35  2  0  0  0  0
 37 33  1  0  0  0  0
 39 35  1  0  0  0  0
 40 36  1  0  0  0  0
M  END
>  <minimizedAffinity>
-5.66263103

>  <minimizedRMSD>
1.17856216

$$$$
