
     RDKit          3D

 38 41  0  0  0  0  0  0  0  0999 V2000
   47.0905   34.3884   43.0922 C   0  0  0  0  0  0  0  0  0  0  0  0
   45.7782   34.5960   43.5015 C   0  0  0  0  0  0  0  0  0  0  0  0
   45.2592   33.7602   44.5008 C   0  0  0  0  0  0  0  0  0  0  0  0
   46.0579   32.7950   45.0169 N   0  0  0  0  0  0  0  0  0  0  0  0
   47.3229   32.6281   44.5922 C   0  0  0  0  0  0  0  0  0  0  0  0
   47.8468   33.4145   43.6358 N   0  0  0  0  0  0  0  0  0  0  0  0
   44.9810   35.6797   42.8764 C   0  0  0  0  0  0  0  0  0  0  0  0
   45.6184   36.9015   43.0599 F   0  0  0  0  0  0  0  0  0  0  0  0
   44.9553   35.4665   41.5091 F   0  0  0  0  0  0  0  0  0  0  0  0
   43.7212   35.8125   43.3485 F   0  0  0  0  0  0  0  0  0  0  0  0
   47.5802   35.1962   42.1320 O   0  0  0  0  0  0  0  0  0  0  0  0
   48.8746   35.1915   41.5733 C   0  0  0  0  0  0  0  0  0  0  0  0
   49.7634   35.4905   42.6073 F   0  0  0  0  0  0  0  0  0  0  0  0
   49.1289   33.9726   41.0055 F   0  0  0  0  0  0  0  0  0  0  0  0
   49.0104   36.2249   40.6775 F   0  0  0  0  0  0  0  0  0  0  0  0
   44.2347   33.9120   44.8296 H   0  0  0  0  0  0  0  0  0  0  0  0
   48.1275   31.5694   45.1910 C   0  0  0  0  0  0  0  0  0  0  0  0
   47.9278   31.1624   46.4932 C   0  0  0  0  0  0  0  0  0  0  0  0
   47.1690   31.6288   47.0807 H   0  0  0  0  0  0  0  0  0  0  0  0
   48.7260   30.1551   46.9938 C   0  0  0  0  0  0  0  0  0  0  0  0
   48.5080   29.8845   48.0393 H   0  0  0  0  0  0  0  0  0  0  0  0
   49.7236   29.5063   46.2984 C   0  0  0  0  0  0  0  0  0  0  0  0
   49.8764   29.9523   45.0104 C   0  0  0  0  0  0  0  0  0  0  0  0
   49.1107   30.9474   44.4675 C   0  0  0  0  0  0  0  0  0  0  0  0
   49.2782   31.2617   43.4340 H   0  0  0  0  0  0  0  0  0  0  0  0
   51.1352   29.1920   44.0063 S   0  0  0  0  0  0  0  0  0  0  0  0
   51.9241   27.9582   45.0168 C   0  0  0  0  0  0  0  0  0  0  0  0
   52.9445   27.1958   44.5189 C   0  0  0  0  0  0  0  0  0  0  0  0
   53.2653   27.3639   43.4796 H   0  0  0  0  0  0  0  0  0  0  0  0
   53.6013   26.2229   45.2428 C   0  0  0  0  0  0  0  0  0  0  0  0
   54.3838   25.6787   44.7739 H   0  0  0  0  0  0  0  0  0  0  0  0
   53.1643   26.0493   46.5393 C   0  0  0  0  0  0  0  0  0  0  0  0
   53.6440   25.3046   47.1423 H   0  0  0  0  0  0  0  0  0  0  0  0
   52.1336   26.8276   47.0245 C   0  0  0  0  0  0  0  0  0  0  0  0
   51.8589   26.6131   48.0677 H   0  0  0  0  0  0  0  0  0  0  0  0
   51.4769   27.8000   46.3014 C   0  0  0  0  0  0  0  0  0  0  0  0
   50.4457   28.4938   46.9707 N   0  0  0  0  0  0  0  0  0  0  0  0
   50.2094   28.2744   47.9434 H   0  0  0  0  0  0  0  0  0  0  0  0
  1  2  2  0
  1  6  1  0
  2  3  1  0
  3  4  2  0
  5  4  1  0
  6  5  2  0
  7  8  1  0
  7 10  1  0
  7  2  1  0
  9  7  1  0
 11  1  1  0
 12 11  1  0
 12 13  1  0
 14 12  1  0
 15 12  1  0
  3 16  1  0
 17 18  2  0
 18 19  1  0
 18 20  1  0
 20 21  1  0
 20 22  2  0
 22 23  1  0
 23 24  2  0
 24 25  1  0
 23 26  1  0
 26 27  1  0
 27 28  2  0
 28 29  1  0
 28 30  1  0
 30 31  1  0
 30 32  2  0
 32 33  1  0
 32 34  1  0
 34 35  1  0
 34 36  2  0
 36 37  1  0
 37 38  1  0
 24 17  1  0
 36 27  1  0
 37 22  1  0
  5 17  1  0
M  ISO  8  16  14  19  16  21  16  25  16  29  16  31  16  33  16  35  16
M  ISO  1  38   5
M  END
>  <DihAtoms>  (1) 
3,4,16,17

>  <DihDeg>  (1) 
179.99917544483472

$$$$
