
 OpenBabel03252503093D

 40 44  0  0  1  0  0  0  0  0999 V2000
   47.6790   34.2770   39.6430 C   0  0  0  0  0  0  0  0  0  0  0  0
   48.4360   34.5920   38.5340 C   0  0  0  0  0  0  0  0  0  0  0  0
   49.2870   35.2830   38.6140 H   0  0  0  0  0  0  0  0  0  0  0  0
   48.1880   34.0910   37.2840 C   0  0  0  0  0  0  0  0  0  0  0  0
   48.8060   34.3710   36.4550 H   0  0  0  0  0  0  0  0  0  0  0  0
   47.1070   33.2110   37.1350 C   0  0  0  0  0  0  0  0  0  0  0  0
   46.3500   32.8920   38.2390 C   0  0  0  0  0  0  0  0  0  0  0  0
   46.6490   33.4240   39.4540 C   0  0  0  0  0  0  0  0  0  0  0  0
   46.1020   33.2210   40.3670 H   0  0  0  0  0  0  0  0  0  0  0  0
   44.9740   31.7740   38.0900 S   0  0  0  0  0  0  0  0  0  0  0  0
   44.8350   31.3890   36.3550 C   0  0  0  0  0  0  0  0  0  0  0  0
   43.8210   30.6120   35.9130 C   0  0  0  0  0  0  0  0  0  0  0  0
   43.1050   30.2360   36.6580 H   0  0  0  0  0  0  0  0  0  0  0  0
   43.6400   30.2670   34.5970 C   0  0  0  0  0  0  0  0  0  0  0  0
   42.8090   29.6410   34.3190 H   0  0  0  0  0  0  0  0  0  0  0  0
   44.5950   30.7780   33.7040 C   0  0  0  0  0  0  0  0  0  0  0  0
   44.4830   30.5250   32.6640 H   0  0  0  0  0  0  0  0  0  0  0  0
   45.6310   31.5720   34.1720 C   0  0  0  0  0  0  0  0  0  0  0  0
   46.2960   31.9050   33.3990 H   0  0  0  0  0  0  0  0  0  0  0  0
   45.7770   31.9050   35.5440 C   0  0  0  0  0  0  0  0  0  0  0  0
   46.8470   32.7450   35.8360 N   0  0  0  0  0  0  0  0  0  0  0  0
   47.4990   33.0500   35.0540 H   0  0  0  0  0  0  0  0  0  0  0  0
   48.1050   34.9540   40.9170 C   0  0  1  0  0  3  0  0  0  0  0  0
   48.9350   35.9460   40.9750 O   0  0  0  0  0  1  0  0  0  0  0  0
   46.4500   35.1870   42.6790 C   0  0  0  0  0  0  0  0  0  0  0  0
   47.5870   34.5230   42.1680 C   0  0  0  0  0  0  0  0  0  0  0  0
   48.0690   33.4840   42.9370 C   0  0  0  0  0  0  0  0  0  0  0  0
   47.4890   33.1300   44.0980 N   0  0  0  0  0  0  0  0  0  0  0  0
   46.3960   33.7920   44.5590 C   0  0  0  0  0  0  0  0  0  0  0  0
   45.8870   34.8190   43.8370 N   0  0  0  0  0  0  0  0  0  0  0  0
   46.0270   36.0100   42.1210 H   0  0  0  0  0  0  0  0  0  0  0  0
   46.0040   33.4240   45.5100 H   0  0  0  0  0  0  0  0  0  0  0  0
   49.1970   32.8000   42.4980 C   0  0  0  0  0  0  0  0  0  0  0  0
   50.5290   33.1260   42.3560 C   0  0  0  0  0  0  0  0  0  0  0  0
   51.4190   32.2610   41.9010 C   0  0  0  0  0  0  0  0  0  0  0  0
   50.9760   30.9970   41.5680 C   0  0  0  0  0  0  0  0  0  0  0  0
   49.1560   31.1020   41.9470 S   0  0  0  0  0  0  0  0  0  0  0  0
   51.0510   34.0190   42.6030 H   0  0  0  0  0  0  0  0  0  0  0  0
   52.4670   32.2070   41.6860 H   0  0  0  0  0  0  0  0  0  0  0  0
   51.2780   30.0260   41.1910 H   0  0  0  0  0  0  0  0  0  0  0  0
  1 23  1  0  0  0  0
  2  3  1  0  0  0  0
  2  1  2  0  0  0  0
  4  2  1  0  0  0  0
  5  4  1  0  0  0  0
  6  4  2  0  0  0  0
  6  7  1  0  0  0  0
  7  8  2  0  0  0  0
  8  1  1  0  0  0  0
  8  9  1  0  0  0  0
 10  7  1  0  0  0  0
 11 10  1  0  0  0  0
 12 11  1  0  0  0  0
 12 13  1  0  0  0  0
 14 12  2  0  0  0  0
 15 14  1  0  0  0  0
 16 18  2  0  0  0  0
 16 14  1  0  0  0  0
 17 16  1  0  0  0  0
 18 20  1  0  0  0  0
 19 18  1  0  0  0  0
 20 21  1  0  0  0  0
 20 11  2  0  0  0  0
 21  6  1  0  0  0  0
 22 21  1  0  0  0  0
 23 24  1  6  0  0  0
 23 26  1  0  0  0  0
 25 30  1  0  0  0  0
 26 25  2  0  0  0  0
 26 27  1  0  0  0  0
 27 28  2  0  0  0  0
 28 29  1  0  0  0  0
 29 32  1  0  0  0  0
 30 29  2  0  0  0  0
 31 25  1  0  0  0  0
 33 27  1  0  0  0  0
 34 33  2  0  0  0  0
 34 38  1  0  0  0  0
 35 34  1  0  0  0  0
 36 35  2  0  0  0  0
 36 37  1  0  0  0  0
 37 33  1  0  0  0  0
 39 35  1  0  0  0  0
 40 36  1  0  0  0  0
M  END
>  <minimizedAffinity>
-6.25286388

>  <minimizedRMSD>
3.02138948

$$$$
