
 OpenBabel03252504093D

 38 41  0  0  0  0  0  0  0  0999 V2000
   47.4100   31.3680   46.8200 C   0  0  0  0  0  0  0  0  0  0  0  0
   47.3200   30.0290   46.5030 C   0  0  0  0  0  0  0  0  0  0  0  0
   46.7260   29.7230   45.6710 H   0  0  0  0  0  0  0  0  0  0  0  0
   48.0070   29.1240   47.2850 C   0  0  0  0  0  0  0  0  0  0  0  0
   47.8870   28.0750   46.9710 H   0  0  0  0  0  0  0  0  0  0  0  0
   48.7930   29.4420   48.3720 C   0  0  0  0  0  0  0  0  0  0  0  0
   48.8450   30.7860   48.6390 C   0  0  0  0  0  0  0  0  0  0  0  0
   48.1810   31.7230   47.8960 C   0  0  0  0  0  0  0  0  0  0  0  0
   48.2610   32.7810   48.1560 H   0  0  0  0  0  0  0  0  0  0  0  0
   49.8270   31.3260   50.0220 S   0  0  0  0  0  0  0  0  0  0  0  0
   50.5370   29.8650   50.7500 C   0  0  0  0  0  0  0  0  0  0  0  0
   51.3510   29.9560   51.8450 C   0  0  0  0  0  0  0  0  0  0  0  0
   51.5580   30.9530   52.2640 H   0  0  0  0  0  0  0  0  0  0  0  0
   51.9360   28.8690   52.4610 C   0  0  0  0  0  0  0  0  0  0  0  0
   52.5550   29.0350   53.3080 H   0  0  0  0  0  0  0  0  0  0  0  0
   51.6490   27.6420   51.9010 C   0  0  0  0  0  0  0  0  0  0  0  0
   52.0800   26.7670   52.3440 H   0  0  0  0  0  0  0  0  0  0  0  0
   50.8250   27.5700   50.7960 C   0  0  0  0  0  0  0  0  0  0  0  0
   50.6570   26.5490   50.4240 H   0  0  0  0  0  0  0  0  0  0  0  0
   50.2410   28.6560   50.1800 C   0  0  0  0  0  0  0  0  0  0  0  0
   49.4270   28.3820   49.0600 N   0  0  0  0  0  0  0  0  0  0  0  0
   49.2880   27.4210   48.7340 H   0  0  0  0  0  0  0  0  0  0  0  0
   46.3080   33.4610   44.0210 C   0  0  0  0  0  0  0  0  0  0  0  0
   45.3790   34.2990   44.6250 C   0  0  0  0  0  0  0  0  0  0  0  0
   45.1370   34.1360   45.9970 C   0  0  0  0  0  0  0  0  0  0  0  0
   45.8190   33.1740   46.6640 N   0  0  0  0  0  0  0  0  0  0  0  0
   46.7110   32.3840   46.0410 C   0  0  0  0  0  0  0  0  0  0  0  0
   46.9630   32.5170   44.7270 N   0  0  0  0  0  0  0  0  0  0  0  0
   44.4130   34.7850   46.4810 H   0  0  0  0  0  0  0  0  0  0  0  0
   44.6810   35.3240   43.8100 C   0  0  0  0  0  0  0  0  0  0  0  0
   45.6010   36.2400   43.3150 F   0  0  0  0  0  0  0  0  0  0  0  0
   44.1340   34.7000   42.7020 F   0  0  0  0  0  0  0  0  0  0  0  0
   43.7290   36.0270   44.4640 F   0  0  0  0  0  0  0  0  0  0  0  0
   46.5340   33.6250   42.7030 O   0  0  0  0  0  0  0  0  0  0  0  0
   47.7130   34.0760   42.0760 C   0  0  0  0  0  0  0  0  0  0  0  0
   48.4510   34.7570   43.0440 F   0  0  0  0  0  0  0  0  0  0  0  0
   48.3960   33.0120   41.5540 F   0  0  0  0  0  0  0  0  0  0  0  0
   47.4140   35.0230   41.1260 F   0  0  0  0  0  0  0  0  0  0  0  0
  1  8  1  0  0  0  0
  2  1  2  0  0  0  0
  2  4  1  0  0  0  0
  3  2  1  0  0  0  0
  4  6  2  0  0  0  0
  5  4  1  0  0  0  0
  6  7  1  0  0  0  0
  6 21  1  0  0  0  0
  7 10  1  0  0  0  0
  8  9  1  0  0  0  0
  8  7  2  0  0  0  0
 10 11  1  0  0  0  0
 11 12  1  0  0  0  0
 12 13  1  0  0  0  0
 12 14  2  0  0  0  0
 14 15  1  0  0  0  0
 16 17  1  0  0  0  0
 16 14  1  0  0  0  0
 18 16  2  0  0  0  0
 19 18  1  0  0  0  0
 20 11  2  0  0  0  0
 20 18  1  0  0  0  0
 21 20  1  0  0  0  0
 22 21  1  0  0  0  0
 23 24  2  0  0  0  0
 23 28  1  0  0  0  0
 24 25  1  0  0  0  0
 25 29  1  0  0  0  0
 25 26  2  0  0  0  0
 27 26  1  0  0  0  0
 27  1  1  0  0  0  0
 28 27  2  0  0  0  0
 30 33  1  0  0  0  0
 30 24  1  0  0  0  0
 31 30  1  0  0  0  0
 32 30  1  0  0  0  0
 34 23  1  0  0  0  0
 35 34  1  0  0  0  0
 35 36  1  0  0  0  0
 37 35  1  0  0  0  0
 38 35  1  0  0  0  0
M  END
>  <minimizedAffinity>
-6.67098665

>  <minimizedRMSD>
1.76748657

$$$$
