REMARK  Name = 
REMARK  3 active torsions:
REMARK  status: ('A' for Active; 'I' for Inactive)
REMARK    1  A    between atoms: C_2  and  C_12
REMARK    2  A    between atoms: C_3  and  C_7
REMARK    3  A    between atoms: C_12  and  C_19
REMARK                            x       y       z     vdW  Elec       q    Type
REMARK                         _______ _______ _______ _____ _____    ______ ____
ROOT
ATOM      1  C   UNL     1      46.271  33.642  40.871  0.00  0.00    +0.000 A 
ATOM      2  C   UNL     1      47.077  33.418  39.774  0.00  0.00    +0.000 A 
ATOM      3  H   UNL     1      48.040  33.935  39.672  0.00  0.00    +0.000 HD
ATOM      4  C   UNL     1      46.744  32.565  38.756  0.00  0.00    +0.000 A 
ATOM      5  H   UNL     1      47.406  32.428  37.925  0.00  0.00    +0.000 HD
ATOM      6  C   UNL     1      45.518  31.889  38.843  0.00  0.00    +0.000 A 
ATOM      7  C   UNL     1      44.712  32.109  39.936  0.00  0.00    +0.000 A 
ATOM      8  C   UNL     1      45.100  32.969  40.914  0.00  0.00    +0.000 A 
ATOM      9  H   UNL     1      44.523  33.192  41.804  0.00  0.00    +0.000 HD
ATOM     10  S   UNL     1      43.153  31.264  40.084  0.00  0.00    +0.000 S 
ATOM     11  C   UNL     1      42.951  30.332  38.578  0.00  0.00    +0.000 A 
ATOM     12  C   UNL     1      41.812  29.638  38.359  0.00  0.00    +0.000 A 
ATOM     13  H   UNL     1      41.037  29.673  39.138  0.00  0.00    +0.000 HD
ATOM     14  C   UNL     1      41.574  28.894  37.230  0.00  0.00    +0.000 A 
ATOM     15  H   UNL     1      40.642  28.364  37.126  0.00  0.00    +0.000 HD
ATOM     16  C   UNL     1      42.611  28.891  36.283  0.00  0.00    +0.000 A 
ATOM     17  H   UNL     1      42.456  28.316  35.386  0.00  0.00    +0.000 HD
ATOM     18  C   UNL     1      43.775  29.606  36.521  0.00  0.00    +0.000 A 
ATOM     19  H   UNL     1      44.492  29.530  35.729  0.00  0.00    +0.000 HD
ATOM     20  C   UNL     1      43.975  30.362  37.706  0.00  0.00    +0.000 A 
ATOM     21  N   UNL     1      45.182  31.054  37.765  0.00  0.00    +0.000 N 
ATOM     22  H   UNL     1      45.882  30.951  36.972  0.00  0.00    +0.000 HD
ENDROOT
BRANCH   1  23
ATOM     23  C   UNL     1      46.810  34.635  41.865  0.00  0.00    +0.000 C 
ATOM     24  O   UNL     1      47.893  35.323  41.695  0.00  0.00    +0.000 OA
BRANCH  23  26
ATOM     25  C   UNL     1      45.380  36.076  43.197  0.00  0.00    +0.000 A 
ATOM     26  C   UNL     1      46.121  34.879  43.083  0.00  0.00    +0.000 A 
ATOM     27  C   UNL     1      46.075  34.040  44.177  0.00  0.00    +0.000 A 
ATOM     28  N   UNL     1      45.366  34.346  45.279  0.00  0.00    +0.000 NA
ATOM     29  C   UNL     1      44.665  35.507  45.354  0.00  0.00    +0.000 A 
ATOM     30  N   UNL     1      44.681  36.363  44.303  0.00  0.00    +0.000 NA
ATOM     31  H   UNL     1      45.379  36.774  42.372  0.00  0.00    +0.000 HD
ATOM     32  H   UNL     1      44.125  35.658  46.291  0.00  0.00    +0.000 HD
BRANCH  27  33
ATOM     33  C   UNL     1      46.797  32.852  44.135  0.00  0.00    +0.000 A 
ATOM     34  C   UNL     1      47.742  32.328  43.279  0.00  0.00    +0.000 A 
ATOM     35  C   UNL     1      48.285  31.139  43.477  0.00  0.00    +0.000 A 
ATOM     36  C   UNL     1      47.878  30.422  44.583  0.00  0.00    +0.000 A 
ATOM     37  S   UNL     1      46.633  31.566  45.362  0.00  0.00    +0.000 S 
ATOM     38  H   UNL     1      48.203  32.749  42.419  0.00  0.00    +0.000 HD
ATOM     39  H   UNL     1      49.003  30.486  43.024  0.00  0.00    +0.000 HD
ATOM     40  H   UNL     1      48.009  29.496  45.132  0.00  0.00    +0.000 HD
ENDBRANCH  27  33
ENDBRANCH  23  26
ENDBRANCH   1  23
TORSDOF 3
