
 OpenBabel03242523213D

 50 55  0  0  0  0  0  0  0  0999 V2000
   36.9540   26.8610   38.2180 Cl  0  0  0  0  0  0  0  0  0  0  0  0
   36.8740   26.0600   39.7900 C   0  0  0  0  0  0  0  0  0  0  0  0
   36.6440   24.6690   39.7450 C   0  0  0  0  0  0  0  0  0  0  0  0
   36.6020   24.1430   41.0260 C   0  0  0  0  0  0  0  0  0  0  0  0
   36.7470   24.7500   42.2130 C   0  0  0  0  0  0  0  0  0  0  0  0
   36.9670   26.0980   42.1640 C   0  0  0  0  0  0  0  0  0  0  0  0
   37.0330   26.7610   40.9870 C   0  0  0  0  0  0  0  0  0  0  0  0
   36.3950   23.0620   41.1750 H   0  0  0  0  0  0  0  0  0  0  0  0
   36.7110   24.3110   43.1770 H   0  0  0  0  0  0  0  0  0  0  0  0
   37.1060   26.7390   43.0280 H   0  0  0  0  0  0  0  0  0  0  0  0
   37.2620   28.2030   40.8750 C   0  0  0  0  0  0  0  0  0  0  0  0
   36.1070   28.9750   41.0160 C   0  0  0  0  0  0  0  0  0  0  0  0
   35.1370   28.5330   41.1960 H   0  0  0  0  0  0  0  0  0  0  0  0
   36.2090   30.3640   40.9240 C   0  0  0  0  0  0  0  0  0  0  0  0
   35.2660   30.9170   41.0440 H   0  0  0  0  0  0  0  0  0  0  0  0
   37.3900   31.0350   40.6990 C   0  0  0  0  0  0  0  0  0  0  0  0
   38.4890   30.2280   40.5670 C   0  0  0  0  0  0  0  0  0  0  0  0
   38.4480   28.8660   40.6490 C   0  0  0  0  0  0  0  0  0  0  0  0
   39.2990   28.2370   40.5450 H   0  0  0  0  0  0  0  0  0  0  0  0
   40.0680   30.9980   40.2730 S   0  0  0  0  0  0  0  0  0  0  0  0
   39.7790   32.7550   40.2230 C   0  0  0  0  0  0  0  0  0  0  0  0
   40.8240   33.6120   40.0090 C   0  0  0  0  0  0  0  0  0  0  0  0
   41.8230   33.1830   39.8720 H   0  0  0  0  0  0  0  0  0  0  0  0
   40.6630   34.9780   39.9600 C   0  0  0  0  0  0  0  0  0  0  0  0
   41.5520   35.5680   39.7850 H   0  0  0  0  0  0  0  0  0  0  0  0
   39.3880   35.4730   40.1360 C   0  0  0  0  0  0  0  0  0  0  0  0
   39.2410   36.5230   40.1010 H   0  0  0  0  0  0  0  0  0  0  0  0
   38.3650   34.5730   40.3480 C   0  0  0  0  0  0  0  0  0  0  0  0
   37.3810   35.0530   40.4790 H   0  0  0  0  0  0  0  0  0  0  0  0
   38.4950   33.2020   40.4030 C   0  0  0  0  0  0  0  0  0  0  0  0
   37.3340   32.4460   40.6300 N   0  0  0  0  0  0  0  0  0  0  0  0
   36.4210   32.9300   40.7490 H   0  0  0  0  0  0  0  0  0  0  0  0
   36.4780   23.8300   38.5240 C   0  0  0  0  0  0  0  0  0  0  0  0
   37.6330   23.7950   38.1840 O   0  0  0  0  0  0  0  0  0  0  0  0
   35.0550   23.4950   38.3760 C   0  0  0  0  0  0  0  0  0  0  0  0
   34.1500   24.1660   37.6480 C   0  0  0  0  0  0  0  0  0  0  0  0
   32.8580   23.6950   37.7610 C   0  0  0  0  0  0  0  0  0  0  0  0
   32.6150   22.5890   38.5980 N   0  0  0  0  0  0  0  0  0  0  0  0
   33.5560   21.9820   39.2770 C   0  0  0  0  0  0  0  0  0  0  0  0
   34.8580   22.4240   39.1930 N   0  0  0  0  0  0  0  0  0  0  0  0
   31.9950   24.1090   37.2520 H   0  0  0  0  0  0  0  0  0  0  0  0
   33.2170   21.1430   39.8770 H   0  0  0  0  0  0  0  0  0  0  0  0
   34.4190   25.2050   36.7180 C   0  0  0  0  0  0  0  0  0  0  0  0
   33.5850   25.7540   35.7950 C   0  0  0  0  0  0  0  0  0  0  0  0
   33.7570   26.6160   37.0160 C   0  0  0  0  0  0  0  0  0  0  0  0
   35.4770   25.2530   36.3980 H   0  0  0  0  0  0  0  0  0  0  0  0
   33.8300   26.3050   34.8550 H   0  0  0  0  0  0  0  0  0  0  0  0
   32.5320   25.3580   35.6910 H   0  0  0  0  0  0  0  0  0  0  0  0
   33.0000   26.5720   37.8100 H   0  0  0  0  0  0  0  0  0  0  0  0
   34.4660   27.4560   36.9740 H   0  0  0  0  0  0  0  0  0  0  0  0
  1  2  1  0  0  0  0
  2  7  1  0  0  0  0
  3  2  2  0  0  0  0
  3  4  1  0  0  0  0
  4  8  1  0  0  0  0
  4  5  2  0  0  0  0
  5  9  1  0  0  0  0
  6  5  1  0  0  0  0
  6 10  1  0  0  0  0
  7  6  2  0  0  0  0
 11  7  1  0  0  0  0
 11 12  1  0  0  0  0
 12 13  1  0  0  0  0
 14 12  2  0  0  0  0
 14 15  1  0  0  0  0
 16 14  1  0  0  0  0
 17 18  1  0  0  0  0
 17 16  2  0  0  0  0
 18 11  2  0  0  0  0
 19 18  1  0  0  0  0
 20 17  1  0  0  0  0
 21 20  1  0  0  0  0
 21 30  1  0  0  0  0
 22 21  2  0  0  0  0
 23 22  1  0  0  0  0
 24 22  1  0  0  0  0
 24 26  2  0  0  0  0
 25 24  1  0  0  0  0
 26 28  1  0  0  0  0
 27 26  1  0  0  0  0
 28 30  2  0  0  0  0
 28 29  1  0  0  0  0
 30 31  1  0  0  0  0
 31 16  1  0  0  0  0
 31 32  1  0  0  0  0
 33  3  1  0  0  0  0
 34 33  2  0  0  0  0
 35 33  1  0  0  0  0
 35 40  1  0  0  0  0
 36 37  1  0  0  0  0
 36 35  2  0  0  0  0
 37 38  2  0  0  0  0
 38 39  1  0  0  0  0
 39 42  1  0  0  0  0
 40 39  2  0  0  0  0
 41 37  1  0  0  0  0
 43 45  1  0  0  0  0
 43 36  1  0  0  0  0
 44 43  1  0  0  0  0
 44 45  1  0  0  0  0
 45 49  1  0  0  0  0
 46 43  1  0  0  0  0
 47 44  1  0  0  0  0
 48 44  1  0  0  0  0
 50 45  1  0  0  0  0
M  END
>  <minimizedAffinity>
-7.14520931

$$$$

 OpenBabel03242523213D

 50 55  0  0  0  0  0  0  0  0999 V2000
   36.7670   27.0020   38.0630 Cl  0  0  0  0  0  0  0  0  0  0  0  0
   36.7440   26.1320   39.6000 C   0  0  0  0  0  0  0  0  0  0  0  0
   36.4850   24.7490   39.5030 C   0  0  0  0  0  0  0  0  0  0  0  0
   36.4920   24.1660   40.7600 C   0  0  0  0  0  0  0  0  0  0  0  0
   36.7030   24.7140   41.9650 C   0  0  0  0  0  0  0  0  0  0  0  0
   36.9470   26.0600   41.9670 C   0  0  0  0  0  0  0  0  0  0  0  0
   36.9710   26.7740   40.8190 C   0  0  0  0  0  0  0  0  0  0  0  0
   36.2710   23.0830   40.8700 H   0  0  0  0  0  0  0  0  0  0  0  0
   36.7030   24.2330   42.9100 H   0  0  0  0  0  0  0  0  0  0  0  0
   37.1380   26.6580   42.8510 H   0  0  0  0  0  0  0  0  0  0  0  0
   37.2230   28.2160   40.7610 C   0  0  0  0  0  0  0  0  0  0  0  0
   36.0830   29.0000   40.9490 C   0  0  0  0  0  0  0  0  0  0  0  0
   35.1080   28.5670   41.1230 H   0  0  0  0  0  0  0  0  0  0  0  0
   36.2070   30.3900   40.9100 C   0  0  0  0  0  0  0  0  0  0  0  0
   35.2760   30.9540   41.0650 H   0  0  0  0  0  0  0  0  0  0  0  0
   37.3960   31.0500   40.6960 C   0  0  0  0  0  0  0  0  0  0  0  0
   38.4800   30.2320   40.5180 C   0  0  0  0  0  0  0  0  0  0  0  0
   38.4180   28.8680   40.5450 C   0  0  0  0  0  0  0  0  0  0  0  0
   39.2560   28.2300   40.4060 H   0  0  0  0  0  0  0  0  0  0  0  0
   40.0670   30.9870   40.2330 S   0  0  0  0  0  0  0  0  0  0  0  0
   39.8080   32.7490   40.2570 C   0  0  0  0  0  0  0  0  0  0  0  0
   40.8640   33.5970   40.0630 C   0  0  0  0  0  0  0  0  0  0  0  0
   41.8540   33.1580   39.8960 H   0  0  0  0  0  0  0  0  0  0  0  0
   40.7260   34.9660   40.0700 C   0  0  0  0  0  0  0  0  0  0  0  0
   41.6220   35.5480   39.9070 H   0  0  0  0  0  0  0  0  0  0  0  0
   39.4610   35.4740   40.2830 C   0  0  0  0  0  0  0  0  0  0  0  0
   39.3310   36.5270   40.2930 H   0  0  0  0  0  0  0  0  0  0  0  0
   38.4260   34.5830   40.4740 C   0  0  0  0  0  0  0  0  0  0  0  0
   37.4520   35.0740   40.6370 H   0  0  0  0  0  0  0  0  0  0  0  0
   38.5340   33.2090   40.4720 C   0  0  0  0  0  0  0  0  0  0  0  0
   37.3640   32.4630   40.6840 N   0  0  0  0  0  0  0  0  0  0  0  0
   36.4600   32.9580   40.8350 H   0  0  0  0  0  0  0  0  0  0  0  0
   36.2470   23.9690   38.2550 C   0  0  0  0  0  0  0  0  0  0  0  0
   37.3940   23.7150   37.9930 O   0  0  0  0  0  0  0  0  0  0  0  0
   34.8000   23.9190   38.0040 C   0  0  0  0  0  0  0  0  0  0  0  0
   33.9740   22.9060   38.3030 C   0  0  0  0  0  0  0  0  0  0  0  0
   32.6760   23.0750   37.8690 C   0  0  0  0  0  0  0  0  0  0  0  0
   32.3440   24.2580   37.1800 N   0  0  0  0  0  0  0  0  0  0  0  0
   33.2090   25.2090   36.9290 C   0  0  0  0  0  0  0  0  0  0  0  0
   34.5160   25.0750   37.3430 N   0  0  0  0  0  0  0  0  0  0  0  0
   31.8700   22.3640   38.0150 H   0  0  0  0  0  0  0  0  0  0  0  0
   32.8070   26.0610   36.3910 H   0  0  0  0  0  0  0  0  0  0  0  0
   34.2850   21.7710   39.0980 C   0  0  0  0  0  0  0  0  0  0  0  0
   33.7270   20.5310   39.0630 C   0  0  0  0  0  0  0  0  0  0  0  0
   35.0650   20.5890   38.3780 C   0  0  0  0  0  0  0  0  0  0  0  0
   34.6650   22.0230   40.1050 H   0  0  0  0  0  0  0  0  0  0  0  0
   33.6950   19.7440   39.8540 H   0  0  0  0  0  0  0  0  0  0  0  0
   32.8820   20.3220   38.3420 H   0  0  0  0  0  0  0  0  0  0  0  0
   35.1010   20.7050   37.2860 H   0  0  0  0  0  0  0  0  0  0  0  0
   35.9540   20.2470   38.9270 H   0  0  0  0  0  0  0  0  0  0  0  0
  1  2  1  0  0  0  0
  2  7  1  0  0  0  0
  3  2  2  0  0  0  0
  3  4  1  0  0  0  0
  4  8  1  0  0  0  0
  4  5  2  0  0  0  0
  5  6  1  0  0  0  0
  5  9  1  0  0  0  0
  6 10  1  0  0  0  0
  7  6  2  0  0  0  0
 11  7  1  0  0  0  0
 11 12  1  0  0  0  0
 12 13  1  0  0  0  0
 14 12  2  0  0  0  0
 14 15  1  0  0  0  0
 16 14  1  0  0  0  0
 17 18  1  0  0  0  0
 17 16  2  0  0  0  0
 18 11  2  0  0  0  0
 19 18  1  0  0  0  0
 20 21  1  0  0  0  0
 20 17  1  0  0  0  0
 21 30  1  0  0  0  0
 22 24  1  0  0  0  0
 22 21  2  0  0  0  0
 23 22  1  0  0  0  0
 24 26  2  0  0  0  0
 25 24  1  0  0  0  0
 26 27  1  0  0  0  0
 26 28  1  0  0  0  0
 28 29  1  0  0  0  0
 30 28  2  0  0  0  0
 30 31  1  0  0  0  0
 31 16  1  0  0  0  0
 31 32  1  0  0  0  0
 33  3  1  0  0  0  0
 34 33  2  0  0  0  0
 35 33  1  0  0  0  0
 35 36  1  0  0  0  0
 36 43  1  0  0  0  0
 37 41  1  0  0  0  0
 37 36  2  0  0  0  0
 38 37  1  0  0  0  0
 39 38  2  0  0  0  0
 39 40  1  0  0  0  0
 40 35  2  0  0  0  0
 42 39  1  0  0  0  0
 43 46  1  0  0  0  0
 44 43  1  0  0  0  0
 44 47  1  0  0  0  0
 45 50  1  0  0  0  0
 45 44  1  0  0  0  0
 45 43  1  0  0  0  0
 48 44  1  0  0  0  0
 49 45  1  0  0  0  0
M  END
>  <minimizedAffinity>
-7.1150732

$$$$

 OpenBabel03242523213D

 50 55  0  0  0  0  0  0  0  0999 V2000
   36.4940   26.9850   38.1890 Cl  0  0  0  0  0  0  0  0  0  0  0  0
   36.6310   26.1260   39.7260 C   0  0  0  0  0  0  0  0  0  0  0  0
   36.3640   24.7430   39.6680 C   0  0  0  0  0  0  0  0  0  0  0  0
   36.5010   24.1690   40.9210 C   0  0  0  0  0  0  0  0  0  0  0  0
   36.8360   24.7270   42.0940 C   0  0  0  0  0  0  0  0  0  0  0  0
   37.0790   26.0720   42.0600 C   0  0  0  0  0  0  0  0  0  0  0  0
   36.9840   26.7770   40.9100 C   0  0  0  0  0  0  0  0  0  0  0  0
   36.2930   23.0870   41.0620 H   0  0  0  0  0  0  0  0  0  0  0  0
   36.9340   24.2530   43.0370 H   0  0  0  0  0  0  0  0  0  0  0  0
   37.3600   26.6770   42.9150 H   0  0  0  0  0  0  0  0  0  0  0  0
   37.2280   28.2180   40.8160 C   0  0  0  0  0  0  0  0  0  0  0  0
   36.0930   29.0030   41.0310 C   0  0  0  0  0  0  0  0  0  0  0  0
   35.1270   28.5710   41.2510 H   0  0  0  0  0  0  0  0  0  0  0  0
   36.2100   30.3920   40.9620 C   0  0  0  0  0  0  0  0  0  0  0  0
   35.2830   30.9560   41.1410 H   0  0  0  0  0  0  0  0  0  0  0  0
   37.3880   31.0510   40.6900 C   0  0  0  0  0  0  0  0  0  0  0  0
   38.4670   30.2330   40.4860 C   0  0  0  0  0  0  0  0  0  0  0  0
   38.4110   28.8700   40.5420 C   0  0  0  0  0  0  0  0  0  0  0  0
   39.2450   28.2320   40.3820 H   0  0  0  0  0  0  0  0  0  0  0  0
   40.0400   30.9880   40.1270 S   0  0  0  0  0  0  0  0  0  0  0  0
   39.7740   32.7490   40.1270 C   0  0  0  0  0  0  0  0  0  0  0  0
   40.8200   33.5960   39.8770 C   0  0  0  0  0  0  0  0  0  0  0  0
   41.8040   33.1570   39.6810 H   0  0  0  0  0  0  0  0  0  0  0  0
   40.6770   34.9640   39.8640 C   0  0  0  0  0  0  0  0  0  0  0  0
   41.5640   35.5460   39.6560 H   0  0  0  0  0  0  0  0  0  0  0  0
   39.4190   35.4730   40.1150 C   0  0  0  0  0  0  0  0  0  0  0  0
   39.2860   36.5250   40.1090 H   0  0  0  0  0  0  0  0  0  0  0  0
   38.3950   34.5830   40.3610 C   0  0  0  0  0  0  0  0  0  0  0  0
   37.4270   35.0740   40.5520 H   0  0  0  0  0  0  0  0  0  0  0  0
   38.5080   33.2100   40.3820 C   0  0  0  0  0  0  0  0  0  0  0  0
   37.3500   32.4640   40.6530 N   0  0  0  0  0  0  0  0  0  0  0  0
   36.4510   32.9590   40.8280 H   0  0  0  0  0  0  0  0  0  0  0  0
   35.9980   23.9540   38.4570 C   0  0  0  0  0  0  0  0  0  0  0  0
   34.8030   23.9540   38.6090 O   0  0  0  0  0  0  0  0  0  0  0  0
   37.2300   23.6010   37.7380 C   0  0  0  0  0  0  0  0  0  0  0  0
   38.0200   22.5450   37.9820 C   0  0  0  0  0  0  0  0  0  0  0  0
   39.1710   22.5020   37.2230 C   0  0  0  0  0  0  0  0  0  0  0  0
   39.4030   23.5310   36.2900 N   0  0  0  0  0  0  0  0  0  0  0  0
   38.5780   24.5320   36.1050 C   0  0  0  0  0  0  0  0  0  0  0  0
   37.4190   24.6120   36.8460 N   0  0  0  0  0  0  0  0  0  0  0  0
   39.9300   21.7290   37.2820 H   0  0  0  0  0  0  0  0  0  0  0  0
   38.8890   25.2460   35.3500 H   0  0  0  0  0  0  0  0  0  0  0  0
   37.7260   21.4520   38.8390 C   0  0  0  0  0  0  0  0  0  0  0  0
   38.5590   20.4740   39.2840 C   0  0  0  0  0  0  0  0  0  0  0  0
   38.2960   21.5330   40.3180 C   0  0  0  0  0  0  0  0  0  0  0  0
   36.6790   21.1010   38.7700 H   0  0  0  0  0  0  0  0  0  0  0  0
   38.3170   19.4510   39.6600 H   0  0  0  0  0  0  0  0  0  0  0  0
   39.6370   20.4640   38.9420 H   0  0  0  0  0  0  0  0  0  0  0  0
   39.0250   22.3440   40.4500 H   0  0  0  0  0  0  0  0  0  0  0  0
   37.5410   21.3370   41.0940 H   0  0  0  0  0  0  0  0  0  0  0  0
  1  2  1  0  0  0  0
  2  7  1  0  0  0  0
  3  2  2  0  0  0  0
  3  4  1  0  0  0  0
  4  8  1  0  0  0  0
  4  5  2  0  0  0  0
  5  9  1  0  0  0  0
  6  5  1  0  0  0  0
  6 10  1  0  0  0  0
  7  6  2  0  0  0  0
 11  7  1  0  0  0  0
 11 12  1  0  0  0  0
 12 13  1  0  0  0  0
 14 12  2  0  0  0  0
 14 15  1  0  0  0  0
 16 14  1  0  0  0  0
 17 18  1  0  0  0  0
 17 16  2  0  0  0  0
 18 11  2  0  0  0  0
 19 18  1  0  0  0  0
 20 21  1  0  0  0  0
 20 17  1  0  0  0  0
 21 30  1  0  0  0  0
 22 21  2  0  0  0  0
 23 22  1  0  0  0  0
 24 22  1  0  0  0  0
 24 26  2  0  0  0  0
 25 24  1  0  0  0  0
 26 28  1  0  0  0  0
 27 26  1  0  0  0  0
 28 30  2  0  0  0  0
 28 29  1  0  0  0  0
 30 31  1  0  0  0  0
 31 16  1  0  0  0  0
 31 32  1  0  0  0  0
 33 34  2  0  0  0  0
 33  3  1  0  0  0  0
 35 36  1  0  0  0  0
 35 33  1  0  0  0  0
 36 43  1  0  0  0  0
 37 41  1  0  0  0  0
 37 36  2  0  0  0  0
 38 37  1  0  0  0  0
 39 38  2  0  0  0  0
 39 40  1  0  0  0  0
 40 35  2  0  0  0  0
 42 39  1  0  0  0  0
 43 44  1  0  0  0  0
 43 45  1  0  0  0  0
 44 47  1  0  0  0  0
 44 45  1  0  0  0  0
 45 49  1  0  0  0  0
 45 50  1  0  0  0  0
 46 43  1  0  0  0  0
 48 44  1  0  0  0  0
M  END
>  <minimizedAffinity>
-6.98016024

$$$$

 OpenBabel03242523213D

 50 55  0  0  0  0  0  0  0  0999 V2000
   36.9470   26.8010   38.4630 Cl  0  0  0  0  0  0  0  0  0  0  0  0
   36.9020   26.0480   40.0600 C   0  0  0  0  0  0  0  0  0  0  0  0
   36.6710   24.6570   40.0630 C   0  0  0  0  0  0  0  0  0  0  0  0
   36.6570   24.1710   41.3600 C   0  0  0  0  0  0  0  0  0  0  0  0
   36.8280   24.8130   42.5240 C   0  0  0  0  0  0  0  0  0  0  0  0
   37.0470   26.1590   42.4300 C   0  0  0  0  0  0  0  0  0  0  0  0
   37.0870   26.7850   41.2320 C   0  0  0  0  0  0  0  0  0  0  0  0
   36.4530   23.0950   41.5470 H   0  0  0  0  0  0  0  0  0  0  0  0
   36.8130   24.4040   43.5020 H   0  0  0  0  0  0  0  0  0  0  0  0
   37.2050   26.8260   43.2700 H   0  0  0  0  0  0  0  0  0  0  0  0
   37.3140   28.2230   41.0710 C   0  0  0  0  0  0  0  0  0  0  0  0
   36.1500   28.9920   41.1260 C   0  0  0  0  0  0  0  0  0  0  0  0
   35.1750   28.5510   41.2780 H   0  0  0  0  0  0  0  0  0  0  0  0
   36.2490   30.3770   40.9800 C   0  0  0  0  0  0  0  0  0  0  0  0
   35.2990   30.9280   41.0330 H   0  0  0  0  0  0  0  0  0  0  0  0
   37.4360   31.0460   40.7830 C   0  0  0  0  0  0  0  0  0  0  0  0
   38.5450   30.2430   40.7360 C   0  0  0  0  0  0  0  0  0  0  0  0
   38.5070   28.8850   40.8720 C   0  0  0  0  0  0  0  0  0  0  0  0
   39.3640   28.2580   40.8350 H   0  0  0  0  0  0  0  0  0  0  0  0
   40.1310   31.0110   40.4840 S   0  0  0  0  0  0  0  0  0  0  0  0
   39.8360   32.7620   40.3480 C   0  0  0  0  0  0  0  0  0  0  0  0
   40.8860   33.6170   40.1470 C   0  0  0  0  0  0  0  0  0  0  0  0
   41.8920   33.1900   40.0750 H   0  0  0  0  0  0  0  0  0  0  0  0
   40.7200   34.9780   40.0340 C   0  0  0  0  0  0  0  0  0  0  0  0
   41.6140   35.5670   39.8760 H   0  0  0  0  0  0  0  0  0  0  0  0
   39.4360   35.4710   40.1300 C   0  0  0  0  0  0  0  0  0  0  0  0
   39.2850   36.5180   40.0450 H   0  0  0  0  0  0  0  0  0  0  0  0
   38.4080   34.5740   40.3310 C   0  0  0  0  0  0  0  0  0  0  0  0
   37.4180   35.0520   40.3960 H   0  0  0  0  0  0  0  0  0  0  0  0
   38.5430   33.2080   40.4490 C   0  0  0  0  0  0  0  0  0  0  0  0
   37.3770   32.4530   40.6530 N   0  0  0  0  0  0  0  0  0  0  0  0
   36.4570   32.9350   40.7090 H   0  0  0  0  0  0  0  0  0  0  0  0
   36.4780   23.7810   38.8720 C   0  0  0  0  0  0  0  0  0  0  0  0
   35.4480   24.2620   38.4730 O   0  0  0  0  0  0  0  0  0  0  0  0
   37.5950   22.8290   38.8060 C   0  0  0  0  0  0  0  0  0  0  0  0
   38.8110   23.0620   38.2910 C   0  0  0  0  0  0  0  0  0  0  0  0
   39.6440   21.9620   38.2650 C   0  0  0  0  0  0  0  0  0  0  0  0
   39.1620   20.7390   38.7680 N   0  0  0  0  0  0  0  0  0  0  0  0
   37.9570   20.5900   39.2620 C   0  0  0  0  0  0  0  0  0  0  0  0
   37.0950   21.6640   39.3020 N   0  0  0  0  0  0  0  0  0  0  0  0
   40.6600   21.9560   37.8840 H   0  0  0  0  0  0  0  0  0  0  0  0
   37.7280   19.5890   39.6130 H   0  0  0  0  0  0  0  0  0  0  0  0
   39.3310   24.3220   37.8930 C   0  0  0  0  0  0  0  0  0  0  0  0
   40.4110   24.5850   37.1100 C   0  0  0  0  0  0  0  0  0  0  0  0
   39.1060   24.7390   36.3780 C   0  0  0  0  0  0  0  0  0  0  0  0
   39.1450   25.1310   38.6230 H   0  0  0  0  0  0  0  0  0  0  0  0
   41.0370   25.5080   37.0500 H   0  0  0  0  0  0  0  0  0  0  0  0
   41.0310   23.7280   36.7110 H   0  0  0  0  0  0  0  0  0  0  0  0
   38.7420   23.9090   35.7570 H   0  0  0  0  0  0  0  0  0  0  0  0
   38.6860   25.7470   36.2540 H   0  0  0  0  0  0  0  0  0  0  0  0
  1  2  1  0  0  0  0
  2  3  2  0  0  0  0
  2  7  1  0  0  0  0
  3  4  1  0  0  0  0
  4  8  1  0  0  0  0
  4  5  2  0  0  0  0
  5  9  1  0  0  0  0
  6  5  1  0  0  0  0
  6 10  1  0  0  0  0
  7  6  2  0  0  0  0
 11 12  1  0  0  0  0
 11  7  1  0  0  0  0
 12 13  1  0  0  0  0
 14 15  1  0  0  0  0
 14 12  2  0  0  0  0
 16 14  1  0  0  0  0
 17 16  2  0  0  0  0
 17 18  1  0  0  0  0
 18 11  2  0  0  0  0
 19 18  1  0  0  0  0
 20 17  1  0  0  0  0
 21 30  1  0  0  0  0
 21 20  1  0  0  0  0
 22 21  2  0  0  0  0
 23 22  1  0  0  0  0
 24 26  2  0  0  0  0
 24 22  1  0  0  0  0
 25 24  1  0  0  0  0
 26 28  1  0  0  0  0
 27 26  1  0  0  0  0
 28 29  1  0  0  0  0
 28 30  2  0  0  0  0
 30 31  1  0  0  0  0
 31 32  1  0  0  0  0
 31 16  1  0  0  0  0
 33  3  1  0  0  0  0
 34 33  2  0  0  0  0
 35 33  1  0  0  0  0
 35 40  1  0  0  0  0
 36 35  2  0  0  0  0
 37 36  1  0  0  0  0
 37 38  2  0  0  0  0
 38 39  1  0  0  0  0
 39 40  2  0  0  0  0
 39 42  1  0  0  0  0
 41 37  1  0  0  0  0
 43 36  1  0  0  0  0
 43 46  1  0  0  0  0
 44 43  1  0  0  0  0
 45 44  1  0  0  0  0
 45 43  1  0  0  0  0
 47 44  1  0  0  0  0
 48 44  1  0  0  0  0
 49 45  1  0  0  0  0
 50 45  1  0  0  0  0
M  END
>  <minimizedAffinity>
-6.96822405

$$$$

 OpenBabel03242523213D

 50 55  0  0  0  0  0  0  0  0999 V2000
   41.1940   31.8620   40.4740 Cl  0  0  0  0  0  0  0  0  0  0  0  0
   39.9910   33.1370   40.2570 C   0  0  0  0  0  0  0  0  0  0  0  0
   40.4810   34.4540   40.3790 C   0  0  0  0  0  0  0  0  0  0  0  0
   39.4600   35.3710   40.1900 C   0  0  0  0  0  0  0  0  0  0  0  0
   38.1620   35.1730   39.9200 C   0  0  0  0  0  0  0  0  0  0  0  0
   37.7720   33.8660   39.8190 C   0  0  0  0  0  0  0  0  0  0  0  0
   38.6520   32.8530   39.9810 C   0  0  0  0  0  0  0  0  0  0  0  0
   39.6660   36.4580   40.2850 H   0  0  0  0  0  0  0  0  0  0  0  0
   37.4070   35.9040   39.7790 H   0  0  0  0  0  0  0  0  0  0  0  0
   36.7620   33.5320   39.6070 H   0  0  0  0  0  0  0  0  0  0  0  0
   38.2900   31.4370   39.8870 C   0  0  0  0  0  0  0  0  0  0  0  0
   38.0440   30.9970   38.5850 C   0  0  0  0  0  0  0  0  0  0  0  0
   38.1200   31.6550   37.7310 H   0  0  0  0  0  0  0  0  0  0  0  0
   37.6870   29.6630   38.3790 C   0  0  0  0  0  0  0  0  0  0  0  0
   37.5070   29.3760   37.3340 H   0  0  0  0  0  0  0  0  0  0  0  0
   37.5600   28.7370   39.3910 C   0  0  0  0  0  0  0  0  0  0  0  0
   37.8120   29.2230   40.6460 C   0  0  0  0  0  0  0  0  0  0  0  0
   38.1640   30.5160   40.9060 C   0  0  0  0  0  0  0  0  0  0  0  0
   38.3580   30.8980   41.8780 H   0  0  0  0  0  0  0  0  0  0  0  0
   37.6740   28.1050   42.0250 S   0  0  0  0  0  0  0  0  0  0  0  0
   37.2070   26.5210   41.3560 C   0  0  0  0  0  0  0  0  0  0  0  0
   37.0260   25.4540   42.1930 C   0  0  0  0  0  0  0  0  0  0  0  0
   37.1760   25.6100   43.2670 H   0  0  0  0  0  0  0  0  0  0  0  0
   36.6650   24.2080   41.7350 C   0  0  0  0  0  0  0  0  0  0  0  0
   36.5470   23.4300   42.4770 H   0  0  0  0  0  0  0  0  0  0  0  0
   36.4870   24.0590   40.3750 C   0  0  0  0  0  0  0  0  0  0  0  0
   36.2080   23.1060   40.0000 H   0  0  0  0  0  0  0  0  0  0  0  0
   36.6800   25.1610   39.5690 C   0  0  0  0  0  0  0  0  0  0  0  0
   36.5170   24.9540   38.4990 H   0  0  0  0  0  0  0  0  0  0  0  0
   37.0410   26.4200   39.9990 C   0  0  0  0  0  0  0  0  0  0  0  0
   37.1910   27.4210   39.0260 N   0  0  0  0  0  0  0  0  0  0  0  0
   37.0300   27.1920   38.0240 H   0  0  0  0  0  0  0  0  0  0  0  0
   41.8890   34.8610   40.6550 C   0  0  0  0  0  0  0  0  0  0  0  0
   41.6910   35.4740   41.6720 O   0  0  0  0  0  0  0  0  0  0  0  0
   42.7480   34.3270   39.5890 C   0  0  0  0  0  0  0  0  0  0  0  0
   43.9820   33.8240   39.7370 C   0  0  0  0  0  0  0  0  0  0  0  0
   44.6080   33.4810   38.5570 C   0  0  0  0  0  0  0  0  0  0  0  0
   43.9180   33.6790   37.3450 N   0  0  0  0  0  0  0  0  0  0  0  0
   42.7070   34.1740   37.2810 C   0  0  0  0  0  0  0  0  0  0  0  0
   42.0490   34.5310   38.4380 N   0  0  0  0  0  0  0  0  0  0  0  0
   45.6060   33.0640   38.4770 H   0  0  0  0  0  0  0  0  0  0  0  0
   42.3040   34.2660   36.2780 H   0  0  0  0  0  0  0  0  0  0  0  0
   44.6260   33.5190   40.9650 C   0  0  0  0  0  0  0  0  0  0  0  0
   45.9440   33.2760   41.1950 C   0  0  0  0  0  0  0  0  0  0  0  0
   45.5250   34.6630   41.6010 C   0  0  0  0  0  0  0  0  0  0  0  0
   43.9780   32.9910   41.6890 H   0  0  0  0  0  0  0  0  0  0  0  0
   46.4290   32.7220   42.0340 H   0  0  0  0  0  0  0  0  0  0  0  0
   46.6700   33.2820   40.3290 H   0  0  0  0  0  0  0  0  0  0  0  0
   45.7040   35.4980   40.9100 H   0  0  0  0  0  0  0  0  0  0  0  0
   45.3070   34.8590   42.6610 H   0  0  0  0  0  0  0  0  0  0  0  0
  2  3  1  0  0  0  0
  2  1  1  0  0  0  0
  3 33  1  0  0  0  0
  4  8  1  0  0  0  0
  4  3  2  0  0  0  0
  5  4  1  0  0  0  0
  6  5  2  0  0  0  0
  6  7  1  0  0  0  0
  7  2  2  0  0  0  0
  9  5  1  0  0  0  0
 10  6  1  0  0  0  0
 11  7  1  0  0  0  0
 11 18  1  0  0  0  0
 12 11  2  0  0  0  0
 13 12  1  0  0  0  0
 14 12  1  0  0  0  0
 14 16  2  0  0  0  0
 15 14  1  0  0  0  0
 16 17  1  0  0  0  0
 17 18  2  0  0  0  0
 17 20  1  0  0  0  0
 18 19  1  0  0  0  0
 21 20  1  0  0  0  0
 21 22  1  0  0  0  0
 22 23  1  0  0  0  0
 24 22  2  0  0  0  0
 24 25  1  0  0  0  0
 26 24  1  0  0  0  0
 27 26  1  0  0  0  0
 28 30  1  0  0  0  0
 28 26  2  0  0  0  0
 29 28  1  0  0  0  0
 30 21  2  0  0  0  0
 31 16  1  0  0  0  0
 31 30  1  0  0  0  0
 32 31  1  0  0  0  0
 33 34  2  0  0  0  0
 35 36  1  0  0  0  0
 35 33  1  0  0  0  0
 36 43  1  0  0  0  0
 37 36  2  0  0  0  0
 38 37  1  0  0  0  0
 39 38  2  0  0  0  0
 39 40  1  0  0  0  0
 40 35  2  0  0  0  0
 41 37  1  0  0  0  0
 42 39  1  0  0  0  0
 43 44  1  0  0  0  0
 43 45  1  0  0  0  0
 43 46  1  0  0  0  0
 44 45  1  0  0  0  0
 44 47  1  0  0  0  0
 45 50  1  0  0  0  0
 48 44  1  0  0  0  0
 49 45  1  0  0  0  0
M  END
>  <minimizedAffinity>
-6.93091059

$$$$

 OpenBabel03242523213D

 50 55  0  0  0  0  0  0  0  0999 V2000
   41.3290   31.7210   38.7580 Cl  0  0  0  0  0  0  0  0  0  0  0  0
   40.3330   33.0350   39.3900 C   0  0  0  0  0  0  0  0  0  0  0  0
   40.9550   34.3000   39.4210 C   0  0  0  0  0  0  0  0  0  0  0  0
   40.0890   35.2540   39.9300 C   0  0  0  0  0  0  0  0  0  0  0  0
   38.8240   35.1310   40.3580 C   0  0  0  0  0  0  0  0  0  0  0  0
   38.2990   33.8700   40.2920 C   0  0  0  0  0  0  0  0  0  0  0  0
   39.0200   32.8280   39.8200 C   0  0  0  0  0  0  0  0  0  0  0  0
   40.4310   36.3030   40.0570 H   0  0  0  0  0  0  0  0  0  0  0  0
   38.1890   35.8880   40.7410 H   0  0  0  0  0  0  0  0  0  0  0  0
   37.2940   33.5970   40.5960 H   0  0  0  0  0  0  0  0  0  0  0  0
   38.5110   31.4580   39.7300 C   0  0  0  0  0  0  0  0  0  0  0  0
   37.8780   31.1650   38.5210 C   0  0  0  0  0  0  0  0  0  0  0  0
   37.7840   31.8940   37.7280 H   0  0  0  0  0  0  0  0  0  0  0  0
   37.3510   29.8870   38.3270 C   0  0  0  0  0  0  0  0  0  0  0  0
   36.8670   29.7160   37.3550 H   0  0  0  0  0  0  0  0  0  0  0  0
   37.4140   28.8800   39.2650 C   0  0  0  0  0  0  0  0  0  0  0  0
   38.0440   29.2230   40.4310 C   0  0  0  0  0  0  0  0  0  0  0  0
   38.5770   30.4570   40.6740 C   0  0  0  0  0  0  0  0  0  0  0  0
   39.0650   30.7280   41.5790 H   0  0  0  0  0  0  0  0  0  0  0  0
   38.1780   27.9910   41.7100 S   0  0  0  0  0  0  0  0  0  0  0  0
   37.3950   26.5180   41.0850 C   0  0  0  0  0  0  0  0  0  0  0  0
   37.3440   25.3920   41.8610 C   0  0  0  0  0  0  0  0  0  0  0  0
   37.7950   25.4320   42.8580 H   0  0  0  0  0  0  0  0  0  0  0  0
   36.7540   24.2250   41.4330 C   0  0  0  0  0  0  0  0  0  0  0  0
   36.7660   23.3910   42.1210 H   0  0  0  0  0  0  0  0  0  0  0  0
   36.1990   24.2210   40.1710 C   0  0  0  0  0  0  0  0  0  0  0  0
   35.7380   23.3320   39.8210 H   0  0  0  0  0  0  0  0  0  0  0  0
   36.2720   25.3780   39.4240 C   0  0  0  0  0  0  0  0  0  0  0  0
   35.8050   25.2870   38.4300 H   0  0  0  0  0  0  0  0  0  0  0  0
   36.8570   26.5600   39.8250 C   0  0  0  0  0  0  0  0  0  0  0  0
   36.8340   27.6360   38.9240 N   0  0  0  0  0  0  0  0  0  0  0  0
   36.3850   27.5170   37.9930 H   0  0  0  0  0  0  0  0  0  0  0  0
   42.3390   34.6260   38.9710 C   0  0  0  0  0  0  0  0  0  0  0  0
   42.0510   35.2790   38.0010 O   0  0  0  0  0  0  0  0  0  0  0  0
   43.2920   34.0100   39.9050 C   0  0  0  0  0  0  0  0  0  0  0  0
   44.4110   33.3470   39.5780 C   0  0  0  0  0  0  0  0  0  0  0  0
   45.0760   32.7810   40.6470 C   0  0  0  0  0  0  0  0  0  0  0  0
   44.5420   32.9500   41.9380 N   0  0  0  0  0  0  0  0  0  0  0  0
   43.4410   33.6180   42.1790 C   0  0  0  0  0  0  0  0  0  0  0  0
   42.7460   34.1950   41.1380 N   0  0  0  0  0  0  0  0  0  0  0  0
   45.9930   32.2070   40.5790 H   0  0  0  0  0  0  0  0  0  0  0  0
   43.1540   33.6640   43.2250 H   0  0  0  0  0  0  0  0  0  0  0  0
   45.0060   33.2800   38.2910 C   0  0  0  0  0  0  0  0  0  0  0  0
   45.9490   32.4120   37.8360 C   0  0  0  0  0  0  0  0  0  0  0  0
   44.5630   32.0690   37.3640 C   0  0  0  0  0  0  0  0  0  0  0  0
   45.0610   34.2560   37.7740 H   0  0  0  0  0  0  0  0  0  0  0  0
   46.6660   32.5230   36.9870 H   0  0  0  0  0  0  0  0  0  0  0  0
   46.3710   31.6320   38.5370 H   0  0  0  0  0  0  0  0  0  0  0  0
   43.9890   31.3050   37.9060 H   0  0  0  0  0  0  0  0  0  0  0  0
   44.2590   32.3750   36.3520 H   0  0  0  0  0  0  0  0  0  0  0  0
  1  2  1  0  0  0  0
  2  3  2  0  0  0  0
  2  7  1  0  0  0  0
  3  4  1  0  0  0  0
  4  8  1  0  0  0  0
  4  5  2  0  0  0  0
  5  9  1  0  0  0  0
  6  5  1  0  0  0  0
  6 10  1  0  0  0  0
  7  6  2  0  0  0  0
 11  7  1  0  0  0  0
 11 18  1  0  0  0  0
 12 11  2  0  0  0  0
 13 12  1  0  0  0  0
 14 12  1  0  0  0  0
 14 16  2  0  0  0  0
 15 14  1  0  0  0  0
 16 17  1  0  0  0  0
 17 18  2  0  0  0  0
 17 20  1  0  0  0  0
 18 19  1  0  0  0  0
 21 20  1  0  0  0  0
 21 22  1  0  0  0  0
 22 23  1  0  0  0  0
 24 22  2  0  0  0  0
 24 25  1  0  0  0  0
 26 24  1  0  0  0  0
 27 26  1  0  0  0  0
 28 30  1  0  0  0  0
 28 26  2  0  0  0  0
 29 28  1  0  0  0  0
 30 21  2  0  0  0  0
 31 16  1  0  0  0  0
 31 30  1  0  0  0  0
 32 31  1  0  0  0  0
 33  3  1  0  0  0  0
 33 35  1  0  0  0  0
 34 33  2  0  0  0  0
 35 40  1  0  0  0  0
 36 35  2  0  0  0  0
 36 37  1  0  0  0  0
 37 38  2  0  0  0  0
 38 39  1  0  0  0  0
 39 42  1  0  0  0  0
 40 39  2  0  0  0  0
 41 37  1  0  0  0  0
 43 36  1  0  0  0  0
 44 43  1  0  0  0  0
 44 48  1  0  0  0  0
 45 44  1  0  0  0  0
 45 49  1  0  0  0  0
 45 43  1  0  0  0  0
 46 43  1  0  0  0  0
 47 44  1  0  0  0  0
 50 45  1  0  0  0  0
M  END
>  <minimizedAffinity>
-6.81881762

$$$$

 OpenBabel03242523213D

 50 55  0  0  0  0  0  0  0  0999 V2000
   36.6700   26.8800   38.3240 Cl  0  0  0  0  0  0  0  0  0  0  0  0
   36.7290   26.0840   39.8990 C   0  0  0  0  0  0  0  0  0  0  0  0
   36.4800   24.6960   39.8800 C   0  0  0  0  0  0  0  0  0  0  0  0
   36.5520   24.1730   41.1610 C   0  0  0  0  0  0  0  0  0  0  0  0
   36.8140   24.7810   42.3280 C   0  0  0  0  0  0  0  0  0  0  0  0
   37.0440   26.1260   42.2540 C   0  0  0  0  0  0  0  0  0  0  0  0
   37.0070   26.7850   41.0740 C   0  0  0  0  0  0  0  0  0  0  0  0
   36.3480   23.0950   41.3330 H   0  0  0  0  0  0  0  0  0  0  0  0
   36.8630   24.3450   43.2930 H   0  0  0  0  0  0  0  0  0  0  0  0
   37.2700   26.7670   43.0990 H   0  0  0  0  0  0  0  0  0  0  0  0
   37.2400   28.2240   40.9370 C   0  0  0  0  0  0  0  0  0  0  0  0
   36.0870   29.0020   41.0520 C   0  0  0  0  0  0  0  0  0  0  0  0
   35.1130   28.5660   41.2310 H   0  0  0  0  0  0  0  0  0  0  0  0
   36.1920   30.3890   40.9340 C   0  0  0  0  0  0  0  0  0  0  0  0
   35.2500   30.9470   41.0350 H   0  0  0  0  0  0  0  0  0  0  0  0
   37.3780   31.0520   40.7070 C   0  0  0  0  0  0  0  0  0  0  0  0
   38.4760   30.2410   40.6010 C   0  0  0  0  0  0  0  0  0  0  0  0
   38.4310   28.8810   40.7080 C   0  0  0  0  0  0  0  0  0  0  0  0
   39.2800   28.2470   40.6250 H   0  0  0  0  0  0  0  0  0  0  0  0
   40.0590   31.0010   40.3070 S   0  0  0  0  0  0  0  0  0  0  0  0
   39.7750   32.7580   40.2200 C   0  0  0  0  0  0  0  0  0  0  0  0
   40.8240   33.6080   39.9990 C   0  0  0  0  0  0  0  0  0  0  0  0
   41.8230   33.1740   39.8800 H   0  0  0  0  0  0  0  0  0  0  0  0
   40.6670   34.9720   39.9220 C   0  0  0  0  0  0  0  0  0  0  0  0
   41.5600   35.5570   39.7440 H   0  0  0  0  0  0  0  0  0  0  0  0
   39.3920   35.4740   40.0780 C   0  0  0  0  0  0  0  0  0  0  0  0
   39.2480   36.5230   40.0210 H   0  0  0  0  0  0  0  0  0  0  0  0
   38.3650   34.5810   40.2980 C   0  0  0  0  0  0  0  0  0  0  0  0
   37.3810   35.0660   40.4100 H   0  0  0  0  0  0  0  0  0  0  0  0
   38.4910   33.2110   40.3800 C   0  0  0  0  0  0  0  0  0  0  0  0
   37.3260   32.4620   40.6110 N   0  0  0  0  0  0  0  0  0  0  0  0
   36.4130   32.9510   40.7120 H   0  0  0  0  0  0  0  0  0  0  0  0
   36.1910   23.8560   38.6830 C   0  0  0  0  0  0  0  0  0  0  0  0
   34.9920   23.8190   38.7870 O   0  0  0  0  0  0  0  0  0  0  0  0
   37.4640   23.5240   38.0260 C   0  0  0  0  0  0  0  0  0  0  0  0
   37.7660   23.7140   36.7340 C   0  0  0  0  0  0  0  0  0  0  0  0
   38.9980   23.2220   36.3540 C   0  0  0  0  0  0  0  0  0  0  0  0
   39.8000   22.5910   37.3250 N   0  0  0  0  0  0  0  0  0  0  0  0
   39.4350   22.4450   38.5740 C   0  0  0  0  0  0  0  0  0  0  0  0
   38.2110   22.9210   38.9920 N   0  0  0  0  0  0  0  0  0  0  0  0
   39.4130   23.2800   35.3540 H   0  0  0  0  0  0  0  0  0  0  0  0
   40.1590   21.9400   39.2050 H   0  0  0  0  0  0  0  0  0  0  0  0
   37.0060   24.4530   35.7900 C   0  0  0  0  0  0  0  0  0  0  0  0
   37.0410   24.3850   34.4320 C   0  0  0  0  0  0  0  0  0  0  0  0
   35.8610   23.6640   35.0240 C   0  0  0  0  0  0  0  0  0  0  0  0
   36.7110   25.4580   36.1440 H   0  0  0  0  0  0  0  0  0  0  0  0
   36.7320   25.1440   33.6750 H   0  0  0  0  0  0  0  0  0  0  0  0
   37.7680   23.6810   33.9290 H   0  0  0  0  0  0  0  0  0  0  0  0
   35.9190   22.5780   35.1730 H   0  0  0  0  0  0  0  0  0  0  0  0
   34.8860   24.1730   35.0410 H   0  0  0  0  0  0  0  0  0  0  0  0
  1  2  1  0  0  0  0
  2  7  1  0  0  0  0
  3  2  2  0  0  0  0
  3  4  1  0  0  0  0
  4  8  1  0  0  0  0
  4  5  2  0  0  0  0
  5  9  1  0  0  0  0
  6  5  1  0  0  0  0
  6 10  1  0  0  0  0
  7  6  2  0  0  0  0
 11 12  1  0  0  0  0
 11  7  1  0  0  0  0
 12 13  1  0  0  0  0
 14 15  1  0  0  0  0
 14 12  2  0  0  0  0
 16 14  1  0  0  0  0
 17 16  2  0  0  0  0
 17 18  1  0  0  0  0
 18 11  2  0  0  0  0
 19 18  1  0  0  0  0
 20 17  1  0  0  0  0
 21 20  1  0  0  0  0
 21 30  1  0  0  0  0
 22 21  2  0  0  0  0
 23 22  1  0  0  0  0
 24 22  1  0  0  0  0
 24 26  2  0  0  0  0
 25 24  1  0  0  0  0
 26 28  1  0  0  0  0
 27 26  1  0  0  0  0
 28 30  2  0  0  0  0
 28 29  1  0  0  0  0
 30 31  1  0  0  0  0
 31 16  1  0  0  0  0
 31 32  1  0  0  0  0
 33 34  2  0  0  0  0
 33  3  1  0  0  0  0
 35 33  1  0  0  0  0
 35 40  1  0  0  0  0
 36 35  2  0  0  0  0
 37 36  1  0  0  0  0
 37 38  2  0  0  0  0
 38 39  1  0  0  0  0
 39 40  2  0  0  0  0
 39 42  1  0  0  0  0
 41 37  1  0  0  0  0
 43 46  1  0  0  0  0
 43 36  1  0  0  0  0
 44 45  1  0  0  0  0
 44 43  1  0  0  0  0
 45 50  1  0  0  0  0
 45 49  1  0  0  0  0
 45 43  1  0  0  0  0
 47 44  1  0  0  0  0
 48 44  1  0  0  0  0
M  END
>  <minimizedAffinity>
-6.78680897

$$$$

 OpenBabel03242523213D

 50 55  0  0  0  0  0  0  0  0999 V2000
   38.0960   26.4860   41.2910 Cl  0  0  0  0  0  0  0  0  0  0  0  0
   36.9900   26.0750   39.9770 C   0  0  0  0  0  0  0  0  0  0  0  0
   36.7260   24.6980   39.8210 C   0  0  0  0  0  0  0  0  0  0  0  0
   35.8500   24.4890   38.7690 C   0  0  0  0  0  0  0  0  0  0  0  0
   35.2640   25.3690   37.9460 C   0  0  0  0  0  0  0  0  0  0  0  0
   35.5750   26.6820   38.1670 C   0  0  0  0  0  0  0  0  0  0  0  0
   36.4190   27.0500   39.1570 C   0  0  0  0  0  0  0  0  0  0  0  0
   35.5610   23.4540   38.4860 H   0  0  0  0  0  0  0  0  0  0  0  0
   34.5940   25.1700   37.1490 H   0  0  0  0  0  0  0  0  0  0  0  0
   35.1890   27.5190   37.5950 H   0  0  0  0  0  0  0  0  0  0  0  0
   36.7900   28.4390   39.4370 C   0  0  0  0  0  0  0  0  0  0  0  0
   35.8340   29.1480   40.1670 C   0  0  0  0  0  0  0  0  0  0  0  0
   34.9070   28.6970   40.4930 H   0  0  0  0  0  0  0  0  0  0  0  0
   36.0830   30.4830   40.4880 C   0  0  0  0  0  0  0  0  0  0  0  0
   35.2950   30.9880   41.0640 H   0  0  0  0  0  0  0  0  0  0  0  0
   37.2270   31.1600   40.1270 C   0  0  0  0  0  0  0  0  0  0  0  0
   38.1290   30.4170   39.4120 C   0  0  0  0  0  0  0  0  0  0  0  0
   37.9380   29.1090   39.0710 C   0  0  0  0  0  0  0  0  0  0  0  0
   38.6340   28.5290   38.5150 H   0  0  0  0  0  0  0  0  0  0  0  0
   39.6430   31.1990   38.8960 S   0  0  0  0  0  0  0  0  0  0  0  0
   39.5820   32.8770   39.4920 C   0  0  0  0  0  0  0  0  0  0  0  0
   40.6230   33.7280   39.2420 C   0  0  0  0  0  0  0  0  0  0  0  0
   41.4770   33.3440   38.6730 H   0  0  0  0  0  0  0  0  0  0  0  0
   40.6330   35.0330   39.6760 C   0  0  0  0  0  0  0  0  0  0  0  0
   41.5040   35.6250   39.4270 H   0  0  0  0  0  0  0  0  0  0  0  0
   39.5370   35.4730   40.3890 C   0  0  0  0  0  0  0  0  0  0  0  0
   39.5220   36.4760   40.7330 H   0  0  0  0  0  0  0  0  0  0  0  0
   38.5100   34.5820   40.6170 C   0  0  0  0  0  0  0  0  0  0  0  0
   37.6750   35.0150   41.1920 H   0  0  0  0  0  0  0  0  0  0  0  0
   38.4720   33.2700   40.1950 C   0  0  0  0  0  0  0  0  0  0  0  0
   37.3370   32.5120   40.5250 N   0  0  0  0  0  0  0  0  0  0  0  0
   36.5670   32.9510   41.0690 H   0  0  0  0  0  0  0  0  0  0  0  0
   37.2710   23.5850   40.6510 C   0  0  0  0  0  0  0  0  0  0  0  0
   36.8000   23.9160   41.7080 O   0  0  0  0  0  0  0  0  0  0  0  0
   38.0630   22.7010   39.7840 C   0  0  0  0  0  0  0  0  0  0  0  0
   39.2170   23.0090   39.1750 C   0  0  0  0  0  0  0  0  0  0  0  0
   39.7040   22.0260   38.3370 C   0  0  0  0  0  0  0  0  0  0  0  0
   38.9730   20.8300   38.2060 N   0  0  0  0  0  0  0  0  0  0  0  0
   37.8510   20.6000   38.8410 C   0  0  0  0  0  0  0  0  0  0  0  0
   37.3310   21.5570   39.6840 N   0  0  0  0  0  0  0  0  0  0  0  0
   40.6180   22.0950   37.7590 H   0  0  0  0  0  0  0  0  0  0  0  0
   37.4030   19.6320   38.6410 H   0  0  0  0  0  0  0  0  0  0  0  0
   40.0070   24.1670   39.4000 C   0  0  0  0  0  0  0  0  0  0  0  0
   41.1940   24.5080   38.8310 C   0  0  0  0  0  0  0  0  0  0  0  0
   40.0270   25.2510   38.2410 C   0  0  0  0  0  0  0  0  0  0  0  0
   39.9020   24.5860   40.4180 H   0  0  0  0  0  0  0  0  0  0  0  0
   41.9870   25.2010   39.2030 H   0  0  0  0  0  0  0  0  0  0  0  0
   41.6770   23.8060   38.0890 H   0  0  0  0  0  0  0  0  0  0  0  0
   39.5780   24.8860   37.3070 H   0  0  0  0  0  0  0  0  0  0  0  0
   39.8220   26.2750   38.5890 H   0  0  0  0  0  0  0  0  0  0  0  0
  2  1  1  0  0  0  0
  3  2  1  0  0  0  0
  3 33  1  0  0  0  0
  4  3  2  0  0  0  0
  5  6  2  0  0  0  0
  5  4  1  0  0  0  0
  6  7  1  0  0  0  0
  7 11  1  0  0  0  0
  7  2  2  0  0  0  0
  8  4  1  0  0  0  0
  9  5  1  0  0  0  0
 10  6  1  0  0  0  0
 11 12  1  0  0  0  0
 12 14  2  0  0  0  0
 12 13  1  0  0  0  0
 14 15  1  0  0  0  0
 16 14  1  0  0  0  0
 16 31  1  0  0  0  0
 17 16  2  0  0  0  0
 18 17  1  0  0  0  0
 18 11  2  0  0  0  0
 19 18  1  0  0  0  0
 20 17  1  0  0  0  0
 20 21  1  0  0  0  0
 21 30  1  0  0  0  0
 22 21  2  0  0  0  0
 22 24  1  0  0  0  0
 23 22  1  0  0  0  0
 24 26  2  0  0  0  0
 25 24  1  0  0  0  0
 26 28  1  0  0  0  0
 26 27  1  0  0  0  0
 28 29  1  0  0  0  0
 30 31  1  0  0  0  0
 30 28  2  0  0  0  0
 31 32  1  0  0  0  0
 33 34  2  0  0  0  0
 35 33  1  0  0  0  0
 36 43  1  0  0  0  0
 36 35  2  0  0  0  0
 37 36  1  0  0  0  0
 38 37  2  0  0  0  0
 38 39  1  0  0  0  0
 39 40  2  0  0  0  0
 40 35  1  0  0  0  0
 41 37  1  0  0  0  0
 42 39  1  0  0  0  0
 43 46  1  0  0  0  0
 44 47  1  0  0  0  0
 44 43  1  0  0  0  0
 45 50  1  0  0  0  0
 45 44  1  0  0  0  0
 45 43  1  0  0  0  0
 48 44  1  0  0  0  0
 49 45  1  0  0  0  0
M  END
>  <minimizedAffinity>
-6.58193731

$$$$

 OpenBabel03242523213D

 50 55  0  0  0  0  0  0  0  0999 V2000
   37.7980   26.5280   40.9830 Cl  0  0  0  0  0  0  0  0  0  0  0  0
   36.7140   26.2450   39.6180 C   0  0  0  0  0  0  0  0  0  0  0  0
   36.3680   24.8970   39.3950 C   0  0  0  0  0  0  0  0  0  0  0  0
   35.5160   24.7880   38.3070 C   0  0  0  0  0  0  0  0  0  0  0  0
   35.0150   25.7390   37.5050 C   0  0  0  0  0  0  0  0  0  0  0  0
   35.4020   27.0180   37.7930 C   0  0  0  0  0  0  0  0  0  0  0  0
   36.2340   27.2890   38.8240 C   0  0  0  0  0  0  0  0  0  0  0  0
   35.1710   23.7870   37.9710 H   0  0  0  0  0  0  0  0  0  0  0  0
   34.3610   25.6170   36.6800 H   0  0  0  0  0  0  0  0  0  0  0  0
   35.0900   27.9020   37.2460 H   0  0  0  0  0  0  0  0  0  0  0  0
   36.6840   28.6380   39.1750 C   0  0  0  0  0  0  0  0  0  0  0  0
   35.8160   29.3230   40.0280 C   0  0  0  0  0  0  0  0  0  0  0  0
   34.8980   28.8830   40.3910 H   0  0  0  0  0  0  0  0  0  0  0  0
   36.1450   30.6200   40.4260 C   0  0  0  0  0  0  0  0  0  0  0  0
   35.4240   31.1080   41.0970 H   0  0  0  0  0  0  0  0  0  0  0  0
   37.2860   31.2800   40.0270 C   0  0  0  0  0  0  0  0  0  0  0  0
   38.1000   30.5610   39.1910 C   0  0  0  0  0  0  0  0  0  0  0  0
   37.8280   29.2910   38.7710 C   0  0  0  0  0  0  0  0  0  0  0  0
   38.4550   28.7310   38.1210 H   0  0  0  0  0  0  0  0  0  0  0  0
   39.6020   31.3250   38.6170 S   0  0  0  0  0  0  0  0  0  0  0  0
   39.6560   32.9530   39.3380 C   0  0  0  0  0  0  0  0  0  0  0  0
   40.7110   33.7830   39.0710 C   0  0  0  0  0  0  0  0  0  0  0  0
   41.5030   33.4130   38.4100 H   0  0  0  0  0  0  0  0  0  0  0  0
   40.8090   35.0500   39.5980 C   0  0  0  0  0  0  0  0  0  0  0  0
   41.6830   35.6260   39.3250 H   0  0  0  0  0  0  0  0  0  0  0  0
   39.7890   35.4730   40.4240 C   0  0  0  0  0  0  0  0  0  0  0  0
   39.8430   36.4470   40.8410 H   0  0  0  0  0  0  0  0  0  0  0  0
   38.7450   34.6050   40.6660 C   0  0  0  0  0  0  0  0  0  0  0  0
   37.9760   35.0230   41.3350 H   0  0  0  0  0  0  0  0  0  0  0  0
   38.6210   33.3320   40.1530 C   0  0  0  0  0  0  0  0  0  0  0  0
   37.4830   32.5930   40.5140 N   0  0  0  0  0  0  0  0  0  0  0  0
   36.7750   33.0170   41.1470 H   0  0  0  0  0  0  0  0  0  0  0  0
   36.8110   23.7170   40.1910 C   0  0  0  0  0  0  0  0  0  0  0  0
   36.1720   23.9360   41.1880 O   0  0  0  0  0  0  0  0  0  0  0  0
   37.7550   22.9340   39.3820 C   0  0  0  0  0  0  0  0  0  0  0  0
   37.5770   21.6810   38.9400 C   0  0  0  0  0  0  0  0  0  0  0  0
   38.6650   21.1430   38.2830 C   0  0  0  0  0  0  0  0  0  0  0  0
   39.8210   21.9330   38.1370 N   0  0  0  0  0  0  0  0  0  0  0  0
   39.9190   23.1560   38.5950 C   0  0  0  0  0  0  0  0  0  0  0  0
   38.8550   23.7270   39.2590 N   0  0  0  0  0  0  0  0  0  0  0  0
   38.7090   20.1460   37.8590 H   0  0  0  0  0  0  0  0  0  0  0  0
   40.8710   23.6400   38.4050 H   0  0  0  0  0  0  0  0  0  0  0  0
   36.3700   20.9330   38.9870 C   0  0  0  0  0  0  0  0  0  0  0  0
   35.0910   21.3790   38.8720 C   0  0  0  0  0  0  0  0  0  0  0  0
   35.6020   20.7330   37.6130 C   0  0  0  0  0  0  0  0  0  0  0  0
   36.4350   20.0240   39.6130 H   0  0  0  0  0  0  0  0  0  0  0  0
   34.1410   20.9110   39.2260 H   0  0  0  0  0  0  0  0  0  0  0  0
   34.8960   22.4840   38.7410 H   0  0  0  0  0  0  0  0  0  0  0  0
   35.9950   21.3700   36.8080 H   0  0  0  0  0  0  0  0  0  0  0  0
   35.3290   19.6880   37.4070 H   0  0  0  0  0  0  0  0  0  0  0  0
  2  1  1  0  0  0  0
  3  2  1  0  0  0  0
  3 33  1  0  0  0  0
  4  3  2  0  0  0  0
  5  6  2  0  0  0  0
  5  4  1  0  0  0  0
  6  7  1  0  0  0  0
  7 11  1  0  0  0  0
  7  2  2  0  0  0  0
  8  4  1  0  0  0  0
  9  5  1  0  0  0  0
 10  6  1  0  0  0  0
 11 12  1  0  0  0  0
 12 13  1  0  0  0  0
 12 14  2  0  0  0  0
 14 15  1  0  0  0  0
 16 14  1  0  0  0  0
 16 31  1  0  0  0  0
 17 16  2  0  0  0  0
 18 11  2  0  0  0  0
 18 17  1  0  0  0  0
 19 18  1  0  0  0  0
 20 17  1  0  0  0  0
 20 21  1  0  0  0  0
 21 30  1  0  0  0  0
 22 21  2  0  0  0  0
 22 24  1  0  0  0  0
 23 22  1  0  0  0  0
 24 26  2  0  0  0  0
 25 24  1  0  0  0  0
 26 28  1  0  0  0  0
 26 27  1  0  0  0  0
 28 29  1  0  0  0  0
 30 31  1  0  0  0  0
 30 28  2  0  0  0  0
 31 32  1  0  0  0  0
 33 34  2  0  0  0  0
 35 33  1  0  0  0  0
 36 43  1  0  0  0  0
 36 35  2  0  0  0  0
 37 36  1  0  0  0  0
 38 37  2  0  0  0  0
 38 39  1  0  0  0  0
 39 40  2  0  0  0  0
 40 35  1  0  0  0  0
 41 37  1  0  0  0  0
 42 39  1  0  0  0  0
 43 46  1  0  0  0  0
 44 43  1  0  0  0  0
 44 47  1  0  0  0  0
 45 44  1  0  0  0  0
 45 43  1  0  0  0  0
 48 44  1  0  0  0  0
 49 45  1  0  0  0  0
 50 45  1  0  0  0  0
M  END
>  <minimizedAffinity>
-6.50797224

$$$$
