REMARK  Name = 
REMARK  3 active torsions:
REMARK  status: ('A' for Active; 'I' for Inactive)
REMARK    1  A    between atoms: C_3  and  C_7
REMARK    2  A    between atoms: C_5  and  C_11
REMARK    3  A    between atoms: C_11  and  C_15
REMARK                            x       y       z     vdW  Elec       q    Type
REMARK                         _______ _______ _______ _____ _____    ______ ____
ROOT
ATOM      1  C   UNL     1      46.873  32.147  46.547  0.00  0.00    +0.000 A 
ATOM      2  C   UNL     1      46.863  30.999  45.786  0.00  0.00    +0.000 A 
ATOM      3  H   UNL     1      46.093  30.764  45.071  0.00  0.00    +0.000 HD
ATOM      4  C   UNL     1      47.856  30.037  45.866  0.00  0.00    +0.000 A 
ATOM      5  H   UNL     1      47.794  29.135  45.234  0.00  0.00    +0.000 HD
ATOM      6  C   UNL     1      48.940  30.172  46.728  0.00  0.00    +0.000 A 
ATOM      7  C   UNL     1      48.923  31.327  47.474  0.00  0.00    +0.000 A 
ATOM      8  C   UNL     1      47.954  32.258  47.394  0.00  0.00    +0.000 A 
ATOM      9  H   UNL     1      47.981  33.165  48.016  0.00  0.00    +0.000 HD
ATOM     10  S   UNL     1      50.258  31.619  48.618  0.00  0.00    +0.000 S 
ATOM     11  C   UNL     1      51.352  30.224  48.444  0.00  0.00    +0.000 A 
ATOM     12  C   UNL     1      52.469  30.239  49.213  0.00  0.00    +0.000 A 
ATOM     13  H   UNL     1      52.693  31.050  49.899  0.00  0.00    +0.000 HD
ATOM     14  C   UNL     1      53.334  29.155  49.090  0.00  0.00    +0.000 A 
ATOM     15  H   UNL     1      54.229  29.133  49.689  0.00  0.00    +0.000 HD
ATOM     16  C   UNL     1      53.103  28.090  48.235  0.00  0.00    +0.000 A 
ATOM     17  H   UNL     1      53.768  27.255  48.145  0.00  0.00    +0.000 HD
ATOM     18  C   UNL     1      51.932  28.162  47.486  0.00  0.00    +0.000 A 
ATOM     19  H   UNL     1      51.768  27.306  46.813  0.00  0.00    +0.000 HD
ATOM     20  C   UNL     1      51.047  29.214  47.573  0.00  0.00    +0.000 A 
ATOM     21  N   UNL     1      49.919  29.164  46.754  0.00  0.00    +0.000 N 
ATOM     22  H   UNL     1      49.783  28.345  46.123  0.00  0.00    +0.000 HD
ENDROOT
BRANCH   1  23
ATOM     23  C   UNL     1      45.825  33.151  46.449  0.00  0.00    +0.000 C 
ATOM     24  O   UNL     1      45.030  33.186  47.433  0.00  0.00    +0.000 OA
BRANCH  23  29
ATOM     25  C   UNL     1      44.598  35.929  44.425  0.00  0.00    +0.000 A 
ATOM     26  C   UNL     1      45.332  35.856  43.221  0.00  0.00    +0.000 A 
ATOM     27  C   UNL     1      46.250  34.819  43.142  0.00  0.00    +0.000 A 
ATOM     28  N   UNL     1      46.349  34.002  44.195  0.00  0.00    +0.000 NA
ATOM     29  C   UNL     1      45.660  34.064  45.335  0.00  0.00    +0.000 A 
ATOM     30  N   UNL     1      44.758  35.065  45.439  0.00  0.00    +0.000 NA
ATOM     31  H   UNL     1      43.875  36.733  44.513  0.00  0.00    +0.000 HD
ATOM     32  H   UNL     1      45.213  36.542  42.409  0.00  0.00    +0.000 HD
BRANCH  27  33
ATOM     33  C   UNL     1      47.032  34.721  41.903  0.00  0.00    +0.000 C 
ATOM     34  F   UNL     1      47.845  33.601  41.946  0.00  0.00    +0.000 F 
ATOM     35  F   UNL     1      47.907  35.821  41.910  0.00  0.00    +0.000 F 
ATOM     36  F   UNL     1      46.269  34.684  40.784  0.00  0.00    +0.000 F 
ENDBRANCH  27  33
ENDBRANCH  23  29
ENDBRANCH   1  23
TORSDOF 3
