REMARK  Name = 
REMARK  4 active torsions:
REMARK  status: ('A' for Active; 'I' for Inactive)
REMARK    1  A    between atoms: C_3  and  C_7
REMARK    2  A    between atoms: C_7  and  C_8
REMARK    3  A    between atoms: C_8  and  C_9
REMARK    4  A    between atoms: C_11  and  C_23
REMARK                            x       y       z     vdW  Elec       q    Type
REMARK                         _______ _______ _______ _____ _____    ______ ____
ROOT
ATOM      1  C   UNL     1      48.831  34.939  41.410  0.00  0.00    +0.000 C 
ATOM      2  C   UNL     1      49.716  35.136  42.538  0.00  0.00    +0.000 C 
ATOM      3  C   UNL     1      49.551  33.818  41.789  0.00  0.00    +0.000 C 
ATOM      4  H   UNL     1      49.105  35.592  40.530  0.00  0.00    +0.000 HD
ATOM      5  H   UNL     1      49.423  35.196  43.583  0.00  0.00    +0.000 HD
ATOM      6  H   UNL     1      50.749  35.573  42.392  0.00  0.00    +0.000 HD
ATOM      7  H   UNL     1      50.268  33.586  40.926  0.00  0.00    +0.000 HD
ENDROOT
BRANCH   3   8
ATOM      8  C   UNL     1      49.876  32.712  42.610  0.00  0.00    +0.000 A 
ATOM      9  C   UNL     1      48.937  31.974  43.352  0.00  0.00    +0.000 A 
ATOM     10  H   UNL     1      47.901  32.285  43.309  0.00  0.00    +0.000 HD
ATOM     11  C   UNL     1      49.364  30.901  44.094  0.00  0.00    +0.000 A 
ATOM     12  H   UNL     1      48.551  30.396  44.633  0.00  0.00    +0.000 HD
ATOM     13  C   UNL     1      50.696  30.547  44.116  0.00  0.00    +0.000 A 
ATOM     14  C   UNL     1      51.651  31.210  43.429  0.00  0.00    +0.000 A 
ATOM     15  C   UNL     1      51.205  32.262  42.707  0.00  0.00    +0.000 A 
ATOM     16  H   UNL     1      51.945  32.830  42.133  0.00  0.00    +0.000 HD
ATOM     17  S   UNL     1      53.335  30.694  43.509  0.00  0.00    +0.000 S 
ATOM     18  C   UNL     1      53.356  29.271  44.591  0.00  0.00    +0.000 A 
ATOM     19  C   UNL     1      54.596  28.732  44.770  0.00  0.00    +0.000 A 
ATOM     20  H   UNL     1      55.502  29.091  44.325  0.00  0.00    +0.000 HD
ATOM     21  C   UNL     1      54.716  27.619  45.598  0.00  0.00    +0.000 A 
ATOM     22  H   UNL     1      55.650  27.122  45.802  0.00  0.00    +0.000 HD
ATOM     23  C   UNL     1      53.585  27.112  46.199  0.00  0.00    +0.000 A 
ATOM     24  H   UNL     1      53.660  26.247  46.845  0.00  0.00    +0.000 HD
ATOM     25  C   UNL     1      52.395  27.725  45.954  0.00  0.00    +0.000 A 
ATOM     26  H   UNL     1      51.524  27.276  46.461  0.00  0.00    +0.000 HD
ATOM     27  C   UNL     1      52.180  28.829  45.151  0.00  0.00    +0.000 A 
ATOM     28  N   UNL     1      50.925  29.421  44.934  0.00  0.00    +0.000 N 
ATOM     29  H   UNL     1      50.166  28.903  45.473  0.00  0.00    +0.000 HD
ENDBRANCH   3   8
BRANCH   1  30
ATOM     30  C   UNL     1      47.341  35.046  41.593  0.00  0.00    +0.000 C 
ATOM     31  H   UNL     1      47.192  36.039  42.110  0.00  0.00    +0.000 HD
ATOM     32  H   UNL     1      46.786  35.050  40.655  0.00  0.00    +0.000 HD
BRANCH  30  33
ATOM     33  C   UNL     1      47.019  33.905  42.504  0.00  0.00    +0.000 C 
ATOM     34  H   UNL     1      47.885  33.731  43.167  0.00  0.00    +0.000 HD
ATOM     35  H   UNL     1      46.623  33.019  42.003  0.00  0.00    +0.000 HD
BRANCH  33  38
ATOM     36  C   UNL     1      44.600  36.003  44.463  0.00  0.00    +0.000 A 
ATOM     37  C   UNL     1      45.405  35.534  43.396  0.00  0.00    +0.000 A 
ATOM     38  C   UNL     1      46.131  34.395  43.597  0.00  0.00    +0.000 A 
ATOM     39  N   UNL     1      46.055  33.755  44.800  0.00  0.00    +0.000 NA
ATOM     40  C   UNL     1      45.299  34.206  45.785  0.00  0.00    +0.000 A 
ATOM     41  N   UNL     1      44.574  35.318  45.631  0.00  0.00    +0.000 NA
ATOM     42  H   UNL     1      43.990  36.892  44.408  0.00  0.00    +0.000 HD
ATOM     43  H   UNL     1      45.310  36.174  42.536  0.00  0.00    +0.000 HD
ATOM     44  H   UNL     1      45.213  33.726  46.754  0.00  0.00    +0.000 HD
ENDBRANCH  33  38
ENDBRANCH  30  33
ENDBRANCH   1  30
TORSDOF 4
