
     RDKit          3D

 37 40  0  0  0  0  0  0  0  0999 V2000
   47.8426   34.7916   42.4149 C   0  0  0  0  0  0  0  0  0  0  0  0
   48.1090   33.5675   43.0692 C   0  0  0  0  0  0  0  0  0  0  0  0
   47.1762   33.1112   44.0139 C   0  0  0  0  0  0  0  0  0  0  0  0
   46.0794   33.8708   44.2405 N   0  0  0  0  0  0  0  0  0  0  0  0
   45.8531   35.0363   43.5990 C   0  0  0  0  0  0  0  0  0  0  0  0
   46.7269   35.4849   42.6996 N   0  0  0  0  0  0  0  0  0  0  0  0
   48.8448   35.2482   41.4229 C   0  0  0  0  0  0  0  0  0  0  0  0
   48.3785   35.1687   40.1357 F   0  0  0  0  0  0  0  0  0  0  0  0
   49.1947   36.5691   41.7318 F   0  0  0  0  0  0  0  0  0  0  0  0
   50.0231   34.5123   41.5808 F   0  0  0  0  0  0  0  0  0  0  0  0
   44.6242   35.8223   43.8972 C   0  0  0  0  0  0  0  0  0  0  0  0
   43.6368   35.5799   42.9773 F   0  0  0  0  0  0  0  0  0  0  0  0
   44.9329   37.1946   43.9199 F   0  0  0  0  0  0  0  0  0  0  0  0
   44.1198   35.5475   45.1503 F   0  0  0  0  0  0  0  0  0  0  0  0
   48.9760   32.9912   42.8736 H   0  0  0  0  0  0  0  0  0  0  0  0
   47.3307   31.8705   44.7554 C   0  0  0  0  0  0  0  0  0  0  0  0
   48.4586   31.1202   44.5013 C   0  0  0  0  0  0  0  0  0  0  0  0
   49.2022   31.4247   43.7886 H   0  0  0  0  0  0  0  0  0  0  0  0
   48.6053   29.9261   45.2162 C   0  0  0  0  0  0  0  0  0  0  0  0
   49.5065   29.3712   44.9828 H   0  0  0  0  0  0  0  0  0  0  0  0
   47.7155   29.4411   46.1512 C   0  0  0  0  0  0  0  0  0  0  0  0
   46.6199   30.2469   46.3455 C   0  0  0  0  0  0  0  0  0  0  0  0
   46.4256   31.4101   45.6840 C   0  0  0  0  0  0  0  0  0  0  0  0
   45.5372   31.9893   45.8920 H   0  0  0  0  0  0  0  0  0  0  0  0
   45.4047   29.7110   47.5361 S   0  0  0  0  0  0  0  0  0  0  0  0
   45.9851   28.1682   48.1943 C   0  0  0  0  0  0  0  0  0  0  0  0
   45.2200   27.5447   49.1389 C   0  0  0  0  0  0  0  0  0  0  0  0
   44.2793   27.9969   49.4693 H   0  0  0  0  0  0  0  0  0  0  0  0
   45.6050   26.3435   49.6967 C   0  0  0  0  0  0  0  0  0  0  0  0
   44.9527   25.9062   50.4379 H   0  0  0  0  0  0  0  0  0  0  0  0
   46.7927   25.7937   49.2653 C   0  0  0  0  0  0  0  0  0  0  0  0
   47.1160   24.8523   49.6880 H   0  0  0  0  0  0  0  0  0  0  0  0
   47.5262   26.4644   48.3100 C   0  0  0  0  0  0  0  0  0  0  0  0
   48.4448   25.9643   48.0274 H   0  0  0  0  0  0  0  0  0  0  0  0
   47.1672   27.6658   47.7344 C   0  0  0  0  0  0  0  0  0  0  0  0
   48.0159   28.2228   46.7781 N   0  0  0  0  0  0  0  0  0  0  0  0
   48.8925   27.7208   46.5254 H   0  0  0  0  0  0  0  0  0  0  0  0
  1  6  2  0
  1  2  1  0
  2  3  2  0
  3  4  1  0
  5 11  1  0
  5  4  2  0
  6  5  1  0
  7 10  1  0
  7  9  1  0
  7  1  1  0
  8  7  1  0
 11 13  1  0
 11 14  1  0
 12 11  1  0
  2 15  1  0
 16 17  2  0
 17 18  1  0
 17 19  1  0
 19 20  1  0
 19 21  2  0
 21 22  1  0
 22 23  2  0
 23 24  1  0
 22 25  1  0
 25 26  1  0
 26 27  2  0
 27 28  1  0
 27 29  1  0
 29 30  1  0
 29 31  2  0
 31 32  1  0
 31 33  1  0
 33 34  1  0
 33 35  2  0
 35 36  1  0
 36 37  1  0
 23 16  1  0
 35 26  1  0
 36 21  1  0
  3 16  1  0
M  ISO  8  15  14  18  16  20  16  24  16  28  16  30  16  32  16  34  16
M  ISO  1  37   5
M  END
>  <DihAtoms>  (1) 
1,2,15,16

>  <DihDeg>  (1) 
179.99777258675522

$$$$
