
 OpenBabel03242523193D

 50 55  0  0  0  0  0  0  0  0999 V2000
   44.5150   31.6940   43.0670 Cl  0  0  0  0  0  0  0  0  0  0  0  0
   44.5490   33.4340   42.7670 C   0  0  0  0  0  0  0  0  0  0  0  0
   45.4830   34.1590   43.5360 C   0  0  0  0  0  0  0  0  0  0  0  0
   45.4280   35.5070   43.2200 C   0  0  0  0  0  0  0  0  0  0  0  0
   44.6570   36.1560   42.3360 C   0  0  0  0  0  0  0  0  0  0  0  0
   43.7800   35.3770   41.6330 C   0  0  0  0  0  0  0  0  0  0  0  0
   43.7110   34.0400   41.8280 C   0  0  0  0  0  0  0  0  0  0  0  0
   46.0770   36.2300   43.7600 H   0  0  0  0  0  0  0  0  0  0  0  0
   44.6450   37.1930   42.1200 H   0  0  0  0  0  0  0  0  0  0  0  0
   43.0870   35.7400   40.8820 H   0  0  0  0  0  0  0  0  0  0  0  0
   42.7900   33.1580   41.1080 C   0  0  0  0  0  0  0  0  0  0  0  0
   43.2160   32.8160   39.8240 C   0  0  0  0  0  0  0  0  0  0  0  0
   44.1490   33.1750   39.4120 H   0  0  0  0  0  0  0  0  0  0  0  0
   42.4120   31.9810   39.0470 C   0  0  0  0  0  0  0  0  0  0  0  0
   42.8000   31.7470   38.0450 H   0  0  0  0  0  0  0  0  0  0  0  0
   41.2060   31.4650   39.4670 C   0  0  0  0  0  0  0  0  0  0  0  0
   40.8370   31.8340   40.7340 C   0  0  0  0  0  0  0  0  0  0  0  0
   41.5840   32.6470   41.5380 C   0  0  0  0  0  0  0  0  0  0  0  0
   41.3000   32.9370   42.5200 H   0  0  0  0  0  0  0  0  0  0  0  0
   39.2940   31.2190   41.3730 S   0  0  0  0  0  0  0  0  0  0  0  0
   38.5770   30.2050   40.0970 C   0  0  0  0  0  0  0  0  0  0  0  0
   37.3730   29.5930   40.3080 C   0  0  0  0  0  0  0  0  0  0  0  0
   36.8770   29.7470   41.2730 H   0  0  0  0  0  0  0  0  0  0  0  0
   36.7690   28.7970   39.3600 C   0  0  0  0  0  0  0  0  0  0  0  0
   35.8180   28.3590   39.6250 H   0  0  0  0  0  0  0  0  0  0  0  0
   37.4290   28.6320   38.1600 C   0  0  0  0  0  0  0  0  0  0  0  0
   36.9830   28.0220   37.4150 H   0  0  0  0  0  0  0  0  0  0  0  0
   38.6410   29.2670   37.9900 C   0  0  0  0  0  0  0  0  0  0  0  0
   39.0970   29.0800   37.0060 H   0  0  0  0  0  0  0  0  0  0  0  0
   39.2690   30.0680   38.9190 C   0  0  0  0  0  0  0  0  0  0  0  0
   40.5030   30.6320   38.5660 N   0  0  0  0  0  0  0  0  0  0  0  0
   40.9070   30.4360   37.6270 H   0  0  0  0  0  0  0  0  0  0  0  0
   46.4290   33.6060   44.5460 C   0  0  0  0  0  0  0  0  0  0  0  0
   45.8660   33.9950   45.5370 O   0  0  0  0  0  0  0  0  0  0  0  0
   47.5100   32.9030   43.8390 C   0  0  0  0  0  0  0  0  0  0  0  0
   48.3650   33.4410   42.9580 C   0  0  0  0  0  0  0  0  0  0  0  0
   49.2220   32.5360   42.3650 C   0  0  0  0  0  0  0  0  0  0  0  0
   49.1270   31.1790   42.7290 N   0  0  0  0  0  0  0  0  0  0  0  0
   48.2640   30.7290   43.6060 C   0  0  0  0  0  0  0  0  0  0  0  0
   47.3900   31.6010   44.2180 N   0  0  0  0  0  0  0  0  0  0  0  0
   49.9790   32.7820   41.6280 H   0  0  0  0  0  0  0  0  0  0  0  0
   48.3110   29.6600   43.7850 H   0  0  0  0  0  0  0  0  0  0  0  0
   48.5350   34.8230   42.6810 C   0  0  0  0  0  0  0  0  0  0  0  0
   49.5970   35.4500   42.1090 C   0  0  0  0  0  0  0  0  0  0  0  0
   48.4470   35.2600   41.1580 C   0  0  0  0  0  0  0  0  0  0  0  0
   47.9920   35.4860   43.3800 H   0  0  0  0  0  0  0  0  0  0  0  0
   49.9110   36.5190   42.1770 H   0  0  0  0  0  0  0  0  0  0  0  0
   50.5050   34.8470   41.8130 H   0  0  0  0  0  0  0  0  0  0  0  0
   48.4610   34.4060   40.4680 H   0  0  0  0  0  0  0  0  0  0  0  0
   47.7650   36.1040   40.9780 H   0  0  0  0  0  0  0  0  0  0  0  0
  2  1  1  0  0  0  0
  2  3  1  0  0  0  0
  3 33  1  0  0  0  0
  4  3  2  0  0  0  0
  4  8  1  0  0  0  0
  5  4  1  0  0  0  0
  6  7  1  0  0  0  0
  6  5  2  0  0  0  0
  7  2  2  0  0  0  0
  9  5  1  0  0  0  0
 10  6  1  0  0  0  0
 11 18  1  0  0  0  0
 11  7  1  0  0  0  0
 12 11  2  0  0  0  0
 13 12  1  0  0  0  0
 14 16  2  0  0  0  0
 14 12  1  0  0  0  0
 15 14  1  0  0  0  0
 16 17  1  0  0  0  0
 17 20  1  0  0  0  0
 17 18  2  0  0  0  0
 18 19  1  0  0  0  0
 21 22  1  0  0  0  0
 21 20  1  0  0  0  0
 22 23  1  0  0  0  0
 24 25  1  0  0  0  0
 24 22  2  0  0  0  0
 26 24  1  0  0  0  0
 27 26  1  0  0  0  0
 28 26  2  0  0  0  0
 28 30  1  0  0  0  0
 29 28  1  0  0  0  0
 30 21  2  0  0  0  0
 31 30  1  0  0  0  0
 31 16  1  0  0  0  0
 32 31  1  0  0  0  0
 33 34  2  0  0  0  0
 35 40  1  0  0  0  0
 35 33  1  0  0  0  0
 36 35  2  0  0  0  0
 37 38  2  0  0  0  0
 37 36  1  0  0  0  0
 38 39  1  0  0  0  0
 39 42  1  0  0  0  0
 39 40  2  0  0  0  0
 41 37  1  0  0  0  0
 43 36  1  0  0  0  0
 43 46  1  0  0  0  0
 44 47  1  0  0  0  0
 44 43  1  0  0  0  0
 45 44  1  0  0  0  0
 45 43  1  0  0  0  0
 48 44  1  0  0  0  0
 49 45  1  0  0  0  0
 50 45  1  0  0  0  0
M  END
>  <minimizedAffinity>
-6.772439

>  <minimizedRMSD>
0.423078328

$$$$
