
 OpenBabel03252504103D

 38 41  0  0  0  0  0  0  0  0999 V2000
   47.8130   30.9840   44.7370 C   0  0  0  0  0  0  0  0  0  0  0  0
   47.5640   30.5630   46.0270 C   0  0  0  0  0  0  0  0  0  0  0  0
   46.8270   31.0640   46.6130 H   0  0  0  0  0  0  0  0  0  0  0  0
   48.2860   29.4940   46.5160 C   0  0  0  0  0  0  0  0  0  0  0  0
   48.0330   29.2150   47.5510 H   0  0  0  0  0  0  0  0  0  0  0  0
   49.2510   28.7970   45.8210 C   0  0  0  0  0  0  0  0  0  0  0  0
   49.4560   29.2600   44.5480 C   0  0  0  0  0  0  0  0  0  0  0  0
   48.7660   30.3160   44.0150 C   0  0  0  0  0  0  0  0  0  0  0  0
   48.9720   30.6410   42.9920 H   0  0  0  0  0  0  0  0  0  0  0  0
   50.6790   28.4410   43.5460 S   0  0  0  0  0  0  0  0  0  0  0  0
   51.3690   27.1360   44.5400 C   0  0  0  0  0  0  0  0  0  0  0  0
   52.3460   26.3210   44.0400 C   0  0  0  0  0  0  0  0  0  0  0  0
   52.6940   26.4900   43.0110 H   0  0  0  0  0  0  0  0  0  0  0  0
   52.9240   25.2900   44.7520 C   0  0  0  0  0  0  0  0  0  0  0  0
   53.6780   24.7060   44.2830 H   0  0  0  0  0  0  0  0  0  0  0  0
   52.4550   25.1170   46.0370 C   0  0  0  0  0  0  0  0  0  0  0  0
   52.8740   24.3300   46.6300 H   0  0  0  0  0  0  0  0  0  0  0  0
   51.4690   25.9510   46.5240 C   0  0  0  0  0  0  0  0  0  0  0  0
   51.1620   25.7310   47.5580 H   0  0  0  0  0  0  0  0  0  0  0  0
   50.8890   26.9790   45.8130 C   0  0  0  0  0  0  0  0  0  0  0  0
   49.8940   27.7250   46.4810 N   0  0  0  0  0  0  0  0  0  0  0  0
   49.6270   27.4990   47.4460 H   0  0  0  0  0  0  0  0  0  0  0  0
   47.0820   34.1550   43.0530 C   0  0  0  0  0  0  0  0  0  0  0  0
   45.6920   34.1840   43.0660 C   0  0  0  0  0  0  0  0  0  0  0  0
   45.0150   33.1070   43.6560 C   0  0  0  0  0  0  0  0  0  0  0  0
   45.7450   32.0950   44.1840 N   0  0  0  0  0  0  0  0  0  0  0  0
   47.0900   32.1060   44.1510 C   0  0  0  0  0  0  0  0  0  0  0  0
   47.7650   33.1250   43.5920 N   0  0  0  0  0  0  0  0  0  0  0  0
   43.9290   33.1180   43.6720 H   0  0  0  0  0  0  0  0  0  0  0  0
   44.9800   35.3380   42.4620 C   0  0  0  0  0  0  0  0  0  0  0  0
   45.5580   36.5270   42.8920 F   0  0  0  0  0  0  0  0  0  0  0  0
   45.1700   35.2970   41.0920 F   0  0  0  0  0  0  0  0  0  0  0  0
   43.6600   35.4110   42.7460 F   0  0  0  0  0  0  0  0  0  0  0  0
   47.7230   35.1950   42.4850 O   0  0  0  0  0  0  0  0  0  0  0  0
   48.9560   35.1820   41.7990 C   0  0  0  0  0  0  0  0  0  0  0  0
   49.9580   35.1870   42.7700 F   0  0  0  0  0  0  0  0  0  0  0  0
   49.0220   34.0830   40.9880 F   0  0  0  0  0  0  0  0  0  0  0  0
   49.1260   36.3560   41.1060 F   0  0  0  0  0  0  0  0  0  0  0  0
  1  2  1  0  0  0  0
  2  4  2  0  0  0  0
  2  3  1  0  0  0  0
  4  5  1  0  0  0  0
  6 21  1  0  0  0  0
  6  4  1  0  0  0  0
  7  6  2  0  0  0  0
  8  7  1  0  0  0  0
  8  1  2  0  0  0  0
  9  8  1  0  0  0  0
 10 11  1  0  0  0  0
 10  7  1  0  0  0  0
 11 20  1  0  0  0  0
 12 11  2  0  0  0  0
 12 14  1  0  0  0  0
 13 12  1  0  0  0  0
 14 16  2  0  0  0  0
 15 14  1  0  0  0  0
 16 18  1  0  0  0  0
 16 17  1  0  0  0  0
 18 19  1  0  0  0  0
 20 21  1  0  0  0  0
 20 18  2  0  0  0  0
 21 22  1  0  0  0  0
 23 24  2  0  0  0  0
 23 28  1  0  0  0  0
 24 25  1  0  0  0  0
 25 29  1  0  0  0  0
 25 26  2  0  0  0  0
 27 26  1  0  0  0  0
 27  1  1  0  0  0  0
 28 27  2  0  0  0  0
 30 33  1  0  0  0  0
 30 31  1  0  0  0  0
 30 24  1  0  0  0  0
 32 30  1  0  0  0  0
 34 23  1  0  0  0  0
 35 34  1  0  0  0  0
 35 36  1  0  0  0  0
 37 35  1  0  0  0  0
 38 35  1  0  0  0  0
M  END
>  <minimizedAffinity>
-5.10905552

>  <minimizedRMSD>
0.922088563

$$$$
