
 OpenBabel03252504093D

 38 41  0  0  0  0  0  0  0  0999 V2000
   47.3570   31.7740   46.4550 C   0  0  0  0  0  0  0  0  0  0  0  0
   47.5050   32.0090   47.8060 C   0  0  0  0  0  0  0  0  0  0  0  0
   47.1850   32.9390   48.2170 H   0  0  0  0  0  0  0  0  0  0  0  0
   48.0670   31.0180   48.5840 C   0  0  0  0  0  0  0  0  0  0  0  0
   48.1510   31.2780   49.6520 H   0  0  0  0  0  0  0  0  0  0  0  0
   48.5020   29.7930   48.1270 C   0  0  0  0  0  0  0  0  0  0  0  0
   48.3310   29.6170   46.7780 C   0  0  0  0  0  0  0  0  0  0  0  0
   47.7800   30.5670   45.9630 C   0  0  0  0  0  0  0  0  0  0  0  0
   47.6690   30.3700   44.8940 H   0  0  0  0  0  0  0  0  0  0  0  0
   48.8550   28.0710   46.0640 S   0  0  0  0  0  0  0  0  0  0  0  0
   49.5150   27.0880   47.3920 C   0  0  0  0  0  0  0  0  0  0  0  0
   50.0030   25.8320   47.1560 C   0  0  0  0  0  0  0  0  0  0  0  0
   49.9790   25.4470   46.1250 H   0  0  0  0  0  0  0  0  0  0  0  0
   50.5270   25.0160   48.1340 C   0  0  0  0  0  0  0  0  0  0  0  0
   50.8850   24.0530   47.8580 H   0  0  0  0  0  0  0  0  0  0  0  0
   50.5360   25.5420   49.4080 C   0  0  0  0  0  0  0  0  0  0  0  0
   50.9350   24.9450   50.2030 H   0  0  0  0  0  0  0  0  0  0  0  0
   50.0390   26.8110   49.6280 C   0  0  0  0  0  0  0  0  0  0  0  0
   50.0910   27.1400   50.6760 H   0  0  0  0  0  0  0  0  0  0  0  0
   49.5150   27.6280   48.6500 C   0  0  0  0  0  0  0  0  0  0  0  0
   49.0540   28.8950   49.0690 N   0  0  0  0  0  0  0  0  0  0  0  0
   49.1140   29.1780   50.0520 H   0  0  0  0  0  0  0  0  0  0  0  0
   46.7290   33.8890   43.5300 C   0  0  0  0  0  0  0  0  0  0  0  0
   45.6440   34.6540   43.9440 C   0  0  0  0  0  0  0  0  0  0  0  0
   45.1360   34.4330   45.2320 C   0  0  0  0  0  0  0  0  0  0  0  0
   45.7240   33.4900   46.0070 N   0  0  0  0  0  0  0  0  0  0  0  0
   46.7730   32.7730   45.5670 C   0  0  0  0  0  0  0  0  0  0  0  0
   47.2810   32.9620   44.3380 N   0  0  0  0  0  0  0  0  0  0  0  0
   44.2880   35.0240   45.5680 H   0  0  0  0  0  0  0  0  0  0  0  0
   45.0680   35.6630   43.0220 C   0  0  0  0  0  0  0  0  0  0  0  0
   45.8900   36.7820   42.9730 F   0  0  0  0  0  0  0  0  0  0  0  0
   45.0690   35.1350   41.7430 F   0  0  0  0  0  0  0  0  0  0  0  0
   43.8270   36.0930   43.3450 F   0  0  0  0  0  0  0  0  0  0  0  0
   47.2100   34.1090   42.2910 O   0  0  0  0  0  0  0  0  0  0  0  0
   48.4840   34.5960   41.9300 C   0  0  0  0  0  0  0  0  0  0  0  0
   49.1300   34.9540   43.1140 F   0  0  0  0  0  0  0  0  0  0  0  0
   49.1660   33.6360   41.2350 F   0  0  0  0  0  0  0  0  0  0  0  0
   48.3620   35.7670   41.2230 F   0  0  0  0  0  0  0  0  0  0  0  0
  1  2  1  0  0  0  0
  2  3  1  0  0  0  0
  2  4  2  0  0  0  0
  4  5  1  0  0  0  0
  6  4  1  0  0  0  0
  6 21  1  0  0  0  0
  7  6  2  0  0  0  0
  8  1  2  0  0  0  0
  8  7  1  0  0  0  0
  9  8  1  0  0  0  0
 10  7  1  0  0  0  0
 10 11  1  0  0  0  0
 11 20  1  0  0  0  0
 12 11  2  0  0  0  0
 12 14  1  0  0  0  0
 13 12  1  0  0  0  0
 14 16  2  0  0  0  0
 15 14  1  0  0  0  0
 16 18  1  0  0  0  0
 16 17  1  0  0  0  0
 18 19  1  0  0  0  0
 20 21  1  0  0  0  0
 20 18  2  0  0  0  0
 21 22  1  0  0  0  0
 23 24  2  0  0  0  0
 23 28  1  0  0  0  0
 24 25  1  0  0  0  0
 25 29  1  0  0  0  0
 25 26  2  0  0  0  0
 27 26  1  0  0  0  0
 27  1  1  0  0  0  0
 28 27  2  0  0  0  0
 30 33  1  0  0  0  0
 30 24  1  0  0  0  0
 31 30  1  0  0  0  0
 32 30  1  0  0  0  0
 34 23  1  0  0  0  0
 35 34  1  0  0  0  0
 35 36  1  0  0  0  0
 37 35  1  0  0  0  0
 38 35  1  0  0  0  0
M  END
>  <minimizedAffinity>
-6.23132992

>  <minimizedRMSD>
2.03610182

$$$$
