
     RDKit          3D

 38 41  0  0  0  0  0  0  0  0999 V2000
   47.0905   34.3884   43.0922 C   0  0  0  0  0  0  0  0  0  0  0  0
   45.7782   34.5960   43.5015 C   0  0  0  0  0  0  0  0  0  0  0  0
   45.2592   33.7602   44.5008 C   0  0  0  0  0  0  0  0  0  0  0  0
   46.0579   32.7950   45.0169 N   0  0  0  0  0  0  0  0  0  0  0  0
   47.3229   32.6281   44.5922 C   0  0  0  0  0  0  0  0  0  0  0  0
   47.8468   33.4145   43.6358 N   0  0  0  0  0  0  0  0  0  0  0  0
   44.9810   35.6797   42.8764 C   0  0  0  0  0  0  0  0  0  0  0  0
   45.6184   36.9015   43.0599 F   0  0  0  0  0  0  0  0  0  0  0  0
   44.9553   35.4665   41.5091 F   0  0  0  0  0  0  0  0  0  0  0  0
   43.7212   35.8125   43.3485 F   0  0  0  0  0  0  0  0  0  0  0  0
   47.5802   35.1962   42.1320 O   0  0  0  0  0  0  0  0  0  0  0  0
   48.8746   35.1915   41.5733 C   0  0  0  0  0  0  0  0  0  0  0  0
   49.7634   35.4905   42.6073 F   0  0  0  0  0  0  0  0  0  0  0  0
   49.1289   33.9726   41.0055 F   0  0  0  0  0  0  0  0  0  0  0  0
   49.0104   36.2249   40.6775 F   0  0  0  0  0  0  0  0  0  0  0  0
   44.2347   33.9120   44.8296 H   0  0  0  0  0  0  0  0  0  0  0  0
   48.1275   31.5694   45.1910 C   0  0  0  0  0  0  0  0  0  0  0  0
   49.3028   31.1421   44.6100 C   0  0  0  0  0  0  0  0  0  0  0  0
   49.6360   31.5926   43.7020 H   0  0  0  0  0  0  0  0  0  0  0  0
   50.0125   30.1363   45.2320 C   0  0  0  0  0  0  0  0  0  0  0  0
   50.9389   29.8488   44.7097 H   0  0  0  0  0  0  0  0  0  0  0  0
   49.6474   29.5075   46.4029 C   0  0  0  0  0  0  0  0  0  0  0  0
   48.4718   29.9731   46.9344 C   0  0  0  0  0  0  0  0  0  0  0  0
   47.7316   30.9678   46.3565 C   0  0  0  0  0  0  0  0  0  0  0  0
   46.8015   31.2982   46.8263 H   0  0  0  0  0  0  0  0  0  0  0  0
   47.8913   29.2398   48.4497 S   0  0  0  0  0  0  0  0  0  0  0  0
   49.0816   28.0004   48.9108 C   0  0  0  0  0  0  0  0  0  0  0  0
   48.9106   27.2556   50.0451 C   0  0  0  0  0  0  0  0  0  0  0  0
   48.0200   27.4414   50.6646 H   0  0  0  0  0  0  0  0  0  0  0  0
   49.7902   26.2796   50.4639 C   0  0  0  0  0  0  0  0  0  0  0  0
   49.5764   25.7500   51.3595 H   0  0  0  0  0  0  0  0  0  0  0  0
   50.8901   26.0834   49.6554 C   0  0  0  0  0  0  0  0  0  0  0  0
   51.6029   25.3353   49.9390 H   0  0  0  0  0  0  0  0  0  0  0  0
   51.0461   26.8441   48.5149 C   0  0  0  0  0  0  0  0  0  0  0  0
   51.9538   26.6122   47.9386 H   0  0  0  0  0  0  0  0  0  0  0  0
   50.1671   27.8196   48.0959 C   0  0  0  0  0  0  0  0  0  0  0  0
   50.4974   28.4932   46.9002 N   0  0  0  0  0  0  0  0  0  0  0  0
   51.3497   28.2579   46.3820 H   0  0  0  0  0  0  0  0  0  0  0  0
  1  2  2  0
  1  6  1  0
  2  3  1  0
  3  4  2  0
  5  4  1  0
  6  5  2  0
  7  8  1  0
  7 10  1  0
  7  2  1  0
  9  7  1  0
 11  1  1  0
 12 11  1  0
 12 13  1  0
 14 12  1  0
 15 12  1  0
  3 16  1  0
 17 18  2  0
 18 19  1  0
 18 20  1  0
 20 21  1  0
 20 22  2  0
 22 23  1  0
 23 24  2  0
 24 25  1  0
 23 26  1  0
 26 27  1  0
 27 28  2  0
 28 29  1  0
 28 30  1  0
 30 31  1  0
 30 32  2  0
 32 33  1  0
 32 34  1  0
 34 35  1  0
 34 36  2  0
 36 37  1  0
 37 38  1  0
 24 17  1  0
 36 27  1  0
 37 22  1  0
  5 17  1  0
M  ISO  8  16  14  19  16  21  16  25  16  29  16  31  16  33  16  35  16
M  ISO  1  38   5
M  END
>  <DihAtoms>  (1) 
3,4,16,17

>  <DihDeg>  (1) 
179.99917544483472

$$$$
