
 OpenBabel03252503093D

 40 44  0  0  1  0  0  0  0  0999 V2000
   46.1130   34.1310   40.5610 C   0  0  0  0  0  0  0  0  0  0  0  0
   44.7340   34.1430   40.5650 C   0  0  0  0  0  0  0  0  0  0  0  0
   44.1810   34.6330   41.3770 H   0  0  0  0  0  0  0  0  0  0  0  0
   43.9730   33.5530   39.5920 C   0  0  0  0  0  0  0  0  0  0  0  0
   42.9030   33.5880   39.6440 H   0  0  0  0  0  0  0  0  0  0  0  0
   44.6400   32.9080   38.5400 C   0  0  0  0  0  0  0  0  0  0  0  0
   46.0160   32.8970   38.5310 C   0  0  0  0  0  0  0  0  0  0  0  0
   46.7140   33.5010   39.5290 C   0  0  0  0  0  0  0  0  0  0  0  0
   47.7960   33.5360   39.5900 H   0  0  0  0  0  0  0  0  0  0  0  0
   46.8960   32.0950   37.2100 S   0  0  0  0  0  0  0  0  0  0  0  0
   45.6580   31.3350   36.1780 C   0  0  0  0  0  0  0  0  0  0  0  0
   46.0270   30.5770   35.1220 C   0  0  0  0  0  0  0  0  0  0  0  0
   47.1030   30.4590   34.9320 H   0  0  0  0  0  0  0  0  0  0  0  0
   45.1400   29.9600   34.2760 C   0  0  0  0  0  0  0  0  0  0  0  0
   45.5080   29.3720   33.4520 H   0  0  0  0  0  0  0  0  0  0  0  0
   43.7830   30.1610   34.5760 C   0  0  0  0  0  0  0  0  0  0  0  0
   43.0610   29.6900   33.9310 H   0  0  0  0  0  0  0  0  0  0  0  0
   43.4170   30.9420   35.6620 C   0  0  0  0  0  0  0  0  0  0  0  0
   42.3570   31.0230   35.7920 H   0  0  0  0  0  0  0  0  0  0  0  0
   44.3720   31.5620   36.5090 C   0  0  0  0  0  0  0  0  0  0  0  0
   43.8360   32.2750   37.5780 N   0  0  0  0  0  0  0  0  0  0  0  0
   42.7810   32.3520   37.6770 H   0  0  0  0  0  0  0  0  0  0  0  0
   46.7580   34.8160   41.7360 C   0  0  1  0  0  3  0  0  0  0  0  0
   47.9530   35.3150   41.7230 O   0  0  0  0  0  1  0  0  0  0  0  0
   45.4180   36.1970   43.2170 C   0  0  0  0  0  0  0  0  0  0  0  0
   46.0530   34.9610   42.9600 C   0  0  0  0  0  0  0  0  0  0  0  0
   45.8950   33.9940   43.9300 C   0  0  0  0  0  0  0  0  0  0  0  0
   45.1790   34.2170   45.0480 N   0  0  0  0  0  0  0  0  0  0  0  0
   44.5820   35.4180   45.2620 C   0  0  0  0  0  0  0  0  0  0  0  0
   44.7100   36.3990   44.3360 N   0  0  0  0  0  0  0  0  0  0  0  0
   45.5080   36.9940   42.4930 H   0  0  0  0  0  0  0  0  0  0  0  0
   44.0270   35.4940   46.1990 H   0  0  0  0  0  0  0  0  0  0  0  0
   46.5090   32.7600   43.7450 C   0  0  0  0  0  0  0  0  0  0  0  0
   47.7920   32.2860   43.9180 C   0  0  0  0  0  0  0  0  0  0  0  0
   48.1170   31.0300   43.6600 C   0  0  0  0  0  0  0  0  0  0  0  0
   47.1220   30.1890   43.2080 C   0  0  0  0  0  0  0  0  0  0  0  0
   45.6390   31.3140   43.1640 S   0  0  0  0  0  0  0  0  0  0  0  0
   48.6610   32.7680   44.2960 H   0  0  0  0  0  0  0  0  0  0  0  0
   48.9740   30.3890   43.6880 H   0  0  0  0  0  0  0  0  0  0  0  0
   46.8990   29.1760   42.8890 H   0  0  0  0  0  0  0  0  0  0  0  0
  1  2  1  0  0  0  0
  1 23  1  0  0  0  0
  2  3  1  0  0  0  0
  4  5  1  0  0  0  0
  4  2  2  0  0  0  0
  6  4  1  0  0  0  0
  7  6  2  0  0  0  0
  7  8  1  0  0  0  0
  8  9  1  0  0  0  0
  8  1  2  0  0  0  0
 10  7  1  0  0  0  0
 11 20  1  0  0  0  0
 11 10  1  0  0  0  0
 12 11  2  0  0  0  0
 13 12  1  0  0  0  0
 14 16  2  0  0  0  0
 14 12  1  0  0  0  0
 15 14  1  0  0  0  0
 16 18  1  0  0  0  0
 17 16  1  0  0  0  0
 18 19  1  0  0  0  0
 18 20  2  0  0  0  0
 20 21  1  0  0  0  0
 21 22  1  0  0  0  0
 21  6  1  0  0  0  0
 23 24  1  6  0  0  0
 23 26  1  0  0  0  0
 25 30  1  0  0  0  0
 26 25  2  0  0  0  0
 26 27  1  0  0  0  0
 27 28  2  0  0  0  0
 28 29  1  0  0  0  0
 29 32  1  0  0  0  0
 30 29  2  0  0  0  0
 31 25  1  0  0  0  0
 33 34  2  0  0  0  0
 33 27  1  0  0  0  0
 34 38  1  0  0  0  0
 35 39  1  0  0  0  0
 35 34  1  0  0  0  0
 36 35  2  0  0  0  0
 37 36  1  0  0  0  0
 37 33  1  0  0  0  0
 40 36  1  0  0  0  0
M  END
>  <minimizedAffinity>
-5.60407925

>  <minimizedRMSD>
1.52615762

$$$$
