
 OpenBabel03252504103D

 38 41  0  0  0  0  0  0  0  0999 V2000
   47.3520   31.4740   45.7980 C   0  0  0  0  0  0  0  0  0  0  0  0
   47.2430   31.8500   47.1200 C   0  0  0  0  0  0  0  0  0  0  0  0
   46.7270   32.7500   47.3720 H   0  0  0  0  0  0  0  0  0  0  0  0
   47.8140   31.0400   48.0800 C   0  0  0  0  0  0  0  0  0  0  0  0
   47.6860   31.4050   49.1110 H   0  0  0  0  0  0  0  0  0  0  0  0
   48.4940   29.8670   47.8340 C   0  0  0  0  0  0  0  0  0  0  0  0
   48.5700   29.5440   46.5030 C   0  0  0  0  0  0  0  0  0  0  0  0
   48.0220   30.3130   45.5130 C   0  0  0  0  0  0  0  0  0  0  0  0
   48.1150   30.0050   44.4690 H   0  0  0  0  0  0  0  0  0  0  0  0
   49.4260   28.0490   46.0530 S   0  0  0  0  0  0  0  0  0  0  0  0
   50.0010   27.3100   47.5660 C   0  0  0  0  0  0  0  0  0  0  0  0
   50.7030   26.1370   47.5470 C   0  0  0  0  0  0  0  0  0  0  0  0
   50.9020   25.6600   46.5750 H   0  0  0  0  0  0  0  0  0  0  0  0
   51.1800   25.5080   48.6790 C   0  0  0  0  0  0  0  0  0  0  0  0
   51.7150   24.5960   48.5690 H   0  0  0  0  0  0  0  0  0  0  0  0
   50.9050   26.1410   49.8730 C   0  0  0  0  0  0  0  0  0  0  0  0
   51.2540   25.6910   50.7800 H   0  0  0  0  0  0  0  0  0  0  0  0
   50.1960   27.3250   49.8720 C   0  0  0  0  0  0  0  0  0  0  0  0
   50.0290   27.7520   50.8720 H   0  0  0  0  0  0  0  0  0  0  0  0
   49.7190   27.9540   48.7410 C   0  0  0  0  0  0  0  0  0  0  0  0
   49.0150   29.1610   48.9420 N   0  0  0  0  0  0  0  0  0  0  0  0
   48.8730   29.5360   49.8850 H   0  0  0  0  0  0  0  0  0  0  0  0
   46.9280   34.0330   43.2090 C   0  0  0  0  0  0  0  0  0  0  0  0
   45.6530   33.7580   42.7270 C   0  0  0  0  0  0  0  0  0  0  0  0
   44.9480   32.6890   43.2980 C   0  0  0  0  0  0  0  0  0  0  0  0
   45.5400   31.9800   44.2890 N   0  0  0  0  0  0  0  0  0  0  0  0
   46.7750   32.2800   44.7280 C   0  0  0  0  0  0  0  0  0  0  0  0
   47.4750   33.2980   44.1990 N   0  0  0  0  0  0  0  0  0  0  0  0
   43.9520   32.4640   42.9300 H   0  0  0  0  0  0  0  0  0  0  0  0
   45.0900   34.5920   41.6370 C   0  0  0  0  0  0  0  0  0  0  0  0
   45.0530   35.9240   42.0320 F   0  0  0  0  0  0  0  0  0  0  0  0
   45.9560   34.5410   40.5580 F   0  0  0  0  0  0  0  0  0  0  0  0
   43.8400   34.2570   41.2450 F   0  0  0  0  0  0  0  0  0  0  0  0
   47.5980   35.0610   42.6540 O   0  0  0  0  0  0  0  0  0  0  0  0
   48.8430   35.0280   41.9940 C   0  0  0  0  0  0  0  0  0  0  0  0
   49.8240   35.2160   42.9690 F   0  0  0  0  0  0  0  0  0  0  0  0
   48.9870   33.8380   41.3350 F   0  0  0  0  0  0  0  0  0  0  0  0
   48.9650   36.1100   41.1550 F   0  0  0  0  0  0  0  0  0  0  0  0
  1  2  1  0  0  0  0
  2  3  1  0  0  0  0
  2  4  2  0  0  0  0
  4  5  1  0  0  0  0
  6  4  1  0  0  0  0
  6 21  1  0  0  0  0
  7  6  2  0  0  0  0
  8  1  2  0  0  0  0
  8  7  1  0  0  0  0
  9  8  1  0  0  0  0
 10  7  1  0  0  0  0
 10 11  1  0  0  0  0
 11 20  1  0  0  0  0
 12 11  2  0  0  0  0
 12 14  1  0  0  0  0
 13 12  1  0  0  0  0
 14 16  2  0  0  0  0
 15 14  1  0  0  0  0
 16 17  1  0  0  0  0
 18 16  1  0  0  0  0
 18 19  1  0  0  0  0
 20 21  1  0  0  0  0
 20 18  2  0  0  0  0
 21 22  1  0  0  0  0
 23 28  1  0  0  0  0
 24 23  2  0  0  0  0
 24 25  1  0  0  0  0
 25 26  2  0  0  0  0
 26 27  1  0  0  0  0
 27  1  1  0  0  0  0
 28 27  2  0  0  0  0
 29 25  1  0  0  0  0
 30 31  1  0  0  0  0
 30 24  1  0  0  0  0
 32 30  1  0  0  0  0
 33 30  1  0  0  0  0
 34 23  1  0  0  0  0
 35 34  1  0  0  0  0
 35 36  1  0  0  0  0
 37 35  1  0  0  0  0
 38 35  1  0  0  0  0
M  END
>  <minimizedAffinity>
-5.91715384

>  <minimizedRMSD>
1.82718325

$$$$
