REMARK  Name = 
REMARK  4 active torsions:
REMARK  status: ('A' for Active; 'I' for Inactive)
REMARK    1  A    between atoms: C_1  and  O_11
REMARK    2  A    between atoms: C_2  and  C_7
REMARK    3  A    between atoms: C_5  and  C_17
REMARK    4  A    between atoms: O_11  and  C_12
REMARK                            x       y       z     vdW  Elec       q    Type
REMARK                         _______ _______ _______ _____ _____    ______ ____
ROOT
ATOM      1  C   UNL     1      48.127  31.569  45.191  0.00  0.00    +0.000 A 
ATOM      2  C   UNL     1      49.497  31.531  45.036  0.00  0.00    +0.000 A 
ATOM      3  H   UNL     1      49.985  32.290  44.467  0.00  0.00    +0.000 HD
ATOM      4  C   UNL     1      50.194  30.500  45.631  0.00  0.00    +0.000 A 
ATOM      5  H   UNL     1      51.283  30.536  45.463  0.00  0.00    +0.000 HD
ATOM      6  C   UNL     1      49.637  29.486  46.379  0.00  0.00    +0.000 A 
ATOM      7  C   UNL     1      48.273  29.576  46.499  0.00  0.00    +0.000 A 
ATOM      8  C   UNL     1      47.537  30.578  45.929  0.00  0.00    +0.000 A 
ATOM      9  H   UNL     1      46.451  30.598  46.059  0.00  0.00    +0.000 HD
ATOM     10  S   UNL     1      47.433  28.323  47.444  0.00  0.00    +0.000 S 
ATOM     11  C   UNL     1      48.680  27.197  48.030  0.00  0.00    +0.000 A 
ATOM     12  C   UNL     1      48.340  26.115  48.795  0.00  0.00    +0.000 A 
ATOM     13  H   UNL     1      47.278  25.958  49.039  0.00  0.00    +0.000 HD
ATOM     14  C   UNL     1      49.251  25.202  49.283  0.00  0.00    +0.000 A 
ATOM     15  H   UNL     1      48.897  24.390  49.869  0.00  0.00    +0.000 HD
ATOM     16  C   UNL     1      50.568  25.440  48.950  0.00  0.00    +0.000 A 
ATOM     17  H   UNL     1      51.314  24.758  49.306  0.00  0.00    +0.000 HD
ATOM     18  C   UNL     1      50.892  26.536  48.178  0.00  0.00    +0.000 A 
ATOM     19  H   UNL     1      51.967  26.639  47.968  0.00  0.00    +0.000 HD
ATOM     20  C   UNL     1      49.982  27.449  47.690  0.00  0.00    +0.000 A 
ATOM     21  N   UNL     1      50.505  28.508  46.916  0.00  0.00    +0.000 N 
ATOM     22  H   UNL     1      51.511  28.580  46.736  0.00  0.00    +0.000 HD
ENDROOT
BRANCH   1  27
ATOM     23  C   UNL     1      47.090  34.388  43.092  0.00  0.00    +0.000 A 
ATOM     24  C   UNL     1      45.778  34.596  43.502  0.00  0.00    +0.000 A 
ATOM     25  C   UNL     1      45.259  33.760  44.501  0.00  0.00    +0.000 A 
ATOM     26  N   UNL     1      46.058  32.795  45.017  0.00  0.00    +0.000 NA
ATOM     27  C   UNL     1      47.323  32.628  44.592  0.00  0.00    +0.000 A 
ATOM     28  N   UNL     1      47.847  33.414  43.636  0.00  0.00    +0.000 NA
ATOM     29  H   UNL     1      44.235  33.912  44.830  0.00  0.00    +0.000 HD
BRANCH  24  30
ATOM     30  C   UNL     1      44.981  35.680  42.876  0.00  0.00    +0.000 C 
ATOM     31  F   UNL     1      45.618  36.901  43.060  0.00  0.00    +0.000 F 
ATOM     32  F   UNL     1      44.955  35.467  41.509  0.00  0.00    +0.000 F 
ATOM     33  F   UNL     1      43.721  35.812  43.349  0.00  0.00    +0.000 F 
ENDBRANCH  24  30
BRANCH  23  34
ATOM     34  O   UNL     1      47.580  35.196  42.132  0.00  0.00    +0.000 OA
BRANCH  34  35
ATOM     35  C   UNL     1      48.875  35.191  41.573  0.00  0.00    +0.000 C 
ATOM     36  F   UNL     1      49.763  35.490  42.607  0.00  0.00    +0.000 F 
ATOM     37  F   UNL     1      49.129  33.973  41.005  0.00  0.00    +0.000 F 
ATOM     38  F   UNL     1      49.010  36.225  40.678  0.00  0.00    +0.000 F 
ENDBRANCH  34  35
ENDBRANCH  23  34
ENDBRANCH   1  27
TORSDOF 4
