REMARK  Name = 
REMARK  4 active torsions:
REMARK  status: ('A' for Active; 'I' for Inactive)
REMARK    1  A    between atoms: C_1  and  O_11
REMARK    2  A    between atoms: C_2  and  C_7
REMARK    3  A    between atoms: C_5  and  C_17
REMARK    4  A    between atoms: O_11  and  C_12
REMARK                            x       y       z     vdW  Elec       q    Type
REMARK                         _______ _______ _______ _____ _____    ______ ____
ROOT
ATOM      1  C   UNL     1      48.127  31.569  45.191  0.00  0.00    +0.000 A 
ATOM      2  C   UNL     1      48.653  30.546  44.430  0.00  0.00    +0.000 A 
ATOM      3  H   UNL     1      48.469  30.523  43.379  0.00  0.00    +0.000 HD
ATOM      4  C   UNL     1      49.404  29.579  45.064  0.00  0.00    +0.000 A 
ATOM      5  H   UNL     1      49.789  28.795  44.392  0.00  0.00    +0.000 HD
ATOM      6  C   UNL     1      49.684  29.541  46.413  0.00  0.00    +0.000 A 
ATOM      7  C   UNL     1      49.136  30.582  47.118  0.00  0.00    +0.000 A 
ATOM      8  C   UNL     1      48.384  31.565  46.537  0.00  0.00    +0.000 A 
ATOM      9  H   UNL     1      47.973  32.371  47.150  0.00  0.00    +0.000 HD
ATOM     10  S   UNL     1      49.425  30.646  48.874  0.00  0.00    +0.000 S 
ATOM     11  C   UNL     1      50.426  29.232  49.282  0.00  0.00    +0.000 A 
ATOM     12  C   UNL     1      50.818  29.004  50.572  0.00  0.00    +0.000 A 
ATOM     13  H   UNL     1      50.501  29.715  51.351  0.00  0.00    +0.000 HD
ATOM     14  C   UNL     1      51.593  27.931  50.962  0.00  0.00    +0.000 A 
ATOM     15  H   UNL     1      51.850  27.834  51.988  0.00  0.00    +0.000 HD
ATOM     16  C   UNL     1      51.966  27.069  49.953  0.00  0.00    +0.000 A 
ATOM     17  H   UNL     1      52.569  26.220  50.206  0.00  0.00    +0.000 HD
ATOM     18  C   UNL     1      51.561  27.316  48.657  0.00  0.00    +0.000 A 
ATOM     19  H   UNL     1      51.909  26.571  47.926  0.00  0.00    +0.000 HD
ATOM     20  C   UNL     1      50.787  28.387  48.267  0.00  0.00    +0.000 A 
ATOM     21  N   UNL     1      50.473  28.471  46.893  0.00  0.00    +0.000 N 
ATOM     22  H   UNL     1      50.811  27.764  46.233  0.00  0.00    +0.000 HD
ENDROOT
BRANCH   1  27
ATOM     23  C   UNL     1      47.090  34.388  43.092  0.00  0.00    +0.000 A 
ATOM     24  C   UNL     1      45.778  34.596  43.502  0.00  0.00    +0.000 A 
ATOM     25  C   UNL     1      45.259  33.760  44.501  0.00  0.00    +0.000 A 
ATOM     26  N   UNL     1      46.058  32.795  45.017  0.00  0.00    +0.000 NA
ATOM     27  C   UNL     1      47.323  32.628  44.592  0.00  0.00    +0.000 A 
ATOM     28  N   UNL     1      47.847  33.414  43.636  0.00  0.00    +0.000 NA
ATOM     29  H   UNL     1      44.235  33.912  44.830  0.00  0.00    +0.000 HD
BRANCH  24  30
ATOM     30  C   UNL     1      44.981  35.680  42.876  0.00  0.00    +0.000 C 
ATOM     31  F   UNL     1      45.618  36.901  43.060  0.00  0.00    +0.000 F 
ATOM     32  F   UNL     1      44.955  35.467  41.509  0.00  0.00    +0.000 F 
ATOM     33  F   UNL     1      43.721  35.812  43.349  0.00  0.00    +0.000 F 
ENDBRANCH  24  30
BRANCH  23  34
ATOM     34  O   UNL     1      47.580  35.196  42.132  0.00  0.00    +0.000 OA
BRANCH  34  35
ATOM     35  C   UNL     1      48.875  35.191  41.573  0.00  0.00    +0.000 C 
ATOM     36  F   UNL     1      49.763  35.490  42.607  0.00  0.00    +0.000 F 
ATOM     37  F   UNL     1      49.129  33.973  41.005  0.00  0.00    +0.000 F 
ATOM     38  F   UNL     1      49.010  36.225  40.678  0.00  0.00    +0.000 F 
ENDBRANCH  34  35
ENDBRANCH  23  34
ENDBRANCH   1  27
TORSDOF 4
