
     RDKit          3D

 56 61  0  0  0  0  0  0  0  0999 V2000
   46.1040   34.4089   44.0675 C   0  0  1  0  0  0  0  0  0  0  0  0
   45.1600   34.5460   45.1147 C   0  0  0  0  0  0  0  0  0  0  0  0
   46.3012   33.6319   45.3857 C   0  0  1  0  0  0  0  0  0  0  0  0
   44.5711   33.3290   42.4192 C   0  0  0  0  0  0  0  0  0  0  0  0
   45.9081   33.5920   42.8348 C   0  0  0  0  0  0  0  0  0  0  0  0
   46.9517   33.0892   42.1015 C   0  0  0  0  0  0  0  0  0  0  0  0
   46.6486   32.3514   40.9934 N   0  0  0  0  0  0  0  0  0  0  0  0
   45.3607   32.1087   40.6083 C   0  0  0  0  0  0  0  0  0  0  0  0
   44.2977   32.5956   41.3179 N   0  0  0  0  0  0  0  0  0  0  0  0
   46.0749   32.1674   45.4080 C   0  0  0  0  0  0  0  0  0  0  0  0
   45.7734   31.7925   46.7481 N   0  0  0  0  0  0  0  0  0  0  0  0
   46.3611   32.5969   47.7611 C   0  0  0  0  0  0  0  0  0  0  0  0
   47.7078   32.0518   48.2377 C   0  0  0  0  0  0  0  0  0  0  0  0
   47.3896   30.7236   48.9093 C   0  0  0  0  0  0  0  0  0  0  0  0
   46.8989   29.8332   47.7846 C   0  0  0  0  0  0  0  0  0  0  0  0
   45.7012   30.4408   47.1014 C   0  0  2  0  0  0  0  0  0  0  0  0
   46.8359   35.2284   43.8614 H   0  0  0  0  0  0  0  0  0  0  0  0
   44.1656   34.0433   45.0164 H   0  0  0  0  0  0  0  0  0  0  0  0
   45.0589   35.5029   45.6733 H   0  0  0  0  0  0  0  0  0  0  0  0
   47.2355   33.9658   45.8660 H   0  0  0  0  0  0  0  0  0  0  0  0
   43.7093   33.6922   42.9480 H   0  0  0  0  0  0  0  0  0  0  0  0
   47.9559   33.2813   42.4061 H   0  0  0  0  0  0  0  0  0  0  0  0
   45.3615   31.5119   39.7158 H   0  0  0  0  0  0  0  0  0  0  0  0
   45.2926   31.8342   44.7228 H   0  0  0  0  0  0  0  0  0  0  0  0
   47.0575   31.6859   45.1283 H   0  0  0  0  0  0  0  0  0  0  0  0
   45.6852   32.4165   48.6572 H   0  0  0  0  0  0  0  0  0  0  0  0
   46.3140   33.6689   47.6545 H   0  0  0  0  0  0  0  0  0  0  0  0
   48.4016   31.8448   47.4153 H   0  0  0  0  0  0  0  0  0  0  0  0
   48.1076   32.7459   49.0014 H   0  0  0  0  0  0  0  0  0  0  0  0
   48.3556   30.3334   49.2847 H   0  0  0  0  0  0  0  0  0  0  0  0
   46.6178   30.8514   49.7076 H   0  0  0  0  0  0  0  0  0  0  0  0
   46.5858   28.8659   48.2280 H   0  0  0  0  0  0  0  0  0  0  0  0
   47.7713   29.6845   47.1239 H   0  0  0  0  0  0  0  0  0  0  0  0
   44.9357   30.4256   47.9484 H   0  0  0  0  0  0  0  0  0  0  0  0
   45.1479   29.5169   46.1036 C   0  0  0  0  0  0  0  0  0  0  0  0
   44.9403   29.8652   44.7846 C   0  0  0  0  0  0  0  0  0  0  0  0
   45.1786   30.8595   44.4317 H   0  0  0  0  0  0  0  0  0  0  0  0
   44.4109   28.9176   43.8975 C   0  0  0  0  0  0  0  0  0  0  0  0
   44.2788   29.2808   42.8671 H   0  0  0  0  0  0  0  0  0  0  0  0
   44.0746   27.6301   44.2596 C   0  0  0  0  0  0  0  0  0  0  0  0
   44.2850   27.2935   45.5751 C   0  0  0  0  0  0  0  0  0  0  0  0
   44.8007   28.2219   46.4313 C   0  0  0  0  0  0  0  0  0  0  0  0
   44.9497   27.9006   47.4744 H   0  0  0  0  0  0  0  0  0  0  0  0
   43.8697   25.6547   46.0882 S   0  0  0  0  0  0  0  0  0  0  0  0
   43.2434   24.8143   44.6601 C   0  0  0  0  0  0  0  0  0  0  0  0
   42.8639   23.5137   44.8625 C   0  0  0  0  0  0  0  0  0  0  0  0
   42.9248   23.0073   45.7950 H   0  0  0  0  0  0  0  0  0  0  0  0
   42.3614   22.7982   43.7718 C   0  0  0  0  0  0  0  0  0  0  0  0
   42.0544   21.7737   43.8982 H   0  0  0  0  0  0  0  0  0  0  0  0
   42.2635   23.4129   42.5416 C   0  0  0  0  0  0  0  0  0  0  0  0
   41.8809   22.8755   41.7014 H   0  0  0  0  0  0  0  0  0  0  0  0
   42.6730   24.7267   42.4440 C   0  0  0  0  0  0  0  0  0  0  0  0
   42.5701   25.1605   41.4373 H   0  0  0  0  0  0  0  0  0  0  0  0
   43.1786   25.4958   43.4747 C   0  0  0  0  0  0  0  0  0  0  0  0
   43.5546   26.8172   43.2298 N   0  0  0  0  0  0  0  0  0  0  0  0
   43.4372   27.1796   42.2601 H   0  0  0  0  0  0  0  0  0  0  0  0
  1  2  1  0
  1  3  1  0
  2  3  1  0
  3 10  1  0
  4  5  2  0
  5  1  1  0
  6  5  1  0
  7  6  2  0
  8  7  1  0
  8  9  2  0
  9  4  1  0
 10 11  1  0
 11 16  1  0
 11 12  1  0
 12 13  1  0
 13 14  1  0
 15 14  1  0
 16 15  1  0
  1 17  1  6
  2 18  1  0
  2 19  1  0
  3 20  1  1
  4 21  1  0
  6 22  1  0
  8 23  1  0
 10 24  1  0
 10 25  1  0
 12 26  1  0
 12 27  1  0
 13 28  1  0
 13 29  1  0
 14 30  1  0
 14 31  1  0
 15 32  1  0
 15 33  1  0
 16 34  1  1
 35 36  2  0
 36 37  1  0
 36 38  1  0
 38 39  1  0
 38 40  2  0
 40 41  1  0
 41 42  2  0
 42 43  1  0
 41 44  1  0
 44 45  1  0
 45 46  2  0
 46 47  1  0
 46 48  1  0
 48 49  1  0
 48 50  2  0
 50 51  1  0
 50 52  1  0
 52 53  1  0
 52 54  2  0
 54 55  1  0
 55 56  1  0
 42 35  1  0
 54 45  1  0
 55 40  1  0
 16 35  1  0
M  ISO  8  17  13  18  13  19  13  20  13  21  14  22  14  23  14  24   8
M  ISO  8  25   8  26  13  27  13  28  13  29  13  30  13  31  13  32  13
M  ISO  8  33  13  34  13  37  16  39  16  43  16  47  16  49  16  51  16
M  ISO  2  53  16  56   5
M  END
>  <DihAtoms>  (1) 
10,15,34,35

>  <DihDeg>  (1) 
-47.48148618193863

$$$$
