REMARK  Name = 
REMARK  3 active torsions:
REMARK  status: ('A' for Active; 'I' for Inactive)
REMARK    1  A    between atoms: C_3  and  C_7
REMARK    2  A    between atoms: C_5  and  C_11
REMARK    3  A    between atoms: C_11  and  C_15
REMARK                            x       y       z     vdW  Elec       q    Type
REMARK                         _______ _______ _______ _____ _____    ______ ____
ROOT
ATOM      1  C   UNL     1      46.873  32.147  46.547  0.00  0.00    +0.000 A 
ATOM      2  C   UNL     1      47.767  32.120  47.595  0.00  0.00    +0.000 A 
ATOM      3  H   UNL     1      47.753  32.825  48.409  0.00  0.00    +0.000 HD
ATOM      4  C   UNL     1      48.767  31.168  47.705  0.00  0.00    +0.000 A 
ATOM      5  H   UNL     1      49.456  31.197  48.566  0.00  0.00    +0.000 HD
ATOM      6  C   UNL     1      48.934  30.168  46.752  0.00  0.00    +0.000 A 
ATOM      7  C   UNL     1      48.029  30.220  45.719  0.00  0.00    +0.000 A 
ATOM      8  C   UNL     1      47.058  31.148  45.617  0.00  0.00    +0.000 A 
ATOM      9  H   UNL     1      46.360  31.153  44.766  0.00  0.00    +0.000 HD
ATOM     10  S   UNL     1      48.135  28.991  44.432  0.00  0.00    +0.000 S 
ATOM     11  C   UNL     1      49.487  27.928  44.897  0.00  0.00    +0.000 A 
ATOM     12  C   UNL     1      49.746  26.889  44.064  0.00  0.00    +0.000 A 
ATOM     13  H   UNL     1      49.167  26.707  43.164  0.00  0.00    +0.000 HD
ATOM     14  C   UNL     1      50.800  26.049  44.411  0.00  0.00    +0.000 A 
ATOM     15  H   UNL     1      51.035  25.216  43.770  0.00  0.00    +0.000 HD
ATOM     16  C   UNL     1      51.575  26.230  45.545  0.00  0.00    +0.000 A 
ATOM     17  H   UNL     1      52.389  25.586  45.809  0.00  0.00    +0.000 HD
ATOM     18  C   UNL     1      51.236  27.323  46.339  0.00  0.00    +0.000 A 
ATOM     19  H   UNL     1      51.864  27.448  47.234  0.00  0.00    +0.000 HD
ATOM     20  C   UNL     1      50.201  28.180  46.036  0.00  0.00    +0.000 A 
ATOM     21  N   UNL     1      49.962  29.226  46.927  0.00  0.00    +0.000 N 
ATOM     22  H   UNL     1      50.568  29.326  47.770  0.00  0.00    +0.000 HD
ENDROOT
BRANCH   1  23
ATOM     23  C   UNL     1      45.825  33.151  46.449  0.00  0.00    +0.000 C 
ATOM     24  O   UNL     1      45.030  33.186  47.433  0.00  0.00    +0.000 OA
BRANCH  23  29
ATOM     25  C   UNL     1      44.598  35.929  44.425  0.00  0.00    +0.000 A 
ATOM     26  C   UNL     1      45.332  35.856  43.221  0.00  0.00    +0.000 A 
ATOM     27  C   UNL     1      46.250  34.819  43.142  0.00  0.00    +0.000 A 
ATOM     28  N   UNL     1      46.349  34.002  44.195  0.00  0.00    +0.000 NA
ATOM     29  C   UNL     1      45.660  34.064  45.335  0.00  0.00    +0.000 A 
ATOM     30  N   UNL     1      44.758  35.065  45.439  0.00  0.00    +0.000 NA
ATOM     31  H   UNL     1      43.875  36.733  44.513  0.00  0.00    +0.000 HD
ATOM     32  H   UNL     1      45.213  36.542  42.409  0.00  0.00    +0.000 HD
BRANCH  27  33
ATOM     33  C   UNL     1      47.032  34.721  41.903  0.00  0.00    +0.000 C 
ATOM     34  F   UNL     1      47.845  33.601  41.946  0.00  0.00    +0.000 F 
ATOM     35  F   UNL     1      47.907  35.821  41.910  0.00  0.00    +0.000 F 
ATOM     36  F   UNL     1      46.269  34.684  40.784  0.00  0.00    +0.000 F 
ENDBRANCH  27  33
ENDBRANCH  23  29
ENDBRANCH   1  23
TORSDOF 3
