
     RDKit          3D

 36 39  0  0  0  0  0  0  0  0999 V2000
   44.5977   35.9289   44.4246 C   0  0  0  0  0  0  0  0  0  0  0  0
   45.3323   35.8560   43.2209 C   0  0  0  0  0  0  0  0  0  0  0  0
   46.2502   34.8187   43.1423 C   0  0  0  0  0  0  0  0  0  0  0  0
   46.3490   34.0025   44.1953 N   0  0  0  0  0  0  0  0  0  0  0  0
   45.6595   34.0639   45.3346 C   0  0  0  0  0  0  0  0  0  0  0  0
   44.7578   35.0646   45.4386 N   0  0  0  0  0  0  0  0  0  0  0  0
   47.0320   34.7212   41.9032 C   0  0  0  0  0  0  0  0  0  0  0  0
   47.8453   33.6009   41.9458 F   0  0  0  0  0  0  0  0  0  0  0  0
   47.9067   35.8213   41.9105 F   0  0  0  0  0  0  0  0  0  0  0  0
   46.2685   34.6836   40.7844 F   0  0  0  0  0  0  0  0  0  0  0  0
   45.8249   33.1509   46.4486 C   0  0  0  0  0  0  0  0  0  0  0  0
   45.0299   33.1856   47.4332 O   0  0  0  0  0  0  0  0  0  0  0  0
   43.8751   36.7327   44.5126 H   0  0  0  0  0  0  0  0  0  0  0  0
   45.2126   36.5419   42.4089 H   0  0  0  0  0  0  0  0  0  0  0  0
   46.8732   32.1473   46.5470 C   0  0  0  0  0  0  0  0  0  0  0  0
   47.2367   31.3586   45.4777 C   0  0  0  0  0  0  0  0  0  0  0  0
   46.7819   31.4278   44.5033 H   0  0  0  0  0  0  0  0  0  0  0  0
   48.2353   30.4024   45.5546 C   0  0  0  0  0  0  0  0  0  0  0  0
   48.4818   29.7972   44.6660 H   0  0  0  0  0  0  0  0  0  0  0  0
   48.9438   30.1760   46.7309 C   0  0  0  0  0  0  0  0  0  0  0  0
   48.5598   30.9772   47.7803 C   0  0  0  0  0  0  0  0  0  0  0  0
   47.5871   31.9048   47.7000 C   0  0  0  0  0  0  0  0  0  0  0  0
   47.3105   32.5188   48.5700 H   0  0  0  0  0  0  0  0  0  0  0  0
   49.3927   30.7860   49.3444 S   0  0  0  0  0  0  0  0  0  0  0  0
   50.6149   29.5173   49.0842 C   0  0  0  0  0  0  0  0  0  0  0  0
   51.3983   29.2118   50.1489 C   0  0  0  0  0  0  0  0  0  0  0  0
   51.2940   29.7074   51.1087 H   0  0  0  0  0  0  0  0  0  0  0  0
   52.3577   28.2208   49.9627 C   0  0  0  0  0  0  0  0  0  0  0  0
   52.9945   27.9517   50.7884 H   0  0  0  0  0  0  0  0  0  0  0  0
   52.5380   27.5516   48.7632 C   0  0  0  0  0  0  0  0  0  0  0  0
   53.2742   26.7862   48.6232 H   0  0  0  0  0  0  0  0  0  0  0  0
   51.6887   27.9314   47.7276 C   0  0  0  0  0  0  0  0  0  0  0  0
   51.8487   27.3875   46.7841 H   0  0  0  0  0  0  0  0  0  0  0  0
   50.7255   28.9071   47.8652 C   0  0  0  0  0  0  0  0  0  0  0  0
   49.9522   29.1979   46.7406 N   0  0  0  0  0  0  0  0  0  0  0  0
   50.1210   28.6719   45.8562 H   0  0  0  0  0  0  0  0  0  0  0  0
  1  6  2  0
  2  1  1  0
  3  2  2  0
  3  4  1  0
  4  5  2  0
  5  6  1  0
  5 11  1  0
  7  8  1  0
  7  3  1  0
  9  7  1  0
 10  7  1  0
 11 12  2  0
  1 13  1  0
  2 14  1  0
 15 16  2  0
 16 17  1  0
 16 18  1  0
 18 19  1  0
 18 20  2  0
 20 21  1  0
 21 22  2  0
 22 23  1  0
 21 24  1  0
 24 25  1  0
 25 26  2  0
 26 27  1  0
 26 28  1  0
 28 29  1  0
 28 30  2  0
 30 31  1  0
 30 32  1  0
 32 33  1  0
 32 34  2  0
 34 35  1  0
 35 36  1  0
 22 15  1  0
 34 25  1  0
 35 20  1  0
 11 15  1  0
M  ISO  8  13  14  14  14  17  16  19  16  23  16  27  16  29  16  31  16
M  ISO  2  33  16  36   5
M  END
>  <DihAtoms>  (1) 
4,10,14,15

>  <DihDeg>  (1) 
16.95244225262003

$$$$
