
 OpenBabel03252503093D

 40 44  0  0  1  0  0  0  0  0999 V2000
   47.6010   34.2370   39.6280 C   0  0  0  0  0  0  0  0  0  0  0  0
   48.3490   34.5230   38.5060 C   0  0  0  0  0  0  0  0  0  0  0  0
   49.2180   35.1920   38.5680 H   0  0  0  0  0  0  0  0  0  0  0  0
   48.0710   34.0180   37.2650 C   0  0  0  0  0  0  0  0  0  0  0  0
   48.6840   34.2730   36.4240 H   0  0  0  0  0  0  0  0  0  0  0  0
   46.9640   33.1650   37.1390 C   0  0  0  0  0  0  0  0  0  0  0  0
   46.2160   32.8750   38.2560 C   0  0  0  0  0  0  0  0  0  0  0  0
   46.5450   33.4100   39.4620 C   0  0  0  0  0  0  0  0  0  0  0  0
   46.0070   33.2280   40.3850 H   0  0  0  0  0  0  0  0  0  0  0  0
   44.8100   31.7910   38.1370 S   0  0  0  0  0  0  0  0  0  0  0  0
   44.6370   31.3960   36.4070 C   0  0  0  0  0  0  0  0  0  0  0  0
   43.5960   30.6420   35.9860 C   0  0  0  0  0  0  0  0  0  0  0  0
   42.8820   30.2900   36.7450 H   0  0  0  0  0  0  0  0  0  0  0  0
   43.3880   30.2890   34.6760 C   0  0  0  0  0  0  0  0  0  0  0  0
   42.5370   29.6830   34.4140 H   0  0  0  0  0  0  0  0  0  0  0  0
   44.3420   30.7690   33.7650 C   0  0  0  0  0  0  0  0  0  0  0  0
   44.2090   30.5090   32.7290 H   0  0  0  0  0  0  0  0  0  0  0  0
   45.4070   31.5400   34.2110 C   0  0  0  0  0  0  0  0  0  0  0  0
   46.0680   31.8480   33.4270 H   0  0  0  0  0  0  0  0  0  0  0  0
   45.5800   31.8790   35.5780 C   0  0  0  0  0  0  0  0  0  0  0  0
   46.6750   32.6950   35.8470 N   0  0  0  0  0  0  0  0  0  0  0  0
   47.3240   32.9750   35.0540 H   0  0  0  0  0  0  0  0  0  0  0  0
   48.0620   34.9130   40.8910 C   0  0  1  0  0  3  0  0  0  0  0  0
   48.9050   35.8950   40.9260 O   0  0  0  0  0  1  0  0  0  0  0  0
   46.4370   35.1600   42.6780 C   0  0  0  0  0  0  0  0  0  0  0  0
   47.5660   34.4930   42.1540 C   0  0  0  0  0  0  0  0  0  0  0  0
   48.0640   33.4630   42.9250 C   0  0  0  0  0  0  0  0  0  0  0  0
   47.5040   33.1180   44.0990 N   0  0  0  0  0  0  0  0  0  0  0  0
   46.4180   33.7820   44.5720 C   0  0  0  0  0  0  0  0  0  0  0  0
   45.8950   34.8020   43.8490 N   0  0  0  0  0  0  0  0  0  0  0  0
   46.0030   35.9770   42.1190 H   0  0  0  0  0  0  0  0  0  0  0  0
   46.0430   33.4230   45.5330 H   0  0  0  0  0  0  0  0  0  0  0  0
   49.1860   32.7760   42.4720 C   0  0  0  0  0  0  0  0  0  0  0  0
   50.5230   33.0890   42.3500 C   0  0  0  0  0  0  0  0  0  0  0  0
   51.4040   32.2250   41.8750 C   0  0  0  0  0  0  0  0  0  0  0  0
   50.9460   30.9790   41.5010 C   0  0  0  0  0  0  0  0  0  0  0  0
   49.1260   31.0970   41.8710 S   0  0  0  0  0  0  0  0  0  0  0  0
   51.0550   33.9660   42.6260 H   0  0  0  0  0  0  0  0  0  0  0  0
   52.4530   32.1640   41.6660 H   0  0  0  0  0  0  0  0  0  0  0  0
   51.2390   30.0150   41.0980 H   0  0  0  0  0  0  0  0  0  0  0  0
  1 23  1  0  0  0  0
  2  3  1  0  0  0  0
  2  1  2  0  0  0  0
  4  2  1  0  0  0  0
  5  4  1  0  0  0  0
  6  4  2  0  0  0  0
  6  7  1  0  0  0  0
  7  8  2  0  0  0  0
  8  1  1  0  0  0  0
  8  9  1  0  0  0  0
 10  7  1  0  0  0  0
 11 10  1  0  0  0  0
 12 11  1  0  0  0  0
 12 13  1  0  0  0  0
 14 12  2  0  0  0  0
 15 14  1  0  0  0  0
 16 18  2  0  0  0  0
 16 14  1  0  0  0  0
 17 16  1  0  0  0  0
 18 20  1  0  0  0  0
 19 18  1  0  0  0  0
 20 21  1  0  0  0  0
 20 11  2  0  0  0  0
 21  6  1  0  0  0  0
 22 21  1  0  0  0  0
 23 24  1  6  0  0  0
 23 26  1  0  0  0  0
 25 30  1  0  0  0  0
 26 25  2  0  0  0  0
 26 27  1  0  0  0  0
 27 28  2  0  0  0  0
 28 29  1  0  0  0  0
 29 32  1  0  0  0  0
 30 29  2  0  0  0  0
 31 25  1  0  0  0  0
 33 27  1  0  0  0  0
 34 33  2  0  0  0  0
 34 38  1  0  0  0  0
 35 34  1  0  0  0  0
 36 37  1  0  0  0  0
 36 35  2  0  0  0  0
 37 33  1  0  0  0  0
 39 35  1  0  0  0  0
 40 36  1  0  0  0  0
M  END
>  <minimizedAffinity>
-6.24081945

>  <minimizedRMSD>
3.01546693

$$$$
