
 OpenBabel03242514333D

 39 42  0  0  0  0  0  0  0  0999 V2000
   47.5690   33.4920   38.1640 C   0  0  0  0  0  0  0  0  0  0  0  0
   48.6050   33.9500   37.4360 C   0  0  0  0  0  0  0  0  0  0  0  0
   49.2910   34.7060   37.7880 H   0  0  0  0  0  0  0  0  0  0  0  0
   48.7590   33.3850   36.1650 C   0  0  0  0  0  0  0  0  0  0  0  0
   49.6080   33.7790   35.6010 H   0  0  0  0  0  0  0  0  0  0  0  0
   47.9440   32.4230   35.6320 C   0  0  0  0  0  0  0  0  0  0  0  0
   46.8990   31.9820   36.4040 C   0  0  0  0  0  0  0  0  0  0  0  0
   46.7290   32.5080   37.6300 C   0  0  0  0  0  0  0  0  0  0  0  0
   45.8850   32.1440   38.2380 H   0  0  0  0  0  0  0  0  0  0  0  0
   45.8130   30.7290   35.7490 S   0  0  0  0  0  0  0  0  0  0  0  0
   46.4250   30.3530   34.1300 C   0  0  0  0  0  0  0  0  0  0  0  0
   45.7270   29.4090   33.4510 C   0  0  0  0  0  0  0  0  0  0  0  0
   44.8540   28.8970   33.8340 H   0  0  0  0  0  0  0  0  0  0  0  0
   46.1310   29.0420   32.1640 C   0  0  0  0  0  0  0  0  0  0  0  0
   45.6060   28.2940   31.5840 H   0  0  0  0  0  0  0  0  0  0  0  0
   47.2300   29.6530   31.6220 C   0  0  0  0  0  0  0  0  0  0  0  0
   47.5510   29.3790   30.6320 H   0  0  0  0  0  0  0  0  0  0  0  0
   47.8760   30.5980   32.3800 C   0  0  0  0  0  0  0  0  0  0  0  0
   48.7490   31.0450   31.8780 H   0  0  0  0  0  0  0  0  0  0  0  0
   47.5260   31.0020   33.6540 C   0  0  0  0  0  0  0  0  0  0  0  0
   48.2610   31.9750   34.3280 N   0  0  0  0  0  0  0  0  0  0  0  0
   49.0780   32.3680   33.8130 H   0  0  0  0  0  0  0  0  0  0  0  0
   47.2700   33.9880   39.5380 C   0  0  0  0  0  0  0  0  0  0  0  0
   46.1030   33.5360   39.8750 O   0  0  0  0  0  0  0  0  0  0  0  0
   47.8050   34.7430   40.5180 O   0  0  0  0  0  0  0  0  0  0  0  0
   49.3260   35.4040   42.4930 O   0  0  0  0  0  0  0  0  0  0  0  0
   48.7060   34.2180   41.8220 P   0  0  2  0  0  0  0  0  0  0  0  0
   49.9510   33.2370   41.2720 O   0  0  0  0  0  0  0  0  0  0  0  0
   50.7070   33.7530   40.9400 H   0  0  0  0  0  0  0  0  0  0  0  0
   47.7080   33.3730   42.9250 O   0  0  0  0  0  0  0  0  0  0  0  0
   46.0760   35.1090   43.0260 C   0  0  0  0  0  0  0  0  0  0  0  0
   46.6980   34.0280   43.6270 C   0  0  0  0  0  0  0  0  0  0  0  0
   46.2850   33.6450   44.9090 C   0  0  0  0  0  0  0  0  0  0  0  0
   45.2870   34.3610   45.5020 N   0  0  0  0  0  0  0  0  0  0  0  0
   44.7090   35.3980   44.8920 C   0  0  0  0  0  0  0  0  0  0  0  0
   45.1020   35.7630   43.6720 N   0  0  0  0  0  0  0  0  0  0  0  0
   46.3560   35.4530   42.0300 H   0  0  0  0  0  0  0  0  0  0  0  0
   46.8050   32.8090   45.3090 H   0  0  0  0  0  0  0  0  0  0  0  0
   43.9310   35.8720   45.4820 H   0  0  0  0  0  0  0  0  0  0  0  0
  1 23  1  0  0  0  0
  2  3  1  0  0  0  0
  2  1  2  0  0  0  0
  4  2  1  0  0  0  0
  5  4  1  0  0  0  0
  6  4  2  0  0  0  0
  6  7  1  0  0  0  0
  7  8  2  0  0  0  0
  8  1  1  0  0  0  0
  8  9  1  0  0  0  0
 10  7  1  0  0  0  0
 11 10  1  0  0  0  0
 12 13  1  0  0  0  0
 12 11  2  0  0  0  0
 14 12  1  0  0  0  0
 15 14  1  0  0  0  0
 16 14  2  0  0  0  0
 16 18  1  0  0  0  0
 17 16  1  0  0  0  0
 18 20  2  0  0  0  0
 19 18  1  0  0  0  0
 20 11  1  0  0  0  0
 20 21  1  0  0  0  0
 21  6  1  0  0  0  0
 22 21  1  0  0  0  0
 23 24  2  0  0  0  0
 23 25  1  0  0  0  0
 25 27  1  0  0  0  0
 27 26  2  1  0  0  0
 27 30  1  0  0  0  0
 28 27  1  0  0  0  0
 29 28  1  0  0  0  0
 30 32  1  0  0  0  0
 31 32  2  0  0  0  0
 31 36  1  0  0  0  0
 32 33  1  0  0  0  0
 33 38  1  0  0  0  0
 33 34  2  0  0  0  0
 35 39  1  0  0  0  0
 35 34  1  0  0  0  0
 36 35  2  0  0  0  0
 37 31  1  0  0  0  0
M  END
>  <minimizedAffinity>
-5.79423189

>  <minimizedRMSD>
1.60092115

$$$$
