
     RDKit          3D

 38 41  0  0  0  0  0  0  0  0999 V2000
   47.0905   34.3884   43.0922 C   0  0  0  0  0  0  0  0  0  0  0  0
   45.7782   34.5960   43.5015 C   0  0  0  0  0  0  0  0  0  0  0  0
   45.2592   33.7602   44.5008 C   0  0  0  0  0  0  0  0  0  0  0  0
   46.0579   32.7950   45.0169 N   0  0  0  0  0  0  0  0  0  0  0  0
   47.3229   32.6281   44.5922 C   0  0  0  0  0  0  0  0  0  0  0  0
   47.8468   33.4145   43.6358 N   0  0  0  0  0  0  0  0  0  0  0  0
   44.9810   35.6797   42.8764 C   0  0  0  0  0  0  0  0  0  0  0  0
   45.6184   36.9015   43.0599 F   0  0  0  0  0  0  0  0  0  0  0  0
   44.9553   35.4665   41.5091 F   0  0  0  0  0  0  0  0  0  0  0  0
   43.7212   35.8125   43.3485 F   0  0  0  0  0  0  0  0  0  0  0  0
   47.5802   35.1962   42.1320 O   0  0  0  0  0  0  0  0  0  0  0  0
   48.8746   35.1915   41.5733 C   0  0  0  0  0  0  0  0  0  0  0  0
   49.7634   35.4905   42.6073 F   0  0  0  0  0  0  0  0  0  0  0  0
   49.1289   33.9726   41.0055 F   0  0  0  0  0  0  0  0  0  0  0  0
   49.0104   36.2249   40.6775 F   0  0  0  0  0  0  0  0  0  0  0  0
   44.2347   33.9120   44.8296 H   0  0  0  0  0  0  0  0  0  0  0  0
   48.1275   31.5694   45.1910 C   0  0  0  0  0  0  0  0  0  0  0  0
   48.9003   31.7978   46.3100 C   0  0  0  0  0  0  0  0  0  0  0  0
   48.9137   32.7688   46.7520 H   0  0  0  0  0  0  0  0  0  0  0  0
   49.6358   30.7496   46.8225 C   0  0  0  0  0  0  0  0  0  0  0  0
   50.2272   31.0079   47.7153 H   0  0  0  0  0  0  0  0  0  0  0  0
   49.6696   29.4711   46.3086 C   0  0  0  0  0  0  0  0  0  0  0  0
   48.8829   29.3032   45.1977 C   0  0  0  0  0  0  0  0  0  0  0  0
   48.1353   30.3101   44.6514 C   0  0  0  0  0  0  0  0  0  0  0  0
   47.5266   30.1172   43.7641 H   0  0  0  0  0  0  0  0  0  0  0  0
   48.8408   27.6929   44.4388 S   0  0  0  0  0  0  0  0  0  0  0  0
   49.9135   26.6446   45.3960 C   0  0  0  0  0  0  0  0  0  0  0  0
   50.0912   25.3316   45.0570 C   0  0  0  0  0  0  0  0  0  0  0  0
   49.5553   24.9400   44.1790 H   0  0  0  0  0  0  0  0  0  0  0  0
   50.9055   24.4617   45.7513 C   0  0  0  0  0  0  0  0  0  0  0  0
   50.9833   23.4571   45.4151 H   0  0  0  0  0  0  0  0  0  0  0  0
   51.5555   24.9983   46.8429 C   0  0  0  0  0  0  0  0  0  0  0  0
   52.2000   24.3614   47.4148 H   0  0  0  0  0  0  0  0  0  0  0  0
   51.3641   26.3250   47.1698 C   0  0  0  0  0  0  0  0  0  0  0  0
   51.9256   26.6569   48.0555 H   0  0  0  0  0  0  0  0  0  0  0  0
   50.5503   27.1947   46.4762 C   0  0  0  0  0  0  0  0  0  0  0  0
   50.4821   28.5177   46.9639 N   0  0  0  0  0  0  0  0  0  0  0  0
   51.0157   28.8013   47.7916 H   0  0  0  0  0  0  0  0  0  0  0  0
  1  2  2  0
  1  6  1  0
  2  3  1  0
  3  4  2  0
  5  4  1  0
  6  5  2  0
  7  8  1  0
  7 10  1  0
  7  2  1  0
  9  7  1  0
 11  1  1  0
 12 11  1  0
 12 13  1  0
 14 12  1  0
 15 12  1  0
  3 16  1  0
 17 18  2  0
 18 19  1  0
 18 20  1  0
 20 21  1  0
 20 22  2  0
 22 23  1  0
 23 24  2  0
 24 25  1  0
 23 26  1  0
 26 27  1  0
 27 28  2  0
 28 29  1  0
 28 30  1  0
 30 31  1  0
 30 32  2  0
 32 33  1  0
 32 34  1  0
 34 35  1  0
 34 36  2  0
 36 37  1  0
 37 38  1  0
 24 17  1  0
 36 27  1  0
 37 22  1  0
  5 17  1  0
M  ISO  8  16  14  19  16  21  16  25  16  29  16  31  16  33  16  35  16
M  ISO  1  38   5
M  END
>  <DihAtoms>  (1) 
3,4,16,17

>  <DihDeg>  (1) 
179.99917544483472

$$$$
