
     RDKit          3D

 38 41  0  0  0  0  0  0  0  0999 V2000
   47.0905   34.3884   43.0922 C   0  0  0  0  0  0  0  0  0  0  0  0
   45.7782   34.5960   43.5015 C   0  0  0  0  0  0  0  0  0  0  0  0
   45.2592   33.7602   44.5008 C   0  0  0  0  0  0  0  0  0  0  0  0
   46.0579   32.7950   45.0169 N   0  0  0  0  0  0  0  0  0  0  0  0
   47.3229   32.6281   44.5922 C   0  0  0  0  0  0  0  0  0  0  0  0
   47.8468   33.4145   43.6358 N   0  0  0  0  0  0  0  0  0  0  0  0
   44.9810   35.6797   42.8764 C   0  0  0  0  0  0  0  0  0  0  0  0
   45.6184   36.9015   43.0599 F   0  0  0  0  0  0  0  0  0  0  0  0
   44.9553   35.4665   41.5091 F   0  0  0  0  0  0  0  0  0  0  0  0
   43.7212   35.8125   43.3485 F   0  0  0  0  0  0  0  0  0  0  0  0
   47.5802   35.1962   42.1320 O   0  0  0  0  0  0  0  0  0  0  0  0
   48.8746   35.1915   41.5733 C   0  0  0  0  0  0  0  0  0  0  0  0
   49.7634   35.4905   42.6073 F   0  0  0  0  0  0  0  0  0  0  0  0
   49.1289   33.9726   41.0055 F   0  0  0  0  0  0  0  0  0  0  0  0
   49.0104   36.2249   40.6775 F   0  0  0  0  0  0  0  0  0  0  0  0
   44.2347   33.9120   44.8296 H   0  0  0  0  0  0  0  0  0  0  0  0
   48.1275   31.5694   45.1910 C   0  0  0  0  0  0  0  0  0  0  0  0
   47.5523   30.4113   45.6699 C   0  0  0  0  0  0  0  0  0  0  0  0
   46.4954   30.2813   45.6035 H   0  0  0  0  0  0  0  0  0  0  0  0
   48.3747   29.4524   46.2235 C   0  0  0  0  0  0  0  0  0  0  0  0
   47.8441   28.5567   46.5836 H   0  0  0  0  0  0  0  0  0  0  0  0
   49.7445   29.5480   46.3440 C   0  0  0  0  0  0  0  0  0  0  0  0
   50.2601   30.7196   45.8514 C   0  0  0  0  0  0  0  0  0  0  0  0
   49.4874   31.7008   45.2933 C   0  0  0  0  0  0  0  0  0  0  0  0
   49.9546   32.6146   44.9170 H   0  0  0  0  0  0  0  0  0  0  0  0
   52.0212   30.9640   45.9488 S   0  0  0  0  0  0  0  0  0  0  0  0
   52.7007   29.5111   46.7190 C   0  0  0  0  0  0  0  0  0  0  0  0
   54.0466   29.3997   46.9345 C   0  0  0  0  0  0  0  0  0  0  0  0
   54.6981   30.2293   46.6205 H   0  0  0  0  0  0  0  0  0  0  0  0
   54.6427   28.3051   47.5249 C   0  0  0  0  0  0  0  0  0  0  0  0
   55.6972   28.3051   47.6526 H   0  0  0  0  0  0  0  0  0  0  0  0
   53.7859   27.2920   47.9012 C   0  0  0  0  0  0  0  0  0  0  0  0
   54.2019   26.4199   48.3645 H   0  0  0  0  0  0  0  0  0  0  0  0
   52.4309   27.4219   47.6757 C   0  0  0  0  0  0  0  0  0  0  0  0
   51.8333   26.5615   48.0109 H   0  0  0  0  0  0  0  0  0  0  0  0
   51.8349   28.5157   47.0857 C   0  0  0  0  0  0  0  0  0  0  0  0
   50.4317   28.4656   46.9397 N   0  0  0  0  0  0  0  0  0  0  0  0
   49.8982   27.6517   47.2606 H   0  0  0  0  0  0  0  0  0  0  0  0
  1  2  2  0
  1  6  1  0
  2  3  1  0
  3  4  2  0
  5  4  1  0
  6  5  2  0
  7  8  1  0
  7 10  1  0
  7  2  1  0
  9  7  1  0
 11  1  1  0
 12 11  1  0
 12 13  1  0
 14 12  1  0
 15 12  1  0
  3 16  1  0
 17 18  2  0
 18 19  1  0
 18 20  1  0
 20 21  1  0
 20 22  2  0
 22 23  1  0
 23 24  2  0
 24 25  1  0
 23 26  1  0
 26 27  1  0
 27 28  2  0
 28 29  1  0
 28 30  1  0
 30 31  1  0
 30 32  2  0
 32 33  1  0
 32 34  1  0
 34 35  1  0
 34 36  2  0
 36 37  1  0
 37 38  1  0
 24 17  1  0
 36 27  1  0
 37 22  1  0
  5 17  1  0
M  ISO  8  16  14  19  16  21  16  25  16  29  16  31  16  33  16  35  16
M  ISO  1  38   5
M  END
>  <DihAtoms>  (1) 
3,4,16,17

>  <DihDeg>  (1) 
179.99917544483472

$$$$
