
     RDKit          3D

 32 35  0  0  0  0  0  0  0  0999 V2000
   44.2657   35.7348   44.2602 C   0  0  0  0  0  0  0  0  0  0  0  0
   44.4245   34.9069   43.1228 C   0  0  0  0  0  0  0  0  0  0  0  0
   45.0639   33.6851   43.2834 C   0  0  0  0  0  0  0  0  0  0  0  0
   45.5120   33.3291   44.5194 N   0  0  0  0  0  0  0  0  0  0  0  0
   45.3403   34.1507   45.5844 C   0  0  0  0  0  0  0  0  0  0  0  0
   44.7283   35.3362   45.4663 N   0  0  0  0  0  0  0  0  0  0  0  0
   43.8032   35.4564   41.5345 S   0  0  0  0  0  0  0  0  0  0  0  0
   43.7731   36.6728   44.1290 H   0  0  0  0  0  0  0  0  0  0  0  0
   45.1965   33.0411   42.4401 H   0  0  0  0  0  0  0  0  0  0  0  0
   45.7455   33.7382   46.4987 H   0  0  0  0  0  0  0  0  0  0  0  0
   42.1205   34.8690   41.4125 C   0  0  0  0  0  0  0  0  0  0  0  0
   41.0465   35.7212   41.5655 C   0  0  0  0  0  0  0  0  0  0  0  0
   41.2082   36.7705   41.7641 H   0  0  0  0  0  0  0  0  0  0  0  0
   39.7783   35.1890   41.4567 C   0  0  0  0  0  0  0  0  0  0  0  0
   38.9749   35.9106   41.5870 H   0  0  0  0  0  0  0  0  0  0  0  0
   39.4813   33.8654   41.2055 C   0  0  0  0  0  0  0  0  0  0  0  0
   40.5858   33.0627   41.0619 C   0  0  0  0  0  0  0  0  0  0  0  0
   41.8640   33.5411   41.1608 C   0  0  0  0  0  0  0  0  0  0  0  0
   42.7233   32.8901   41.0441 H   0  0  0  0  0  0  0  0  0  0  0  0
   40.3554   31.3320   40.7347 S   0  0  0  0  0  0  0  0  0  0  0  0
   38.5937   31.0696   40.6732 C   0  0  0  0  0  0  0  0  0  0  0  0
   38.1110   29.8304   40.4366 C   0  0  0  0  0  0  0  0  0  0  0  0
   38.8038   28.9900   40.2832 H   0  0  0  0  0  0  0  0  0  0  0  0
   36.7492   29.5504   40.3746 C   0  0  0  0  0  0  0  0  0  0  0  0
   36.3857   28.5608   40.1858 H   0  0  0  0  0  0  0  0  0  0  0  0
   35.9031   30.6190   40.5700 C   0  0  0  0  0  0  0  0  0  0  0  0
   34.8401   30.4223   40.5257 H   0  0  0  0  0  0  0  0  0  0  0  0
   36.4257   31.8580   40.8068 C   0  0  0  0  0  0  0  0  0  0  0  0
   35.6769   32.6435   40.9495 H   0  0  0  0  0  0  0  0  0  0  0  0
   37.7712   32.1520   40.8713 C   0  0  0  0  0  0  0  0  0  0  0  0
   38.1477   33.4813   41.1241 N   0  0  0  0  0  0  0  0  0  0  0  0
   37.4055   34.2000   41.2542 H   0  0  0  0  0  0  0  0  0  0  0  0
  1  6  2  0
  2  3  2  0
  2  1  1  0
  3  4  1  0
  4  5  2  0
  6  5  1  0
  7  2  1  0
  1  8  1  0
  3  9  1  0
  5 10  1  0
 11 12  2  0
 12 13  1  0
 12 14  1  0
 14 15  1  0
 14 16  2  0
 16 17  1  0
 17 18  2  0
 18 19  1  0
 17 20  1  0
 20 21  1  0
 21 22  2  0
 22 23  1  0
 22 24  1  0
 24 25  1  0
 24 26  2  0
 26 27  1  0
 26 28  1  0
 28 29  1  0
 28 30  2  0
 30 31  1  0
 31 32  1  0
 18 11  1  0
 30 21  1  0
 31 16  1  0
  7 11  1  0
M  ISO  8   8  14   9  14  10  14  13  16  15  16  19  16  23  16  25  16
M  ISO  3  27  16  29  16  32   5
M  END
>  <DihAtoms>  (1) 
1,6,10,11

>  <DihDeg>  (1) 
0.000349000965444096

$$$$
