
 OpenBabel03242523123D

 59 65  0  0  1  0  0  0  0  0999 V2000
   46.4620   32.0080   45.5190 C   0  0  0  0  0  0  0  0  0  0  0  0
   46.7460   32.7430   44.3460 C   0  0  0  0  0  0  0  0  0  0  0  0
   47.6960   32.1100   43.5810 C   0  0  0  0  0  0  0  0  0  0  0  0
   48.3110   30.9330   43.8760 C   0  0  0  0  0  0  0  0  0  0  0  0
   47.9770   30.2730   45.0550 C   0  0  0  0  0  0  0  0  0  0  0  0
   47.0370   30.8230   45.8870 C   0  0  0  0  0  0  0  0  0  0  0  0
   48.7660   29.1350   45.0620 O   0  0  0  0  0  0  0  0  0  0  0  0
   49.5350   29.0640   43.8770 C   0  0  2  0  0  0  0  0  0  0  0  0
   49.2680   30.2550   43.1440 O   0  0  0  0  0  0  0  0  0  0  0  0
   45.7430   32.2300   46.3380 H   0  0  0  0  0  0  0  0  0  0  0  0
   47.9210   32.6350   42.7070 H   0  0  0  0  0  0  0  0  0  0  0  0
   46.8660   30.2340   46.7460 H   0  0  0  0  0  0  0  0  0  0  0  0
   50.6170   29.0000   44.1210 H   0  0  0  0  0  0  0  0  0  0  0  0
   45.1060   36.0070   43.5140 C   0  0  0  0  0  0  0  0  0  0  0  0
   45.9040   34.8880   43.2800 C   0  0  0  0  0  0  0  0  0  0  0  0
   46.0480   33.9490   44.2560 C   0  0  0  0  0  0  0  0  0  0  0  0
   45.3870   34.1690   45.4340 N   0  0  0  0  0  0  0  0  0  0  0  0
   44.6210   35.2430   45.6580 C   0  0  0  0  0  0  0  0  0  0  0  0
   44.4870   36.1410   44.7140 N   0  0  0  0  0  0  0  0  0  0  0  0
   44.9850   36.7560   42.7480 H   0  0  0  0  0  0  0  0  0  0  0  0
   44.0760   35.4730   46.5620 H   0  0  0  0  0  0  0  0  0  0  0  0
   46.5430   34.8080   42.0430 N   0  0  0  0  0  0  0  0  0  0  0  0
   47.8700   35.2960   41.8420 C   0  0  0  0  0  0  0  0  0  0  0  0
   48.4680   34.9740   40.5020 C   0  0  0  0  0  0  0  0  0  0  0  0
   48.1600   33.7100   40.0120 N   0  0  0  0  0  0  0  0  0  0  0  0
   46.8810   33.2510   40.1730 C   0  0  0  0  0  0  0  0  0  0  0  0
   46.0000   34.2650   40.8610 C   0  0  0  0  0  0  0  0  0  0  0  0
   48.5880   35.0180   42.6490 H   0  0  0  0  0  0  0  0  0  0  0  0
   47.8080   36.4180   41.9130 H   0  0  0  0  0  0  0  0  0  0  0  0
   48.0640   35.7390   39.7780 H   0  0  0  0  0  0  0  0  0  0  0  0
   49.5540   35.1990   40.5550 H   0  0  0  0  0  0  0  0  0  0  0  0
   48.8170   33.2390   39.3920 H   0  0  0  0  0  0  0  0  0  0  0  0
   46.7590   32.2710   40.6990 H   0  0  0  0  0  0  0  0  0  0  0  0
   46.4080   33.0630   39.1650 H   0  0  0  0  0  0  0  0  0  0  0  0
   45.0670   33.7020   41.1430 H   0  0  0  0  0  0  0  0  0  0  0  0
   45.6970   35.0040   40.0800 H   0  0  0  0  0  0  0  0  0  0  0  0
   49.0710   27.9660   43.1460 O   0  0  0  0  0  0  0  0  0  0  0  0
   49.7840   26.8790   42.7300 C   0  0  0  0  0  0  0  0  0  0  0  0
   49.2830   25.6870   42.2520 C   0  0  0  0  0  0  0  0  0  0  0  0
   48.2070   25.6000   42.1990 H   0  0  0  0  0  0  0  0  0  0  0  0
   50.1630   24.6940   41.8770 C   0  0  0  0  0  0  0  0  0  0  0  0
   49.6810   23.7830   41.5090 H   0  0  0  0  0  0  0  0  0  0  0  0
   51.5300   24.8060   41.9450 C   0  0  0  0  0  0  0  0  0  0  0  0
   52.0100   25.9840   42.4170 C   0  0  0  0  0  0  0  0  0  0  0  0
   51.1790   26.9750   42.7930 C   0  0  0  0  0  0  0  0  0  0  0  0
   51.6300   27.9060   43.1680 H   0  0  0  0  0  0  0  0  0  0  0  0
   53.7760   26.2040   42.5350 S   0  0  0  0  0  0  0  0  0  0  0  0
   54.4770   24.6730   41.9440 C   0  0  0  0  0  0  0  0  0  0  0  0
   55.8490   24.6360   41.9550 C   0  0  0  0  0  0  0  0  0  0  0  0
   56.4940   25.4590   42.2900 H   0  0  0  0  0  0  0  0  0  0  0  0
   56.4930   23.4900   41.5140 C   0  0  0  0  0  0  0  0  0  0  0  0
   57.5680   23.3740   41.4880 H   0  0  0  0  0  0  0  0  0  0  0  0
   55.7320   22.4240   41.0810 C   0  0  0  0  0  0  0  0  0  0  0  0
   56.2220   21.5240   40.7350 H   0  0  0  0  0  0  0  0  0  0  0  0
   54.3590   22.5550   41.1090 C   0  0  0  0  0  0  0  0  0  0  0  0
   53.8260   21.6620   40.7470 H   0  0  0  0  0  0  0  0  0  0  0  0
   53.6670   23.6700   41.5350 C   0  0  0  0  0  0  0  0  0  0  0  0
   52.2740   23.6960   41.5210 N   0  0  0  0  0  0  0  0  0  0  0  0
   51.8000   22.8350   41.1740 H   0  0  0  0  0  0  0  0  0  0  0  0
  1  6  1  0  0  0  0
  1 10  1  0  0  0  0
  2  1  2  0  0  0  0
  3  4  2  0  0  0  0
  3  2  1  0  0  0  0
  4  5  1  0  0  0  0
  5  7  1  0  0  0  0
  5  6  2  0  0  0  0
  6 12  1  0  0  0  0
  8 13  1  1  0  0  0
  8  7  1  0  0  0  0
  9  4  1  0  0  0  0
  9  8  1  0  0  0  0
 11  3  1  0  0  0  0
 14 19  1  0  0  0  0
 15 14  2  0  0  0  0
 15 16  1  0  0  0  0
 16  2  1  0  0  0  0
 16 17  2  0  0  0  0
 17 18  1  0  0  0  0
 18 21  1  0  0  0  0
 19 18  2  0  0  0  0
 20 14  1  0  0  0  0
 22 15  1  0  0  0  0
 23 29  1  0  0  0  0
 23 22  1  0  0  0  0
 23 28  1  0  0  0  0
 24 31  1  0  0  0  0
 24 23  1  0  0  0  0
 25 26  1  0  0  0  0
 25 24  1  0  0  0  0
 26 33  1  0  0  0  0
 26 27  1  0  0  0  0
 27 35  1  0  0  0  0
 27 22  1  0  0  0  0
 30 24  1  0  0  0  0
 32 25  1  0  0  0  0
 34 26  1  0  0  0  0
 36 27  1  0  0  0  0
 37  8  1  0  0  0  0
 38 45  1  0  0  0  0
 38 37  1  0  0  0  0
 39 38  2  0  0  0  0
 40 39  1  0  0  0  0
 41 43  2  0  0  0  0
 41 39  1  0  0  0  0
 42 41  1  0  0  0  0
 43 44  1  0  0  0  0
 44 47  1  0  0  0  0
 44 45  2  0  0  0  0
 45 46  1  0  0  0  0
 48 49  1  0  0  0  0
 48 47  1  0  0  0  0
 49 50  1  0  0  0  0
 51 49  2  0  0  0  0
 52 51  1  0  0  0  0
 53 55  2  0  0  0  0
 53 51  1  0  0  0  0
 54 53  1  0  0  0  0
 55 57  1  0  0  0  0
 56 55  1  0  0  0  0
 57 48  2  0  0  0  0
 58 57  1  0  0  0  0
 58 43  1  0  0  0  0
 59 58  1  0  0  0  0
M  END
>  <minimizedAffinity>
-4.6646409

>  <minimizedRMSD>
0.0525326505

$$$$
