
 OpenBabel03252509013D

 58 62  0  0  1  0  0  0  0  0999 V2000
   47.1930   34.1200   42.9410 N   0  0  0  0  0  0  0  0  0  0  0  0
   46.7630   35.3710   42.4370 C   0  0  0  0  0  0  0  0  0  0  0  0
   45.2930   35.6730   42.6380 C   0  0  0  0  0  0  0  0  0  0  0  0
   44.7120   35.1130   43.9010 C   0  0  0  0  0  0  0  0  0  0  0  0
   45.7570   34.4260   44.7460 C   0  0  0  0  0  0  0  0  0  0  0  0
   46.3730   33.3660   43.7650 C   0  0  2  0  0  0  0  0  0  0  0  0
   46.9950   35.5710   41.3910 H   0  0  0  0  0  0  0  0  0  0  0  0
   47.3120   36.1580   43.0260 H   0  0  0  0  0  0  0  0  0  0  0  0
   44.7320   35.3180   41.7390 H   0  0  0  0  0  0  0  0  0  0  0  0
   45.1650   36.7780   42.6650 H   0  0  0  0  0  0  0  0  0  0  0  0
   44.1320   35.8740   44.4710 H   0  0  0  0  0  0  0  0  0  0  0  0
   43.9630   34.3190   43.6190 H   0  0  0  0  0  0  0  0  0  0  0  0
   46.5420   35.1000   45.0990 H   0  0  0  0  0  0  0  0  0  0  0  0
   45.2420   33.8830   45.5640 H   0  0  0  0  0  0  0  0  0  0  0  0
   45.4950   32.8570   43.3290 H   0  0  0  0  0  0  0  0  0  0  0  0
   48.1450   33.4530   42.1090 C   0  0  0  0  0  0  0  0  0  0  0  0
   48.7170   32.7200   42.7320 H   0  0  0  0  0  0  0  0  0  0  0  0
   48.8630   34.1730   41.7150 H   0  0  0  0  0  0  0  0  0  0  0  0
   47.4180   32.6710   41.0600 C   0  0  0  0  0  0  0  0  0  0  0  0
   46.3450   32.9720   41.0130 H   0  0  0  0  0  0  0  0  0  0  0  0
   47.4200   31.5870   41.2300 H   0  0  0  0  0  0  0  0  0  0  0  0
   49.3420   32.3420   37.8480 C   0  0  0  0  0  0  0  0  0  0  0  0
   48.7910   32.0500   39.1100 C   0  0  0  0  0  0  0  0  0  0  0  0
   47.9950   32.9860   39.7270 C   0  0  0  0  0  0  0  0  0  0  0  0
   47.7810   34.1440   39.0880 N   0  0  0  0  0  0  0  0  0  0  0  0
   48.3120   34.4140   37.8790 C   0  0  0  0  0  0  0  0  0  0  0  0
   49.0940   33.5190   37.2520 N   0  0  0  0  0  0  0  0  0  0  0  0
   49.9670   31.5810   37.3850 H   0  0  0  0  0  0  0  0  0  0  0  0
   48.9860   31.0980   39.6040 H   0  0  0  0  0  0  0  0  0  0  0  0
   48.0940   35.3700   37.4260 H   0  0  0  0  0  0  0  0  0  0  0  0
   47.1110   32.5720   44.6370 O   0  0  0  0  0  0  0  0  0  0  0  0
   45.2100   30.8000   44.1050 O   0  0  0  0  0  0  0  0  0  0  0  0
   46.2900   31.1810   45.1080 P   0  0  2  0  0  0  0  0  0  0  0  0
   45.4470   31.5880   46.5410 O   0  0  0  0  0  0  0  0  0  0  0  0
   46.0500   31.5260   47.3220 H   0  0  0  0  0  0  0  0  0  0  0  0
   47.3280   29.9200   45.4490 O   0  0  0  0  0  0  0  0  0  0  0  0
   47.0830   28.8370   46.2520 C   0  0  0  0  0  0  0  0  0  0  0  0
   45.7980   28.3870   46.4870 C   0  0  0  0  0  0  0  0  0  0  0  0
   44.9680   28.8990   46.0280 H   0  0  0  0  0  0  0  0  0  0  0  0
   45.6070   27.2910   47.3060 C   0  0  0  0  0  0  0  0  0  0  0  0
   44.5530   27.0000   47.4380 H   0  0  0  0  0  0  0  0  0  0  0  0
   46.6410   26.6090   47.9120 C   0  0  0  0  0  0  0  0  0  0  0  0
   47.9240   27.0440   47.6880 C   0  0  0  0  0  0  0  0  0  0  0  0
   48.0920   28.1320   46.8730 C   0  0  0  0  0  0  0  0  0  0  0  0
   49.1120   28.4780   46.6970 H   0  0  0  0  0  0  0  0  0  0  0  0
   49.2850   26.1890   48.4520 S   0  0  0  0  0  0  0  0  0  0  0  0
   48.5590   24.8660   49.4000 C   0  0  0  0  0  0  0  0  0  0  0  0
   49.4240   24.0780   50.0720 C   0  0  0  0  0  0  0  0  0  0  0  0
   50.4980   24.2140   50.0580 H   0  0  0  0  0  0  0  0  0  0  0  0
   48.9580   23.0260   50.8330 C   0  0  0  0  0  0  0  0  0  0  0  0
   49.6480   22.3930   51.3740 H   0  0  0  0  0  0  0  0  0  0  0  0
   47.5970   22.8110   50.8830 C   0  0  0  0  0  0  0  0  0  0  0  0
   47.1870   21.9980   51.4670 H   0  0  0  0  0  0  0  0  0  0  0  0
   46.7730   23.6560   50.1700 C   0  0  0  0  0  0  0  0  0  0  0  0
   45.7000   23.4340   50.2490 H   0  0  0  0  0  0  0  0  0  0  0  0
   47.1950   24.7170   49.3980 C   0  0  0  0  0  0  0  0  0  0  0  0
   46.2550   25.5180   48.7090 N   0  0  0  0  0  0  0  0  0  0  0  0
   45.2570   25.2490   48.8300 H   0  0  0  0  0  0  0  0  0  0  0  0
  1  6  1  0  0  0  0
  2  3  1  0  0  0  0
  2  1  1  0  0  0  0
  2  8  1  0  0  0  0
  3 10  1  0  0  0  0
  3  4  1  0  0  0  0
  4 11  1  0  0  0  0
  4  5  1  0  0  0  0
  5 13  1  0  0  0  0
  5 14  1  0  0  0  0
  6 15  1  6  0  0  0
  6 31  1  0  0  0  0
  6  5  1  0  0  0  0
  7  2  1  0  0  0  0
  9  3  1  0  0  0  0
 12  4  1  0  0  0  0
 16 17  1  0  0  0  0
 16  1  1  0  0  0  0
 18 16  1  0  0  0  0
 19 21  1  0  0  0  0
 19 16  1  0  0  0  0
 20 19  1  0  0  0  0
 22 23  1  0  0  0  0
 23 29  1  0  0  0  0
 23 24  2  0  0  0  0
 24 19  1  0  0  0  0
 25 24  1  0  0  0  0
 26 25  2  0  0  0  0
 27 22  2  0  0  0  0
 27 26  1  0  0  0  0
 28 22  1  0  0  0  0
 30 26  1  0  0  0  0
 31 33  1  0  0  0  0
 33 32  2  6  0  0  0
 33 36  1  0  0  0  0
 33 34  1  0  0  0  0
 34 35  1  0  0  0  0
 36 37  1  0  0  0  0
 37 38  2  0  0  0  0
 37 44  1  0  0  0  0
 38 40  1  0  0  0  0
 39 38  1  0  0  0  0
 40 41  1  0  0  0  0
 40 42  2  0  0  0  0
 42 57  1  0  0  0  0
 43 42  1  0  0  0  0
 43 46  1  0  0  0  0
 44 43  2  0  0  0  0
 45 44  1  0  0  0  0
 46 47  1  0  0  0  0
 47 48  1  0  0  0  0
 48 50  2  0  0  0  0
 49 48  1  0  0  0  0
 50 52  1  0  0  0  0
 50 51  1  0  0  0  0
 52 53  1  0  0  0  0
 54 55  1  0  0  0  0
 54 52  2  0  0  0  0
 56 47  2  0  0  0  0
 56 54  1  0  0  0  0
 57 58  1  0  0  0  0
 57 56  1  0  0  0  0
M  END
>  <minimizedAffinity>
-5.4527483

>  <minimizedRMSD>
0.759395838

$$$$
