
 OpenBabel03252502243D

 47 51  0  0  1  0  0  0  0  0999 V2000
   47.2720   34.6620   42.4170 N   0  0  0  0  0  0  0  0  0  0  0  0
   48.6490   35.1090   42.5300 C   0  0  0  0  0  0  0  0  0  0  0  0
   48.8760   35.8910   41.2180 C   0  0  0  0  0  0  0  0  0  0  0  0
   48.8510   34.9120   40.0720 C   0  0  0  0  0  0  0  0  0  0  0  0
   47.7380   33.9360   40.1280 C   0  0  0  0  0  0  0  0  0  0  0  0
   46.7100   34.1620   41.1880 C   0  0  1  0  0  0  0  0  0  0  0  0
   49.3350   34.2400   42.5550 H   0  0  0  0  0  0  0  0  0  0  0  0
   48.7470   35.7820   43.3950 H   0  0  0  0  0  0  0  0  0  0  0  0
   49.8520   36.3820   41.2710 H   0  0  0  0  0  0  0  0  0  0  0  0
   48.0140   36.5890   41.1280 H   0  0  0  0  0  0  0  0  0  0  0  0
   49.8230   34.3590   40.1110 H   0  0  0  0  0  0  0  0  0  0  0  0
   48.8950   35.4870   39.1210 H   0  0  0  0  0  0  0  0  0  0  0  0
   48.1060   32.8800   40.1890 H   0  0  0  0  0  0  0  0  0  0  0  0
   47.1990   33.9780   39.1530 H   0  0  0  0  0  0  0  0  0  0  0  0
   45.9560   34.9050   40.8670 H   0  0  0  0  0  0  0  0  0  0  0  0
   44.5500   35.6250   44.8060 C   0  0  0  0  0  0  0  0  0  0  0  0
   45.3510   35.6550   43.6570 C   0  0  0  0  0  0  0  0  0  0  0  0
   46.4000   34.7060   43.5590 C   0  0  0  0  0  0  0  0  0  0  0  0
   46.5620   33.8310   44.5810 N   0  0  0  0  0  0  0  0  0  0  0  0
   45.7660   33.8350   45.6770 C   0  0  0  0  0  0  0  0  0  0  0  0
   44.7610   34.7380   45.7790 N   0  0  0  0  0  0  0  0  0  0  0  0
   43.7920   36.3990   44.7510 H   0  0  0  0  0  0  0  0  0  0  0  0
   45.2500   36.3350   42.8280 H   0  0  0  0  0  0  0  0  0  0  0  0
   45.9030   33.1360   46.4790 H   0  0  0  0  0  0  0  0  0  0  0  0
   46.0690   32.9500   41.4370 O   0  0  0  0  0  0  0  0  0  0  0  0
   44.7340   32.6570   41.2380 C   0  0  0  0  0  0  0  0  0  0  0  0
   43.9350   31.7240   41.8640 C   0  0  0  0  0  0  0  0  0  0  0  0
   44.4250   31.1470   42.6110 H   0  0  0  0  0  0  0  0  0  0  0  0
   42.6120   31.6140   41.4910 C   0  0  0  0  0  0  0  0  0  0  0  0
   42.0680   30.8400   42.0530 H   0  0  0  0  0  0  0  0  0  0  0  0
   42.0020   32.3760   40.5180 C   0  0  0  0  0  0  0  0  0  0  0  0
   42.7990   33.3030   39.8960 C   0  0  0  0  0  0  0  0  0  0  0  0
   44.1130   33.4300   40.2510 C   0  0  0  0  0  0  0  0  0  0  0  0
   44.6700   34.1980   39.6980 H   0  0  0  0  0  0  0  0  0  0  0  0
   42.0760   34.3250   38.6280 S   0  0  0  0  0  0  0  0  0  0  0  0
   40.3790   33.8260   38.5000 C   0  0  0  0  0  0  0  0  0  0  0  0
   39.6300   34.4880   37.5740 C   0  0  0  0  0  0  0  0  0  0  0  0
   40.0160   35.2660   36.9500 H   0  0  0  0  0  0  0  0  0  0  0  0
   38.2970   34.1610   37.4120 C   0  0  0  0  0  0  0  0  0  0  0  0
   37.6160   34.6210   36.7100 H   0  0  0  0  0  0  0  0  0  0  0  0
   37.7660   33.1610   38.2000 C   0  0  0  0  0  0  0  0  0  0  0  0
   36.7270   32.8790   38.1000 H   0  0  0  0  0  0  0  0  0  0  0  0
   38.5830   32.5320   39.1180 C   0  0  0  0  0  0  0  0  0  0  0  0
   38.0960   31.7470   39.7130 H   0  0  0  0  0  0  0  0  0  0  0  0
   39.9160   32.8250   39.3150 C   0  0  0  0  0  0  0  0  0  0  0  0
   40.6380   32.1120   40.2810 N   0  0  0  0  0  0  0  0  0  0  0  0
   40.1350   31.3770   40.8210 H   0  0  0  0  0  0  0  0  0  0  0  0
  1  2  1  0  0  0  0
  1 18  1  0  0  0  0
  2  7  1  0  0  0  0
  2  8  1  0  0  0  0
  3  9  1  0  0  0  0
  3  2  1  0  0  0  0
  4 11  1  0  0  0  0
  4  5  1  0  0  0  0
  4  3  1  0  0  0  0
  5 13  1  0  0  0  0
  5  6  1  0  0  0  0
  6 15  1  6  0  0  0
  6 25  1  0  0  0  0
  6  1  1  0  0  0  0
 10  3  1  0  0  0  0
 12  4  1  0  0  0  0
 14  5  1  0  0  0  0
 16 21  1  0  0  0  0
 17 16  2  0  0  0  0
 18 17  1  0  0  0  0
 18 19  2  0  0  0  0
 19 20  1  0  0  0  0
 20 21  2  0  0  0  0
 20 24  1  0  0  0  0
 22 16  1  0  0  0  0
 23 17  1  0  0  0  0
 26 25  1  0  0  0  0
 26 27  1  0  0  0  0
 27 28  1  0  0  0  0
 29 27  2  0  0  0  0
 29 30  1  0  0  0  0
 31 29  1  0  0  0  0
 32 33  1  0  0  0  0
 32 31  2  0  0  0  0
 33 26  2  0  0  0  0
 34 33  1  0  0  0  0
 35 32  1  0  0  0  0
 36 35  1  0  0  0  0
 36 45  1  0  0  0  0
 37 36  2  0  0  0  0
 38 37  1  0  0  0  0
 39 37  1  0  0  0  0
 39 41  2  0  0  0  0
 40 39  1  0  0  0  0
 41 43  1  0  0  0  0
 42 41  1  0  0  0  0
 43 45  2  0  0  0  0
 43 44  1  0  0  0  0
 45 46  1  0  0  0  0
 46 31  1  0  0  0  0
 46 47  1  0  0  0  0
M  END
>  <minimizedAffinity>
-6.71556234

>  <minimizedRMSD>
1.21467292

$$$$
