REMARK  Name = 
REMARK  2 active torsions:
REMARK  status: ('A' for Active; 'I' for Inactive)
REMARK    1  A    between atoms: C_2  and  S_7
REMARK    2  A    between atoms: S_7  and  C_11
REMARK                            x       y       z     vdW  Elec       q    Type
REMARK                         _______ _______ _______ _____ _____    ______ ____
ROOT
ATOM      1  C   UNL     1      42.120  34.869  41.413  0.00  0.00    +0.000 A 
ATOM      2  C   UNL     1      41.062  35.740  41.260  0.00  0.00    +0.000 A 
ATOM      3  H   UNL     1      41.236  36.805  41.210  0.00  0.00    +0.000 HD
ATOM      4  C   UNL     1      39.793  35.207  41.173  0.00  0.00    +0.000 A 
ATOM      5  H   UNL     1      39.002  35.944  41.053  0.00  0.00    +0.000 HD
ATOM      6  C   UNL     1      39.480  33.864  41.226  0.00  0.00    +0.000 A 
ATOM      7  C   UNL     1      40.570  33.043  41.379  0.00  0.00    +0.000 A 
ATOM      8  C   UNL     1      41.848  33.522  41.470  0.00  0.00    +0.000 A 
ATOM      9  H   UNL     1      42.696  32.856  41.590  0.00  0.00    +0.000 HD
ATOM     10  S   UNL     1      40.319  31.286  41.463  0.00  0.00    +0.000 S 
ATOM     11  C   UNL     1      38.561  31.029  41.314  0.00  0.00    +0.000 A 
ATOM     12  C   UNL     1      38.065  29.773  41.344  0.00  0.00    +0.000 A 
ATOM     13  H   UNL     1      38.744  28.916  41.461  0.00  0.00    +0.000 HD
ATOM     14  C   UNL     1      36.706  29.497  41.233  0.00  0.00    +0.000 A 
ATOM     15  H   UNL     1      36.331  28.493  41.260  0.00  0.00    +0.000 HD
ATOM     16  C   UNL     1      35.877  30.586  41.089  0.00  0.00    +0.000 A 
ATOM     17  H   UNL     1      34.816  30.392  41.001  0.00  0.00    +0.000 HD
ATOM     18  C   UNL     1      36.413  31.842  41.062  0.00  0.00    +0.000 A 
ATOM     19  H   UNL     1      35.677  32.644  40.944  0.00  0.00    +0.000 HD
ATOM     20  C   UNL     1      37.756  32.133  41.170  0.00  0.00    +0.000 A 
ATOM     21  N   UNL     1      38.148  33.481  41.124  0.00  0.00    +0.000 N 
ATOM     22  H   UNL     1      37.418  34.215  41.011  0.00  0.00    +0.000 HD
ENDROOT
BRANCH   1  23
ATOM     23  S   UNL     1      43.803  35.456  41.535  0.00  0.00    +0.000 S 
BRANCH  23  25
ATOM     24  C   UNL     1      44.266  35.735  44.260  0.00  0.00    +0.000 A 
ATOM     25  C   UNL     1      44.425  34.907  43.123  0.00  0.00    +0.000 A 
ATOM     26  C   UNL     1      45.064  33.685  43.283  0.00  0.00    +0.000 A 
ATOM     27  N   UNL     1      45.512  33.329  44.519  0.00  0.00    +0.000 NA
ATOM     28  C   UNL     1      45.340  34.151  45.584  0.00  0.00    +0.000 A 
ATOM     29  N   UNL     1      44.728  35.336  45.466  0.00  0.00    +0.000 NA
ATOM     30  H   UNL     1      43.773  36.673  44.129  0.00  0.00    +0.000 HD
ATOM     31  H   UNL     1      45.197  33.041  42.440  0.00  0.00    +0.000 HD
ATOM     32  H   UNL     1      45.745  33.738  46.499  0.00  0.00    +0.000 HD
ENDBRANCH  23  25
ENDBRANCH   1  23
TORSDOF 2
