REMARK  Name = 
REMARK  3 active torsions:
REMARK  status: ('A' for Active; 'I' for Inactive)
REMARK    1  A    between atoms: N_1  and  C_9
REMARK    2  A    between atoms: C_6  and  O_13
REMARK    3  A    between atoms: O_13  and  C_26
REMARK                            x       y       z     vdW  Elec       q    Type
REMARK                         _______ _______ _______ _____ _____    ______ ____
ROOT
ATOM      1  N   UNL     1      46.893  34.608  42.227  0.00  0.00    +0.000 N 
ATOM      2  C   UNL     1      48.334  34.781  42.265  0.00  0.00    +0.000 C 
ATOM      3  C   UNL     1      48.634  35.537  40.952  0.00  0.00    +0.000 C 
ATOM      4  C   UNL     1      48.358  34.609  39.796  0.00  0.00    +0.000 C 
ATOM      5  C   UNL     1      47.083  33.863  39.905  0.00  0.00    +0.000 C 
ATOM      6  C   UNL     1      46.178  34.255  41.027  0.00  0.00    +0.000 C 
ATOM      7  H   UNL     1      48.841  33.796  42.237  0.00  0.00    +0.000 HD
ATOM      8  H   UNL     1      48.608  35.401  43.131  0.00  0.00    +0.000 HD
ATOM      9  H   UNL     1      49.688  35.831  40.954  0.00  0.00    +0.000 HD
ATOM     10  H   UNL     1      47.919  36.389  40.923  0.00  0.00    +0.000 HD
ATOM     11  H   UNL     1      49.206  33.880  39.770  0.00  0.00    +0.000 HD
ATOM     12  H   UNL     1      48.459  35.189  38.852  0.00  0.00    +0.000 HD
ATOM     13  H   UNL     1      47.244  32.755  39.930  0.00  0.00    +0.000 HD
ATOM     14  H   UNL     1      46.509  34.031  38.964  0.00  0.00    +0.000 HD
ATOM     15  H   UNL     1      45.564  35.136  40.761  0.00  0.00    +0.000 HD
ENDROOT
BRANCH   1  18
ATOM     16  C   UNL     1      44.504  35.986  44.764  0.00  0.00    +0.000 A 
ATOM     17  C   UNL     1      45.227  35.889  43.568  0.00  0.00    +0.000 A 
ATOM     18  C   UNL     1      46.111  34.790  43.419  0.00  0.00    +0.000 A 
ATOM     19  N   UNL     1      46.200  33.904  44.441  0.00  0.00    +0.000 NA
ATOM     20  C   UNL     1      45.483  34.034  45.583  0.00  0.00    +0.000 A 
ATOM     21  N   UNL     1      44.636  35.081  45.734  0.00  0.00    +0.000 NA
ATOM     22  H   UNL     1      43.871  36.867  44.745  0.00  0.00    +0.000 HD
ATOM     23  H   UNL     1      45.180  36.573  42.738  0.00  0.00    +0.000 HD
ATOM     24  H   UNL     1      45.561  33.326  46.385  0.00  0.00    +0.000 HD
ENDBRANCH   1  18
BRANCH   6  25
ATOM     25  O   UNL     1      45.331  33.182  41.297  0.00  0.00    +0.000 OA
BRANCH  25  26
ATOM     26  C   UNL     1      43.950  33.178  41.249  0.00  0.00    +0.000 A 
ATOM     27  C   UNL     1      43.068  34.236  41.208  0.00  0.00    +0.000 A 
ATOM     28  H   UNL     1      43.523  35.197  41.215  0.00  0.00    +0.000 HD
ATOM     29  C   UNL     1      41.714  33.980  41.164  0.00  0.00    +0.000 A 
ATOM     30  H   UNL     1      41.102  34.894  41.135  0.00  0.00    +0.000 HD
ATOM     31  C   UNL     1      41.150  32.722  41.157  0.00  0.00    +0.000 A 
ATOM     32  C   UNL     1      42.030  31.671  41.198  0.00  0.00    +0.000 A 
ATOM     33  C   UNL     1      43.376  31.902  41.242  0.00  0.00    +0.000 A 
ATOM     34  H   UNL     1      44.000  30.999  41.273  0.00  0.00    +0.000 HD
ATOM     35  S   UNL     1      41.370  30.015  41.192  0.00  0.00    +0.000 S 
ATOM     36  C   UNL     1      39.607  30.186  41.129  0.00  0.00    +0.000 A 
ATOM     37  C   UNL     1      38.894  29.025  41.116  0.00  0.00    +0.000 A 
ATOM     38  H   UNL     1      39.344  28.056  41.141  0.00  0.00    +0.000 HD
ATOM     39  C   UNL     1      37.514  29.071  41.068  0.00  0.00    +0.000 A 
ATOM     40  H   UNL     1      36.855  28.213  41.054  0.00  0.00    +0.000 HD
ATOM     41  C   UNL     1      36.898  30.305  41.035  0.00  0.00    +0.000 A 
ATOM     42  H   UNL     1      35.820  30.378  40.997  0.00  0.00    +0.000 HD
ATOM     43  C   UNL     1      37.682  31.441  41.051  0.00  0.00    +0.000 A 
ATOM     44  H   UNL     1      37.129  32.389  41.023  0.00  0.00    +0.000 HD
ATOM     45  C   UNL     1      39.061  31.444  41.098  0.00  0.00    +0.000 A 
ATOM     46  N   UNL     1      39.741  32.668  41.109  0.00  0.00    +0.000 N 
ATOM     47  H   UNL     1      39.175  33.541  41.081  0.00  0.00    +0.000 HD
ENDBRANCH  25  26
ENDBRANCH   6  25
TORSDOF 3
