
 OpenBabel03252506133D

 49 53  0  0  0  0  0  0  0  0999 V2000
   48.0700   34.6500   37.0640 O   0  0  0  0  0  0  0  0  0  0  0  0
   47.2360   33.4080   37.2660 P   0  0  2  0  0  0  0  0  0  0  0  0
   45.8940   33.4140   36.2140 O   0  0  0  0  0  0  0  0  0  0  0  0
   45.9380   34.2240   35.6830 H   0  0  0  0  0  0  0  0  0  0  0  0
   46.6650   33.2740   38.8450 O   0  0  0  0  0  0  0  0  0  0  0  0
   45.1670   33.4380   41.2250 F   0  0  0  0  0  0  0  0  0  0  0  0
   46.3370   34.0410   41.0900 C   0  0  0  0  0  0  0  0  0  0  0  0
   46.8420   34.7730   42.1490 C   0  0  0  0  0  0  0  0  0  0  0  0
   48.0700   35.4420   42.0990 C   0  0  0  0  0  0  0  0  0  0  0  0
   48.8310   35.3750   40.9310 C   0  0  0  0  0  0  0  0  0  0  0  0
   48.2990   34.6360   39.8980 C   0  0  0  0  0  0  0  0  0  0  0  0
   47.1080   33.9820   39.9320 C   0  0  0  0  0  0  0  0  0  0  0  0
   48.3990   36.0000   42.9790 H   0  0  0  0  0  0  0  0  0  0  0  0
   49.7700   35.9050   40.9380 H   0  0  0  0  0  0  0  0  0  0  0  0
   48.9870   34.6570   39.0610 H   0  0  0  0  0  0  0  0  0  0  0  0
   45.6470   34.0690   45.5460 C   0  0  0  0  0  0  0  0  0  0  0  0
   44.6720   35.0660   45.7250 C   0  0  0  0  0  0  0  0  0  0  0  0
   44.4230   35.9900   44.6680 C   0  0  0  0  0  0  0  0  0  0  0  0
   45.1680   35.8330   43.5310 N   0  0  0  0  0  0  0  0  0  0  0  0
   46.0840   34.8720   43.4010 C   0  0  0  0  0  0  0  0  0  0  0  0
   46.3190   34.0020   44.3980 N   0  0  0  0  0  0  0  0  0  0  0  0
   44.1020   35.1720   46.6170 H   0  0  0  0  0  0  0  0  0  0  0  0
   43.6810   36.7670   44.7750 H   0  0  0  0  0  0  0  0  0  0  0  0
   45.8790   33.1590   46.6070 N   0  0  0  0  0  0  0  0  0  0  0  0
   45.7020   32.1240   46.6800 H   0  0  0  0  0  0  0  0  0  0  0  0
   46.2920   33.4210   47.5330 H   0  0  0  0  0  0  0  0  0  0  0  0
   48.1520   32.0650   36.7840 O   0  0  0  0  0  0  0  0  0  0  0  0
   48.7450   31.2910   37.7730 C   0  0  0  0  0  0  0  0  0  0  0  0
   48.0460   30.1940   38.2340 C   0  0  0  0  0  0  0  0  0  0  0  0
   47.0670   29.9590   37.8260 H   0  0  0  0  0  0  0  0  0  0  0  0
   48.6200   29.4110   39.2180 C   0  0  0  0  0  0  0  0  0  0  0  0
   48.0020   28.5540   39.5350 H   0  0  0  0  0  0  0  0  0  0  0  0
   49.8580   29.6480   39.7810 C   0  0  0  0  0  0  0  0  0  0  0  0
   50.5150   30.7310   39.3060 C   0  0  0  0  0  0  0  0  0  0  0  0
   49.9850   31.5150   38.3470 C   0  0  0  0  0  0  0  0  0  0  0  0
   50.5320   32.3940   37.9690 H   0  0  0  0  0  0  0  0  0  0  0  0
   52.1210   31.1090   39.9790 S   0  0  0  0  0  0  0  0  0  0  0  0
   52.4400   29.8450   41.1960 C   0  0  0  0  0  0  0  0  0  0  0  0
   53.6370   29.9240   41.8620 C   0  0  0  0  0  0  0  0  0  0  0  0
   54.3550   30.7140   41.6600 H   0  0  0  0  0  0  0  0  0  0  0  0
   53.9690   28.9950   42.8190 C   0  0  0  0  0  0  0  0  0  0  0  0
   54.8990   29.0440   43.3440 H   0  0  0  0  0  0  0  0  0  0  0  0
   53.0670   27.9950   43.0770 C   0  0  0  0  0  0  0  0  0  0  0  0
   53.3330   27.2670   43.8280 H   0  0  0  0  0  0  0  0  0  0  0  0
   51.8900   27.9680   42.3810 C   0  0  0  0  0  0  0  0  0  0  0  0
   51.2400   27.1330   42.6600 H   0  0  0  0  0  0  0  0  0  0  0  0
   51.5020   28.8710   41.4120 C   0  0  0  0  0  0  0  0  0  0  0  0
   50.2760   28.7490   40.7640 N   0  0  0  0  0  0  0  0  0  0  0  0
   49.6820   27.9440   41.0540 H   0  0  0  0  0  0  0  0  0  0  0  0
  2  1  2  6  0  0  0
  2  5  1  0  0  0  0
  3  2  1  0  0  0  0
  4  3  1  0  0  0  0
  5 12  1  0  0  0  0
  7  6  1  0  0  0  0
  7  8  1  0  0  0  0
  8 20  1  0  0  0  0
  9  8  2  0  0  0  0
  9 13  1  0  0  0  0
 10 14  1  0  0  0  0
 10  9  1  0  0  0  0
 11 12  1  0  0  0  0
 11 10  2  0  0  0  0
 12  7  2  0  0  0  0
 15 11  1  0  0  0  0
 16 17  1  0  0  0  0
 16 24  1  0  0  0  0
 17 22  1  0  0  0  0
 18 23  1  0  0  0  0
 18 17  2  0  0  0  0
 19 18  1  0  0  0  0
 20 19  2  0  0  0  0
 20 21  1  0  0  0  0
 21 16  2  0  0  0  0
 24 25  1  0  0  0  0
 24 26  1  0  0  0  0
 27  2  1  0  0  0  0
 27 28  1  0  0  0  0
 28 29  2  0  0  0  0
 28 35  1  0  0  0  0
 29 31  1  0  0  0  0
 30 29  1  0  0  0  0
 31 32  1  0  0  0  0
 31 33  2  0  0  0  0
 33 48  1  0  0  0  0
 34 33  1  0  0  0  0
 34 37  1  0  0  0  0
 35 34  2  0  0  0  0
 36 35  1  0  0  0  0
 37 38  1  0  0  0  0
 38 47  2  0  0  0  0
 38 39  1  0  0  0  0
 39 41  2  0  0  0  0
 40 39  1  0  0  0  0
 41 43  1  0  0  0  0
 41 42  1  0  0  0  0
 43 44  1  0  0  0  0
 45 46  1  0  0  0  0
 45 43  2  0  0  0  0
 47 45  1  0  0  0  0
 48 49  1  0  0  0  0
 48 47  1  0  0  0  0
M  END
>  <minimizedAffinity>
-6.39816904

>  <minimizedRMSD>
4.3863368

$$$$
