REMARK  Name = 
REMARK  7 active torsions:
REMARK  status: ('A' for Active; 'I' for Inactive)
REMARK    1  A    between atoms: C_3  and  C_12
REMARK    2  A    between atoms: C_7  and  O_15
REMARK    3  A    between atoms: C_8  and  N_14
REMARK    4  A    between atoms: O_15  and  P_17
REMARK    5  A    between atoms: P_17  and  O_18
REMARK    6  A    between atoms: P_17  and  O_19
REMARK    7  A    between atoms: O_19  and  C_28
REMARK                            x       y       z     vdW  Elec       q    Type
REMARK                         _______ _______ _______ _____ _____    ______ ____
ROOT
ATOM      1  O   UNL     1      48.080  34.662  36.998  0.00  0.00    +0.000 OA
ATOM      2  P   UNL     1      47.330  33.377  37.251  0.00  0.00    +0.000 P 
ENDROOT
BRANCH   2   3
ATOM      3  O   UNL     1      46.061  33.195  36.126  0.00  0.00    +0.000 OA
ATOM      4  H   UNL     1      46.078  33.963  35.534  0.00  0.00    +0.000 HD
ENDBRANCH   2   3
BRANCH   2   5
ATOM      5  O   UNL     1      46.670  33.319  38.800  0.00  0.00    +0.000 OA
BRANCH   5  12
ATOM      6  F   UNL     1      45.139  33.507  41.157  0.00  0.00    +0.000 F 
ATOM      7  C   UNL     1      46.325  34.083  41.044  0.00  0.00    +0.000 A 
ATOM      8  C   UNL     1      46.830  34.798  42.114  0.00  0.00    +0.000 A 
ATOM      9  C   UNL     1      48.074  35.438  42.087  0.00  0.00    +0.000 A 
ATOM     10  C   UNL     1      48.852  35.358  40.931  0.00  0.00    +0.000 A 
ATOM     11  C   UNL     1      48.319  34.637  39.886  0.00  0.00    +0.000 A 
ATOM     12  C   UNL     1      47.112  34.011  39.898  0.00  0.00    +0.000 A 
ATOM     13  H   UNL     1      48.402  35.984  42.975  0.00  0.00    +0.000 HD
ATOM     14  H   UNL     1      49.803  35.866  40.956  0.00  0.00    +0.000 HD
ATOM     15  H   UNL     1      49.020  34.646  39.060  0.00  0.00    +0.000 HD
BRANCH   8  20
ATOM     16  C   UNL     1      45.450  34.021  45.424  0.00  0.00    +0.000 A 
ATOM     17  C   UNL     1      44.612  35.126  45.658  0.00  0.00    +0.000 A 
ATOM     18  C   UNL     1      44.521  36.148  44.668  0.00  0.00    +0.000 A 
ATOM     19  N   UNL     1      45.272  35.973  43.538  0.00  0.00    +0.000 NA
ATOM     20  C   UNL     1      46.055  34.909  43.355  0.00  0.00    +0.000 A 
ATOM     21  N   UNL     1      46.141  33.946  44.288  0.00  0.00    +0.000 NA
ATOM     22  H   UNL     1      44.035  35.244  46.544  0.00  0.00    +0.000 HD
ATOM     23  H   UNL     1      43.886  37.009  44.818  0.00  0.00    +0.000 HD
BRANCH  16  24
ATOM     24  N   UNL     1      45.527  33.015  46.419  0.00  0.00    +0.000 N 
ATOM     25  H   UNL     1      45.211  32.011  46.410  0.00  0.00    +0.000 HD
ATOM     26  H   UNL     1      45.943  33.151  47.370  0.00  0.00    +0.000 HD
ENDBRANCH  16  24
ENDBRANCH   8  20
ENDBRANCH   5  12
ENDBRANCH   2   5
BRANCH   2  27
ATOM     27  O   UNL     1      48.372  32.078  36.934  0.00  0.00    +0.000 OA
BRANCH  27  28
ATOM     28  C   UNL     1      47.821  30.806  36.845  0.00  0.00    +0.000 A 
ATOM     29  C   UNL     1      46.503  30.651  37.228  0.00  0.00    +0.000 A 
ATOM     30  H   UNL     1      45.933  31.503  37.584  0.00  0.00    +0.000 HD
ATOM     31  C   UNL     1      45.936  29.391  37.147  0.00  0.00    +0.000 A 
ATOM     32  H   UNL     1      44.884  29.347  37.470  0.00  0.00    +0.000 HD
ATOM     33  C   UNL     1      46.599  28.264  36.706  0.00  0.00    +0.000 A 
ATOM     34  C   UNL     1      47.887  28.454  36.339  0.00  0.00    +0.000 A 
ATOM     35  C   UNL     1      48.472  29.666  36.404  0.00  0.00    +0.000 A 
ATOM     36  H   UNL     1      49.523  29.805  36.102  0.00  0.00    +0.000 HD
ATOM     37  S   UNL     1      48.817  27.049  35.756  0.00  0.00    +0.000 S 
ATOM     38  C   UNL     1      47.691  25.667  35.825  0.00  0.00    +0.000 A 
ATOM     39  C   UNL     1      48.185  24.453  35.419  0.00  0.00    +0.000 A 
ATOM     40  H   UNL     1      49.208  24.337  35.073  0.00  0.00    +0.000 HD
ATOM     41  C   UNL     1      47.391  23.332  35.438  0.00  0.00    +0.000 A 
ATOM     42  H   UNL     1      47.762  22.380  35.125  0.00  0.00    +0.000 HD
ATOM     43  C   UNL     1      46.099  23.474  35.875  0.00  0.00    +0.000 A 
ATOM     44  H   UNL     1      45.479  22.590  35.888  0.00  0.00    +0.000 HD
ATOM     45  C   UNL     1      45.663  24.709  36.267  0.00  0.00    +0.000 A 
ATOM     46  H   UNL     1      44.619  24.716  36.598  0.00  0.00    +0.000 HD
ATOM     47  C   UNL     1      46.411  25.867  36.270  0.00  0.00    +0.000 A 
ATOM     48  N   UNL     1      45.866  27.077  36.692  0.00  0.00    +0.000 N 
ATOM     49  H   UNL     1      44.870  27.049  37.000  0.00  0.00    +0.000 HD
ENDBRANCH  27  28
ENDBRANCH   2  27
TORSDOF 7
