
 OpenBabel03252502243D

 47 51  0  0  1  0  0  0  0  0999 V2000
   47.1820   34.5030   42.7980 N   0  0  0  0  0  0  0  0  0  0  0  0
   48.6090   34.2750   42.9390 C   0  0  0  0  0  0  0  0  0  0  0  0
   49.2280   35.2810   41.9440 C   0  0  0  0  0  0  0  0  0  0  0  0
   48.8750   34.8440   40.5450 C   0  0  0  0  0  0  0  0  0  0  0  0
   47.4550   34.4580   40.3670 C   0  0  0  0  0  0  0  0  0  0  0  0
   46.5460   34.7210   41.5230 C   0  0  1  0  0  0  0  0  0  0  0  0
   48.8680   33.2460   42.6180 H   0  0  0  0  0  0  0  0  0  0  0  0
   48.9210   34.5160   43.9660 H   0  0  0  0  0  0  0  0  0  0  0  0
   50.3140   35.2760   42.0760 H   0  0  0  0  0  0  0  0  0  0  0  0
   48.7430   36.2590   42.1610 H   0  0  0  0  0  0  0  0  0  0  0  0
   49.5230   33.9610   40.3190 H   0  0  0  0  0  0  0  0  0  0  0  0
   49.2170   35.6310   39.8370 H   0  0  0  0  0  0  0  0  0  0  0  0
   47.3460   33.3910   40.0460 H   0  0  0  0  0  0  0  0  0  0  0  0
   47.0490   35.0420   39.5080 H   0  0  0  0  0  0  0  0  0  0  0  0
   46.1930   35.7690   41.5290 H   0  0  0  0  0  0  0  0  0  0  0  0
   44.5500   35.4440   45.2930 C   0  0  0  0  0  0  0  0  0  0  0  0
   45.3300   35.5060   44.1310 C   0  0  0  0  0  0  0  0  0  0  0  0
   46.3340   34.5200   43.9580 C   0  0  0  0  0  0  0  0  0  0  0  0
   46.4750   33.5810   44.9260 N   0  0  0  0  0  0  0  0  0  0  0  0
   45.6990   33.5560   46.0360 C   0  0  0  0  0  0  0  0  0  0  0  0
   44.7370   34.4950   46.2090 N   0  0  0  0  0  0  0  0  0  0  0  0
   43.8260   36.2530   45.2970 H   0  0  0  0  0  0  0  0  0  0  0  0
   45.2450   36.2360   43.3440 H   0  0  0  0  0  0  0  0  0  0  0  0
   45.8190   32.8080   46.7950 H   0  0  0  0  0  0  0  0  0  0  0  0
   45.4440   33.8760   41.4100 O   0  0  0  0  0  0  0  0  0  0  0  0
   44.2150   34.1790   40.8560 C   0  0  0  0  0  0  0  0  0  0  0  0
   43.5120   35.3640   40.8720 C   0  0  0  0  0  0  0  0  0  0  0  0
   43.9910   36.1610   41.3880 H   0  0  0  0  0  0  0  0  0  0  0  0
   42.2880   35.4270   40.2420 C   0  0  0  0  0  0  0  0  0  0  0  0
   41.8130   36.4180   40.3150 H   0  0  0  0  0  0  0  0  0  0  0  0
   41.6880   34.3780   39.5800 C   0  0  0  0  0  0  0  0  0  0  0  0
   42.3900   33.1980   39.5660 C   0  0  0  0  0  0  0  0  0  0  0  0
   43.6060   33.1150   40.1840 C   0  0  0  0  0  0  0  0  0  0  0  0
   44.0900   32.1320   40.1190 H   0  0  0  0  0  0  0  0  0  0  0  0
   41.6740   31.7990   38.7270 S   0  0  0  0  0  0  0  0  0  0  0  0
   40.1180   32.3520   38.0820 C   0  0  0  0  0  0  0  0  0  0  0  0
   39.3940   31.4250   37.3930 C   0  0  0  0  0  0  0  0  0  0  0  0
   39.7190   30.4200   37.2370 H   0  0  0  0  0  0  0  0  0  0  0  0
   38.1690   31.7750   36.8580 C   0  0  0  0  0  0  0  0  0  0  0  0
   37.5150   31.1210   36.2960 H   0  0  0  0  0  0  0  0  0  0  0  0
   37.7170   33.0670   37.0410 C   0  0  0  0  0  0  0  0  0  0  0  0
   36.7620   33.3750   36.6350 H   0  0  0  0  0  0  0  0  0  0  0  0
   38.5020   33.9530   37.7500 C   0  0  0  0  0  0  0  0  0  0  0  0
   38.0830   34.9620   37.8580 H   0  0  0  0  0  0  0  0  0  0  0  0
   39.7300   33.6490   38.3010 C   0  0  0  0  0  0  0  0  0  0  0  0
   40.4290   34.6410   38.9990 N   0  0  0  0  0  0  0  0  0  0  0  0
   39.9940   35.5830   39.0770 H   0  0  0  0  0  0  0  0  0  0  0  0
  1  2  1  0  0  0  0
  1 18  1  0  0  0  0
  2  8  1  0  0  0  0
  3  9  1  0  0  0  0
  3 10  1  0  0  0  0
  3  2  1  0  0  0  0
  4  3  1  0  0  0  0
  5  4  1  0  0  0  0
  5  6  1  0  0  0  0
  6 15  1  6  0  0  0
  6  1  1  0  0  0  0
  7  2  1  0  0  0  0
 11  4  1  0  0  0  0
 12  4  1  0  0  0  0
 13  5  1  0  0  0  0
 14  5  1  0  0  0  0
 16 22  1  0  0  0  0
 16 21  1  0  0  0  0
 17 16  2  0  0  0  0
 18 17  1  0  0  0  0
 18 19  2  0  0  0  0
 19 20  1  0  0  0  0
 20 21  2  0  0  0  0
 20 24  1  0  0  0  0
 23 17  1  0  0  0  0
 25  6  1  0  0  0  0
 26 27  1  0  0  0  0
 26 25  1  0  0  0  0
 27 28  1  0  0  0  0
 29 30  1  0  0  0  0
 29 27  2  0  0  0  0
 31 29  1  0  0  0  0
 32 31  2  0  0  0  0
 32 33  1  0  0  0  0
 33 26  2  0  0  0  0
 34 33  1  0  0  0  0
 35 32  1  0  0  0  0
 36 45  1  0  0  0  0
 36 35  1  0  0  0  0
 37 36  2  0  0  0  0
 38 37  1  0  0  0  0
 39 41  2  0  0  0  0
 39 37  1  0  0  0  0
 40 39  1  0  0  0  0
 41 43  1  0  0  0  0
 42 41  1  0  0  0  0
 43 44  1  0  0  0  0
 43 45  2  0  0  0  0
 45 46  1  0  0  0  0
 46 47  1  0  0  0  0
 46 31  1  0  0  0  0
M  END
>  <minimizedAffinity>
-7.05106306

>  <minimizedRMSD>
1.27543998

$$$$
