
 OpenBabel03252509013D

 58 62  0  0  1  0  0  0  0  0999 V2000
   47.2050   34.1220   43.0650 N   0  0  0  0  0  0  0  0  0  0  0  0
   46.6920   35.3270   42.5270 C   0  0  0  0  0  0  0  0  0  0  0  0
   45.2110   35.5490   42.7470 C   0  0  0  0  0  0  0  0  0  0  0  0
   44.6870   35.0020   44.0390 C   0  0  0  0  0  0  0  0  0  0  0  0
   45.7860   34.4070   44.8870 C   0  0  0  0  0  0  0  0  0  0  0  0
   46.4460   33.3510   43.9310 C   0  0  2  0  0  0  0  0  0  0  0  0
   46.8930   35.5030   41.4700 H   0  0  0  0  0  0  0  0  0  0  0  0
   47.2040   36.1660   43.0770 H   0  0  0  0  0  0  0  0  0  0  0  0
   44.6560   35.1300   41.8720 H   0  0  0  0  0  0  0  0  0  0  0  0
   45.0180   36.6450   42.7380 H   0  0  0  0  0  0  0  0  0  0  0  0
   44.0730   35.7470   44.5940 H   0  0  0  0  0  0  0  0  0  0  0  0
   43.9820   34.1550   43.8000 H   0  0  0  0  0  0  0  0  0  0  0  0
   46.5350   35.1390   45.2000 H   0  0  0  0  0  0  0  0  0  0  0  0
   45.3190   33.8650   45.7330 H   0  0  0  0  0  0  0  0  0  0  0  0
   45.5920   32.7760   43.5300 H   0  0  0  0  0  0  0  0  0  0  0  0
   48.1790   33.4830   42.2370 C   0  0  0  0  0  0  0  0  0  0  0  0
   48.8010   32.8010   42.8730 H   0  0  0  0  0  0  0  0  0  0  0  0
   48.8520   34.2290   41.8110 H   0  0  0  0  0  0  0  0  0  0  0  0
   47.4810   32.6310   41.2240 C   0  0  0  0  0  0  0  0  0  0  0  0
   46.3920   32.8720   41.1860 H   0  0  0  0  0  0  0  0  0  0  0  0
   47.5460   31.5540   41.4250 H   0  0  0  0  0  0  0  0  0  0  0  0
   49.3530   32.3030   37.9820 C   0  0  0  0  0  0  0  0  0  0  0  0
   48.8390   32.0190   39.2610 C   0  0  0  0  0  0  0  0  0  0  0  0
   48.0200   32.9380   39.8730 C   0  0  0  0  0  0  0  0  0  0  0  0
   47.7490   34.0730   39.2140 N   0  0  0  0  0  0  0  0  0  0  0  0
   48.2470   34.3350   37.9890 C   0  0  0  0  0  0  0  0  0  0  0  0
   49.0500   33.4560   37.3650 N   0  0  0  0  0  0  0  0  0  0  0  0
   49.9990   31.5560   37.5220 H   0  0  0  0  0  0  0  0  0  0  0  0
   49.0790   31.0870   39.7700 H   0  0  0  0  0  0  0  0  0  0  0  0
   47.9830   35.2720   37.5190 H   0  0  0  0  0  0  0  0  0  0  0  0
   47.2450   32.6340   44.8150 O   0  0  0  0  0  0  0  0  0  0  0  0
   45.3820   30.8050   44.3480 O   0  0  0  0  0  0  0  0  0  0  0  0
   46.6130   31.1190   45.1850 P   0  0  2  0  0  0  0  0  0  0  0  0
   46.0450   31.2220   46.7970 O   0  0  0  0  0  0  0  0  0  0  0  0
   46.7920   31.0930   47.4310 H   0  0  0  0  0  0  0  0  0  0  0  0
   47.7690   29.9170   45.1110 O   0  0  0  0  0  0  0  0  0  0  0  0
   48.0740   28.9990   46.0810 C   0  0  0  0  0  0  0  0  0  0  0  0
   48.9690   29.2860   47.0920 C   0  0  0  0  0  0  0  0  0  0  0  0
   49.4390   30.2550   47.1210 H   0  0  0  0  0  0  0  0  0  0  0  0
   49.2420   28.3240   48.0450 C   0  0  0  0  0  0  0  0  0  0  0  0
   49.9660   28.6370   48.8140 H   0  0  0  0  0  0  0  0  0  0  0  0
   48.6620   27.0730   48.0450 C   0  0  0  0  0  0  0  0  0  0  0  0
   47.7690   26.7710   47.0460 C   0  0  0  0  0  0  0  0  0  0  0  0
   47.5140   27.7390   46.1110 C   0  0  0  0  0  0  0  0  0  0  0  0
   46.8040   27.4990   45.3170 H   0  0  0  0  0  0  0  0  0  0  0  0
   47.0000   25.1680   47.0120 S   0  0  0  0  0  0  0  0  0  0  0  0
   47.6510   24.2850   48.4170 C   0  0  0  0  0  0  0  0  0  0  0  0
   47.1950   23.0260   48.5860 C   0  0  0  0  0  0  0  0  0  0  0  0
   46.4790   22.5510   47.9290 H   0  0  0  0  0  0  0  0  0  0  0  0
   47.6400   22.2630   49.6460 C   0  0  0  0  0  0  0  0  0  0  0  0
   47.2780   21.2540   49.7860 H   0  0  0  0  0  0  0  0  0  0  0  0
   48.5540   22.8240   50.5150 C   0  0  0  0  0  0  0  0  0  0  0  0
   48.9300   22.2620   51.3590 H   0  0  0  0  0  0  0  0  0  0  0  0
   48.9750   24.1160   50.2800 C   0  0  0  0  0  0  0  0  0  0  0  0
   49.7020   24.5060   51.0040 H   0  0  0  0  0  0  0  0  0  0  0  0
   48.5580   24.9120   49.2350 C   0  0  0  0  0  0  0  0  0  0  0  0
   49.0600   26.2260   49.0950 N   0  0  0  0  0  0  0  0  0  0  0  0
   49.7450   26.5270   49.8170 H   0  0  0  0  0  0  0  0  0  0  0  0
  1  6  1  0  0  0  0
  2  3  1  0  0  0  0
  2  1  1  0  0  0  0
  2  8  1  0  0  0  0
  3  4  1  0  0  0  0
  4 11  1  0  0  0  0
  4  5  1  0  0  0  0
  5 13  1  0  0  0  0
  5 14  1  0  0  0  0
  6 15  1  6  0  0  0
  6 31  1  0  0  0  0
  6  5  1  0  0  0  0
  7  2  1  0  0  0  0
  9  3  1  0  0  0  0
 10  3  1  0  0  0  0
 12  4  1  0  0  0  0
 16 17  1  0  0  0  0
 16  1  1  0  0  0  0
 18 16  1  0  0  0  0
 19 21  1  0  0  0  0
 19 16  1  0  0  0  0
 20 19  1  0  0  0  0
 22 23  1  0  0  0  0
 23 29  1  0  0  0  0
 23 24  2  0  0  0  0
 24 19  1  0  0  0  0
 25 24  1  0  0  0  0
 26 25  2  0  0  0  0
 27 22  2  0  0  0  0
 27 26  1  0  0  0  0
 28 22  1  0  0  0  0
 30 26  1  0  0  0  0
 31 33  1  0  0  0  0
 33 32  2  6  0  0  0
 33 34  1  0  0  0  0
 34 35  1  0  0  0  0
 36 33  1  0  0  0  0
 36 37  1  0  0  0  0
 37 44  2  0  0  0  0
 37 38  1  0  0  0  0
 38 39  1  0  0  0  0
 38 40  2  0  0  0  0
 40 42  1  0  0  0  0
 40 41  1  0  0  0  0
 42 57  1  0  0  0  0
 43 42  2  0  0  0  0
 44 43  1  0  0  0  0
 45 44  1  0  0  0  0
 46 43  1  0  0  0  0
 46 47  1  0  0  0  0
 47 48  2  0  0  0  0
 47 56  1  0  0  0  0
 48 50  1  0  0  0  0
 49 48  1  0  0  0  0
 50 51  1  0  0  0  0
 50 52  2  0  0  0  0
 52 53  1  0  0  0  0
 54 52  1  0  0  0  0
 54 55  1  0  0  0  0
 56 54  2  0  0  0  0
 57 56  1  0  0  0  0
 57 58  1  0  0  0  0
M  END
>  <minimizedAffinity>
-5.01546907

>  <minimizedRMSD>
0.857418001

$$$$
