
 OpenBabel03242523123D

 59 65  0  0  1  0  0  0  0  0999 V2000
   46.4300   31.9990   45.5090 C   0  0  0  0  0  0  0  0  0  0  0  0
   46.7410   32.7460   44.3510 C   0  0  0  0  0  0  0  0  0  0  0  0
   47.7080   32.1220   43.6010 C   0  0  0  0  0  0  0  0  0  0  0  0
   48.3170   30.9430   43.8980 C   0  0  0  0  0  0  0  0  0  0  0  0
   47.9570   30.2700   45.0620 C   0  0  0  0  0  0  0  0  0  0  0  0
   46.9960   30.8100   45.8770 C   0  0  0  0  0  0  0  0  0  0  0  0
   48.7460   29.1310   45.0740 O   0  0  0  0  0  0  0  0  0  0  0  0
   49.5410   29.0740   43.9060 C   0  0  2  0  0  0  0  0  0  0  0  0
   49.2910   30.2720   43.1800 O   0  0  0  0  0  0  0  0  0  0  0  0
   45.6920   32.2120   46.3130 H   0  0  0  0  0  0  0  0  0  0  0  0
   47.9540   32.6570   42.7380 H   0  0  0  0  0  0  0  0  0  0  0  0
   46.8070   30.2120   46.7250 H   0  0  0  0  0  0  0  0  0  0  0  0
   50.6180   29.0080   44.1740 H   0  0  0  0  0  0  0  0  0  0  0  0
   45.1060   36.0110   43.5110 C   0  0  0  0  0  0  0  0  0  0  0  0
   45.9020   34.8910   43.2790 C   0  0  0  0  0  0  0  0  0  0  0  0
   46.0440   33.9530   44.2580 C   0  0  0  0  0  0  0  0  0  0  0  0
   45.3820   34.1770   45.4350 N   0  0  0  0  0  0  0  0  0  0  0  0
   44.6180   35.2520   45.6560 C   0  0  0  0  0  0  0  0  0  0  0  0
   44.4860   36.1480   44.7100 N   0  0  0  0  0  0  0  0  0  0  0  0
   44.9860   36.7580   42.7430 H   0  0  0  0  0  0  0  0  0  0  0  0
   44.0720   35.4850   46.5590 H   0  0  0  0  0  0  0  0  0  0  0  0
   46.5420   34.8080   42.0430 N   0  0  0  0  0  0  0  0  0  0  0  0
   47.8690   35.2960   41.8420 C   0  0  0  0  0  0  0  0  0  0  0  0
   48.4680   34.9700   40.5040 C   0  0  0  0  0  0  0  0  0  0  0  0
   48.1620   33.7040   40.0180 N   0  0  0  0  0  0  0  0  0  0  0  0
   46.8840   33.2450   40.1780 C   0  0  0  0  0  0  0  0  0  0  0  0
   46.0000   34.2600   40.8630 C   0  0  0  0  0  0  0  0  0  0  0  0
   48.5870   35.0210   42.6510 H   0  0  0  0  0  0  0  0  0  0  0  0
   47.8060   36.4180   41.9090 H   0  0  0  0  0  0  0  0  0  0  0  0
   48.0650   35.7330   39.7770 H   0  0  0  0  0  0  0  0  0  0  0  0
   49.5540   35.1970   40.5570 H   0  0  0  0  0  0  0  0  0  0  0  0
   48.8200   33.2320   39.3990 H   0  0  0  0  0  0  0  0  0  0  0  0
   46.7620   32.2660   40.7070 H   0  0  0  0  0  0  0  0  0  0  0  0
   46.4110   33.0530   39.1710 H   0  0  0  0  0  0  0  0  0  0  0  0
   45.0680   33.6970   41.1450 H   0  0  0  0  0  0  0  0  0  0  0  0
   45.6980   34.9960   40.0790 H   0  0  0  0  0  0  0  0  0  0  0  0
   49.0950   27.9840   43.1530 O   0  0  0  0  0  0  0  0  0  0  0  0
   49.8160   26.8970   42.7510 C   0  0  0  0  0  0  0  0  0  0  0  0
   50.9370   26.8890   41.9470 C   0  0  0  0  0  0  0  0  0  0  0  0
   51.2860   27.8490   41.5950 H   0  0  0  0  0  0  0  0  0  0  0  0
   51.5340   25.6840   41.6450 C   0  0  0  0  0  0  0  0  0  0  0  0
   52.4170   25.7700   41.0030 H   0  0  0  0  0  0  0  0  0  0  0  0
   51.0870   24.4650   42.0930 C   0  0  0  0  0  0  0  0  0  0  0  0
   49.9840   24.4860   42.8830 C   0  0  0  0  0  0  0  0  0  0  0  0
   49.3750   25.6450   43.1990 C   0  0  0  0  0  0  0  0  0  0  0  0
   48.4840   25.5960   43.8430 H   0  0  0  0  0  0  0  0  0  0  0  0
   49.3460   22.9410   43.5040 S   0  0  0  0  0  0  0  0  0  0  0  0
   50.4370   21.6890   42.8520 C   0  0  0  0  0  0  0  0  0  0  0  0
   50.1140   20.4070   43.2180 C   0  0  0  0  0  0  0  0  0  0  0  0
   49.2630   20.1360   43.8570 H   0  0  0  0  0  0  0  0  0  0  0  0
   50.8990   19.3600   42.7640 C   0  0  0  0  0  0  0  0  0  0  0  0
   50.7180   18.3220   43.0040 H   0  0  0  0  0  0  0  0  0  0  0  0
   51.9820   19.6420   41.9580 C   0  0  0  0  0  0  0  0  0  0  0  0
   52.6030   18.8340   41.5960 H   0  0  0  0  0  0  0  0  0  0  0  0
   52.2280   20.9630   41.6430 C   0  0  0  0  0  0  0  0  0  0  0  0
   53.1090   21.1020   40.9960 H   0  0  0  0  0  0  0  0  0  0  0  0
   51.4790   22.0420   42.0660 C   0  0  0  0  0  0  0  0  0  0  0  0
   51.8180   23.3400   41.6870 N   0  0  0  0  0  0  0  0  0  0  0  0
   52.6560   23.4380   41.0750 H   0  0  0  0  0  0  0  0  0  0  0  0
  1  6  1  0  0  0  0
  1 10  1  0  0  0  0
  2  1  2  0  0  0  0
  3  4  2  0  0  0  0
  3  2  1  0  0  0  0
  4  5  1  0  0  0  0
  5  7  1  0  0  0  0
  5  6  2  0  0  0  0
  6 12  1  0  0  0  0
  8 13  1  1  0  0  0
  8  7  1  0  0  0  0
  9  4  1  0  0  0  0
  9  8  1  0  0  0  0
 11  3  1  0  0  0  0
 14 19  1  0  0  0  0
 15 14  2  0  0  0  0
 15 16  1  0  0  0  0
 16  2  1  0  0  0  0
 16 17  2  0  0  0  0
 17 18  1  0  0  0  0
 18 21  1  0  0  0  0
 19 18  2  0  0  0  0
 20 14  1  0  0  0  0
 22 15  1  0  0  0  0
 23 29  1  0  0  0  0
 23 22  1  0  0  0  0
 23 28  1  0  0  0  0
 24 31  1  0  0  0  0
 24 23  1  0  0  0  0
 25 26  1  0  0  0  0
 25 24  1  0  0  0  0
 26 33  1  0  0  0  0
 26 27  1  0  0  0  0
 27 35  1  0  0  0  0
 27 22  1  0  0  0  0
 30 24  1  0  0  0  0
 32 25  1  0  0  0  0
 34 26  1  0  0  0  0
 36 27  1  0  0  0  0
 37  8  1  0  0  0  0
 38 37  1  0  0  0  0
 38 45  1  0  0  0  0
 39 38  2  0  0  0  0
 40 39  1  0  0  0  0
 41 39  1  0  0  0  0
 41 43  2  0  0  0  0
 42 41  1  0  0  0  0
 43 44  1  0  0  0  0
 44 45  2  0  0  0  0
 44 47  1  0  0  0  0
 45 46  1  0  0  0  0
 48 49  1  0  0  0  0
 48 47  1  0  0  0  0
 49 50  1  0  0  0  0
 51 52  1  0  0  0  0
 51 49  2  0  0  0  0
 53 51  1  0  0  0  0
 54 53  1  0  0  0  0
 55 53  2  0  0  0  0
 55 57  1  0  0  0  0
 56 55  1  0  0  0  0
 57 48  2  0  0  0  0
 58 57  1  0  0  0  0
 58 43  1  0  0  0  0
 59 58  1  0  0  0  0
M  END
>  <minimizedAffinity>
-4.64348173

>  <minimizedRMSD>
0.0388703942

$$$$
