
     RDKit          3D

 50 54  0  0  0  0  0  0  0  0999 V2000
   45.7325   29.8846   44.8680 Br  0  0  0  0  0  0  0  0  0  0  0  0
   45.6973   30.6048   46.6656 C   0  0  0  0  0  0  0  0  0  0  0  0
   46.3273   31.8048   46.8439 C   0  0  0  0  0  0  0  0  0  0  0  0
   46.2802   32.2906   48.1517 C   0  0  0  0  0  0  0  0  0  0  0  0
   45.6537   31.6262   49.1884 C   0  0  0  0  0  0  0  0  0  0  0  0
   45.0443   30.4253   48.9237 C   0  0  0  0  0  0  0  0  0  0  0  0
   45.0563   29.8923   47.6509 C   0  0  0  0  0  0  0  0  0  0  0  0
   47.0222   32.6006   45.8290 C   0  0  0  0  0  0  0  0  0  0  0  0
   44.5160   35.3311   45.3889 C   0  0  0  0  0  0  0  0  0  0  0  0
   44.7417   35.7093   44.0641 C   0  0  0  0  0  0  0  0  0  0  0  0
   45.7263   35.0403   43.3542 C   0  0  0  0  0  0  0  0  0  0  0  0
   46.4365   34.0495   43.9533 N   0  0  0  0  0  0  0  0  0  0  0  0
   46.1953   33.6976   45.2550 C   0  0  0  0  0  0  0  0  0  0  0  0
   45.2313   34.3577   45.9388 N   0  0  0  0  0  0  0  0  0  0  0  0
   44.4321   28.6690   47.3954 O   0  0  0  0  0  0  0  0  0  0  0  0
   44.5393   26.0914   47.0299 O   0  0  0  0  0  0  0  0  0  0  0  0
   45.0453   27.1816   47.9622 P   0  0  2  0  0  0  0  0  0  0  0  0
   44.4161   26.9412   49.5023 O   0  0  0  0  0  0  0  0  0  0  0  0
   46.7233   27.1401   47.9717 O   0  0  0  0  0  0  0  0  0  0  0  0
   46.7576   33.2365   48.3707 H   0  0  0  0  0  0  0  0  0  0  0  0
   45.6620   32.0713   50.1759 H   0  0  0  0  0  0  0  0  0  0  0  0
   44.5566   29.9113   49.7378 H   0  0  0  0  0  0  0  0  0  0  0  0
   47.9880   33.0232   46.1907 H   0  0  0  0  0  0  0  0  0  0  0  0
   47.2897   31.8987   44.9930 H   0  0  0  0  0  0  0  0  0  0  0  0
   43.7896   35.7598   46.0544 H   0  0  0  0  0  0  0  0  0  0  0  0
   44.1202   36.5100   43.6846 H   0  0  0  0  0  0  0  0  0  0  0  0
   45.8871   35.3459   42.3312 H   0  0  0  0  0  0  0  0  0  0  0  0
   45.0908   27.0154   50.2275 H   0  0  0  0  0  0  0  0  0  0  0  0
   47.5411   26.3613   47.1777 C   0  0  0  0  0  0  0  0  0  0  0  0
   48.6794   25.7896   47.7071 C   0  0  0  0  0  0  0  0  0  0  0  0
   48.8915   25.9764   48.7416 H   0  0  0  0  0  0  0  0  0  0  0  0
   49.4749   25.0169   46.8865 C   0  0  0  0  0  0  0  0  0  0  0  0
   50.3416   24.6145   47.3946 H   0  0  0  0  0  0  0  0  0  0  0  0
   49.2291   24.7590   45.5554 C   0  0  0  0  0  0  0  0  0  0  0  0
   48.0814   25.3595   45.0986 C   0  0  0  0  0  0  0  0  0  0  0  0
   47.2656   26.1235   45.8495 C   0  0  0  0  0  0  0  0  0  0  0  0
   46.3570   26.5943   45.4730 H   0  0  0  0  0  0  0  0  0  0  0  0
   47.5991   25.1386   43.3966 S   0  0  0  0  0  0  0  0  0  0  0  0
   48.8535   24.1004   42.6775 C   0  0  0  0  0  0  0  0  0  0  0  0
   48.8114   23.7176   41.3692 C   0  0  0  0  0  0  0  0  0  0  0  0
   47.9746   24.0629   40.7410 H   0  0  0  0  0  0  0  0  0  0  0  0
   49.7396   22.9101   40.7120 C   0  0  0  0  0  0  0  0  0  0  0  0
   49.6299   22.6588   39.6833 H   0  0  0  0  0  0  0  0  0  0  0  0
   50.7829   22.4851   41.5132 C   0  0  0  0  0  0  0  0  0  0  0  0
   51.5415   21.8517   41.0608 H   0  0  0  0  0  0  0  0  0  0  0  0
   50.8458   22.8617   42.8447 C   0  0  0  0  0  0  0  0  0  0  0  0
   51.7129   22.4746   43.4024 H   0  0  0  0  0  0  0  0  0  0  0  0
   49.9000   23.6635   43.4473 C   0  0  0  0  0  0  0  0  0  0  0  0
   50.1074   23.9512   44.7940 N   0  0  0  0  0  0  0  0  0  0  0  0
   50.9292   23.5826   45.3174 H   0  0  0  0  0  0  0  0  0  0  0  0
  1  2  1  0
  2  3  2  0
  2  7  1  0
  3  4  1  0
  4  5  2  0
  6  5  1  0
  7  6  2  0
  8  3  1  0
  9 14  2  0
 10  9  1  0
 11 12  1  0
 11 10  2  0
 12 13  2  0
 13  8  1  0
 13 14  1  0
 15  7  1  0
 17 15  1  6
 16 17  2  0
 17 18  1  0
 19 17  1  0
  4 20  1  0
  5 21  1  0
  6 22  1  0
  8 23  1  0
  8 24  1  0
  9 25  1  0
 10 26  1  0
 11 27  1  0
 18 28  1  0
 29 30  2  0
 30 31  1  0
 30 32  1  0
 32 33  1  0
 32 34  2  0
 34 35  1  0
 35 36  2  0
 36 37  1  0
 35 38  1  0
 38 39  1  0
 39 40  2  0
 40 41  1  0
 40 42  1  0
 42 43  1  0
 42 44  2  0
 44 45  1  0
 44 46  1  0
 46 47  1  0
 46 48  2  0
 48 49  1  0
 49 50  1  0
 36 29  1  0
 48 39  1  0
 49 34  1  0
 19 29  1  0
M  ISO  8  20  14  21  14  22  14  23   8  24   8  25  14  26  14  27  14
M  ISO  8  28   3  31  16  33  16  37  16  41  16  43  16  45  16  47  16
M  ISO  1  50   5
M  END
>  <DihAtoms>  (1) 
16,18,28,29

>  <DihDeg>  (1) 
-140.80033753405846

$$$$
