REMARK  Name = 
REMARK  3 active torsions:
REMARK  status: ('A' for Active; 'I' for Inactive)
REMARK    1  A    between atoms: N_1  and  C_9
REMARK    2  A    between atoms: C_6  and  O_13
REMARK    3  A    between atoms: O_13  and  C_26
REMARK                            x       y       z     vdW  Elec       q    Type
REMARK                         _______ _______ _______ _____ _____    ______ ____
ROOT
ATOM      1  N   UNL     1      46.893  34.608  42.227  0.00  0.00    +0.000 N 
ATOM      2  C   UNL     1      48.334  34.781  42.265  0.00  0.00    +0.000 C 
ATOM      3  C   UNL     1      48.634  35.537  40.952  0.00  0.00    +0.000 C 
ATOM      4  C   UNL     1      48.358  34.609  39.796  0.00  0.00    +0.000 C 
ATOM      5  C   UNL     1      47.083  33.863  39.905  0.00  0.00    +0.000 C 
ATOM      6  C   UNL     1      46.178  34.255  41.027  0.00  0.00    +0.000 C 
ATOM      7  H   UNL     1      48.841  33.796  42.237  0.00  0.00    +0.000 HD
ATOM      8  H   UNL     1      48.608  35.401  43.131  0.00  0.00    +0.000 HD
ATOM      9  H   UNL     1      49.688  35.831  40.954  0.00  0.00    +0.000 HD
ATOM     10  H   UNL     1      47.919  36.389  40.923  0.00  0.00    +0.000 HD
ATOM     11  H   UNL     1      49.206  33.880  39.770  0.00  0.00    +0.000 HD
ATOM     12  H   UNL     1      48.459  35.189  38.852  0.00  0.00    +0.000 HD
ATOM     13  H   UNL     1      47.244  32.755  39.930  0.00  0.00    +0.000 HD
ATOM     14  H   UNL     1      46.509  34.031  38.964  0.00  0.00    +0.000 HD
ATOM     15  H   UNL     1      45.564  35.136  40.761  0.00  0.00    +0.000 HD
ENDROOT
BRANCH   1  18
ATOM     16  C   UNL     1      44.504  35.986  44.764  0.00  0.00    +0.000 A 
ATOM     17  C   UNL     1      45.227  35.889  43.568  0.00  0.00    +0.000 A 
ATOM     18  C   UNL     1      46.111  34.790  43.419  0.00  0.00    +0.000 A 
ATOM     19  N   UNL     1      46.200  33.904  44.441  0.00  0.00    +0.000 NA
ATOM     20  C   UNL     1      45.483  34.034  45.583  0.00  0.00    +0.000 A 
ATOM     21  N   UNL     1      44.636  35.081  45.734  0.00  0.00    +0.000 NA
ATOM     22  H   UNL     1      43.871  36.867  44.745  0.00  0.00    +0.000 HD
ATOM     23  H   UNL     1      45.180  36.573  42.738  0.00  0.00    +0.000 HD
ATOM     24  H   UNL     1      45.561  33.326  46.385  0.00  0.00    +0.000 HD
ENDBRANCH   1  18
BRANCH   6  25
ATOM     25  O   UNL     1      45.331  33.182  41.297  0.00  0.00    +0.000 OA
BRANCH  25  26
ATOM     26  C   UNL     1      43.950  33.178  41.249  0.00  0.00    +0.000 A 
ATOM     27  C   UNL     1      43.047  32.432  41.976  0.00  0.00    +0.000 A 
ATOM     28  H   UNL     1      43.484  31.762  42.677  0.00  0.00    +0.000 HD
ATOM     29  C   UNL     1      41.698  32.604  41.751  0.00  0.00    +0.000 A 
ATOM     30  H   UNL     1      41.069  31.960  42.383  0.00  0.00    +0.000 HD
ATOM     31  C   UNL     1      41.158  33.481  40.835  0.00  0.00    +0.000 A 
ATOM     32  C   UNL     1      42.059  34.222  40.112  0.00  0.00    +0.000 A 
ATOM     33  C   UNL     1      43.401  34.068  40.320  0.00  0.00    +0.000 A 
ATOM     34  H   UNL     1      44.042  34.703  39.696  0.00  0.00    +0.000 HD
ATOM     35  S   UNL     1      41.431  35.378  38.910  0.00  0.00    +0.000 S 
ATOM     36  C   UNL     1      39.664  35.248  38.976  0.00  0.00    +0.000 A 
ATOM     37  C   UNL     1      38.973  36.057  38.124  0.00  0.00    +0.000 A 
ATOM     38  H   UNL     1      39.443  36.738  37.447  0.00  0.00    +0.000 HD
ATOM     39  C   UNL     1      37.592  36.018  38.113  0.00  0.00    +0.000 A 
ATOM     40  H   UNL     1      36.950  36.614  37.480  0.00  0.00    +0.000 HD
ATOM     41  C   UNL     1      36.953  35.150  38.974  0.00  0.00    +0.000 A 
ATOM     42  H   UNL     1      35.873  35.093  38.992  0.00  0.00    +0.000 HD
ATOM     43  C   UNL     1      37.715  34.359  39.810  0.00  0.00    +0.000 A 
ATOM     44  H   UNL     1      37.143  33.692  40.469  0.00  0.00    +0.000 HD
ATOM     45  C   UNL     1      39.094  34.364  39.856  0.00  0.00    +0.000 A 
ATOM     46  N   UNL     1      39.751  33.511  40.752  0.00  0.00    +0.000 N 
ATOM     47  H   UNL     1      39.168  32.897  41.357  0.00  0.00    +0.000 HD
ENDBRANCH  25  26
ENDBRANCH   6  25
TORSDOF 3
