
 OpenBabel03242517433D

 32 35  0  0  0  0  0  0  0  0999 V2000
   42.1680   34.6610   41.4360 C   0  0  0  0  0  0  0  0  0  0  0  0
   40.9650   35.3320   41.3790 C   0  0  0  0  0  0  0  0  0  0  0  0
   40.9410   36.4110   41.4100 H   0  0  0  0  0  0  0  0  0  0  0  0
   39.8110   34.5830   41.2820 C   0  0  0  0  0  0  0  0  0  0  0  0
   38.8950   35.1690   41.2410 H   0  0  0  0  0  0  0  0  0  0  0  0
   39.7490   33.2050   41.2360 C   0  0  0  0  0  0  0  0  0  0  0  0
   40.9740   32.5890   41.2960 C   0  0  0  0  0  0  0  0  0  0  0  0
   42.1470   33.2860   41.3930 C   0  0  0  0  0  0  0  0  0  0  0  0
   43.1060   32.7800   41.4380 H   0  0  0  0  0  0  0  0  0  0  0  0
   41.0490   30.8140   41.2460 S   0  0  0  0  0  0  0  0  0  0  0  0
   39.3620   30.2510   41.1210 C   0  0  0  0  0  0  0  0  0  0  0  0
   39.1030   28.9260   41.0630 C   0  0  0  0  0  0  0  0  0  0  0  0
   39.9300   28.2020   41.0950 H   0  0  0  0  0  0  0  0  0  0  0  0
   37.8140   28.4140   40.9640 C   0  0  0  0  0  0  0  0  0  0  0  0
   37.6280   27.3590   40.9210 H   0  0  0  0  0  0  0  0  0  0  0  0
   36.7960   29.3400   40.9280 C   0  0  0  0  0  0  0  0  0  0  0  0
   35.7850   28.9620   40.8510 H   0  0  0  0  0  0  0  0  0  0  0  0
   37.0940   30.6720   40.9880 C   0  0  0  0  0  0  0  0  0  0  0  0
   36.2210   31.3320   40.9520 H   0  0  0  0  0  0  0  0  0  0  0  0
   38.3660   31.1960   41.0850 C   0  0  0  0  0  0  0  0  0  0  0  0
   38.5050   32.5920   41.1370 N   0  0  0  0  0  0  0  0  0  0  0  0
   37.6500   33.1860   41.1010 H   0  0  0  0  0  0  0  0  0  0  0  0
   43.7210   35.5360   41.5630 S   0  0  0  0  0  0  0  0  0  0  0  0
   44.2050   35.6420   44.2960 C   0  0  0  0  0  0  0  0  0  0  0  0
   44.5000   34.9840   43.0780 C   0  0  0  0  0  0  0  0  0  0  0  0
   45.3930   33.9210   43.1040 C   0  0  0  0  0  0  0  0  0  0  0  0
   45.9490   33.5530   44.2920 N   0  0  0  0  0  0  0  0  0  0  0  0
   45.6400   34.2090   45.4380 C   0  0  0  0  0  0  0  0  0  0  0  0
   44.7830   35.2380   45.4490 N   0  0  0  0  0  0  0  0  0  0  0  0
   43.5170   36.4580   44.2680 H   0  0  0  0  0  0  0  0  0  0  0  0
   45.6330   33.4070   42.1980 H   0  0  0  0  0  0  0  0  0  0  0  0
   46.1560   33.8070   46.3000 H   0  0  0  0  0  0  0  0  0  0  0  0
  1 23  1  0  0  0  0
  2  3  1  0  0  0  0
  2  1  2  0  0  0  0
  4  2  1  0  0  0  0
  5  4  1  0  0  0  0
  6  4  2  0  0  0  0
  6  7  1  0  0  0  0
  7  8  2  0  0  0  0
  8  1  1  0  0  0  0
  8  9  1  0  0  0  0
 10  7  1  0  0  0  0
 11 10  1  0  0  0  0
 12 13  1  0  0  0  0
 12 11  2  0  0  0  0
 14 12  1  0  0  0  0
 15 14  1  0  0  0  0
 16 14  2  0  0  0  0
 16 18  1  0  0  0  0
 17 16  1  0  0  0  0
 18 20  2  0  0  0  0
 19 18  1  0  0  0  0
 20 11  1  0  0  0  0
 20 21  1  0  0  0  0
 21  6  1  0  0  0  0
 22 21  1  0  0  0  0
 23 25  1  0  0  0  0
 24 29  1  0  0  0  0
 25 26  1  0  0  0  0
 25 24  2  0  0  0  0
 26 27  2  0  0  0  0
 27 28  1  0  0  0  0
 28 29  2  0  0  0  0
 28 32  1  0  0  0  0
 30 24  1  0  0  0  0
 31 26  1  0  0  0  0
M  END
>  <minimizedAffinity>
-5.660326

>  <minimizedRMSD>
0.850699186

$$$$
