
     RDKit          3D

 46 50  0  0  0  0  0  0  0  0999 V2000
   44.4803   35.7409   44.9995 C   0  0  0  0  0  0  0  0  0  0  0  0
   45.1196   35.7148   43.7515 C   0  0  0  0  0  0  0  0  0  0  0  0
   46.0263   34.7219   43.4818 C   0  0  0  0  0  0  0  0  0  0  0  0
   46.2391   33.8154   44.4757 N   0  0  0  0  0  0  0  0  0  0  0  0
   45.6251   33.8511   45.6581 C   0  0  0  0  0  0  0  0  0  0  0  0
   44.7319   34.8116   45.9514 N   0  0  0  0  0  0  0  0  0  0  0  0
   45.9428   32.8414   46.6036 N   0  0  0  0  0  0  0  0  0  0  0  0
   45.1614   32.5815   47.8160 C   0  0  0  0  0  0  0  0  0  0  0  0
   46.2501   32.2359   48.8080 C   0  0  0  0  0  0  0  0  0  0  0  0
   47.5261   32.0645   48.0247 C   0  0  0  0  0  0  0  0  0  0  0  0
   47.0257   31.8957   46.6102 C   0  0  1  0  0  0  0  0  0  0  0  0
   44.7649   36.7564   42.8333 N   0  0  0  0  0  0  0  0  0  0  0  0
   46.4887   30.1930   46.3973 S   0  0  0  0  0  0  0  0  0  0  0  0
   43.7645   36.5262   45.2092 H   0  0  0  0  0  0  0  0  0  0  0  0
   46.5090   34.7062   42.5340 H   0  0  0  0  0  0  0  0  0  0  0  0
   44.7178   33.5340   48.1776 H   0  0  0  0  0  0  0  0  0  0  0  0
   44.3987   31.8113   47.6877 H   0  0  0  0  0  0  0  0  0  0  0  0
   46.0044   31.2159   49.2070 H   0  0  0  0  0  0  0  0  0  0  0  0
   46.3251   32.9343   49.6534 H   0  0  0  0  0  0  0  0  0  0  0  0
   48.1016   31.1811   48.3795 H   0  0  0  0  0  0  0  0  0  0  0  0
   48.0970   33.0138   48.1275 H   0  0  0  0  0  0  0  0  0  0  0  0
   47.8299   32.1672   45.8955 H   0  0  0  0  0  0  0  0  0  0  0  0
   44.6989   36.5381   41.8285 H   0  0  0  0  0  0  0  0  0  0  0  0
   44.5745   37.7197   43.1556 H   0  0  0  0  0  0  0  0  0  0  0  0
   45.7883   29.8644   44.8097 C   0  0  0  0  0  0  0  0  0  0  0  0
   44.8204   28.8848   44.7128 C   0  0  0  0  0  0  0  0  0  0  0  0
   44.4926   28.3207   45.6005 H   0  0  0  0  0  0  0  0  0  0  0  0
   44.2267   28.5794   43.4838 C   0  0  0  0  0  0  0  0  0  0  0  0
   43.4764   27.8015   43.4876 H   0  0  0  0  0  0  0  0  0  0  0  0
   44.5674   29.2272   42.3182 C   0  0  0  0  0  0  0  0  0  0  0  0
   45.5323   30.1878   42.4773 C   0  0  0  0  0  0  0  0  0  0  0  0
   46.1409   30.5266   43.6351 C   0  0  0  0  0  0  0  0  0  0  0  0
   46.8923   31.2867   43.7120 H   0  0  0  0  0  0  0  0  0  0  0  0
   46.0503   31.0893   41.0310 S   0  0  0  0  0  0  0  0  0  0  0  0
   45.1036   30.4595   39.6619 C   0  0  0  0  0  0  0  0  0  0  0  0
   45.2894   30.9745   38.4076 C   0  0  0  0  0  0  0  0  0  0  0  0
   46.0215   31.7732   38.2524 H   0  0  0  0  0  0  0  0  0  0  0  0
   44.5825   30.5240   37.3064 C   0  0  0  0  0  0  0  0  0  0  0  0
   44.7265   30.9278   36.3155 H   0  0  0  0  0  0  0  0  0  0  0  0
   43.6652   29.5179   37.5181 C   0  0  0  0  0  0  0  0  0  0  0  0
   43.0980   29.1459   36.6774 H   0  0  0  0  0  0  0  0  0  0  0  0
   43.5093   29.0278   38.7966 C   0  0  0  0  0  0  0  0  0  0  0  0
   42.7579   28.2303   38.8685 H   0  0  0  0  0  0  0  0  0  0  0  0
   44.1987   29.4575   39.9094 C   0  0  0  0  0  0  0  0  0  0  0  0
   43.9034   28.8386   41.1380 N   0  0  0  0  0  0  0  0  0  0  0  0
   43.1911   28.0892   41.1766 H   0  0  0  0  0  0  0  0  0  0  0  0
  1  6  2  0
  2  1  1  0
  3  2  2  0
  3  4  1  0
  4  5  2  0
  5  6  1  0
  5  7  1  0
  7 11  1  0
  7  8  1  0
  8  9  1  0
 10  9  1  0
 11 10  1  0
 12  2  1  0
 13 11  1  0
  1 14  1  0
  3 15  1  0
  8 16  1  0
  8 17  1  0
  9 18  1  0
  9 19  1  0
 10 20  1  0
 10 21  1  0
 11 22  1  6
 12 23  1  0
 12 24  1  0
 25 26  2  0
 26 27  1  0
 26 28  1  0
 28 29  1  0
 28 30  2  0
 30 31  1  0
 31 32  2  0
 32 33  1  0
 31 34  1  0
 34 35  1  0
 35 36  2  0
 36 37  1  0
 36 38  1  0
 38 39  1  0
 38 40  2  0
 40 41  1  0
 40 42  1  0
 42 43  1  0
 42 44  2  0
 44 45  1  0
 45 46  1  0
 32 25  1  0
 44 35  1  0
 45 30  1  0
 13 25  1  0
M  ISO  8  14  14  15  14  16  13  17  13  18  13  19  13  20  13  21  13
M  ISO  8  22  13  27  16  29  16  33  16  37  16  39  16  41  16  43  16
M  ISO  1  46   5
M  END
>  <DihAtoms>  (1) 
10,12,24,25

>  <DihDeg>  (1) 
-90.14293415497743

$$$$
