REMARK  Name = 
REMARK  8 active torsions:
REMARK  status: ('A' for Active; 'I' for Inactive)
REMARK    1  A    between atoms: N_1  and  C_7
REMARK    2  A    between atoms: C_6  and  O_15
REMARK    3  A    between atoms: C_7  and  C_8
REMARK    4  A    between atoms: C_8  and  C_11
REMARK    5  A    between atoms: O_15  and  P_17
REMARK    6  A    between atoms: P_17  and  O_18
REMARK    7  A    between atoms: P_17  and  O_19
REMARK    8  A    between atoms: O_19  and  C_37
REMARK                            x       y       z     vdW  Elec       q    Type
REMARK                         _______ _______ _______ _____ _____    ______ ____
ROOT
ATOM      1  N   UNL     1      47.169  34.157  43.084  0.00  0.00    +0.000 NA
ATOM      2  C   UNL     1      46.661  35.357  42.530  0.00  0.00    +0.000 C 
ATOM      3  C   UNL     1      45.180  35.587  42.746  0.00  0.00    +0.000 C 
ATOM      4  C   UNL     1      44.654  35.058  44.045  0.00  0.00    +0.000 C 
ATOM      5  C   UNL     1      45.750  34.471  44.901  0.00  0.00    +0.000 C 
ATOM      6  C   UNL     1      46.407  33.400  43.959  0.00  0.00    +0.000 C 
ATOM      7  H   UNL     1      46.863  35.518  41.471  0.00  0.00    +0.000 HD
ATOM      8  H   UNL     1      47.175  36.201  43.069  0.00  0.00    +0.000 HD
ATOM      9  H   UNL     1      44.624  35.158  41.876  0.00  0.00    +0.000 HD
ATOM     10  H   UNL     1      44.991  36.683  42.723  0.00  0.00    +0.000 HD
ATOM     11  H   UNL     1      44.042  35.812  44.590  0.00  0.00    +0.000 HD
ATOM     12  H   UNL     1      43.946  34.211  43.817  0.00  0.00    +0.000 HD
ATOM     13  H   UNL     1      46.502  35.204  45.205  0.00  0.00    +0.000 HD
ATOM     14  H   UNL     1      45.281  33.941  45.754  0.00  0.00    +0.000 HD
ATOM     15  H   UNL     1      45.552  32.823  43.566  0.00  0.00    +0.000 HD
ENDROOT
BRANCH   1  16
ATOM     16  C   UNL     1      48.142  33.504  42.265  0.00  0.00    +0.000 C 
ATOM     17  H   UNL     1      48.754  32.821  42.908  0.00  0.00    +0.000 HD
ATOM     18  H   UNL     1      48.823  34.241  41.837  0.00  0.00    +0.000 HD
BRANCH  16  19
ATOM     19  C   UNL     1      47.441  32.652  41.254  0.00  0.00    +0.000 C 
ATOM     20  H   UNL     1      46.355  32.903  41.208  0.00  0.00    +0.000 HD
ATOM     21  H   UNL     1      47.494  31.576  41.463  0.00  0.00    +0.000 HD
BRANCH  19  24
ATOM     22  C   UNL     1      49.338  32.286  38.030  0.00  0.00    +0.000 A 
ATOM     23  C   UNL     1      48.813  32.017  39.308  0.00  0.00    +0.000 A 
ATOM     24  C   UNL     1      47.991  32.943  39.904  0.00  0.00    +0.000 A 
ATOM     25  N   UNL     1      47.726  34.071  39.230  0.00  0.00    +0.000 NA
ATOM     26  C   UNL     1      48.233  34.319  38.006  0.00  0.00    +0.000 A 
ATOM     27  N   UNL     1      49.040  33.433  37.398  0.00  0.00    +0.000 NA
ATOM     28  H   UNL     1      49.986  31.534  37.584  0.00  0.00    +0.000 HD
ATOM     29  H   UNL     1      49.049  31.090  39.830  0.00  0.00    +0.000 HD
ATOM     30  H   UNL     1      47.974  35.251  37.524  0.00  0.00    +0.000 HD
ENDBRANCH  19  24
ENDBRANCH  16  19
ENDBRANCH   1  16
BRANCH   6  31
ATOM     31  O   UNL     1      47.204  32.692  44.853  0.00  0.00    +0.000 OA
BRANCH  31  33
ATOM     32  O   UNL     1      45.998  30.544  43.869  0.00  0.00    +0.000 OA
ATOM     33  P   UNL     1      46.657  31.122  45.113  0.00  0.00    +0.000 P 
BRANCH  33  34
ATOM     34  O   UNL     1      45.401  31.242  46.270  0.00  0.00    +0.000 OA
ATOM     35  H   UNL     1      45.779  31.288  47.182  0.00  0.00    +0.000 HD
ENDBRANCH  33  34
BRANCH  33  36
ATOM     36  O   UNL     1      47.849  30.132  45.732  0.00  0.00    +0.000 OA
BRANCH  36  37
ATOM     37  C   UNL     1      47.703  29.145  46.671  0.00  0.00    +0.000 A 
ATOM     38  C   UNL     1      46.477  28.564  46.926  0.00  0.00    +0.000 A 
ATOM     39  H   UNL     1      45.612  28.894  46.373  0.00  0.00    +0.000 HD
ATOM     40  C   UNL     1      46.385  27.573  47.883  0.00  0.00    +0.000 A 
ATOM     41  H   UNL     1      45.371  27.165  48.021  0.00  0.00    +0.000 HD
ATOM     42  C   UNL     1      47.466  27.122  48.612  0.00  0.00    +0.000 A 
ATOM     43  C   UNL     1      48.692  27.690  48.371  0.00  0.00    +0.000 A 
ATOM     44  C   UNL     1      48.761  28.671  47.418  0.00  0.00    +0.000 A 
ATOM     45  H   UNL     1      49.737  29.122  47.227  0.00  0.00    +0.000 HD
ATOM     46  S   UNL     1      50.111  27.135  49.291  0.00  0.00    +0.000 S 
ATOM     47  C   UNL     1      49.512  25.866  50.391  0.00  0.00    +0.000 A 
ATOM     48  C   UNL     1      50.436  25.299  51.195  0.00  0.00    +0.000 A 
ATOM     49  H   UNL     1      51.483  25.573  51.197  0.00  0.00    +0.000 HD
ATOM     50  C   UNL     1      50.069  24.307  52.081  0.00  0.00    +0.000 A 
ATOM     51  H   UNL     1      50.805  23.849  52.727  0.00  0.00    +0.000 HD
ATOM     52  C   UNL     1      48.745  23.921  52.117  0.00  0.00    +0.000 A 
ATOM     53  H   UNL     1      48.413  23.148  52.795  0.00  0.00    +0.000 HD
ATOM     54  C   UNL     1      47.857  24.546  51.266  0.00  0.00    +0.000 A 
ATOM     55  H   UNL     1      46.819  24.195  51.341  0.00  0.00    +0.000 HD
ATOM     56  C   UNL     1      48.180  25.539  50.366  0.00  0.00    +0.000 A 
ATOM     57  N   UNL     1      47.181  26.108  49.542  0.00  0.00    +0.000 N 
ATOM     58  H   UNL     1      46.221  25.727  49.668  0.00  0.00    +0.000 HD
ENDBRANCH  36  37
ENDBRANCH  33  36
ENDBRANCH  31  33
ENDBRANCH   6  31
TORSDOF 8
