REMARK  Name = 
REMARK  2 active torsions:
REMARK  status: ('A' for Active; 'I' for Inactive)
REMARK    1  A    between atoms: C_2  and  S_7
REMARK    2  A    between atoms: S_7  and  C_11
REMARK                            x       y       z     vdW  Elec       q    Type
REMARK                         _______ _______ _______ _____ _____    ______ ____
ROOT
ATOM      1  C   UNL     1      42.120  34.869  41.413  0.00  0.00    +0.000 A 
ATOM      2  C   UNL     1      41.096  35.467  42.116  0.00  0.00    +0.000 A 
ATOM      3  H   UNL     1      41.297  36.310  42.761  0.00  0.00    +0.000 HD
ATOM      4  C   UNL     1      39.824  34.953  41.967  0.00  0.00    +0.000 A 
ATOM      5  H   UNL     1      39.060  35.467  42.547  0.00  0.00    +0.000 HD
ATOM      6  C   UNL     1      39.478  33.883  41.169  0.00  0.00    +0.000 A 
ATOM      7  C   UNL     1      40.535  33.327  40.492  0.00  0.00    +0.000 A 
ATOM      8  C   UNL     1      41.815  33.798  40.605  0.00  0.00    +0.000 A 
ATOM      9  H   UNL     1      42.636  33.345  40.061  0.00  0.00    +0.000 HD
ATOM     10  S   UNL     1      40.239  31.938  39.424  0.00  0.00    +0.000 S 
ATOM     11  C   UNL     1      38.491  31.603  39.520  0.00  0.00    +0.000 A 
ATOM     12  C   UNL     1      37.966  30.586  38.803  0.00  0.00    +0.000 A 
ATOM     13  H   UNL     1      38.615  29.970  38.164  0.00  0.00    +0.000 HD
ATOM     14  C   UNL     1      36.612  30.265  38.829  0.00  0.00    +0.000 A 
ATOM     15  H   UNL     1      36.214  29.455  38.253  0.00  0.00    +0.000 HD
ATOM     16  C   UNL     1      35.820  31.051  39.636  0.00  0.00    +0.000 A 
ATOM     17  H   UNL     1      34.764  30.818  39.670  0.00  0.00    +0.000 HD
ATOM     18  C   UNL     1      36.385  32.071  40.347  0.00  0.00    +0.000 A 
ATOM     19  H   UNL     1      35.678  32.639  40.960  0.00  0.00    +0.000 HD
ATOM     20  C   UNL     1      37.723  32.401  40.333  0.00  0.00    +0.000 A 
ATOM     21  N   UNL     1      38.148  33.481  41.124  0.00  0.00    +0.000 N 
ATOM     22  H   UNL     1      37.444  33.997  41.693  0.00  0.00    +0.000 HD
ENDROOT
BRANCH   1  23
ATOM     23  S   UNL     1      43.803  35.456  41.535  0.00  0.00    +0.000 S 
BRANCH  23  25
ATOM     24  C   UNL     1      44.266  35.735  44.260  0.00  0.00    +0.000 A 
ATOM     25  C   UNL     1      44.425  34.907  43.123  0.00  0.00    +0.000 A 
ATOM     26  C   UNL     1      45.064  33.685  43.283  0.00  0.00    +0.000 A 
ATOM     27  N   UNL     1      45.512  33.329  44.519  0.00  0.00    +0.000 NA
ATOM     28  C   UNL     1      45.340  34.151  45.584  0.00  0.00    +0.000 A 
ATOM     29  N   UNL     1      44.728  35.336  45.466  0.00  0.00    +0.000 NA
ATOM     30  H   UNL     1      43.773  36.673  44.129  0.00  0.00    +0.000 HD
ATOM     31  H   UNL     1      45.197  33.041  42.440  0.00  0.00    +0.000 HD
ATOM     32  H   UNL     1      45.745  33.738  46.499  0.00  0.00    +0.000 HD
ENDBRANCH  23  25
ENDBRANCH   1  23
TORSDOF 2
