REMARK  Name = 
REMARK  7 active torsions:
REMARK  status: ('A' for Active; 'I' for Inactive)
REMARK    1  A    between atoms: C_3  and  C_8
REMARK    2  A    between atoms: C_7  and  O_15
REMARK    3  A    between atoms: C_8  and  C_13
REMARK    4  A    between atoms: O_15  and  P_17
REMARK    5  A    between atoms: P_17  and  O_18
REMARK    6  A    between atoms: P_17  and  O_19
REMARK    7  A    between atoms: O_19  and  C_29
REMARK                            x       y       z     vdW  Elec       q    Type
REMARK                         _______ _______ _______ _____ _____    ______ ____
ROOT
ATOM      1  O   UNL     1      44.539  26.091  47.030  0.00  0.00    +0.000 OA
ATOM      2  P   UNL     1      45.045  27.182  47.962  0.00  0.00    +0.000 P 
ENDROOT
BRANCH   2   3
ATOM      3  O   UNL     1      44.416  26.941  49.502  0.00  0.00    +0.000 OA
ATOM      4  H   UNL     1      45.091  27.015  50.227  0.00  0.00    +0.000 HD
ENDBRANCH   2   3
BRANCH   2   5
ATOM      5  O   UNL     1      44.432  28.669  47.395  0.00  0.00    +0.000 OA
BRANCH   5  12
ATOM      6 BR   UNL     1      45.733  29.885  44.868  0.00  0.00    +0.000 Br
ATOM      7  C   UNL     1      45.697  30.605  46.666  0.00  0.00    +0.000 A 
ATOM      8  C   UNL     1      46.327  31.805  46.844  0.00  0.00    +0.000 A 
ATOM      9  C   UNL     1      46.280  32.291  48.152  0.00  0.00    +0.000 A 
ATOM     10  C   UNL     1      45.654  31.626  49.188  0.00  0.00    +0.000 A 
ATOM     11  C   UNL     1      45.044  30.425  48.924  0.00  0.00    +0.000 A 
ATOM     12  C   UNL     1      45.056  29.892  47.651  0.00  0.00    +0.000 A 
ATOM     13  H   UNL     1      46.758  33.236  48.371  0.00  0.00    +0.000 HD
ATOM     14  H   UNL     1      45.662  32.071  50.176  0.00  0.00    +0.000 HD
ATOM     15  H   UNL     1      44.557  29.911  49.738  0.00  0.00    +0.000 HD
BRANCH   8  16
ATOM     16  C   UNL     1      47.022  32.601  45.829  0.00  0.00    +0.000 C 
ATOM     17  H   UNL     1      47.988  33.023  46.191  0.00  0.00    +0.000 HD
ATOM     18  H   UNL     1      47.290  31.899  44.993  0.00  0.00    +0.000 HD
BRANCH  16  23
ATOM     19  C   UNL     1      44.516  35.331  45.389  0.00  0.00    +0.000 A 
ATOM     20  C   UNL     1      44.742  35.709  44.064  0.00  0.00    +0.000 A 
ATOM     21  C   UNL     1      45.726  35.040  43.354  0.00  0.00    +0.000 A 
ATOM     22  N   UNL     1      46.437  34.050  43.953  0.00  0.00    +0.000 NA
ATOM     23  C   UNL     1      46.195  33.698  45.255  0.00  0.00    +0.000 A 
ATOM     24  N   UNL     1      45.231  34.358  45.939  0.00  0.00    +0.000 NA
ATOM     25  H   UNL     1      43.790  35.760  46.054  0.00  0.00    +0.000 HD
ATOM     26  H   UNL     1      44.120  36.510  43.685  0.00  0.00    +0.000 HD
ATOM     27  H   UNL     1      45.887  35.346  42.331  0.00  0.00    +0.000 HD
ENDBRANCH  16  23
ENDBRANCH   8  16
ENDBRANCH   5  12
ENDBRANCH   2   5
BRANCH   2  28
ATOM     28  O   UNL     1      46.723  27.140  47.972  0.00  0.00    +0.000 OA
BRANCH  28  29
ATOM     29  C   UNL     1      47.541  26.361  47.178  0.00  0.00    +0.000 A 
ATOM     30  C   UNL     1      47.223  26.152  45.852  0.00  0.00    +0.000 A 
ATOM     31  H   UNL     1      46.330  26.613  45.478  0.00  0.00    +0.000 HD
ATOM     32  C   UNL     1      48.062  25.368  45.086  0.00  0.00    +0.000 A 
ATOM     33  H   UNL     1      47.726  25.265  44.062  0.00  0.00    +0.000 HD
ATOM     34  C   UNL     1      49.214  24.763  45.537  0.00  0.00    +0.000 A 
ATOM     35  C   UNL     1      49.466  25.015  46.863  0.00  0.00    +0.000 A 
ATOM     36  C   UNL     1      48.687  25.770  47.661  0.00  0.00    +0.000 A 
ATOM     37  H   UNL     1      48.900  25.962  48.713  0.00  0.00    +0.000 HD
ATOM     38  S   UNL     1      50.918  24.313  47.624  0.00  0.00    +0.000 S 
ATOM     39  C   UNL     1      51.728  23.386  46.339  0.00  0.00    +0.000 A 
ATOM     40  C   UNL     1      52.888  22.704  46.562  0.00  0.00    +0.000 A 
ATOM     41  H   UNL     1      53.334  22.730  47.569  0.00  0.00    +0.000 HD
ATOM     42  C   UNL     1      53.599  21.950  45.628  0.00  0.00    +0.000 A 
ATOM     43  H   UNL     1      54.500  21.448  45.888  0.00  0.00    +0.000 HD
ATOM     44  C   UNL     1      53.026  21.927  44.370  0.00  0.00    +0.000 A 
ATOM     45  H   UNL     1      53.531  21.357  43.595  0.00  0.00    +0.000 HD
ATOM     46  C   UNL     1      51.848  22.613  44.121  0.00  0.00    +0.000 A 
ATOM     47  H   UNL     1      51.468  22.536  43.090  0.00  0.00    +0.000 HD
ATOM     48  C   UNL     1      51.183  23.344  45.082  0.00  0.00    +0.000 A 
ATOM     49  N   UNL     1      50.011  23.975  44.672  0.00  0.00    +0.000 N 
ATOM     50  H   UNL     1      49.656  23.899  43.695  0.00  0.00    +0.000 HD
ENDBRANCH  28  29
ENDBRANCH   2  28
TORSDOF 7
