
 OpenBabel03252506353D

 46 50  0  0  1  0  0  0  0  0999 V2000
   44.5020   35.6040   45.1290 C   0  0  0  0  0  0  0  0  0  0  0  0
   45.1320   35.6250   43.8770 C   0  0  0  0  0  0  0  0  0  0  0  0
   46.0510   34.6540   43.5720 C   0  0  0  0  0  0  0  0  0  0  0  0
   46.2860   33.7220   44.5370 N   0  0  0  0  0  0  0  0  0  0  0  0
   45.6810   33.7140   45.7240 C   0  0  0  0  0  0  0  0  0  0  0  0
   44.7750   34.6520   46.0520 N   0  0  0  0  0  0  0  0  0  0  0  0
   46.0220   32.6820   46.6380 N   0  0  0  0  0  0  0  0  0  0  0  0
   45.2530   32.3750   47.8480 C   0  0  0  0  0  0  0  0  0  0  0  0
   46.3550   32.0180   48.8210 C   0  0  0  0  0  0  0  0  0  0  0  0
   47.6270   31.8900   48.0240 C   0  0  0  0  0  0  0  0  0  0  0  0
   47.1190   31.7540   46.6080 C   0  0  1  0  0  0  0  0  0  0  0  0
   43.7750   36.3720   45.3670 H   0  0  0  0  0  0  0  0  0  0  0  0
   46.5260   34.6730   42.6200 H   0  0  0  0  0  0  0  0  0  0  0  0
   44.7990   33.3100   48.2410 H   0  0  0  0  0  0  0  0  0  0  0  0
   44.5020   31.5970   47.7030 H   0  0  0  0  0  0  0  0  0  0  0  0
   46.1280   30.9830   49.1920 H   0  0  0  0  0  0  0  0  0  0  0  0
   46.4260   32.6920   49.6850 H   0  0  0  0  0  0  0  0  0  0  0  0
   48.2200   31.0050   48.3480 H   0  0  0  0  0  0  0  0  0  0  0  0
   48.1850   32.8440   48.1490 H   0  0  0  0  0  0  0  0  0  0  0  0
   47.9130   32.0580   45.8950 H   0  0  0  0  0  0  0  0  0  0  0  0
   44.7540   36.6860   42.9920 N   0  0  0  0  0  0  0  0  0  0  0  0
   44.6830   36.4960   41.9810 H   0  0  0  0  0  0  0  0  0  0  0  0
   44.5520   37.6370   43.3440 H   0  0  0  0  0  0  0  0  0  0  0  0
   46.6060   30.0500   46.3490 S   0  0  0  0  0  0  0  0  0  0  0  0
   45.3140   29.8710   45.1590 C   0  0  0  0  0  0  0  0  0  0  0  0
   44.3140   28.9540   45.4130 C   0  0  0  0  0  0  0  0  0  0  0  0
   44.3200   28.3480   46.3330 H   0  0  0  0  0  0  0  0  0  0  0  0
   43.2630   28.7680   44.5090 C   0  0  0  0  0  0  0  0  0  0  0  0
   42.5170   28.0330   44.7780 H   0  0  0  0  0  0  0  0  0  0  0  0
   43.1660   29.4760   43.3330 C   0  0  0  0  0  0  0  0  0  0  0  0
   44.1870   30.3700   43.1360 C   0  0  0  0  0  0  0  0  0  0  0  0
   45.2260   30.5930   43.9700 C   0  0  0  0  0  0  0  0  0  0  0  0
   46.0030   31.3050   43.7750 H   0  0  0  0  0  0  0  0  0  0  0  0
   44.1610   31.3420   41.6440 S   0  0  0  0  0  0  0  0  0  0  0  0
   42.7060   30.8610   40.7390 C   0  0  0  0  0  0  0  0  0  0  0  0
   42.4220   31.4510   39.5370 C   0  0  0  0  0  0  0  0  0  0  0  0
   43.0940   32.2180   39.1380 H   0  0  0  0  0  0  0  0  0  0  0  0
   41.3060   31.1170   38.7900 C   0  0  0  0  0  0  0  0  0  0  0  0
   41.0800   31.5810   37.8410 H   0  0  0  0  0  0  0  0  0  0  0  0
   40.4720   30.1490   39.3050 C   0  0  0  0  0  0  0  0  0  0  0  0
   39.5930   29.8680   38.7440 H   0  0  0  0  0  0  0  0  0  0  0  0
   40.7950   29.5810   40.5180 C   0  0  0  0  0  0  0  0  0  0  0  0
   40.0740   28.8220   40.8480 H   0  0  0  0  0  0  0  0  0  0  0  0
   41.8970   29.8940   41.2810 C   0  0  0  0  0  0  0  0  0  0  0  0
   42.0630   29.2070   42.4990 N   0  0  0  0  0  0  0  0  0  0  0  0
   41.3680   28.4970   42.7860 H   0  0  0  0  0  0  0  0  0  0  0  0
  1 12  1  0  0  0  0
  1  6  1  0  0  0  0
  2  1  2  0  0  0  0
  3  2  1  0  0  0  0
  3  4  2  0  0  0  0
  4  5  1  0  0  0  0
  5  6  2  0  0  0  0
  5  7  1  0  0  0  0
  7  8  1  0  0  0  0
  8 14  1  0  0  0  0
  8  9  1  0  0  0  0
  9 16  1  0  0  0  0
  9 17  1  0  0  0  0
 10 19  1  0  0  0  0
 10 18  1  0  0  0  0
 10  9  1  0  0  0  0
 11 20  1  6  0  0  0
 11  7  1  0  0  0  0
 11 10  1  0  0  0  0
 13  3  1  0  0  0  0
 15  8  1  0  0  0  0
 21 23  1  0  0  0  0
 21  2  1  0  0  0  0
 22 21  1  0  0  0  0
 24 11  1  0  0  0  0
 25 26  1  0  0  0  0
 25 24  1  0  0  0  0
 26 27  1  0  0  0  0
 28 29  1  0  0  0  0
 28 26  2  0  0  0  0
 30 28  1  0  0  0  0
 31 30  2  0  0  0  0
 31 32  1  0  0  0  0
 32 25  2  0  0  0  0
 33 32  1  0  0  0  0
 34 31  1  0  0  0  0
 35 44  1  0  0  0  0
 35 34  1  0  0  0  0
 36 35  2  0  0  0  0
 37 36  1  0  0  0  0
 38 40  2  0  0  0  0
 38 36  1  0  0  0  0
 39 38  1  0  0  0  0
 40 42  1  0  0  0  0
 41 40  1  0  0  0  0
 42 43  1  0  0  0  0
 42 44  2  0  0  0  0
 44 45  1  0  0  0  0
 45 46  1  0  0  0  0
 45 30  1  0  0  0  0
M  END
>  <minimizedAffinity>
-5.8893857

>  <minimizedRMSD>
1.40600526

$$$$
