
 OpenBabel03252506143D

 49 53  0  0  0  0  0  0  0  0999 V2000
   36.3230   27.7680   38.9080 O   0  0  0  0  0  0  0  0  0  0  0  0
   35.6000   29.0430   39.2670 P   0  0  2  0  0  0  0  0  0  0  0  0
   33.9390   28.9090   38.9040 O   0  0  0  0  0  0  0  0  0  0  0  0
   33.7860   28.0230   38.5390 H   0  0  0  0  0  0  0  0  0  0  0  0
   36.2120   30.3770   38.4390 O   0  0  0  0  0  0  0  0  0  0  0  0
   38.8500   30.3850   37.4530 F   0  0  0  0  0  0  0  0  0  0  0  0
   38.4500   31.2280   38.3900 C   0  0  0  0  0  0  0  0  0  0  0  0
   39.3520   32.1420   38.9020 C   0  0  0  0  0  0  0  0  0  0  0  0
   39.0190   33.0730   39.8920 C   0  0  0  0  0  0  0  0  0  0  0  0
   37.7180   33.0900   40.3960 C   0  0  0  0  0  0  0  0  0  0  0  0
   36.8460   32.1670   39.8630 C   0  0  0  0  0  0  0  0  0  0  0  0
   37.1560   31.2570   38.9010 C   0  0  0  0  0  0  0  0  0  0  0  0
   39.7910   33.7620   40.2440 H   0  0  0  0  0  0  0  0  0  0  0  0
   37.5070   33.8240   41.1570 H   0  0  0  0  0  0  0  0  0  0  0  0
   35.8760   32.2910   40.3300 H   0  0  0  0  0  0  0  0  0  0  0  0
   42.4490   33.3240   37.3280 C   0  0  0  0  0  0  0  0  0  0  0  0
   43.2980   32.2130   37.4830 C   0  0  0  0  0  0  0  0  0  0  0  0
   42.8010   31.0470   38.1350 C   0  0  0  0  0  0  0  0  0  0  0  0
   41.5050   31.0960   38.5710 N   0  0  0  0  0  0  0  0  0  0  0  0
   40.7320   32.1710   38.4040 C   0  0  0  0  0  0  0  0  0  0  0  0
   41.2010   33.2700   37.7890 N   0  0  0  0  0  0  0  0  0  0  0  0
   44.3040   32.1940   37.1370 H   0  0  0  0  0  0  0  0  0  0  0  0
   43.4280   30.1780   38.2690 H   0  0  0  0  0  0  0  0  0  0  0  0
   42.9610   34.4740   36.6760 N   0  0  0  0  0  0  0  0  0  0  0  0
   42.7080   34.9140   35.7540 H   0  0  0  0  0  0  0  0  0  0  0  0
   43.7190   35.0850   37.0600 H   0  0  0  0  0  0  0  0  0  0  0  0
   35.6560   29.2350   40.9500 O   0  0  0  0  0  0  0  0  0  0  0  0
   36.7460   28.7080   41.6310 C   0  0  0  0  0  0  0  0  0  0  0  0
   36.5410   27.5660   42.3800 C   0  0  0  0  0  0  0  0  0  0  0  0
   35.5570   27.1100   42.4230 H   0  0  0  0  0  0  0  0  0  0  0  0
   37.6140   27.0240   43.0660 C   0  0  0  0  0  0  0  0  0  0  0  0
   37.3720   26.1140   43.6400 H   0  0  0  0  0  0  0  0  0  0  0  0
   38.8910   27.5500   43.0570 C   0  0  0  0  0  0  0  0  0  0  0  0
   39.0540   28.6670   42.3130 C   0  0  0  0  0  0  0  0  0  0  0  0
   38.0310   29.2220   41.6330 C   0  0  0  0  0  0  0  0  0  0  0  0
   38.1800   30.1330   41.0310 H   0  0  0  0  0  0  0  0  0  0  0  0
   40.6730   29.4110   42.2480 S   0  0  0  0  0  0  0  0  0  0  0  0
   41.7140   28.3830   43.2680 C   0  0  0  0  0  0  0  0  0  0  0  0
   43.0300   28.7580   43.3760 C   0  0  0  0  0  0  0  0  0  0  0  0
   43.4190   29.6350   42.8670 H   0  0  0  0  0  0  0  0  0  0  0  0
   43.9070   28.0270   44.1410 C   0  0  0  0  0  0  0  0  0  0  0  0
   44.9330   28.3080   44.2330 H   0  0  0  0  0  0  0  0  0  0  0  0
   43.4180   26.9190   44.7850 C   0  0  0  0  0  0  0  0  0  0  0  0
   44.1120   26.3480   45.3840 H   0  0  0  0  0  0  0  0  0  0  0  0
   42.0990   26.5940   44.6400 C   0  0  0  0  0  0  0  0  0  0  0  0
   41.8090   25.6950   45.1930 H   0  0  0  0  0  0  0  0  0  0  0  0
   41.1730   27.2880   43.8880 C   0  0  0  0  0  0  0  0  0  0  0  0
   39.8470   26.8680   43.8090 N   0  0  0  0  0  0  0  0  0  0  0  0
   39.6070   26.0080   44.3480 H   0  0  0  0  0  0  0  0  0  0  0  0
  2  1  2  6  0  0  0
  2 27  1  0  0  0  0
  3  2  1  0  0  0  0
  4  3  1  0  0  0  0
  5 12  1  0  0  0  0
  5  2  1  0  0  0  0
  6  7  1  0  0  0  0
  7 12  2  0  0  0  0
  7  8  1  0  0  0  0
  8  9  2  0  0  0  0
  9 13  1  0  0  0  0
  9 10  1  0  0  0  0
 10 14  1  0  0  0  0
 11 15  1  0  0  0  0
 11 10  2  0  0  0  0
 12 11  1  0  0  0  0
 16 17  2  0  0  0  0
 16 21  1  0  0  0  0
 17 18  1  0  0  0  0
 18 23  1  0  0  0  0
 18 19  2  0  0  0  0
 20 19  1  0  0  0  0
 20  8  1  0  0  0  0
 21 20  2  0  0  0  0
 22 17  1  0  0  0  0
 24 26  1  0  0  0  0
 24 16  1  0  0  0  0
 25 24  1  0  0  0  0
 27 28  1  0  0  0  0
 28 35  2  0  0  0  0
 28 29  1  0  0  0  0
 29 30  1  0  0  0  0
 29 31  2  0  0  0  0
 31 32  1  0  0  0  0
 33 31  1  0  0  0  0
 33 48  1  0  0  0  0
 34 33  2  0  0  0  0
 35 34  1  0  0  0  0
 36 35  1  0  0  0  0
 37 34  1  0  0  0  0
 37 38  1  0  0  0  0
 38 39  2  0  0  0  0
 38 47  1  0  0  0  0
 39 41  1  0  0  0  0
 40 39  1  0  0  0  0
 41 42  1  0  0  0  0
 41 43  2  0  0  0  0
 43 44  1  0  0  0  0
 45 43  1  0  0  0  0
 45 46  1  0  0  0  0
 47 45  2  0  0  0  0
 48 47  1  0  0  0  0
 48 49  1  0  0  0  0
M  END
>  <minimizedAffinity>
-7.51728868

$$$$

 OpenBabel03252506143D

 49 53  0  0  0  0  0  0  0  0999 V2000
   35.6940   29.5610   38.1560 O   0  0  0  0  0  0  0  0  0  0  0  0
   36.9740   29.9940   38.8280 P   0  0  2  0  0  0  0  0  0  0  0  0
   38.2490   28.9350   38.4250 O   0  0  0  0  0  0  0  0  0  0  0  0
   37.8930   28.2570   37.8300 H   0  0  0  0  0  0  0  0  0  0  0  0
   36.8330   30.0300   40.5060 O   0  0  0  0  0  0  0  0  0  0  0  0
   39.5450   29.6010   41.1320 F   0  0  0  0  0  0  0  0  0  0  0  0
   38.5800   28.8650   41.6580 C   0  0  0  0  0  0  0  0  0  0  0  0
   38.9110   27.8550   42.5430 C   0  0  0  0  0  0  0  0  0  0  0  0
   37.9590   27.0280   43.1490 C   0  0  0  0  0  0  0  0  0  0  0  0
   36.6080   27.2220   42.8570 C   0  0  0  0  0  0  0  0  0  0  0  0
   36.3150   28.2370   41.9730 C   0  0  0  0  0  0  0  0  0  0  0  0
   37.2290   29.0470   41.3760 C   0  0  0  0  0  0  0  0  0  0  0  0
   38.3010   26.2510   43.8380 H   0  0  0  0  0  0  0  0  0  0  0  0
   35.9110   26.5620   43.3470 H   0  0  0  0  0  0  0  0  0  0  0  0
   35.2410   28.2860   41.8400 H   0  0  0  0  0  0  0  0  0  0  0  0
   42.0590   26.1050   43.2410 C   0  0  0  0  0  0  0  0  0  0  0  0
   42.9280   27.1720   43.5320 C   0  0  0  0  0  0  0  0  0  0  0  0
   42.4270   28.5060   43.4870 C   0  0  0  0  0  0  0  0  0  0  0  0
   41.1070   28.6520   43.1580 N   0  0  0  0  0  0  0  0  0  0  0  0
   40.3160   27.6120   42.8890 C   0  0  0  0  0  0  0  0  0  0  0  0
   40.7890   26.3550   42.9310 N   0  0  0  0  0  0  0  0  0  0  0  0
   43.9530   27.0380   43.7860 H   0  0  0  0  0  0  0  0  0  0  0  0
   43.0690   29.3470   43.7050 H   0  0  0  0  0  0  0  0  0  0  0  0
   42.5760   24.7870   43.2920 N   0  0  0  0  0  0  0  0  0  0  0  0
   42.3640   23.9880   43.9440 H   0  0  0  0  0  0  0  0  0  0  0  0
   43.2940   24.4040   42.6320 H   0  0  0  0  0  0  0  0  0  0  0  0
   37.4390   31.4900   38.1780 O   0  0  0  0  0  0  0  0  0  0  0  0
   38.3490   32.2580   38.8940 C   0  0  0  0  0  0  0  0  0  0  0  0
   37.8440   33.2340   39.7290 C   0  0  0  0  0  0  0  0  0  0  0  0
   36.7720   33.3820   39.8110 H   0  0  0  0  0  0  0  0  0  0  0  0
   38.7340   34.0110   40.4510 C   0  0  0  0  0  0  0  0  0  0  0  0
   38.2560   34.7670   41.0950 H   0  0  0  0  0  0  0  0  0  0  0  0
   40.1070   33.8780   40.3960 C   0  0  0  0  0  0  0  0  0  0  0  0
   40.5650   32.9120   39.5680 C   0  0  0  0  0  0  0  0  0  0  0  0
   39.7280   32.1380   38.8510 C   0  0  0  0  0  0  0  0  0  0  0  0
   40.1170   31.3550   38.1800 H   0  0  0  0  0  0  0  0  0  0  0  0
   42.3270   32.6740   39.4390 S   0  0  0  0  0  0  0  0  0  0  0  0
   43.0550   33.8810   40.5320 C   0  0  0  0  0  0  0  0  0  0  0  0
   44.4260   33.8950   40.6060 C   0  0  0  0  0  0  0  0  0  0  0  0
   45.0370   33.2070   40.0300 H   0  0  0  0  0  0  0  0  0  0  0  0
   45.0750   34.7900   41.4220 C   0  0  0  0  0  0  0  0  0  0  0  0
   46.1410   34.8120   41.4890 H   0  0  0  0  0  0  0  0  0  0  0  0
   44.3060   35.6610   42.1510 C   0  0  0  0  0  0  0  0  0  0  0  0
   44.8210   36.3620   42.7910 H   0  0  0  0  0  0  0  0  0  0  0  0
   42.9450   35.6000   42.0370 C   0  0  0  0  0  0  0  0  0  0  0  0
   42.4240   36.3340   42.6590 H   0  0  0  0  0  0  0  0  0  0  0  0
   42.2390   34.7260   41.2370 C   0  0  0  0  0  0  0  0  0  0  0  0
   40.8460   34.7500   41.1960 N   0  0  0  0  0  0  0  0  0  0  0  0
   40.3830   35.4620   41.8000 H   0  0  0  0  0  0  0  0  0  0  0  0
  2  1  2  6  0  0  0
  2  5  1  0  0  0  0
  3  2  1  0  0  0  0
  4  3  1  0  0  0  0
  5 12  1  0  0  0  0
  6  7  1  0  0  0  0
  7  8  1  0  0  0  0
  8 20  1  0  0  0  0
  8  9  2  0  0  0  0
  9 13  1  0  0  0  0
 10  9  1  0  0  0  0
 10 14  1  0  0  0  0
 11 10  2  0  0  0  0
 12  7  2  0  0  0  0
 12 11  1  0  0  0  0
 15 11  1  0  0  0  0
 16 24  1  0  0  0  0
 16 17  1  0  0  0  0
 17 22  1  0  0  0  0
 18 17  2  0  0  0  0
 18 23  1  0  0  0  0
 19 18  1  0  0  0  0
 20 21  1  0  0  0  0
 20 19  2  0  0  0  0
 21 16  2  0  0  0  0
 24 25  1  0  0  0  0
 26 24  1  0  0  0  0
 27  2  1  0  0  0  0
 27 28  1  0  0  0  0
 28 29  1  0  0  0  0
 29 30  1  0  0  0  0
 29 31  2  0  0  0  0
 31 32  1  0  0  0  0
 33 31  1  0  0  0  0
 33 48  1  0  0  0  0
 34 33  2  0  0  0  0
 35 28  2  0  0  0  0
 35 34  1  0  0  0  0
 36 35  1  0  0  0  0
 37 34  1  0  0  0  0
 37 38  1  0  0  0  0
 38 39  2  0  0  0  0
 38 47  1  0  0  0  0
 39 41  1  0  0  0  0
 40 39  1  0  0  0  0
 41 42  1  0  0  0  0
 41 43  2  0  0  0  0
 43 44  1  0  0  0  0
 45 43  1  0  0  0  0
 45 46  1  0  0  0  0
 47 45  2  0  0  0  0
 48 47  1  0  0  0  0
 48 49  1  0  0  0  0
M  END
>  <minimizedAffinity>
-7.41490602

$$$$

 OpenBabel03252506143D

 49 53  0  0  0  0  0  0  0  0999 V2000
   42.5410   26.2860   44.6300 O   0  0  0  0  0  0  0  0  0  0  0  0
   41.5350   26.2370   43.5060 P   0  0  2  0  0  0  0  0  0  0  0  0
   41.5340   24.6980   42.7720 O   0  0  0  0  0  0  0  0  0  0  0  0
   42.1860   24.1490   43.2340 H   0  0  0  0  0  0  0  0  0  0  0  0
   41.8550   27.3860   42.3150 O   0  0  0  0  0  0  0  0  0  0  0  0
   40.1320   29.0600   40.8450 F   0  0  0  0  0  0  0  0  0  0  0  0
   40.9890   29.5420   41.7310 C   0  0  0  0  0  0  0  0  0  0  0  0
   41.0410   30.9070   41.9440 C   0  0  0  0  0  0  0  0  0  0  0  0
   41.9130   31.5050   42.8610 C   0  0  0  0  0  0  0  0  0  0  0  0
   42.7750   30.6960   43.6020 C   0  0  0  0  0  0  0  0  0  0  0  0
   42.6950   29.3420   43.3660 C   0  0  0  0  0  0  0  0  0  0  0  0
   41.8540   28.7470   42.4780 C   0  0  0  0  0  0  0  0  0  0  0  0
   41.8930   32.5920   42.9700 H   0  0  0  0  0  0  0  0  0  0  0  0
   43.4280   31.2000   44.2970 H   0  0  0  0  0  0  0  0  0  0  0  0
   43.4050   28.8310   44.0060 H   0  0  0  0  0  0  0  0  0  0  0  0
   37.9930   32.4060   40.5580 C   0  0  0  0  0  0  0  0  0  0  0  0
   38.5100   33.4710   39.7990 C   0  0  0  0  0  0  0  0  0  0  0  0
   39.9210   33.6760   39.7640 C   0  0  0  0  0  0  0  0  0  0  0  0
   40.6830   32.8000   40.4870 N   0  0  0  0  0  0  0  0  0  0  0  0
   40.1530   31.8020   41.1940 C   0  0  0  0  0  0  0  0  0  0  0  0
   38.8230   31.6090   41.2280 N   0  0  0  0  0  0  0  0  0  0  0  0
   37.9000   34.1420   39.2430 H   0  0  0  0  0  0  0  0  0  0  0  0
   40.3490   34.4850   39.1900 H   0  0  0  0  0  0  0  0  0  0  0  0
   36.5880   32.2190   40.5800 N   0  0  0  0  0  0  0  0  0  0  0  0
   35.9910   31.4410   40.1980 H   0  0  0  0  0  0  0  0  0  0  0  0
   35.9070   32.8830   41.0170 H   0  0  0  0  0  0  0  0  0  0  0  0
   39.9830   26.3960   44.1690 O   0  0  0  0  0  0  0  0  0  0  0  0
   38.9860   26.9440   43.3720 C   0  0  0  0  0  0  0  0  0  0  0  0
   38.3170   28.0500   43.8550 C   0  0  0  0  0  0  0  0  0  0  0  0
   38.5740   28.4640   44.8240 H   0  0  0  0  0  0  0  0  0  0  0  0
   37.3190   28.6110   43.0760 C   0  0  0  0  0  0  0  0  0  0  0  0
   36.8320   29.4910   43.5290 H   0  0  0  0  0  0  0  0  0  0  0  0
   36.9400   28.1380   41.8360 C   0  0  0  0  0  0  0  0  0  0  0  0
   37.6170   27.0540   41.3950 C   0  0  0  0  0  0  0  0  0  0  0  0
   38.5930   26.4820   42.1270 C   0  0  0  0  0  0  0  0  0  0  0  0
   39.1360   25.5990   41.7540 H   0  0  0  0  0  0  0  0  0  0  0  0
   37.1890   26.3790   39.8020 S   0  0  0  0  0  0  0  0  0  0  0  0
   35.8750   27.4130   39.1810 C   0  0  0  0  0  0  0  0  0  0  0  0
   35.3690   27.0880   37.9470 C   0  0  0  0  0  0  0  0  0  0  0  0
   35.7470   26.2460   37.3770 H   0  0  0  0  0  0  0  0  0  0  0  0
   34.3540   27.8280   37.3890 C   0  0  0  0  0  0  0  0  0  0  0  0
   33.9510   27.5860   36.4290 H   0  0  0  0  0  0  0  0  0  0  0  0
   33.8730   28.8930   38.1070 C   0  0  0  0  0  0  0  0  0  0  0  0
   33.0760   29.4710   37.6630 H   0  0  0  0  0  0  0  0  0  0  0  0
   34.4160   29.1690   39.3300 C   0  0  0  0  0  0  0  0  0  0  0  0
   33.9640   30.0360   39.8200 H   0  0  0  0  0  0  0  0  0  0  0  0
   35.4330   28.4640   39.9410 C   0  0  0  0  0  0  0  0  0  0  0  0
   35.9130   28.8320   41.1950 N   0  0  0  0  0  0  0  0  0  0  0  0
   35.4600   29.6630   41.6330 H   0  0  0  0  0  0  0  0  0  0  0  0
  2 27  1  0  0  0  0
  2  1  2  1  0  0  0
  3  4  1  0  0  0  0
  3  2  1  0  0  0  0
  5 12  1  0  0  0  0
  5  2  1  0  0  0  0
  6  7  1  0  0  0  0
  7  8  2  0  0  0  0
  7 12  1  0  0  0  0
  8  9  1  0  0  0  0
  9 13  1  0  0  0  0
  9 10  2  0  0  0  0
 10 14  1  0  0  0  0
 11 10  1  0  0  0  0
 11 15  1  0  0  0  0
 12 11  2  0  0  0  0
 16 24  1  0  0  0  0
 16 21  1  0  0  0  0
 17 16  2  0  0  0  0
 18 17  1  0  0  0  0
 18 19  2  0  0  0  0
 19 20  1  0  0  0  0
 20 21  2  0  0  0  0
 20  8  1  0  0  0  0
 22 17  1  0  0  0  0
 23 18  1  0  0  0  0
 24 26  1  0  0  0  0
 25 24  1  0  0  0  0
 28 29  1  0  0  0  0
 28 27  1  0  0  0  0
 29 30  1  0  0  0  0
 31 32  1  0  0  0  0
 31 29  2  0  0  0  0
 33 31  1  0  0  0  0
 34 33  2  0  0  0  0
 34 35  1  0  0  0  0
 35 28  2  0  0  0  0
 36 35  1  0  0  0  0
 37 34  1  0  0  0  0
 38 37  1  0  0  0  0
 38 47  1  0  0  0  0
 39 38  2  0  0  0  0
 40 39  1  0  0  0  0
 41 39  1  0  0  0  0
 41 43  2  0  0  0  0
 42 41  1  0  0  0  0
 43 45  1  0  0  0  0
 44 43  1  0  0  0  0
 45 46  1  0  0  0  0
 45 47  2  0  0  0  0
 47 48  1  0  0  0  0
 48 49  1  0  0  0  0
 48 33  1  0  0  0  0
M  END
>  <minimizedAffinity>
-7.36680746

$$$$

 OpenBabel03252506143D

 49 53  0  0  0  0  0  0  0  0999 V2000
   35.9230   25.0660   38.4640 O   0  0  0  0  0  0  0  0  0  0  0  0
   36.6490   26.2150   39.1190 P   0  0  2  0  0  0  0  0  0  0  0  0
   38.0120   26.6640   38.1980 O   0  0  0  0  0  0  0  0  0  0  0  0
   38.0460   26.0860   37.4190 H   0  0  0  0  0  0  0  0  0  0  0  0
   37.1710   25.8340   40.6750 O   0  0  0  0  0  0  0  0  0  0  0  0
   39.6680   27.1330   40.7880 F   0  0  0  0  0  0  0  0  0  0  0  0
   38.7260   27.3460   41.6930 C   0  0  0  0  0  0  0  0  0  0  0  0
   38.9720   28.2320   42.7240 C   0  0  0  0  0  0  0  0  0  0  0  0
   38.0360   28.5220   43.7240 C   0  0  0  0  0  0  0  0  0  0  0  0
   36.7910   27.8920   43.6890 C   0  0  0  0  0  0  0  0  0  0  0  0
   36.5800   27.0170   42.6470 C   0  0  0  0  0  0  0  0  0  0  0  0
   37.4790   26.7260   41.6700 C   0  0  0  0  0  0  0  0  0  0  0  0
   38.3080   29.2350   44.5060 H   0  0  0  0  0  0  0  0  0  0  0  0
   36.1020   28.1460   44.4790 H   0  0  0  0  0  0  0  0  0  0  0  0
   35.5810   26.6060   42.7310 H   0  0  0  0  0  0  0  0  0  0  0  0
   41.5080   30.8770   42.5320 C   0  0  0  0  0  0  0  0  0  0  0  0
   42.6660   30.2040   42.9610 C   0  0  0  0  0  0  0  0  0  0  0  0
   42.5730   28.8270   43.3200 C   0  0  0  0  0  0  0  0  0  0  0  0
   41.3370   28.2500   43.2170 N   0  0  0  0  0  0  0  0  0  0  0  0
   40.2630   28.9250   42.8050 C   0  0  0  0  0  0  0  0  0  0  0  0
   40.3500   30.2230   42.4670 N   0  0  0  0  0  0  0  0  0  0  0  0
   43.6190   30.6700   43.0340 H   0  0  0  0  0  0  0  0  0  0  0  0
   43.4440   28.2820   43.6530 H   0  0  0  0  0  0  0  0  0  0  0  0
   41.6200   32.2450   42.1780 N   0  0  0  0  0  0  0  0  0  0  0  0
   41.5140   32.7270   41.2490 H   0  0  0  0  0  0  0  0  0  0  0  0
   41.8400   33.0160   42.8510 H   0  0  0  0  0  0  0  0  0  0  0  0
   35.6400   27.5770   39.0820 O   0  0  0  0  0  0  0  0  0  0  0  0
   36.1900   28.8050   39.4260 C   0  0  0  0  0  0  0  0  0  0  0  0
   35.5390   29.5490   40.3910 C   0  0  0  0  0  0  0  0  0  0  0  0
   34.6330   29.1710   40.8530 H   0  0  0  0  0  0  0  0  0  0  0  0
   36.0700   30.7760   40.7480 C   0  0  0  0  0  0  0  0  0  0  0  0
   35.4960   31.3100   41.5230 H   0  0  0  0  0  0  0  0  0  0  0  0
   37.2170   31.3180   40.2030 C   0  0  0  0  0  0  0  0  0  0  0  0
   37.8270   30.5620   39.2620 C   0  0  0  0  0  0  0  0  0  0  0  0
   37.3380   29.3630   38.8900 C   0  0  0  0  0  0  0  0  0  0  0  0
   37.8460   28.7590   38.1210 H   0  0  0  0  0  0  0  0  0  0  0  0
   39.3150   31.1890   38.5070 S   0  0  0  0  0  0  0  0  0  0  0  0
   39.6090   32.7740   39.2710 C   0  0  0  0  0  0  0  0  0  0  0  0
   40.7180   33.4630   38.8470 C   0  0  0  0  0  0  0  0  0  0  0  0
   41.3830   33.0660   38.0870 H   0  0  0  0  0  0  0  0  0  0  0  0
   41.0240   34.6930   39.3790 C   0  0  0  0  0  0  0  0  0  0  0  0
   41.8840   35.2400   39.0580 H   0  0  0  0  0  0  0  0  0  0  0  0
   40.1860   35.1980   40.3390 C   0  0  0  0  0  0  0  0  0  0  0  0
   40.4310   36.1640   40.7540 H   0  0  0  0  0  0  0  0  0  0  0  0
   39.0960   34.4660   40.7220 C   0  0  0  0  0  0  0  0  0  0  0  0
   38.4930   34.9550   41.4920 H   0  0  0  0  0  0  0  0  0  0  0  0
   38.7390   33.2300   40.2250 C   0  0  0  0  0  0  0  0  0  0  0  0
   37.6020   32.5680   40.6870 N   0  0  0  0  0  0  0  0  0  0  0  0
   37.0510   33.0630   41.4210 H   0  0  0  0  0  0  0  0  0  0  0  0
  2  1  2  6  0  0  0
  2  5  1  0  0  0  0
  3  2  1  0  0  0  0
  4  3  1  0  0  0  0
  5 12  1  0  0  0  0
  6  7  1  0  0  0  0
  7  8  1  0  0  0  0
  8 20  1  0  0  0  0
  8  9  2  0  0  0  0
  9 13  1  0  0  0  0
 10  9  1  0  0  0  0
 10 14  1  0  0  0  0
 11 15  1  0  0  0  0
 11 10  2  0  0  0  0
 12  7  2  0  0  0  0
 12 11  1  0  0  0  0
 16 17  1  0  0  0  0
 17 22  1  0  0  0  0
 17 18  2  0  0  0  0
 18 23  1  0  0  0  0
 19 18  1  0  0  0  0
 20 19  2  0  0  0  0
 21 16  2  0  0  0  0
 21 20  1  0  0  0  0
 24 16  1  0  0  0  0
 24 26  1  0  0  0  0
 25 24  1  0  0  0  0
 27  2  1  0  0  0  0
 27 28  1  0  0  0  0
 28 29  1  0  0  0  0
 29 31  2  0  0  0  0
 29 30  1  0  0  0  0
 31 32  1  0  0  0  0
 33 48  1  0  0  0  0
 33 31  1  0  0  0  0
 34 33  2  0  0  0  0
 35 34  1  0  0  0  0
 35 28  2  0  0  0  0
 36 35  1  0  0  0  0
 37 34  1  0  0  0  0
 37 38  1  0  0  0  0
 38 47  1  0  0  0  0
 39 38  2  0  0  0  0
 39 41  1  0  0  0  0
 40 39  1  0  0  0  0
 41 43  2  0  0  0  0
 42 41  1  0  0  0  0
 43 45  1  0  0  0  0
 43 44  1  0  0  0  0
 45 46  1  0  0  0  0
 47 48  1  0  0  0  0
 47 45  2  0  0  0  0
 48 49  1  0  0  0  0
M  END
>  <minimizedAffinity>
-7.3573041

$$$$

 OpenBabel03252506143D

 49 53  0  0  0  0  0  0  0  0999 V2000
   43.2060   34.7700   41.9870 O   0  0  0  0  0  0  0  0  0  0  0  0
   43.6850   34.1100   40.7160 P   0  0  2  0  0  0  0  0  0  0  0  0
   45.0870   34.8860   40.1330 O   0  0  0  0  0  0  0  0  0  0  0  0
   45.3050   35.6040   40.7470 H   0  0  0  0  0  0  0  0  0  0  0  0
   42.5200   34.1490   39.5000 O   0  0  0  0  0  0  0  0  0  0  0  0
   40.7580   32.0110   38.9900 F   0  0  0  0  0  0  0  0  0  0  0  0
   40.3270   33.1890   39.4100 C   0  0  0  0  0  0  0  0  0  0  0  0
   38.9710   33.3780   39.6070 C   0  0  0  0  0  0  0  0  0  0  0  0
   38.4250   34.5870   40.0520 C   0  0  0  0  0  0  0  0  0  0  0  0
   39.2770   35.6600   40.3130 C   0  0  0  0  0  0  0  0  0  0  0  0
   40.6200   35.4370   40.1080 C   0  0  0  0  0  0  0  0  0  0  0  0
   41.1650   34.2680   39.6760 C   0  0  0  0  0  0  0  0  0  0  0  0
   37.3420   34.6560   40.1820 H   0  0  0  0  0  0  0  0  0  0  0  0
   38.8110   36.5720   40.6540 H   0  0  0  0  0  0  0  0  0  0  0  0
   41.1680   36.3390   40.3530 H   0  0  0  0  0  0  0  0  0  0  0  0
   36.3700   30.8450   40.1350 C   0  0  0  0  0  0  0  0  0  0  0  0
   36.2890   30.2410   38.8680 C   0  0  0  0  0  0  0  0  0  0  0  0
   37.1360   30.7100   37.8210 C   0  0  0  0  0  0  0  0  0  0  0  0
   37.9860   31.7350   38.1360 N   0  0  0  0  0  0  0  0  0  0  0  0
   38.0320   32.2800   39.3520 C   0  0  0  0  0  0  0  0  0  0  0  0
   37.2330   31.8380   40.3380 N   0  0  0  0  0  0  0  0  0  0  0  0
   35.6210   29.4440   38.6420 H   0  0  0  0  0  0  0  0  0  0  0  0
   37.0980   30.2660   36.8370 H   0  0  0  0  0  0  0  0  0  0  0  0
   35.5200   30.3650   41.1630 N   0  0  0  0  0  0  0  0  0  0  0  0
   35.7400   29.8570   42.0580 H   0  0  0  0  0  0  0  0  0  0  0  0
   34.4780   30.4610   41.1640 H   0  0  0  0  0  0  0  0  0  0  0  0
   44.1900   32.5360   41.0890 O   0  0  0  0  0  0  0  0  0  0  0  0
   43.2310   31.5310   41.1160 C   0  0  0  0  0  0  0  0  0  0  0  0
   43.4000   30.4630   40.2580 C   0  0  0  0  0  0  0  0  0  0  0  0
   44.2570   30.4250   39.5940 H   0  0  0  0  0  0  0  0  0  0  0  0
   42.4560   29.4510   40.2700 C   0  0  0  0  0  0  0  0  0  0  0  0
   42.6590   28.6330   39.5590 H   0  0  0  0  0  0  0  0  0  0  0  0
   41.3430   29.4330   41.0860 C   0  0  0  0  0  0  0  0  0  0  0  0
   41.2100   30.4950   41.9120 C   0  0  0  0  0  0  0  0  0  0  0  0
   42.1100   31.4970   41.9280 C   0  0  0  0  0  0  0  0  0  0  0  0
   41.9880   32.3560   42.6070 H   0  0  0  0  0  0  0  0  0  0  0  0
   39.7990   30.5500   43.0010 S   0  0  0  0  0  0  0  0  0  0  0  0
   38.8790   29.0590   42.6670 C   0  0  0  0  0  0  0  0  0  0  0  0
   37.7290   28.8710   43.3940 C   0  0  0  0  0  0  0  0  0  0  0  0
   37.3970   29.5910   44.1350 H   0  0  0  0  0  0  0  0  0  0  0  0
   36.9550   27.7520   43.2050 C   0  0  0  0  0  0  0  0  0  0  0  0
   36.0590   27.5930   43.7640 H   0  0  0  0  0  0  0  0  0  0  0  0
   37.3720   26.8400   42.2690 C   0  0  0  0  0  0  0  0  0  0  0  0
   36.7600   25.9620   42.1250 H   0  0  0  0  0  0  0  0  0  0  0  0
   38.5250   27.0800   41.5750 C   0  0  0  0  0  0  0  0  0  0  0  0
   38.7700   26.2940   40.8550 H   0  0  0  0  0  0  0  0  0  0  0  0
   39.3420   28.1820   41.7210 C   0  0  0  0  0  0  0  0  0  0  0  0
   40.4990   28.3290   40.9590 N   0  0  0  0  0  0  0  0  0  0  0  0
   40.7020   27.5620   40.2830 H   0  0  0  0  0  0  0  0  0  0  0  0
  2 27  1  0  0  0  0
  2  1  2  1  0  0  0
  3  2  1  0  0  0  0
  3  4  1  0  0  0  0
  5 12  1  0  0  0  0
  5  2  1  0  0  0  0
  6  7  1  0  0  0  0
  7  8  2  0  0  0  0
  7 12  1  0  0  0  0
  8  9  1  0  0  0  0
  9 13  1  0  0  0  0
  9 10  2  0  0  0  0
 10 14  1  0  0  0  0
 11 10  1  0  0  0  0
 11 15  1  0  0  0  0
 12 11  2  0  0  0  0
 16 21  1  0  0  0  0
 16 24  1  0  0  0  0
 17 16  2  0  0  0  0
 18 19  2  0  0  0  0
 18 17  1  0  0  0  0
 19 20  1  0  0  0  0
 20  8  1  0  0  0  0
 20 21  2  0  0  0  0
 22 17  1  0  0  0  0
 23 18  1  0  0  0  0
 24 26  1  0  0  0  0
 24 25  1  0  0  0  0
 27 28  1  0  0  0  0
 28 35  1  0  0  0  0
 29 31  1  0  0  0  0
 29 28  2  0  0  0  0
 30 29  1  0  0  0  0
 31 33  2  0  0  0  0
 32 31  1  0  0  0  0
 33 34  1  0  0  0  0
 34 35  2  0  0  0  0
 34 37  1  0  0  0  0
 35 36  1  0  0  0  0
 38 37  1  0  0  0  0
 38 39  1  0  0  0  0
 39 40  1  0  0  0  0
 41 39  2  0  0  0  0
 41 42  1  0  0  0  0
 43 41  1  0  0  0  0
 44 43  1  0  0  0  0
 45 47  1  0  0  0  0
 45 43  2  0  0  0  0
 46 45  1  0  0  0  0
 47 38  2  0  0  0  0
 48 33  1  0  0  0  0
 48 47  1  0  0  0  0
 49 48  1  0  0  0  0
M  END
>  <minimizedAffinity>
-7.35020638

$$$$

 OpenBabel03252506143D

 49 53  0  0  0  0  0  0  0  0999 V2000
   41.6430   25.3210   43.4340 O   0  0  0  0  0  0  0  0  0  0  0  0
   40.2060   25.1790   42.9960 P   0  0  2  0  0  0  0  0  0  0  0  0
   39.5890   23.6570   43.4570 O   0  0  0  0  0  0  0  0  0  0  0  0
   40.2940   23.1800   43.9210 H   0  0  0  0  0  0  0  0  0  0  0  0
   40.0300   25.3330   41.3280 O   0  0  0  0  0  0  0  0  0  0  0  0
   39.6860   27.5570   39.6330 F   0  0  0  0  0  0  0  0  0  0  0  0
   38.7260   26.6670   39.8240 C   0  0  0  0  0  0  0  0  0  0  0  0
   37.5170   26.8300   39.1730 C   0  0  0  0  0  0  0  0  0  0  0  0
   36.4470   25.9400   39.3130 C   0  0  0  0  0  0  0  0  0  0  0  0
   36.5930   24.8300   40.1460 C   0  0  0  0  0  0  0  0  0  0  0  0
   37.8100   24.6970   40.7770 C   0  0  0  0  0  0  0  0  0  0  0  0
   38.8580   25.5540   40.6510 C   0  0  0  0  0  0  0  0  0  0  0  0
   35.5240   26.1410   38.7640 H   0  0  0  0  0  0  0  0  0  0  0  0
   35.7430   24.1710   40.2220 H   0  0  0  0  0  0  0  0  0  0  0  0
   37.7960   23.7980   41.3810 H   0  0  0  0  0  0  0  0  0  0  0  0
   37.2550   28.8490   36.1200 C   0  0  0  0  0  0  0  0  0  0  0  0
   36.9280   30.1160   36.6350 C   0  0  0  0  0  0  0  0  0  0  0  0
   36.7960   30.2780   38.0450 C   0  0  0  0  0  0  0  0  0  0  0  0
   37.0040   29.1630   38.8100 N   0  0  0  0  0  0  0  0  0  0  0  0
   37.3130   27.9780   38.2820 C   0  0  0  0  0  0  0  0  0  0  0  0
   37.4370   27.8250   36.9530 N   0  0  0  0  0  0  0  0  0  0  0  0
   36.7710   30.9720   36.0230 H   0  0  0  0  0  0  0  0  0  0  0  0
   36.5460   31.2390   38.4710 H   0  0  0  0  0  0  0  0  0  0  0  0
   37.3830   28.7080   34.7160 N   0  0  0  0  0  0  0  0  0  0  0  0
   38.2230   28.5000   34.1180 H   0  0  0  0  0  0  0  0  0  0  0  0
   36.5920   28.7990   34.0360 H   0  0  0  0  0  0  0  0  0  0  0  0
   39.2710   26.2990   43.8590 O   0  0  0  0  0  0  0  0  0  0  0  0
   38.9760   27.5110   43.2490 C   0  0  0  0  0  0  0  0  0  0  0  0
   37.6470   27.8050   43.0200 C   0  0  0  0  0  0  0  0  0  0  0  0
   36.8740   27.1030   43.3120 H   0  0  0  0  0  0  0  0  0  0  0  0
   37.3320   29.0080   42.4130 C   0  0  0  0  0  0  0  0  0  0  0  0
   36.2520   29.1720   42.2640 H   0  0  0  0  0  0  0  0  0  0  0  0
   38.2620   29.9480   42.0150 C   0  0  0  0  0  0  0  0  0  0  0  0
   39.5530   29.6260   42.2560 C   0  0  0  0  0  0  0  0  0  0  0  0
   39.8960   28.4640   42.8450 C   0  0  0  0  0  0  0  0  0  0  0  0
   40.9520   28.2160   43.0340 H   0  0  0  0  0  0  0  0  0  0  0  0
   40.8180   30.7860   41.7730 S   0  0  0  0  0  0  0  0  0  0  0  0
   39.9520   32.1650   41.0450 C   0  0  0  0  0  0  0  0  0  0  0  0
   40.7250   33.2030   40.5890 C   0  0  0  0  0  0  0  0  0  0  0  0
   41.8070   33.1880   40.6670 H   0  0  0  0  0  0  0  0  0  0  0  0
   40.1450   34.3080   40.0130 C   0  0  0  0  0  0  0  0  0  0  0  0
   40.7340   35.1230   39.6540 H   0  0  0  0  0  0  0  0  0  0  0  0
   38.7770   34.3300   39.9130 C   0  0  0  0  0  0  0  0  0  0  0  0
   38.3270   35.2010   39.4600 H   0  0  0  0  0  0  0  0  0  0  0  0
   38.0590   33.2670   40.3850 C   0  0  0  0  0  0  0  0  0  0  0  0
   36.9790   33.3820   40.2590 H   0  0  0  0  0  0  0  0  0  0  0  0
   38.5840   32.1340   40.9710 C   0  0  0  0  0  0  0  0  0  0  0  0
   37.7590   31.1050   41.4190 N   0  0  0  0  0  0  0  0  0  0  0  0
   36.7350   31.2480   41.2830 H   0  0  0  0  0  0  0  0  0  0  0  0
  2  1  2  1  0  0  0
  2  3  1  0  0  0  0
  2 27  1  0  0  0  0
  3  4  1  0  0  0  0
  5  2  1  0  0  0  0
  6  7  1  0  0  0  0
  7 12  1  0  0  0  0
  8  9  1  0  0  0  0
  8  7  2  0  0  0  0
  9 10  2  0  0  0  0
 10 14  1  0  0  0  0
 10 11  1  0  0  0  0
 11 15  1  0  0  0  0
 12 11  2  0  0  0  0
 12  5  1  0  0  0  0
 13  9  1  0  0  0  0
 16 17  2  0  0  0  0
 16 21  1  0  0  0  0
 17 18  1  0  0  0  0
 18 23  1  0  0  0  0
 18 19  2  0  0  0  0
 20 19  1  0  0  0  0
 20  8  1  0  0  0  0
 21 20  2  0  0  0  0
 22 17  1  0  0  0  0
 24 16  1  0  0  0  0
 25 24  1  0  0  0  0
 26 24  1  0  0  0  0
 28 27  1  0  0  0  0
 29 28  1  0  0  0  0
 29 30  1  0  0  0  0
 31 29  2  0  0  0  0
 32 31  1  0  0  0  0
 33 34  2  0  0  0  0
 33 31  1  0  0  0  0
 34 35  1  0  0  0  0
 35 36  1  0  0  0  0
 35 28  2  0  0  0  0
 37 34  1  0  0  0  0
 38 37  1  0  0  0  0
 39 40  1  0  0  0  0
 39 38  2  0  0  0  0
 41 39  1  0  0  0  0
 42 41  1  0  0  0  0
 43 41  2  0  0  0  0
 43 45  1  0  0  0  0
 44 43  1  0  0  0  0
 45 47  2  0  0  0  0
 46 45  1  0  0  0  0
 47 38  1  0  0  0  0
 47 48  1  0  0  0  0
 48 33  1  0  0  0  0
 49 48  1  0  0  0  0
M  END
>  <minimizedAffinity>
-7.29730654

$$$$

 OpenBabel03252506143D

 49 53  0  0  0  0  0  0  0  0999 V2000
   33.4820   26.0740   36.3560 O   0  0  0  0  0  0  0  0  0  0  0  0
   34.6040   27.0180   36.7160 P   0  0  2  0  0  0  0  0  0  0  0  0
   35.0540   27.9540   35.3630 O   0  0  0  0  0  0  0  0  0  0  0  0
   34.4860   27.6940   34.6210 H   0  0  0  0  0  0  0  0  0  0  0  0
   35.9710   26.2030   37.2680 O   0  0  0  0  0  0  0  0  0  0  0  0
   37.3610   27.3410   39.4370 F   0  0  0  0  0  0  0  0  0  0  0  0
   36.7970   26.1470   39.5160 C   0  0  0  0  0  0  0  0  0  0  0  0
   36.8900   25.4350   40.6970 C   0  0  0  0  0  0  0  0  0  0  0  0
   36.3240   24.1680   40.8730 C   0  0  0  0  0  0  0  0  0  0  0  0
   35.6290   23.5830   39.8140 C   0  0  0  0  0  0  0  0  0  0  0  0
   35.5540   24.3200   38.6530 C   0  0  0  0  0  0  0  0  0  0  0  0
   36.1000   25.5520   38.4680 C   0  0  0  0  0  0  0  0  0  0  0  0
   36.4430   23.6700   41.8390 H   0  0  0  0  0  0  0  0  0  0  0  0
   35.2100   22.6060   39.9950 H   0  0  0  0  0  0  0  0  0  0  0  0
   34.9860   23.7620   37.9190 H   0  0  0  0  0  0  0  0  0  0  0  0
   37.7020   27.5790   43.5630 C   0  0  0  0  0  0  0  0  0  0  0  0
   38.9420   27.0590   43.9750 C   0  0  0  0  0  0  0  0  0  0  0  0
   39.5040   25.9610   43.2600 C   0  0  0  0  0  0  0  0  0  0  0  0
   38.7790   25.4840   42.2020 N   0  0  0  0  0  0  0  0  0  0  0  0
   37.6060   26.0060   41.8440 C   0  0  0  0  0  0  0  0  0  0  0  0
   37.0760   27.0410   42.5180 N   0  0  0  0  0  0  0  0  0  0  0  0
   39.4910   27.4440   44.8010 H   0  0  0  0  0  0  0  0  0  0  0  0
   40.4550   25.5390   43.5520 H   0  0  0  0  0  0  0  0  0  0  0  0
   37.1590   28.6710   44.2850 N   0  0  0  0  0  0  0  0  0  0  0  0
   36.9900   29.6700   43.9990 H   0  0  0  0  0  0  0  0  0  0  0  0
   36.8290   28.6210   45.2770 H   0  0  0  0  0  0  0  0  0  0  0  0
   34.0160   28.1440   37.8390 O   0  0  0  0  0  0  0  0  0  0  0  0
   34.9290   28.9940   38.4510 C   0  0  0  0  0  0  0  0  0  0  0  0
   34.7580   29.2530   39.7960 C   0  0  0  0  0  0  0  0  0  0  0  0
   33.9350   28.8010   40.3400 H   0  0  0  0  0  0  0  0  0  0  0  0
   35.6570   30.0970   40.4250 C   0  0  0  0  0  0  0  0  0  0  0  0
   35.4560   30.2550   41.4970 H   0  0  0  0  0  0  0  0  0  0  0  0
   36.7250   30.7060   39.7970 C   0  0  0  0  0  0  0  0  0  0  0  0
   36.8600   30.4290   38.4800 C   0  0  0  0  0  0  0  0  0  0  0  0
   36.0040   29.6120   37.8360 C   0  0  0  0  0  0  0  0  0  0  0  0
   36.1270   29.3960   36.7630 H   0  0  0  0  0  0  0  0  0  0  0  0
   38.2150   31.1760   37.5930 S   0  0  0  0  0  0  0  0  0  0  0  0
   39.0880   32.1630   38.7950 C   0  0  0  0  0  0  0  0  0  0  0  0
   40.1890   32.8480   38.3430 C   0  0  0  0  0  0  0  0  0  0  0  0
   40.5130   32.7910   37.3090 H   0  0  0  0  0  0  0  0  0  0  0  0
   40.9240   33.6350   39.1970 C   0  0  0  0  0  0  0  0  0  0  0  0
   41.7830   34.1720   38.8590 H   0  0  0  0  0  0  0  0  0  0  0  0
   40.5160   33.7090   40.5040 C   0  0  0  0  0  0  0  0  0  0  0  0
   41.0970   34.3280   41.1710 H   0  0  0  0  0  0  0  0  0  0  0  0
   39.4120   33.0050   40.8970 C   0  0  0  0  0  0  0  0  0  0  0  0
   39.1710   33.1300   41.9560 H   0  0  0  0  0  0  0  0  0  0  0  0
   38.6360   32.2010   40.0870 C   0  0  0  0  0  0  0  0  0  0  0  0
   37.5270   31.5260   40.5920 N   0  0  0  0  0  0  0  0  0  0  0  0
   37.3260   31.6670   41.6050 H   0  0  0  0  0  0  0  0  0  0  0  0
  2  1  2  6  0  0  0
  2  5  1  0  0  0  0
  2 27  1  0  0  0  0
  3  2  1  0  0  0  0
  4  3  1  0  0  0  0
  5 12  1  0  0  0  0
  6  7  1  0  0  0  0
  7  8  1  0  0  0  0
  8  9  2  0  0  0  0
  8 20  1  0  0  0  0
  9 13  1  0  0  0  0
 10 14  1  0  0  0  0
 10  9  1  0  0  0  0
 11 10  2  0  0  0  0
 12 11  1  0  0  0  0
 12  7  2  0  0  0  0
 15 11  1  0  0  0  0
 16 17  1  0  0  0  0
 16 24  1  0  0  0  0
 17 22  1  0  0  0  0
 18 23  1  0  0  0  0
 18 17  2  0  0  0  0
 19 18  1  0  0  0  0
 20 19  2  0  0  0  0
 20 21  1  0  0  0  0
 21 16  2  0  0  0  0
 24 26  1  0  0  0  0
 25 24  1  0  0  0  0
 27 28  1  0  0  0  0
 28 29  1  0  0  0  0
 29 30  1  0  0  0  0
 29 31  2  0  0  0  0
 31 32  1  0  0  0  0
 33 31  1  0  0  0  0
 33 48  1  0  0  0  0
 34 33  2  0  0  0  0
 35 28  2  0  0  0  0
 35 34  1  0  0  0  0
 36 35  1  0  0  0  0
 37 34  1  0  0  0  0
 37 38  1  0  0  0  0
 38 47  1  0  0  0  0
 39 38  2  0  0  0  0
 39 41  1  0  0  0  0
 40 39  1  0  0  0  0
 41 43  2  0  0  0  0
 42 41  1  0  0  0  0
 43 45  1  0  0  0  0
 43 44  1  0  0  0  0
 45 46  1  0  0  0  0
 47 48  1  0  0  0  0
 47 45  2  0  0  0  0
 48 49  1  0  0  0  0
M  END
>  <minimizedAffinity>
-7.11996222

$$$$

 OpenBabel03252506143D

 49 53  0  0  0  0  0  0  0  0999 V2000
   42.5990   26.6630   41.6530 O   0  0  0  0  0  0  0  0  0  0  0  0
   41.8980   26.1430   42.8840 P   0  0  2  0  0  0  0  0  0  0  0  0
   42.7050   24.7710   43.4960 O   0  0  0  0  0  0  0  0  0  0  0  0
   43.4700   24.5990   42.9250 H   0  0  0  0  0  0  0  0  0  0  0  0
   40.2980   25.7150   42.5730 O   0  0  0  0  0  0  0  0  0  0  0  0
   39.2980   26.7200   40.1390 F   0  0  0  0  0  0  0  0  0  0  0  0
   38.7600   27.0430   41.3040 C   0  0  0  0  0  0  0  0  0  0  0  0
   37.6740   27.8980   41.3300 C   0  0  0  0  0  0  0  0  0  0  0  0
   37.0400   28.2930   42.5130 C   0  0  0  0  0  0  0  0  0  0  0  0
   37.5160   27.8070   43.7320 C   0  0  0  0  0  0  0  0  0  0  0  0
   38.5970   26.9570   43.6690 C   0  0  0  0  0  0  0  0  0  0  0  0
   39.2240   26.5650   42.5270 C   0  0  0  0  0  0  0  0  0  0  0  0
   36.1870   28.9730   42.4490 H   0  0  0  0  0  0  0  0  0  0  0  0
   36.9960   28.1370   44.6170 H   0  0  0  0  0  0  0  0  0  0  0  0
   38.8600   26.6480   44.6730 H   0  0  0  0  0  0  0  0  0  0  0  0
   37.4660   29.5990   38.0850 C   0  0  0  0  0  0  0  0  0  0  0  0
   36.1110   29.4230   37.7500 C   0  0  0  0  0  0  0  0  0  0  0  0
   35.2620   28.7130   38.6480 C   0  0  0  0  0  0  0  0  0  0  0  0
   35.8410   28.2460   39.7960 N   0  0  0  0  0  0  0  0  0  0  0  0
   37.1310   28.4340   40.0770 C   0  0  0  0  0  0  0  0  0  0  0  0
   37.9310   29.1030   39.2300 N   0  0  0  0  0  0  0  0  0  0  0  0
   35.6790   29.7950   36.8520 H   0  0  0  0  0  0  0  0  0  0  0  0
   34.2170   28.5620   38.4190 H   0  0  0  0  0  0  0  0  0  0  0  0
   38.2940   30.3080   37.1810 N   0  0  0  0  0  0  0  0  0  0  0  0
   38.7760   31.2390   37.2720 H   0  0  0  0  0  0  0  0  0  0  0  0
   38.5570   29.9690   36.2260 H   0  0  0  0  0  0  0  0  0  0  0  0
   42.0390   27.3040   44.1110 O   0  0  0  0  0  0  0  0  0  0  0  0
   42.2610   28.6240   43.7380 C   0  0  0  0  0  0  0  0  0  0  0  0
   41.2550   29.2730   43.0520 C   0  0  0  0  0  0  0  0  0  0  0  0
   40.3290   28.7560   42.8210 H   0  0  0  0  0  0  0  0  0  0  0  0
   41.4570   30.5880   42.6710 C   0  0  0  0  0  0  0  0  0  0  0  0
   40.6090   31.0380   42.1290 H   0  0  0  0  0  0  0  0  0  0  0  0
   42.6060   31.3070   42.9310 C   0  0  0  0  0  0  0  0  0  0  0  0
   43.5700   30.6390   43.6050 C   0  0  0  0  0  0  0  0  0  0  0  0
   43.4070   29.3580   43.9900 C   0  0  0  0  0  0  0  0  0  0  0  0
   44.2020   28.8280   44.5380 H   0  0  0  0  0  0  0  0  0  0  0  0
   45.0880   31.4950   43.9800 S   0  0  0  0  0  0  0  0  0  0  0  0
   44.8930   33.1350   43.3060 C   0  0  0  0  0  0  0  0  0  0  0  0
   45.9490   33.9960   43.4720 C   0  0  0  0  0  0  0  0  0  0  0  0
   46.8560   33.6970   43.9870 H   0  0  0  0  0  0  0  0  0  0  0  0
   45.8890   35.2800   42.9850 C   0  0  0  0  0  0  0  0  0  0  0  0
   46.7030   35.9610   43.1070 H   0  0  0  0  0  0  0  0  0  0  0  0
   44.7440   35.6610   42.3330 C   0  0  0  0  0  0  0  0  0  0  0  0
   44.7030   36.6710   41.9520 H   0  0  0  0  0  0  0  0  0  0  0  0
   43.7250   34.7600   42.1980 C   0  0  0  0  0  0  0  0  0  0  0  0
   42.8590   35.1610   41.6640 H   0  0  0  0  0  0  0  0  0  0  0  0
   43.7280   33.4620   42.6640 C   0  0  0  0  0  0  0  0  0  0  0  0
   42.6310   32.6240   42.4700 N   0  0  0  0  0  0  0  0  0  0  0  0
   41.8230   33.0380   41.9590 H   0  0  0  0  0  0  0  0  0  0  0  0
  2  1  2  6  0  0  0
  2  3  1  0  0  0  0
  2 27  1  0  0  0  0
  4  3  1  0  0  0  0
  5  2  1  0  0  0  0
  6  7  1  0  0  0  0
  7  8  2  0  0  0  0
  7 12  1  0  0  0  0
  8  9  1  0  0  0  0
  9 10  2  0  0  0  0
 10 14  1  0  0  0  0
 11 10  1  0  0  0  0
 11 15  1  0  0  0  0
 12  5  1  0  0  0  0
 12 11  2  0  0  0  0
 13  9  1  0  0  0  0
 16 21  1  0  0  0  0
 17 16  2  0  0  0  0
 17 18  1  0  0  0  0
 18 19  2  0  0  0  0
 19 20  1  0  0  0  0
 20  8  1  0  0  0  0
 21 20  2  0  0  0  0
 22 17  1  0  0  0  0
 23 18  1  0  0  0  0
 24 25  1  0  0  0  0
 24 16  1  0  0  0  0
 26 24  1  0  0  0  0
 28 35  1  0  0  0  0
 28 27  1  0  0  0  0
 29 28  2  0  0  0  0
 30 29  1  0  0  0  0
 31 33  2  0  0  0  0
 31 29  1  0  0  0  0
 32 31  1  0  0  0  0
 33 34  1  0  0  0  0
 34 37  1  0  0  0  0
 34 35  2  0  0  0  0
 35 36  1  0  0  0  0
 38 39  1  0  0  0  0
 38 37  1  0  0  0  0
 39 40  1  0  0  0  0
 41 42  1  0  0  0  0
 41 39  2  0  0  0  0
 43 41  1  0  0  0  0
 44 43  1  0  0  0  0
 45 43  2  0  0  0  0
 45 47  1  0  0  0  0
 46 45  1  0  0  0  0
 47 38  2  0  0  0  0
 48 47  1  0  0  0  0
 48 33  1  0  0  0  0
 49 48  1  0  0  0  0
M  END
>  <minimizedAffinity>
-7.02727938

$$$$

 OpenBabel03252506143D

 49 53  0  0  0  0  0  0  0  0999 V2000
   37.6820   32.1600   38.1650 O   0  0  0  0  0  0  0  0  0  0  0  0
   37.5380   32.9340   39.4520 P   0  0  2  0  0  0  0  0  0  0  0  0
   36.8230   34.4550   39.1570 O   0  0  0  0  0  0  0  0  0  0  0  0
   36.6430   34.5170   38.2060 H   0  0  0  0  0  0  0  0  0  0  0  0
   39.0200   33.1900   40.2120 O   0  0  0  0  0  0  0  0  0  0  0  0
   40.6890   31.1650   39.1890 F   0  0  0  0  0  0  0  0  0  0  0  0
   41.0090   32.4460   39.1040 C   0  0  0  0  0  0  0  0  0  0  0  0
   42.1970   32.8040   38.4950 C   0  0  0  0  0  0  0  0  0  0  0  0
   42.6170   34.1310   38.3570 C   0  0  0  0  0  0  0  0  0  0  0  0
   41.8060   35.1530   38.8550 C   0  0  0  0  0  0  0  0  0  0  0  0
   40.6300   34.7610   39.4540 C   0  0  0  0  0  0  0  0  0  0  0  0
   40.2100   33.4750   39.5950 C   0  0  0  0  0  0  0  0  0  0  0  0
   43.5710   34.3310   37.8630 H   0  0  0  0  0  0  0  0  0  0  0  0
   42.1700   36.1600   38.7260 H   0  0  0  0  0  0  0  0  0  0  0  0
   40.0950   35.6420   39.7860 H   0  0  0  0  0  0  0  0  0  0  0  0
   43.6440   30.3280   36.2050 C   0  0  0  0  0  0  0  0  0  0  0  0
   44.7390   29.8490   36.9470 C   0  0  0  0  0  0  0  0  0  0  0  0
   44.9820   30.3820   38.2470 C   0  0  0  0  0  0  0  0  0  0  0  0
   44.1110   31.3420   38.6860 N   0  0  0  0  0  0  0  0  0  0  0  0
   43.0840   31.7690   37.9500 C   0  0  0  0  0  0  0  0  0  0  0  0
   42.8560   31.2670   36.7250 N   0  0  0  0  0  0  0  0  0  0  0  0
   45.4050   29.1010   36.5880 H   0  0  0  0  0  0  0  0  0  0  0  0
   45.8140   30.0340   38.8410 H   0  0  0  0  0  0  0  0  0  0  0  0
   43.4190   29.7860   34.9160 N   0  0  0  0  0  0  0  0  0  0  0  0
   42.6340   29.1890   34.5460 H   0  0  0  0  0  0  0  0  0  0  0  0
   44.0550   29.9190   34.0950 H   0  0  0  0  0  0  0  0  0  0  0  0
   36.4250   32.1240   40.4430 O   0  0  0  0  0  0  0  0  0  0  0  0
   36.6750   30.7930   40.7520 C   0  0  0  0  0  0  0  0  0  0  0  0
   35.6650   29.8820   40.5170 C   0  0  0  0  0  0  0  0  0  0  0  0
   34.7170   30.2110   40.1050 H   0  0  0  0  0  0  0  0  0  0  0  0
   35.8930   28.5510   40.8180 C   0  0  0  0  0  0  0  0  0  0  0  0
   35.0410   27.8850   40.6030 H   0  0  0  0  0  0  0  0  0  0  0  0
   37.0730   28.0610   41.3430 C   0  0  0  0  0  0  0  0  0  0  0  0
   38.0390   28.9820   41.5600 C   0  0  0  0  0  0  0  0  0  0  0  0
   37.8510   30.2860   41.2790 C   0  0  0  0  0  0  0  0  0  0  0  0
   38.6480   31.0250   41.4610 H   0  0  0  0  0  0  0  0  0  0  0  0
   39.5940   28.4340   42.2370 S   0  0  0  0  0  0  0  0  0  0  0  0
   39.4260   26.6720   42.4570 C   0  0  0  0  0  0  0  0  0  0  0  0
   40.5120   26.0110   42.9750 C   0  0  0  0  0  0  0  0  0  0  0  0
   41.4270   26.5330   43.2370 H   0  0  0  0  0  0  0  0  0  0  0  0
   40.4750   24.6530   43.1800 C   0  0  0  0  0  0  0  0  0  0  0  0
   41.3130   24.1270   43.5820 H   0  0  0  0  0  0  0  0  0  0  0  0
   39.3200   23.9910   42.8500 C   0  0  0  0  0  0  0  0  0  0  0  0
   39.2960   22.9240   43.0120 H   0  0  0  0  0  0  0  0  0  0  0  0
   38.2700   24.7010   42.3370 C   0  0  0  0  0  0  0  0  0  0  0  0
   37.3980   24.0820   42.1070 H   0  0  0  0  0  0  0  0  0  0  0  0
   38.2490   26.0620   42.1100 C   0  0  0  0  0  0  0  0  0  0  0  0
   37.1220   26.6880   41.5830 N   0  0  0  0  0  0  0  0  0  0  0  0
   36.3090   26.0680   41.3750 H   0  0  0  0  0  0  0  0  0  0  0  0
  2  1  2  6  0  0  0
  2  5  1  0  0  0  0
  2 27  1  0  0  0  0
  3  2  1  0  0  0  0
  4  3  1  0  0  0  0
  7  6  1  0  0  0  0
  7 12  1  0  0  0  0
  8  7  2  0  0  0  0
  9  8  1  0  0  0  0
  9 10  2  0  0  0  0
 10 11  1  0  0  0  0
 11 12  2  0  0  0  0
 11 15  1  0  0  0  0
 12  5  1  0  0  0  0
 13  9  1  0  0  0  0
 14 10  1  0  0  0  0
 16 21  2  0  0  0  0
 16 17  1  0  0  0  0
 17 18  2  0  0  0  0
 18 19  1  0  0  0  0
 18 23  1  0  0  0  0
 20  8  1  0  0  0  0
 20 19  2  0  0  0  0
 21 20  1  0  0  0  0
 22 17  1  0  0  0  0
 24 16  1  0  0  0  0
 25 24  1  0  0  0  0
 26 24  1  0  0  0  0
 27 28  1  0  0  0  0
 28 35  1  0  0  0  0
 29 28  2  0  0  0  0
 29 31  1  0  0  0  0
 30 29  1  0  0  0  0
 31 33  2  0  0  0  0
 32 31  1  0  0  0  0
 33 34  1  0  0  0  0
 33 48  1  0  0  0  0
 34 37  1  0  0  0  0
 35 36  1  0  0  0  0
 35 34  2  0  0  0  0
 37 38  1  0  0  0  0
 38 39  1  0  0  0  0
 39 41  2  0  0  0  0
 39 40  1  0  0  0  0
 41 42  1  0  0  0  0
 43 44  1  0  0  0  0
 43 41  1  0  0  0  0
 45 43  2  0  0  0  0
 46 45  1  0  0  0  0
 47 45  1  0  0  0  0
 47 38  2  0  0  0  0
 48 47  1  0  0  0  0
 49 48  1  0  0  0  0
M  END
>  <minimizedAffinity>
-7.00268078

$$$$
