
 OpenBabel03252506363D

 46 50  0  0  1  0  0  0  0  0999 V2000
   37.7210   27.4080   43.2270 C   0  0  0  0  0  0  0  0  0  0  0  0
   39.0370   27.0970   42.8570 C   0  0  0  0  0  0  0  0  0  0  0  0
   39.4630   27.3790   41.5850 C   0  0  0  0  0  0  0  0  0  0  0  0
   38.5460   27.9540   40.7570 N   0  0  0  0  0  0  0  0  0  0  0  0
   37.2970   28.2440   41.1200 C   0  0  0  0  0  0  0  0  0  0  0  0
   36.8520   27.9790   42.3610 N   0  0  0  0  0  0  0  0  0  0  0  0
   36.4450   28.8430   40.1550 N   0  0  0  0  0  0  0  0  0  0  0  0
   35.1600   29.4700   40.4750 C   0  0  0  0  0  0  0  0  0  0  0  0
   34.3260   29.0770   39.2760 C   0  0  0  0  0  0  0  0  0  0  0  0
   35.2670   28.4940   38.2530 C   0  0  0  0  0  0  0  0  0  0  0  0
   36.6160   28.9730   38.7340 C   0  0  1  0  0  0  0  0  0  0  0  0
   37.3890   27.1840   44.2330 H   0  0  0  0  0  0  0  0  0  0  0  0
   40.4630   27.1420   41.3090 H   0  0  0  0  0  0  0  0  0  0  0  0
   34.7020   28.9450   41.3420 H   0  0  0  0  0  0  0  0  0  0  0  0
   35.2290   30.5440   40.6520 H   0  0  0  0  0  0  0  0  0  0  0  0
   33.9480   30.0330   38.8250 H   0  0  0  0  0  0  0  0  0  0  0  0
   33.4650   28.4380   39.5170 H   0  0  0  0  0  0  0  0  0  0  0  0
   35.0270   28.8600   37.2290 H   0  0  0  0  0  0  0  0  0  0  0  0
   35.1920   27.3880   38.3380 H   0  0  0  0  0  0  0  0  0  0  0  0
   37.4110   28.3070   38.3390 H   0  0  0  0  0  0  0  0  0  0  0  0
   39.8560   26.4940   43.8670 N   0  0  0  0  0  0  0  0  0  0  0  0
   40.8550   26.7440   43.9200 H   0  0  0  0  0  0  0  0  0  0  0  0
   39.4680   25.8140   44.5420 H   0  0  0  0  0  0  0  0  0  0  0  0
   36.8410   30.6740   38.1940 S   0  0  0  0  0  0  0  0  0  0  0  0
   38.1570   31.5120   39.0210 C   0  0  0  0  0  0  0  0  0  0  0  0
   37.8600   32.2370   40.1560 C   0  0  0  0  0  0  0  0  0  0  0  0
   36.8290   32.2960   40.5380 H   0  0  0  0  0  0  0  0  0  0  0  0
   38.8590   32.9220   40.8550 C   0  0  0  0  0  0  0  0  0  0  0  0
   38.5490   33.4670   41.7350 H   0  0  0  0  0  0  0  0  0  0  0  0
   40.1770   32.9110   40.4590 C   0  0  0  0  0  0  0  0  0  0  0  0
   40.4110   32.1740   39.3260 C   0  0  0  0  0  0  0  0  0  0  0  0
   39.4900   31.4940   38.6090 C   0  0  0  0  0  0  0  0  0  0  0  0
   39.7190   30.9300   37.7280 H   0  0  0  0  0  0  0  0  0  0  0  0
   42.0850   32.0930   38.7220 S   0  0  0  0  0  0  0  0  0  0  0  0
   43.0840   33.0580   39.8340 C   0  0  0  0  0  0  0  0  0  0  0  0
   44.4300   33.1730   39.6190 C   0  0  0  0  0  0  0  0  0  0  0  0
   44.8880   32.6700   38.7590 H   0  0  0  0  0  0  0  0  0  0  0  0
   45.2570   33.9090   40.4490 C   0  0  0  0  0  0  0  0  0  0  0  0
   46.3190   34.0020   40.2810 H   0  0  0  0  0  0  0  0  0  0  0  0
   44.6670   34.5360   41.5250 C   0  0  0  0  0  0  0  0  0  0  0  0
   45.2870   35.1180   42.1910 H   0  0  0  0  0  0  0  0  0  0  0  0
   43.3080   34.3940   41.7060 C   0  0  0  0  0  0  0  0  0  0  0  0
   42.9290   34.9280   42.5870 H   0  0  0  0  0  0  0  0  0  0  0  0
   42.4640   33.6680   40.8950 C   0  0  0  0  0  0  0  0  0  0  0  0
   41.1000   33.6340   41.2400 N   0  0  0  0  0  0  0  0  0  0  0  0
   40.7690   34.1470   42.0750 H   0  0  0  0  0  0  0  0  0  0  0  0
  1 12  1  0  0  0  0
  2  1  1  0  0  0  0
  2 21  1  0  0  0  0
  3  2  2  0  0  0  0
  4  5  2  0  0  0  0
  4  3  1  0  0  0  0
  5  6  1  0  0  0  0
  6  1  2  0  0  0  0
  7  8  1  0  0  0  0
  7  5  1  0  0  0  0
  8 15  1  0  0  0  0
  8 14  1  0  0  0  0
  9 17  1  0  0  0  0
  9  8  1  0  0  0  0
 10 19  1  0  0  0  0
 10 11  1  0  0  0  0
 10  9  1  0  0  0  0
 11 20  1  6  0  0  0
 11  7  1  0  0  0  0
 13  3  1  0  0  0  0
 16  9  1  0  0  0  0
 18 10  1  0  0  0  0
 21 22  1  0  0  0  0
 21 23  1  0  0  0  0
 24 11  1  0  0  0  0
 24 25  1  0  0  0  0
 25 26  1  0  0  0  0
 26 27  1  0  0  0  0
 26 28  2  0  0  0  0
 28 29  1  0  0  0  0
 30 28  1  0  0  0  0
 30 45  1  0  0  0  0
 31 30  2  0  0  0  0
 32 25  2  0  0  0  0
 32 31  1  0  0  0  0
 33 32  1  0  0  0  0
 34 31  1  0  0  0  0
 34 35  1  0  0  0  0
 35 44  1  0  0  0  0
 36 35  2  0  0  0  0
 36 38  1  0  0  0  0
 37 36  1  0  0  0  0
 38 40  2  0  0  0  0
 39 38  1  0  0  0  0
 40 42  1  0  0  0  0
 40 41  1  0  0  0  0
 42 43  1  0  0  0  0
 44 45  1  0  0  0  0
 44 42  2  0  0  0  0
 45 46  1  0  0  0  0
M  END
>  <minimizedAffinity>
-6.36122942

$$$$

 OpenBabel03252506363D

 46 50  0  0  1  0  0  0  0  0999 V2000
   29.3660   31.7360   37.0890 C   0  0  0  0  0  0  0  0  0  0  0  0
   29.3780   31.3830   38.4460 C   0  0  0  0  0  0  0  0  0  0  0  0
   30.0090   30.2310   38.8360 C   0  0  0  0  0  0  0  0  0  0  0  0
   30.5900   29.4980   37.8450 N   0  0  0  0  0  0  0  0  0  0  0  0
   30.5710   29.8430   36.5580 C   0  0  0  0  0  0  0  0  0  0  0  0
   29.9600   30.9680   36.1460 N   0  0  0  0  0  0  0  0  0  0  0  0
   31.2170   28.9850   35.6290 N   0  0  0  0  0  0  0  0  0  0  0  0
   31.5240   29.3610   34.2460 C   0  0  0  0  0  0  0  0  0  0  0  0
   31.2750   28.0580   33.5180 C   0  0  0  0  0  0  0  0  0  0  0  0
   31.1100   26.9880   34.5670 C   0  0  0  0  0  0  0  0  0  0  0  0
   31.6930   27.6400   35.7990 C   0  0  1  0  0  0  0  0  0  0  0  0
   28.8670   32.6480   36.7850 H   0  0  0  0  0  0  0  0  0  0  0  0
   30.0160   29.9670   39.8670 H   0  0  0  0  0  0  0  0  0  0  0  0
   30.7470   30.0640   33.8760 H   0  0  0  0  0  0  0  0  0  0  0  0
   32.5260   29.7720   34.1170 H   0  0  0  0  0  0  0  0  0  0  0  0
   32.2290   27.8070   32.9820 H   0  0  0  0  0  0  0  0  0  0  0  0
   30.4610   28.1040   32.7830 H   0  0  0  0  0  0  0  0  0  0  0  0
   31.6510   26.0580   34.2820 H   0  0  0  0  0  0  0  0  0  0  0  0
   30.0170   26.8240   34.6910 H   0  0  0  0  0  0  0  0  0  0  0  0
   31.2800   27.1550   36.7070 H   0  0  0  0  0  0  0  0  0  0  0  0
   28.7120   32.2820   39.3430 N   0  0  0  0  0  0  0  0  0  0  0  0
   29.1110   32.4460   40.2790 H   0  0  0  0  0  0  0  0  0  0  0  0
   27.8400   32.7680   39.0720 H   0  0  0  0  0  0  0  0  0  0  0  0
   33.4840   27.5000   35.7220 S   0  0  0  0  0  0  0  0  0  0  0  0
   34.2830   27.7650   37.2740 C   0  0  0  0  0  0  0  0  0  0  0  0
   33.9150   28.8660   38.0200 C   0  0  0  0  0  0  0  0  0  0  0  0
   33.1450   29.5650   37.6570 H   0  0  0  0  0  0  0  0  0  0  0  0
   34.5100   29.1290   39.2570 C   0  0  0  0  0  0  0  0  0  0  0  0
   34.1690   30.0090   39.7830 H   0  0  0  0  0  0  0  0  0  0  0  0
   35.4820   28.3170   39.7970 C   0  0  0  0  0  0  0  0  0  0  0  0
   35.8050   27.2400   39.0120 C   0  0  0  0  0  0  0  0  0  0  0  0
   35.2670   26.9340   37.8100 C   0  0  0  0  0  0  0  0  0  0  0  0
   35.5510   26.0790   37.2310 H   0  0  0  0  0  0  0  0  0  0  0  0
   37.0540   26.1210   39.6130 S   0  0  0  0  0  0  0  0  0  0  0  0
   37.5880   26.7420   41.1930 C   0  0  0  0  0  0  0  0  0  0  0  0
   38.5500   26.0750   41.9000 C   0  0  0  0  0  0  0  0  0  0  0  0
   38.9900   25.1600   41.4890 H   0  0  0  0  0  0  0  0  0  0  0  0
   39.0050   26.5110   43.1330 C   0  0  0  0  0  0  0  0  0  0  0  0
   39.7640   25.9870   43.6930 H   0  0  0  0  0  0  0  0  0  0  0  0
   38.4430   27.6640   43.6370 C   0  0  0  0  0  0  0  0  0  0  0  0
   38.7770   28.0280   44.5970 H   0  0  0  0  0  0  0  0  0  0  0  0
   37.4760   28.3040   42.8920 C   0  0  0  0  0  0  0  0  0  0  0  0
   37.0880   29.2120   43.3730 H   0  0  0  0  0  0  0  0  0  0  0  0
   37.0070   27.8930   41.6640 C   0  0  0  0  0  0  0  0  0  0  0  0
   36.0110   28.6760   41.0520 N   0  0  0  0  0  0  0  0  0  0  0  0
   35.6630   29.5270   41.5260 H   0  0  0  0  0  0  0  0  0  0  0  0
  1  2  1  0  0  0  0
  2  3  2  0  0  0  0
  2 21  1  0  0  0  0
  3 13  1  0  0  0  0
  4  3  1  0  0  0  0
  5  4  2  0  0  0  0
  6  5  1  0  0  0  0
  6  1  2  0  0  0  0
  7 11  1  0  0  0  0
  7  5  1  0  0  0  0
  8  7  1  0  0  0  0
  9  8  1  0  0  0  0
  9 10  1  0  0  0  0
 10 19  1  0  0  0  0
 10 11  1  0  0  0  0
 11 20  1  1  0  0  0
 12  1  1  0  0  0  0
 14  8  1  0  0  0  0
 15  8  1  0  0  0  0
 16  9  1  0  0  0  0
 17  9  1  0  0  0  0
 18 10  1  0  0  0  0
 21 22  1  0  0  0  0
 23 21  1  0  0  0  0
 24 11  1  0  0  0  0
 24 25  1  0  0  0  0
 25 32  2  0  0  0  0
 25 26  1  0  0  0  0
 26 28  2  0  0  0  0
 27 26  1  0  0  0  0
 28 29  1  0  0  0  0
 28 30  1  0  0  0  0
 30 45  1  0  0  0  0
 31 34  1  0  0  0  0
 31 30  2  0  0  0  0
 32 31  1  0  0  0  0
 33 32  1  0  0  0  0
 34 35  1  0  0  0  0
 35 44  2  0  0  0  0
 35 36  1  0  0  0  0
 36 38  2  0  0  0  0
 37 36  1  0  0  0  0
 38 40  1  0  0  0  0
 38 39  1  0  0  0  0
 40 41  1  0  0  0  0
 42 43  1  0  0  0  0
 42 40  2  0  0  0  0
 44 42  1  0  0  0  0
 45 46  1  0  0  0  0
 45 44  1  0  0  0  0
M  END
>  <minimizedAffinity>
-6.08640242

$$$$

 OpenBabel03252506363D

 46 50  0  0  1  0  0  0  0  0999 V2000
   43.1730   29.8030   35.6210 C   0  0  0  0  0  0  0  0  0  0  0  0
   43.3830   28.6420   36.3780 C   0  0  0  0  0  0  0  0  0  0  0  0
   43.2230   28.6880   37.7390 C   0  0  0  0  0  0  0  0  0  0  0  0
   42.8630   29.8930   38.2620 N   0  0  0  0  0  0  0  0  0  0  0  0
   42.6670   30.9910   37.5320 C   0  0  0  0  0  0  0  0  0  0  0  0
   42.8170   30.9760   36.1960 N   0  0  0  0  0  0  0  0  0  0  0  0
   42.2950   32.1820   38.2080 N   0  0  0  0  0  0  0  0  0  0  0  0
   41.7760   33.3760   37.5350 C   0  0  0  0  0  0  0  0  0  0  0  0
   42.4090   34.4810   38.3520 C   0  0  0  0  0  0  0  0  0  0  0  0
   43.0120   33.8390   39.5750 C   0  0  0  0  0  0  0  0  0  0  0  0
   42.3310   32.4920   39.6110 C   0  0  1  0  0  0  0  0  0  0  0  0
   43.3000   29.7630   34.5460 H   0  0  0  0  0  0  0  0  0  0  0  0
   43.3830   27.8040   38.3090 H   0  0  0  0  0  0  0  0  0  0  0  0
   42.2310   33.4540   36.5240 H   0  0  0  0  0  0  0  0  0  0  0  0
   40.6870   33.4120   37.4850 H   0  0  0  0  0  0  0  0  0  0  0  0
   41.5660   35.1170   38.7320 H   0  0  0  0  0  0  0  0  0  0  0  0
   43.1010   35.1180   37.7850 H   0  0  0  0  0  0  0  0  0  0  0  0
   42.8100   34.4420   40.4890 H   0  0  0  0  0  0  0  0  0  0  0  0
   44.1000   33.7220   39.3750 H   0  0  0  0  0  0  0  0  0  0  0  0
   42.9510   31.7750   40.1880 H   0  0  0  0  0  0  0  0  0  0  0  0
   43.7580   27.4660   35.6480 N   0  0  0  0  0  0  0  0  0  0  0  0
   43.3960   26.5500   35.9510 H   0  0  0  0  0  0  0  0  0  0  0  0
   44.3840   27.5170   34.8260 H   0  0  0  0  0  0  0  0  0  0  0  0
   40.7000   32.7000   40.3390 S   0  0  0  0  0  0  0  0  0  0  0  0
   39.9550   31.1840   40.8560 C   0  0  0  0  0  0  0  0  0  0  0  0
   39.8040   30.9570   42.2090 C   0  0  0  0  0  0  0  0  0  0  0  0
   40.1400   31.7000   42.9490 H   0  0  0  0  0  0  0  0  0  0  0  0
   39.2220   29.7770   42.6800 C   0  0  0  0  0  0  0  0  0  0  0  0
   39.1360   29.6720   43.7520 H   0  0  0  0  0  0  0  0  0  0  0  0
   38.7700   28.7880   41.8360 C   0  0  0  0  0  0  0  0  0  0  0  0
   38.9470   29.0690   40.5050 C   0  0  0  0  0  0  0  0  0  0  0  0
   39.5020   30.1890   39.9910 C   0  0  0  0  0  0  0  0  0  0  0  0
   39.6190   30.3660   38.9410 H   0  0  0  0  0  0  0  0  0  0  0  0
   38.3990   27.8560   39.3220 S   0  0  0  0  0  0  0  0  0  0  0  0
   37.7140   26.5010   40.2500 C   0  0  0  0  0  0  0  0  0  0  0  0
   37.2040   25.4120   39.5960 C   0  0  0  0  0  0  0  0  0  0  0  0
   37.2230   25.3790   38.5010 H   0  0  0  0  0  0  0  0  0  0  0  0
   36.6590   24.3300   40.2630 C   0  0  0  0  0  0  0  0  0  0  0  0
   36.2570   23.4700   39.7500 H   0  0  0  0  0  0  0  0  0  0  0  0
   36.6440   24.3850   41.6400 C   0  0  0  0  0  0  0  0  0  0  0  0
   36.2240   23.5550   42.1900 H   0  0  0  0  0  0  0  0  0  0  0  0
   37.1660   25.5010   42.2600 C   0  0  0  0  0  0  0  0  0  0  0  0
   37.1110   25.4550   43.3550 H   0  0  0  0  0  0  0  0  0  0  0  0
   37.7150   26.5890   41.6190 C   0  0  0  0  0  0  0  0  0  0  0  0
   38.1980   27.6410   42.4200 N   0  0  0  0  0  0  0  0  0  0  0  0
   38.1340   27.5720   43.4510 H   0  0  0  0  0  0  0  0  0  0  0  0
  1  6  2  0  0  0  0
  1  2  1  0  0  0  0
  2  3  2  0  0  0  0
  3  4  1  0  0  0  0
  3 13  1  0  0  0  0
  5  7  1  0  0  0  0
  5  4  2  0  0  0  0
  6  5  1  0  0  0  0
  7 11  1  0  0  0  0
  8  7  1  0  0  0  0
  8  9  1  0  0  0  0
  9 16  1  0  0  0  0
  9 10  1  0  0  0  0
 10 11  1  0  0  0  0
 10 18  1  0  0  0  0
 11 20  1  1  0  0  0
 11 24  1  0  0  0  0
 12  1  1  0  0  0  0
 14  8  1  0  0  0  0
 15  8  1  0  0  0  0
 17  9  1  0  0  0  0
 19 10  1  0  0  0  0
 21 22  1  0  0  0  0
 21  2  1  0  0  0  0
 23 21  1  0  0  0  0
 24 25  1  0  0  0  0
 25 26  1  0  0  0  0
 26 28  2  0  0  0  0
 26 27  1  0  0  0  0
 28 29  1  0  0  0  0
 30 45  1  0  0  0  0
 30 28  1  0  0  0  0
 31 30  2  0  0  0  0
 32 31  1  0  0  0  0
 32 25  2  0  0  0  0
 33 32  1  0  0  0  0
 34 35  1  0  0  0  0
 34 31  1  0  0  0  0
 35 44  1  0  0  0  0
 36 35  2  0  0  0  0
 36 38  1  0  0  0  0
 37 36  1  0  0  0  0
 38 40  2  0  0  0  0
 39 38  1  0  0  0  0
 40 41  1  0  0  0  0
 40 42  1  0  0  0  0
 42 43  1  0  0  0  0
 44 42  2  0  0  0  0
 44 45  1  0  0  0  0
 45 46  1  0  0  0  0
M  END
>  <minimizedAffinity>
-6.07001972

$$$$

 OpenBabel03252506363D

 46 50  0  0  1  0  0  0  0  0999 V2000
   38.2000   26.5370   36.1680 C   0  0  0  0  0  0  0  0  0  0  0  0
   37.0810   27.3750   36.0740 C   0  0  0  0  0  0  0  0  0  0  0  0
   36.1910   27.4290   37.1160 C   0  0  0  0  0  0  0  0  0  0  0  0
   36.4740   26.6390   38.1900 N   0  0  0  0  0  0  0  0  0  0  0  0
   37.5410   25.8450   38.2670 C   0  0  0  0  0  0  0  0  0  0  0  0
   38.4300   25.7720   37.2610 N   0  0  0  0  0  0  0  0  0  0  0  0
   37.7120   25.0730   39.4470 N   0  0  0  0  0  0  0  0  0  0  0  0
   38.9560   24.3820   39.7970 C   0  0  0  0  0  0  0  0  0  0  0  0
   38.4270   23.1130   40.4290 C   0  0  0  0  0  0  0  0  0  0  0  0
   36.9450   23.3020   40.6300 C   0  0  0  0  0  0  0  0  0  0  0  0
   36.7830   24.7980   40.5080 C   0  0  1  0  0  0  0  0  0  0  0  0
   38.9010   26.4970   35.3440 H   0  0  0  0  0  0  0  0  0  0  0  0
   35.3430   28.0670   37.0410 H   0  0  0  0  0  0  0  0  0  0  0  0
   39.4720   24.0600   38.8670 H   0  0  0  0  0  0  0  0  0  0  0  0
   39.6170   24.9690   40.4360 H   0  0  0  0  0  0  0  0  0  0  0  0
   38.8660   23.0660   41.4610 H   0  0  0  0  0  0  0  0  0  0  0  0
   38.6990   22.1960   39.8900 H   0  0  0  0  0  0  0  0  0  0  0  0
   36.6210   22.9200   41.6240 H   0  0  0  0  0  0  0  0  0  0  0  0
   36.4370   22.7830   39.7880 H   0  0  0  0  0  0  0  0  0  0  0  0
   35.7360   25.0380   40.2280 H   0  0  0  0  0  0  0  0  0  0  0  0
   36.9530   28.1320   34.8640 N   0  0  0  0  0  0  0  0  0  0  0  0
   36.5820   29.0930   34.9090 H   0  0  0  0  0  0  0  0  0  0  0  0
   37.2230   27.7360   33.9480 H   0  0  0  0  0  0  0  0  0  0  0  0
   37.2450   25.5500   42.0750 S   0  0  0  0  0  0  0  0  0  0  0  0
   37.8450   27.2030   41.9180 C   0  0  0  0  0  0  0  0  0  0  0  0
   39.0460   27.5230   42.5190 C   0  0  0  0  0  0  0  0  0  0  0  0
   39.6160   26.7690   43.0830 H   0  0  0  0  0  0  0  0  0  0  0  0
   39.5730   28.8150   42.4300 C   0  0  0  0  0  0  0  0  0  0  0  0
   40.5180   28.9880   42.9240 H   0  0  0  0  0  0  0  0  0  0  0  0
   38.9370   29.8270   41.7470 C   0  0  0  0  0  0  0  0  0  0  0  0
   37.7510   29.4500   41.1720 C   0  0  0  0  0  0  0  0  0  0  0  0
   37.1910   28.2210   41.2240 C   0  0  0  0  0  0  0  0  0  0  0  0
   36.2590   27.9720   40.7580 H   0  0  0  0  0  0  0  0  0  0  0  0
   36.8410   30.6830   40.2650 S   0  0  0  0  0  0  0  0  0  0  0  0
   37.7860   32.1890   40.3480 C   0  0  0  0  0  0  0  0  0  0  0  0
   37.3280   33.3190   39.7280 C   0  0  0  0  0  0  0  0  0  0  0  0
   36.3770   33.2920   39.1840 H   0  0  0  0  0  0  0  0  0  0  0  0
   38.0190   34.5180   39.7590 C   0  0  0  0  0  0  0  0  0  0  0  0
   37.6590   35.4110   39.2710 H   0  0  0  0  0  0  0  0  0  0  0  0
   39.2120   34.5360   40.4480 C   0  0  0  0  0  0  0  0  0  0  0  0
   39.7740   35.4570   40.4890 H   0  0  0  0  0  0  0  0  0  0  0  0
   39.6380   33.3750   41.0570 C   0  0  0  0  0  0  0  0  0  0  0  0
   40.5960   33.4860   41.5820 H   0  0  0  0  0  0  0  0  0  0  0  0
   38.9690   32.1710   41.0430 C   0  0  0  0  0  0  0  0  0  0  0  0
   39.5610   31.0890   41.7210 N   0  0  0  0  0  0  0  0  0  0  0  0
   40.4650   31.2210   42.2070 H   0  0  0  0  0  0  0  0  0  0  0  0
  1  6  1  0  0  0  0
  2  1  2  0  0  0  0
  2  3  1  0  0  0  0
  3  4  2  0  0  0  0
  4  5  1  0  0  0  0
  5  7  1  0  0  0  0
  6  5  2  0  0  0  0
  7  8  1  0  0  0  0
  7 11  1  0  0  0  0
  8  9  1  0  0  0  0
  8 15  1  0  0  0  0
  9 10  1  0  0  0  0
  9 16  1  0  0  0  0
 10 18  1  0  0  0  0
 11 20  1  6  0  0  0
 11 10  1  0  0  0  0
 11 24  1  0  0  0  0
 12  1  1  0  0  0  0
 13  3  1  0  0  0  0
 14  8  1  0  0  0  0
 17  9  1  0  0  0  0
 19 10  1  0  0  0  0
 21 22  1  0  0  0  0
 21  2  1  0  0  0  0
 23 21  1  0  0  0  0
 25 24  1  0  0  0  0
 25 26  1  0  0  0  0
 26 27  1  0  0  0  0
 28 26  2  0  0  0  0
 28 29  1  0  0  0  0
 30 28  1  0  0  0  0
 31 32  1  0  0  0  0
 31 30  2  0  0  0  0
 32 25  2  0  0  0  0
 33 32  1  0  0  0  0
 34 35  1  0  0  0  0
 34 31  1  0  0  0  0
 35 44  1  0  0  0  0
 36 38  1  0  0  0  0
 36 35  2  0  0  0  0
 37 36  1  0  0  0  0
 38 40  2  0  0  0  0
 39 38  1  0  0  0  0
 40 41  1  0  0  0  0
 40 42  1  0  0  0  0
 42 43  1  0  0  0  0
 44 42  2  0  0  0  0
 44 45  1  0  0  0  0
 45 30  1  0  0  0  0
 45 46  1  0  0  0  0
M  END
>  <minimizedAffinity>
-6.04827309

$$$$

 OpenBabel03252506363D

 46 50  0  0  1  0  0  0  0  0999 V2000
   29.4830   30.2120   31.4230 C   0  0  0  0  0  0  0  0  0  0  0  0
   29.5500   31.5300   31.8950 C   0  0  0  0  0  0  0  0  0  0  0  0
   30.2160   31.7930   33.0650 C   0  0  0  0  0  0  0  0  0  0  0  0
   30.7740   30.7210   33.6930 N   0  0  0  0  0  0  0  0  0  0  0  0
   30.7020   29.4710   33.2350 C   0  0  0  0  0  0  0  0  0  0  0  0
   30.0570   29.1840   32.0920 N   0  0  0  0  0  0  0  0  0  0  0  0
   31.3300   28.4480   33.9930 N   0  0  0  0  0  0  0  0  0  0  0  0
   31.5810   27.0950   33.4890 C   0  0  0  0  0  0  0  0  0  0  0  0
   31.3300   26.2620   34.7270 C   0  0  0  0  0  0  0  0  0  0  0  0
   31.2220   27.2150   35.8890 C   0  0  0  0  0  0  0  0  0  0  0  0
   31.8360   28.4800   35.3380 C   0  0  1  0  0  0  0  0  0  0  0  0
   28.9570   30.0080   30.4990 H   0  0  0  0  0  0  0  0  0  0  0  0
   30.2640   32.7950   33.4190 H   0  0  0  0  0  0  0  0  0  0  0  0
   30.7780   26.8160   32.7730 H   0  0  0  0  0  0  0  0  0  0  0  0
   32.5700   26.9690   33.0470 H   0  0  0  0  0  0  0  0  0  0  0  0
   32.2680   25.6720   34.9080 H   0  0  0  0  0  0  0  0  0  0  0  0
   30.4890   25.5610   34.6330 H   0  0  0  0  0  0  0  0  0  0  0  0
   31.7690   26.8300   36.7790 H   0  0  0  0  0  0  0  0  0  0  0  0
   30.1370   27.3610   36.0870 H   0  0  0  0  0  0  0  0  0  0  0  0
   31.4650   29.3550   35.9110 H   0  0  0  0  0  0  0  0  0  0  0  0
   28.9000   32.5260   31.0950 N   0  0  0  0  0  0  0  0  0  0  0  0
   29.3300   33.4590   31.0070 H   0  0  0  0  0  0  0  0  0  0  0  0
   28.0110   32.3300   30.6050 H   0  0  0  0  0  0  0  0  0  0  0  0
   33.6250   28.3300   35.4320 S   0  0  0  0  0  0  0  0  0  0  0  0
   34.2550   28.3770   37.0810 C   0  0  0  0  0  0  0  0  0  0  0  0
   33.5970   29.1560   38.0100 C   0  0  0  0  0  0  0  0  0  0  0  0
   32.7040   29.7370   37.7330 H   0  0  0  0  0  0  0  0  0  0  0  0
   34.0470   29.2340   39.3320 C   0  0  0  0  0  0  0  0  0  0  0  0
   33.4790   29.8640   40.0010 H   0  0  0  0  0  0  0  0  0  0  0  0
   35.1540   28.5470   39.7770 C   0  0  0  0  0  0  0  0  0  0  0  0
   35.7640   27.7900   38.8110 C   0  0  0  0  0  0  0  0  0  0  0  0
   35.3780   27.6760   37.5200 C   0  0  0  0  0  0  0  0  0  0  0  0
   35.8880   27.0710   36.7980 H   0  0  0  0  0  0  0  0  0  0  0  0
   37.2090   26.8600   39.2770 S   0  0  0  0  0  0  0  0  0  0  0  0
   37.4960   27.1800   41.0040 C   0  0  0  0  0  0  0  0  0  0  0  0
   38.5510   26.5870   41.6430 C   0  0  0  0  0  0  0  0  0  0  0  0
   39.2160   25.9180   41.0870 H   0  0  0  0  0  0  0  0  0  0  0  0
   38.8230   26.7980   42.9830 C   0  0  0  0  0  0  0  0  0  0  0  0
   39.6540   26.3330   43.4900 H   0  0  0  0  0  0  0  0  0  0  0  0
   37.9770   27.6430   43.6690 C   0  0  0  0  0  0  0  0  0  0  0  0
   38.1640   27.8270   44.7170 H   0  0  0  0  0  0  0  0  0  0  0  0
   36.9260   28.2180   42.9870 C   0  0  0  0  0  0  0  0  0  0  0  0
   36.3090   28.8750   43.6150 H   0  0  0  0  0  0  0  0  0  0  0  0
   36.6340   28.0260   41.6550 C   0  0  0  0  0  0  0  0  0  0  0  0
   35.5150   28.6970   41.1300 N   0  0  0  0  0  0  0  0  0  0  0  0
   34.9500   29.3110   41.7430 H   0  0  0  0  0  0  0  0  0  0  0  0
  1  2  2  0  0  0  0
  1  6  1  0  0  0  0
  2  3  1  0  0  0  0
  3 13  1  0  0  0  0
  3  4  2  0  0  0  0
  5  4  1  0  0  0  0
  5  7  1  0  0  0  0
  6  5  2  0  0  0  0
  7 11  1  0  0  0  0
  8  7  1  0  0  0  0
  8  9  1  0  0  0  0
  9 16  1  0  0  0  0
  9 10  1  0  0  0  0
 10 19  1  0  0  0  0
 10 18  1  0  0  0  0
 11 24  1  0  0  0  0
 11 10  1  0  0  0  0
 11 20  1  1  0  0  0
 12  1  1  0  0  0  0
 14  8  1  0  0  0  0
 15  8  1  0  0  0  0
 17  9  1  0  0  0  0
 21  2  1  0  0  0  0
 22 21  1  0  0  0  0
 23 21  1  0  0  0  0
 24 25  1  0  0  0  0
 25 32  2  0  0  0  0
 25 26  1  0  0  0  0
 26 28  2  0  0  0  0
 27 26  1  0  0  0  0
 28 30  1  0  0  0  0
 28 29  1  0  0  0  0
 30 45  1  0  0  0  0
 31 34  1  0  0  0  0
 31 30  2  0  0  0  0
 32 31  1  0  0  0  0
 33 32  1  0  0  0  0
 34 35  1  0  0  0  0
 35 36  2  0  0  0  0
 35 44  1  0  0  0  0
 36 38  1  0  0  0  0
 37 36  1  0  0  0  0
 38 39  1  0  0  0  0
 38 40  2  0  0  0  0
 40 41  1  0  0  0  0
 42 43  1  0  0  0  0
 42 40  1  0  0  0  0
 44 42  2  0  0  0  0
 45 44  1  0  0  0  0
 45 46  1  0  0  0  0
M  END
>  <minimizedAffinity>
-5.97040033

$$$$

 OpenBabel03252506363D

 46 50  0  0  1  0  0  0  0  0999 V2000
   36.6480   31.5330   39.4650 C   0  0  0  0  0  0  0  0  0  0  0  0
   37.4790   32.6130   39.7940 C   0  0  0  0  0  0  0  0  0  0  0  0
   38.3830   32.4780   40.8160 C   0  0  0  0  0  0  0  0  0  0  0  0
   38.4020   31.2720   41.4480 N   0  0  0  0  0  0  0  0  0  0  0  0
   37.6060   30.2530   41.1260 C   0  0  0  0  0  0  0  0  0  0  0  0
   36.7100   30.3560   40.1290 N   0  0  0  0  0  0  0  0  0  0  0  0
   37.7310   29.0500   41.8700 N   0  0  0  0  0  0  0  0  0  0  0  0
   37.1410   27.7720   41.4630 C   0  0  0  0  0  0  0  0  0  0  0  0
   36.7210   27.1960   42.7970 C   0  0  0  0  0  0  0  0  0  0  0  0
   37.3410   28.0570   43.8670 C   0  0  0  0  0  0  0  0  0  0  0  0
   38.4140   28.8040   43.1110 C   0  0  1  0  0  0  0  0  0  0  0  0
   35.9350   31.6430   38.6570 H   0  0  0  0  0  0  0  0  0  0  0  0
   39.0120   33.3010   41.0620 H   0  0  0  0  0  0  0  0  0  0  0  0
   36.1960   27.9640   40.9100 H   0  0  0  0  0  0  0  0  0  0  0  0
   37.8190   27.1410   40.8860 H   0  0  0  0  0  0  0  0  0  0  0  0
   37.2270   26.1980   42.8850 H   0  0  0  0  0  0  0  0  0  0  0  0
   35.6370   27.0500   42.9020 H   0  0  0  0  0  0  0  0  0  0  0  0
   37.7570   27.4380   44.6930 H   0  0  0  0  0  0  0  0  0  0  0  0
   36.5500   28.7570   44.2170 H   0  0  0  0  0  0  0  0  0  0  0  0
   38.6670   29.7410   43.6490 H   0  0  0  0  0  0  0  0  0  0  0  0
   37.3130   33.8040   39.0140 N   0  0  0  0  0  0  0  0  0  0  0  0
   38.1430   34.3660   38.7730 H   0  0  0  0  0  0  0  0  0  0  0  0
   36.3810   34.1120   38.6900 H   0  0  0  0  0  0  0  0  0  0  0  0
   39.8430   27.7260   42.9390 S   0  0  0  0  0  0  0  0  0  0  0  0
   41.0560   28.3320   41.8080 C   0  0  0  0  0  0  0  0  0  0  0  0
   42.2690   28.7540   42.3140 C   0  0  0  0  0  0  0  0  0  0  0  0
   42.4760   28.7160   43.3950 H   0  0  0  0  0  0  0  0  0  0  0  0
   43.2700   29.2430   41.4690 C   0  0  0  0  0  0  0  0  0  0  0  0
   44.1920   29.5520   41.9390 H   0  0  0  0  0  0  0  0  0  0  0  0
   43.1080   29.3310   40.1050 C   0  0  0  0  0  0  0  0  0  0  0  0
   41.8850   28.8980   39.6620 C   0  0  0  0  0  0  0  0  0  0  0  0
   40.8800   28.4170   40.4270 C   0  0  0  0  0  0  0  0  0  0  0  0
   39.9380   28.0890   40.0360 H   0  0  0  0  0  0  0  0  0  0  0  0
   41.5660   28.9680   37.9110 S   0  0  0  0  0  0  0  0  0  0  0  0
   43.0300   29.6270   37.1440 C   0  0  0  0  0  0  0  0  0  0  0  0
   43.0760   29.7920   35.7870 C   0  0  0  0  0  0  0  0  0  0  0  0
   42.2090   29.5180   35.1770 H   0  0  0  0  0  0  0  0  0  0  0  0
   44.1870   30.2990   35.1350 C   0  0  0  0  0  0  0  0  0  0  0  0
   44.2260   30.4300   34.0650 H   0  0  0  0  0  0  0  0  0  0  0  0
   45.2710   30.6400   35.9160 C   0  0  0  0  0  0  0  0  0  0  0  0
   46.1530   31.0380   35.4360 H   0  0  0  0  0  0  0  0  0  0  0  0
   45.1830   30.4570   37.2800 C   0  0  0  0  0  0  0  0  0  0  0  0
   46.0920   30.7560   37.8180 H   0  0  0  0  0  0  0  0  0  0  0  0
   44.0900   29.9560   37.9520 C   0  0  0  0  0  0  0  0  0  0  0  0
   44.1840   29.8370   39.3510 N   0  0  0  0  0  0  0  0  0  0  0  0
   45.0530   30.1270   39.8340 H   0  0  0  0  0  0  0  0  0  0  0  0
  1  2  2  0  0  0  0
  1  6  1  0  0  0  0
  2  3  1  0  0  0  0
  3 13  1  0  0  0  0
  3  4  2  0  0  0  0
  5  4  1  0  0  0  0
  5  7  1  0  0  0  0
  6  5  2  0  0  0  0
  7 11  1  0  0  0  0
  8  7  1  0  0  0  0
  8  9  1  0  0  0  0
  9 16  1  0  0  0  0
  9 17  1  0  0  0  0
  9 10  1  0  0  0  0
 10 19  1  0  0  0  0
 10 18  1  0  0  0  0
 11 20  1  1  0  0  0
 11 10  1  0  0  0  0
 12  1  1  0  0  0  0
 14  8  1  0  0  0  0
 15  8  1  0  0  0  0
 21  2  1  0  0  0  0
 22 21  1  0  0  0  0
 23 21  1  0  0  0  0
 24 11  1  0  0  0  0
 25 26  1  0  0  0  0
 25 24  1  0  0  0  0
 26 27  1  0  0  0  0
 28 29  1  0  0  0  0
 28 26  2  0  0  0  0
 30 28  1  0  0  0  0
 31 30  2  0  0  0  0
 31 32  1  0  0  0  0
 32 25  2  0  0  0  0
 33 32  1  0  0  0  0
 34 31  1  0  0  0  0
 35 34  1  0  0  0  0
 35 44  1  0  0  0  0
 36 35  2  0  0  0  0
 37 36  1  0  0  0  0
 38 36  1  0  0  0  0
 38 40  2  0  0  0  0
 39 38  1  0  0  0  0
 40 42  1  0  0  0  0
 41 40  1  0  0  0  0
 42 43  1  0  0  0  0
 42 44  2  0  0  0  0
 44 45  1  0  0  0  0
 45 46  1  0  0  0  0
 45 30  1  0  0  0  0
M  END
>  <minimizedAffinity>
-5.95237303

$$$$

 OpenBabel03252506363D

 46 50  0  0  1  0  0  0  0  0999 V2000
   39.0300   34.5360   40.5000 C   0  0  0  0  0  0  0  0  0  0  0  0
   38.3450   33.5240   39.8140 C   0  0  0  0  0  0  0  0  0  0  0  0
   39.0240   32.3990   39.4220 C   0  0  0  0  0  0  0  0  0  0  0  0
   40.3490   32.3550   39.7390 N   0  0  0  0  0  0  0  0  0  0  0  0
   40.9890   33.3240   40.3910 C   0  0  0  0  0  0  0  0  0  0  0  0
   40.3490   34.4380   40.7880 N   0  0  0  0  0  0  0  0  0  0  0  0
   42.3730   33.1470   40.6550 N   0  0  0  0  0  0  0  0  0  0  0  0
   43.1390   33.9750   41.5910 C   0  0  0  0  0  0  0  0  0  0  0  0
   44.4690   34.0830   40.8780 C   0  0  0  0  0  0  0  0  0  0  0  0
   44.4430   33.0970   39.7390 C   0  0  0  0  0  0  0  0  0  0  0  0
   43.2960   32.1880   40.1130 C   0  0  1  0  0  0  0  0  0  0  0  0
   38.4910   35.4230   40.8090 H   0  0  0  0  0  0  0  0  0  0  0  0
   38.5000   31.6330   38.9020 H   0  0  0  0  0  0  0  0  0  0  0  0
   42.7190   35.0040   41.5980 H   0  0  0  0  0  0  0  0  0  0  0  0
   43.1930   33.5600   42.5990 H   0  0  0  0  0  0  0  0  0  0  0  0
   45.2440   33.6950   41.5920 H   0  0  0  0  0  0  0  0  0  0  0  0
   44.7410   35.1070   40.5880 H   0  0  0  0  0  0  0  0  0  0  0  0
   45.4090   32.5500   39.6560 H   0  0  0  0  0  0  0  0  0  0  0  0
   44.2000   33.6730   38.8190 H   0  0  0  0  0  0  0  0  0  0  0  0
   42.9040   31.6880   39.2030 H   0  0  0  0  0  0  0  0  0  0  0  0
   36.9510   33.7500   39.5720 N   0  0  0  0  0  0  0  0  0  0  0  0
   36.2960   32.9560   39.6240 H   0  0  0  0  0  0  0  0  0  0  0  0
   36.5880   34.6920   39.3450 H   0  0  0  0  0  0  0  0  0  0  0  0
   43.8860   31.0000   41.3270 S   0  0  0  0  0  0  0  0  0  0  0  0
   42.9290   29.5170   41.3910 C   0  0  0  0  0  0  0  0  0  0  0  0
   43.5660   28.3170   41.1480 C   0  0  0  0  0  0  0  0  0  0  0  0
   44.6420   28.2820   40.9190 H   0  0  0  0  0  0  0  0  0  0  0  0
   42.8620   27.1090   41.1850 C   0  0  0  0  0  0  0  0  0  0  0  0
   43.4300   26.2110   40.9860 H   0  0  0  0  0  0  0  0  0  0  0  0
   41.5150   27.0470   41.4620 C   0  0  0  0  0  0  0  0  0  0  0  0
   40.9390   28.2690   41.6950 C   0  0  0  0  0  0  0  0  0  0  0  0
   41.5640   29.4670   41.6730 C   0  0  0  0  0  0  0  0  0  0  0  0
   41.0720   30.3990   41.8610 H   0  0  0  0  0  0  0  0  0  0  0  0
   39.1970   28.3060   42.0630 S   0  0  0  0  0  0  0  0  0  0  0  0
   38.6250   26.6210   42.0330 C   0  0  0  0  0  0  0  0  0  0  0  0
   37.3110   26.3400   42.2880 C   0  0  0  0  0  0  0  0  0  0  0  0
   36.6140   27.1570   42.5080 H   0  0  0  0  0  0  0  0  0  0  0  0
   36.8090   25.0510   42.2780 C   0  0  0  0  0  0  0  0  0  0  0  0
   35.7730   24.8260   42.4790 H   0  0  0  0  0  0  0  0  0  0  0  0
   37.6970   24.0350   41.9990 C   0  0  0  0  0  0  0  0  0  0  0  0
   37.3350   23.0170   41.9850 H   0  0  0  0  0  0  0  0  0  0  0  0
   39.0130   24.3610   41.7490 C   0  0  0  0  0  0  0  0  0  0  0  0
   39.6450   23.4880   41.5370 H   0  0  0  0  0  0  0  0  0  0  0  0
   39.5370   25.6350   41.7510 C   0  0  0  0  0  0  0  0  0  0  0  0
   40.9100   25.7750   41.4760 N   0  0  0  0  0  0  0  0  0  0  0  0
   41.4820   24.9360   41.2780 H   0  0  0  0  0  0  0  0  0  0  0  0
  1  6  1  0  0  0  0
  1 12  1  0  0  0  0
  2  1  2  0  0  0  0
  3  4  2  0  0  0  0
  3  2  1  0  0  0  0
  4  5  1  0  0  0  0
  5  7  1  0  0  0  0
  5  6  2  0  0  0  0
  7  8  1  0  0  0  0
  8 14  1  0  0  0  0
  8 15  1  0  0  0  0
  9  8  1  0  0  0  0
  9 16  1  0  0  0  0
 10 11  1  0  0  0  0
 10  9  1  0  0  0  0
 11 20  1  6  0  0  0
 11  7  1  0  0  0  0
 11 24  1  0  0  0  0
 13  3  1  0  0  0  0
 17  9  1  0  0  0  0
 18 10  1  0  0  0  0
 19 10  1  0  0  0  0
 21 22  1  0  0  0  0
 21  2  1  0  0  0  0
 23 21  1  0  0  0  0
 24 25  1  0  0  0  0
 25 32  1  0  0  0  0
 26 28  1  0  0  0  0
 26 25  2  0  0  0  0
 27 26  1  0  0  0  0
 28 30  2  0  0  0  0
 29 28  1  0  0  0  0
 30 45  1  0  0  0  0
 30 31  1  0  0  0  0
 31 34  1  0  0  0  0
 32 31  2  0  0  0  0
 32 33  1  0  0  0  0
 35 34  1  0  0  0  0
 35 36  1  0  0  0  0
 36 37  1  0  0  0  0
 38 36  2  0  0  0  0
 38 39  1  0  0  0  0
 40 38  1  0  0  0  0
 41 40  1  0  0  0  0
 42 44  1  0  0  0  0
 42 40  2  0  0  0  0
 43 42  1  0  0  0  0
 44 35  2  0  0  0  0
 45 44  1  0  0  0  0
 46 45  1  0  0  0  0
M  END
>  <minimizedAffinity>
-5.91175175

$$$$

 OpenBabel03252506363D

 46 50  0  0  1  0  0  0  0  0999 V2000
   36.3070   27.0960   37.2200 C   0  0  0  0  0  0  0  0  0  0  0  0
   35.5890   28.2660   37.5000 C   0  0  0  0  0  0  0  0  0  0  0  0
   35.4780   28.6930   38.7980 C   0  0  0  0  0  0  0  0  0  0  0  0
   36.0910   27.9220   39.7390 N   0  0  0  0  0  0  0  0  0  0  0  0
   36.7700   26.8100   39.4600 C   0  0  0  0  0  0  0  0  0  0  0  0
   36.8960   26.3680   38.1970 N   0  0  0  0  0  0  0  0  0  0  0  0
   37.3600   26.1020   40.5410 N   0  0  0  0  0  0  0  0  0  0  0  0
   38.3570   25.0410   40.3760 C   0  0  0  0  0  0  0  0  0  0  0  0
   37.9590   24.0800   41.4750 C   0  0  0  0  0  0  0  0  0  0  0  0
   36.9490   24.7890   42.3400 C   0  0  0  0  0  0  0  0  0  0  0  0
   37.1420   26.2370   41.9550 C   0  0  1  0  0  0  0  0  0  0  0  0
   36.3940   26.7620   36.1930 H   0  0  0  0  0  0  0  0  0  0  0  0
   34.9320   29.5820   39.0060 H   0  0  0  0  0  0  0  0  0  0  0  0
   38.1650   24.5020   39.4230 H   0  0  0  0  0  0  0  0  0  0  0  0
   39.3870   25.3970   40.4300 H   0  0  0  0  0  0  0  0  0  0  0  0
   38.8670   23.9460   42.1220 H   0  0  0  0  0  0  0  0  0  0  0  0
   37.6370   23.0940   41.1140 H   0  0  0  0  0  0  0  0  0  0  0  0
   37.1450   24.6070   43.4200 H   0  0  0  0  0  0  0  0  0  0  0  0
   35.9450   24.4310   42.0230 H   0  0  0  0  0  0  0  0  0  0  0  0
   36.2220   26.8110   42.1910 H   0  0  0  0  0  0  0  0  0  0  0  0
   35.0130   28.9440   36.3750 N   0  0  0  0  0  0  0  0  0  0  0  0
   34.9940   29.9740   36.3650 H   0  0  0  0  0  0  0  0  0  0  0  0
   34.6160   28.4220   35.5760 H   0  0  0  0  0  0  0  0  0  0  0  0
   38.5720   26.8740   42.8400 S   0  0  0  0  0  0  0  0  0  0  0  0
   39.1120   28.4550   42.2700 C   0  0  0  0  0  0  0  0  0  0  0  0
   38.9710   29.5380   43.1140 C   0  0  0  0  0  0  0  0  0  0  0  0
   38.5320   29.4220   44.1170 H   0  0  0  0  0  0  0  0  0  0  0  0
   39.3800   30.8160   42.7200 C   0  0  0  0  0  0  0  0  0  0  0  0
   39.2390   31.6130   43.4360 H   0  0  0  0  0  0  0  0  0  0  0  0
   39.9400   31.0640   41.4870 C   0  0  0  0  0  0  0  0  0  0  0  0
   40.0550   29.9520   40.6940 C   0  0  0  0  0  0  0  0  0  0  0  0
   39.6780   28.6950   41.0180 C   0  0  0  0  0  0  0  0  0  0  0  0
   39.7870   27.8540   40.3640 H   0  0  0  0  0  0  0  0  0  0  0  0
   40.7660   30.1590   39.0740 S   0  0  0  0  0  0  0  0  0  0  0  0
   41.1730   31.8830   38.9040 C   0  0  0  0  0  0  0  0  0  0  0  0
   41.7450   32.3400   37.7480 C   0  0  0  0  0  0  0  0  0  0  0  0
   41.9490   31.6400   36.9300 H   0  0  0  0  0  0  0  0  0  0  0  0
   42.0840   33.6680   37.5590 C   0  0  0  0  0  0  0  0  0  0  0  0
   42.5350   34.0320   36.6490 H   0  0  0  0  0  0  0  0  0  0  0  0
   41.8200   34.5360   38.5970 C   0  0  0  0  0  0  0  0  0  0  0  0
   42.0730   35.5800   38.4790 H   0  0  0  0  0  0  0  0  0  0  0  0
   41.2440   34.0340   39.7440 C   0  0  0  0  0  0  0  0  0  0  0  0
   41.0710   34.7990   40.5140 H   0  0  0  0  0  0  0  0  0  0  0  0
   40.8970   32.7190   39.9570 C   0  0  0  0  0  0  0  0  0  0  0  0
   40.3180   32.3900   41.1970 N   0  0  0  0  0  0  0  0  0  0  0  0
   40.1660   33.1300   41.9050 H   0  0  0  0  0  0  0  0  0  0  0  0
  1  2  2  0  0  0  0
  1  6  1  0  0  0  0
  2  3  1  0  0  0  0
  3 13  1  0  0  0  0
  3  4  2  0  0  0  0
  5  4  1  0  0  0  0
  5  7  1  0  0  0  0
  6  5  2  0  0  0  0
  7 11  1  0  0  0  0
  8 15  1  0  0  0  0
  8  7  1  0  0  0  0
  8  9  1  0  0  0  0
  9 16  1  0  0  0  0
  9 10  1  0  0  0  0
 10 18  1  0  0  0  0
 11 20  1  1  0  0  0
 11 10  1  0  0  0  0
 11 24  1  0  0  0  0
 12  1  1  0  0  0  0
 14  8  1  0  0  0  0
 17  9  1  0  0  0  0
 19 10  1  0  0  0  0
 21  2  1  0  0  0  0
 22 21  1  0  0  0  0
 23 21  1  0  0  0  0
 25 24  1  0  0  0  0
 25 26  1  0  0  0  0
 26 27  1  0  0  0  0
 28 26  2  0  0  0  0
 28 29  1  0  0  0  0
 30 28  1  0  0  0  0
 31 32  1  0  0  0  0
 31 30  2  0  0  0  0
 32 25  2  0  0  0  0
 33 32  1  0  0  0  0
 34 31  1  0  0  0  0
 35 34  1  0  0  0  0
 35 44  1  0  0  0  0
 36 35  2  0  0  0  0
 37 36  1  0  0  0  0
 38 36  1  0  0  0  0
 38 40  2  0  0  0  0
 39 38  1  0  0  0  0
 40 42  1  0  0  0  0
 41 40  1  0  0  0  0
 42 44  2  0  0  0  0
 42 43  1  0  0  0  0
 44 45  1  0  0  0  0
 45 30  1  0  0  0  0
 45 46  1  0  0  0  0
M  END
>  <minimizedAffinity>
-5.86204767

$$$$

 OpenBabel03252506363D

 46 50  0  0  1  0  0  0  0  0999 V2000
   36.0920   28.5900   40.5850 C   0  0  0  0  0  0  0  0  0  0  0  0
   36.4450   29.7060   41.3560 C   0  0  0  0  0  0  0  0  0  0  0  0
   37.5550   29.6450   42.1580 C   0  0  0  0  0  0  0  0  0  0  0  0
   38.2450   28.4700   42.1420 N   0  0  0  0  0  0  0  0  0  0  0  0
   37.8990   27.4160   41.4050 C   0  0  0  0  0  0  0  0  0  0  0  0
   36.8160   27.4460   40.6100 N   0  0  0  0  0  0  0  0  0  0  0  0
   38.7090   26.2530   41.4860 N   0  0  0  0  0  0  0  0  0  0  0  0
   38.6280   25.1330   40.5430 C   0  0  0  0  0  0  0  0  0  0  0  0
   38.8570   23.9510   41.4600 C   0  0  0  0  0  0  0  0  0  0  0  0
   39.3130   24.5010   42.7870 C   0  0  0  0  0  0  0  0  0  0  0  0
   39.7310   25.9090   42.4360 C   0  0  1  0  0  0  0  0  0  0  0  0
   35.2140   28.6420   39.9520 H   0  0  0  0  0  0  0  0  0  0  0  0
   37.8200   30.4950   42.7410 H   0  0  0  0  0  0  0  0  0  0  0  0
   37.5810   25.0330   40.1820 H   0  0  0  0  0  0  0  0  0  0  0  0
   39.3300   25.2090   39.7120 H   0  0  0  0  0  0  0  0  0  0  0  0
   39.7390   23.3950   41.0460 H   0  0  0  0  0  0  0  0  0  0  0  0
   38.0050   23.2600   41.5230 H   0  0  0  0  0  0  0  0  0  0  0  0
   40.1520   23.9010   43.2050 H   0  0  0  0  0  0  0  0  0  0  0  0
   38.4240   24.5120   43.4550 H   0  0  0  0  0  0  0  0  0  0  0  0
   39.6980   26.5450   43.3440 H   0  0  0  0  0  0  0  0  0  0  0  0
   35.5950   30.8540   41.2400 N   0  0  0  0  0  0  0  0  0  0  0  0
   36.0150   31.7950   41.2640 H   0  0  0  0  0  0  0  0  0  0  0  0
   34.5700   30.7590   41.1340 H   0  0  0  0  0  0  0  0  0  0  0  0
   41.3810   25.8500   41.7210 S   0  0  0  0  0  0  0  0  0  0  0  0
   41.7620   27.2420   40.7030 C   0  0  0  0  0  0  0  0  0  0  0  0
   42.4030   27.0170   39.5020 C   0  0  0  0  0  0  0  0  0  0  0  0
   42.6720   25.9970   39.1850 H   0  0  0  0  0  0  0  0  0  0  0  0
   42.7310   28.0770   38.6520 C   0  0  0  0  0  0  0  0  0  0  0  0
   43.2300   27.8220   37.7280 H   0  0  0  0  0  0  0  0  0  0  0  0
   42.4370   29.3870   38.9580 C   0  0  0  0  0  0  0  0  0  0  0  0
   41.8010   29.5480   40.1620 C   0  0  0  0  0  0  0  0  0  0  0  0
   41.4590   28.5650   41.0240 C   0  0  0  0  0  0  0  0  0  0  0  0
   40.9620   28.7380   41.9560 H   0  0  0  0  0  0  0  0  0  0  0  0
   41.3740   31.2040   40.6590 S   0  0  0  0  0  0  0  0  0  0  0  0
   41.9240   32.2910   39.3620 C   0  0  0  0  0  0  0  0  0  0  0  0
   41.7240   33.6400   39.4700 C   0  0  0  0  0  0  0  0  0  0  0  0
   41.2260   34.0460   40.3570 H   0  0  0  0  0  0  0  0  0  0  0  0
   42.1290   34.5340   38.4940 C   0  0  0  0  0  0  0  0  0  0  0  0
   41.9730   35.5990   38.5770 H   0  0  0  0  0  0  0  0  0  0  0  0
   42.7550   34.0090   37.3840 C   0  0  0  0  0  0  0  0  0  0  0  0
   43.0830   34.6820   36.6050 H   0  0  0  0  0  0  0  0  0  0  0  0
   42.9370   32.6440   37.3150 C   0  0  0  0  0  0  0  0  0  0  0  0
   43.4430   32.3190   36.3970 H   0  0  0  0  0  0  0  0  0  0  0  0
   42.5440   31.7340   38.2710 C   0  0  0  0  0  0  0  0  0  0  0  0
   42.8110   30.3750   38.0260 N   0  0  0  0  0  0  0  0  0  0  0  0
   43.2910   30.0960   37.1520 H   0  0  0  0  0  0  0  0  0  0  0  0
  1  6  2  0  0  0  0
  1  2  1  0  0  0  0
  2  3  2  0  0  0  0
  3 13  1  0  0  0  0
  4  3  1  0  0  0  0
  5  7  1  0  0  0  0
  5  4  2  0  0  0  0
  6  5  1  0  0  0  0
  7 11  1  0  0  0  0
  8  9  1  0  0  0  0
  8  7  1  0  0  0  0
  9 17  1  0  0  0  0
  9 10  1  0  0  0  0
 10 18  1  0  0  0  0
 10 19  1  0  0  0  0
 11 10  1  0  0  0  0
 11 20  1  1  0  0  0
 12  1  1  0  0  0  0
 14  8  1  0  0  0  0
 15  8  1  0  0  0  0
 16  9  1  0  0  0  0
 21 22  1  0  0  0  0
 21  2  1  0  0  0  0
 23 21  1  0  0  0  0
 24 11  1  0  0  0  0
 25 32  1  0  0  0  0
 25 24  1  0  0  0  0
 26 25  2  0  0  0  0
 27 26  1  0  0  0  0
 28 30  2  0  0  0  0
 28 26  1  0  0  0  0
 29 28  1  0  0  0  0
 30 31  1  0  0  0  0
 31 34  1  0  0  0  0
 31 32  2  0  0  0  0
 32 33  1  0  0  0  0
 35 36  1  0  0  0  0
 35 34  1  0  0  0  0
 36 37  1  0  0  0  0
 38 39  1  0  0  0  0
 38 36  2  0  0  0  0
 40 38  1  0  0  0  0
 41 40  1  0  0  0  0
 42 40  2  0  0  0  0
 42 44  1  0  0  0  0
 43 42  1  0  0  0  0
 44 35  2  0  0  0  0
 45 44  1  0  0  0  0
 45 30  1  0  0  0  0
 46 45  1  0  0  0  0
M  END
>  <minimizedAffinity>
-5.83043766

$$$$
