
 OpenBabel03252506353D

 46 50  0  0  1  0  0  0  0  0999 V2000
   44.4570   35.6810   45.1670 C   0  0  0  0  0  0  0  0  0  0  0  0
   45.0700   35.7240   43.9080 C   0  0  0  0  0  0  0  0  0  0  0  0
   45.9870   34.7610   43.5730 C   0  0  0  0  0  0  0  0  0  0  0  0
   46.2360   33.8130   44.5190 N   0  0  0  0  0  0  0  0  0  0  0  0
   45.6480   33.7840   45.7140 C   0  0  0  0  0  0  0  0  0  0  0  0
   44.7450   34.7140   46.0700 N   0  0  0  0  0  0  0  0  0  0  0  0
   46.0030   32.7370   46.6050 N   0  0  0  0  0  0  0  0  0  0  0  0
   45.2520   32.4080   47.8200 C   0  0  0  0  0  0  0  0  0  0  0  0
   46.3680   32.0370   48.7720 C   0  0  0  0  0  0  0  0  0  0  0  0
   47.6290   31.9250   47.9560 C   0  0  0  0  0  0  0  0  0  0  0  0
   47.1020   31.8130   46.5450 C   0  0  1  0  0  0  0  0  0  0  0  0
   43.7320   36.4430   45.4290 H   0  0  0  0  0  0  0  0  0  0  0  0
   46.4490   34.7980   42.6150 H   0  0  0  0  0  0  0  0  0  0  0  0
   44.8010   33.3350   48.2350 H   0  0  0  0  0  0  0  0  0  0  0  0
   44.5010   31.6310   47.6720 H   0  0  0  0  0  0  0  0  0  0  0  0
   46.1480   30.9960   49.1280 H   0  0  0  0  0  0  0  0  0  0  0  0
   46.4490   32.6970   49.6470 H   0  0  0  0  0  0  0  0  0  0  0  0
   48.2280   31.0360   48.2570 H   0  0  0  0  0  0  0  0  0  0  0  0
   48.1860   32.8790   48.0900 H   0  0  0  0  0  0  0  0  0  0  0  0
   47.8860   32.1310   45.8270 H   0  0  0  0  0  0  0  0  0  0  0  0
   44.6780   36.8000   43.0450 N   0  0  0  0  0  0  0  0  0  0  0  0
   44.5940   36.6270   42.0330 H   0  0  0  0  0  0  0  0  0  0  0  0
   44.4780   37.7450   43.4170 H   0  0  0  0  0  0  0  0  0  0  0  0
   46.5890   30.1120   46.2640 S   0  0  0  0  0  0  0  0  0  0  0  0
   45.3200   29.9460   45.0480 C   0  0  0  0  0  0  0  0  0  0  0  0
   44.3310   29.0080   45.2600 C   0  0  0  0  0  0  0  0  0  0  0  0
   44.3300   28.3770   46.1640 H   0  0  0  0  0  0  0  0  0  0  0  0
   43.2970   28.8300   44.3330 C   0  0  0  0  0  0  0  0  0  0  0  0
   42.5590   28.0770   44.5700 H   0  0  0  0  0  0  0  0  0  0  0  0
   43.2100   29.5680   43.1750 C   0  0  0  0  0  0  0  0  0  0  0  0
   44.2200   30.4810   43.0200 C   0  0  0  0  0  0  0  0  0  0  0  0
   45.2410   30.6990   43.8770 C   0  0  0  0  0  0  0  0  0  0  0  0
   46.0110   31.4260   43.7140 H   0  0  0  0  0  0  0  0  0  0  0  0
   44.2050   31.4920   41.5530 S   0  0  0  0  0  0  0  0  0  0  0  0
   42.7730   31.0130   40.6100 C   0  0  0  0  0  0  0  0  0  0  0  0
   42.5000   31.6310   39.4200 C   0  0  0  0  0  0  0  0  0  0  0  0
   43.1660   32.4190   39.0530 H   0  0  0  0  0  0  0  0  0  0  0  0
   41.4030   31.3010   38.6440 C   0  0  0  0  0  0  0  0  0  0  0  0
   41.1850   31.7870   37.7050 H   0  0  0  0  0  0  0  0  0  0  0  0
   40.5750   30.3080   39.1200 C   0  0  0  0  0  0  0  0  0  0  0  0
   39.7090   30.0280   38.5370 H   0  0  0  0  0  0  0  0  0  0  0  0
   40.8860   29.7110   40.3220 C   0  0  0  0  0  0  0  0  0  0  0  0
   40.1700   28.9330   40.6200 H   0  0  0  0  0  0  0  0  0  0  0  0
   41.9700   30.0210   41.1140 C   0  0  0  0  0  0  0  0  0  0  0  0
   42.1250   29.3050   42.3150 N   0  0  0  0  0  0  0  0  0  0  0  0
   41.4370   28.5760   42.5710 H   0  0  0  0  0  0  0  0  0  0  0  0
  1 12  1  0  0  0  0
  1  6  1  0  0  0  0
  2  1  2  0  0  0  0
  3  2  1  0  0  0  0
  3  4  2  0  0  0  0
  4  5  1  0  0  0  0
  5  6  2  0  0  0  0
  5  7  1  0  0  0  0
  7  8  1  0  0  0  0
  8 14  1  0  0  0  0
  8  9  1  0  0  0  0
  9 16  1  0  0  0  0
  9 17  1  0  0  0  0
 10 19  1  0  0  0  0
 10 18  1  0  0  0  0
 10  9  1  0  0  0  0
 11 20  1  6  0  0  0
 11  7  1  0  0  0  0
 11 10  1  0  0  0  0
 13  3  1  0  0  0  0
 15  8  1  0  0  0  0
 21 23  1  0  0  0  0
 21  2  1  0  0  0  0
 22 21  1  0  0  0  0
 24 11  1  0  0  0  0
 25 26  1  0  0  0  0
 25 24  1  0  0  0  0
 26 27  1  0  0  0  0
 28 29  1  0  0  0  0
 28 26  2  0  0  0  0
 30 28  1  0  0  0  0
 31 30  2  0  0  0  0
 31 32  1  0  0  0  0
 32 25  2  0  0  0  0
 33 32  1  0  0  0  0
 34 31  1  0  0  0  0
 35 44  1  0  0  0  0
 35 34  1  0  0  0  0
 36 35  2  0  0  0  0
 37 36  1  0  0  0  0
 38 40  2  0  0  0  0
 38 36  1  0  0  0  0
 39 38  1  0  0  0  0
 40 42  1  0  0  0  0
 41 40  1  0  0  0  0
 42 43  1  0  0  0  0
 42 44  2  0  0  0  0
 44 45  1  0  0  0  0
 45 46  1  0  0  0  0
 45 30  1  0  0  0  0
M  END
>  <minimizedAffinity>
-5.8646698

>  <minimizedRMSD>
1.48053122

$$$$
