
 OpenBabel03242523123D

 59 65  0  0  1  0  0  0  0  0999 V2000
   45.9580   31.5870   44.7550 C   0  0  0  0  0  0  0  0  0  0  0  0
   46.6980   32.6160   44.1320 C   0  0  0  0  0  0  0  0  0  0  0  0
   47.9300   32.1640   43.7210 C   0  0  0  0  0  0  0  0  0  0  0  0
   48.4150   30.9030   43.8770 C   0  0  0  0  0  0  0  0  0  0  0  0
   47.6230   29.9470   44.5060 C   0  0  0  0  0  0  0  0  0  0  0  0
   46.3750   30.2990   44.9490 C   0  0  0  0  0  0  0  0  0  0  0  0
   48.3910   28.7950   44.5090 O   0  0  0  0  0  0  0  0  0  0  0  0
   49.6170   29.0210   43.8420 C   0  0  2  0  0  0  0  0  0  0  0  0
   49.6400   30.3980   43.4820 O   0  0  0  0  0  0  0  0  0  0  0  0
   44.9330   31.6110   45.1850 H   0  0  0  0  0  0  0  0  0  0  0  0
   48.4940   32.9100   43.2560 H   0  0  0  0  0  0  0  0  0  0  0  0
   45.8690   29.4930   45.4070 H   0  0  0  0  0  0  0  0  0  0  0  0
   50.4720   28.7880   44.5130 H   0  0  0  0  0  0  0  0  0  0  0  0
   45.1690   35.9790   43.5090 C   0  0  0  0  0  0  0  0  0  0  0  0
   45.9200   34.8460   43.1990 C   0  0  0  0  0  0  0  0  0  0  0  0
   46.0440   33.8500   44.1200 C   0  0  0  0  0  0  0  0  0  0  0  0
   45.4110   34.0290   45.3200 N   0  0  0  0  0  0  0  0  0  0  0  0
   44.6900   35.1160   45.6160 C   0  0  0  0  0  0  0  0  0  0  0  0
   44.5740   36.0690   44.7250 N   0  0  0  0  0  0  0  0  0  0  0  0
   45.0630   36.7730   42.7870 H   0  0  0  0  0  0  0  0  0  0  0  0
   44.1670   35.3160   46.5410 H   0  0  0  0  0  0  0  0  0  0  0  0
   46.5360   34.8120   41.9480 N   0  0  0  0  0  0  0  0  0  0  0  0
   47.8610   35.3040   41.7420 C   0  0  0  0  0  0  0  0  0  0  0  0
   48.4330   35.0310   40.3800 C   0  0  0  0  0  0  0  0  0  0  0  0
   48.1140   33.7870   39.8490 N   0  0  0  0  0  0  0  0  0  0  0  0
   46.8370   33.3250   40.0160 C   0  0  0  0  0  0  0  0  0  0  0  0
   45.9700   34.3140   40.7580 C   0  0  0  0  0  0  0  0  0  0  0  0
   48.5930   34.9950   42.5250 H   0  0  0  0  0  0  0  0  0  0  0  0
   47.8030   36.4230   41.8550 H   0  0  0  0  0  0  0  0  0  0  0  0
   48.0180   35.8240   39.6930 H   0  0  0  0  0  0  0  0  0  0  0  0
   49.5200   35.2520   40.4210 H   0  0  0  0  0  0  0  0  0  0  0  0
   48.7580   33.3380   39.2000 H   0  0  0  0  0  0  0  0  0  0  0  0
   46.7220   32.3260   40.5070 H   0  0  0  0  0  0  0  0  0  0  0  0
   46.3440   33.1750   39.0110 H   0  0  0  0  0  0  0  0  0  0  0  0
   45.0420   33.7420   41.0350 H   0  0  0  0  0  0  0  0  0  0  0  0
   45.6550   35.0810   40.0100 H   0  0  0  0  0  0  0  0  0  0  0  0
   49.6060   28.2460   42.6780 O   0  0  0  0  0  0  0  0  0  0  0  0
   50.1320   28.5620   41.4590 C   0  0  0  0  0  0  0  0  0  0  0  0
   51.4350   28.3890   41.0430 C   0  0  0  0  0  0  0  0  0  0  0  0
   52.1180   27.9560   41.7600 H   0  0  0  0  0  0  0  0  0  0  0  0
   51.7840   28.7690   39.7650 C   0  0  0  0  0  0  0  0  0  0  0  0
   52.8370   28.5980   39.5190 H   0  0  0  0  0  0  0  0  0  0  0  0
   50.9140   29.3180   38.8560 C   0  0  0  0  0  0  0  0  0  0  0  0
   49.6350   29.4830   39.2780 C   0  0  0  0  0  0  0  0  0  0  0  0
   49.2580   29.1230   40.5190 C   0  0  0  0  0  0  0  0  0  0  0  0
   48.2060   29.2810   40.8020 H   0  0  0  0  0  0  0  0  0  0  0  0
   48.4470   30.1900   38.1520 S   0  0  0  0  0  0  0  0  0  0  0  0
   49.3570   30.5110   36.6520 C   0  0  0  0  0  0  0  0  0  0  0  0
   48.6120   31.0670   35.6430 C   0  0  0  0  0  0  0  0  0  0  0  0
   47.5440   31.3060   35.7150 H   0  0  0  0  0  0  0  0  0  0  0  0
   49.2270   31.3560   34.4350 C   0  0  0  0  0  0  0  0  0  0  0  0
   48.7160   31.7930   33.5870 H   0  0  0  0  0  0  0  0  0  0  0  0
   50.5690   31.0750   34.2870 C   0  0  0  0  0  0  0  0  0  0  0  0
   51.0610   31.2950   33.3500 H   0  0  0  0  0  0  0  0  0  0  0  0
   51.2340   30.5170   35.3590 C   0  0  0  0  0  0  0  0  0  0  0  0
   52.3010   30.3240   35.1600 H   0  0  0  0  0  0  0  0  0  0  0  0
   50.6740   30.2100   36.5820 C   0  0  0  0  0  0  0  0  0  0  0  0
   51.4420   29.6470   37.5990 N   0  0  0  0  0  0  0  0  0  0  0  0
   52.4460   29.4770   37.3790 H   0  0  0  0  0  0  0  0  0  0  0  0
  1  6  1  0  0  0  0
  1 10  1  0  0  0  0
  2  1  2  0  0  0  0
  3  4  2  0  0  0  0
  3  2  1  0  0  0  0
  4  5  1  0  0  0  0
  5  7  1  0  0  0  0
  5  6  2  0  0  0  0
  6 12  1  0  0  0  0
  8  7  1  0  0  0  0
  8 13  1  1  0  0  0
  9  8  1  0  0  0  0
  9  4  1  0  0  0  0
 11  3  1  0  0  0  0
 14 19  1  0  0  0  0
 15 14  2  0  0  0  0
 15 16  1  0  0  0  0
 16  2  1  0  0  0  0
 16 17  2  0  0  0  0
 17 18  1  0  0  0  0
 18 21  1  0  0  0  0
 19 18  2  0  0  0  0
 20 14  1  0  0  0  0
 22 15  1  0  0  0  0
 23 29  1  0  0  0  0
 23 22  1  0  0  0  0
 23 28  1  0  0  0  0
 24 31  1  0  0  0  0
 24 23  1  0  0  0  0
 25 26  1  0  0  0  0
 25 24  1  0  0  0  0
 26 33  1  0  0  0  0
 26 27  1  0  0  0  0
 27 35  1  0  0  0  0
 27 22  1  0  0  0  0
 30 24  1  0  0  0  0
 32 25  1  0  0  0  0
 34 26  1  0  0  0  0
 36 27  1  0  0  0  0
 37  8  1  0  0  0  0
 38 37  1  0  0  0  0
 39 38  1  0  0  0  0
 39 40  1  0  0  0  0
 41 39  2  0  0  0  0
 42 41  1  0  0  0  0
 43 44  2  0  0  0  0
 43 41  1  0  0  0  0
 44 45  1  0  0  0  0
 45 46  1  0  0  0  0
 45 38  2  0  0  0  0
 47 44  1  0  0  0  0
 48 47  1  0  0  0  0
 49 50  1  0  0  0  0
 49 48  2  0  0  0  0
 51 49  1  0  0  0  0
 52 51  1  0  0  0  0
 53 51  2  0  0  0  0
 53 55  1  0  0  0  0
 54 53  1  0  0  0  0
 55 57  2  0  0  0  0
 56 55  1  0  0  0  0
 57 48  1  0  0  0  0
 57 58  1  0  0  0  0
 58 43  1  0  0  0  0
 59 58  1  0  0  0  0
M  END
>  <minimizedAffinity>
-5.46799326

>  <minimizedRMSD>
4.70172215

$$$$
