
     RDKit          3D

 47 51  0  0  0  0  0  0  0  0999 V2000
   46.8932   34.6081   42.2269 N   0  0  0  0  0  0  0  0  0  0  0  0
   48.3343   34.7805   42.2652 C   0  0  0  0  0  0  0  0  0  0  0  0
   48.6336   35.5369   40.9524 C   0  0  0  0  0  0  0  0  0  0  0  0
   48.3578   34.6086   39.7957 C   0  0  0  0  0  0  0  0  0  0  0  0
   47.0828   33.8628   39.9053 C   0  0  0  0  0  0  0  0  0  0  0  0
   46.1777   34.2545   41.0274 C   0  0  1  0  0  0  0  0  0  0  0  0
   44.5044   35.9856   44.7638 C   0  0  0  0  0  0  0  0  0  0  0  0
   45.2273   35.8885   43.5681 C   0  0  0  0  0  0  0  0  0  0  0  0
   46.1107   34.7897   43.4187 C   0  0  0  0  0  0  0  0  0  0  0  0
   46.1995   33.9041   44.4413 N   0  0  0  0  0  0  0  0  0  0  0  0
   45.4825   34.0337   45.5829 C   0  0  0  0  0  0  0  0  0  0  0  0
   44.6359   35.0810   45.7336 N   0  0  0  0  0  0  0  0  0  0  0  0
   45.3315   33.1820   41.2966 O   0  0  0  0  0  0  0  0  0  0  0  0
   48.8408   33.7956   42.2372 H   0  0  0  0  0  0  0  0  0  0  0  0
   48.6083   35.4009   43.1314 H   0  0  0  0  0  0  0  0  0  0  0  0
   49.6881   35.8307   40.9538 H   0  0  0  0  0  0  0  0  0  0  0  0
   47.9188   36.3893   40.9231 H   0  0  0  0  0  0  0  0  0  0  0  0
   49.2055   33.8800   39.7696 H   0  0  0  0  0  0  0  0  0  0  0  0
   48.4593   35.1889   38.8521 H   0  0  0  0  0  0  0  0  0  0  0  0
   47.2436   32.7551   39.9296 H   0  0  0  0  0  0  0  0  0  0  0  0
   46.5092   34.0310   38.9642 H   0  0  0  0  0  0  0  0  0  0  0  0
   45.5636   35.1365   40.7610 H   0  0  0  0  0  0  0  0  0  0  0  0
   43.8714   36.8669   44.7453 H   0  0  0  0  0  0  0  0  0  0  0  0
   45.1803   36.5729   42.7380 H   0  0  0  0  0  0  0  0  0  0  0  0
   45.5614   33.3264   46.3848 H   0  0  0  0  0  0  0  0  0  0  0  0
   43.9505   33.1775   41.2493 C   0  0  0  0  0  0  0  0  0  0  0  0
   43.0861   34.0880   40.6798 C   0  0  0  0  0  0  0  0  0  0  0  0
   43.5582   34.9159   40.2077 H   0  0  0  0  0  0  0  0  0  0  0  0
   41.7279   33.8671   40.7610 C   0  0  0  0  0  0  0  0  0  0  0  0
   41.1320   34.6538   40.2746 H   0  0  0  0  0  0  0  0  0  0  0  0
   41.1421   32.7841   41.3798 C   0  0  0  0  0  0  0  0  0  0  0  0
   42.0040   31.8788   41.9461 C   0  0  0  0  0  0  0  0  0  0  0  0
   43.3539   32.0788   41.8769 C   0  0  0  0  0  0  0  0  0  0  0  0
   43.9617   31.3017   42.3583 H   0  0  0  0  0  0  0  0  0  0  0  0
   41.3151   30.4529   42.7638 S   0  0  0  0  0  0  0  0  0  0  0  0
   39.5550   30.5993   42.6132 C   0  0  0  0  0  0  0  0  0  0  0  0
   38.8213   29.5988   43.1778 C   0  0  0  0  0  0  0  0  0  0  0  0
   39.2549   28.7651   43.6862 H   0  0  0  0  0  0  0  0  0  0  0  0
   37.4421   29.6378   43.1047 C   0  0  0  0  0  0  0  0  0  0  0  0
   36.7680   28.8990   43.5168 H   0  0  0  0  0  0  0  0  0  0  0  0
   36.8482   30.7006   42.4551 C   0  0  0  0  0  0  0  0  0  0  0  0
   35.7710   30.7626   42.3792 H   0  0  0  0  0  0  0  0  0  0  0  0
   37.6517   31.6791   41.9060 C   0  0  0  0  0  0  0  0  0  0  0  0
   37.1153   32.4952   41.4044 H   0  0  0  0  0  0  0  0  0  0  0  0
   39.0310   31.6824   41.9542 C   0  0  0  0  0  0  0  0  0  0  0  0
   39.7324   32.7368   41.3566 N   0  0  0  0  0  0  0  0  0  0  0  0
   39.1820   33.4882   40.8925 H   0  0  0  0  0  0  0  0  0  0  0  0
  1  2  1  0
  1  9  1  0
  3  2  1  0
  4  5  1  0
  4  3  1  0
  5  6  1  0
  6 13  1  0
  6  1  1  0
  7 12  2  0
  8  7  1  0
  9  8  2  0
  9 10  1  0
 10 11  2  0
 11 12  1  0
  2 14  1  0
  2 15  1  0
  3 16  1  0
  3 17  1  0
  4 18  1  0
  4 19  1  0
  5 20  1  0
  5 21  1  0
  6 22  1  6
  7 23  1  0
  8 24  1  0
 11 25  1  0
 26 27  2  0
 27 28  1  0
 27 29  1  0
 29 30  1  0
 29 31  2  0
 31 32  1  0
 32 33  2  0
 33 34  1  0
 32 35  1  0
 35 36  1  0
 36 37  2  0
 37 38  1  0
 37 39  1  0
 39 40  1  0
 39 41  2  0
 41 42  1  0
 41 43  1  0
 43 44  1  0
 43 45  2  0
 45 46  1  0
 46 47  1  0
 33 26  1  0
 45 36  1  0
 46 31  1  0
 13 26  1  0
M  ISO  8  14  13  15  13  16  13  17  13  18  13  19  13  20  13  21  13
M  ISO  8  22  13  23  14  24  14  25  14  28  16  30  16  34  16  38  16
M  ISO  4  40  16  42  16  44  16  47   5
M  END
>  <DihAtoms>  (1) 
5,12,25,26

>  <DihDeg>  (1) 
0.007290183931825912

$$$$
