
     RDKit          3D

 32 35  0  0  0  0  0  0  0  0999 V2000
   44.2657   35.7348   44.2602 C   0  0  0  0  0  0  0  0  0  0  0  0
   44.4245   34.9069   43.1228 C   0  0  0  0  0  0  0  0  0  0  0  0
   45.0639   33.6851   43.2834 C   0  0  0  0  0  0  0  0  0  0  0  0
   45.5120   33.3291   44.5194 N   0  0  0  0  0  0  0  0  0  0  0  0
   45.3403   34.1507   45.5844 C   0  0  0  0  0  0  0  0  0  0  0  0
   44.7283   35.3362   45.4663 N   0  0  0  0  0  0  0  0  0  0  0  0
   43.8032   35.4564   41.5345 S   0  0  0  0  0  0  0  0  0  0  0  0
   43.7731   36.6728   44.1290 H   0  0  0  0  0  0  0  0  0  0  0  0
   45.1965   33.0411   42.4401 H   0  0  0  0  0  0  0  0  0  0  0  0
   45.7455   33.7382   46.4987 H   0  0  0  0  0  0  0  0  0  0  0  0
   42.1205   34.8690   41.4125 C   0  0  0  0  0  0  0  0  0  0  0  0
   41.1678   35.5560   40.6890 C   0  0  0  0  0  0  0  0  0  0  0  0
   41.4275   36.4716   40.1783 H   0  0  0  0  0  0  0  0  0  0  0  0
   39.8908   35.0358   40.6441 C   0  0  0  0  0  0  0  0  0  0  0  0
   39.1864   35.6224   40.0586 H   0  0  0  0  0  0  0  0  0  0  0  0
   39.4732   33.8764   41.2643 C   0  0  0  0  0  0  0  0  0  0  0  0
   40.4603   33.2336   41.9696 C   0  0  0  0  0  0  0  0  0  0  0  0
   41.7417   33.7078   42.0454 C   0  0  0  0  0  0  0  0  0  0  0  0
   42.5071   33.1849   42.6080 H   0  0  0  0  0  0  0  0  0  0  0  0
   40.0669   31.7251   42.8212 S   0  0  0  0  0  0  0  0  0  0  0  0
   38.3400   31.4152   42.5079 C   0  0  0  0  0  0  0  0  0  0  0  0
   37.7516   30.3201   43.0362 C   0  0  0  0  0  0  0  0  0  0  0  0
   38.3375   29.6254   43.6558 H   0  0  0  0  0  0  0  0  0  0  0  0
   36.4091   30.0138   42.8346 C   0  0  0  0  0  0  0  0  0  0  0  0
   35.9603   29.1403   43.2621 H   0  0  0  0  0  0  0  0  0  0  0  0
   35.6977   30.8988   42.0556 C   0  0  0  0  0  0  0  0  0  0  0  0
   34.6519   30.6785   41.8868 H   0  0  0  0  0  0  0  0  0  0  0  0
   36.3247   31.9955   41.5377 C   0  0  0  0  0  0  0  0  0  0  0  0
   35.6794   32.6400   40.9326 H   0  0  0  0  0  0  0  0  0  0  0  0
   37.6528   32.3132   41.7277 C   0  0  0  0  0  0  0  0  0  0  0  0
   38.1477   33.4813   41.1248 N   0  0  0  0  0  0  0  0  0  0  0  0
   37.5021   34.0683   40.5565 H   0  0  0  0  0  0  0  0  0  0  0  0
  1  6  2  0
  2  3  2  0
  2  1  1  0
  3  4  1  0
  4  5  2  0
  6  5  1  0
  7  2  1  0
  1  8  1  0
  3  9  1  0
  5 10  1  0
 11 12  2  0
 12 13  1  0
 12 14  1  0
 14 15  1  0
 14 16  2  0
 16 17  1  0
 17 18  2  0
 18 19  1  0
 17 20  1  0
 20 21  1  0
 21 22  2  0
 22 23  1  0
 22 24  1  0
 24 25  1  0
 24 26  2  0
 26 27  1  0
 26 28  1  0
 28 29  1  0
 28 30  2  0
 30 31  1  0
 31 32  1  0
 18 11  1  0
 30 21  1  0
 31 16  1  0
  7 11  1  0
M  ISO  8   8  14   9  14  10  14  13  16  15  16  19  16  23  16  25  16
M  ISO  3  27  16  29  16  32   5
M  END
>  <DihAtoms>  (1) 
1,6,10,11

>  <DihDeg>  (1) 
0.000349000965444096

$$$$
