
 OpenBabel03252502243D

 47 51  0  0  1  0  0  0  0  0999 V2000
   46.9110   34.6170   42.3110 N   0  0  0  0  0  0  0  0  0  0  0  0
   48.3580   34.7160   42.3760 C   0  0  0  0  0  0  0  0  0  0  0  0
   48.7140   35.5260   41.1100 C   0  0  0  0  0  0  0  0  0  0  0  0
   48.4100   34.6760   39.9020 C   0  0  0  0  0  0  0  0  0  0  0  0
   47.0980   33.9900   39.9550 C   0  0  0  0  0  0  0  0  0  0  0  0
   46.1970   34.3650   41.0850 C   0  0  1  0  0  0  0  0  0  0  0  0
   48.8170   33.7100   42.3010 H   0  0  0  0  0  0  0  0  0  0  0  0
   48.6490   35.2740   43.2780 H   0  0  0  0  0  0  0  0  0  0  0  0
   49.7810   35.7660   41.1410 H   0  0  0  0  0  0  0  0  0  0  0  0
   48.0420   36.4120   41.1190 H   0  0  0  0  0  0  0  0  0  0  0  0
   49.2220   33.9080   39.8460 H   0  0  0  0  0  0  0  0  0  0  0  0
   48.5530   35.3010   38.9920 H   0  0  0  0  0  0  0  0  0  0  0  0
   47.2050   32.8750   39.9210 H   0  0  0  0  0  0  0  0  0  0  0  0
   46.5470   34.2370   39.0170 H   0  0  0  0  0  0  0  0  0  0  0  0
   45.6310   35.2890   40.8610 H   0  0  0  0  0  0  0  0  0  0  0  0
   44.4670   35.9100   44.8410 C   0  0  0  0  0  0  0  0  0  0  0  0
   45.1950   35.8370   43.6460 C   0  0  0  0  0  0  0  0  0  0  0  0
   46.1210   34.7730   43.5020 C   0  0  0  0  0  0  0  0  0  0  0  0
   46.2450   33.8960   44.5280 N   0  0  0  0  0  0  0  0  0  0  0  0
   45.5220   34.0020   45.6690 C   0  0  0  0  0  0  0  0  0  0  0  0
   44.6340   35.0160   45.8150 N   0  0  0  0  0  0  0  0  0  0  0  0
   43.8000   36.7660   44.8170 H   0  0  0  0  0  0  0  0  0  0  0  0
   45.1210   36.5150   42.8130 H   0  0  0  0  0  0  0  0  0  0  0  0
   45.6270   33.3010   46.4740 H   0  0  0  0  0  0  0  0  0  0  0  0
   45.2950   33.3230   41.2860 O   0  0  0  0  0  0  0  0  0  0  0  0
   44.0230   33.2090   40.7590 C   0  0  0  0  0  0  0  0  0  0  0  0
   42.8800   33.9170   41.0590 C   0  0  0  0  0  0  0  0  0  0  0  0
   43.0000   34.6620   41.8090 H   0  0  0  0  0  0  0  0  0  0  0  0
   41.7100   33.6200   40.3920 C   0  0  0  0  0  0  0  0  0  0  0  0
   40.8610   34.2440   40.7070 H   0  0  0  0  0  0  0  0  0  0  0  0
   41.5820   32.6480   39.4230 C   0  0  0  0  0  0  0  0  0  0  0  0
   42.7220   31.9440   39.1260 C   0  0  0  0  0  0  0  0  0  0  0  0
   43.8910   32.2220   39.7750 C   0  0  0  0  0  0  0  0  0  0  0  0
   44.7470   31.6070   39.4700 H   0  0  0  0  0  0  0  0  0  0  0  0
   42.6280   30.6710   37.8820 S   0  0  0  0  0  0  0  0  0  0  0  0
   40.9490   30.6560   37.3160 C   0  0  0  0  0  0  0  0  0  0  0  0
   40.6520   29.7430   36.3480 C   0  0  0  0  0  0  0  0  0  0  0  0
   41.3690   29.0650   35.9380 H   0  0  0  0  0  0  0  0  0  0  0  0
   39.3650   29.6650   35.8520 C   0  0  0  0  0  0  0  0  0  0  0  0
   39.0240   28.9810   35.0870 H   0  0  0  0  0  0  0  0  0  0  0  0
   38.4130   30.5260   36.3590 C   0  0  0  0  0  0  0  0  0  0  0  0
   37.3960   30.4930   35.9930 H   0  0  0  0  0  0  0  0  0  0  0  0
   38.7820   31.4260   37.3380 C   0  0  0  0  0  0  0  0  0  0  0  0
   37.9760   32.0800   37.6970 H   0  0  0  0  0  0  0  0  0  0  0  0
   40.0540   31.5390   37.8630 C   0  0  0  0  0  0  0  0  0  0  0  0
   40.2990   32.4950   38.8560 N   0  0  0  0  0  0  0  0  0  0  0  0
   39.5060   33.0930   39.1660 H   0  0  0  0  0  0  0  0  0  0  0  0
  1  2  1  0  0  0  0
  1 18  1  0  0  0  0
  2  8  1  0  0  0  0
  3 10  1  0  0  0  0
  3  9  1  0  0  0  0
  3  2  1  0  0  0  0
  4  5  1  0  0  0  0
  4  3  1  0  0  0  0
  5  6  1  0  0  0  0
  6 15  1  6  0  0  0
  6 25  1  0  0  0  0
  6  1  1  0  0  0  0
  7  2  1  0  0  0  0
 11  4  1  0  0  0  0
 12  4  1  0  0  0  0
 13  5  1  0  0  0  0
 14  5  1  0  0  0  0
 16 21  1  0  0  0  0
 17 16  2  0  0  0  0
 18 17  1  0  0  0  0
 18 19  2  0  0  0  0
 19 20  1  0  0  0  0
 20 21  2  0  0  0  0
 20 24  1  0  0  0  0
 22 16  1  0  0  0  0
 23 17  1  0  0  0  0
 26 27  1  0  0  0  0
 26 25  1  0  0  0  0
 27 28  1  0  0  0  0
 29 30  1  0  0  0  0
 29 27  2  0  0  0  0
 31 29  1  0  0  0  0
 32 31  2  0  0  0  0
 32 33  1  0  0  0  0
 33 26  2  0  0  0  0
 34 33  1  0  0  0  0
 35 32  1  0  0  0  0
 36 45  1  0  0  0  0
 36 35  1  0  0  0  0
 37 36  2  0  0  0  0
 38 37  1  0  0  0  0
 39 37  1  0  0  0  0
 39 41  2  0  0  0  0
 40 39  1  0  0  0  0
 41 43  1  0  0  0  0
 42 41  1  0  0  0  0
 43 44  1  0  0  0  0
 43 45  2  0  0  0  0
 45 46  1  0  0  0  0
 46 47  1  0  0  0  0
 46 31  1  0  0  0  0
M  END
>  <minimizedAffinity>
-6.53613758

>  <minimizedRMSD>
1.37452269

$$$$
