
 OpenBabel03252509013D

 58 62  0  0  1  0  0  0  0  0999 V2000
   49.3190   32.5370   39.4330 N   0  0  0  0  0  0  0  0  0  0  0  0
   49.2940   31.9070   38.1650 C   0  0  0  0  0  0  0  0  0  0  0  0
   47.9820   32.0210   37.4170 C   0  0  0  0  0  0  0  0  0  0  0  0
   47.2460   33.3050   37.6500 C   0  0  0  0  0  0  0  0  0  0  0  0
   48.0240   34.2490   38.5340 C   0  0  0  0  0  0  0  0  0  0  0  0
   48.3000   33.3920   39.8210 C   0  0  2  0  0  0  0  0  0  0  0  0
   49.5860   30.8570   38.1470 H   0  0  0  0  0  0  0  0  0  0  0  0
   50.0490   32.4430   37.5260 H   0  0  0  0  0  0  0  0  0  0  0  0
   47.3490   31.1360   37.6730 H   0  0  0  0  0  0  0  0  0  0  0  0
   48.1950   31.9440   36.3280 H   0  0  0  0  0  0  0  0  0  0  0  0
   46.9170   33.7810   36.6990 H   0  0  0  0  0  0  0  0  0  0  0  0
   46.2950   33.0660   38.2060 H   0  0  0  0  0  0  0  0  0  0  0  0
   48.9730   34.5700   38.0960 H   0  0  0  0  0  0  0  0  0  0  0  0
   47.3610   35.0920   38.8150 H   0  0  0  0  0  0  0  0  0  0  0  0
   47.3150   32.9700   40.0820 H   0  0  0  0  0  0  0  0  0  0  0  0
   50.0330   31.8060   40.4320 C   0  0  0  0  0  0  0  0  0  0  0  0
   49.2970   31.3810   41.1610 H   0  0  0  0  0  0  0  0  0  0  0  0
   50.6870   32.4790   40.9890 H   0  0  0  0  0  0  0  0  0  0  0  0
   50.7380   30.6540   39.7890 C   0  0  0  0  0  0  0  0  0  0  0  0
   51.1580   30.9480   38.7990 H   0  0  0  0  0  0  0  0  0  0  0  0
   50.0930   29.7860   39.5980 H   0  0  0  0  0  0  0  0  0  0  0  0
   52.7700   29.5100   42.7370 C   0  0  0  0  0  0  0  0  0  0  0  0
   51.6760   29.8840   41.9340 C   0  0  0  0  0  0  0  0  0  0  0  0
   51.8980   30.2590   40.6300 C   0  0  0  0  0  0  0  0  0  0  0  0
   53.1610   30.2490   40.1820 N   0  0  0  0  0  0  0  0  0  0  0  0
   54.2020   29.8880   40.9590 C   0  0  0  0  0  0  0  0  0  0  0  0
   54.0160   29.5170   42.2370 N   0  0  0  0  0  0  0  0  0  0  0  0
   52.5630   29.2180   43.7650 H   0  0  0  0  0  0  0  0  0  0  0  0
   50.6610   29.8830   42.3290 H   0  0  0  0  0  0  0  0  0  0  0  0
   55.1920   29.9040   40.5270 H   0  0  0  0  0  0  0  0  0  0  0  0
   48.7550   34.3610   40.7100 O   0  0  0  0  0  0  0  0  0  0  0  0
   46.9930   35.4690   42.3550 O   0  0  0  0  0  0  0  0  0  0  0  0
   47.9620   34.3070   42.1940 P   0  0  2  0  0  0  0  0  0  0  0  0
   49.1660   34.5610   43.3850 O   0  0  0  0  0  0  0  0  0  0  0  0
   49.6390   33.7160   43.5790 H   0  0  0  0  0  0  0  0  0  0  0  0
   47.2480   32.8260   42.4760 O   0  0  0  0  0  0  0  0  0  0  0  0
   47.4230   32.0150   43.5660 C   0  0  0  0  0  0  0  0  0  0  0  0
   46.9160   32.3490   44.8060 C   0  0  0  0  0  0  0  0  0  0  0  0
   46.3670   33.2700   44.9200 H   0  0  0  0  0  0  0  0  0  0  0  0
   47.1200   31.4960   45.8720 C   0  0  0  0  0  0  0  0  0  0  0  0
   46.6810   31.8400   46.8230 H   0  0  0  0  0  0  0  0  0  0  0  0
   47.8140   30.3080   45.7690 C   0  0  0  0  0  0  0  0  0  0  0  0
   48.3260   29.9610   44.5430 C   0  0  0  0  0  0  0  0  0  0  0  0
   48.1130   30.8210   43.4990 C   0  0  0  0  0  0  0  0  0  0  0  0
   48.5200   30.5450   42.5250 H   0  0  0  0  0  0  0  0  0  0  0  0
   49.2290   28.4380   44.3700 S   0  0  0  0  0  0  0  0  0  0  0  0
   49.2330   27.6880   45.9870 C   0  0  0  0  0  0  0  0  0  0  0  0
   49.8740   26.5030   46.0860 C   0  0  0  0  0  0  0  0  0  0  0  0
   50.3640   26.0120   45.2560 H   0  0  0  0  0  0  0  0  0  0  0  0
   49.9300   25.8450   47.2970 C   0  0  0  0  0  0  0  0  0  0  0  0
   50.4420   24.8960   47.3820 H   0  0  0  0  0  0  0  0  0  0  0  0
   49.3200   26.4300   48.3880 C   0  0  0  0  0  0  0  0  0  0  0  0
   49.3400   25.9500   49.3550 H   0  0  0  0  0  0  0  0  0  0  0  0
   48.6830   27.6410   48.2110 C   0  0  0  0  0  0  0  0  0  0  0  0
   48.2170   28.0550   49.1140 H   0  0  0  0  0  0  0  0  0  0  0  0
   48.6020   28.3330   47.0200 C   0  0  0  0  0  0  0  0  0  0  0  0
   47.9210   29.5700   46.9600 N   0  0  0  0  0  0  0  0  0  0  0  0
   47.5040   29.9010   47.8550 H   0  0  0  0  0  0  0  0  0  0  0  0
  1  6  1  0  0  0  0
  1 16  1  0  0  0  0
  2  1  1  0  0  0  0
  3  4  1  0  0  0  0
  3  9  1  0  0  0  0
  3  2  1  0  0  0  0
  4 12  1  0  0  0  0
  4  5  1  0  0  0  0
  5 14  1  0  0  0  0
  5  6  1  0  0  0  0
  6 15  1  1  0  0  0
  6 31  1  0  0  0  0
  7  2  1  0  0  0  0
  8  2  1  0  0  0  0
 10  3  1  0  0  0  0
 11  4  1  0  0  0  0
 13  5  1  0  0  0  0
 16 18  1  0  0  0  0
 16 17  1  0  0  0  0
 19 16  1  0  0  0  0
 19 24  1  0  0  0  0
 20 19  1  0  0  0  0
 21 19  1  0  0  0  0
 22 28  1  0  0  0  0
 23 29  1  0  0  0  0
 23 22  2  0  0  0  0
 24 23  1  0  0  0  0
 25 24  2  0  0  0  0
 25 26  1  0  0  0  0
 26 27  2  0  0  0  0
 27 22  1  0  0  0  0
 30 26  1  0  0  0  0
 31 33  1  0  0  0  0
 33 32  2  1  0  0  0
 33 36  1  0  0  0  0
 33 34  1  0  0  0  0
 34 35  1  0  0  0  0
 36 37  1  0  0  0  0
 37 38  1  0  0  0  0
 38 39  1  0  0  0  0
 38 40  2  0  0  0  0
 40 41  1  0  0  0  0
 42 40  1  0  0  0  0
 42 57  1  0  0  0  0
 43 42  2  0  0  0  0
 44 37  2  0  0  0  0
 44 43  1  0  0  0  0
 45 44  1  0  0  0  0
 46 43  1  0  0  0  0
 46 47  1  0  0  0  0
 47 48  2  0  0  0  0
 47 56  1  0  0  0  0
 48 50  1  0  0  0  0
 49 48  1  0  0  0  0
 50 51  1  0  0  0  0
 50 52  2  0  0  0  0
 52 53  1  0  0  0  0
 54 52  1  0  0  0  0
 54 55  1  0  0  0  0
 56 54  2  0  0  0  0
 57 56  1  0  0  0  0
 57 58  1  0  0  0  0
M  END
>  <minimizedAffinity>
-4.14474726

>  <minimizedRMSD>
5.41765976

$$$$
