REMARK  Name = 
REMARK  3 active torsions:
REMARK  status: ('A' for Active; 'I' for Inactive)
REMARK    1  A    between atoms: C_2  and  N_12
REMARK    2  A    between atoms: C_11  and  S_13
REMARK    3  A    between atoms: S_13  and  C_25
REMARK                            x       y       z     vdW  Elec       q    Type
REMARK                         _______ _______ _______ _____ _____    ______ ____
ROOT
ATOM      1  C   UNL     1      44.480  35.741  44.999  0.00  0.00    +0.000 A 
ATOM      2  C   UNL     1      45.120  35.715  43.752  0.00  0.00    +0.000 A 
ATOM      3  C   UNL     1      46.026  34.722  43.482  0.00  0.00    +0.000 A 
ATOM      4  N   UNL     1      46.239  33.815  44.476  0.00  0.00    +0.000 NA
ATOM      5  C   UNL     1      45.625  33.851  45.658  0.00  0.00    +0.000 A 
ATOM      6  N   UNL     1      44.732  34.812  45.951  0.00  0.00    +0.000 NA
ATOM      7  N   UNL     1      45.943  32.841  46.604  0.00  0.00    +0.000 N 
ATOM      8  C   UNL     1      45.161  32.581  47.816  0.00  0.00    +0.000 C 
ATOM      9  C   UNL     1      46.250  32.236  48.808  0.00  0.00    +0.000 C 
ATOM     10  C   UNL     1      47.526  32.065  48.025  0.00  0.00    +0.000 C 
ATOM     11  C   UNL     1      47.026  31.896  46.610  0.00  0.00    +0.000 C 
ATOM     12  H   UNL     1      43.764  36.526  45.209  0.00  0.00    +0.000 HD
ATOM     13  H   UNL     1      46.509  34.706  42.534  0.00  0.00    +0.000 HD
ATOM     14  H   UNL     1      44.718  33.534  48.178  0.00  0.00    +0.000 HD
ATOM     15  H   UNL     1      44.399  31.811  47.688  0.00  0.00    +0.000 HD
ATOM     16  H   UNL     1      46.004  31.216  49.207  0.00  0.00    +0.000 HD
ATOM     17  H   UNL     1      46.325  32.934  49.653  0.00  0.00    +0.000 HD
ATOM     18  H   UNL     1      48.102  31.181  48.380  0.00  0.00    +0.000 HD
ATOM     19  H   UNL     1      48.097  33.014  48.127  0.00  0.00    +0.000 HD
ATOM     20  H   UNL     1      47.830  32.167  45.895  0.00  0.00    +0.000 HD
ENDROOT
BRANCH   2  21
ATOM     21  N   UNL     1      44.765  36.756  42.833  0.00  0.00    +0.000 N 
ATOM     22  H   UNL     1      44.699  36.538  41.828  0.00  0.00    +0.000 HD
ATOM     23  H   UNL     1      44.575  37.720  43.156  0.00  0.00    +0.000 HD
ENDBRANCH   2  21
BRANCH  11  24
ATOM     24  S   UNL     1      46.489  30.193  46.397  0.00  0.00    +0.000 S 
BRANCH  24  25
ATOM     25  C   UNL     1      45.788  29.864  44.810  0.00  0.00    +0.000 A 
ATOM     26  C   UNL     1      45.068  28.699  44.642  0.00  0.00    +0.000 A 
ATOM     27  H   UNL     1      44.933  27.990  45.475  0.00  0.00    +0.000 HD
ATOM     28  C   UNL     1      44.487  28.383  43.409  0.00  0.00    +0.000 A 
ATOM     29  H   UNL     1      43.938  27.454  43.356  0.00  0.00    +0.000 HD
ATOM     30  C   UNL     1      44.599  29.203  42.309  0.00  0.00    +0.000 A 
ATOM     31  C   UNL     1      45.325  30.343  42.537  0.00  0.00    +0.000 A 
ATOM     32  C   UNL     1      45.907  30.702  43.702  0.00  0.00    +0.000 A 
ATOM     33  H   UNL     1      46.467  31.606  43.834  0.00  0.00    +0.000 HD
ATOM     34  S   UNL     1      45.533  31.477  41.179  0.00  0.00    +0.000 S 
ATOM     35  C   UNL     1      44.676  30.778  39.785  0.00  0.00    +0.000 A 
ATOM     36  C   UNL     1      44.662  31.441  38.588  0.00  0.00    +0.000 A 
ATOM     37  H   UNL     1      45.180  32.401  38.494  0.00  0.00    +0.000 HD
ATOM     38  C   UNL     1      44.013  30.946  37.470  0.00  0.00    +0.000 A 
ATOM     39  H   UNL     1      44.000  31.467  36.525  0.00  0.00    +0.000 HD
ATOM     40  C   UNL     1      43.366  29.737  37.605  0.00  0.00    +0.000 A 
ATOM     41  H   UNL     1      42.850  29.325  36.750  0.00  0.00    +0.000 HD
ATOM     42  C   UNL     1      43.405  29.102  38.827  0.00  0.00    +0.000 A 
ATOM     43  H   UNL     1      42.863  28.147  38.839  0.00  0.00    +0.000 HD
ATOM     44  C   UNL     1      44.042  29.572  39.955  0.00  0.00    +0.000 A 
ATOM     45  N   UNL     1      43.972  28.785  41.119  0.00  0.00    +0.000 N 
ATOM     46  H   UNL     1      43.455  27.889  41.102  0.00  0.00    +0.000 HD
ENDBRANCH  24  25
ENDBRANCH  11  24
TORSDOF 3
