
     RDKit          3D

 32 35  0  0  0  0  0  0  0  0999 V2000
   44.2657   35.7348   44.2602 C   0  0  0  0  0  0  0  0  0  0  0  0
   44.4245   34.9069   43.1228 C   0  0  0  0  0  0  0  0  0  0  0  0
   45.0639   33.6851   43.2834 C   0  0  0  0  0  0  0  0  0  0  0  0
   45.5120   33.3291   44.5194 N   0  0  0  0  0  0  0  0  0  0  0  0
   45.3403   34.1507   45.5844 C   0  0  0  0  0  0  0  0  0  0  0  0
   44.7283   35.3362   45.4663 N   0  0  0  0  0  0  0  0  0  0  0  0
   43.8032   35.4564   41.5345 S   0  0  0  0  0  0  0  0  0  0  0  0
   43.7731   36.6728   44.1290 H   0  0  0  0  0  0  0  0  0  0  0  0
   45.1965   33.0411   42.4401 H   0  0  0  0  0  0  0  0  0  0  0  0
   45.7455   33.7382   46.4987 H   0  0  0  0  0  0  0  0  0  0  0  0
   42.1205   34.8690   41.4125 C   0  0  0  0  0  0  0  0  0  0  0  0
   41.1034   35.6840   40.9605 C   0  0  0  0  0  0  0  0  0  0  0  0
   41.3110   36.7032   40.6695 H   0  0  0  0  0  0  0  0  0  0  0  0
   39.8311   35.1545   40.8958 C   0  0  0  0  0  0  0  0  0  0  0  0
   39.0741   35.8457   40.5320 H   0  0  0  0  0  0  0  0  0  0  0  0
   39.4775   33.8678   41.2461 C   0  0  0  0  0  0  0  0  0  0  0  0
   40.5270   33.1011   41.6884 C   0  0  0  0  0  0  0  0  0  0  0  0
   41.8067   33.5785   41.7714 C   0  0  0  0  0  0  0  0  0  0  0  0
   42.6219   32.9564   42.1236 H   0  0  0  0  0  0  0  0  0  0  0  0
   40.2201   31.4204   42.1748 S   0  0  0  0  0  0  0  0  0  0  0  0
   38.4747   31.1473   41.9395 C   0  0  0  0  0  0  0  0  0  0  0  0
   37.9425   29.9404   42.2309 C   0  0  0  0  0  0  0  0  0  0  0  0
   38.5852   29.1328   42.6110 H   0  0  0  0  0  0  0  0  0  0  0  0
   36.5898   29.6545   42.0725 C   0  0  0  0  0  0  0  0  0  0  0  0
   36.1863   28.6910   42.3091 H   0  0  0  0  0  0  0  0  0  0  0  0
   35.8068   30.6818   41.5954 C   0  0  0  0  0  0  0  0  0  0  0  0
   34.7519   30.4798   41.4651 H   0  0  0  0  0  0  0  0  0  0  0  0
   36.3784   31.8888   41.3112 C   0  0  0  0  0  0  0  0  0  0  0  0
   35.6781   32.6426   40.9378 H   0  0  0  0  0  0  0  0  0  0  0  0
   37.7157   32.1882   41.4624 C   0  0  0  0  0  0  0  0  0  0  0  0
   38.1477   33.4812   41.1246 N   0  0  0  0  0  0  0  0  0  0  0  0
   37.4508   34.1703   40.7726 H   0  0  0  0  0  0  0  0  0  0  0  0
  1  6  2  0
  2  3  2  0
  2  1  1  0
  3  4  1  0
  4  5  2  0
  6  5  1  0
  7  2  1  0
  1  8  1  0
  3  9  1  0
  5 10  1  0
 11 12  2  0
 12 13  1  0
 12 14  1  0
 14 15  1  0
 14 16  2  0
 16 17  1  0
 17 18  2  0
 18 19  1  0
 17 20  1  0
 20 21  1  0
 21 22  2  0
 22 23  1  0
 22 24  1  0
 24 25  1  0
 24 26  2  0
 26 27  1  0
 26 28  1  0
 28 29  1  0
 28 30  2  0
 30 31  1  0
 31 32  1  0
 18 11  1  0
 30 21  1  0
 31 16  1  0
  7 11  1  0
M  ISO  8   8  14   9  14  10  14  13  16  15  16  19  16  23  16  25  16
M  ISO  3  27  16  29  16  32   5
M  END
>  <DihAtoms>  (1) 
1,6,10,11

>  <DihDeg>  (1) 
0.000349000965444096

$$$$
