
     RDKit          3D

 32 35  0  0  0  0  0  0  0  0999 V2000
   44.2657   35.7348   44.2602 C   0  0  0  0  0  0  0  0  0  0  0  0
   44.4245   34.9069   43.1228 C   0  0  0  0  0  0  0  0  0  0  0  0
   45.0639   33.6851   43.2834 C   0  0  0  0  0  0  0  0  0  0  0  0
   45.5120   33.3291   44.5194 N   0  0  0  0  0  0  0  0  0  0  0  0
   45.3403   34.1507   45.5844 C   0  0  0  0  0  0  0  0  0  0  0  0
   44.7283   35.3362   45.4663 N   0  0  0  0  0  0  0  0  0  0  0  0
   43.8032   35.4564   41.5345 S   0  0  0  0  0  0  0  0  0  0  0  0
   43.7731   36.6728   44.1290 H   0  0  0  0  0  0  0  0  0  0  0  0
   45.1965   33.0411   42.4401 H   0  0  0  0  0  0  0  0  0  0  0  0
   45.7455   33.7382   46.4987 H   0  0  0  0  0  0  0  0  0  0  0  0
   42.1205   34.8690   41.4125 C   0  0  0  0  0  0  0  0  0  0  0  0
   41.0620   35.7404   41.2595 C   0  0  0  0  0  0  0  0  0  0  0  0
   41.2362   36.8052   41.2104 H   0  0  0  0  0  0  0  0  0  0  0  0
   39.7927   35.2068   41.1729 C   0  0  0  0  0  0  0  0  0  0  0  0
   39.0020   35.9440   41.0533 H   0  0  0  0  0  0  0  0  0  0  0  0
   39.4803   33.8641   41.2260 C   0  0  0  0  0  0  0  0  0  0  0  0
   40.5698   33.0428   41.3788 C   0  0  0  0  0  0  0  0  0  0  0  0
   41.8484   33.5217   41.4697 C   0  0  0  0  0  0  0  0  0  0  0  0
   42.6957   32.8559   41.5902 H   0  0  0  0  0  0  0  0  0  0  0  0
   40.3185   31.2863   41.4631 S   0  0  0  0  0  0  0  0  0  0  0  0
   38.5613   31.0294   41.3138 C   0  0  0  0  0  0  0  0  0  0  0  0
   38.0651   29.7734   41.3442 C   0  0  0  0  0  0  0  0  0  0  0  0
   38.7443   28.9161   41.4607 H   0  0  0  0  0  0  0  0  0  0  0  0
   36.7058   29.4965   41.2335 C   0  0  0  0  0  0  0  0  0  0  0  0
   36.3313   28.4933   41.2599 H   0  0  0  0  0  0  0  0  0  0  0  0
   35.8769   30.5864   41.0886 C   0  0  0  0  0  0  0  0  0  0  0  0
   34.8160   30.3924   41.0009 H   0  0  0  0  0  0  0  0  0  0  0  0
   36.4129   31.8419   41.0619 C   0  0  0  0  0  0  0  0  0  0  0  0
   35.6773   32.6438   40.9435 H   0  0  0  0  0  0  0  0  0  0  0  0
   37.7561   32.1332   41.1703 C   0  0  0  0  0  0  0  0  0  0  0  0
   38.1477   33.4812   41.1243 N   0  0  0  0  0  0  0  0  0  0  0  0
   37.4179   34.2152   41.0106 H   0  0  0  0  0  0  0  0  0  0  0  0
  1  6  2  0
  2  3  2  0
  2  1  1  0
  3  4  1  0
  4  5  2  0
  6  5  1  0
  7  2  1  0
  1  8  1  0
  3  9  1  0
  5 10  1  0
 11 12  2  0
 12 13  1  0
 12 14  1  0
 14 15  1  0
 14 16  2  0
 16 17  1  0
 17 18  2  0
 18 19  1  0
 17 20  1  0
 20 21  1  0
 21 22  2  0
 22 23  1  0
 22 24  1  0
 24 25  1  0
 24 26  2  0
 26 27  1  0
 26 28  1  0
 28 29  1  0
 28 30  2  0
 30 31  1  0
 31 32  1  0
 18 11  1  0
 30 21  1  0
 31 16  1  0
  7 11  1  0
M  ISO  8   8  14   9  14  10  14  13  16  15  16  19  16  23  16  25  16
M  ISO  3  27  16  29  16  32   5
M  END
>  <DihAtoms>  (1) 
1,6,10,11

>  <DihDeg>  (1) 
0.000349000965444096

$$$$
