
     RDKit          3D

 46 50  0  0  0  0  0  0  0  0999 V2000
   44.4803   35.7409   44.9995 C   0  0  0  0  0  0  0  0  0  0  0  0
   45.1196   35.7148   43.7515 C   0  0  0  0  0  0  0  0  0  0  0  0
   46.0263   34.7219   43.4818 C   0  0  0  0  0  0  0  0  0  0  0  0
   46.2391   33.8154   44.4757 N   0  0  0  0  0  0  0  0  0  0  0  0
   45.6251   33.8511   45.6581 C   0  0  0  0  0  0  0  0  0  0  0  0
   44.7319   34.8116   45.9514 N   0  0  0  0  0  0  0  0  0  0  0  0
   45.9428   32.8414   46.6036 N   0  0  0  0  0  0  0  0  0  0  0  0
   45.1614   32.5815   47.8160 C   0  0  0  0  0  0  0  0  0  0  0  0
   46.2501   32.2359   48.8080 C   0  0  0  0  0  0  0  0  0  0  0  0
   47.5261   32.0645   48.0247 C   0  0  0  0  0  0  0  0  0  0  0  0
   47.0257   31.8957   46.6102 C   0  0  1  0  0  0  0  0  0  0  0  0
   44.7649   36.7564   42.8333 N   0  0  0  0  0  0  0  0  0  0  0  0
   46.4887   30.1930   46.3973 S   0  0  0  0  0  0  0  0  0  0  0  0
   43.7645   36.5262   45.2092 H   0  0  0  0  0  0  0  0  0  0  0  0
   46.5090   34.7062   42.5340 H   0  0  0  0  0  0  0  0  0  0  0  0
   44.7178   33.5340   48.1776 H   0  0  0  0  0  0  0  0  0  0  0  0
   44.3987   31.8113   47.6877 H   0  0  0  0  0  0  0  0  0  0  0  0
   46.0044   31.2159   49.2070 H   0  0  0  0  0  0  0  0  0  0  0  0
   46.3251   32.9343   49.6534 H   0  0  0  0  0  0  0  0  0  0  0  0
   48.1016   31.1811   48.3795 H   0  0  0  0  0  0  0  0  0  0  0  0
   48.0970   33.0138   48.1275 H   0  0  0  0  0  0  0  0  0  0  0  0
   47.8299   32.1672   45.8955 H   0  0  0  0  0  0  0  0  0  0  0  0
   44.6989   36.5381   41.8285 H   0  0  0  0  0  0  0  0  0  0  0  0
   44.5745   37.7197   43.1556 H   0  0  0  0  0  0  0  0  0  0  0  0
   45.7883   29.8644   44.8097 C   0  0  0  0  0  0  0  0  0  0  0  0
   46.1789   28.7175   44.1481 C   0  0  0  0  0  0  0  0  0  0  0  0
   46.9090   28.0244   44.5958 H   0  0  0  0  0  0  0  0  0  0  0  0
   45.6589   28.4010   42.8888 C   0  0  0  0  0  0  0  0  0  0  0  0
   46.0119   27.4862   42.4343 H   0  0  0  0  0  0  0  0  0  0  0  0
   44.7423   29.2018   42.2463 C   0  0  0  0  0  0  0  0  0  0  0  0
   44.3936   30.3244   42.9514 C   0  0  0  0  0  0  0  0  0  0  0  0
   44.8604   30.6826   44.1677 C   0  0  0  0  0  0  0  0  0  0  0  0
   44.5582   31.5725   44.6826 H   0  0  0  0  0  0  0  0  0  0  0  0
   43.2125   31.4338   42.2116 S   0  0  0  0  0  0  0  0  0  0  0  0
   42.7616   30.7356   40.6380 C   0  0  0  0  0  0  0  0  0  0  0  0
   41.8555   31.3785   39.8389 C   0  0  0  0  0  0  0  0  0  0  0  0
   41.4116   32.3216   40.1726 H   0  0  0  0  0  0  0  0  0  0  0  0
   41.4678   30.8832   38.6062 C   0  0  0  0  0  0  0  0  0  0  0  0
   40.7534   31.3877   37.9731 H   0  0  0  0  0  0  0  0  0  0  0  0
   42.0361   29.6955   38.2001 C   0  0  0  0  0  0  0  0  0  0  0  0
   41.7526   29.2840   37.2424 H   0  0  0  0  0  0  0  0  0  0  0  0
   42.9438   29.0809   39.0350 C   0  0  0  0  0  0  0  0  0  0  0  0
   43.3427   28.1418   38.6289 H   0  0  0  0  0  0  0  0  0  0  0  0
   43.3471   29.5511   40.2657 C   0  0  0  0  0  0  0  0  0  0  0  0
   44.2853   28.7842   40.9807 N   0  0  0  0  0  0  0  0  0  0  0  0
   44.6447   27.9035   40.5737 H   0  0  0  0  0  0  0  0  0  0  0  0
  1  6  2  0
  2  1  1  0
  3  2  2  0
  3  4  1  0
  4  5  2  0
  5  6  1  0
  5  7  1  0
  7 11  1  0
  7  8  1  0
  8  9  1  0
 10  9  1  0
 11 10  1  0
 12  2  1  0
 13 11  1  0
  1 14  1  0
  3 15  1  0
  8 16  1  0
  8 17  1  0
  9 18  1  0
  9 19  1  0
 10 20  1  0
 10 21  1  0
 11 22  1  6
 12 23  1  0
 12 24  1  0
 25 26  2  0
 26 27  1  0
 26 28  1  0
 28 29  1  0
 28 30  2  0
 30 31  1  0
 31 32  2  0
 32 33  1  0
 31 34  1  0
 34 35  1  0
 35 36  2  0
 36 37  1  0
 36 38  1  0
 38 39  1  0
 38 40  2  0
 40 41  1  0
 40 42  1  0
 42 43  1  0
 42 44  2  0
 44 45  1  0
 45 46  1  0
 32 25  1  0
 44 35  1  0
 45 30  1  0
 13 25  1  0
M  ISO  8  14  14  15  14  16  13  17  13  18  13  19  13  20  13  21  13
M  ISO  8  22  13  27  16  29  16  33  16  37  16  39  16  41  16  43  16
M  ISO  1  46   5
M  END
>  <DihAtoms>  (1) 
10,12,24,25

>  <DihDeg>  (1) 
-90.14293415497743

$$$$
