
 OpenBabel03242523123D

 59 65  0  0  1  0  0  0  0  0999 V2000
   46.0620   31.7990   45.3160 C   0  0  0  0  0  0  0  0  0  0  0  0
   46.5810   32.6610   44.3250 C   0  0  0  0  0  0  0  0  0  0  0  0
   47.6350   32.0790   43.6620 C   0  0  0  0  0  0  0  0  0  0  0  0
   48.1460   30.8410   43.8980 C   0  0  0  0  0  0  0  0  0  0  0  0
   47.5790   30.0550   44.8970 C   0  0  0  0  0  0  0  0  0  0  0  0
   46.5200   30.5450   45.6140 C   0  0  0  0  0  0  0  0  0  0  0  0
   48.3160   28.8820   44.8880 O   0  0  0  0  0  0  0  0  0  0  0  0
   49.2870   28.9210   43.8610 C   0  0  2  0  0  0  0  0  0  0  0  0
   49.1990   30.2090   43.2630 O   0  0  0  0  0  0  0  0  0  0  0  0
   45.2120   31.9540   46.0160 H   0  0  0  0  0  0  0  0  0  0  0  0
   48.0340   32.6990   42.9230 H   0  0  0  0  0  0  0  0  0  0  0  0
   46.1750   29.8610   46.3400 H   0  0  0  0  0  0  0  0  0  0  0  0
   50.3040   28.7650   44.2830 H   0  0  0  0  0  0  0  0  0  0  0  0
   45.1270   36.0390   43.6100 C   0  0  0  0  0  0  0  0  0  0  0  0
   45.8620   34.8870   43.3360 C   0  0  0  0  0  0  0  0  0  0  0  0
   45.9510   33.9060   44.2780 C   0  0  0  0  0  0  0  0  0  0  0  0
   45.2990   34.1200   45.4620 N   0  0  0  0  0  0  0  0  0  0  0  0
   44.5930   35.2260   45.7230 C   0  0  0  0  0  0  0  0  0  0  0  0
   44.5120   36.1630   44.8130 N   0  0  0  0  0  0  0  0  0  0  0  0
   45.0500   36.8210   42.8720 H   0  0  0  0  0  0  0  0  0  0  0  0
   44.0580   35.4530   46.6350 H   0  0  0  0  0  0  0  0  0  0  0  0
   46.5010   34.8170   42.0980 N   0  0  0  0  0  0  0  0  0  0  0  0
   47.8170   35.3320   41.8940 C   0  0  0  0  0  0  0  0  0  0  0  0
   48.4190   35.0180   40.5530 C   0  0  0  0  0  0  0  0  0  0  0  0
   48.1370   33.7470   40.0680 N   0  0  0  0  0  0  0  0  0  0  0  0
   46.8690   33.2620   40.2320 C   0  0  0  0  0  0  0  0  0  0  0  0
   45.9670   34.2590   40.9190 C   0  0  0  0  0  0  0  0  0  0  0  0
   48.5420   35.0720   42.7000 H   0  0  0  0  0  0  0  0  0  0  0  0
   47.7320   36.4530   41.9610 H   0  0  0  0  0  0  0  0  0  0  0  0
   47.9980   35.7730   39.8280 H   0  0  0  0  0  0  0  0  0  0  0  0
   49.5000   35.2670   40.6030 H   0  0  0  0  0  0  0  0  0  0  0  0
   48.8030   33.2880   39.4480 H   0  0  0  0  0  0  0  0  0  0  0  0
   46.7680   32.2810   40.7610 H   0  0  0  0  0  0  0  0  0  0  0  0
   46.3970   33.0610   39.2260 H   0  0  0  0  0  0  0  0  0  0  0  0
   45.0470   33.6770   41.2040 H   0  0  0  0  0  0  0  0  0  0  0  0
   45.6470   34.9890   40.1360 H   0  0  0  0  0  0  0  0  0  0  0  0
   48.9310   27.9540   42.9160 O   0  0  0  0  0  0  0  0  0  0  0  0
   49.1980   27.9570   41.5780 C   0  0  0  0  0  0  0  0  0  0  0  0
   48.2850   27.8940   40.5450 C   0  0  0  0  0  0  0  0  0  0  0  0
   47.2430   27.8370   40.8240 H   0  0  0  0  0  0  0  0  0  0  0  0
   48.7440   27.9080   39.2460 C   0  0  0  0  0  0  0  0  0  0  0  0
   47.9530   27.8550   38.4900 H   0  0  0  0  0  0  0  0  0  0  0  0
   50.0700   27.9800   38.8940 C   0  0  0  0  0  0  0  0  0  0  0  0
   50.9570   28.0410   39.9180 C   0  0  0  0  0  0  0  0  0  0  0  0
   50.5440   28.0300   41.2010 C   0  0  0  0  0  0  0  0  0  0  0  0
   51.3130   28.0820   41.9860 H   0  0  0  0  0  0  0  0  0  0  0  0
   52.6960   28.1370   39.5400 S   0  0  0  0  0  0  0  0  0  0  0  0
   52.7890   28.1250   37.7590 C   0  0  0  0  0  0  0  0  0  0  0  0
   54.0630   28.1930   37.2550 C   0  0  0  0  0  0  0  0  0  0  0  0
   54.9730   28.2510   37.8650 H   0  0  0  0  0  0  0  0  0  0  0  0
   54.2430   28.1900   35.8800 C   0  0  0  0  0  0  0  0  0  0  0  0
   55.2100   28.2410   35.3990 H   0  0  0  0  0  0  0  0  0  0  0  0
   53.1340   28.1180   35.0630 C   0  0  0  0  0  0  0  0  0  0  0  0
   53.2600   28.1150   33.9900 H   0  0  0  0  0  0  0  0  0  0  0  0
   51.8930   28.0530   35.6630 C   0  0  0  0  0  0  0  0  0  0  0  0
   51.0610   27.9980   34.9430 H   0  0  0  0  0  0  0  0  0  0  0  0
   51.6560   28.0520   37.0220 C   0  0  0  0  0  0  0  0  0  0  0  0
   50.3570   27.9830   37.5220 N   0  0  0  0  0  0  0  0  0  0  0  0
   49.5930   27.9320   36.8140 H   0  0  0  0  0  0  0  0  0  0  0  0
  1  6  1  0  0  0  0
  1 10  1  0  0  0  0
  2  1  2  0  0  0  0
  3  4  2  0  0  0  0
  3  2  1  0  0  0  0
  4  5  1  0  0  0  0
  5  6  2  0  0  0  0
  6 12  1  0  0  0  0
  7  5  1  0  0  0  0
  8 13  1  1  0  0  0
  8  7  1  0  0  0  0
  9  8  1  0  0  0  0
  9  4  1  0  0  0  0
 11  3  1  0  0  0  0
 14 19  1  0  0  0  0
 15 14  2  0  0  0  0
 15 16  1  0  0  0  0
 16  2  1  0  0  0  0
 16 17  2  0  0  0  0
 17 18  1  0  0  0  0
 18 21  1  0  0  0  0
 19 18  2  0  0  0  0
 20 14  1  0  0  0  0
 22 15  1  0  0  0  0
 23 29  1  0  0  0  0
 23 22  1  0  0  0  0
 23 28  1  0  0  0  0
 24 31  1  0  0  0  0
 24 23  1  0  0  0  0
 25 26  1  0  0  0  0
 25 24  1  0  0  0  0
 26 33  1  0  0  0  0
 26 27  1  0  0  0  0
 27 35  1  0  0  0  0
 27 22  1  0  0  0  0
 30 24  1  0  0  0  0
 32 25  1  0  0  0  0
 34 26  1  0  0  0  0
 36 27  1  0  0  0  0
 37  8  1  0  0  0  0
 38 37  1  0  0  0  0
 39 40  1  0  0  0  0
 39 38  2  0  0  0  0
 41 39  1  0  0  0  0
 42 41  1  0  0  0  0
 43 41  2  0  0  0  0
 43 44  1  0  0  0  0
 44 45  2  0  0  0  0
 45 38  1  0  0  0  0
 45 46  1  0  0  0  0
 47 44  1  0  0  0  0
 48 47  1  0  0  0  0
 49 48  1  0  0  0  0
 49 50  1  0  0  0  0
 51 49  2  0  0  0  0
 52 51  1  0  0  0  0
 53 55  2  0  0  0  0
 53 51  1  0  0  0  0
 54 53  1  0  0  0  0
 55 57  1  0  0  0  0
 56 55  1  0  0  0  0
 57 58  1  0  0  0  0
 57 48  2  0  0  0  0
 58 43  1  0  0  0  0
 59 58  1  0  0  0  0
M  END
>  <minimizedAffinity>
-4.92683029

>  <minimizedRMSD>
3.05267143

$$$$
