
 OpenBabel03252502243D

 47 51  0  0  1  0  0  0  0  0999 V2000
   47.0250   34.5820   42.2310 N   0  0  0  0  0  0  0  0  0  0  0  0
   48.4390   34.9130   42.2630 C   0  0  0  0  0  0  0  0  0  0  0  0
   48.6650   35.6260   40.9110 C   0  0  0  0  0  0  0  0  0  0  0  0
   48.5010   34.6130   39.8070 C   0  0  0  0  0  0  0  0  0  0  0  0
   47.3140   33.7390   39.9530 C   0  0  0  0  0  0  0  0  0  0  0  0
   46.3630   34.0890   41.0500 C   0  0  1  0  0  0  0  0  0  0  0  0
   49.0500   33.9890   42.2890 H   0  0  0  0  0  0  0  0  0  0  0  0
   48.6360   35.6040   43.0950 H   0  0  0  0  0  0  0  0  0  0  0  0
   49.6810   36.0330   40.9000 H   0  0  0  0  0  0  0  0  0  0  0  0
   47.8620   36.3920   40.8350 H   0  0  0  0  0  0  0  0  0  0  0  0
   49.4240   33.9800   39.8220 H   0  0  0  0  0  0  0  0  0  0  0  0
   48.5460   35.1490   38.8330 H   0  0  0  0  0  0  0  0  0  0  0  0
   47.5950   32.6580   40.0380 H   0  0  0  0  0  0  0  0  0  0  0  0
   46.7330   33.7930   39.0030 H   0  0  0  0  0  0  0  0  0  0  0  0
   45.6590   34.8820   40.7360 H   0  0  0  0  0  0  0  0  0  0  0  0
   44.5140   35.8550   44.7040 C   0  0  0  0  0  0  0  0  0  0  0  0
   45.2560   35.7770   43.5180 C   0  0  0  0  0  0  0  0  0  0  0  0
   46.2180   34.7400   43.4100 C   0  0  0  0  0  0  0  0  0  0  0  0
   46.3590   33.8920   44.4580 N   0  0  0  0  0  0  0  0  0  0  0  0
   45.6210   34.0030   45.5880 C   0  0  0  0  0  0  0  0  0  0  0  0
   44.7000   34.9900   45.7010 N   0  0  0  0  0  0  0  0  0  0  0  0
   43.8200   36.6880   44.6530 H   0  0  0  0  0  0  0  0  0  0  0  0
   45.1700   36.4320   42.6680 H   0  0  0  0  0  0  0  0  0  0  0  0
   45.7400   33.3250   46.4110 H   0  0  0  0  0  0  0  0  0  0  0  0
   45.6360   32.9460   41.3760 O   0  0  0  0  0  0  0  0  0  0  0  0
   44.5670   32.4120   40.6810 C   0  0  0  0  0  0  0  0  0  0  0  0
   44.3280   31.1090   40.3010 C   0  0  0  0  0  0  0  0  0  0  0  0
   45.0820   30.4150   40.5870 H   0  0  0  0  0  0  0  0  0  0  0  0
   43.1750   30.8120   39.6050 C   0  0  0  0  0  0  0  0  0  0  0  0
   43.0850   29.7450   39.3520 H   0  0  0  0  0  0  0  0  0  0  0  0
   42.2140   31.7310   39.2470 C   0  0  0  0  0  0  0  0  0  0  0  0
   42.4540   33.0290   39.6270 C   0  0  0  0  0  0  0  0  0  0  0  0
   43.5910   33.3440   40.3170 C   0  0  0  0  0  0  0  0  0  0  0  0
   43.6940   34.4050   40.5760 H   0  0  0  0  0  0  0  0  0  0  0  0
   41.2520   34.2720   39.1960 S   0  0  0  0  0  0  0  0  0  0  0  0
   39.9610   33.4290   38.3210 C   0  0  0  0  0  0  0  0  0  0  0  0
   38.9250   34.2030   37.8930 C   0  0  0  0  0  0  0  0  0  0  0  0
   38.8670   35.2570   38.0620 H   0  0  0  0  0  0  0  0  0  0  0  0
   37.8780   33.6230   37.2030 C   0  0  0  0  0  0  0  0  0  0  0  0
   37.0090   34.1440   36.8200 H   0  0  0  0  0  0  0  0  0  0  0  0
   37.9190   32.2650   36.9670 C   0  0  0  0  0  0  0  0  0  0  0  0
   37.1160   31.7780   36.4290 H   0  0  0  0  0  0  0  0  0  0  0  0
   38.9990   31.5410   37.4280 C   0  0  0  0  0  0  0  0  0  0  0  0
   38.9680   30.4650   37.2070 H   0  0  0  0  0  0  0  0  0  0  0  0
   40.0660   32.0760   38.1210 C   0  0  0  0  0  0  0  0  0  0  0  0
   41.1030   31.2310   38.5360 N   0  0  0  0  0  0  0  0  0  0  0  0
   41.0320   30.2200   38.3040 H   0  0  0  0  0  0  0  0  0  0  0  0
  1  2  1  0  0  0  0
  1 18  1  0  0  0  0
  2  7  1  0  0  0  0
  2  8  1  0  0  0  0
  3  2  1  0  0  0  0
  4 11  1  0  0  0  0
  4  5  1  0  0  0  0
  4  3  1  0  0  0  0
  5 13  1  0  0  0  0
  5  6  1  0  0  0  0
  6 15  1  6  0  0  0
  6 25  1  0  0  0  0
  6  1  1  0  0  0  0
  9  3  1  0  0  0  0
 10  3  1  0  0  0  0
 12  4  1  0  0  0  0
 14  5  1  0  0  0  0
 16 21  1  0  0  0  0
 17 16  2  0  0  0  0
 18 17  1  0  0  0  0
 18 19  2  0  0  0  0
 19 20  1  0  0  0  0
 20 21  2  0  0  0  0
 20 24  1  0  0  0  0
 22 16  1  0  0  0  0
 23 17  1  0  0  0  0
 26 25  1  0  0  0  0
 27 28  1  0  0  0  0
 27 26  2  0  0  0  0
 29 27  1  0  0  0  0
 30 29  1  0  0  0  0
 31 29  2  0  0  0  0
 31 32  1  0  0  0  0
 32 33  2  0  0  0  0
 33 34  1  0  0  0  0
 33 26  1  0  0  0  0
 35 32  1  0  0  0  0
 36 35  1  0  0  0  0
 37 38  1  0  0  0  0
 37 36  2  0  0  0  0
 39 37  1  0  0  0  0
 40 39  1  0  0  0  0
 41 39  2  0  0  0  0
 41 43  1  0  0  0  0
 42 41  1  0  0  0  0
 43 45  2  0  0  0  0
 44 43  1  0  0  0  0
 45 36  1  0  0  0  0
 45 46  1  0  0  0  0
 46 31  1  0  0  0  0
 47 46  1  0  0  0  0
M  END
>  <minimizedAffinity>
-6.81230974

>  <minimizedRMSD>
2.62967682

$$$$
