
 OpenBabel03242517433D

 32 35  0  0  0  0  0  0  0  0999 V2000
   42.1680   34.6610   41.4360 C   0  0  0  0  0  0  0  0  0  0  0  0
   40.9660   35.3320   41.3790 C   0  0  0  0  0  0  0  0  0  0  0  0
   40.9420   36.4110   41.4100 H   0  0  0  0  0  0  0  0  0  0  0  0
   39.8110   34.5820   41.2820 C   0  0  0  0  0  0  0  0  0  0  0  0
   38.8960   35.1690   41.2400 H   0  0  0  0  0  0  0  0  0  0  0  0
   39.7490   33.2050   41.2360 C   0  0  0  0  0  0  0  0  0  0  0  0
   40.9740   32.5890   41.2960 C   0  0  0  0  0  0  0  0  0  0  0  0
   42.1480   33.2860   41.3930 C   0  0  0  0  0  0  0  0  0  0  0  0
   43.1050   32.7790   41.4390 H   0  0  0  0  0  0  0  0  0  0  0  0
   41.0480   30.8140   41.2460 S   0  0  0  0  0  0  0  0  0  0  0  0
   39.3620   30.2520   41.1200 C   0  0  0  0  0  0  0  0  0  0  0  0
   39.1030   28.9270   41.0630 C   0  0  0  0  0  0  0  0  0  0  0  0
   39.9300   28.2020   41.0940 H   0  0  0  0  0  0  0  0  0  0  0  0
   37.8130   28.4140   40.9640 C   0  0  0  0  0  0  0  0  0  0  0  0
   37.6280   27.3610   40.9200 H   0  0  0  0  0  0  0  0  0  0  0  0
   36.7950   29.3410   40.9270 C   0  0  0  0  0  0  0  0  0  0  0  0
   35.7850   28.9630   40.8500 H   0  0  0  0  0  0  0  0  0  0  0  0
   37.0940   30.6720   40.9870 C   0  0  0  0  0  0  0  0  0  0  0  0
   36.2210   31.3330   40.9510 H   0  0  0  0  0  0  0  0  0  0  0  0
   38.3650   31.1960   41.0840 C   0  0  0  0  0  0  0  0  0  0  0  0
   38.5050   32.5930   41.1360 N   0  0  0  0  0  0  0  0  0  0  0  0
   37.6510   33.1870   41.0990 H   0  0  0  0  0  0  0  0  0  0  0  0
   43.7210   35.5360   41.5630 S   0  0  0  0  0  0  0  0  0  0  0  0
   44.2050   35.6430   44.2970 C   0  0  0  0  0  0  0  0  0  0  0  0
   44.5000   34.9840   43.0800 C   0  0  0  0  0  0  0  0  0  0  0  0
   45.3920   33.9200   43.1070 C   0  0  0  0  0  0  0  0  0  0  0  0
   45.9470   33.5520   44.2940 N   0  0  0  0  0  0  0  0  0  0  0  0
   45.6380   34.2100   45.4400 C   0  0  0  0  0  0  0  0  0  0  0  0
   44.7820   35.2390   45.4500 N   0  0  0  0  0  0  0  0  0  0  0  0
   43.5170   36.4600   44.2680 H   0  0  0  0  0  0  0  0  0  0  0  0
   45.6310   33.4050   42.2010 H   0  0  0  0  0  0  0  0  0  0  0  0
   46.1530   33.8080   46.3030 H   0  0  0  0  0  0  0  0  0  0  0  0
  1 23  1  0  0  0  0
  2  3  1  0  0  0  0
  2  1  2  0  0  0  0
  4  2  1  0  0  0  0
  5  4  1  0  0  0  0
  6  4  2  0  0  0  0
  6  7  1  0  0  0  0
  7  8  2  0  0  0  0
  8  1  1  0  0  0  0
  8  9  1  0  0  0  0
 10  7  1  0  0  0  0
 11 10  1  0  0  0  0
 12 13  1  0  0  0  0
 12 11  2  0  0  0  0
 14 12  1  0  0  0  0
 15 14  1  0  0  0  0
 16 14  2  0  0  0  0
 16 18  1  0  0  0  0
 17 16  1  0  0  0  0
 18 20  2  0  0  0  0
 19 18  1  0  0  0  0
 20 11  1  0  0  0  0
 20 21  1  0  0  0  0
 21  6  1  0  0  0  0
 22 21  1  0  0  0  0
 23 25  1  0  0  0  0
 24 29  1  0  0  0  0
 25 26  1  0  0  0  0
 25 24  2  0  0  0  0
 26 27  2  0  0  0  0
 27 28  1  0  0  0  0
 28 29  2  0  0  0  0
 28 32  1  0  0  0  0
 30 24  1  0  0  0  0
 31 26  1  0  0  0  0
M  END
>  <minimizedAffinity>
-5.66087389

>  <minimizedRMSD>
0.887120128

$$$$
