
 OpenBabel03242516423D

 45 48  0  0  0  0  0  0  0  0999 V2000
   43.0070   31.8500   38.3510 O   0  0  0  0  0  0  0  0  0  0  0  0
   41.9500   31.0180   38.6550 C   0  0  0  0  0  0  0  0  0  0  0  0
   41.2070   30.3130   37.7310 C   0  0  0  0  0  0  0  0  0  0  0  0
   41.4540   30.4060   36.7020 H   0  0  0  0  0  0  0  0  0  0  0  0
   40.1730   29.5160   38.1770 C   0  0  0  0  0  0  0  0  0  0  0  0
   39.6390   28.9960   37.3900 H   0  0  0  0  0  0  0  0  0  0  0  0
   39.8040   29.3540   39.4940 C   0  0  0  0  0  0  0  0  0  0  0  0
   40.5680   30.0720   40.3770 C   0  0  0  0  0  0  0  0  0  0  0  0
   41.6040   30.8760   39.9820 C   0  0  0  0  0  0  0  0  0  0  0  0
   42.1800   31.4270   40.7430 H   0  0  0  0  0  0  0  0  0  0  0  0
   40.2050   29.9600   42.1160 S   0  0  0  0  0  0  0  0  0  0  0  0
   38.8250   28.8470   42.2660 C   0  0  0  0  0  0  0  0  0  0  0  0
   38.2940   28.5440   43.4890 C   0  0  0  0  0  0  0  0  0  0  0  0
   38.7450   29.0060   44.3740 H   0  0  0  0  0  0  0  0  0  0  0  0
   37.2260   27.6920   43.6800 C   0  0  0  0  0  0  0  0  0  0  0  0
   36.8730   27.5100   44.6850 H   0  0  0  0  0  0  0  0  0  0  0  0
   36.6940   27.1360   42.5350 C   0  0  0  0  0  0  0  0  0  0  0  0
   35.8550   26.4610   42.6320 H   0  0  0  0  0  0  0  0  0  0  0  0
   37.2330   27.4460   41.3050 C   0  0  0  0  0  0  0  0  0  0  0  0
   36.7440   26.9570   40.4580 H   0  0  0  0  0  0  0  0  0  0  0  0
   38.3000   28.2980   41.1260 C   0  0  0  0  0  0  0  0  0  0  0  0
   38.7190   28.4990   39.7920 N   0  0  0  0  0  0  0  0  0  0  0  0
   38.2400   28.0250   39.0030 H   0  0  0  0  0  0  0  0  0  0  0  0
   44.2920   34.1690   38.5920 O   0  0  0  0  0  0  0  0  0  0  0  0
   42.9620   33.5450   38.3320 P   0  0  1  0  0  0  0  0  0  0  0  0
   42.3480   33.9550   36.8020 O   0  0  0  0  0  0  0  0  0  0  0  0
   41.8070   33.2510   36.3990 H   0  0  0  0  0  0  0  0  0  0  0  0
   41.8290   34.0890   39.4720 O   0  0  0  0  0  0  0  0  0  0  0  0
   40.5470   34.0890   38.9750 C   0  0  0  0  0  0  0  0  0  0  0  0
   40.2920   34.9620   38.3480 H   0  0  0  0  0  0  0  0  0  0  0  0
   40.4370   33.1980   38.2980 H   0  0  0  0  0  0  0  0  0  0  0  0
   39.5590   33.9340   40.0800 C   0  0  0  0  0  0  0  0  0  0  0  0
   39.0000   34.8870   40.2400 H   0  0  0  0  0  0  0  0  0  0  0  0
   39.9840   33.5930   41.0410 H   0  0  0  0  0  0  0  0  0  0  0  0
   36.6930   31.5050   40.3120 C   0  0  0  0  0  0  0  0  0  0  0  0
   37.6940   32.4500   40.6780 C   0  0  0  0  0  0  0  0  0  0  0  0
   38.5200   32.9480   39.6780 C   0  0  0  0  0  0  0  0  0  0  0  0
   38.3550   32.5300   38.4120 N   0  0  0  0  0  0  0  0  0  0  0  0
   37.3910   31.6260   38.0970 C   0  0  0  0  0  0  0  0  0  0  0  0
   36.5730   31.1210   39.0300 N   0  0  0  0  0  0  0  0  0  0  0  0
   35.8340   30.9710   41.2820 N   0  0  0  0  0  0  0  0  0  0  0  0
   37.7360   32.7140   41.7260 H   0  0  0  0  0  0  0  0  0  0  0  0
   37.2660   31.2950   37.0730 H   0  0  0  0  0  0  0  0  0  0  0  0
   35.3880   31.6820   41.9050 H   0  0  0  0  0  0  0  0  0  0  0  0
   35.6840   29.9290   41.3360 H   0  0  0  0  0  0  0  0  0  0  0  0
  1  2  1  0  0  0  0
  2  9  1  0  0  0  0
  3  5  1  0  0  0  0
  3  2  2  0  0  0  0
  4  3  1  0  0  0  0
  5  7  2  0  0  0  0
  6  5  1  0  0  0  0
  7 22  1  0  0  0  0
  7  8  1  0  0  0  0
  8 11  1  0  0  0  0
  9  8  2  0  0  0  0
  9 10  1  0  0  0  0
 11 12  1  0  0  0  0
 12 13  1  0  0  0  0
 13 15  2  0  0  0  0
 13 14  1  0  0  0  0
 15 16  1  0  0  0  0
 17 18  1  0  0  0  0
 17 15  1  0  0  0  0
 19 17  2  0  0  0  0
 20 19  1  0  0  0  0
 21 19  1  0  0  0  0
 21 12  2  0  0  0  0
 22 21  1  0  0  0  0
 23 22  1  0  0  0  0
 25  1  1  0  0  0  0
 25 24  2  1  0  0  0
 25 28  1  0  0  0  0
 26 25  1  0  0  0  0
 27 26  1  0  0  0  0
 29 28  1  0  0  0  0
 29 32  1  0  0  0  0
 30 29  1  0  0  0  0
 31 29  1  0  0  0  0
 32 33  1  0  0  0  0
 32 34  1  0  0  0  0
 35 36  1  0  0  0  0
 35 41  1  0  0  0  0
 36 42  1  0  0  0  0
 37 32  1  0  0  0  0
 37 36  2  0  0  0  0
 38 37  1  0  0  0  0
 39 38  2  0  0  0  0
 39 40  1  0  0  0  0
 40 35  2  0  0  0  0
 41 45  1  0  0  0  0
 41 44  1  0  0  0  0
 43 39  1  0  0  0  0
M  END
>  <minimizedAffinity>
-6.18533707

$$$$

 OpenBabel03242516423D

 45 48  0  0  0  0  0  0  0  0999 V2000
   39.5990   31.7610   41.4450 O   0  0  0  0  0  0  0  0  0  0  0  0
   39.1050   30.4910   41.6600 C   0  0  0  0  0  0  0  0  0  0  0  0
   38.9460   29.9040   42.8980 C   0  0  0  0  0  0  0  0  0  0  0  0
   39.2190   30.4580   43.7620 H   0  0  0  0  0  0  0  0  0  0  0  0
   38.4390   28.6230   42.9670 C   0  0  0  0  0  0  0  0  0  0  0  0
   38.3440   28.2340   43.9740 H   0  0  0  0  0  0  0  0  0  0  0  0
   38.0670   27.8550   41.8860 C   0  0  0  0  0  0  0  0  0  0  0  0
   38.2420   28.4770   40.6770 C   0  0  0  0  0  0  0  0  0  0  0  0
   38.7410   29.7470   40.5580 C   0  0  0  0  0  0  0  0  0  0  0  0
   38.8570   30.1900   39.5560 H   0  0  0  0  0  0  0  0  0  0  0  0
   37.8030   27.6020   39.1900 S   0  0  0  0  0  0  0  0  0  0  0  0
   37.1980   26.0110   39.7070 C   0  0  0  0  0  0  0  0  0  0  0  0
   36.7750   25.0870   38.7930 C   0  0  0  0  0  0  0  0  0  0  0  0
   36.8180   25.3560   37.7320 H   0  0  0  0  0  0  0  0  0  0  0  0
   36.2960   23.8360   39.1220 C   0  0  0  0  0  0  0  0  0  0  0  0
   35.9820   23.1700   38.3310 H   0  0  0  0  0  0  0  0  0  0  0  0
   36.2620   23.5450   40.4700 C   0  0  0  0  0  0  0  0  0  0  0  0
   35.8940   22.5760   40.7790 H   0  0  0  0  0  0  0  0  0  0  0  0
   36.6900   24.4810   41.3870 C   0  0  0  0  0  0  0  0  0  0  0  0
   36.6250   24.1590   42.4290 H   0  0  0  0  0  0  0  0  0  0  0  0
   37.1670   25.7270   41.0470 C   0  0  0  0  0  0  0  0  0  0  0  0
   37.5630   26.5560   42.1210 N   0  0  0  0  0  0  0  0  0  0  0  0
   37.4920   26.2300   43.1040 H   0  0  0  0  0  0  0  0  0  0  0  0
   37.3880   32.6670   40.2700 O   0  0  0  0  0  0  0  0  0  0  0  0
   38.7930   33.0140   40.6350 P   0  0  1  0  0  0  0  0  0  0  0  0
   38.8730   34.3450   41.6880 O   0  0  0  0  0  0  0  0  0  0  0  0
   39.6200   34.3030   42.3110 H   0  0  0  0  0  0  0  0  0  0  0  0
   39.6690   33.4410   39.2460 O   0  0  0  0  0  0  0  0  0  0  0  0
   39.9950   32.3490   38.4780 C   0  0  0  0  0  0  0  0  0  0  0  0
   39.5720   31.3910   38.8310 H   0  0  0  0  0  0  0  0  0  0  0  0
   39.5620   32.5030   37.4530 H   0  0  0  0  0  0  0  0  0  0  0  0
   41.4740   32.2400   38.3260 C   0  0  0  0  0  0  0  0  0  0  0  0
   41.9570   32.0800   39.3200 H   0  0  0  0  0  0  0  0  0  0  0  0
   41.9550   33.0950   37.8190 H   0  0  0  0  0  0  0  0  0  0  0  0
   43.1510   29.9530   35.8510 C   0  0  0  0  0  0  0  0  0  0  0  0
   42.8240   31.1140   36.6100 C   0  0  0  0  0  0  0  0  0  0  0  0
   41.8010   31.0170   37.5430 C   0  0  0  0  0  0  0  0  0  0  0  0
   41.1570   29.8490   37.7040 N   0  0  0  0  0  0  0  0  0  0  0  0
   41.4930   28.7620   36.9630 C   0  0  0  0  0  0  0  0  0  0  0  0
   42.4730   28.8110   36.0520 N   0  0  0  0  0  0  0  0  0  0  0  0
   44.1750   29.9970   34.8950 N   0  0  0  0  0  0  0  0  0  0  0  0
   43.4090   32.0000   36.3970 H   0  0  0  0  0  0  0  0  0  0  0  0
   40.9680   27.8240   37.0990 H   0  0  0  0  0  0  0  0  0  0  0  0
   45.0700   30.4180   35.2360 H   0  0  0  0  0  0  0  0  0  0  0  0
   44.0050   29.6230   33.9240 H   0  0  0  0  0  0  0  0  0  0  0  0
  1  2  1  0  0  0  0
  2  3  1  0  0  0  0
  3  5  2  0  0  0  0
  3  4  1  0  0  0  0
  5  6  1  0  0  0  0
  7 22  1  0  0  0  0
  7  5  1  0  0  0  0
  8  7  2  0  0  0  0
  9  8  1  0  0  0  0
  9  2  2  0  0  0  0
 10  9  1  0  0  0  0
 11 12  1  0  0  0  0
 11  8  1  0  0  0  0
 12 21  1  0  0  0  0
 13 15  1  0  0  0  0
 13 12  2  0  0  0  0
 14 13  1  0  0  0  0
 15 17  2  0  0  0  0
 16 15  1  0  0  0  0
 17 18  1  0  0  0  0
 17 19  1  0  0  0  0
 19 20  1  0  0  0  0
 21 19  2  0  0  0  0
 21 22  1  0  0  0  0
 22 23  1  0  0  0  0
 25 24  2  6  0  0  0
 25  1  1  0  0  0  0
 25 26  1  0  0  0  0
 26 27  1  0  0  0  0
 28 25  1  0  0  0  0
 29 30  1  0  0  0  0
 29 28  1  0  0  0  0
 31 29  1  0  0  0  0
 32 29  1  0  0  0  0
 32 33  1  0  0  0  0
 34 32  1  0  0  0  0
 35 40  2  0  0  0  0
 35 36  1  0  0  0  0
 36 37  2  0  0  0  0
 37 38  1  0  0  0  0
 37 32  1  0  0  0  0
 39 43  1  0  0  0  0
 39 38  2  0  0  0  0
 40 39  1  0  0  0  0
 41 44  1  0  0  0  0
 41 35  1  0  0  0  0
 42 36  1  0  0  0  0
 45 41  1  0  0  0  0
M  END
>  <minimizedAffinity>
-6.01514339

$$$$

 OpenBabel03242516423D

 45 48  0  0  0  0  0  0  0  0999 V2000
   41.2400   31.7130   37.1350 O   0  0  0  0  0  0  0  0  0  0  0  0
   40.3820   30.7760   37.6730 C   0  0  0  0  0  0  0  0  0  0  0  0
   39.0250   30.7180   37.4380 C   0  0  0  0  0  0  0  0  0  0  0  0
   38.5890   31.4430   36.7960 H   0  0  0  0  0  0  0  0  0  0  0  0
   38.2860   29.7240   38.0450 C   0  0  0  0  0  0  0  0  0  0  0  0
   37.2280   29.7470   37.8090 H   0  0  0  0  0  0  0  0  0  0  0  0
   38.7910   28.7570   38.8860 C   0  0  0  0  0  0  0  0  0  0  0  0
   40.1430   28.8520   39.0910 C   0  0  0  0  0  0  0  0  0  0  0  0
   40.9180   29.8210   38.5110 C   0  0  0  0  0  0  0  0  0  0  0  0
   42.0000   29.8420   38.7180 H   0  0  0  0  0  0  0  0  0  0  0  0
   40.9350   27.6670   40.1580 S   0  0  0  0  0  0  0  0  0  0  0  0
   39.6520   26.5730   40.7270 C   0  0  0  0  0  0  0  0  0  0  0  0
   39.9330   25.5380   41.5750 C   0  0  0  0  0  0  0  0  0  0  0  0
   40.9720   25.4020   41.8920 H   0  0  0  0  0  0  0  0  0  0  0  0
   38.9910   24.6540   42.0550 C   0  0  0  0  0  0  0  0  0  0  0  0
   39.3050   23.8630   42.7230 H   0  0  0  0  0  0  0  0  0  0  0  0
   37.6970   24.8680   41.6270 C   0  0  0  0  0  0  0  0  0  0  0  0
   36.9210   24.2010   41.9760 H   0  0  0  0  0  0  0  0  0  0  0  0
   37.4200   25.9130   40.7720 C   0  0  0  0  0  0  0  0  0  0  0  0
   36.3680   26.0020   40.4890 H   0  0  0  0  0  0  0  0  0  0  0  0
   38.3690   26.7910   40.2980 C   0  0  0  0  0  0  0  0  0  0  0  0
   37.9030   27.8030   39.4300 N   0  0  0  0  0  0  0  0  0  0  0  0
   36.8990   27.8690   39.1740 H   0  0  0  0  0  0  0  0  0  0  0  0
   42.9530   32.6650   38.9370 O   0  0  0  0  0  0  0  0  0  0  0  0
   41.8950   33.0450   37.9560 P   0  0  1  0  0  0  0  0  0  0  0  0
   42.4870   34.0690   36.7360 O   0  0  0  0  0  0  0  0  0  0  0  0
   42.0460   33.9440   35.8760 H   0  0  0  0  0  0  0  0  0  0  0  0
   40.6500   33.8910   38.7380 O   0  0  0  0  0  0  0  0  0  0  0  0
   40.3860   33.3930   39.9910 C   0  0  0  0  0  0  0  0  0  0  0  0
   40.7520   32.3650   40.1680 H   0  0  0  0  0  0  0  0  0  0  0  0
   40.9300   34.0310   40.7410 H   0  0  0  0  0  0  0  0  0  0  0  0
   38.9300   33.4880   40.2960 C   0  0  0  0  0  0  0  0  0  0  0  0
   38.3410   33.5900   39.3540 H   0  0  0  0  0  0  0  0  0  0  0  0
   38.6520   34.2990   40.9920 H   0  0  0  0  0  0  0  0  0  0  0  0
   36.6880   30.6140   41.2340 C   0  0  0  0  0  0  0  0  0  0  0  0
   37.1490   31.8370   40.6660 C   0  0  0  0  0  0  0  0  0  0  0  0
   38.4670   32.2080   40.8970 C   0  0  0  0  0  0  0  0  0  0  0  0
   39.2600   31.4160   41.6380 N   0  0  0  0  0  0  0  0  0  0  0  0
   38.7880   30.2570   42.1650 C   0  0  0  0  0  0  0  0  0  0  0  0
   37.5240   29.8610   41.9680 N   0  0  0  0  0  0  0  0  0  0  0  0
   35.3660   30.1940   41.0320 N   0  0  0  0  0  0  0  0  0  0  0  0
   36.4240   32.3940   40.0880 H   0  0  0  0  0  0  0  0  0  0  0  0
   39.4350   29.6240   42.7610 H   0  0  0  0  0  0  0  0  0  0  0  0
   35.0490   30.2230   40.0360 H   0  0  0  0  0  0  0  0  0  0  0  0
   34.7820   29.8820   41.8530 H   0  0  0  0  0  0  0  0  0  0  0  0
  1  2  1  0  0  0  0
  1 25  1  0  0  0  0
  2  9  1  0  0  0  0
  3  2  2  0  0  0  0
  3  5  1  0  0  0  0
  4  3  1  0  0  0  0
  5  7  2  0  0  0  0
  6  5  1  0  0  0  0
  7  8  1  0  0  0  0
  7 22  1  0  0  0  0
  8 11  1  0  0  0  0
  9 10  1  0  0  0  0
  9  8  2  0  0  0  0
 11 12  1  0  0  0  0
 12 13  1  0  0  0  0
 13 14  1  0  0  0  0
 13 15  2  0  0  0  0
 15 16  1  0  0  0  0
 17 18  1  0  0  0  0
 17 15  1  0  0  0  0
 19 17  2  0  0  0  0
 20 19  1  0  0  0  0
 21 12  2  0  0  0  0
 21 19  1  0  0  0  0
 22 21  1  0  0  0  0
 23 22  1  0  0  0  0
 25 28  1  0  0  0  0
 25 24  2  1  0  0  0
 26 25  1  0  0  0  0
 27 26  1  0  0  0  0
 28 29  1  0  0  0  0
 29 30  1  0  0  0  0
 29 32  1  0  0  0  0
 29 31  1  0  0  0  0
 32 37  1  0  0  0  0
 32 34  1  0  0  0  0
 33 32  1  0  0  0  0
 35 40  1  0  0  0  0
 36 37  1  0  0  0  0
 36 35  2  0  0  0  0
 37 38  2  0  0  0  0
 38 39  1  0  0  0  0
 39 43  1  0  0  0  0
 40 39  2  0  0  0  0
 41 35  1  0  0  0  0
 41 45  1  0  0  0  0
 42 36  1  0  0  0  0
 44 41  1  0  0  0  0
M  END
>  <minimizedAffinity>
-5.8859849

$$$$

 OpenBabel03242516423D

 45 48  0  0  0  0  0  0  0  0999 V2000
   36.5380   30.6370   38.6430 O   0  0  0  0  0  0  0  0  0  0  0  0
   37.5020   31.4400   39.2160 C   0  0  0  0  0  0  0  0  0  0  0  0
   37.2500   32.5970   39.9240 C   0  0  0  0  0  0  0  0  0  0  0  0
   36.2420   32.9080   40.0470 H   0  0  0  0  0  0  0  0  0  0  0  0
   38.3140   33.3040   40.4430 C   0  0  0  0  0  0  0  0  0  0  0  0
   38.0320   34.2000   40.9860 H   0  0  0  0  0  0  0  0  0  0  0  0
   39.6400   32.9550   40.3180 C   0  0  0  0  0  0  0  0  0  0  0  0
   39.8440   31.8000   39.6080 C   0  0  0  0  0  0  0  0  0  0  0  0
   38.8210   31.0630   39.0740 C   0  0  0  0  0  0  0  0  0  0  0  0
   39.0530   30.1440   38.5130 H   0  0  0  0  0  0  0  0  0  0  0  0
   41.5120   31.2240   39.3660 S   0  0  0  0  0  0  0  0  0  0  0  0
   42.5680   32.4010   40.1810 C   0  0  0  0  0  0  0  0  0  0  0  0
   43.9270   32.2470   40.1800 C   0  0  0  0  0  0  0  0  0  0  0  0
   44.3450   31.3770   39.6640 H   0  0  0  0  0  0  0  0  0  0  0  0
   44.8050   33.1180   40.7890 C   0  0  0  0  0  0  0  0  0  0  0  0
   45.8660   32.9160   40.7380 H   0  0  0  0  0  0  0  0  0  0  0  0
   44.2290   34.1980   41.4260 C   0  0  0  0  0  0  0  0  0  0  0  0
   44.8760   34.9110   41.9190 H   0  0  0  0  0  0  0  0  0  0  0  0
   42.8590   34.3490   41.4230 C   0  0  0  0  0  0  0  0  0  0  0  0
   42.4980   35.2340   41.9530 H   0  0  0  0  0  0  0  0  0  0  0  0
   41.9920   33.4720   40.8110 C   0  0  0  0  0  0  0  0  0  0  0  0
   40.6170   33.7850   40.9100 N   0  0  0  0  0  0  0  0  0  0  0  0
   40.2960   34.6320   41.4180 H   0  0  0  0  0  0  0  0  0  0  0  0
   34.5250   28.9020   38.7940 O   0  0  0  0  0  0  0  0  0  0  0  0
   35.8740   29.2380   39.3340 P   0  0  1  0  0  0  0  0  0  0  0  0
   37.0110   28.0120   39.0300 O   0  0  0  0  0  0  0  0  0  0  0  0
   37.9170   28.3470   38.8970 H   0  0  0  0  0  0  0  0  0  0  0  0
   35.8000   29.4240   41.0190 O   0  0  0  0  0  0  0  0  0  0  0  0
   36.2340   28.3050   41.6880 C   0  0  0  0  0  0  0  0  0  0  0  0
   35.4450   27.7530   42.2310 H   0  0  0  0  0  0  0  0  0  0  0  0
   36.6320   27.5780   40.9280 H   0  0  0  0  0  0  0  0  0  0  0  0
   37.3560   28.6480   42.6080 C   0  0  0  0  0  0  0  0  0  0  0  0
   36.9640   28.9080   43.6200 H   0  0  0  0  0  0  0  0  0  0  0  0
   38.0190   29.4570   42.2520 H   0  0  0  0  0  0  0  0  0  0  0  0
   38.5100   25.0660   42.5580 C   0  0  0  0  0  0  0  0  0  0  0  0
   37.7140   26.2300   42.3580 C   0  0  0  0  0  0  0  0  0  0  0  0
   38.2020   27.4430   42.8250 C   0  0  0  0  0  0  0  0  0  0  0  0
   39.3940   27.4850   43.4440 N   0  0  0  0  0  0  0  0  0  0  0  0
   40.1270   26.3560   43.6190 C   0  0  0  0  0  0  0  0  0  0  0  0
   39.6940   25.1650   43.1840 N   0  0  0  0  0  0  0  0  0  0  0  0
   38.0630   23.8160   42.1060 N   0  0  0  0  0  0  0  0  0  0  0  0
   36.7720   26.0790   41.8480 H   0  0  0  0  0  0  0  0  0  0  0  0
   41.0880   26.4000   44.1190 H   0  0  0  0  0  0  0  0  0  0  0  0
   37.7270   23.8070   41.1170 H   0  0  0  0  0  0  0  0  0  0  0  0
   38.0850   22.9840   42.7540 H   0  0  0  0  0  0  0  0  0  0  0  0
  1  2  1  0  0  0  0
  1 25  1  0  0  0  0
  2  3  1  0  0  0  0
  3  4  1  0  0  0  0
  3  5  2  0  0  0  0
  5  6  1  0  0  0  0
  7  5  1  0  0  0  0
  7 22  1  0  0  0  0
  8  7  2  0  0  0  0
  9  2  2  0  0  0  0
  9  8  1  0  0  0  0
 10  9  1  0  0  0  0
 11  8  1  0  0  0  0
 11 12  1  0  0  0  0
 12 21  1  0  0  0  0
 13 12  2  0  0  0  0
 13 15  1  0  0  0  0
 14 13  1  0  0  0  0
 15 17  2  0  0  0  0
 16 15  1  0  0  0  0
 17 18  1  0  0  0  0
 19 17  1  0  0  0  0
 19 20  1  0  0  0  0
 21 22  1  0  0  0  0
 21 19  2  0  0  0  0
 22 23  1  0  0  0  0
 25 24  2  6  0  0  0
 25 28  1  0  0  0  0
 26 25  1  0  0  0  0
 27 26  1  0  0  0  0
 28 29  1  0  0  0  0
 29 30  1  0  0  0  0
 29 32  1  0  0  0  0
 31 29  1  0  0  0  0
 32 37  1  0  0  0  0
 32 33  1  0  0  0  0
 34 32  1  0  0  0  0
 35 40  1  0  0  0  0
 36 35  2  0  0  0  0
 36 37  1  0  0  0  0
 37 38  2  0  0  0  0
 38 39  1  0  0  0  0
 39 43  1  0  0  0  0
 40 39  2  0  0  0  0
 41 35  1  0  0  0  0
 41 45  1  0  0  0  0
 42 36  1  0  0  0  0
 44 41  1  0  0  0  0
M  END
>  <minimizedAffinity>
-5.84940624

$$$$

 OpenBabel03242516423D

 45 48  0  0  0  0  0  0  0  0999 V2000
   37.8120   31.5630   38.7030 O   0  0  0  0  0  0  0  0  0  0  0  0
   37.4380   30.2820   39.0550 C   0  0  0  0  0  0  0  0  0  0  0  0
   36.2450   29.9440   39.6590 C   0  0  0  0  0  0  0  0  0  0  0  0
   35.5490   30.7160   39.8770 H   0  0  0  0  0  0  0  0  0  0  0  0
   36.0020   28.6200   39.9560 C   0  0  0  0  0  0  0  0  0  0  0  0
   35.0430   28.4370   40.4290 H   0  0  0  0  0  0  0  0  0  0  0  0
   36.8620   27.5750   39.7000 C   0  0  0  0  0  0  0  0  0  0  0  0
   38.0340   27.9560   39.0990 C   0  0  0  0  0  0  0  0  0  0  0  0
   38.3210   29.2570   38.7850 C   0  0  0  0  0  0  0  0  0  0  0  0
   39.2820   29.4980   38.3030 H   0  0  0  0  0  0  0  0  0  0  0  0
   39.2430   26.7090   38.7080 S   0  0  0  0  0  0  0  0  0  0  0  0
   38.5530   25.1590   39.2450 C   0  0  0  0  0  0  0  0  0  0  0  0
   39.2410   23.9890   39.0860 C   0  0  0  0  0  0  0  0  0  0  0  0
   40.2310   24.0340   38.6180 H   0  0  0  0  0  0  0  0  0  0  0  0
   38.7690   22.7540   39.4780 C   0  0  0  0  0  0  0  0  0  0  0  0
   39.3840   21.8800   39.3130 H   0  0  0  0  0  0  0  0  0  0  0  0
   37.5200   22.7510   40.0620 C   0  0  0  0  0  0  0  0  0  0  0  0
   37.1050   21.8060   40.3870 H   0  0  0  0  0  0  0  0  0  0  0  0
   36.8300   23.9340   40.2200 C   0  0  0  0  0  0  0  0  0  0  0  0
   35.8500   23.8290   40.6920 H   0  0  0  0  0  0  0  0  0  0  0  0
   37.3120   25.1620   39.8250 C   0  0  0  0  0  0  0  0  0  0  0  0
   36.4670   26.2690   40.0650 N   0  0  0  0  0  0  0  0  0  0  0  0
   35.5400   26.1460   40.5160 H   0  0  0  0  0  0  0  0  0  0  0  0
   39.6520   33.3920   39.2960 O   0  0  0  0  0  0  0  0  0  0  0  0
   38.3870   32.7550   39.7630 P   0  0  1  0  0  0  0  0  0  0  0  0
   37.1160   33.8740   39.9030 O   0  0  0  0  0  0  0  0  0  0  0  0
   36.2400   33.4920   39.7120 H   0  0  0  0  0  0  0  0  0  0  0  0
   38.6080   32.0770   41.3030 O   0  0  0  0  0  0  0  0  0  0  0  0
   39.7670   31.3440   41.3900 C   0  0  0  0  0  0  0  0  0  0  0  0
   39.8770   30.5570   40.6220 H   0  0  0  0  0  0  0  0  0  0  0  0
   40.6330   32.0410   41.2220 H   0  0  0  0  0  0  0  0  0  0  0  0
   39.9180   30.7640   42.7550 C   0  0  0  0  0  0  0  0  0  0  0  0
   39.2920   31.3270   43.4880 H   0  0  0  0  0  0  0  0  0  0  0  0
   40.9570   30.7110   43.1260 H   0  0  0  0  0  0  0  0  0  0  0  0
   37.5230   27.9020   43.2350 C   0  0  0  0  0  0  0  0  0  0  0  0
   38.0650   29.2190   43.2160 C   0  0  0  0  0  0  0  0  0  0  0  0
   39.3690   29.3820   42.7670 C   0  0  0  0  0  0  0  0  0  0  0  0
   40.0730   28.3090   42.3690 N   0  0  0  0  0  0  0  0  0  0  0  0
   39.5260   27.0660   42.4010 C   0  0  0  0  0  0  0  0  0  0  0  0
   38.2720   26.8640   42.8270 N   0  0  0  0  0  0  0  0  0  0  0  0
   36.2120   27.6820   43.6790 N   0  0  0  0  0  0  0  0  0  0  0  0
   37.4080   30.0070   43.5590 H   0  0  0  0  0  0  0  0  0  0  0  0
   40.1020   26.2070   42.0780 H   0  0  0  0  0  0  0  0  0  0  0  0
   35.4970   28.3160   43.2530 H   0  0  0  0  0  0  0  0  0  0  0  0
   36.0160   26.9260   44.3880 H   0  0  0  0  0  0  0  0  0  0  0  0
  1  2  1  0  0  0  0
  1 25  1  0  0  0  0
  2  3  1  0  0  0  0
  3  4  1  0  0  0  0
  3  5  2  0  0  0  0
  5  6  1  0  0  0  0
  7  5  1  0  0  0  0
  7 22  1  0  0  0  0
  8  7  2  0  0  0  0
  9  2  2  0  0  0  0
  9  8  1  0  0  0  0
 10  9  1  0  0  0  0
 11  8  1  0  0  0  0
 11 12  1  0  0  0  0
 12 21  1  0  0  0  0
 13 12  2  0  0  0  0
 13 15  1  0  0  0  0
 14 13  1  0  0  0  0
 15 17  2  0  0  0  0
 16 15  1  0  0  0  0
 17 19  1  0  0  0  0
 17 18  1  0  0  0  0
 19 20  1  0  0  0  0
 21 22  1  0  0  0  0
 21 19  2  0  0  0  0
 22 23  1  0  0  0  0
 25 24  2  6  0  0  0
 25 26  1  0  0  0  0
 25 28  1  0  0  0  0
 27 26  1  0  0  0  0
 28 29  1  0  0  0  0
 29 32  1  0  0  0  0
 30 29  1  0  0  0  0
 31 29  1  0  0  0  0
 32 37  1  0  0  0  0
 32 34  1  0  0  0  0
 32 33  1  0  0  0  0
 35 41  1  0  0  0  0
 36 35  1  0  0  0  0
 36 42  1  0  0  0  0
 37 36  2  0  0  0  0
 38 39  2  0  0  0  0
 38 37  1  0  0  0  0
 39 40  1  0  0  0  0
 40 35  2  0  0  0  0
 41 45  1  0  0  0  0
 43 39  1  0  0  0  0
 44 41  1  0  0  0  0
M  END
>  <minimizedAffinity>
-5.7958169

$$$$

 OpenBabel03242516423D

 45 48  0  0  0  0  0  0  0  0999 V2000
   35.8660   28.1540   41.1700 O   0  0  0  0  0  0  0  0  0  0  0  0
   37.0610   27.9090   41.8160 C   0  0  0  0  0  0  0  0  0  0  0  0
   37.2820   28.0930   43.1650 C   0  0  0  0  0  0  0  0  0  0  0  0
   36.4840   28.4500   43.7670 H   0  0  0  0  0  0  0  0  0  0  0  0
   38.5300   27.8070   43.6780 C   0  0  0  0  0  0  0  0  0  0  0  0
   38.6230   27.9780   44.7450 H   0  0  0  0  0  0  0  0  0  0  0  0
   39.6040   27.3440   42.9520 C   0  0  0  0  0  0  0  0  0  0  0  0
   39.3390   27.1750   41.6170 C   0  0  0  0  0  0  0  0  0  0  0  0
   38.1170   27.4450   41.0610 C   0  0  0  0  0  0  0  0  0  0  0  0
   37.9690   27.2880   39.9800 H   0  0  0  0  0  0  0  0  0  0  0  0
   40.6360   26.5800   40.5530 S   0  0  0  0  0  0  0  0  0  0  0  0
   42.0600   26.3370   41.5910 C   0  0  0  0  0  0  0  0  0  0  0  0
   43.2400   25.8800   41.0720 C   0  0  0  0  0  0  0  0  0  0  0  0
   43.2810   25.6670   39.9990 H   0  0  0  0  0  0  0  0  0  0  0  0
   44.3820   25.6700   41.8160 C   0  0  0  0  0  0  0  0  0  0  0  0
   45.2710   25.3050   41.3210 H   0  0  0  0  0  0  0  0  0  0  0  0
   44.2790   25.9530   43.1620 C   0  0  0  0  0  0  0  0  0  0  0  0
   45.1480   25.8040   43.7880 H   0  0  0  0  0  0  0  0  0  0  0  0
   43.0870   26.4130   43.6790 C   0  0  0  0  0  0  0  0  0  0  0  0
   43.1030   26.6100   44.7540 H   0  0  0  0  0  0  0  0  0  0  0  0
   41.9520   26.6200   42.9270 C   0  0  0  0  0  0  0  0  0  0  0  0
   40.8200   27.0970   43.6250 N   0  0  0  0  0  0  0  0  0  0  0  0
   40.8590   27.2760   44.6470 H   0  0  0  0  0  0  0  0  0  0  0  0
   36.2670   29.3260   38.8130 O   0  0  0  0  0  0  0  0  0  0  0  0
   35.5550   29.4480   40.1180 P   0  0  1  0  0  0  0  0  0  0  0  0
   33.8660   29.4680   39.9300 O   0  0  0  0  0  0  0  0  0  0  0  0
   33.3870   29.0600   40.6740 H   0  0  0  0  0  0  0  0  0  0  0  0
   35.9750   30.9040   40.8800 O   0  0  0  0  0  0  0  0  0  0  0  0
   37.2790   31.2640   40.6350 C   0  0  0  0  0  0  0  0  0  0  0  0
   37.9630   31.1440   41.4950 H   0  0  0  0  0  0  0  0  0  0  0  0
   37.6840   30.5830   39.8390 H   0  0  0  0  0  0  0  0  0  0  0  0
   37.3460   32.6570   40.1070 C   0  0  0  0  0  0  0  0  0  0  0  0
   37.2690   33.3940   40.9430 H   0  0  0  0  0  0  0  0  0  0  0  0
   36.5950   32.8990   39.3350 H   0  0  0  0  0  0  0  0  0  0  0  0
   40.3810   32.2500   37.9190 C   0  0  0  0  0  0  0  0  0  0  0  0
   39.0980   32.0370   38.5010 C   0  0  0  0  0  0  0  0  0  0  0  0
   38.6890   32.8950   39.5130 C   0  0  0  0  0  0  0  0  0  0  0  0
   39.5020   33.8880   39.9110 N   0  0  0  0  0  0  0  0  0  0  0  0
   40.7200   34.0620   39.3370 C   0  0  0  0  0  0  0  0  0  0  0  0
   41.1540   33.2580   38.3570 N   0  0  0  0  0  0  0  0  0  0  0  0
   40.8430   31.4130   36.8950 N   0  0  0  0  0  0  0  0  0  0  0  0
   38.5290   31.2080   38.1020 H   0  0  0  0  0  0  0  0  0  0  0  0
   41.3700   34.8660   39.6640 H   0  0  0  0  0  0  0  0  0  0  0  0
   40.1610   31.2630   36.1160 H   0  0  0  0  0  0  0  0  0  0  0  0
   41.8080   30.9930   36.9530 H   0  0  0  0  0  0  0  0  0  0  0  0
  1  2  1  0  0  0  0
  2  3  1  0  0  0  0
  3  5  2  0  0  0  0
  3  4  1  0  0  0  0
  5  6  1  0  0  0  0
  7 22  1  0  0  0  0
  7  5  1  0  0  0  0
  8  7  2  0  0  0  0
  9  8  1  0  0  0  0
  9  2  2  0  0  0  0
 10  9  1  0  0  0  0
 11 12  1  0  0  0  0
 11  8  1  0  0  0  0
 12 21  1  0  0  0  0
 13 12  2  0  0  0  0
 13 15  1  0  0  0  0
 14 13  1  0  0  0  0
 15 17  2  0  0  0  0
 16 15  1  0  0  0  0
 17 19  1  0  0  0  0
 17 18  1  0  0  0  0
 19 20  1  0  0  0  0
 21 22  1  0  0  0  0
 21 19  2  0  0  0  0
 22 23  1  0  0  0  0
 25 24  2  6  0  0  0
 25 28  1  0  0  0  0
 25  1  1  0  0  0  0
 26 25  1  0  0  0  0
 26 27  1  0  0  0  0
 29 28  1  0  0  0  0
 29 30  1  0  0  0  0
 31 29  1  0  0  0  0
 32 29  1  0  0  0  0
 32 33  1  0  0  0  0
 34 32  1  0  0  0  0
 35 40  2  0  0  0  0
 35 36  1  0  0  0  0
 36 37  2  0  0  0  0
 37 38  1  0  0  0  0
 37 32  1  0  0  0  0
 39 43  1  0  0  0  0
 39 38  2  0  0  0  0
 40 39  1  0  0  0  0
 41 45  1  0  0  0  0
 41 35  1  0  0  0  0
 42 36  1  0  0  0  0
 44 41  1  0  0  0  0
M  END
>  <minimizedAffinity>
-5.78030825

$$$$

 OpenBabel03242516423D

 45 48  0  0  0  0  0  0  0  0999 V2000
   41.7290   31.7820   39.3960 O   0  0  0  0  0  0  0  0  0  0  0  0
   40.9780   30.9040   40.1490 C   0  0  0  0  0  0  0  0  0  0  0  0
   40.7380   31.0270   41.5020 C   0  0  0  0  0  0  0  0  0  0  0  0
   41.1560   31.8550   42.0190 H   0  0  0  0  0  0  0  0  0  0  0  0
   39.9660   30.0720   42.1300 C   0  0  0  0  0  0  0  0  0  0  0  0
   39.8250   30.2410   43.1930 H   0  0  0  0  0  0  0  0  0  0  0  0
   39.3980   28.9780   41.5180 C   0  0  0  0  0  0  0  0  0  0  0  0
   39.6610   28.8950   40.1750 C   0  0  0  0  0  0  0  0  0  0  0  0
   40.4210   29.8180   39.5070 C   0  0  0  0  0  0  0  0  0  0  0  0
   40.5960   29.6940   38.4260 H   0  0  0  0  0  0  0  0  0  0  0  0
   38.9890   27.5300   39.2500 S   0  0  0  0  0  0  0  0  0  0  0  0
   38.0700   26.5450   40.4130 C   0  0  0  0  0  0  0  0  0  0  0  0
   37.4230   25.4080   40.0160 C   0  0  0  0  0  0  0  0  0  0  0  0
   37.4860   25.1220   38.9610 H   0  0  0  0  0  0  0  0  0  0  0  0
   36.6950   24.5980   40.8610 C   0  0  0  0  0  0  0  0  0  0  0  0
   36.2150   23.7160   40.4580 H   0  0  0  0  0  0  0  0  0  0  0  0
   36.6450   25.0000   42.1790 C   0  0  0  0  0  0  0  0  0  0  0  0
   36.0860   24.3970   42.8820 H   0  0  0  0  0  0  0  0  0  0  0  0
   37.3000   26.1470   42.5730 C   0  0  0  0  0  0  0  0  0  0  0  0
   37.2030   26.3830   43.6360 H   0  0  0  0  0  0  0  0  0  0  0  0
   38.0260   26.9490   41.7210 C   0  0  0  0  0  0  0  0  0  0  0  0
   38.6310   28.0870   42.3000 N   0  0  0  0  0  0  0  0  0  0  0  0
   38.5250   28.2920   43.3130 H   0  0  0  0  0  0  0  0  0  0  0  0
   42.3030   34.1520   38.3280 O   0  0  0  0  0  0  0  0  0  0  0  0
   41.1890   33.2610   38.7660 P   0  0  1  0  0  0  0  0  0  0  0  0
   40.1570   32.8450   37.4820 O   0  0  0  0  0  0  0  0  0  0  0  0
   39.7690   31.9550   37.5680 H   0  0  0  0  0  0  0  0  0  0  0  0
   40.2310   34.0490   39.9230 O   0  0  0  0  0  0  0  0  0  0  0  0
   38.9010   34.0620   39.5780 C   0  0  0  0  0  0  0  0  0  0  0  0
   38.4830   35.0660   39.3790 H   0  0  0  0  0  0  0  0  0  0  0  0
   38.7860   33.4990   38.6120 H   0  0  0  0  0  0  0  0  0  0  0  0
   38.0860   33.3550   40.6070 C   0  0  0  0  0  0  0  0  0  0  0  0
   37.2370   33.9970   40.9410 H   0  0  0  0  0  0  0  0  0  0  0  0
   38.6520   33.0070   41.4900 H   0  0  0  0  0  0  0  0  0  0  0  0
   36.0710   30.1950   40.2560 C   0  0  0  0  0  0  0  0  0  0  0  0
   36.6950   31.3420   40.8270 C   0  0  0  0  0  0  0  0  0  0  0  0
   37.4430   32.1620   39.9930 C   0  0  0  0  0  0  0  0  0  0  0  0
   37.5560   31.8570   38.6900 N   0  0  0  0  0  0  0  0  0  0  0  0
   36.9490   30.7550   38.1770 C   0  0  0  0  0  0  0  0  0  0  0  0
   36.2190   29.9370   38.9460 N   0  0  0  0  0  0  0  0  0  0  0  0
   35.3060   29.3340   41.0550 N   0  0  0  0  0  0  0  0  0  0  0  0
   36.5360   31.4900   41.8870 H   0  0  0  0  0  0  0  0  0  0  0  0
   37.0460   30.5170   37.1240 H   0  0  0  0  0  0  0  0  0  0  0  0
   34.6000   29.8140   41.6580 H   0  0  0  0  0  0  0  0  0  0  0  0
   35.4690   28.2930   41.0120 H   0  0  0  0  0  0  0  0  0  0  0  0
  1  2  1  0  0  0  0
  2  3  1  0  0  0  0
  3  4  1  0  0  0  0
  3  5  2  0  0  0  0
  5  6  1  0  0  0  0
  7  5  1  0  0  0  0
  7 22  1  0  0  0  0
  8  7  2  0  0  0  0
  9  2  2  0  0  0  0
  9  8  1  0  0  0  0
 10  9  1  0  0  0  0
 11  8  1  0  0  0  0
 11 12  1  0  0  0  0
 12 21  1  0  0  0  0
 13 12  2  0  0  0  0
 13 15  1  0  0  0  0
 14 13  1  0  0  0  0
 15 17  2  0  0  0  0
 16 15  1  0  0  0  0
 17 19  1  0  0  0  0
 17 18  1  0  0  0  0
 19 20  1  0  0  0  0
 21 22  1  0  0  0  0
 21 19  2  0  0  0  0
 22 23  1  0  0  0  0
 25 24  2  6  0  0  0
 25  1  1  0  0  0  0
 25 28  1  0  0  0  0
 26 27  1  0  0  0  0
 26 25  1  0  0  0  0
 29 28  1  0  0  0  0
 29 32  1  0  0  0  0
 30 29  1  0  0  0  0
 31 29  1  0  0  0  0
 32 33  1  0  0  0  0
 32 34  1  0  0  0  0
 35 36  1  0  0  0  0
 35 41  1  0  0  0  0
 36 42  1  0  0  0  0
 37 32  1  0  0  0  0
 37 36  2  0  0  0  0
 38 37  1  0  0  0  0
 39 38  2  0  0  0  0
 39 40  1  0  0  0  0
 40 35  2  0  0  0  0
 41 44  1  0  0  0  0
 43 39  1  0  0  0  0
 45 41  1  0  0  0  0
M  END
>  <minimizedAffinity>
-5.71725655

$$$$

 OpenBabel03242516423D

 45 48  0  0  0  0  0  0  0  0999 V2000
   39.6130   31.6710   41.6530 O   0  0  0  0  0  0  0  0  0  0  0  0
   39.2280   30.3620   41.8570 C   0  0  0  0  0  0  0  0  0  0  0  0
   38.7110   29.8630   43.0340 C   0  0  0  0  0  0  0  0  0  0  0  0
   38.5940   30.5240   43.8580 H   0  0  0  0  0  0  0  0  0  0  0  0
   38.3690   28.5290   43.0980 C   0  0  0  0  0  0  0  0  0  0  0  0
   37.9700   28.2160   44.0570 H   0  0  0  0  0  0  0  0  0  0  0  0
   38.4970   27.6240   42.0680 C   0  0  0  0  0  0  0  0  0  0  0  0
   39.0140   28.1620   40.9180 C   0  0  0  0  0  0  0  0  0  0  0  0
   39.3690   29.4800   40.8060 C   0  0  0  0  0  0  0  0  0  0  0  0
   39.7790   29.8500   39.8530 H   0  0  0  0  0  0  0  0  0  0  0  0
   39.2370   27.1070   39.5010 S   0  0  0  0  0  0  0  0  0  0  0  0
   38.6810   25.4900   39.9910 C   0  0  0  0  0  0  0  0  0  0  0  0
   38.7210   24.4370   39.1200 C   0  0  0  0  0  0  0  0  0  0  0  0
   39.1040   24.6200   38.1100 H   0  0  0  0  0  0  0  0  0  0  0  0
   38.3080   23.1590   39.4310 C   0  0  0  0  0  0  0  0  0  0  0  0
   38.3760   22.3870   38.6770 H   0  0  0  0  0  0  0  0  0  0  0  0
   37.8330   22.9800   40.7140 C   0  0  0  0  0  0  0  0  0  0  0  0
   37.4970   21.9950   41.0070 H   0  0  0  0  0  0  0  0  0  0  0  0
   37.7950   24.0460   41.5880 C   0  0  0  0  0  0  0  0  0  0  0  0
   37.4040   23.8060   42.5800 H   0  0  0  0  0  0  0  0  0  0  0  0
   38.2110   25.3180   41.2670 C   0  0  0  0  0  0  0  0  0  0  0  0
   38.1000   26.2870   42.2890 N   0  0  0  0  0  0  0  0  0  0  0  0
   37.7250   26.0360   43.2250 H   0  0  0  0  0  0  0  0  0  0  0  0
   37.4900   32.3280   40.1860 O   0  0  0  0  0  0  0  0  0  0  0  0
   38.8360   32.7870   40.6380 P   0  0  1  0  0  0  0  0  0  0  0  0
   38.7560   34.2240   41.5410 O   0  0  0  0  0  0  0  0  0  0  0  0
   39.4400   34.2880   42.2310 H   0  0  0  0  0  0  0  0  0  0  0  0
   39.8240   33.1100   39.2980 O   0  0  0  0  0  0  0  0  0  0  0  0
   41.0310   32.4560   39.3690 C   0  0  0  0  0  0  0  0  0  0  0  0
   41.0100   31.5010   39.9260 H   0  0  0  0  0  0  0  0  0  0  0  0
   41.3400   32.1810   38.3240 H   0  0  0  0  0  0  0  0  0  0  0  0
   42.0820   33.3580   39.9230 C   0  0  0  0  0  0  0  0  0  0  0  0
   42.4230   32.9920   40.9210 H   0  0  0  0  0  0  0  0  0  0  0  0
   41.7890   34.4200   40.0020 H   0  0  0  0  0  0  0  0  0  0  0  0
   44.4190   32.3250   37.1600 C   0  0  0  0  0  0  0  0  0  0  0  0
   43.2690   32.4000   37.9970 C   0  0  0  0  0  0  0  0  0  0  0  0
   43.2920   33.2930   39.0600 C   0  0  0  0  0  0  0  0  0  0  0  0
   44.3820   34.0510   39.2670 N   0  0  0  0  0  0  0  0  0  0  0  0
   45.4630   33.9530   38.4510 C   0  0  0  0  0  0  0  0  0  0  0  0
   45.4830   33.1050   37.4140 N   0  0  0  0  0  0  0  0  0  0  0  0
   44.4480   31.4400   36.0740 N   0  0  0  0  0  0  0  0  0  0  0  0
   42.4490   31.7440   37.7360 H   0  0  0  0  0  0  0  0  0  0  0  0
   46.3380   34.5680   38.6260 H   0  0  0  0  0  0  0  0  0  0  0  0
   43.6060   31.4830   35.4560 H   0  0  0  0  0  0  0  0  0  0  0  0
   45.2770   30.8020   35.9360 H   0  0  0  0  0  0  0  0  0  0  0  0
  1  2  1  0  0  0  0
  2  3  1  0  0  0  0
  3  5  2  0  0  0  0
  3  4  1  0  0  0  0
  5  6  1  0  0  0  0
  7 22  1  0  0  0  0
  7  5  1  0  0  0  0
  8  7  2  0  0  0  0
  9  8  1  0  0  0  0
  9  2  2  0  0  0  0
 10  9  1  0  0  0  0
 11 12  1  0  0  0  0
 11  8  1  0  0  0  0
 12 21  1  0  0  0  0
 13 15  1  0  0  0  0
 13 12  2  0  0  0  0
 14 13  1  0  0  0  0
 15 17  2  0  0  0  0
 16 15  1  0  0  0  0
 17 18  1  0  0  0  0
 17 19  1  0  0  0  0
 19 20  1  0  0  0  0
 21 19  2  0  0  0  0
 21 22  1  0  0  0  0
 22 23  1  0  0  0  0
 25 24  2  6  0  0  0
 25 26  1  0  0  0  0
 25  1  1  0  0  0  0
 26 27  1  0  0  0  0
 28 29  1  0  0  0  0
 28 25  1  0  0  0  0
 29 32  1  0  0  0  0
 29 30  1  0  0  0  0
 31 29  1  0  0  0  0
 32 34  1  0  0  0  0
 32 33  1  0  0  0  0
 35 40  2  0  0  0  0
 35 36  1  0  0  0  0
 36 37  2  0  0  0  0
 37 38  1  0  0  0  0
 37 32  1  0  0  0  0
 39 43  1  0  0  0  0
 39 38  2  0  0  0  0
 40 39  1  0  0  0  0
 41 35  1  0  0  0  0
 42 36  1  0  0  0  0
 44 41  1  0  0  0  0
 45 41  1  0  0  0  0
M  END
>  <minimizedAffinity>
-5.69500875

$$$$

 OpenBabel03242516423D

 45 48  0  0  0  0  0  0  0  0999 V2000
   35.3800   26.8950   37.4450 O   0  0  0  0  0  0  0  0  0  0  0  0
   35.7340   28.0330   38.1410 C   0  0  0  0  0  0  0  0  0  0  0  0
   35.0020   28.5900   39.1690 C   0  0  0  0  0  0  0  0  0  0  0  0
   34.0940   28.1210   39.4600 H   0  0  0  0  0  0  0  0  0  0  0  0
   35.4760   29.7330   39.7780 C   0  0  0  0  0  0  0  0  0  0  0  0
   34.8440   30.1080   40.5760 H   0  0  0  0  0  0  0  0  0  0  0  0
   36.6410   30.3880   39.4480 C   0  0  0  0  0  0  0  0  0  0  0  0
   37.3360   29.7990   38.4230 C   0  0  0  0  0  0  0  0  0  0  0  0
   36.9070   28.6650   37.7870 C   0  0  0  0  0  0  0  0  0  0  0  0
   37.5120   28.2420   36.9690 H   0  0  0  0  0  0  0  0  0  0  0  0
   38.8650   30.5370   37.8870 S   0  0  0  0  0  0  0  0  0  0  0  0
   39.1140   31.9690   38.9140 C   0  0  0  0  0  0  0  0  0  0  0  0
   40.2130   32.7670   38.7550 C   0  0  0  0  0  0  0  0  0  0  0  0
   40.9360   32.4980   37.9780 H   0  0  0  0  0  0  0  0  0  0  0  0
   40.4690   33.8900   39.5120 C   0  0  0  0  0  0  0  0  0  0  0  0
   41.3660   34.4620   39.3170 H   0  0  0  0  0  0  0  0  0  0  0  0
   39.5290   34.1870   40.4770 C   0  0  0  0  0  0  0  0  0  0  0  0
   39.6850   35.0590   41.0980 H   0  0  0  0  0  0  0  0  0  0  0  0
   38.4230   33.3790   40.6320 C   0  0  0  0  0  0  0  0  0  0  0  0
   37.7360   33.6960   41.4210 H   0  0  0  0  0  0  0  0  0  0  0  0
   38.1770   32.2600   39.8700 C   0  0  0  0  0  0  0  0  0  0  0  0
   36.9920   31.5510   40.1690 N   0  0  0  0  0  0  0  0  0  0  0  0
   36.3530   31.8700   40.9230 H   0  0  0  0  0  0  0  0  0  0  0  0
   35.1980   24.2750   37.0110 O   0  0  0  0  0  0  0  0  0  0  0  0
   35.9550   25.3280   37.7480 P   0  0  1  0  0  0  0  0  0  0  0  0
   37.5960   25.3670   37.3080 O   0  0  0  0  0  0  0  0  0  0  0  0
   37.9870   26.2590   37.3440 H   0  0  0  0  0  0  0  0  0  0  0  0
   35.9070   25.0250   39.4170 O   0  0  0  0  0  0  0  0  0  0  0  0
   37.1600   25.0050   39.9800 C   0  0  0  0  0  0  0  0  0  0  0  0
   37.8770   24.3190   39.4930 H   0  0  0  0  0  0  0  0  0  0  0  0
   37.6090   26.0300   39.8660 H   0  0  0  0  0  0  0  0  0  0  0  0
   37.0720   24.7170   41.4400 C   0  0  0  0  0  0  0  0  0  0  0  0
   37.6800   23.8160   41.6960 H   0  0  0  0  0  0  0  0  0  0  0  0
   36.0460   24.5890   41.8290 H   0  0  0  0  0  0  0  0  0  0  0  0
   37.6140   28.1190   42.9540 C   0  0  0  0  0  0  0  0  0  0  0  0
   37.0270   27.0430   42.2290 C   0  0  0  0  0  0  0  0  0  0  0  0
   37.7010   25.8290   42.2020 C   0  0  0  0  0  0  0  0  0  0  0  0
   38.8710   25.7050   42.8500 N   0  0  0  0  0  0  0  0  0  0  0  0
   39.4040   26.7520   43.5310 C   0  0  0  0  0  0  0  0  0  0  0  0
   38.7870   27.9400   43.5830 N   0  0  0  0  0  0  0  0  0  0  0  0
   36.9750   29.3650   43.0130 N   0  0  0  0  0  0  0  0  0  0  0  0
   36.0820   27.2550   41.7460 H   0  0  0  0  0  0  0  0  0  0  0  0
   40.3490   26.6430   44.0510 H   0  0  0  0  0  0  0  0  0  0  0  0
   35.9630   29.3220   43.2700 H   0  0  0  0  0  0  0  0  0  0  0  0
   37.5180   30.2450   42.8060 H   0  0  0  0  0  0  0  0  0  0  0  0
  1 25  1  0  0  0  0
  1  2  1  0  0  0  0
  2  3  1  0  0  0  0
  3  4  1  0  0  0  0
  3  5  2  0  0  0  0
  5  6  1  0  0  0  0
  7  5  1  0  0  0  0
  7 22  1  0  0  0  0
  8  7  2  0  0  0  0
  9  2  2  0  0  0  0
  9  8  1  0  0  0  0
 10  9  1  0  0  0  0
 11  8  1  0  0  0  0
 11 12  1  0  0  0  0
 12 21  1  0  0  0  0
 13 12  2  0  0  0  0
 13 15  1  0  0  0  0
 14 13  1  0  0  0  0
 15 17  2  0  0  0  0
 16 15  1  0  0  0  0
 17 19  1  0  0  0  0
 17 18  1  0  0  0  0
 19 20  1  0  0  0  0
 21 22  1  0  0  0  0
 21 19  2  0  0  0  0
 22 23  1  0  0  0  0
 25 24  2  6  0  0  0
 25 28  1  0  0  0  0
 26 27  1  0  0  0  0
 26 25  1  0  0  0  0
 28 29  1  0  0  0  0
 29 32  1  0  0  0  0
 30 29  1  0  0  0  0
 31 29  1  0  0  0  0
 32 33  1  0  0  0  0
 32 34  1  0  0  0  0
 32 37  1  0  0  0  0
 35 41  1  0  0  0  0
 35 40  1  0  0  0  0
 36 35  2  0  0  0  0
 37 36  1  0  0  0  0
 37 38  2  0  0  0  0
 38 39  1  0  0  0  0
 39 40  2  0  0  0  0
 39 43  1  0  0  0  0
 41 44  1  0  0  0  0
 42 36  1  0  0  0  0
 45 41  1  0  0  0  0
M  END
>  <minimizedAffinity>
-5.68813133

$$$$
