
 OpenBabel03252506353D

 46 50  0  0  1  0  0  0  0  0999 V2000
   44.4610   35.8220   45.0600 C   0  0  0  0  0  0  0  0  0  0  0  0
   45.0740   35.8410   43.7990 C   0  0  0  0  0  0  0  0  0  0  0  0
   45.9690   34.8550   43.4710 C   0  0  0  0  0  0  0  0  0  0  0  0
   46.1970   33.9090   44.4240 N   0  0  0  0  0  0  0  0  0  0  0  0
   45.6090   33.9020   45.6200 C   0  0  0  0  0  0  0  0  0  0  0  0
   44.7280   34.8550   45.9690 N   0  0  0  0  0  0  0  0  0  0  0  0
   45.9410   32.8540   46.5190 N   0  0  0  0  0  0  0  0  0  0  0  0
   45.1840   32.5510   47.7360 C   0  0  0  0  0  0  0  0  0  0  0  0
   46.2920   32.1620   48.6900 C   0  0  0  0  0  0  0  0  0  0  0  0
   47.5500   32.0150   47.8740 C   0  0  0  0  0  0  0  0  0  0  0  0
   47.0190   31.9040   46.4640 C   0  0  1  0  0  0  0  0  0  0  0  0
   43.7550   36.6010   45.3160 H   0  0  0  0  0  0  0  0  0  0  0  0
   46.4310   34.8740   42.5130 H   0  0  0  0  0  0  0  0  0  0  0  0
   44.7540   33.4910   48.1440 H   0  0  0  0  0  0  0  0  0  0  0  0
   44.4150   31.7900   47.5950 H   0  0  0  0  0  0  0  0  0  0  0  0
   46.0480   31.1280   49.0540 H   0  0  0  0  0  0  0  0  0  0  0  0
   46.3890   32.8260   49.5600 H   0  0  0  0  0  0  0  0  0  0  0  0
   48.1280   31.1150   48.1810 H   0  0  0  0  0  0  0  0  0  0  0  0
   48.1280   32.9560   48.0000 H   0  0  0  0  0  0  0  0  0  0  0  0
   47.8090   32.1990   45.7430 H   0  0  0  0  0  0  0  0  0  0  0  0
   44.7060   36.9190   42.9290 N   0  0  0  0  0  0  0  0  0  0  0  0
   44.6170   36.7410   41.9180 H   0  0  0  0  0  0  0  0  0  0  0  0
   44.5290   37.8710   43.2940 H   0  0  0  0  0  0  0  0  0  0  0  0
   46.4670   30.2130   46.1970 S   0  0  0  0  0  0  0  0  0  0  0  0
   45.7560   29.9430   44.6030 C   0  0  0  0  0  0  0  0  0  0  0  0
   46.1190   28.8070   43.9090 C   0  0  0  0  0  0  0  0  0  0  0  0
   46.8340   28.0850   44.3370 H   0  0  0  0  0  0  0  0  0  0  0  0
   45.5900   28.5360   42.6440 C   0  0  0  0  0  0  0  0  0  0  0  0
   45.9210   27.6260   42.1630 H   0  0  0  0  0  0  0  0  0  0  0  0
   44.6900   29.3750   42.0250 C   0  0  0  0  0  0  0  0  0  0  0  0
   44.3690   30.4850   42.7610 C   0  0  0  0  0  0  0  0  0  0  0  0
   44.8450   30.8000   43.9860 C   0  0  0  0  0  0  0  0  0  0  0  0
   44.5650   31.6830   44.5260 H   0  0  0  0  0  0  0  0  0  0  0  0
   43.2110   31.6420   42.0550 S   0  0  0  0  0  0  0  0  0  0  0  0
   42.7420   30.9970   40.4640 C   0  0  0  0  0  0  0  0  0  0  0  0
   41.8490   31.6810   39.6850 C   0  0  0  0  0  0  0  0  0  0  0  0
   41.4280   32.6250   40.0460 H   0  0  0  0  0  0  0  0  0  0  0  0
   41.4480   31.2290   38.4400 C   0  0  0  0  0  0  0  0  0  0  0  0
   40.7440   31.7670   37.8230 H   0  0  0  0  0  0  0  0  0  0  0  0
   41.9880   30.0390   38.0010 C   0  0  0  0  0  0  0  0  0  0  0  0
   41.6940   29.6610   37.0330 H   0  0  0  0  0  0  0  0  0  0  0  0
   42.8830   29.3820   38.8160 C   0  0  0  0  0  0  0  0  0  0  0  0
   43.2600   28.4460   38.3840 H   0  0  0  0  0  0  0  0  0  0  0  0
   43.2990   29.8100   40.0590 C   0  0  0  0  0  0  0  0  0  0  0  0
   44.2210   29.0020   40.7500 N   0  0  0  0  0  0  0  0  0  0  0  0
   44.5600   28.1260   40.3190 H   0  0  0  0  0  0  0  0  0  0  0  0
  1 12  1  0  0  0  0
  1  6  1  0  0  0  0
  2  1  2  0  0  0  0
  3  2  1  0  0  0  0
  3  4  2  0  0  0  0
  4  5  1  0  0  0  0
  5  6  2  0  0  0  0
  5  7  1  0  0  0  0
  7  8  1  0  0  0  0
  8 14  1  0  0  0  0
  8  9  1  0  0  0  0
  9 16  1  0  0  0  0
  9 17  1  0  0  0  0
 10 19  1  0  0  0  0
 10 18  1  0  0  0  0
 10  9  1  0  0  0  0
 11 20  1  6  0  0  0
 11  7  1  0  0  0  0
 11 10  1  0  0  0  0
 13  3  1  0  0  0  0
 15  8  1  0  0  0  0
 21 23  1  0  0  0  0
 21  2  1  0  0  0  0
 22 21  1  0  0  0  0
 24 11  1  0  0  0  0
 25 24  1  0  0  0  0
 26 27  1  0  0  0  0
 26 25  2  0  0  0  0
 28 26  1  0  0  0  0
 29 28  1  0  0  0  0
 30 28  2  0  0  0  0
 30 31  1  0  0  0  0
 31 32  2  0  0  0  0
 32 33  1  0  0  0  0
 32 25  1  0  0  0  0
 34 31  1  0  0  0  0
 35 34  1  0  0  0  0
 36 37  1  0  0  0  0
 36 35  2  0  0  0  0
 38 36  1  0  0  0  0
 39 38  1  0  0  0  0
 40 38  2  0  0  0  0
 40 42  1  0  0  0  0
 41 40  1  0  0  0  0
 42 44  2  0  0  0  0
 43 42  1  0  0  0  0
 44 35  1  0  0  0  0
 44 45  1  0  0  0  0
 45 30  1  0  0  0  0
 46 45  1  0  0  0  0
M  END
>  <minimizedAffinity>
-5.34501028

>  <minimizedRMSD>
0.241789639

$$$$
