
 OpenBabel03252509023D

 58 62  0  0  1  0  0  0  0  0999 V2000
   42.0920   33.5020   40.5610 N   0  0  0  0  0  0  0  0  0  0  0  0
   43.0260   32.4770   40.8470 C   0  0  0  0  0  0  0  0  0  0  0  0
   42.4200   31.1190   41.1370 C   0  0  0  0  0  0  0  0  0  0  0  0
   41.1670   30.8240   40.3710 C   0  0  0  0  0  0  0  0  0  0  0  0
   40.8200   31.9320   39.4060 C   0  0  0  0  0  0  0  0  0  0  0  0
   40.7590   33.2040   40.3260 C   0  0  2  0  0  0  0  0  0  0  0  0
   43.7400   32.6890   41.6430 H   0  0  0  0  0  0  0  0  0  0  0  0
   43.6410   32.3360   39.9160 H   0  0  0  0  0  0  0  0  0  0  0  0
   42.2540   31.0330   42.2390 H   0  0  0  0  0  0  0  0  0  0  0  0
   43.1700   30.3410   40.8750 H   0  0  0  0  0  0  0  0  0  0  0  0
   41.1980   29.8240   39.8820 H   0  0  0  0  0  0  0  0  0  0  0  0
   40.3130   30.7690   41.1050 H   0  0  0  0  0  0  0  0  0  0  0  0
   41.5720   32.0790   38.6260 H   0  0  0  0  0  0  0  0  0  0  0  0
   39.8030   31.7440   39.0080 H   0  0  0  0  0  0  0  0  0  0  0  0
   40.1200   32.8960   41.1720 H   0  0  0  0  0  0  0  0  0  0  0  0
   42.4320   34.7720   41.1220 C   0  0  0  0  0  0  0  0  0  0  0  0
   41.8310   34.9260   42.0550 H   0  0  0  0  0  0  0  0  0  0  0  0
   42.1610   35.5700   40.4290 H   0  0  0  0  0  0  0  0  0  0  0  0
   43.8740   34.7640   41.5190 C   0  0  0  0  0  0  0  0  0  0  0  0
   44.4860   35.3660   40.8060 H   0  0  0  0  0  0  0  0  0  0  0  0
   44.3270   33.7640   41.5360 H   0  0  0  0  0  0  0  0  0  0  0  0
   45.0380   35.4960   45.0170 C   0  0  0  0  0  0  0  0  0  0  0  0
   44.8950   34.8810   43.7590 C   0  0  0  0  0  0  0  0  0  0  0  0
   44.0200   35.4190   42.8460 C   0  0  0  0  0  0  0  0  0  0  0  0
   43.3370   36.5150   43.2030 N   0  0  0  0  0  0  0  0  0  0  0  0
   43.4820   37.0970   44.4100 C   0  0  0  0  0  0  0  0  0  0  0  0
   44.3300   36.5950   45.3240 N   0  0  0  0  0  0  0  0  0  0  0  0
   45.7390   35.0470   45.7190 H   0  0  0  0  0  0  0  0  0  0  0  0
   45.4650   33.9890   43.5000 H   0  0  0  0  0  0  0  0  0  0  0  0
   42.8970   37.9800   44.6260 H   0  0  0  0  0  0  0  0  0  0  0  0
   40.1670   34.1340   39.4780 O   0  0  0  0  0  0  0  0  0  0  0  0
   38.5650   36.2250   39.7950 O   0  0  0  0  0  0  0  0  0  0  0  0
   38.7170   34.7380   40.0830 P   0  0  2  0  0  0  0  0  0  0  0  0
   38.8270   34.6210   41.7870 O   0  0  0  0  0  0  0  0  0  0  0  0
   38.5990   33.7060   42.0820 H   0  0  0  0  0  0  0  0  0  0  0  0
   37.4020   33.8440   39.5780 O   0  0  0  0  0  0  0  0  0  0  0  0
   37.3080   32.4800   39.4950 C   0  0  0  0  0  0  0  0  0  0  0  0
   37.2020   31.8340   38.2790 C   0  0  0  0  0  0  0  0  0  0  0  0
   37.1920   32.4170   37.3720 H   0  0  0  0  0  0  0  0  0  0  0  0
   37.1100   30.4570   38.2520 C   0  0  0  0  0  0  0  0  0  0  0  0
   37.0290   30.0250   37.2420 H   0  0  0  0  0  0  0  0  0  0  0  0
   37.1190   29.6750   39.3880 C   0  0  0  0  0  0  0  0  0  0  0  0
   37.2230   30.3020   40.6050 C   0  0  0  0  0  0  0  0  0  0  0  0
   37.3140   31.6680   40.6100 C   0  0  0  0  0  0  0  0  0  0  0  0
   37.3960   32.1660   41.5780 H   0  0  0  0  0  0  0  0  0  0  0  0
   37.2380   29.3270   42.0940 S   0  0  0  0  0  0  0  0  0  0  0  0
   37.0990   27.6300   41.5680 C   0  0  0  0  0  0  0  0  0  0  0  0
   37.0900   26.7060   42.5510 C   0  0  0  0  0  0  0  0  0  0  0  0
   37.1610   26.9460   43.6040 H   0  0  0  0  0  0  0  0  0  0  0  0
   36.9870   25.3650   42.2420 C   0  0  0  0  0  0  0  0  0  0  0  0
   36.9790   24.6210   43.0270 H   0  0  0  0  0  0  0  0  0  0  0  0
   36.8930   25.0070   40.9130 C   0  0  0  0  0  0  0  0  0  0  0  0
   36.8100   23.9680   40.6260 H   0  0  0  0  0  0  0  0  0  0  0  0
   36.9090   26.0060   39.9630 C   0  0  0  0  0  0  0  0  0  0  0  0
   36.8310   25.6590   38.9240 H   0  0  0  0  0  0  0  0  0  0  0  0
   37.0100   27.3550   40.2260 C   0  0  0  0  0  0  0  0  0  0  0  0
   37.0170   28.2910   39.1660 N   0  0  0  0  0  0  0  0  0  0  0  0
   36.9400   27.8900   38.2090 H   0  0  0  0  0  0  0  0  0  0  0  0
  1  2  1  0  0  0  0
  1 16  1  0  0  0  0
  2  3  1  0  0  0  0
  2  7  1  0  0  0  0
  3  9  1  0  0  0  0
  4 12  1  0  0  0  0
  4  3  1  0  0  0  0
  5  6  1  0  0  0  0
  5  4  1  0  0  0  0
  6  1  1  0  0  0  0
  6 15  1  1  0  0  0
  8  2  1  0  0  0  0
 10  3  1  0  0  0  0
 11  4  1  0  0  0  0
 13  5  1  0  0  0  0
 14  5  1  0  0  0  0
 16 19  1  0  0  0  0
 16 17  1  0  0  0  0
 18 16  1  0  0  0  0
 19 21  1  0  0  0  0
 19 24  1  0  0  0  0
 20 19  1  0  0  0  0
 22 27  1  0  0  0  0
 22 28  1  0  0  0  0
 23 22  2  0  0  0  0
 24 25  2  0  0  0  0
 24 23  1  0  0  0  0
 25 26  1  0  0  0  0
 26 30  1  0  0  0  0
 26 27  2  0  0  0  0
 29 23  1  0  0  0  0
 31 33  1  0  0  0  0
 31  6  1  0  0  0  0
 33 32  2  6  0  0  0
 33 34  1  0  0  0  0
 34 35  1  0  0  0  0
 36 33  1  0  0  0  0
 37 36  1  0  0  0  0
 37 44  1  0  0  0  0
 38 37  2  0  0  0  0
 39 38  1  0  0  0  0
 40 38  1  0  0  0  0
 40 42  2  0  0  0  0
 41 40  1  0  0  0  0
 42 43  1  0  0  0  0
 43 44  2  0  0  0  0
 43 46  1  0  0  0  0
 44 45  1  0  0  0  0
 47 46  1  0  0  0  0
 47 48  1  0  0  0  0
 48 49  1  0  0  0  0
 50 48  2  0  0  0  0
 50 51  1  0  0  0  0
 52 50  1  0  0  0  0
 53 52  1  0  0  0  0
 54 56  1  0  0  0  0
 54 52  2  0  0  0  0
 55 54  1  0  0  0  0
 56 47  2  0  0  0  0
 57 42  1  0  0  0  0
 57 56  1  0  0  0  0
 58 57  1  0  0  0  0
M  END
>  <minimizedAffinity>
-7.75762701

$$$$

 OpenBabel03252509023D

 58 62  0  0  1  0  0  0  0  0999 V2000
   42.5910   34.9120   40.9360 N   0  0  0  0  0  0  0  0  0  0  0  0
   41.9690   35.9360   41.6900 C   0  0  0  0  0  0  0  0  0  0  0  0
   41.0700   36.8610   40.8960 C   0  0  0  0  0  0  0  0  0  0  0  0
   40.3530   36.2020   39.7580 C   0  0  0  0  0  0  0  0  0  0  0  0
   40.6300   34.7190   39.6990 C   0  0  0  0  0  0  0  0  0  0  0  0
   42.1970   34.6480   39.6340 C   0  0  2  0  0  0  0  0  0  0  0  0
   42.6330   36.5620   42.2860 H   0  0  0  0  0  0  0  0  0  0  0  0
   41.2910   35.4230   42.4280 H   0  0  0  0  0  0  0  0  0  0  0  0
   41.6780   37.7310   40.5460 H   0  0  0  0  0  0  0  0  0  0  0  0
   40.3030   37.2770   41.5860 H   0  0  0  0  0  0  0  0  0  0  0  0
   39.2640   36.4350   39.7550 H   0  0  0  0  0  0  0  0  0  0  0  0
   40.7510   36.6340   38.7960 H   0  0  0  0  0  0  0  0  0  0  0  0
   40.2740   34.1760   40.5790 H   0  0  0  0  0  0  0  0  0  0  0  0
   40.2250   34.3260   38.7450 H   0  0  0  0  0  0  0  0  0  0  0  0
   42.4680   35.3610   38.8360 H   0  0  0  0  0  0  0  0  0  0  0  0
   43.9410   34.6430   41.3210 C   0  0  0  0  0  0  0  0  0  0  0  0
   44.6010   34.7540   40.4230 H   0  0  0  0  0  0  0  0  0  0  0  0
   44.0320   33.6120   41.6640 H   0  0  0  0  0  0  0  0  0  0  0  0
   44.3790   35.6660   42.3220 C   0  0  0  0  0  0  0  0  0  0  0  0
   43.5340   36.3430   42.5930 H   0  0  0  0  0  0  0  0  0  0  0  0
   45.1880   36.3190   41.9690 H   0  0  0  0  0  0  0  0  0  0  0  0
   45.1980   35.0610   45.9400 C   0  0  0  0  0  0  0  0  0  0  0  0
   44.8180   35.7040   44.7460 C   0  0  0  0  0  0  0  0  0  0  0  0
   44.7810   34.9810   43.5780 C   0  0  0  0  0  0  0  0  0  0  0  0
   45.1120   33.6830   43.6340 N   0  0  0  0  0  0  0  0  0  0  0  0
   45.4740   33.0770   44.7820 C   0  0  0  0  0  0  0  0  0  0  0  0
   45.5200   33.7570   45.9400 N   0  0  0  0  0  0  0  0  0  0  0  0
   45.2190   35.6600   46.8490 H   0  0  0  0  0  0  0  0  0  0  0  0
   44.5560   36.7610   44.7350 H   0  0  0  0  0  0  0  0  0  0  0  0
   45.7270   32.0270   44.7480 H   0  0  0  0  0  0  0  0  0  0  0  0
   42.4030   33.3150   39.2950 O   0  0  0  0  0  0  0  0  0  0  0  0
   43.5610   32.2430   37.1620 O   0  0  0  0  0  0  0  0  0  0  0  0
   42.3590   33.0490   37.6340 P   0  0  2  0  0  0  0  0  0  0  0  0
   42.5370   34.5860   36.9020 O   0  0  0  0  0  0  0  0  0  0  0  0
   41.6680   35.0550   36.8750 H   0  0  0  0  0  0  0  0  0  0  0  0
   40.9070   32.3950   37.1370 O   0  0  0  0  0  0  0  0  0  0  0  0
   40.0120   31.6890   37.8970 C   0  0  0  0  0  0  0  0  0  0  0  0
   38.6800   31.5920   37.5430 C   0  0  0  0  0  0  0  0  0  0  0  0
   38.3360   32.0830   36.6480 H   0  0  0  0  0  0  0  0  0  0  0  0
   37.8200   30.8680   38.3450 C   0  0  0  0  0  0  0  0  0  0  0  0
   36.7780   30.8420   37.9890 H   0  0  0  0  0  0  0  0  0  0  0  0
   38.2200   30.2250   39.4980 C   0  0  0  0  0  0  0  0  0  0  0  0
   39.5410   30.3120   39.8630 C   0  0  0  0  0  0  0  0  0  0  0  0
   40.3770   31.0340   39.0550 C   0  0  0  0  0  0  0  0  0  0  0  0
   41.4270   31.1040   39.3460 H   0  0  0  0  0  0  0  0  0  0  0  0
   40.0950   29.4960   41.3440 S   0  0  0  0  0  0  0  0  0  0  0  0
   38.6550   28.7040   42.0330 C   0  0  0  0  0  0  0  0  0  0  0  0
   38.8500   28.0160   43.1780 C   0  0  0  0  0  0  0  0  0  0  0  0
   39.8090   27.9310   43.6740 H   0  0  0  0  0  0  0  0  0  0  0  0
   37.7960   27.3680   43.7860 C   0  0  0  0  0  0  0  0  0  0  0  0
   37.9470   26.8160   44.7040 H   0  0  0  0  0  0  0  0  0  0  0  0
   36.5530   27.4460   43.1940 C   0  0  0  0  0  0  0  0  0  0  0  0
   35.6970   26.9540   43.6370 H   0  0  0  0  0  0  0  0  0  0  0  0
   36.4280   28.1660   42.0240 C   0  0  0  0  0  0  0  0  0  0  0  0
   35.4150   28.1910   41.6010 H   0  0  0  0  0  0  0  0  0  0  0  0
   37.4530   28.8280   41.3830 C   0  0  0  0  0  0  0  0  0  0  0  0
   37.2050   29.5370   40.1840 N   0  0  0  0  0  0  0  0  0  0  0  0
   36.2230   29.5170   39.8430 H   0  0  0  0  0  0  0  0  0  0  0  0
  1 16  1  0  0  0  0
  1  2  1  0  0  0  0
  2  7  1  0  0  0  0
  2  8  1  0  0  0  0
  3 10  1  0  0  0  0
  3  2  1  0  0  0  0
  4  3  1  0  0  0  0
  5  4  1  0  0  0  0
  5 13  1  0  0  0  0
  6 15  1  6  0  0  0
  6  5  1  0  0  0  0
  6  1  1  0  0  0  0
  9  3  1  0  0  0  0
 11  4  1  0  0  0  0
 12  4  1  0  0  0  0
 14  5  1  0  0  0  0
 16 18  1  0  0  0  0
 16 19  1  0  0  0  0
 17 16  1  0  0  0  0
 19 20  1  0  0  0  0
 19 24  1  0  0  0  0
 21 19  1  0  0  0  0
 22 27  1  0  0  0  0
 22 28  1  0  0  0  0
 23 22  2  0  0  0  0
 24 25  2  0  0  0  0
 24 23  1  0  0  0  0
 25 26  1  0  0  0  0
 26 27  2  0  0  0  0
 29 23  1  0  0  0  0
 30 26  1  0  0  0  0
 31  6  1  0  0  0  0
 33 32  2  6  0  0  0
 33 31  1  0  0  0  0
 34 33  1  0  0  0  0
 35 34  1  0  0  0  0
 36 33  1  0  0  0  0
 36 37  1  0  0  0  0
 37 44  1  0  0  0  0
 38 37  2  0  0  0  0
 38 40  1  0  0  0  0
 39 38  1  0  0  0  0
 40 42  2  0  0  0  0
 41 40  1  0  0  0  0
 42 43  1  0  0  0  0
 42 57  1  0  0  0  0
 43 46  1  0  0  0  0
 44 45  1  0  0  0  0
 44 43  2  0  0  0  0
 46 47  1  0  0  0  0
 47 48  1  0  0  0  0
 48 49  1  0  0  0  0
 48 50  2  0  0  0  0
 50 51  1  0  0  0  0
 52 53  1  0  0  0  0
 52 50  1  0  0  0  0
 54 52  2  0  0  0  0
 55 54  1  0  0  0  0
 56 54  1  0  0  0  0
 56 47  2  0  0  0  0
 57 56  1  0  0  0  0
 58 57  1  0  0  0  0
M  END
>  <minimizedAffinity>
-7.75414896

$$$$

 OpenBabel03252509023D

 58 62  0  0  1  0  0  0  0  0999 V2000
   43.0910   33.3190   39.0070 N   0  0  0  0  0  0  0  0  0  0  0  0
   43.6750   32.0500   38.7750 C   0  0  0  0  0  0  0  0  0  0  0  0
   42.7680   30.8670   39.0430 C   0  0  0  0  0  0  0  0  0  0  0  0
   41.3220   31.1140   38.7390 C   0  0  0  0  0  0  0  0  0  0  0  0
   41.0950   32.4850   38.1500 C   0  0  0  0  0  0  0  0  0  0  0  0
   41.7280   33.4450   39.2200 C   0  0  2  0  0  0  0  0  0  0  0  0
   44.6180   31.8570   39.2850 H   0  0  0  0  0  0  0  0  0  0  0  0
   43.9090   32.0020   37.6750 H   0  0  0  0  0  0  0  0  0  0  0  0
   42.9120   30.5420   40.1030 H   0  0  0  0  0  0  0  0  0  0  0  0
   43.1080   30.0170   38.4110 H   0  0  0  0  0  0  0  0  0  0  0  0
   40.8770   30.3030   38.1200 H   0  0  0  0  0  0  0  0  0  0  0  0
   40.7510   31.0920   39.7110 H   0  0  0  0  0  0  0  0  0  0  0  0
   41.5910   32.6310   37.1870 H   0  0  0  0  0  0  0  0  0  0  0  0
   40.0030   32.6750   38.1170 H   0  0  0  0  0  0  0  0  0  0  0  0
   41.2990   33.1040   40.1780 H   0  0  0  0  0  0  0  0  0  0  0  0
   43.9790   34.2680   39.6030 C   0  0  0  0  0  0  0  0  0  0  0  0
   43.4120   35.2120   39.8070 H   0  0  0  0  0  0  0  0  0  0  0  0
   44.7810   34.5150   38.9060 H   0  0  0  0  0  0  0  0  0  0  0  0
   44.4500   33.7390   40.9220 C   0  0  0  0  0  0  0  0  0  0  0  0
   45.4600   33.2770   40.8260 H   0  0  0  0  0  0  0  0  0  0  0  0
   43.8010   32.9640   41.3490 H   0  0  0  0  0  0  0  0  0  0  0  0
   45.9500   36.6080   42.8310 C   0  0  0  0  0  0  0  0  0  0  0  0
   45.8000   35.5370   41.9300 C   0  0  0  0  0  0  0  0  0  0  0  0
   44.6000   34.8690   41.8760 C   0  0  0  0  0  0  0  0  0  0  0  0
   43.6190   35.2760   42.6940 N   0  0  0  0  0  0  0  0  0  0  0  0
   43.7730   36.3030   43.5530 C   0  0  0  0  0  0  0  0  0  0  0  0
   44.9340   36.9750   43.6290 N   0  0  0  0  0  0  0  0  0  0  0  0
   46.9110   37.1170   42.8510 H   0  0  0  0  0  0  0  0  0  0  0  0
   46.6180   35.2310   41.2790 H   0  0  0  0  0  0  0  0  0  0  0  0
   42.9360   36.5740   44.1810 H   0  0  0  0  0  0  0  0  0  0  0  0
   41.2560   34.6840   38.7980 O   0  0  0  0  0  0  0  0  0  0  0  0
   40.4520   36.9860   39.8430 O   0  0  0  0  0  0  0  0  0  0  0  0
   40.3520   35.4740   39.9780 P   0  0  2  0  0  0  0  0  0  0  0  0
   41.0980   35.1070   41.4740 O   0  0  0  0  0  0  0  0  0  0  0  0
   40.7970   34.2240   41.7990 H   0  0  0  0  0  0  0  0  0  0  0  0
   38.7740   34.9340   40.0310 O   0  0  0  0  0  0  0  0  0  0  0  0
   38.3440   33.6390   40.1630 C   0  0  0  0  0  0  0  0  0  0  0  0
   37.3130   33.1380   39.3930 C   0  0  0  0  0  0  0  0  0  0  0  0
   36.8340   33.7780   38.6710 H   0  0  0  0  0  0  0  0  0  0  0  0
   36.9190   31.8250   39.5660 C   0  0  0  0  0  0  0  0  0  0  0  0
   36.0910   31.5080   38.9120 H   0  0  0  0  0  0  0  0  0  0  0  0
   37.5050   30.9730   40.4780 C   0  0  0  0  0  0  0  0  0  0  0  0
   38.5310   31.4560   41.2510 C   0  0  0  0  0  0  0  0  0  0  0  0
   38.9070   32.7600   41.0630 C   0  0  0  0  0  0  0  0  0  0  0  0
   39.7230   33.1440   41.6790 H   0  0  0  0  0  0  0  0  0  0  0  0
   39.3130   30.3860   42.4380 S   0  0  0  0  0  0  0  0  0  0  0  0
   38.4800   28.8160   42.3030 C   0  0  0  0  0  0  0  0  0  0  0  0
   38.9200   27.8420   43.1260 C   0  0  0  0  0  0  0  0  0  0  0  0
   39.7260   27.9720   43.8370 H   0  0  0  0  0  0  0  0  0  0  0  0
   38.3390   26.5920   43.0950 C   0  0  0  0  0  0  0  0  0  0  0  0
   38.6880   25.8080   43.7530 H   0  0  0  0  0  0  0  0  0  0  0  0
   37.3070   26.3750   42.2060 C   0  0  0  0  0  0  0  0  0  0  0  0
   36.8210   25.4100   42.1470 H   0  0  0  0  0  0  0  0  0  0  0  0
   36.9100   27.4170   41.3940 C   0  0  0  0  0  0  0  0  0  0  0  0
   36.0850   27.1830   40.7090 H   0  0  0  0  0  0  0  0  0  0  0  0
   37.4630   28.6800   41.3930 C   0  0  0  0  0  0  0  0  0  0  0  0
   36.9720   29.6730   40.5130 N   0  0  0  0  0  0  0  0  0  0  0  0
   36.1900   29.3800   39.8930 H   0  0  0  0  0  0  0  0  0  0  0  0
  1  6  1  0  0  0  0
  1 16  1  0  0  0  0
  2  1  1  0  0  0  0
  2  3  1  0  0  0  0
  2  7  1  0  0  0  0
  3  9  1  0  0  0  0
  4  3  1  0  0  0  0
  4 12  1  0  0  0  0
  5  4  1  0  0  0  0
  5  6  1  0  0  0  0
  6 15  1  1  0  0  0
  8  2  1  0  0  0  0
 10  3  1  0  0  0  0
 11  4  1  0  0  0  0
 13  5  1  0  0  0  0
 14  5  1  0  0  0  0
 16 17  1  0  0  0  0
 16 19  1  0  0  0  0
 18 16  1  0  0  0  0
 19 21  1  0  0  0  0
 19 24  1  0  0  0  0
 20 19  1  0  0  0  0
 22 28  1  0  0  0  0
 22 27  1  0  0  0  0
 23 22  2  0  0  0  0
 24 23  1  0  0  0  0
 24 25  2  0  0  0  0
 25 26  1  0  0  0  0
 26 27  2  0  0  0  0
 26 30  1  0  0  0  0
 29 23  1  0  0  0  0
 31  6  1  0  0  0  0
 31 33  1  0  0  0  0
 33 32  2  6  0  0  0
 33 36  1  0  0  0  0
 33 34  1  0  0  0  0
 34 35  1  0  0  0  0
 36 37  1  0  0  0  0
 37 44  1  0  0  0  0
 38 40  1  0  0  0  0
 38 37  2  0  0  0  0
 39 38  1  0  0  0  0
 40 42  2  0  0  0  0
 41 40  1  0  0  0  0
 42 57  1  0  0  0  0
 42 43  1  0  0  0  0
 43 46  1  0  0  0  0
 44 43  2  0  0  0  0
 44 45  1  0  0  0  0
 47 46  1  0  0  0  0
 47 48  1  0  0  0  0
 48 49  1  0  0  0  0
 50 48  2  0  0  0  0
 50 51  1  0  0  0  0
 52 50  1  0  0  0  0
 53 52  1  0  0  0  0
 54 52  2  0  0  0  0
 55 54  1  0  0  0  0
 56 54  1  0  0  0  0
 56 47  2  0  0  0  0
 57 56  1  0  0  0  0
 58 57  1  0  0  0  0
M  END
>  <minimizedAffinity>
-7.29166174

$$$$

 OpenBabel03252509023D

 58 62  0  0  1  0  0  0  0  0999 V2000
   43.4000   33.5590   42.1690 N   0  0  0  0  0  0  0  0  0  0  0  0
   44.6540   33.3970   42.8050 C   0  0  0  0  0  0  0  0  0  0  0  0
   45.6830   34.4580   42.4750 C   0  0  0  0  0  0  0  0  0  0  0  0
   45.1120   35.8220   42.2390 C   0  0  0  0  0  0  0  0  0  0  0  0
   43.6200   35.8570   42.4630 C   0  0  0  0  0  0  0  0  0  0  0  0
   43.0870   34.7330   41.5030 C   0  0  2  0  0  0  0  0  0  0  0  0
   45.1350   32.4270   42.6750 H   0  0  0  0  0  0  0  0  0  0  0  0
   44.4680   33.4980   43.9110 H   0  0  0  0  0  0  0  0  0  0  0  0
   46.2820   34.1090   41.5970 H   0  0  0  0  0  0  0  0  0  0  0  0
   46.3960   34.5290   43.3260 H   0  0  0  0  0  0  0  0  0  0  0  0
   45.6500   36.6090   42.8150 H   0  0  0  0  0  0  0  0  0  0  0  0
   45.2740   36.0870   41.1550 H   0  0  0  0  0  0  0  0  0  0  0  0
   43.3310   35.6290   43.4920 H   0  0  0  0  0  0  0  0  0  0  0  0
   43.2350   36.8310   42.1020 H   0  0  0  0  0  0  0  0  0  0  0  0
   43.5730   34.9490   40.5360 H   0  0  0  0  0  0  0  0  0  0  0  0
   42.8050   32.3340   41.7340 C   0  0  0  0  0  0  0  0  0  0  0  0
   41.9330   32.5710   41.0730 H   0  0  0  0  0  0  0  0  0  0  0  0
   42.4180   31.7830   42.5930 H   0  0  0  0  0  0  0  0  0  0  0  0
   43.7940   31.5730   40.9090 C   0  0  0  0  0  0  0  0  0  0  0  0
   43.8530   30.5090   41.2410 H   0  0  0  0  0  0  0  0  0  0  0  0
   44.8180   31.9640   40.9660 H   0  0  0  0  0  0  0  0  0  0  0  0
   41.6240   31.0400   37.8870 C   0  0  0  0  0  0  0  0  0  0  0  0
   42.0690   31.0730   39.2220 C   0  0  0  0  0  0  0  0  0  0  0  0
   43.3310   31.5410   39.4970 C   0  0  0  0  0  0  0  0  0  0  0  0
   44.0860   31.9490   38.4670 N   0  0  0  0  0  0  0  0  0  0  0  0
   43.6510   31.9140   37.1920 C   0  0  0  0  0  0  0  0  0  0  0  0
   42.4220   31.4610   36.8920 N   0  0  0  0  0  0  0  0  0  0  0  0
   40.6200   30.6640   37.7010 H   0  0  0  0  0  0  0  0  0  0  0  0
   41.4300   30.7330   40.0370 H   0  0  0  0  0  0  0  0  0  0  0  0
   44.3170   32.2600   36.4140 H   0  0  0  0  0  0  0  0  0  0  0  0
   41.7180   34.9810   41.5160 O   0  0  0  0  0  0  0  0  0  0  0  0
   41.8980   34.5880   38.8980 O   0  0  0  0  0  0  0  0  0  0  0  0
   41.0980   35.2940   39.9830 P   0  0  2  0  0  0  0  0  0  0  0  0
   41.3430   36.9660   39.7040 O   0  0  0  0  0  0  0  0  0  0  0  0
   40.6240   37.4930   40.1300 H   0  0  0  0  0  0  0  0  0  0  0  0
   39.4620   34.9800   39.8870 O   0  0  0  0  0  0  0  0  0  0  0  0
   38.8250   33.8010   40.1740 C   0  0  0  0  0  0  0  0  0  0  0  0
   37.5790   33.5070   39.6560 C   0  0  0  0  0  0  0  0  0  0  0  0
   37.0950   34.2200   39.0100 H   0  0  0  0  0  0  0  0  0  0  0  0
   36.9820   32.3040   39.9780 C   0  0  0  0  0  0  0  0  0  0  0  0
   35.9910   32.1500   39.5220 H   0  0  0  0  0  0  0  0  0  0  0  0
   37.5680   31.3640   40.8000 C   0  0  0  0  0  0  0  0  0  0  0  0
   38.8060   31.6420   41.3240 C   0  0  0  0  0  0  0  0  0  0  0  0
   39.3810   32.8390   40.9920 C   0  0  0  0  0  0  0  0  0  0  0  0
   40.3650   33.0600   41.4090 H   0  0  0  0  0  0  0  0  0  0  0  0
   39.5940   30.4530   42.3890 S   0  0  0  0  0  0  0  0  0  0  0  0
   38.4620   29.0820   42.5120 C   0  0  0  0  0  0  0  0  0  0  0  0
   38.8650   28.0520   43.2830 C   0  0  0  0  0  0  0  0  0  0  0  0
   39.8100   28.0270   43.8100 H   0  0  0  0  0  0  0  0  0  0  0  0
   38.0580   26.9440   43.4390 C   0  0  0  0  0  0  0  0  0  0  0  0
   38.3760   26.1160   44.0570 H   0  0  0  0  0  0  0  0  0  0  0  0
   36.8420   26.9270   42.7880 C   0  0  0  0  0  0  0  0  0  0  0  0
   36.1760   26.0790   42.8820 H   0  0  0  0  0  0  0  0  0  0  0  0
   36.4960   28.0160   42.0150 C   0  0  0  0  0  0  0  0  0  0  0  0
   35.5170   27.9430   41.5230 H   0  0  0  0  0  0  0  0  0  0  0  0
   37.2710   29.1410   41.8330 C   0  0  0  0  0  0  0  0  0  0  0  0
   36.8110   30.1990   41.0140 N   0  0  0  0  0  0  0  0  0  0  0  0
   35.8760   30.0600   40.5810 H   0  0  0  0  0  0  0  0  0  0  0  0
  1  2  1  0  0  0  0
  2  8  1  0  0  0  0
  3  2  1  0  0  0  0
  3 10  1  0  0  0  0
  4  5  1  0  0  0  0
  4  3  1  0  0  0  0
  4 11  1  0  0  0  0
  5 13  1  0  0  0  0
  6 15  1  6  0  0  0
  6 31  1  0  0  0  0
  6  1  1  0  0  0  0
  6  5  1  0  0  0  0
  7  2  1  0  0  0  0
  9  3  1  0  0  0  0
 12  4  1  0  0  0  0
 14  5  1  0  0  0  0
 16  1  1  0  0  0  0
 16 18  1  0  0  0  0
 17 16  1  0  0  0  0
 19 21  1  0  0  0  0
 19 20  1  0  0  0  0
 19 16  1  0  0  0  0
 22 23  1  0  0  0  0
 23 24  2  0  0  0  0
 23 29  1  0  0  0  0
 24 19  1  0  0  0  0
 25 24  1  0  0  0  0
 26 25  2  0  0  0  0
 27 26  1  0  0  0  0
 27 22  2  0  0  0  0
 28 22  1  0  0  0  0
 30 26  1  0  0  0  0
 33 32  2  6  0  0  0
 33 31  1  0  0  0  0
 34 33  1  0  0  0  0
 34 35  1  0  0  0  0
 36 33  1  0  0  0  0
 36 37  1  0  0  0  0
 37 44  1  0  0  0  0
 38 40  1  0  0  0  0
 38 37  2  0  0  0  0
 39 38  1  0  0  0  0
 40 42  2  0  0  0  0
 41 40  1  0  0  0  0
 42 57  1  0  0  0  0
 42 43  1  0  0  0  0
 43 46  1  0  0  0  0
 44 43  2  0  0  0  0
 44 45  1  0  0  0  0
 46 47  1  0  0  0  0
 47 48  1  0  0  0  0
 48 50  2  0  0  0  0
 48 49  1  0  0  0  0
 50 51  1  0  0  0  0
 52 53  1  0  0  0  0
 52 50  1  0  0  0  0
 54 52  2  0  0  0  0
 55 54  1  0  0  0  0
 56 54  1  0  0  0  0
 56 47  2  0  0  0  0
 57 56  1  0  0  0  0
 58 57  1  0  0  0  0
M  END
>  <minimizedAffinity>
-7.093822

$$$$

 OpenBabel03252509023D

 58 62  0  0  1  0  0  0  0  0999 V2000
   39.3730   34.2060   40.1400 N   0  0  0  0  0  0  0  0  0  0  0  0
   38.6890   35.4310   39.9490 C   0  0  0  0  0  0  0  0  0  0  0  0
   39.5100   36.6730   40.2220 C   0  0  0  0  0  0  0  0  0  0  0  0
   40.9630   36.5430   39.8800 C   0  0  0  0  0  0  0  0  0  0  0  0
   41.2780   35.2060   39.2550 C   0  0  0  0  0  0  0  0  0  0  0  0
   40.7460   34.1790   40.3170 C   0  0  2  0  0  0  0  0  0  0  0  0
   37.7460   35.5410   40.4850 H   0  0  0  0  0  0  0  0  0  0  0  0
   38.4240   35.4830   38.8560 H   0  0  0  0  0  0  0  0  0  0  0  0
   39.3680   36.9640   41.2920 H   0  0  0  0  0  0  0  0  0  0  0  0
   39.0910   37.5070   39.6170 H   0  0  0  0  0  0  0  0  0  0  0  0
   41.3290   37.3990   39.2680 H   0  0  0  0  0  0  0  0  0  0  0  0
   41.5540   36.5900   40.8380 H   0  0  0  0  0  0  0  0  0  0  0  0
   40.7710   35.0430   38.3000 H   0  0  0  0  0  0  0  0  0  0  0  0
   42.3800   35.1010   39.1930 H   0  0  0  0  0  0  0  0  0  0  0  0
   41.1720   34.5320   41.2730 H   0  0  0  0  0  0  0  0  0  0  0  0
   38.5740   33.1800   40.7340 C   0  0  0  0  0  0  0  0  0  0  0  0
   38.1890   33.5490   41.7190 H   0  0  0  0  0  0  0  0  0  0  0  0
   39.1880   32.3010   40.9360 H   0  0  0  0  0  0  0  0  0  0  0  0
   37.3860   32.9150   39.8640 C   0  0  0  0  0  0  0  0  0  0  0  0
   37.6160   33.1470   38.7970 H   0  0  0  0  0  0  0  0  0  0  0  0
   36.5030   33.5150   40.1200 H   0  0  0  0  0  0  0  0  0  0  0  0
   37.4770   29.2220   39.1760 C   0  0  0  0  0  0  0  0  0  0  0  0
   37.7830   30.5950   39.1360 C   0  0  0  0  0  0  0  0  0  0  0  0
   37.0570   31.4670   39.9120 C   0  0  0  0  0  0  0  0  0  0  0  0
   36.0820   30.9590   40.6790 N   0  0  0  0  0  0  0  0  0  0  0  0
   35.7970   29.6420   40.7110 C   0  0  0  0  0  0  0  0  0  0  0  0
   36.4890   28.7660   39.9630 N   0  0  0  0  0  0  0  0  0  0  0  0
   38.0680   28.5560   38.5500 H   0  0  0  0  0  0  0  0  0  0  0  0
   38.5820   30.9750   38.5000 H   0  0  0  0  0  0  0  0  0  0  0  0
   34.9960   29.3070   41.3550 H   0  0  0  0  0  0  0  0  0  0  0  0
   41.3000   32.9880   39.8570 O   0  0  0  0  0  0  0  0  0  0  0  0
   43.5530   33.5750   41.1290 O   0  0  0  0  0  0  0  0  0  0  0  0
   42.5770   32.4510   40.8120 P   0  0  2  0  0  0  0  0  0  0  0  0
   43.4630   31.3500   39.8460 O   0  0  0  0  0  0  0  0  0  0  0  0
   43.0380   30.4570   39.8670 H   0  0  0  0  0  0  0  0  0  0  0  0
   42.0520   31.6480   42.1770 O   0  0  0  0  0  0  0  0  0  0  0  0
   41.0970   30.6670   42.2460 C   0  0  0  0  0  0  0  0  0  0  0  0
   39.8620   30.8990   42.8180 C   0  0  0  0  0  0  0  0  0  0  0  0
   39.6420   31.8750   43.2200 H   0  0  0  0  0  0  0  0  0  0  0  0
   38.9360   29.8760   42.8630 C   0  0  0  0  0  0  0  0  0  0  0  0
   37.9780   30.1470   43.3350 H   0  0  0  0  0  0  0  0  0  0  0  0
   39.1770   28.6140   42.3610 C   0  0  0  0  0  0  0  0  0  0  0  0
   40.4010   28.3670   41.7890 C   0  0  0  0  0  0  0  0  0  0  0  0
   41.3040   29.3950   41.7550 C   0  0  0  0  0  0  0  0  0  0  0  0
   42.2780   29.1980   41.3010 H   0  0  0  0  0  0  0  0  0  0  0  0
   40.7500   26.7510   41.1290 S   0  0  0  0  0  0  0  0  0  0  0  0
   39.2810   25.7820   41.4110 C   0  0  0  0  0  0  0  0  0  0  0  0
   39.3270   24.5030   40.9820 C   0  0  0  0  0  0  0  0  0  0  0  0
   40.1860   24.0620   40.4940 H   0  0  0  0  0  0  0  0  0  0  0  0
   38.2380   23.6740   41.1540 C   0  0  0  0  0  0  0  0  0  0  0  0
   38.2700   22.6490   40.8120 H   0  0  0  0  0  0  0  0  0  0  0  0
   37.1170   24.1900   41.7700 C   0  0  0  0  0  0  0  0  0  0  0  0
   36.2400   23.5760   41.9260 H   0  0  0  0  0  0  0  0  0  0  0  0
   37.1420   25.5060   42.1820 C   0  0  0  0  0  0  0  0  0  0  0  0
   36.2210   25.8580   42.6660 H   0  0  0  0  0  0  0  0  0  0  0  0
   38.2070   26.3680   42.0310 C   0  0  0  0  0  0  0  0  0  0  0  0
   38.1170   27.7010   42.4940 N   0  0  0  0  0  0  0  0  0  0  0  0
   37.2150   27.9640   42.9410 H   0  0  0  0  0  0  0  0  0  0  0  0
  1  6  1  0  0  0  0
  1 16  1  0  0  0  0
  2  1  1  0  0  0  0
  2  3  1  0  0  0  0
  2  7  1  0  0  0  0
  3  9  1  0  0  0  0
  4  3  1  0  0  0  0
  4 12  1  0  0  0  0
  5  4  1  0  0  0  0
  5  6  1  0  0  0  0
  6 15  1  1  0  0  0
  8  2  1  0  0  0  0
 10  3  1  0  0  0  0
 11  4  1  0  0  0  0
 13  5  1  0  0  0  0
 14  5  1  0  0  0  0
 16 18  1  0  0  0  0
 16 17  1  0  0  0  0
 19 24  1  0  0  0  0
 19 21  1  0  0  0  0
 19 16  1  0  0  0  0
 20 19  1  0  0  0  0
 22 27  1  0  0  0  0
 23 22  2  0  0  0  0
 23 24  1  0  0  0  0
 24 25  2  0  0  0  0
 25 26  1  0  0  0  0
 26 30  1  0  0  0  0
 27 26  2  0  0  0  0
 28 22  1  0  0  0  0
 29 23  1  0  0  0  0
 31  6  1  0  0  0  0
 31 33  1  0  0  0  0
 33 32  2  1  0  0  0
 33 36  1  0  0  0  0
 34 35  1  0  0  0  0
 34 33  1  0  0  0  0
 36 37  1  0  0  0  0
 37 38  1  0  0  0  0
 38 40  2  0  0  0  0
 38 39  1  0  0  0  0
 40 41  1  0  0  0  0
 42 57  1  0  0  0  0
 42 40  1  0  0  0  0
 43 42  2  0  0  0  0
 44 43  1  0  0  0  0
 44 37  2  0  0  0  0
 45 44  1  0  0  0  0
 46 47  1  0  0  0  0
 46 43  1  0  0  0  0
 47 56  1  0  0  0  0
 48 50  1  0  0  0  0
 48 47  2  0  0  0  0
 49 48  1  0  0  0  0
 50 52  2  0  0  0  0
 51 50  1  0  0  0  0
 52 53  1  0  0  0  0
 52 54  1  0  0  0  0
 54 55  1  0  0  0  0
 56 54  2  0  0  0  0
 56 57  1  0  0  0  0
 57 58  1  0  0  0  0
M  END
>  <minimizedAffinity>
-6.76574707

$$$$

 OpenBabel03252509023D

 58 62  0  0  1  0  0  0  0  0999 V2000
   37.0400   31.0240   39.7930 N   0  0  0  0  0  0  0  0  0  0  0  0
   36.9520   31.3440   38.4170 C   0  0  0  0  0  0  0  0  0  0  0  0
   36.9830   30.1550   37.4790 C   0  0  0  0  0  0  0  0  0  0  0  0
   36.3340   28.9190   38.0230 C   0  0  0  0  0  0  0  0  0  0  0  0
   35.7140   29.1580   39.3790 C   0  0  0  0  0  0  0  0  0  0  0  0
   36.9110   29.7150   40.2290 C   0  0  2  0  0  0  0  0  0  0  0  0
   37.6780   32.0680   38.0460 H   0  0  0  0  0  0  0  0  0  0  0  0
   35.9430   31.8180   38.2620 H   0  0  0  0  0  0  0  0  0  0  0  0
   38.0440   29.9630   37.1850 H   0  0  0  0  0  0  0  0  0  0  0  0
   36.4490   30.4360   36.5440 H   0  0  0  0  0  0  0  0  0  0  0  0
   35.6210   28.4640   37.3000 H   0  0  0  0  0  0  0  0  0  0  0  0
   37.1360   28.1420   38.1770 H   0  0  0  0  0  0  0  0  0  0  0  0
   34.9030   29.8900   39.3620 H   0  0  0  0  0  0  0  0  0  0  0  0
   35.4150   28.1780   39.8030 H   0  0  0  0  0  0  0  0  0  0  0  0
   37.7330   29.0030   40.0400 H   0  0  0  0  0  0  0  0  0  0  0  0
   37.8400   31.9340   40.5520 C   0  0  0  0  0  0  0  0  0  0  0  0
   38.9140   31.6280   40.4640 H   0  0  0  0  0  0  0  0  0  0  0  0
   37.5720   31.8740   41.6070 H   0  0  0  0  0  0  0  0  0  0  0  0
   37.7200   33.3040   39.9620 C   0  0  0  0  0  0  0  0  0  0  0  0
   36.9410   33.8990   40.4950 H   0  0  0  0  0  0  0  0  0  0  0  0
   37.4320   33.3100   38.9020 H   0  0  0  0  0  0  0  0  0  0  0  0
   40.1830   36.0980   40.4630 C   0  0  0  0  0  0  0  0  0  0  0  0
   38.9740   35.4010   40.2830 C   0  0  0  0  0  0  0  0  0  0  0  0
   39.0010   34.0330   40.1530 C   0  0  0  0  0  0  0  0  0  0  0  0
   40.1930   33.4220   40.2050 N   0  0  0  0  0  0  0  0  0  0  0  0
   41.3460   34.0990   40.3790 C   0  0  0  0  0  0  0  0  0  0  0  0
   41.3510   35.4360   40.5090 N   0  0  0  0  0  0  0  0  0  0  0  0
   40.1300   37.1800   40.5630 H   0  0  0  0  0  0  0  0  0  0  0  0
   38.0210   35.9280   40.2430 H   0  0  0  0  0  0  0  0  0  0  0  0
   42.2690   33.5380   40.4120 H   0  0  0  0  0  0  0  0  0  0  0  0
   36.3930   29.6520   41.5180 O   0  0  0  0  0  0  0  0  0  0  0  0
   36.2240   27.6710   43.2750 O   0  0  0  0  0  0  0  0  0  0  0  0
   37.1980   28.5400   42.4910 P   0  0  2  0  0  0  0  0  0  0  0  0
   38.0300   29.4570   43.6730 O   0  0  0  0  0  0  0  0  0  0  0  0
   38.8840   29.7930   43.3070 H   0  0  0  0  0  0  0  0  0  0  0  0
   38.3170   27.6460   41.6360 O   0  0  0  0  0  0  0  0  0  0  0  0
   38.3020   26.2950   41.4100 C   0  0  0  0  0  0  0  0  0  0  0  0
   39.1820   25.4440   42.0490 C   0  0  0  0  0  0  0  0  0  0  0  0
   39.8980   25.8510   42.7440 H   0  0  0  0  0  0  0  0  0  0  0  0
   39.1240   24.0900   41.7850 C   0  0  0  0  0  0  0  0  0  0  0  0
   39.8600   23.4850   42.3380 H   0  0  0  0  0  0  0  0  0  0  0  0
   38.2230   23.5280   40.9050 C   0  0  0  0  0  0  0  0  0  0  0  0
   37.3410   24.3610   40.2600 C   0  0  0  0  0  0  0  0  0  0  0  0
   37.4150   25.7000   40.5370 C   0  0  0  0  0  0  0  0  0  0  0  0
   36.7150   26.3610   40.0240 H   0  0  0  0  0  0  0  0  0  0  0  0
   36.1630   23.6740   39.1170 S   0  0  0  0  0  0  0  0  0  0  0  0
   36.4640   21.9170   39.1040 C   0  0  0  0  0  0  0  0  0  0  0  0
   35.6700   21.1880   38.2910 C   0  0  0  0  0  0  0  0  0  0  0  0
   34.8900   21.6130   37.6720 H   0  0  0  0  0  0  0  0  0  0  0  0
   35.8260   19.8200   38.2140 C   0  0  0  0  0  0  0  0  0  0  0  0
   35.1920   19.2320   37.5630 H   0  0  0  0  0  0  0  0  0  0  0  0
   36.8070   19.2300   38.9830 C   0  0  0  0  0  0  0  0  0  0  0  0
   36.9650   18.1610   38.9530 H   0  0  0  0  0  0  0  0  0  0  0  0
   37.5800   20.0380   39.7910 C   0  0  0  0  0  0  0  0  0  0  0  0
   38.3440   19.5110   40.3790 H   0  0  0  0  0  0  0  0  0  0  0  0
   37.4590   21.4070   39.8990 C   0  0  0  0  0  0  0  0  0  0  0  0
   38.3110   22.1330   40.7630 N   0  0  0  0  0  0  0  0  0  0  0  0
   39.0090   21.5680   41.2880 H   0  0  0  0  0  0  0  0  0  0  0  0
  1  6  1  0  0  0  0
  1 16  1  0  0  0  0
  2  1  1  0  0  0  0
  3  4  1  0  0  0  0
  3  2  1  0  0  0  0
  4 12  1  0  0  0  0
  4  5  1  0  0  0  0
  5 14  1  0  0  0  0
  5  6  1  0  0  0  0
  6 15  1  6  0  0  0
  6 31  1  0  0  0  0
  7  2  1  0  0  0  0
  8  2  1  0  0  0  0
  9  3  1  0  0  0  0
 10  3  1  0  0  0  0
 11  4  1  0  0  0  0
 13  5  1  0  0  0  0
 16 18  1  0  0  0  0
 17 16  1  0  0  0  0
 19 24  1  0  0  0  0
 19 20  1  0  0  0  0
 19 16  1  0  0  0  0
 21 19  1  0  0  0  0
 22 27  1  0  0  0  0
 22 28  1  0  0  0  0
 23 22  2  0  0  0  0
 24 25  2  0  0  0  0
 24 23  1  0  0  0  0
 25 26  1  0  0  0  0
 26 30  1  0  0  0  0
 26 27  2  0  0  0  0
 29 23  1  0  0  0  0
 31 33  1  0  0  0  0
 33 32  2  1  0  0  0
 33 34  1  0  0  0  0
 35 34  1  0  0  0  0
 36 33  1  0  0  0  0
 37 36  1  0  0  0  0
 37 38  1  0  0  0  0
 38 39  1  0  0  0  0
 40 38  2  0  0  0  0
 40 41  1  0  0  0  0
 42 40  1  0  0  0  0
 43 44  1  0  0  0  0
 43 42  2  0  0  0  0
 44 37  2  0  0  0  0
 45 44  1  0  0  0  0
 46 43  1  0  0  0  0
 47 46  1  0  0  0  0
 47 56  1  0  0  0  0
 48 47  2  0  0  0  0
 49 48  1  0  0  0  0
 50 48  1  0  0  0  0
 50 52  2  0  0  0  0
 51 50  1  0  0  0  0
 52 54  1  0  0  0  0
 53 52  1  0  0  0  0
 54 56  2  0  0  0  0
 54 55  1  0  0  0  0
 56 57  1  0  0  0  0
 57 42  1  0  0  0  0
 57 58  1  0  0  0  0
M  END
>  <minimizedAffinity>
-6.73772335

$$$$

 OpenBabel03252509023D

 58 62  0  0  1  0  0  0  0  0999 V2000
   39.5770   34.1880   39.5270 N   0  0  0  0  0  0  0  0  0  0  0  0
   38.8350   35.0910   40.3270 C   0  0  0  0  0  0  0  0  0  0  0  0
   39.6660   35.9840   41.2240 C   0  0  0  0  0  0  0  0  0  0  0  0
   40.9920   36.3770   40.6500 C   0  0  0  0  0  0  0  0  0  0  0  0
   41.1790   35.8510   39.2480 C   0  0  0  0  0  0  0  0  0  0  0  0
   40.9520   34.3060   39.4110 C   0  0  2  0  0  0  0  0  0  0  0  0
   38.0510   34.6510   40.9430 H   0  0  0  0  0  0  0  0  0  0  0  0
   38.3090   35.7880   39.6180 H   0  0  0  0  0  0  0  0  0  0  0  0
   39.7840   35.4800   42.2150 H   0  0  0  0  0  0  0  0  0  0  0  0
   39.0890   36.9150   41.4180 H   0  0  0  0  0  0  0  0  0  0  0  0
   41.1750   37.4730   40.7240 H   0  0  0  0  0  0  0  0  0  0  0  0
   41.8000   35.9000   41.2750 H   0  0  0  0  0  0  0  0  0  0  0  0
   40.4570   36.2560   38.5330 H   0  0  0  0  0  0  0  0  0  0  0  0
   42.2340   36.0170   38.9500 H   0  0  0  0  0  0  0  0  0  0  0  0
   41.5900   34.0260   40.2670 H   0  0  0  0  0  0  0  0  0  0  0  0
   38.9760   32.8970   39.3980 C   0  0  0  0  0  0  0  0  0  0  0  0
   39.7030   32.1240   39.7570 H   0  0  0  0  0  0  0  0  0  0  0  0
   38.7720   32.6850   38.3470 H   0  0  0  0  0  0  0  0  0  0  0  0
   37.7740   32.8230   40.2860 C   0  0  0  0  0  0  0  0  0  0  0  0
   37.0870   33.6810   40.0970 H   0  0  0  0  0  0  0  0  0  0  0  0
   38.0080   32.8540   41.3580 H   0  0  0  0  0  0  0  0  0  0  0  0
   36.3780   29.8950   38.3880 C   0  0  0  0  0  0  0  0  0  0  0  0
   37.1080   31.0570   38.7020 C   0  0  0  0  0  0  0  0  0  0  0  0
   37.0010   31.5950   39.9620 C   0  0  0  0  0  0  0  0  0  0  0  0
   36.1990   30.9790   40.8410 N   0  0  0  0  0  0  0  0  0  0  0  0
   35.5050   29.8650   40.5300 C   0  0  0  0  0  0  0  0  0  0  0  0
   35.5880   29.3160   39.3070 N   0  0  0  0  0  0  0  0  0  0  0  0
   36.4830   29.4920   37.3820 H   0  0  0  0  0  0  0  0  0  0  0  0
   37.7510   31.5350   37.9640 H   0  0  0  0  0  0  0  0  0  0  0  0
   34.8780   29.4240   41.2920 H   0  0  0  0  0  0  0  0  0  0  0  0
   41.4070   33.8250   38.1870 O   0  0  0  0  0  0  0  0  0  0  0  0
   43.7150   33.7110   39.4880 O   0  0  0  0  0  0  0  0  0  0  0  0
   42.9630   33.1920   38.2710 P   0  0  2  0  0  0  0  0  0  0  0  0
   43.8070   33.8220   36.9220 O   0  0  0  0  0  0  0  0  0  0  0  0
   43.6070   33.2890   36.1140 H   0  0  0  0  0  0  0  0  0  0  0  0
   42.9740   31.5260   38.1670 O   0  0  0  0  0  0  0  0  0  0  0  0
   42.0110   30.6610   38.6150 C   0  0  0  0  0  0  0  0  0  0  0  0
   41.4920   29.6730   37.8020 C   0  0  0  0  0  0  0  0  0  0  0  0
   41.8520   29.5790   36.7910 H   0  0  0  0  0  0  0  0  0  0  0  0
   40.5220   28.8260   38.3030 C   0  0  0  0  0  0  0  0  0  0  0  0
   40.1650   28.0680   37.5890 H   0  0  0  0  0  0  0  0  0  0  0  0
   40.0350   28.9130   39.5910 C   0  0  0  0  0  0  0  0  0  0  0  0
   40.5400   29.8900   40.4110 C   0  0  0  0  0  0  0  0  0  0  0  0
   41.5010   30.7180   39.8950 C   0  0  0  0  0  0  0  0  0  0  0  0
   41.9020   31.4960   40.5480 H   0  0  0  0  0  0  0  0  0  0  0  0
   39.9360   30.0330   42.0790 S   0  0  0  0  0  0  0  0  0  0  0  0
   38.7140   28.7490   42.2670 C   0  0  0  0  0  0  0  0  0  0  0  0
   38.1180   28.6740   43.4750 C   0  0  0  0  0  0  0  0  0  0  0  0
   38.3440   29.3370   44.3010 H   0  0  0  0  0  0  0  0  0  0  0  0
   37.1610   27.7110   43.7180 C   0  0  0  0  0  0  0  0  0  0  0  0
   36.6790   27.6480   44.6840 H   0  0  0  0  0  0  0  0  0  0  0  0
   36.8370   26.8410   42.6980 C   0  0  0  0  0  0  0  0  0  0  0  0
   36.0910   26.0720   42.8430 H   0  0  0  0  0  0  0  0  0  0  0  0
   37.4880   26.9770   41.4890 C   0  0  0  0  0  0  0  0  0  0  0  0
   37.1880   26.2560   40.7170 H   0  0  0  0  0  0  0  0  0  0  0  0
   38.4500   27.9230   41.2040 C   0  0  0  0  0  0  0  0  0  0  0  0
   39.0510   27.9660   39.9250 N   0  0  0  0  0  0  0  0  0  0  0  0
   38.7170   27.2530   39.2450 H   0  0  0  0  0  0  0  0  0  0  0  0
  1  2  1  0  0  0  0
  2  7  1  0  0  0  0
  2  3  1  0  0  0  0
  3 10  1  0  0  0  0
  3  9  1  0  0  0  0
  4 11  1  0  0  0  0
  4  3  1  0  0  0  0
  4 12  1  0  0  0  0
  5  6  1  0  0  0  0
  5  4  1  0  0  0  0
  6  1  1  0  0  0  0
  6 15  1  1  0  0  0
  8  2  1  0  0  0  0
 13  5  1  0  0  0  0
 14  5  1  0  0  0  0
 16  1  1  0  0  0  0
 16 17  1  0  0  0  0
 16 19  1  0  0  0  0
 18 16  1  0  0  0  0
 19 21  1  0  0  0  0
 20 19  1  0  0  0  0
 22 23  2  0  0  0  0
 22 27  1  0  0  0  0
 23 24  1  0  0  0  0
 24 19  1  0  0  0  0
 24 25  2  0  0  0  0
 26 25  1  0  0  0  0
 26 30  1  0  0  0  0
 27 26  2  0  0  0  0
 28 22  1  0  0  0  0
 29 23  1  0  0  0  0
 31 33  1  0  0  0  0
 31  6  1  0  0  0  0
 33 32  2  1  0  0  0
 34 33  1  0  0  0  0
 35 34  1  0  0  0  0
 36 33  1  0  0  0  0
 36 37  1  0  0  0  0
 37 44  1  0  0  0  0
 38 40  1  0  0  0  0
 38 37  2  0  0  0  0
 39 38  1  0  0  0  0
 40 42  2  0  0  0  0
 41 40  1  0  0  0  0
 42 57  1  0  0  0  0
 42 43  1  0  0  0  0
 43 46  1  0  0  0  0
 44 43  2  0  0  0  0
 44 45  1  0  0  0  0
 46 47  1  0  0  0  0
 47 48  1  0  0  0  0
 48 50  2  0  0  0  0
 48 49  1  0  0  0  0
 50 51  1  0  0  0  0
 52 53  1  0  0  0  0
 52 50  1  0  0  0  0
 54 52  2  0  0  0  0
 55 54  1  0  0  0  0
 56 54  1  0  0  0  0
 56 47  2  0  0  0  0
 57 56  1  0  0  0  0
 58 57  1  0  0  0  0
M  END
>  <minimizedAffinity>
-6.6825223

$$$$

 OpenBabel03252509023D

 58 62  0  0  1  0  0  0  0  0999 V2000
   41.4800   34.8910   40.7640 N   0  0  0  0  0  0  0  0  0  0  0  0
   41.4480   36.1010   41.4990 C   0  0  0  0  0  0  0  0  0  0  0  0
   40.7660   37.2580   40.8010 C   0  0  0  0  0  0  0  0  0  0  0  0
   39.6180   36.8630   39.9230 C   0  0  0  0  0  0  0  0  0  0  0  0
   39.3410   35.3810   39.9900 C   0  0  0  0  0  0  0  0  0  0  0  0
   40.7230   34.7390   39.6130 C   0  0  2  0  0  0  0  0  0  0  0  0
   42.4090   36.4630   41.8650 H   0  0  0  0  0  0  0  0  0  0  0  0
   40.8290   35.9010   42.4180 H   0  0  0  0  0  0  0  0  0  0  0  0
   41.5370   37.8320   40.2290 H   0  0  0  0  0  0  0  0  0  0  0  0
   40.3770   37.9530   41.5780 H   0  0  0  0  0  0  0  0  0  0  0  0
   38.7100   37.4780   40.1150 H   0  0  0  0  0  0  0  0  0  0  0  0
   39.9030   37.0820   38.8550 H   0  0  0  0  0  0  0  0  0  0  0  0
   39.0360   35.0410   40.9830 H   0  0  0  0  0  0  0  0  0  0  0  0
   38.6120   35.1260   39.1950 H   0  0  0  0  0  0  0  0  0  0  0  0
   41.0290   35.2710   38.6950 H   0  0  0  0  0  0  0  0  0  0  0  0
   42.7030   34.1630   40.8930 C   0  0  0  0  0  0  0  0  0  0  0  0
   43.1920   34.0970   39.8880 H   0  0  0  0  0  0  0  0  0  0  0  0
   42.4960   33.1420   41.2190 H   0  0  0  0  0  0  0  0  0  0  0  0
   43.6320   34.9190   41.7900 C   0  0  0  0  0  0  0  0  0  0  0  0
   43.0850   35.7150   42.3480 H   0  0  0  0  0  0  0  0  0  0  0  0
   44.4480   35.4270   41.2610 H   0  0  0  0  0  0  0  0  0  0  0  0
   44.3800   31.7790   43.7150 C   0  0  0  0  0  0  0  0  0  0  0  0
   43.8650   32.6600   42.7450 C   0  0  0  0  0  0  0  0  0  0  0  0
   44.1800   33.9950   42.8170 C   0  0  0  0  0  0  0  0  0  0  0  0
   44.9720   34.3980   43.8210 N   0  0  0  0  0  0  0  0  0  0  0  0
   45.4610   33.5470   44.7440 C   0  0  0  0  0  0  0  0  0  0  0  0
   45.1700   32.2360   44.7000 N   0  0  0  0  0  0  0  0  0  0  0  0
   44.1130   30.7270   43.6320 H   0  0  0  0  0  0  0  0  0  0  0  0
   43.2220   32.3000   41.9420 H   0  0  0  0  0  0  0  0  0  0  0  0
   46.0940   33.9460   45.5240 H   0  0  0  0  0  0  0  0  0  0  0  0
   40.3680   33.4100   39.4040 O   0  0  0  0  0  0  0  0  0  0  0  0
   42.0340   33.7370   37.3660 O   0  0  0  0  0  0  0  0  0  0  0  0
   41.0940   32.7470   38.0390 P   0  0  2  0  0  0  0  0  0  0  0  0
   39.8340   32.4890   36.9090 O   0  0  0  0  0  0  0  0  0  0  0  0
   39.3680   31.6390   37.1040 H   0  0  0  0  0  0  0  0  0  0  0  0
   41.8220   31.2800   38.3600 O   0  0  0  0  0  0  0  0  0  0  0  0
   41.3440   30.2750   39.1580 C   0  0  0  0  0  0  0  0  0  0  0  0
   41.9090   29.9970   40.3880 C   0  0  0  0  0  0  0  0  0  0  0  0
   42.7450   30.5850   40.7280 H   0  0  0  0  0  0  0  0  0  0  0  0
   41.3890   28.9720   41.1530 C   0  0  0  0  0  0  0  0  0  0  0  0
   41.8990   28.8200   42.1180 H   0  0  0  0  0  0  0  0  0  0  0  0
   40.3210   28.1960   40.7540 C   0  0  0  0  0  0  0  0  0  0  0  0
   39.7490   28.4590   39.5350 C   0  0  0  0  0  0  0  0  0  0  0  0
   40.2790   29.4800   38.7920 C   0  0  0  0  0  0  0  0  0  0  0  0
   39.8230   29.6880   37.8210 H   0  0  0  0  0  0  0  0  0  0  0  0
   38.3680   27.4800   38.9850 S   0  0  0  0  0  0  0  0  0  0  0  0
   38.0590   26.2990   40.2850 C   0  0  0  0  0  0  0  0  0  0  0  0
   37.0380   25.4430   40.0740 C   0  0  0  0  0  0  0  0  0  0  0  0
   36.4240   25.4450   39.1830 H   0  0  0  0  0  0  0  0  0  0  0  0
   36.7210   24.4940   41.0240 C   0  0  0  0  0  0  0  0  0  0  0  0
   35.9040   23.8050   40.8590 H   0  0  0  0  0  0  0  0  0  0  0  0
   37.4740   24.4500   42.1790 C   0  0  0  0  0  0  0  0  0  0  0  0
   37.2620   23.7220   42.9500 H   0  0  0  0  0  0  0  0  0  0  0  0
   38.5020   25.3580   42.3260 C   0  0  0  0  0  0  0  0  0  0  0  0
   39.0650   25.2730   43.2660 H   0  0  0  0  0  0  0  0  0  0  0  0
   38.8530   26.3210   41.4040 C   0  0  0  0  0  0  0  0  0  0  0  0
   39.9300   27.2000   41.6650 N   0  0  0  0  0  0  0  0  0  0  0  0
   40.4160   27.0610   42.5750 H   0  0  0  0  0  0  0  0  0  0  0  0
  1 16  1  0  0  0  0
  1  2  1  0  0  0  0
  2  7  1  0  0  0  0
  2  8  1  0  0  0  0
  3  2  1  0  0  0  0
  3 10  1  0  0  0  0
  4  5  1  0  0  0  0
  4 11  1  0  0  0  0
  4  3  1  0  0  0  0
  5 13  1  0  0  0  0
  6 15  1  6  0  0  0
  6  5  1  0  0  0  0
  6  1  1  0  0  0  0
  9  3  1  0  0  0  0
 12  4  1  0  0  0  0
 14  5  1  0  0  0  0
 16 18  1  0  0  0  0
 16 19  1  0  0  0  0
 17 16  1  0  0  0  0
 19 20  1  0  0  0  0
 19 24  1  0  0  0  0
 21 19  1  0  0  0  0
 22 27  1  0  0  0  0
 23 24  1  0  0  0  0
 23 22  2  0  0  0  0
 24 25  2  0  0  0  0
 25 26  1  0  0  0  0
 26 30  1  0  0  0  0
 27 26  2  0  0  0  0
 28 22  1  0  0  0  0
 29 23  1  0  0  0  0
 31  6  1  0  0  0  0
 33 32  2  6  0  0  0
 33 36  1  0  0  0  0
 33 31  1  0  0  0  0
 34 35  1  0  0  0  0
 34 33  1  0  0  0  0
 36 37  1  0  0  0  0
 37 38  1  0  0  0  0
 38 39  1  0  0  0  0
 38 40  2  0  0  0  0
 40 41  1  0  0  0  0
 42 40  1  0  0  0  0
 42 57  1  0  0  0  0
 43 42  2  0  0  0  0
 44 37  2  0  0  0  0
 44 43  1  0  0  0  0
 45 44  1  0  0  0  0
 46 43  1  0  0  0  0
 46 47  1  0  0  0  0
 47 56  1  0  0  0  0
 48 47  2  0  0  0  0
 48 50  1  0  0  0  0
 49 48  1  0  0  0  0
 50 52  2  0  0  0  0
 51 50  1  0  0  0  0
 52 54  1  0  0  0  0
 52 53  1  0  0  0  0
 54 55  1  0  0  0  0
 56 57  1  0  0  0  0
 56 54  2  0  0  0  0
 57 58  1  0  0  0  0
M  END
>  <minimizedAffinity>
-6.53050375

$$$$

 OpenBabel03252509023D

 58 62  0  0  1  0  0  0  0  0999 V2000
   37.3340   27.9210   41.4520 N   0  0  0  0  0  0  0  0  0  0  0  0
   38.0520   27.7130   42.6540 C   0  0  0  0  0  0  0  0  0  0  0  0
   39.1800   28.6920   42.9070 C   0  0  0  0  0  0  0  0  0  0  0  0
   38.9240   30.0760   42.3950 C   0  0  0  0  0  0  0  0  0  0  0  0
   37.5440   30.2120   41.8000 C   0  0  0  0  0  0  0  0  0  0  0  0
   37.5080   29.0800   40.7120 C   0  0  2  0  0  0  0  0  0  0  0  0
   38.4530   26.7100   42.8040 H   0  0  0  0  0  0  0  0  0  0  0  0
   37.3220   27.8770   43.4950 H   0  0  0  0  0  0  0  0  0  0  0  0
   40.1210   28.2660   42.4790 H   0  0  0  0  0  0  0  0  0  0  0  0
   39.3430   28.7590   44.0050 H   0  0  0  0  0  0  0  0  0  0  0  0
   39.1390   30.8550   43.1620 H   0  0  0  0  0  0  0  0  0  0  0  0
   39.6500   30.2790   41.5560 H   0  0  0  0  0  0  0  0  0  0  0  0
   36.7420   30.0520   42.5250 H   0  0  0  0  0  0  0  0  0  0  0  0
   37.4820   31.1910   41.2830 H   0  0  0  0  0  0  0  0  0  0  0  0
   38.4440   29.2190   40.1440 H   0  0  0  0  0  0  0  0  0  0  0  0
   36.9630   26.7160   40.7790 C   0  0  0  0  0  0  0  0  0  0  0  0
   37.7120   26.5090   39.9720 H   0  0  0  0  0  0  0  0  0  0  0  0
   35.9940   26.8430   40.2960 H   0  0  0  0  0  0  0  0  0  0  0  0
   37.0260   25.5750   41.7450 C   0  0  0  0  0  0  0  0  0  0  0  0
   36.0740   25.4900   42.3210 H   0  0  0  0  0  0  0  0  0  0  0  0
   37.8240   25.6650   42.4920 H   0  0  0  0  0  0  0  0  0  0  0  0
   36.2310   22.6450   39.5290 C   0  0  0  0  0  0  0  0  0  0  0  0
   36.1040   23.8500   40.2460 C   0  0  0  0  0  0  0  0  0  0  0  0
   37.1670   24.3020   40.9900 C   0  0  0  0  0  0  0  0  0  0  0  0
   38.2870   23.5650   40.9960 N   0  0  0  0  0  0  0  0  0  0  0  0
   38.3980   22.4130   40.3050 C   0  0  0  0  0  0  0  0  0  0  0  0
   37.3760   21.9450   39.5690 N   0  0  0  0  0  0  0  0  0  0  0  0
   35.3720   22.3120   38.9500 H   0  0  0  0  0  0  0  0  0  0  0  0
   35.1790   24.4250   40.2210 H   0  0  0  0  0  0  0  0  0  0  0  0
   39.3330   21.8730   40.3580 H   0  0  0  0  0  0  0  0  0  0  0  0
   36.3600   29.4120   40.0000 O   0  0  0  0  0  0  0  0  0  0  0  0
   35.5750   29.1980   37.4750 O   0  0  0  0  0  0  0  0  0  0  0  0
   36.6700   29.7450   38.3800 P   0  0  2  0  0  0  0  0  0  0  0  0
   38.0740   28.8550   37.9720 O   0  0  0  0  0  0  0  0  0  0  0  0
   38.8840   29.3460   38.2540 H   0  0  0  0  0  0  0  0  0  0  0  0
   36.9780   31.3630   38.1160 O   0  0  0  0  0  0  0  0  0  0  0  0
   37.8420   32.1680   38.8110 C   0  0  0  0  0  0  0  0  0  0  0  0
   37.3920   33.2390   39.5580 C   0  0  0  0  0  0  0  0  0  0  0  0
   36.3360   33.4480   39.5950 H   0  0  0  0  0  0  0  0  0  0  0  0
   38.3060   34.0180   40.2390 C   0  0  0  0  0  0  0  0  0  0  0  0
   37.8620   34.8500   40.8090 H   0  0  0  0  0  0  0  0  0  0  0  0
   39.6650   33.7840   40.2180 C   0  0  0  0  0  0  0  0  0  0  0  0
   40.1290   32.7230   39.4800 C   0  0  0  0  0  0  0  0  0  0  0  0
   39.2060   31.9630   38.8120 C   0  0  0  0  0  0  0  0  0  0  0  0
   39.5760   31.1200   38.2250 H   0  0  0  0  0  0  0  0  0  0  0  0
   41.8760   32.3890   39.4280 S   0  0  0  0  0  0  0  0  0  0  0  0
   42.6420   33.6390   40.4420 C   0  0  0  0  0  0  0  0  0  0  0  0
   43.9860   33.5740   40.5450 C   0  0  0  0  0  0  0  0  0  0  0  0
   44.5920   32.8230   40.0540 H   0  0  0  0  0  0  0  0  0  0  0  0
   44.6690   34.4970   41.3090 C   0  0  0  0  0  0  0  0  0  0  0  0
   45.7460   34.4490   41.3930 H   0  0  0  0  0  0  0  0  0  0  0  0
   43.9420   35.4750   41.9550 C   0  0  0  0  0  0  0  0  0  0  0  0
   44.4370   36.2190   42.5630 H   0  0  0  0  0  0  0  0  0  0  0  0
   42.5710   35.4790   41.8050 C   0  0  0  0  0  0  0  0  0  0  0  0
   42.0490   36.2820   42.3430 H   0  0  0  0  0  0  0  0  0  0  0  0
   41.8490   34.5780   41.0520 C   0  0  0  0  0  0  0  0  0  0  0  0
   40.4410   34.6810   40.9720 N   0  0  0  0  0  0  0  0  0  0  0  0
   40.0150   35.4650   41.5080 H   0  0  0  0  0  0  0  0  0  0  0  0
  1  2  1  0  0  0  0
  2  7  1  0  0  0  0
  2  3  1  0  0  0  0
  2  8  1  0  0  0  0
  3 10  1  0  0  0  0
  4  3  1  0  0  0  0
  4 11  1  0  0  0  0
  5  4  1  0  0  0  0
  5 13  1  0  0  0  0
  6 15  1  6  0  0  0
  6  1  1  0  0  0  0
  6  5  1  0  0  0  0
  9  3  1  0  0  0  0
 12  4  1  0  0  0  0
 14  5  1  0  0  0  0
 16  1  1  0  0  0  0
 16 19  1  0  0  0  0
 17 16  1  0  0  0  0
 18 16  1  0  0  0  0
 19 20  1  0  0  0  0
 19 21  1  0  0  0  0
 22 27  2  0  0  0  0
 22 23  1  0  0  0  0
 23 24  2  0  0  0  0
 24 25  1  0  0  0  0
 24 19  1  0  0  0  0
 26 30  1  0  0  0  0
 26 25  2  0  0  0  0
 27 26  1  0  0  0  0
 28 22  1  0  0  0  0
 29 23  1  0  0  0  0
 31  6  1  0  0  0  0
 33 32  2  6  0  0  0
 33 31  1  0  0  0  0
 34 35  1  0  0  0  0
 34 33  1  0  0  0  0
 36 33  1  0  0  0  0
 36 37  1  0  0  0  0
 37 44  2  0  0  0  0
 37 38  1  0  0  0  0
 38 39  1  0  0  0  0
 38 40  2  0  0  0  0
 40 41  1  0  0  0  0
 42 40  1  0  0  0  0
 42 57  1  0  0  0  0
 43 42  2  0  0  0  0
 44 43  1  0  0  0  0
 45 44  1  0  0  0  0
 46 43  1  0  0  0  0
 46 47  1  0  0  0  0
 47 48  2  0  0  0  0
 47 56  1  0  0  0  0
 48 50  1  0  0  0  0
 49 48  1  0  0  0  0
 50 51  1  0  0  0  0
 50 52  2  0  0  0  0
 52 53  1  0  0  0  0
 54 52  1  0  0  0  0
 54 55  1  0  0  0  0
 56 54  2  0  0  0  0
 57 56  1  0  0  0  0
 57 58  1  0  0  0  0
M  END
>  <minimizedAffinity>
-6.48567104

$$$$
