
 OpenBabel03242520403D

 52 57  0  0  1  0  0  0  0  0999 V2000
   48.1030   30.0080   48.0680 C   0  0  0  0  0  0  0  0  0  0  0  0
   47.5870   30.8910   48.9920 C   0  0  0  0  0  0  0  0  0  0  0  0
   48.5370   31.3850   49.7920 N   0  0  0  0  0  0  0  0  0  0  0  0
   49.6730   30.8160   49.3790 C   0  0  0  0  0  0  0  0  0  0  0  0
   49.4160   29.9980   48.3570 N   0  0  0  0  0  0  0  0  0  0  0  0
   46.5410   31.1500   49.0560 H   0  0  0  0  0  0  0  0  0  0  0  0
   48.4330   32.0720   50.5760 H   0  0  0  0  0  0  0  0  0  0  0  0
   45.9380   33.3670   45.6150 C   0  0  0  0  0  0  0  0  0  0  0  0
   46.8040   33.4940   44.4990 C   0  0  0  0  0  0  0  0  0  0  0  0
   47.5100   32.3320   44.0640 C   0  0  0  0  0  0  0  0  0  0  0  0
   47.3210   31.1560   44.7360 N   0  0  0  0  0  0  0  0  0  0  0  0
   46.4780   31.0990   45.7960 C   0  0  0  0  0  0  0  0  0  0  0  0
   45.8000   32.1920   46.2240 N   0  0  0  0  0  0  0  0  0  0  0  0
   46.3510   29.8510   46.4230 N   0  0  0  0  0  0  0  0  0  0  0  0
   47.4840   29.1990   46.9910 C   0  0  2  0  0  0  0  0  0  0  0  0
   47.2560   27.7820   47.3880 C   0  0  0  0  0  0  0  0  0  0  0  0
   45.9480   27.4210   47.7820 N   0  0  0  0  0  0  0  0  0  0  0  0
   45.0220   28.5030   47.8200 C   0  0  0  0  0  0  0  0  0  0  0  0
   45.0510   29.2130   46.4960 C   0  0  0  0  0  0  0  0  0  0  0  0
   45.4320   34.2660   45.9010 H   0  0  0  0  0  0  0  0  0  0  0  0
   46.9850   34.3910   43.9430 H   0  0  0  0  0  0  0  0  0  0  0  0
   48.1740   32.3770   43.2300 H   0  0  0  0  0  0  0  0  0  0  0  0
   48.2420   29.1260   46.1500 H   0  0  0  0  0  0  0  0  0  0  0  0
   47.5930   27.0510   46.6230 H   0  0  0  0  0  0  0  0  0  0  0  0
   47.9360   27.5930   48.2660 H   0  0  0  0  0  0  0  0  0  0  0  0
   45.8990   26.9330   48.7100 H   0  0  0  0  0  0  0  0  0  0  0  0
   43.9940   28.0340   47.8900 H   0  0  0  0  0  0  0  0  0  0  0  0
   45.0990   29.1600   48.7000 H   0  0  0  0  0  0  0  0  0  0  0  0
   44.2080   29.9120   46.3620 H   0  0  0  0  0  0  0  0  0  0  0  0
   45.0310   28.4400   45.7130 H   0  0  0  0  0  0  0  0  0  0  0  0
   51.0200   31.0050   49.9070 C   0  0  0  0  0  0  0  0  0  0  0  0
   51.3640   30.8460   51.2330 C   0  0  0  0  0  0  0  0  0  0  0  0
   50.5920   30.5650   51.9370 H   0  0  0  0  0  0  0  0  0  0  0  0
   52.6620   31.0480   51.6210 C   0  0  0  0  0  0  0  0  0  0  0  0
   52.8450   30.9010   52.6920 H   0  0  0  0  0  0  0  0  0  0  0  0
   53.6870   31.4070   50.7750 C   0  0  0  0  0  0  0  0  0  0  0  0
   53.3140   31.5560   49.4640 C   0  0  0  0  0  0  0  0  0  0  0  0
   52.0290   31.3640   49.0400 C   0  0  0  0  0  0  0  0  0  0  0  0
   51.7840   31.4940   47.9950 H   0  0  0  0  0  0  0  0  0  0  0  0
   54.5570   32.0190   48.2780 S   0  0  0  0  0  0  0  0  0  0  0  0
   56.0820   32.1780   49.1820 C   0  0  0  0  0  0  0  0  0  0  0  0
   57.2200   32.5310   48.5090 C   0  0  0  0  0  0  0  0  0  0  0  0
   57.1890   32.7080   47.4420 H   0  0  0  0  0  0  0  0  0  0  0  0
   58.4330   32.6710   49.1480 C   0  0  0  0  0  0  0  0  0  0  0  0
   59.3690   32.9450   48.6840 H   0  0  0  0  0  0  0  0  0  0  0  0
   58.4560   32.4410   50.5090 C   0  0  0  0  0  0  0  0  0  0  0  0
   59.3860   32.5400   51.0500 H   0  0  0  0  0  0  0  0  0  0  0  0
   57.2890   32.0880   51.1510 C   0  0  0  0  0  0  0  0  0  0  0  0
   57.3930   31.9230   52.2320 H   0  0  0  0  0  0  0  0  0  0  0  0
   56.0670   31.9420   50.5320 C   0  0  0  0  0  0  0  0  0  0  0  0
   54.9670   31.5750   51.3370 N   0  0  0  0  0  0  0  0  0  0  0  0
   55.1050   31.4280   52.3550 H   0  0  0  0  0  0  0  0  0  0  0  0
  1  5  1  0  0  0  0
  1  2  2  0  0  0  0
  2  6  1  0  0  0  0
  2  3  1  0  0  0  0
  3  7  1  0  0  0  0
  4  3  1  0  0  0  0
  4 31  1  0  0  0  0
  5  4  2  0  0  0  0
  8 20  1  0  0  0  0
  8 13  1  0  0  0  0
  9  8  2  0  0  0  0
 10  9  1  0  0  0  0
 10 11  2  0  0  0  0
 11 12  1  0  0  0  0
 12 13  2  0  0  0  0
 12 14  1  0  0  0  0
 14 19  1  0  0  0  0
 14 15  1  0  0  0  0
 15 23  1  6  0  0  0
 15 16  1  0  0  0  0
 15  1  1  0  0  0  0
 16 17  1  0  0  0  0
 16 25  1  0  0  0  0
 17 18  1  0  0  0  0
 17 26  1  0  0  0  0
 18 27  1  0  0  0  0
 18 28  1  0  0  0  0
 19 18  1  0  0  0  0
 21  9  1  0  0  0  0
 22 10  1  0  0  0  0
 24 16  1  0  0  0  0
 29 19  1  0  0  0  0
 30 19  1  0  0  0  0
 31 32  1  0  0  0  0
 32 34  2  0  0  0  0
 32 33  1  0  0  0  0
 34 35  1  0  0  0  0
 36 51  1  0  0  0  0
 36 34  1  0  0  0  0
 37 36  2  0  0  0  0
 38 37  1  0  0  0  0
 38 31  2  0  0  0  0
 39 38  1  0  0  0  0
 40 41  1  0  0  0  0
 40 37  1  0  0  0  0
 41 50  1  0  0  0  0
 42 44  1  0  0  0  0
 42 41  2  0  0  0  0
 43 42  1  0  0  0  0
 44 46  2  0  0  0  0
 45 44  1  0  0  0  0
 46 47  1  0  0  0  0
 46 48  1  0  0  0  0
 48 49  1  0  0  0  0
 50 48  2  0  0  0  0
 50 51  1  0  0  0  0
 51 52  1  0  0  0  0
M  END
>  <minimizedAffinity>
-5.38212967

>  <minimizedRMSD>
0.761058867

$$$$
