
 OpenBabel03242520433D

 52 57  0  0  1  0  0  0  0  0999 V2000
   36.5120   25.3110   39.7170 C   0  0  0  0  0  0  0  0  0  0  0  0
   36.2560   25.6290   38.4010 C   0  0  0  0  0  0  0  0  0  0  0  0
   36.3320   26.9460   38.1830 N   0  0  0  0  0  0  0  0  0  0  0  0
   36.6410   27.4790   39.3680 C   0  0  0  0  0  0  0  0  0  0  0  0
   36.7470   26.5100   40.2790 N   0  0  0  0  0  0  0  0  0  0  0  0
   36.0230   24.8980   37.6400 H   0  0  0  0  0  0  0  0  0  0  0  0
   36.1860   27.4650   37.2850 H   0  0  0  0  0  0  0  0  0  0  0  0
   40.9790   25.2460   41.1430 C   0  0  0  0  0  0  0  0  0  0  0  0
   40.8350   25.5920   42.5110 C   0  0  0  0  0  0  0  0  0  0  0  0
   39.6380   25.1950   43.1810 C   0  0  0  0  0  0  0  0  0  0  0  0
   38.6910   24.5020   42.4800 N   0  0  0  0  0  0  0  0  0  0  0  0
   38.8870   24.2000   41.1730 C   0  0  0  0  0  0  0  0  0  0  0  0
   40.0170   24.5700   40.5210 N   0  0  0  0  0  0  0  0  0  0  0  0
   37.8590   23.4900   40.5380 N   0  0  0  0  0  0  0  0  0  0  0  0
   36.5400   24.0270   40.4570 C   0  0  2  0  0  0  0  0  0  0  0  0
   35.5020   23.0660   39.9920 C   0  0  0  0  0  0  0  0  0  0  0  0
   35.9140   22.0410   39.1120 N   0  0  0  0  0  0  0  0  0  0  0  0
   37.2810   22.1120   38.7200 C   0  0  0  0  0  0  0  0  0  0  0  0
   38.1360   22.1930   39.9540 C   0  0  0  0  0  0  0  0  0  0  0  0
   41.8930   25.5650   40.6880 H   0  0  0  0  0  0  0  0  0  0  0  0
   41.5470   26.1330   43.1010 H   0  0  0  0  0  0  0  0  0  0  0  0
   39.4840   25.4330   44.2090 H   0  0  0  0  0  0  0  0  0  0  0  0
   36.2410   24.2510   41.5280 H   0  0  0  0  0  0  0  0  0  0  0  0
   34.9370   22.5930   40.8220 H   0  0  0  0  0  0  0  0  0  0  0  0
   34.7290   23.6840   39.4520 H   0  0  0  0  0  0  0  0  0  0  0  0
   35.3400   21.9710   38.2360 H   0  0  0  0  0  0  0  0  0  0  0  0
   37.5250   21.1130   38.2480 H   0  0  0  0  0  0  0  0  0  0  0  0
   37.5130   22.8600   37.9460 H   0  0  0  0  0  0  0  0  0  0  0  0
   39.2060   22.0200   39.7500 H   0  0  0  0  0  0  0  0  0  0  0  0
   37.7580   21.4380   40.6600 H   0  0  0  0  0  0  0  0  0  0  0  0
   36.8460   28.8850   39.6990 C   0  0  0  0  0  0  0  0  0  0  0  0
   35.9450   29.6570   40.4020 C   0  0  0  0  0  0  0  0  0  0  0  0
   35.0250   29.1990   40.7380 H   0  0  0  0  0  0  0  0  0  0  0  0
   36.2400   30.9700   40.6590 C   0  0  0  0  0  0  0  0  0  0  0  0
   35.4690   31.5070   41.2230 H   0  0  0  0  0  0  0  0  0  0  0  0
   37.3930   31.6070   40.2600 C   0  0  0  0  0  0  0  0  0  0  0  0
   38.2670   30.8150   39.5630 C   0  0  0  0  0  0  0  0  0  0  0  0
   38.0080   29.5000   39.2890 C   0  0  0  0  0  0  0  0  0  0  0  0
   38.7300   28.9170   38.7350 H   0  0  0  0  0  0  0  0  0  0  0  0
   39.7950   31.5320   38.9970 S   0  0  0  0  0  0  0  0  0  0  0  0
   39.7800   33.2310   39.5300 C   0  0  0  0  0  0  0  0  0  0  0  0
   40.8480   34.0310   39.2270 C   0  0  0  0  0  0  0  0  0  0  0  0
   41.6870   33.6330   38.6700 H   0  0  0  0  0  0  0  0  0  0  0  0
   40.9010   35.3540   39.6100 C   0  0  0  0  0  0  0  0  0  0  0  0
   41.7080   36.0440   39.4060 H   0  0  0  0  0  0  0  0  0  0  0  0
   39.8250   35.8460   40.3180 C   0  0  0  0  0  0  0  0  0  0  0  0
   39.8250   36.8790   40.6380 H   0  0  0  0  0  0  0  0  0  0  0  0
   38.7690   35.0090   40.6040 C   0  0  0  0  0  0  0  0  0  0  0  0
   37.9530   35.4770   41.1700 H   0  0  0  0  0  0  0  0  0  0  0  0
   38.6940   33.6860   40.2310 C   0  0  0  0  0  0  0  0  0  0  0  0
   37.5390   32.9640   40.6050 N   0  0  0  0  0  0  0  0  0  0  0  0
   36.7910   33.4430   41.1400 H   0  0  0  0  0  0  0  0  0  0  0  0
  1  5  1  0  0  0  0
  1 15  1  0  0  0  0
  2  1  2  0  0  0  0
  3  2  1  0  0  0  0
  3  4  1  0  0  0  0
  4 31  1  0  0  0  0
  4  5  2  0  0  0  0
  6  2  1  0  0  0  0
  7  3  1  0  0  0  0
  8  9  1  0  0  0  0
  9 21  1  0  0  0  0
  9 10  2  0  0  0  0
 10 22  1  0  0  0  0
 11 10  1  0  0  0  0
 12 11  2  0  0  0  0
 13  8  2  0  0  0  0
 13 12  1  0  0  0  0
 14 12  1  0  0  0  0
 15 14  1  0  0  0  0
 15 23  1  1  0  0  0
 16 15  1  0  0  0  0
 16 24  1  0  0  0  0
 17 16  1  0  0  0  0
 18 17  1  0  0  0  0
 18 19  1  0  0  0  0
 19 14  1  0  0  0  0
 19 30  1  0  0  0  0
 20  8  1  0  0  0  0
 25 16  1  0  0  0  0
 26 17  1  0  0  0  0
 27 18  1  0  0  0  0
 28 18  1  0  0  0  0
 29 19  1  0  0  0  0
 31 32  1  0  0  0  0
 32 34  2  0  0  0  0
 32 33  1  0  0  0  0
 34 35  1  0  0  0  0
 36 51  1  0  0  0  0
 36 34  1  0  0  0  0
 37 36  2  0  0  0  0
 38 37  1  0  0  0  0
 38 31  2  0  0  0  0
 39 38  1  0  0  0  0
 40 41  1  0  0  0  0
 40 37  1  0  0  0  0
 41 50  1  0  0  0  0
 42 41  2  0  0  0  0
 42 44  1  0  0  0  0
 43 42  1  0  0  0  0
 44 46  2  0  0  0  0
 45 44  1  0  0  0  0
 46 48  1  0  0  0  0
 46 47  1  0  0  0  0
 48 49  1  0  0  0  0
 50 48  2  0  0  0  0
 50 51  1  0  0  0  0
 51 52  1  0  0  0  0
M  END
>  <minimizedAffinity>
-7.52593851

$$$$

 OpenBabel03242520433D

 52 57  0  0  1  0  0  0  0  0999 V2000
   37.3000   29.0060   38.8660 C   0  0  0  0  0  0  0  0  0  0  0  0
   38.0910   29.0270   37.7380 C   0  0  0  0  0  0  0  0  0  0  0  0
   39.0220   29.9840   37.8020 N   0  0  0  0  0  0  0  0  0  0  0  0
   38.8280   30.5820   38.9810 C   0  0  0  0  0  0  0  0  0  0  0  0
   37.8060   30.0030   39.6120 N   0  0  0  0  0  0  0  0  0  0  0  0
   37.9710   28.3490   36.9060 H   0  0  0  0  0  0  0  0  0  0  0  0
   39.7540   30.2270   37.0930 H   0  0  0  0  0  0  0  0  0  0  0  0
   39.2030   26.6170   42.4260 C   0  0  0  0  0  0  0  0  0  0  0  0
   38.6250   27.2780   43.5400 C   0  0  0  0  0  0  0  0  0  0  0  0
   37.3200   27.8360   43.3850 C   0  0  0  0  0  0  0  0  0  0  0  0
   36.6880   27.7080   42.1790 N   0  0  0  0  0  0  0  0  0  0  0  0
   37.2930   27.0630   41.1520 C   0  0  0  0  0  0  0  0  0  0  0  0
   38.5320   26.5280   41.2800 N   0  0  0  0  0  0  0  0  0  0  0  0
   36.5680   26.9850   39.9540 N   0  0  0  0  0  0  0  0  0  0  0  0
   36.1490   28.1650   39.2740 C   0  0  2  0  0  0  0  0  0  0  0  0
   35.1760   27.9380   38.1690 C   0  0  0  0  0  0  0  0  0  0  0  0
   35.2470   26.7040   37.4860 N   0  0  0  0  0  0  0  0  0  0  0  0
   36.3120   25.8560   37.9060 C   0  0  0  0  0  0  0  0  0  0  0  0
   36.2380   25.6880   39.3980 C   0  0  0  0  0  0  0  0  0  0  0  0
   40.1810   26.2160   42.5930 H   0  0  0  0  0  0  0  0  0  0  0  0
   39.0800   27.4040   44.5010 H   0  0  0  0  0  0  0  0  0  0  0  0
   36.8440   28.3440   44.1940 H   0  0  0  0  0  0  0  0  0  0  0  0
   35.5560   28.7580   40.0380 H   0  0  0  0  0  0  0  0  0  0  0  0
   34.1200   28.0970   38.4720 H   0  0  0  0  0  0  0  0  0  0  0  0
   35.3700   28.7520   37.4140 H   0  0  0  0  0  0  0  0  0  0  0  0
   35.3110   26.7940   36.4420 H   0  0  0  0  0  0  0  0  0  0  0  0
   36.0880   24.8330   37.4740 H   0  0  0  0  0  0  0  0  0  0  0  0
   37.3070   26.1200   37.5180 H   0  0  0  0  0  0  0  0  0  0  0  0
   36.8780   24.8710   39.7720 H   0  0  0  0  0  0  0  0  0  0  0  0
   35.1850   25.4900   39.6500 H   0  0  0  0  0  0  0  0  0  0  0  0
   39.5700   31.6970   39.5600 C   0  0  0  0  0  0  0  0  0  0  0  0
   39.1770   33.0170   39.4810 C   0  0  0  0  0  0  0  0  0  0  0  0
   38.2590   33.2510   38.9600 H   0  0  0  0  0  0  0  0  0  0  0  0
   39.9520   33.9860   40.0620 C   0  0  0  0  0  0  0  0  0  0  0  0
   39.5630   35.0040   39.9510 H   0  0  0  0  0  0  0  0  0  0  0  0
   41.1270   33.7500   40.7370 C   0  0  0  0  0  0  0  0  0  0  0  0
   41.4920   32.4310   40.7980 C   0  0  0  0  0  0  0  0  0  0  0  0
   40.7440   31.4350   40.2310 C   0  0  0  0  0  0  0  0  0  0  0  0
   41.0750   30.4090   40.3060 H   0  0  0  0  0  0  0  0  0  0  0  0
   42.9960   32.0050   41.6490 S   0  0  0  0  0  0  0  0  0  0  0  0
   43.6860   33.5340   42.2450 C   0  0  0  0  0  0  0  0  0  0  0  0
   44.8610   33.5050   42.9450 C   0  0  0  0  0  0  0  0  0  0  0  0
   45.3610   32.5620   43.1320 H   0  0  0  0  0  0  0  0  0  0  0  0
   45.4490   34.6510   43.4350 C   0  0  0  0  0  0  0  0  0  0  0  0
   46.3730   34.7040   43.9940 H   0  0  0  0  0  0  0  0  0  0  0  0
   44.8020   35.8430   43.1890 C   0  0  0  0  0  0  0  0  0  0  0  0
   45.2280   36.7670   43.5550 H   0  0  0  0  0  0  0  0  0  0  0  0
   43.6200   35.8320   42.4800 C   0  0  0  0  0  0  0  0  0  0  0  0
   43.1680   36.8210   42.3270 H   0  0  0  0  0  0  0  0  0  0  0  0
   43.0150   34.7000   41.9810 C   0  0  0  0  0  0  0  0  0  0  0  0
   41.8030   34.8620   41.2750 N   0  0  0  0  0  0  0  0  0  0  0  0
   41.4080   35.8130   41.1520 H   0  0  0  0  0  0  0  0  0  0  0  0
  1 15  1  0  0  0  0
  1  5  1  0  0  0  0
  2  3  1  0  0  0  0
  2  1  2  0  0  0  0
  3  4  1  0  0  0  0
  4 31  1  0  0  0  0
  4  5  2  0  0  0  0
  6  2  1  0  0  0  0
  7  3  1  0  0  0  0
  8 20  1  0  0  0  0
  8  9  1  0  0  0  0
  9 21  1  0  0  0  0
 10  9  2  0  0  0  0
 10 22  1  0  0  0  0
 11 10  1  0  0  0  0
 12 13  1  0  0  0  0
 12 11  2  0  0  0  0
 13  8  2  0  0  0  0
 14 12  1  0  0  0  0
 15 14  1  0  0  0  0
 15 23  1  1  0  0  0
 16 24  1  0  0  0  0
 16 15  1  0  0  0  0
 17 18  1  0  0  0  0
 17 16  1  0  0  0  0
 18 19  1  0  0  0  0
 19 30  1  0  0  0  0
 19 29  1  0  0  0  0
 19 14  1  0  0  0  0
 25 16  1  0  0  0  0
 26 17  1  0  0  0  0
 27 18  1  0  0  0  0
 28 18  1  0  0  0  0
 31 38  1  0  0  0  0
 32 31  2  0  0  0  0
 32 34  1  0  0  0  0
 33 32  1  0  0  0  0
 34 36  2  0  0  0  0
 35 34  1  0  0  0  0
 36 37  1  0  0  0  0
 36 51  1  0  0  0  0
 37 40  1  0  0  0  0
 38 39  1  0  0  0  0
 38 37  2  0  0  0  0
 40 41  1  0  0  0  0
 41 42  1  0  0  0  0
 42 43  1  0  0  0  0
 42 44  2  0  0  0  0
 44 45  1  0  0  0  0
 46 44  1  0  0  0  0
 46 47  1  0  0  0  0
 48 46  2  0  0  0  0
 49 48  1  0  0  0  0
 50 41  2  0  0  0  0
 50 48  1  0  0  0  0
 51 50  1  0  0  0  0
 52 51  1  0  0  0  0
M  END
>  <minimizedAffinity>
-7.12208986

$$$$

 OpenBabel03242520433D

 52 57  0  0  1  0  0  0  0  0999 V2000
   37.4460   30.8650   40.0000 C   0  0  0  0  0  0  0  0  0  0  0  0
   36.6200   30.9050   41.1020 C   0  0  0  0  0  0  0  0  0  0  0  0
   36.4240   29.6890   41.6220 N   0  0  0  0  0  0  0  0  0  0  0  0
   37.1320   28.8610   40.8490 C   0  0  0  0  0  0  0  0  0  0  0  0
   37.7370   29.5570   39.8860 N   0  0  0  0  0  0  0  0  0  0  0  0
   36.1860   31.8130   41.4960 H   0  0  0  0  0  0  0  0  0  0  0  0
   35.8470   29.4240   42.4550 H   0  0  0  0  0  0  0  0  0  0  0  0
   41.9660   29.6450   39.7180 C   0  0  0  0  0  0  0  0  0  0  0  0
   42.0070   29.0380   38.4370 C   0  0  0  0  0  0  0  0  0  0  0  0
   41.1090   29.5210   37.4380 C   0  0  0  0  0  0  0  0  0  0  0  0
   40.2560   30.5420   37.7560 N   0  0  0  0  0  0  0  0  0  0  0  0
   40.2650   31.0810   39.0000 C   0  0  0  0  0  0  0  0  0  0  0  0
   41.1100   30.6350   39.9610 N   0  0  0  0  0  0  0  0  0  0  0  0
   39.3540   32.1210   39.2330 N   0  0  0  0  0  0  0  0  0  0  0  0
   37.9520   31.9120   39.0810 C   0  0  2  0  0  0  0  0  0  0  0  0
   37.1290   33.1530   39.1060 C   0  0  0  0  0  0  0  0  0  0  0  0
   37.6140   34.2370   39.8710 N   0  0  0  0  0  0  0  0  0  0  0  0
   38.8120   33.9640   40.5900 C   0  0  0  0  0  0  0  0  0  0  0  0
   39.8400   33.4250   39.6350 C   0  0  0  0  0  0  0  0  0  0  0  0
   42.6590   29.2480   40.4310 H   0  0  0  0  0  0  0  0  0  0  0  0
   42.6540   28.2380   38.1410 H   0  0  0  0  0  0  0  0  0  0  0  0
   41.1010   29.0960   36.4590 H   0  0  0  0  0  0  0  0  0  0  0  0
   37.8190   31.5210   38.0240 H   0  0  0  0  0  0  0  0  0  0  0  0
   36.8790   33.5360   38.0950 H   0  0  0  0  0  0  0  0  0  0  0  0
   36.1320   32.8540   39.5400 H   0  0  0  0  0  0  0  0  0  0  0  0
   36.9180   34.6250   40.5550 H   0  0  0  0  0  0  0  0  0  0  0  0
   39.2100   34.9680   40.9290 H   0  0  0  0  0  0  0  0  0  0  0  0
   38.6850   33.3790   41.5140 H   0  0  0  0  0  0  0  0  0  0  0  0
   40.8570   33.4060   40.0620 H   0  0  0  0  0  0  0  0  0  0  0  0
   39.8160   34.0650   38.7400 H   0  0  0  0  0  0  0  0  0  0  0  0
   37.2710   27.4130   40.9690 C   0  0  0  0  0  0  0  0  0  0  0  0
   36.9780   26.6970   42.1100 C   0  0  0  0  0  0  0  0  0  0  0  0
   36.6190   27.2320   42.9770 H   0  0  0  0  0  0  0  0  0  0  0  0
   37.1460   25.3370   42.1130 C   0  0  0  0  0  0  0  0  0  0  0  0
   36.8890   24.8500   43.0600 H   0  0  0  0  0  0  0  0  0  0  0  0
   37.5980   24.6010   41.0420 C   0  0  0  0  0  0  0  0  0  0  0  0
   37.8820   25.3400   39.9240 C   0  0  0  0  0  0  0  0  0  0  0  0
   37.7260   26.6990   39.8830 C   0  0  0  0  0  0  0  0  0  0  0  0
   37.9640   27.2370   38.9760 H   0  0  0  0  0  0  0  0  0  0  0  0
   38.4740   24.4930   38.4740 S   0  0  0  0  0  0  0  0  0  0  0  0
   38.5480   22.7650   38.8970 C   0  0  0  0  0  0  0  0  0  0  0  0
   38.9760   21.8690   37.9570 C   0  0  0  0  0  0  0  0  0  0  0  0
   39.2660   22.2100   36.9700 H   0  0  0  0  0  0  0  0  0  0  0  0
   39.0570   20.5180   38.2180 C   0  0  0  0  0  0  0  0  0  0  0  0
   39.3850   19.7550   37.5260 H   0  0  0  0  0  0  0  0  0  0  0  0
   38.6860   20.0990   39.4780 C   0  0  0  0  0  0  0  0  0  0  0  0
   38.7340   19.0480   39.7260 H   0  0  0  0  0  0  0  0  0  0  0  0
   38.2600   21.0330   40.3980 C   0  0  0  0  0  0  0  0  0  0  0  0
   37.9830   20.6180   41.3770 H   0  0  0  0  0  0  0  0  0  0  0  0
   38.1720   22.3850   40.1590 C   0  0  0  0  0  0  0  0  0  0  0  0
   37.7150   23.2080   41.2120 N   0  0  0  0  0  0  0  0  0  0  0  0
   37.4630   22.7770   42.1220 H   0  0  0  0  0  0  0  0  0  0  0  0
  1  2  2  0  0  0  0
  2  6  1  0  0  0  0
  2  3  1  0  0  0  0
  3  7  1  0  0  0  0
  4 31  1  0  0  0  0
  4  3  1  0  0  0  0
  5  1  1  0  0  0  0
  5  4  2  0  0  0  0
  8 13  1  0  0  0  0
  8 20  1  0  0  0  0
  9  8  2  0  0  0  0
 10 11  2  0  0  0  0
 10  9  1  0  0  0  0
 11 12  1  0  0  0  0
 12 14  1  0  0  0  0
 12 13  2  0  0  0  0
 14 19  1  0  0  0  0
 15 23  1  6  0  0  0
 15 16  1  0  0  0  0
 15 14  1  0  0  0  0
 15  1  1  0  0  0  0
 16 25  1  0  0  0  0
 16 17  1  0  0  0  0
 17 26  1  0  0  0  0
 17 18  1  0  0  0  0
 18 27  1  0  0  0  0
 18 28  1  0  0  0  0
 19 29  1  0  0  0  0
 19 18  1  0  0  0  0
 21  9  1  0  0  0  0
 22 10  1  0  0  0  0
 24 16  1  0  0  0  0
 30 19  1  0  0  0  0
 31 32  1  0  0  0  0
 32 34  2  0  0  0  0
 32 33  1  0  0  0  0
 34 35  1  0  0  0  0
 36 51  1  0  0  0  0
 36 34  1  0  0  0  0
 37 36  2  0  0  0  0
 38 37  1  0  0  0  0
 38 31  2  0  0  0  0
 39 38  1  0  0  0  0
 40 41  1  0  0  0  0
 40 37  1  0  0  0  0
 41 50  1  0  0  0  0
 42 44  1  0  0  0  0
 42 41  2  0  0  0  0
 43 42  1  0  0  0  0
 44 46  2  0  0  0  0
 45 44  1  0  0  0  0
 46 47  1  0  0  0  0
 46 48  1  0  0  0  0
 48 49  1  0  0  0  0
 50 48  2  0  0  0  0
 50 51  1  0  0  0  0
 51 52  1  0  0  0  0
M  END
>  <minimizedAffinity>
-7.08282709

$$$$

 OpenBabel03242520433D

 52 57  0  0  1  0  0  0  0  0999 V2000
   36.9700   25.1040   40.4770 C   0  0  0  0  0  0  0  0  0  0  0  0
   37.1600   25.2230   41.8370 C   0  0  0  0  0  0  0  0  0  0  0  0
   37.2500   26.5020   42.2160 N   0  0  0  0  0  0  0  0  0  0  0  0
   37.1150   27.2110   41.0910 C   0  0  0  0  0  0  0  0  0  0  0  0
   36.9500   26.3820   40.0590 N   0  0  0  0  0  0  0  0  0  0  0  0
   37.2270   24.3820   42.5110 H   0  0  0  0  0  0  0  0  0  0  0  0
   37.3920   26.8850   43.1810 H   0  0  0  0  0  0  0  0  0  0  0  0
   40.4830   25.8930   37.4710 C   0  0  0  0  0  0  0  0  0  0  0  0
   41.4430   24.9490   37.9170 C   0  0  0  0  0  0  0  0  0  0  0  0
   40.9690   23.7340   38.4970 C   0  0  0  0  0  0  0  0  0  0  0  0
   39.6200   23.5330   38.5930 N   0  0  0  0  0  0  0  0  0  0  0  0
   38.7520   24.4730   38.1480 C   0  0  0  0  0  0  0  0  0  0  0  0
   39.1840   25.6340   37.5960 N   0  0  0  0  0  0  0  0  0  0  0  0
   37.3880   24.1790   38.2920 N   0  0  0  0  0  0  0  0  0  0  0  0
   36.8250   23.9340   39.5790 C   0  0  2  0  0  0  0  0  0  0  0  0
   35.4410   23.3840   39.5600 C   0  0  0  0  0  0  0  0  0  0  0  0
   34.6150   23.7440   38.4720 N   0  0  0  0  0  0  0  0  0  0  0  0
   35.2060   24.6640   37.5590 C   0  0  0  0  0  0  0  0  0  0  0  0
   36.5380   24.1230   37.1200 C   0  0  0  0  0  0  0  0  0  0  0  0
   40.8880   26.7860   37.0440 H   0  0  0  0  0  0  0  0  0  0  0  0
   42.5070   25.0620   37.8630 H   0  0  0  0  0  0  0  0  0  0  0  0
   41.6530   22.9940   38.8480 H   0  0  0  0  0  0  0  0  0  0  0  0
   37.4440   23.0930   40.0220 H   0  0  0  0  0  0  0  0  0  0  0  0
   35.4040   22.2800   39.6630 H   0  0  0  0  0  0  0  0  0  0  0  0
   34.9460   23.7640   40.4990 H   0  0  0  0  0  0  0  0  0  0  0  0
   33.6820   24.1360   38.7530 H   0  0  0  0  0  0  0  0  0  0  0  0
   34.5530   24.6510   36.6340 H   0  0  0  0  0  0  0  0  0  0  0  0
   35.2180   25.7150   37.8880 H   0  0  0  0  0  0  0  0  0  0  0  0
   36.9520   24.6550   36.2470 H   0  0  0  0  0  0  0  0  0  0  0  0
   36.3920   23.0590   36.8810 H   0  0  0  0  0  0  0  0  0  0  0  0
   37.1330   28.6610   40.9310 C   0  0  0  0  0  0  0  0  0  0  0  0
   36.0060   29.4530   40.8960 C   0  0  0  0  0  0  0  0  0  0  0  0
   35.0390   28.9790   40.9960 H   0  0  0  0  0  0  0  0  0  0  0  0
   36.1390   30.8080   40.7420 C   0  0  0  0  0  0  0  0  0  0  0  0
   35.1920   31.3590   40.7260 H   0  0  0  0  0  0  0  0  0  0  0  0
   37.3390   31.4680   40.6110 C   0  0  0  0  0  0  0  0  0  0  0  0
   38.4410   30.6540   40.6490 C   0  0  0  0  0  0  0  0  0  0  0  0
   38.3480   29.2980   40.8020 C   0  0  0  0  0  0  0  0  0  0  0  0
   39.2470   28.6990   40.8250 H   0  0  0  0  0  0  0  0  0  0  0  0
   40.0510   31.3980   40.4900 S   0  0  0  0  0  0  0  0  0  0  0  0
   39.7800   33.1480   40.3100 C   0  0  0  0  0  0  0  0  0  0  0  0
   40.8590   33.9760   40.1670 C   0  0  0  0  0  0  0  0  0  0  0  0
   41.8630   33.5690   40.1640 H   0  0  0  0  0  0  0  0  0  0  0  0
   40.7200   35.3400   40.0230 C   0  0  0  0  0  0  0  0  0  0  0  0
   41.5240   36.0530   39.9060 H   0  0  0  0  0  0  0  0  0  0  0  0
   39.4370   35.8440   40.0290 C   0  0  0  0  0  0  0  0  0  0  0  0
   39.2820   36.9080   39.9190 H   0  0  0  0  0  0  0  0  0  0  0  0
   38.3760   34.9780   40.1750 C   0  0  0  0  0  0  0  0  0  0  0  0
   37.3880   35.4580   40.1690 H   0  0  0  0  0  0  0  0  0  0  0  0
   38.4910   33.6140   40.3190 C   0  0  0  0  0  0  0  0  0  0  0  0
   37.3000   32.8660   40.4590 N   0  0  0  0  0  0  0  0  0  0  0  0
   36.3870   33.3580   40.4480 H   0  0  0  0  0  0  0  0  0  0  0  0
  1  2  2  0  0  0  0
  2  3  1  0  0  0  0
  2  6  1  0  0  0  0
  3  7  1  0  0  0  0
  4  3  1  0  0  0  0
  5  1  1  0  0  0  0
  5  4  2  0  0  0  0
  8 13  2  0  0  0  0
  8  9  1  0  0  0  0
  9 10  2  0  0  0  0
 10 11  1  0  0  0  0
 10 22  1  0  0  0  0
 12 14  1  0  0  0  0
 12 11  2  0  0  0  0
 13 12  1  0  0  0  0
 14 15  1  0  0  0  0
 15 23  1  1  0  0  0
 15  1  1  0  0  0  0
 16 15  1  0  0  0  0
 16 24  1  0  0  0  0
 16 25  1  0  0  0  0
 17 26  1  0  0  0  0
 17 16  1  0  0  0  0
 18 28  1  0  0  0  0
 18 17  1  0  0  0  0
 19 18  1  0  0  0  0
 19 14  1  0  0  0  0
 20  8  1  0  0  0  0
 21  9  1  0  0  0  0
 27 18  1  0  0  0  0
 29 19  1  0  0  0  0
 30 19  1  0  0  0  0
 31  4  1  0  0  0  0
 32 31  1  0  0  0  0
 32 33  1  0  0  0  0
 34 32  2  0  0  0  0
 35 34  1  0  0  0  0
 36 37  2  0  0  0  0
 36 34  1  0  0  0  0
 37 38  1  0  0  0  0
 38 39  1  0  0  0  0
 38 31  2  0  0  0  0
 40 37  1  0  0  0  0
 41 50  1  0  0  0  0
 41 40  1  0  0  0  0
 42 41  2  0  0  0  0
 43 42  1  0  0  0  0
 44 46  2  0  0  0  0
 44 42  1  0  0  0  0
 45 44  1  0  0  0  0
 46 48  1  0  0  0  0
 47 46  1  0  0  0  0
 48 50  2  0  0  0  0
 49 48  1  0  0  0  0
 50 51  1  0  0  0  0
 51 36  1  0  0  0  0
 52 51  1  0  0  0  0
M  END
>  <minimizedAffinity>
-7.07171822

$$$$

 OpenBabel03242520433D

 52 57  0  0  1  0  0  0  0  0999 V2000
   41.9300   34.1170   40.3740 C   0  0  0  0  0  0  0  0  0  0  0  0
   40.9470   34.6350   39.5600 C   0  0  0  0  0  0  0  0  0  0  0  0
   39.8800   33.8320   39.4940 N   0  0  0  0  0  0  0  0  0  0  0  0
   40.1800   32.7890   40.2740 C   0  0  0  0  0  0  0  0  0  0  0  0
   41.3960   32.9570   40.7950 N   0  0  0  0  0  0  0  0  0  0  0  0
   41.0310   35.5790   39.0400 H   0  0  0  0  0  0  0  0  0  0  0  0
   38.9930   33.9730   38.9560 H   0  0  0  0  0  0  0  0  0  0  0  0
   44.6310   31.0800   38.0330 C   0  0  0  0  0  0  0  0  0  0  0  0
   45.0720   31.8830   36.9510 C   0  0  0  0  0  0  0  0  0  0  0  0
   45.2250   33.2850   37.1750 C   0  0  0  0  0  0  0  0  0  0  0  0
   44.9450   33.7880   38.4150 N   0  0  0  0  0  0  0  0  0  0  0  0
   44.5280   32.9680   39.4100 C   0  0  0  0  0  0  0  0  0  0  0  0
   44.3750   31.6350   39.2160 N   0  0  0  0  0  0  0  0  0  0  0  0
   44.2620   33.5750   40.6460 N   0  0  0  0  0  0  0  0  0  0  0  0
   43.2770   34.6000   40.7600 C   0  0  2  0  0  0  0  0  0  0  0  0
   43.2820   35.3290   42.0590 C   0  0  0  0  0  0  0  0  0  0  0  0
   43.7120   34.6170   43.2010 N   0  0  0  0  0  0  0  0  0  0  0  0
   44.0180   33.2460   42.9620 C   0  0  0  0  0  0  0  0  0  0  0  0
   44.9950   33.1580   41.8240 C   0  0  0  0  0  0  0  0  0  0  0  0
   44.5330   30.0370   37.8150 H   0  0  0  0  0  0  0  0  0  0  0  0
   45.3030   31.5360   35.9640 H   0  0  0  0  0  0  0  0  0  0  0  0
   45.5540   33.9300   36.3910 H   0  0  0  0  0  0  0  0  0  0  0  0
   43.5780   35.3920   40.0050 H   0  0  0  0  0  0  0  0  0  0  0  0
   43.8430   36.2860   42.0250 H   0  0  0  0  0  0  0  0  0  0  0  0
   42.2150   35.6430   42.2410 H   0  0  0  0  0  0  0  0  0  0  0  0
   43.0410   34.6530   44.0070 H   0  0  0  0  0  0  0  0  0  0  0  0
   44.5840   32.8880   43.8760 H   0  0  0  0  0  0  0  0  0  0  0  0
   43.1490   32.5750   42.8810 H   0  0  0  0  0  0  0  0  0  0  0  0
   45.4560   32.1610   41.7270 H   0  0  0  0  0  0  0  0  0  0  0  0
   45.7710   33.9180   42.0030 H   0  0  0  0  0  0  0  0  0  0  0  0
   39.3650   31.6140   40.5610 C   0  0  0  0  0  0  0  0  0  0  0  0
   37.9910   31.6310   40.6790 C   0  0  0  0  0  0  0  0  0  0  0  0
   37.4740   32.5720   40.5500 H   0  0  0  0  0  0  0  0  0  0  0  0
   37.3230   30.4660   40.9510 C   0  0  0  0  0  0  0  0  0  0  0  0
   36.2360   30.5730   41.0270 H   0  0  0  0  0  0  0  0  0  0  0  0
   37.9240   29.2410   41.1240 C   0  0  0  0  0  0  0  0  0  0  0  0
   39.2890   29.2550   41.0010 C   0  0  0  0  0  0  0  0  0  0  0  0
   39.9900   30.3980   40.7300 C   0  0  0  0  0  0  0  0  0  0  0  0
   41.0660   30.3580   40.6430 H   0  0  0  0  0  0  0  0  0  0  0  0
   40.1750   27.7240   41.2040 S   0  0  0  0  0  0  0  0  0  0  0  0
   38.9510   26.4760   41.5420 C   0  0  0  0  0  0  0  0  0  0  0  0
   39.3570   25.1860   41.7430 C   0  0  0  0  0  0  0  0  0  0  0  0
   40.4090   24.9310   41.6980 H   0  0  0  0  0  0  0  0  0  0  0  0
   38.4620   24.1710   42.0090 C   0  0  0  0  0  0  0  0  0  0  0  0
   38.7100   23.1320   42.1780 H   0  0  0  0  0  0  0  0  0  0  0  0
   37.1270   24.5100   42.0640 C   0  0  0  0  0  0  0  0  0  0  0  0
   36.3910   23.7460   42.2690 H   0  0  0  0  0  0  0  0  0  0  0  0
   36.7580   25.8220   41.8550 C   0  0  0  0  0  0  0  0  0  0  0  0
   35.6770   26.0080   41.9160 H   0  0  0  0  0  0  0  0  0  0  0  0
   37.6330   26.8500   41.5890 C   0  0  0  0  0  0  0  0  0  0  0  0
   37.0910   28.1400   41.3990 N   0  0  0  0  0  0  0  0  0  0  0  0
   36.0640   28.2750   41.4650 H   0  0  0  0  0  0  0  0  0  0  0  0
  1 15  1  0  0  0  0
  1  5  1  0  0  0  0
  2  1  2  0  0  0  0
  3  2  1  0  0  0  0
  3  4  1  0  0  0  0
  4 31  1  0  0  0  0
  4  5  2  0  0  0  0
  6  2  1  0  0  0  0
  7  3  1  0  0  0  0
  8 13  1  0  0  0  0
  9 10  1  0  0  0  0
  9  8  2  0  0  0  0
 10 11  2  0  0  0  0
 11 12  1  0  0  0  0
 12 14  1  0  0  0  0
 13 12  2  0  0  0  0
 14 15  1  0  0  0  0
 14 19  1  0  0  0  0
 15 23  1  6  0  0  0
 15 16  1  0  0  0  0
 16 25  1  0  0  0  0
 16 17  1  0  0  0  0
 17 26  1  0  0  0  0
 18 17  1  0  0  0  0
 18 27  1  0  0  0  0
 19 30  1  0  0  0  0
 19 18  1  0  0  0  0
 20  8  1  0  0  0  0
 21  9  1  0  0  0  0
 22 10  1  0  0  0  0
 24 16  1  0  0  0  0
 28 18  1  0  0  0  0
 29 19  1  0  0  0  0
 31 32  2  0  0  0  0
 31 38  1  0  0  0  0
 32 34  1  0  0  0  0
 33 32  1  0  0  0  0
 34 35  1  0  0  0  0
 34 36  2  0  0  0  0
 36 51  1  0  0  0  0
 37 36  1  0  0  0  0
 37 40  1  0  0  0  0
 38 37  2  0  0  0  0
 39 38  1  0  0  0  0
 40 41  1  0  0  0  0
 41 50  2  0  0  0  0
 41 42  1  0  0  0  0
 42 44  2  0  0  0  0
 43 42  1  0  0  0  0
 44 46  1  0  0  0  0
 44 45  1  0  0  0  0
 46 47  1  0  0  0  0
 48 49  1  0  0  0  0
 48 46  2  0  0  0  0
 50 48  1  0  0  0  0
 51 52  1  0  0  0  0
 51 50  1  0  0  0  0
M  END
>  <minimizedAffinity>
-7.06160069

$$$$

 OpenBabel03242520433D

 52 57  0  0  1  0  0  0  0  0999 V2000
   43.4680   33.0170   41.5770 C   0  0  0  0  0  0  0  0  0  0  0  0
   43.7080   33.0610   42.9340 C   0  0  0  0  0  0  0  0  0  0  0  0
   43.2610   31.9630   43.5530 N   0  0  0  0  0  0  0  0  0  0  0  0
   42.7310   31.2080   42.5870 C   0  0  0  0  0  0  0  0  0  0  0  0
   42.8520   31.8330   41.4150 N   0  0  0  0  0  0  0  0  0  0  0  0
   44.2000   33.8830   43.4320 H   0  0  0  0  0  0  0  0  0  0  0  0
   43.3100   31.7270   44.5730 H   0  0  0  0  0  0  0  0  0  0  0  0
   39.1470   33.6350   39.8600 C   0  0  0  0  0  0  0  0  0  0  0  0
   38.8290   34.9190   40.3720 C   0  0  0  0  0  0  0  0  0  0  0  0
   39.8970   35.8470   40.5620 C   0  0  0  0  0  0  0  0  0  0  0  0
   41.1700   35.4620   40.2430 N   0  0  0  0  0  0  0  0  0  0  0  0
   41.4100   34.2200   39.7570 C   0  0  0  0  0  0  0  0  0  0  0  0
   40.4090   33.3250   39.5700 N   0  0  0  0  0  0  0  0  0  0  0  0
   42.7460   33.9150   39.4620 N   0  0  0  0  0  0  0  0  0  0  0  0
   43.7490   33.9660   40.4740 C   0  0  2  0  0  0  0  0  0  0  0  0
   45.1480   33.8750   39.9720 C   0  0  0  0  0  0  0  0  0  0  0  0
   45.3650   33.1420   38.7840 N   0  0  0  0  0  0  0  0  0  0  0  0
   44.2000   32.5130   38.2570 C   0  0  0  0  0  0  0  0  0  0  0  0
   43.1160   33.5430   38.1110 C   0  0  0  0  0  0  0  0  0  0  0  0
   38.3130   32.9760   39.7350 H   0  0  0  0  0  0  0  0  0  0  0  0
   37.8510   35.2650   40.6360 H   0  0  0  0  0  0  0  0  0  0  0  0
   39.7080   36.8250   40.9460 H   0  0  0  0  0  0  0  0  0  0  0  0
   43.6850   35.0120   40.9080 H   0  0  0  0  0  0  0  0  0  0  0  0
   45.6390   34.8630   39.8550 H   0  0  0  0  0  0  0  0  0  0  0  0
   45.7370   33.3710   40.7900 H   0  0  0  0  0  0  0  0  0  0  0  0
   46.1100   32.4070   38.8630 H   0  0  0  0  0  0  0  0  0  0  0  0
   44.4640   32.1980   37.2010 H   0  0  0  0  0  0  0  0  0  0  0  0
   43.8940   31.5850   38.7650 H   0  0  0  0  0  0  0  0  0  0  0  0
   42.2670   33.1920   37.5010 H   0  0  0  0  0  0  0  0  0  0  0  0
   43.5730   34.4310   37.6490 H   0  0  0  0  0  0  0  0  0  0  0  0
   42.1000   29.8980   42.7100 C   0  0  0  0  0  0  0  0  0  0  0  0
   42.5440   28.8970   43.5470 C   0  0  0  0  0  0  0  0  0  0  0  0
   43.4160   29.0850   44.1590 H   0  0  0  0  0  0  0  0  0  0  0  0
   41.8740   27.7030   43.5840 C   0  0  0  0  0  0  0  0  0  0  0  0
   42.2960   26.9660   44.2770 H   0  0  0  0  0  0  0  0  0  0  0  0
   40.7610   27.4050   42.8320 C   0  0  0  0  0  0  0  0  0  0  0  0
   40.3440   28.4180   42.0090 C   0  0  0  0  0  0  0  0  0  0  0  0
   40.9870   29.6240   41.9460 C   0  0  0  0  0  0  0  0  0  0  0  0
   40.6190   30.3920   41.2800 H   0  0  0  0  0  0  0  0  0  0  0  0
   38.9110   28.1470   40.9880 S   0  0  0  0  0  0  0  0  0  0  0  0
   38.3540   26.4920   41.3350 C   0  0  0  0  0  0  0  0  0  0  0  0
   37.2530   26.0110   40.6800 C   0  0  0  0  0  0  0  0  0  0  0  0
   36.7310   26.6320   39.9620 H   0  0  0  0  0  0  0  0  0  0  0  0
   36.7680   24.7400   40.9020 C   0  0  0  0  0  0  0  0  0  0  0  0
   35.9070   24.2950   40.4230 H   0  0  0  0  0  0  0  0  0  0  0  0
   37.4430   23.9620   41.8180 C   0  0  0  0  0  0  0  0  0  0  0  0
   37.0970   22.9580   42.0230 H   0  0  0  0  0  0  0  0  0  0  0  0
   38.5480   24.4820   42.4570 C   0  0  0  0  0  0  0  0  0  0  0  0
   39.0280   23.7990   43.1710 H   0  0  0  0  0  0  0  0  0  0  0  0
   39.0490   25.7470   42.2510 C   0  0  0  0  0  0  0  0  0  0  0  0
   40.1920   26.1270   42.9890 N   0  0  0  0  0  0  0  0  0  0  0  0
   40.6160   25.4520   43.6530 H   0  0  0  0  0  0  0  0  0  0  0  0
  1  2  2  0  0  0  0
  2  6  1  0  0  0  0
  2  3  1  0  0  0  0
  3  7  1  0  0  0  0
  4 31  1  0  0  0  0
  4  3  1  0  0  0  0
  5  1  1  0  0  0  0
  5  4  2  0  0  0  0
  8  9  1  0  0  0  0
  9 10  2  0  0  0  0
  9 21  1  0  0  0  0
 10 22  1  0  0  0  0
 11 10  1  0  0  0  0
 12 11  2  0  0  0  0
 13 12  1  0  0  0  0
 13  8  2  0  0  0  0
 14 12  1  0  0  0  0
 14 15  1  0  0  0  0
 15 23  1  1  0  0  0
 15  1  1  0  0  0  0
 16 15  1  0  0  0  0
 16 25  1  0  0  0  0
 17 26  1  0  0  0  0
 17 16  1  0  0  0  0
 18 28  1  0  0  0  0
 18 17  1  0  0  0  0
 19 18  1  0  0  0  0
 19 14  1  0  0  0  0
 20  8  1  0  0  0  0
 24 16  1  0  0  0  0
 27 18  1  0  0  0  0
 29 19  1  0  0  0  0
 30 19  1  0  0  0  0
 31 32  1  0  0  0  0
 32 34  2  0  0  0  0
 32 33  1  0  0  0  0
 34 35  1  0  0  0  0
 36 51  1  0  0  0  0
 36 34  1  0  0  0  0
 37 36  2  0  0  0  0
 38 37  1  0  0  0  0
 38 31  2  0  0  0  0
 39 38  1  0  0  0  0
 40 41  1  0  0  0  0
 40 37  1  0  0  0  0
 41 50  1  0  0  0  0
 42 44  1  0  0  0  0
 42 41  2  0  0  0  0
 43 42  1  0  0  0  0
 44 46  2  0  0  0  0
 45 44  1  0  0  0  0
 46 47  1  0  0  0  0
 46 48  1  0  0  0  0
 48 49  1  0  0  0  0
 50 48  2  0  0  0  0
 50 51  1  0  0  0  0
 51 52  1  0  0  0  0
M  END
>  <minimizedAffinity>
-7.02888012

$$$$

 OpenBabel03242520433D

 52 57  0  0  1  0  0  0  0  0999 V2000
   41.8890   32.4340   41.5780 C   0  0  0  0  0  0  0  0  0  0  0  0
   42.8250   31.8470   42.4020 C   0  0  0  0  0  0  0  0  0  0  0  0
   42.4910   30.5920   42.7190 N   0  0  0  0  0  0  0  0  0  0  0  0
   41.3320   30.3700   42.0930 C   0  0  0  0  0  0  0  0  0  0  0  0
   40.9740   31.4630   41.4170 N   0  0  0  0  0  0  0  0  0  0  0  0
   43.7200   32.3440   42.7460 H   0  0  0  0  0  0  0  0  0  0  0  0
   43.0130   29.9140   43.3230 H   0  0  0  0  0  0  0  0  0  0  0  0
   38.6650   31.6320   38.2680 C   0  0  0  0  0  0  0  0  0  0  0  0
   37.5180   32.2290   38.8520 C   0  0  0  0  0  0  0  0  0  0  0  0
   37.7110   33.3530   39.7110 C   0  0  0  0  0  0  0  0  0  0  0  0
   38.9840   33.8040   39.9300 N   0  0  0  0  0  0  0  0  0  0  0  0
   40.0400   33.1910   39.3410 C   0  0  0  0  0  0  0  0  0  0  0  0
   39.8760   32.1220   38.5240 N   0  0  0  0  0  0  0  0  0  0  0  0
   41.3050   33.7220   39.6280 N   0  0  0  0  0  0  0  0  0  0  0  0
   41.7880   33.7810   40.9680 C   0  0  2  0  0  0  0  0  0  0  0  0
   43.0200   34.5970   41.1530 C   0  0  0  0  0  0  0  0  0  0  0  0
   43.9160   34.6740   40.0640 N   0  0  0  0  0  0  0  0  0  0  0  0
   43.5490   33.8820   38.9390 C   0  0  0  0  0  0  0  0  0  0  0  0
   42.1370   34.2180   38.5490 C   0  0  0  0  0  0  0  0  0  0  0  0
   38.4670   30.7940   37.6330 H   0  0  0  0  0  0  0  0  0  0  0  0
   36.5050   31.9120   38.7120 H   0  0  0  0  0  0  0  0  0  0  0  0
   36.8790   33.8340   40.1740 H   0  0  0  0  0  0  0  0  0  0  0  0
   40.9970   34.3520   41.5470 H   0  0  0  0  0  0  0  0  0  0  0  0
   42.8150   35.6320   41.4970 H   0  0  0  0  0  0  0  0  0  0  0  0
   43.5750   34.1270   42.0140 H   0  0  0  0  0  0  0  0  0  0  0  0
   44.9090   34.4320   40.3070 H   0  0  0  0  0  0  0  0  0  0  0  0
   44.1940   34.2400   38.0790 H   0  0  0  0  0  0  0  0  0  0  0  0
   43.7620   32.8060   39.0280 H   0  0  0  0  0  0  0  0  0  0  0  0
   41.8570   33.8240   37.5580 H   0  0  0  0  0  0  0  0  0  0  0  0
   42.0510   35.3160   38.5590 H   0  0  0  0  0  0  0  0  0  0  0  0
   40.5220   29.1570   42.0970 C   0  0  0  0  0  0  0  0  0  0  0  0
   40.4590   28.2680   43.1500 C   0  0  0  0  0  0  0  0  0  0  0  0
   41.0420   28.4770   44.0360 H   0  0  0  0  0  0  0  0  0  0  0  0
   39.6640   27.1580   43.0470 C   0  0  0  0  0  0  0  0  0  0  0  0
   39.6740   26.5080   43.9300 H   0  0  0  0  0  0  0  0  0  0  0  0
   38.8990   26.8400   41.9480 C   0  0  0  0  0  0  0  0  0  0  0  0
   38.9830   27.7400   40.9180 C   0  0  0  0  0  0  0  0  0  0  0  0
   39.7660   28.8600   40.9850 C   0  0  0  0  0  0  0  0  0  0  0  0
   39.7980   29.5410   40.1450 H   0  0  0  0  0  0  0  0  0  0  0  0
   38.0350   27.4330   39.4430 S   0  0  0  0  0  0  0  0  0  0  0  0
   37.1560   25.9090   39.7190 C   0  0  0  0  0  0  0  0  0  0  0  0
   36.3380   25.4260   38.7350 C   0  0  0  0  0  0  0  0  0  0  0  0
   36.2300   25.9660   37.8020 H   0  0  0  0  0  0  0  0  0  0  0  0
   35.6290   24.2540   38.8830 C   0  0  0  0  0  0  0  0  0  0  0  0
   34.9670   23.8130   38.1510 H   0  0  0  0  0  0  0  0  0  0  0  0
   35.7780   23.5780   40.0750 C   0  0  0  0  0  0  0  0  0  0  0  0
   35.2400   22.6530   40.2350 H   0  0  0  0  0  0  0  0  0  0  0  0
   36.6100   24.0960   41.0430 C   0  0  0  0  0  0  0  0  0  0  0  0
   36.6730   23.4980   41.9620 H   0  0  0  0  0  0  0  0  0  0  0  0
   37.3280   25.2640   40.9160 C   0  0  0  0  0  0  0  0  0  0  0  0
   38.1380   25.6570   42.0050 N   0  0  0  0  0  0  0  0  0  0  0  0
   38.1690   25.0640   42.8560 H   0  0  0  0  0  0  0  0  0  0  0  0
  1  2  2  0  0  0  0
  2  3  1  0  0  0  0
  2  6  1  0  0  0  0
  3  7  1  0  0  0  0
  4 31  1  0  0  0  0
  4  3  1  0  0  0  0
  5  1  1  0  0  0  0
  5  4  2  0  0  0  0
  8 13  2  0  0  0  0
  8  9  1  0  0  0  0
  9 10  2  0  0  0  0
 10 11  1  0  0  0  0
 10 22  1  0  0  0  0
 12 14  1  0  0  0  0
 12 11  2  0  0  0  0
 13 12  1  0  0  0  0
 14 15  1  0  0  0  0
 15 16  1  0  0  0  0
 15 23  1  1  0  0  0
 15  1  1  0  0  0  0
 16 24  1  0  0  0  0
 16 25  1  0  0  0  0
 17 26  1  0  0  0  0
 17 16  1  0  0  0  0
 18 28  1  0  0  0  0
 18 17  1  0  0  0  0
 19 30  1  0  0  0  0
 19 18  1  0  0  0  0
 19 14  1  0  0  0  0
 20  8  1  0  0  0  0
 21  9  1  0  0  0  0
 27 18  1  0  0  0  0
 29 19  1  0  0  0  0
 31 32  1  0  0  0  0
 32 33  1  0  0  0  0
 34 32  2  0  0  0  0
 34 35  1  0  0  0  0
 36 51  1  0  0  0  0
 36 34  1  0  0  0  0
 37 38  1  0  0  0  0
 37 36  2  0  0  0  0
 38 31  2  0  0  0  0
 39 38  1  0  0  0  0
 40 41  1  0  0  0  0
 40 37  1  0  0  0  0
 41 50  1  0  0  0  0
 42 44  1  0  0  0  0
 42 41  2  0  0  0  0
 43 42  1  0  0  0  0
 44 46  2  0  0  0  0
 45 44  1  0  0  0  0
 46 47  1  0  0  0  0
 46 48  1  0  0  0  0
 48 49  1  0  0  0  0
 50 48  2  0  0  0  0
 50 51  1  0  0  0  0
 51 52  1  0  0  0  0
M  END
>  <minimizedAffinity>
-7.00127411

$$$$

 OpenBabel03242520433D

 52 57  0  0  1  0  0  0  0  0999 V2000
   39.8670   33.4660   39.6530 C   0  0  0  0  0  0  0  0  0  0  0  0
   38.9580   33.6230   40.6760 C   0  0  0  0  0  0  0  0  0  0  0  0
   38.0290   32.6600   40.6690 N   0  0  0  0  0  0  0  0  0  0  0  0
   38.3460   31.8780   39.6320 C   0  0  0  0  0  0  0  0  0  0  0  0
   39.4350   32.3560   39.0290 N   0  0  0  0  0  0  0  0  0  0  0  0
   38.9950   34.4270   41.3960 H   0  0  0  0  0  0  0  0  0  0  0  0
   37.2240   32.5300   41.3250 H   0  0  0  0  0  0  0  0  0  0  0  0
   42.8860   30.0060   38.6970 C   0  0  0  0  0  0  0  0  0  0  0  0
   42.8560   30.0000   37.2790 C   0  0  0  0  0  0  0  0  0  0  0  0
   42.6160   31.2380   36.6090 C   0  0  0  0  0  0  0  0  0  0  0  0
   42.4280   32.3670   37.3570 N   0  0  0  0  0  0  0  0  0  0  0  0
   42.4680   32.3080   38.7110 C   0  0  0  0  0  0  0  0  0  0  0  0
   42.6940   31.1420   39.3640 N   0  0  0  0  0  0  0  0  0  0  0  0
   42.2610   33.5150   39.3920 N   0  0  0  0  0  0  0  0  0  0  0  0
   41.0510   34.2500   39.2270 C   0  0  2  0  0  0  0  0  0  0  0  0
   41.0720   35.6260   39.7990 C   0  0  0  0  0  0  0  0  0  0  0  0
   41.8990   35.8490   40.9220 N   0  0  0  0  0  0  0  0  0  0  0  0
   42.5570   34.6840   41.4120 C   0  0  0  0  0  0  0  0  0  0  0  0
   43.2890   34.0260   40.2760 C   0  0  0  0  0  0  0  0  0  0  0  0
   43.0700   29.0550   39.1510 H   0  0  0  0  0  0  0  0  0  0  0  0
   42.9970   29.1440   36.6510 H   0  0  0  0  0  0  0  0  0  0  0  0
   42.5830   31.2840   35.5430 H   0  0  0  0  0  0  0  0  0  0  0  0
   40.9540   34.4230   38.1100 H   0  0  0  0  0  0  0  0  0  0  0  0
   41.3000   36.4100   39.0480 H   0  0  0  0  0  0  0  0  0  0  0  0
   40.0120   35.8460   40.1120 H   0  0  0  0  0  0  0  0  0  0  0  0
   41.4080   36.2970   41.7340 H   0  0  0  0  0  0  0  0  0  0  0  0
   43.3620   35.0530   42.1190 H   0  0  0  0  0  0  0  0  0  0  0  0
   41.9330   34.0070   42.0160 H   0  0  0  0  0  0  0  0  0  0  0  0
   44.0050   33.2580   40.6130 H   0  0  0  0  0  0  0  0  0  0  0  0
   43.8170   34.8210   39.7280 H   0  0  0  0  0  0  0  0  0  0  0  0
   37.6610   30.6770   39.1670 C   0  0  0  0  0  0  0  0  0  0  0  0
   36.8430   30.6280   38.0580 C   0  0  0  0  0  0  0  0  0  0  0  0
   36.6950   31.5340   37.4870 H   0  0  0  0  0  0  0  0  0  0  0  0
   36.2490   29.4440   37.7110 C   0  0  0  0  0  0  0  0  0  0  0  0
   35.6180   29.4970   36.8170 H   0  0  0  0  0  0  0  0  0  0  0  0
   36.4000   28.2600   38.3960 C   0  0  0  0  0  0  0  0  0  0  0  0
   37.2170   28.3400   39.4930 C   0  0  0  0  0  0  0  0  0  0  0  0
   37.8280   29.5040   39.8710 C   0  0  0  0  0  0  0  0  0  0  0  0
   38.4630   29.5160   40.7450 H   0  0  0  0  0  0  0  0  0  0  0  0
   37.4880   26.8680   40.4580 S   0  0  0  0  0  0  0  0  0  0  0  0
   36.5460   25.5750   39.6760 C   0  0  0  0  0  0  0  0  0  0  0  0
   36.5700   24.3180   40.2150 C   0  0  0  0  0  0  0  0  0  0  0  0
   37.1550   24.1160   41.1040 H   0  0  0  0  0  0  0  0  0  0  0  0
   35.8650   23.2710   39.6600 C   0  0  0  0  0  0  0  0  0  0  0  0
   35.8370   22.2560   40.0300 H   0  0  0  0  0  0  0  0  0  0  0  0
   35.1260   23.5430   38.5290 C   0  0  0  0  0  0  0  0  0  0  0  0
   34.5570   22.7520   38.0600 H   0  0  0  0  0  0  0  0  0  0  0  0
   35.1270   24.8220   38.0160 C   0  0  0  0  0  0  0  0  0  0  0  0
   34.5130   24.9550   37.1150 H   0  0  0  0  0  0  0  0  0  0  0  0
   35.8220   25.8820   38.5530 C   0  0  0  0  0  0  0  0  0  0  0  0
   35.7170   27.1320   37.9040 N   0  0  0  0  0  0  0  0  0  0  0  0
   35.1270   27.2160   37.0550 H   0  0  0  0  0  0  0  0  0  0  0  0
  1  2  2  0  0  0  0
  2  6  1  0  0  0  0
  3  2  1  0  0  0  0
  3  7  1  0  0  0  0
  4  3  1  0  0  0  0
  5  4  2  0  0  0  0
  5  1  1  0  0  0  0
  8 20  1  0  0  0  0
  8 13  1  0  0  0  0
  9  8  2  0  0  0  0
 10  9  1  0  0  0  0
 10 11  2  0  0  0  0
 11 12  1  0  0  0  0
 12 13  2  0  0  0  0
 12 14  1  0  0  0  0
 14 19  1  0  0  0  0
 15 23  1  6  0  0  0
 15 14  1  0  0  0  0
 15  1  1  0  0  0  0
 15 16  1  0  0  0  0
 16 25  1  0  0  0  0
 16 17  1  0  0  0  0
 17 18  1  0  0  0  0
 17 26  1  0  0  0  0
 18 28  1  0  0  0  0
 18 27  1  0  0  0  0
 19 29  1  0  0  0  0
 19 18  1  0  0  0  0
 21  9  1  0  0  0  0
 22 10  1  0  0  0  0
 24 16  1  0  0  0  0
 30 19  1  0  0  0  0
 31  4  1  0  0  0  0
 31 38  1  0  0  0  0
 32 31  2  0  0  0  0
 33 32  1  0  0  0  0
 34 32  1  0  0  0  0
 34 36  2  0  0  0  0
 35 34  1  0  0  0  0
 36 37  1  0  0  0  0
 37 38  2  0  0  0  0
 37 40  1  0  0  0  0
 38 39  1  0  0  0  0
 41 42  1  0  0  0  0
 41 40  1  0  0  0  0
 42 43  1  0  0  0  0
 44 45  1  0  0  0  0
 44 42  2  0  0  0  0
 46 44  1  0  0  0  0
 47 46  1  0  0  0  0
 48 46  2  0  0  0  0
 48 50  1  0  0  0  0
 49 48  1  0  0  0  0
 50 41  2  0  0  0  0
 51 36  1  0  0  0  0
 51 50  1  0  0  0  0
 52 51  1  0  0  0  0
M  END
>  <minimizedAffinity>
-6.92676926

$$$$

 OpenBabel03242520433D

 52 57  0  0  1  0  0  0  0  0999 V2000
   39.6680   33.6480   39.6270 C   0  0  0  0  0  0  0  0  0  0  0  0
   38.8150   34.0300   40.6400 C   0  0  0  0  0  0  0  0  0  0  0  0
   37.7380   33.2390   40.7070 N   0  0  0  0  0  0  0  0  0  0  0  0
   37.9030   32.3410   39.7310 C   0  0  0  0  0  0  0  0  0  0  0  0
   39.0460   32.5840   39.0900 N   0  0  0  0  0  0  0  0  0  0  0  0
   38.9980   34.8660   41.2970 H   0  0  0  0  0  0  0  0  0  0  0  0
   36.9330   33.2940   41.3750 H   0  0  0  0  0  0  0  0  0  0  0  0
   42.1450   29.6890   39.1930 C   0  0  0  0  0  0  0  0  0  0  0  0
   42.1270   29.5080   37.7860 C   0  0  0  0  0  0  0  0  0  0  0  0
   42.0790   30.6710   36.9610 C   0  0  0  0  0  0  0  0  0  0  0  0
   42.0560   31.9010   37.5570 N   0  0  0  0  0  0  0  0  0  0  0  0
   42.0750   32.0100   38.9080 C   0  0  0  0  0  0  0  0  0  0  0  0
   42.1190   30.9160   39.7080 N   0  0  0  0  0  0  0  0  0  0  0  0
   42.0450   33.3120   39.4280 N   0  0  0  0  0  0  0  0  0  0  0  0
   40.9590   34.1890   39.1400 C   0  0  2  0  0  0  0  0  0  0  0  0
   41.1800   35.6080   39.5360 C   0  0  0  0  0  0  0  0  0  0  0  0
   42.0220   35.8480   40.6450 N   0  0  0  0  0  0  0  0  0  0  0  0
   42.4950   34.6720   41.2940 C   0  0  0  0  0  0  0  0  0  0  0  0
   43.1310   33.7740   40.2700 C   0  0  0  0  0  0  0  0  0  0  0  0
   42.1810   28.7870   39.7670 H   0  0  0  0  0  0  0  0  0  0  0  0
   42.1430   28.5670   37.2740 H   0  0  0  0  0  0  0  0  0  0  0  0
   42.0630   30.5850   35.8970 H   0  0  0  0  0  0  0  0  0  0  0  0
   40.8990   34.2310   38.0080 H   0  0  0  0  0  0  0  0  0  0  0  0
   41.5300   36.2490   38.7000 H   0  0  0  0  0  0  0  0  0  0  0  0
   40.1630   36.0200   39.7910 H   0  0  0  0  0  0  0  0  0  0  0  0
   41.5970   36.4640   41.3810 H   0  0  0  0  0  0  0  0  0  0  0  0
   43.3400   35.0050   41.9710 H   0  0  0  0  0  0  0  0  0  0  0  0
   41.7720   34.1760   41.9600 H   0  0  0  0  0  0  0  0  0  0  0  0
   43.7210   32.9580   40.7180 H   0  0  0  0  0  0  0  0  0  0  0  0
   43.7750   34.4070   39.6400 H   0  0  0  0  0  0  0  0  0  0  0  0
   37.0190   31.2410   39.3600 C   0  0  0  0  0  0  0  0  0  0  0  0
   36.2000   30.5700   40.2430 C   0  0  0  0  0  0  0  0  0  0  0  0
   36.2030   30.8740   41.2820 H   0  0  0  0  0  0  0  0  0  0  0  0
   35.4090   29.5500   39.7860 C   0  0  0  0  0  0  0  0  0  0  0  0
   34.7910   29.0740   40.5560 H   0  0  0  0  0  0  0  0  0  0  0  0
   35.3600   29.1200   38.4800 C   0  0  0  0  0  0  0  0  0  0  0  0
   36.1860   29.8050   37.6270 C   0  0  0  0  0  0  0  0  0  0  0  0
   36.9890   30.8290   38.0460 C   0  0  0  0  0  0  0  0  0  0  0  0
   37.6230   31.3380   37.3340 H   0  0  0  0  0  0  0  0  0  0  0  0
   36.2070   29.3360   35.9090 S   0  0  0  0  0  0  0  0  0  0  0  0
   35.0540   27.9890   35.7420 C   0  0  0  0  0  0  0  0  0  0  0  0
   34.8660   27.4250   34.5100 C   0  0  0  0  0  0  0  0  0  0  0  0
   35.4140   27.7950   33.6510 H   0  0  0  0  0  0  0  0  0  0  0  0
   33.9890   26.3800   34.3110 C   0  0  0  0  0  0  0  0  0  0  0  0
   33.7910   25.8870   33.3700 H   0  0  0  0  0  0  0  0  0  0  0  0
   33.3010   25.9200   35.4130 C   0  0  0  0  0  0  0  0  0  0  0  0
   32.6020   25.1020   35.3020 H   0  0  0  0  0  0  0  0  0  0  0  0
   33.5170   26.5150   36.6370 C   0  0  0  0  0  0  0  0  0  0  0  0
   32.9300   26.0910   37.4620 H   0  0  0  0  0  0  0  0  0  0  0  0
   34.3870   27.5580   36.8590 C   0  0  0  0  0  0  0  0  0  0  0  0
   34.4920   28.0550   38.1770 N   0  0  0  0  0  0  0  0  0  0  0  0
   33.9200   27.6260   38.9290 H   0  0  0  0  0  0  0  0  0  0  0  0
  1  2  2  0  0  0  0
  2  3  1  0  0  0  0
  2  6  1  0  0  0  0
  3  7  1  0  0  0  0
  4  3  1  0  0  0  0
  5  1  1  0  0  0  0
  5  4  2  0  0  0  0
  8 13  1  0  0  0  0
  8 20  1  0  0  0  0
  9  8  2  0  0  0  0
 10 11  2  0  0  0  0
 10  9  1  0  0  0  0
 11 12  1  0  0  0  0
 12 14  1  0  0  0  0
 12 13  2  0  0  0  0
 14 19  1  0  0  0  0
 15 23  1  6  0  0  0
 15 14  1  0  0  0  0
 15 16  1  0  0  0  0
 15  1  1  0  0  0  0
 16 25  1  0  0  0  0
 16 17  1  0  0  0  0
 17 18  1  0  0  0  0
 17 26  1  0  0  0  0
 18 28  1  0  0  0  0
 18 27  1  0  0  0  0
 19 29  1  0  0  0  0
 19 18  1  0  0  0  0
 21  9  1  0  0  0  0
 22 10  1  0  0  0  0
 24 16  1  0  0  0  0
 30 19  1  0  0  0  0
 31  4  1  0  0  0  0
 31 32  1  0  0  0  0
 32 33  1  0  0  0  0
 34 32  2  0  0  0  0
 34 35  1  0  0  0  0
 36 34  1  0  0  0  0
 37 38  1  0  0  0  0
 37 36  2  0  0  0  0
 38 31  2  0  0  0  0
 39 38  1  0  0  0  0
 40 37  1  0  0  0  0
 41 40  1  0  0  0  0
 41 50  1  0  0  0  0
 42 41  2  0  0  0  0
 43 42  1  0  0  0  0
 44 42  1  0  0  0  0
 44 46  2  0  0  0  0
 45 44  1  0  0  0  0
 46 48  1  0  0  0  0
 47 46  1  0  0  0  0
 48 50  2  0  0  0  0
 48 49  1  0  0  0  0
 50 51  1  0  0  0  0
 51 36  1  0  0  0  0
 51 52  1  0  0  0  0
M  END
>  <minimizedAffinity>
-6.85342741

$$$$
