
 OpenBabel03242520403D

 52 57  0  0  1  0  0  0  0  0999 V2000
   48.1190   30.0410   48.0630 C   0  0  0  0  0  0  0  0  0  0  0  0
   47.6430   30.7680   49.1320 C   0  0  0  0  0  0  0  0  0  0  0  0
   48.6360   31.3010   49.8520 N   0  0  0  0  0  0  0  0  0  0  0  0
   49.7590   30.9140   49.2390 C   0  0  0  0  0  0  0  0  0  0  0  0
   49.4530   30.1660   48.1780 N   0  0  0  0  0  0  0  0  0  0  0  0
   46.5940   30.8910   49.3580 H   0  0  0  0  0  0  0  0  0  0  0  0
   48.5690   31.8970   50.7110 H   0  0  0  0  0  0  0  0  0  0  0  0
   45.8510   33.4700   45.8050 C   0  0  0  0  0  0  0  0  0  0  0  0
   46.6640   33.6240   44.6530 C   0  0  0  0  0  0  0  0  0  0  0  0
   47.3450   32.4730   44.1550 C   0  0  0  0  0  0  0  0  0  0  0  0
   47.1840   31.2800   44.8030 N   0  0  0  0  0  0  0  0  0  0  0  0
   46.3920   31.1960   45.9000 C   0  0  0  0  0  0  0  0  0  0  0  0
   45.7380   32.2790   46.3880 N   0  0  0  0  0  0  0  0  0  0  0  0
   46.2900   29.9320   46.4980 N   0  0  0  0  0  0  0  0  0  0  0  0
   47.4470   29.2630   46.9950 C   0  0  2  0  0  0  0  0  0  0  0  0
   47.2330   27.8360   47.3640 C   0  0  0  0  0  0  0  0  0  0  0  0
   45.9440   27.4670   47.8090 N   0  0  0  0  0  0  0  0  0  0  0  0
   45.0250   28.5490   47.9200 C   0  0  0  0  0  0  0  0  0  0  0  0
   44.9940   29.2950   46.6150 C   0  0  0  0  0  0  0  0  0  0  0  0
   45.3620   34.3610   46.1390 H   0  0  0  0  0  0  0  0  0  0  0  0
   46.8220   34.5350   44.1130 H   0  0  0  0  0  0  0  0  0  0  0  0
   47.9690   32.5390   43.2910 H   0  0  0  0  0  0  0  0  0  0  0  0
   48.1640   29.2110   46.1170 H   0  0  0  0  0  0  0  0  0  0  0  0
   47.5310   27.1250   46.5650 H   0  0  0  0  0  0  0  0  0  0  0  0
   47.9530   27.6220   48.2040 H   0  0  0  0  0  0  0  0  0  0  0  0
   45.9370   26.9550   48.7250 H   0  0  0  0  0  0  0  0  0  0  0  0
   44.0000   28.0800   48.0260 H   0  0  0  0  0  0  0  0  0  0  0  0
   45.1450   29.1820   48.8130 H   0  0  0  0  0  0  0  0  0  0  0  0
   44.1470   29.9980   46.5400 H   0  0  0  0  0  0  0  0  0  0  0  0
   44.9340   28.5430   45.8140 H   0  0  0  0  0  0  0  0  0  0  0  0
   51.1380   31.2170   49.6070 C   0  0  0  0  0  0  0  0  0  0  0  0
   51.5280   31.6780   50.8470 C   0  0  0  0  0  0  0  0  0  0  0  0
   50.7710   31.8290   51.6030 H   0  0  0  0  0  0  0  0  0  0  0  0
   52.8540   31.9310   51.0850 C   0  0  0  0  0  0  0  0  0  0  0  0
   53.0730   32.2940   52.0960 H   0  0  0  0  0  0  0  0  0  0  0  0
   53.8620   31.7590   50.1650 C   0  0  0  0  0  0  0  0  0  0  0  0
   53.4430   31.2980   48.9430 C   0  0  0  0  0  0  0  0  0  0  0  0
   52.1290   31.0360   48.6690 C   0  0  0  0  0  0  0  0  0  0  0  0
   51.8490   30.6740   47.6890 H   0  0  0  0  0  0  0  0  0  0  0  0
   54.6620   31.0380   47.6720 S   0  0  0  0  0  0  0  0  0  0  0  0
   56.2330   31.4800   48.3840 C   0  0  0  0  0  0  0  0  0  0  0  0
   57.3630   31.3730   47.6190 C   0  0  0  0  0  0  0  0  0  0  0  0
   57.2970   31.0260   46.5950 H   0  0  0  0  0  0  0  0  0  0  0  0
   58.6100   31.6990   48.1080 C   0  0  0  0  0  0  0  0  0  0  0  0
   59.5410   31.6410   47.5640 H   0  0  0  0  0  0  0  0  0  0  0  0
   58.6770   32.1400   49.4130 C   0  0  0  0  0  0  0  0  0  0  0  0
   59.6350   32.4060   49.8370 H   0  0  0  0  0  0  0  0  0  0  0  0
   57.5160   32.2320   50.1520 C   0  0  0  0  0  0  0  0  0  0  0  0
   57.6570   32.5920   51.1800 H   0  0  0  0  0  0  0  0  0  0  0  0
   56.2620   31.9130   49.6840 C   0  0  0  0  0  0  0  0  0  0  0  0
   55.1740   32.0660   50.5730 N   0  0  0  0  0  0  0  0  0  0  0  0
   55.3470   32.4080   51.5360 H   0  0  0  0  0  0  0  0  0  0  0  0
  1  5  1  0  0  0  0
  1  2  2  0  0  0  0
  2  6  1  0  0  0  0
  2  3  1  0  0  0  0
  3  7  1  0  0  0  0
  4 31  1  0  0  0  0
  4  3  1  0  0  0  0
  5  4  2  0  0  0  0
  8 20  1  0  0  0  0
  8 13  1  0  0  0  0
  9  8  2  0  0  0  0
 10  9  1  0  0  0  0
 10 11  2  0  0  0  0
 11 12  1  0  0  0  0
 12 13  2  0  0  0  0
 12 14  1  0  0  0  0
 14 19  1  0  0  0  0
 14 15  1  0  0  0  0
 15 23  1  6  0  0  0
 15 16  1  0  0  0  0
 15  1  1  0  0  0  0
 16 17  1  0  0  0  0
 16 25  1  0  0  0  0
 17 18  1  0  0  0  0
 17 26  1  0  0  0  0
 18 27  1  0  0  0  0
 18 28  1  0  0  0  0
 19 18  1  0  0  0  0
 21  9  1  0  0  0  0
 22 10  1  0  0  0  0
 24 16  1  0  0  0  0
 29 19  1  0  0  0  0
 30 19  1  0  0  0  0
 31 32  1  0  0  0  0
 32 34  2  0  0  0  0
 32 33  1  0  0  0  0
 34 35  1  0  0  0  0
 36 51  1  0  0  0  0
 36 34  1  0  0  0  0
 37 36  2  0  0  0  0
 38 37  1  0  0  0  0
 38 31  2  0  0  0  0
 39 38  1  0  0  0  0
 40 41  1  0  0  0  0
 40 37  1  0  0  0  0
 41 50  1  0  0  0  0
 42 44  1  0  0  0  0
 42 41  2  0  0  0  0
 43 42  1  0  0  0  0
 44 46  2  0  0  0  0
 45 44  1  0  0  0  0
 46 47  1  0  0  0  0
 46 48  1  0  0  0  0
 48 49  1  0  0  0  0
 50 48  2  0  0  0  0
 50 51  1  0  0  0  0
 51 52  1  0  0  0  0
M  END
>  <minimizedAffinity>
-5.28788614

>  <minimizedRMSD>
0.53456974

$$$$
