
 OpenBabel03242520403D

 52 57  0  0  1  0  0  0  0  0999 V2000
   48.0710   30.0460   47.9970 C   0  0  0  0  0  0  0  0  0  0  0  0
   47.5240   30.6750   49.0950 C   0  0  0  0  0  0  0  0  0  0  0  0
   48.4500   31.3230   49.8100 N   0  0  0  0  0  0  0  0  0  0  0  0
   49.6010   31.1100   49.1650 C   0  0  0  0  0  0  0  0  0  0  0  0
   49.3770   30.3530   48.0900 N   0  0  0  0  0  0  0  0  0  0  0  0
   46.4730   30.6460   49.3440 H   0  0  0  0  0  0  0  0  0  0  0  0
   48.3200   31.8830   50.6860 H   0  0  0  0  0  0  0  0  0  0  0  0
   46.0000   33.3380   45.3750 C   0  0  0  0  0  0  0  0  0  0  0  0
   46.9050   33.4320   44.2880 C   0  0  0  0  0  0  0  0  0  0  0  0
   47.6240   32.2570   43.9110 C   0  0  0  0  0  0  0  0  0  0  0  0
   47.4090   31.1010   44.6080 N   0  0  0  0  0  0  0  0  0  0  0  0
   46.5290   31.0750   45.6390 C   0  0  0  0  0  0  0  0  0  0  0  0
   45.8380   32.1800   46.0110 N   0  0  0  0  0  0  0  0  0  0  0  0
   46.3770   29.8450   46.2960 N   0  0  0  0  0  0  0  0  0  0  0  0
   47.4880   29.2080   46.9220 C   0  0  2  0  0  0  0  0  0  0  0  0
   47.2440   27.8030   47.3500 C   0  0  0  0  0  0  0  0  0  0  0  0
   45.9220   27.4550   47.7070 N   0  0  0  0  0  0  0  0  0  0  0  0
   44.9980   28.5380   47.6820 C   0  0  0  0  0  0  0  0  0  0  0  0
   45.0750   29.2110   46.3400 C   0  0  0  0  0  0  0  0  0  0  0  0
   45.4860   34.2440   45.6180 H   0  0  0  0  0  0  0  0  0  0  0  0
   47.1080   34.3120   43.7130 H   0  0  0  0  0  0  0  0  0  0  0  0
   48.3180   32.2780   43.1000 H   0  0  0  0  0  0  0  0  0  0  0  0
   48.2760   29.1110   46.1110 H   0  0  0  0  0  0  0  0  0  0  0  0
   47.6060   27.0510   46.6190 H   0  0  0  0  0  0  0  0  0  0  0  0
   47.8920   27.6390   48.2570 H   0  0  0  0  0  0  0  0  0  0  0  0
   45.8390   26.9930   48.6460 H   0  0  0  0  0  0  0  0  0  0  0  0
   43.9670   28.0720   47.7280 H   0  0  0  0  0  0  0  0  0  0  0  0
   45.0440   29.2190   48.5460 H   0  0  0  0  0  0  0  0  0  0  0  0
   44.2380   29.9060   46.1570 H   0  0  0  0  0  0  0  0  0  0  0  0
   45.0810   28.4150   45.5790 H   0  0  0  0  0  0  0  0  0  0  0  0
   50.9320   31.5930   49.5140 C   0  0  0  0  0  0  0  0  0  0  0  0
   52.0950   30.8790   49.3090 C   0  0  0  0  0  0  0  0  0  0  0  0
   52.0260   29.8990   48.8610 H   0  0  0  0  0  0  0  0  0  0  0  0
   53.2960   31.4290   49.6750 C   0  0  0  0  0  0  0  0  0  0  0  0
   54.1660   30.7930   49.4750 H   0  0  0  0  0  0  0  0  0  0  0  0
   53.4480   32.6720   50.2470 C   0  0  0  0  0  0  0  0  0  0  0  0
   52.2750   33.3550   50.4380 C   0  0  0  0  0  0  0  0  0  0  0  0
   51.0580   32.8390   50.0860 C   0  0  0  0  0  0  0  0  0  0  0  0
   50.1610   33.4180   50.2570 H   0  0  0  0  0  0  0  0  0  0  0  0
   52.3480   34.9750   51.1730 S   0  0  0  0  0  0  0  0  0  0  0  0
   54.0680   35.3050   51.4920 C   0  0  0  0  0  0  0  0  0  0  0  0
   54.4200   36.4980   52.0620 C   0  0  0  0  0  0  0  0  0  0  0  0
   53.6610   37.2270   52.3150 H   0  0  0  0  0  0  0  0  0  0  0  0
   55.7340   36.8170   52.3360 C   0  0  0  0  0  0  0  0  0  0  0  0
   56.0850   37.7360   52.7840 H   0  0  0  0  0  0  0  0  0  0  0  0
   56.6890   35.8780   52.0090 C   0  0  0  0  0  0  0  0  0  0  0  0
   57.7310   36.0870   52.2060 H   0  0  0  0  0  0  0  0  0  0  0  0
   56.2940   34.6880   51.4360 C   0  0  0  0  0  0  0  0  0  0  0  0
   57.1150   33.9960   51.2060 H   0  0  0  0  0  0  0  0  0  0  0  0
   54.9900   34.3490   51.1540 C   0  0  0  0  0  0  0  0  0  0  0  0
   54.7550   33.0860   50.5640 N   0  0  0  0  0  0  0  0  0  0  0  0
   55.5560   32.4610   50.3620 H   0  0  0  0  0  0  0  0  0  0  0  0
  1  5  1  0  0  0  0
  1  2  2  0  0  0  0
  2  6  1  0  0  0  0
  2  3  1  0  0  0  0
  3  7  1  0  0  0  0
  4 31  1  0  0  0  0
  4  3  1  0  0  0  0
  5  4  2  0  0  0  0
  8 20  1  0  0  0  0
  8 13  1  0  0  0  0
  9  8  2  0  0  0  0
 10  9  1  0  0  0  0
 10 11  2  0  0  0  0
 11 12  1  0  0  0  0
 12 13  2  0  0  0  0
 12 14  1  0  0  0  0
 14 19  1  0  0  0  0
 14 15  1  0  0  0  0
 15 23  1  6  0  0  0
 15 16  1  0  0  0  0
 15  1  1  0  0  0  0
 16 17  1  0  0  0  0
 16 25  1  0  0  0  0
 17 26  1  0  0  0  0
 18 17  1  0  0  0  0
 18 27  1  0  0  0  0
 18 28  1  0  0  0  0
 19 18  1  0  0  0  0
 21  9  1  0  0  0  0
 22 10  1  0  0  0  0
 24 16  1  0  0  0  0
 29 19  1  0  0  0  0
 30 19  1  0  0  0  0
 31 38  1  0  0  0  0
 32 31  2  0  0  0  0
 32 34  1  0  0  0  0
 33 32  1  0  0  0  0
 34 36  2  0  0  0  0
 35 34  1  0  0  0  0
 36 37  1  0  0  0  0
 36 51  1  0  0  0  0
 37 40  1  0  0  0  0
 38 39  1  0  0  0  0
 38 37  2  0  0  0  0
 40 41  1  0  0  0  0
 41 42  1  0  0  0  0
 42 43  1  0  0  0  0
 42 44  2  0  0  0  0
 44 45  1  0  0  0  0
 46 47  1  0  0  0  0
 46 44  1  0  0  0  0
 48 46  2  0  0  0  0
 49 48  1  0  0  0  0
 50 48  1  0  0  0  0
 50 41  2  0  0  0  0
 51 50  1  0  0  0  0
 52 51  1  0  0  0  0
M  END
>  <minimizedAffinity>
-5.7478056

>  <minimizedRMSD>
1.3454268

$$$$
