
 OpenBabel03242512033D

 60 65  0  0  1  0  0  0  0  0999 V2000
   36.1990   26.6620   39.5160 C   0  0  2  0  0  0  0  0  0  0  0  0
   36.4780   27.3590   38.1960 C   0  0  0  0  0  0  0  0  0  0  0  0
   36.5740   28.1030   39.4630 C   0  0  1  0  0  0  0  0  0  0  0  0
   35.1310   26.3560   39.6080 H   0  0  0  0  0  0  0  0  0  0  0  0
   35.6500   27.5790   37.4990 H   0  0  0  0  0  0  0  0  0  0  0  0
   37.4520   27.1890   37.6820 H   0  0  0  0  0  0  0  0  0  0  0  0
   37.5670   28.3060   39.9370 H   0  0  0  0  0  0  0  0  0  0  0  0
   37.0480   25.4930   41.4540 C   0  0  2  0  0  0  0  0  0  0  0  0
   37.5570   24.2050   42.0310 C   0  0  0  0  0  0  0  0  0  0  0  0
   38.4010   23.4550   41.0780 C   0  0  0  0  0  0  0  0  0  0  0  0
   37.7170   23.1880   39.7590 C   0  0  0  0  0  0  0  0  0  0  0  0
   36.8980   24.3420   39.2620 C   0  0  0  0  0  0  0  0  0  0  0  0
   37.1940   25.6350   39.9840 C   0  0  1  0  0  0  0  0  0  0  0  0
   35.9420   25.4970   41.6960 H   0  0  0  0  0  0  0  0  0  0  0  0
   36.7630   23.5320   42.4090 H   0  0  0  0  0  0  0  0  0  0  0  0
   38.1700   24.4660   42.9160 H   0  0  0  0  0  0  0  0  0  0  0  0
   39.3580   23.9860   40.8320 H   0  0  0  0  0  0  0  0  0  0  0  0
   38.7140   22.4860   41.5080 H   0  0  0  0  0  0  0  0  0  0  0  0
   37.0230   22.3290   39.9190 H   0  0  0  0  0  0  0  0  0  0  0  0
   38.4920   22.8560   39.0400 H   0  0  0  0  0  0  0  0  0  0  0  0
   37.1230   24.4780   38.1860 H   0  0  0  0  0  0  0  0  0  0  0  0
   35.8040   24.1480   39.3790 H   0  0  0  0  0  0  0  0  0  0  0  0
   38.1720   25.9650   39.6080 H   0  0  0  0  0  0  0  0  0  0  0  0
   37.5850   26.6810   42.1440 C   0  0  0  0  0  0  0  0  0  0  0  0
   36.7190   27.1970   43.0930 C   0  0  0  0  0  0  0  0  0  0  0  0
   37.0930   28.3280   43.8380 C   0  0  0  0  0  0  0  0  0  0  0  0
   38.3570   28.8520   43.5410 N   0  0  0  0  0  0  0  0  0  0  0  0
   39.1630   28.3110   42.6060 C   0  0  0  0  0  0  0  0  0  0  0  0
   38.7620   27.2270   41.9170 N   0  0  0  0  0  0  0  0  0  0  0  0
   35.7310   26.9580   43.4570 H   0  0  0  0  0  0  0  0  0  0  0  0
   36.5850   28.8660   44.5960 H   0  0  0  0  0  0  0  0  0  0  0  0
   40.1270   28.7890   42.4450 H   0  0  0  0  0  0  0  0  0  0  0  0
   35.4870   28.9990   39.9860 C   0  0  0  0  0  0  0  0  0  0  0  0
   34.7940   28.3730   40.5850 H   0  0  0  0  0  0  0  0  0  0  0  0
   34.9050   29.3740   39.1200 H   0  0  0  0  0  0  0  0  0  0  0  0
   35.9990   30.1160   40.8560 C   0  0  0  0  0  0  0  0  0  0  0  0
   36.3280   29.7830   41.8400 H   0  0  0  0  0  0  0  0  0  0  0  0
   35.1950   30.8610   40.9980 H   0  0  0  0  0  0  0  0  0  0  0  0
   37.0800   30.8040   40.1020 C   0  0  0  0  0  0  0  0  0  0  0  0
   36.8470   31.2150   38.8070 C   0  0  0  0  0  0  0  0  0  0  0  0
   35.8860   31.0320   38.3560 H   0  0  0  0  0  0  0  0  0  0  0  0
   37.8650   31.8510   38.1280 C   0  0  0  0  0  0  0  0  0  0  0  0
   37.6100   32.1460   37.1120 H   0  0  0  0  0  0  0  0  0  0  0  0
   39.1170   32.1180   38.6410 C   0  0  0  0  0  0  0  0  0  0  0  0
   39.3000   31.6940   39.9250 C   0  0  0  0  0  0  0  0  0  0  0  0
   38.3250   31.0600   40.6380 C   0  0  0  0  0  0  0  0  0  0  0  0
   38.5150   30.7380   41.6620 H   0  0  0  0  0  0  0  0  0  0  0  0
   40.8770   31.9830   40.6960 S   0  0  0  0  0  0  0  0  0  0  0  0
   41.8900   32.8190   39.4900 C   0  0  0  0  0  0  0  0  0  0  0  0
   43.1550   33.1660   39.8100 C   0  0  0  0  0  0  0  0  0  0  0  0
   43.5350   32.9230   40.8100 H   0  0  0  0  0  0  0  0  0  0  0  0
   43.9930   33.8120   38.9290 C   0  0  0  0  0  0  0  0  0  0  0  0
   45.0020   34.1060   39.1370 H   0  0  0  0  0  0  0  0  0  0  0  0
   43.4860   34.1050   37.6760 C   0  0  0  0  0  0  0  0  0  0  0  0
   44.1030   34.6060   36.9650 H   0  0  0  0  0  0  0  0  0  0  0  0
   42.1830   33.7320   37.3940 C   0  0  0  0  0  0  0  0  0  0  0  0
   41.8530   33.9960   36.3860 H   0  0  0  0  0  0  0  0  0  0  0  0
   41.3310   33.0830   38.2630 C   0  0  0  0  0  0  0  0  0  0  0  0
   40.0330   32.7730   37.8160 N   0  0  0  0  0  0  0  0  0  0  0  0
   39.7610   33.0430   36.8480 H   0  0  0  0  0  0  0  0  0  0  0  0
  1  4  1  1  0  0  0
  1 13  1  0  0  0  0
  2  3  1  0  0  0  0
  2  1  1  0  0  0  0
  3  1  1  0  0  0  0
  3  7  1  1  0  0  0
  3 33  1  0  0  0  0
  5  2  1  0  0  0  0
  6  2  1  0  0  0  0
  8 14  1  1  0  0  0
  8  9  1  0  0  0  0
  8 24  1  0  0  0  0
  9 15  1  0  0  0  0
  9 16  1  0  0  0  0
 10 18  1  0  0  0  0
 10  9  1  0  0  0  0
 11 19  1  0  0  0  0
 11 10  1  0  0  0  0
 12 22  1  0  0  0  0
 12 11  1  0  0  0  0
 12 13  1  0  0  0  0
 13 23  1  6  0  0  0
 13  8  1  0  0  0  0
 17 10  1  0  0  0  0
 20 11  1  0  0  0  0
 21 12  1  0  0  0  0
 24 25  1  0  0  0  0
 25 30  1  0  0  0  0
 25 26  2  0  0  0  0
 26 31  1  0  0  0  0
 27 26  1  0  0  0  0
 28 27  2  0  0  0  0
 29 24  2  0  0  0  0
 29 28  1  0  0  0  0
 32 28  1  0  0  0  0
 33 34  1  0  0  0  0
 33 36  1  0  0  0  0
 35 33  1  0  0  0  0
 36 38  1  0  0  0  0
 36 37  1  0  0  0  0
 39 46  1  0  0  0  0
 39 36  1  0  0  0  0
 40 39  2  0  0  0  0
 41 40  1  0  0  0  0
 42 44  2  0  0  0  0
 42 40  1  0  0  0  0
 43 42  1  0  0  0  0
 44 45  1  0  0  0  0
 45 46  2  0  0  0  0
 45 48  1  0  0  0  0
 46 47  1  0  0  0  0
 49 50  1  0  0  0  0
 49 48  1  0  0  0  0
 50 51  1  0  0  0  0
 52 53  1  0  0  0  0
 52 50  2  0  0  0  0
 54 52  1  0  0  0  0
 55 54  1  0  0  0  0
 56 54  2  0  0  0  0
 56 58  1  0  0  0  0
 57 56  1  0  0  0  0
 58 49  2  0  0  0  0
 59 58  1  0  0  0  0
 59 44  1  0  0  0  0
 60 59  1  0  0  0  0
M  END
>  <minimizedAffinity>
-7.22000027

$$$$

 OpenBabel03242512033D

 60 65  0  0  1  0  0  0  0  0999 V2000
   37.7980   27.9120   41.9760 C   0  0  2  0  0  0  0  0  0  0  0  0
   36.9940   28.7150   42.9830 C   0  0  0  0  0  0  0  0  0  0  0  0
   36.3220   28.0720   41.8420 C   0  0  1  0  0  0  0  0  0  0  0  0
   38.4940   28.5570   41.3900 H   0  0  0  0  0  0  0  0  0  0  0  0
   37.0810   29.8150   43.0120 H   0  0  0  0  0  0  0  0  0  0  0  0
   36.7560   28.2670   43.9760 H   0  0  0  0  0  0  0  0  0  0  0  0
   35.7730   27.1050   41.9690 H   0  0  0  0  0  0  0  0  0  0  0  0
   38.9290   25.9040   41.2480 C   0  0  2  0  0  0  0  0  0  0  0  0
   39.9740   24.8660   41.5350 C   0  0  0  0  0  0  0  0  0  0  0  0
   40.0320   24.5060   42.9660 C   0  0  0  0  0  0  0  0  0  0  0  0
   40.2320   25.6970   43.8730 C   0  0  0  0  0  0  0  0  0  0  0  0
   39.4560   26.9090   43.4530 C   0  0  0  0  0  0  0  0  0  0  0  0
   38.3820   26.6040   42.4360 C   0  0  1  0  0  0  0  0  0  0  0  0
   39.4580   26.6710   40.6040 H   0  0  0  0  0  0  0  0  0  0  0  0
   40.9920   25.1420   41.1950 H   0  0  0  0  0  0  0  0  0  0  0  0
   39.7030   23.9630   40.9540 H   0  0  0  0  0  0  0  0  0  0  0  0
   39.1010   23.9930   43.3250 H   0  0  0  0  0  0  0  0  0  0  0  0
   40.8470   23.7840   43.1580 H   0  0  0  0  0  0  0  0  0  0  0  0
   41.3160   25.9620   43.8300 H   0  0  0  0  0  0  0  0  0  0  0  0
   40.0130   25.3700   44.9090 H   0  0  0  0  0  0  0  0  0  0  0  0
   38.9770   27.3340   44.3570 H   0  0  0  0  0  0  0  0  0  0  0  0
   40.1200   27.6840   43.0000 H   0  0  0  0  0  0  0  0  0  0  0  0
   37.5840   26.0940   42.9940 H   0  0  0  0  0  0  0  0  0  0  0  0
   37.8350   25.3950   40.3990 C   0  0  0  0  0  0  0  0  0  0  0  0
   37.0640   24.4310   41.0260 C   0  0  0  0  0  0  0  0  0  0  0  0
   35.9790   23.8520   40.3450 C   0  0  0  0  0  0  0  0  0  0  0  0
   35.7680   24.3210   39.0420 N   0  0  0  0  0  0  0  0  0  0  0  0
   36.5500   25.2630   38.4770 C   0  0  0  0  0  0  0  0  0  0  0  0
   37.5780   25.7880   39.1690 N   0  0  0  0  0  0  0  0  0  0  0  0
   37.0630   23.9380   41.9870 H   0  0  0  0  0  0  0  0  0  0  0  0
   35.2810   23.1140   40.6410 H   0  0  0  0  0  0  0  0  0  0  0  0
   36.3080   25.5640   37.4600 H   0  0  0  0  0  0  0  0  0  0  0  0
   35.9350   28.8000   40.5870 C   0  0  0  0  0  0  0  0  0  0  0  0
   34.9410   28.4220   40.2700 H   0  0  0  0  0  0  0  0  0  0  0  0
   36.6500   28.5150   39.7890 H   0  0  0  0  0  0  0  0  0  0  0  0
   35.8470   30.2930   40.7640 C   0  0  0  0  0  0  0  0  0  0  0  0
   35.8370   30.6050   41.8080 H   0  0  0  0  0  0  0  0  0  0  0  0
   34.9190   30.6590   40.2890 H   0  0  0  0  0  0  0  0  0  0  0  0
   36.9730   30.8970   40.0050 C   0  0  0  0  0  0  0  0  0  0  0  0
   36.8570   31.0660   38.6410 C   0  0  0  0  0  0  0  0  0  0  0  0
   35.9530   30.7590   38.1420 H   0  0  0  0  0  0  0  0  0  0  0  0
   37.9150   31.6290   37.9590 C   0  0  0  0  0  0  0  0  0  0  0  0
   37.7530   31.7310   36.8880 H   0  0  0  0  0  0  0  0  0  0  0  0
   39.0990   32.0440   38.5310 C   0  0  0  0  0  0  0  0  0  0  0  0
   39.1670   31.8580   39.8810 C   0  0  0  0  0  0  0  0  0  0  0  0
   38.1480   31.3060   40.6010 C   0  0  0  0  0  0  0  0  0  0  0  0
   38.2460   31.1740   41.6780 H   0  0  0  0  0  0  0  0  0  0  0  0
   40.6480   32.3560   40.7310 S   0  0  0  0  0  0  0  0  0  0  0  0
   41.7460   33.0250   39.4960 C   0  0  0  0  0  0  0  0  0  0  0  0
   42.9600   33.4860   39.8650 C   0  0  0  0  0  0  0  0  0  0  0  0
   43.2460   33.4390   40.9240 H   0  0  0  0  0  0  0  0  0  0  0  0
   43.8580   34.0150   38.9660 C   0  0  0  0  0  0  0  0  0  0  0  0
   44.8310   34.3920   39.2120 H   0  0  0  0  0  0  0  0  0  0  0  0
   43.4700   34.0610   37.6400 C   0  0  0  0  0  0  0  0  0  0  0  0
   44.1370   34.4640   36.9130 H   0  0  0  0  0  0  0  0  0  0  0  0
   42.2160   33.5780   37.3090 C   0  0  0  0  0  0  0  0  0  0  0  0
   41.9800   33.6470   36.2430 H   0  0  0  0  0  0  0  0  0  0  0  0
   41.3050   33.0440   38.1950 C   0  0  0  0  0  0  0  0  0  0  0  0
   40.0690   32.5950   37.6920 N   0  0  0  0  0  0  0  0  0  0  0  0
   39.8860   32.6800   36.6700 H   0  0  0  0  0  0  0  0  0  0  0  0
  1  4  1  6  0  0  0
  1 13  1  0  0  0  0
  1  2  1  0  0  0  0
  2  5  1  0  0  0  0
  2  6  1  0  0  0  0
  3  7  1  1  0  0  0
  3  1  1  0  0  0  0
  3  2  1  0  0  0  0
  8 14  1  6  0  0  0
  8  9  1  0  0  0  0
  8 13  1  0  0  0  0
  9 10  1  0  0  0  0
 10 18  1  0  0  0  0
 10 17  1  0  0  0  0
 10 11  1  0  0  0  0
 11 20  1  0  0  0  0
 12 11  1  0  0  0  0
 12 21  1  0  0  0  0
 13 23  1  1  0  0  0
 13 12  1  0  0  0  0
 15  9  1  0  0  0  0
 16  9  1  0  0  0  0
 19 11  1  0  0  0  0
 22 12  1  0  0  0  0
 24 25  1  0  0  0  0
 24  8  1  0  0  0  0
 25 30  1  0  0  0  0
 26 31  1  0  0  0  0
 26 25  2  0  0  0  0
 27 26  1  0  0  0  0
 28 27  2  0  0  0  0
 28 29  1  0  0  0  0
 29 24  2  0  0  0  0
 32 28  1  0  0  0  0
 33 36  1  0  0  0  0
 33  3  1  0  0  0  0
 34 33  1  0  0  0  0
 35 33  1  0  0  0  0
 36 37  1  0  0  0  0
 38 36  1  0  0  0  0
 39 46  1  0  0  0  0
 39 36  1  0  0  0  0
 40 39  2  0  0  0  0
 41 40  1  0  0  0  0
 42 44  2  0  0  0  0
 42 40  1  0  0  0  0
 43 42  1  0  0  0  0
 44 45  1  0  0  0  0
 45 46  2  0  0  0  0
 45 48  1  0  0  0  0
 46 47  1  0  0  0  0
 49 50  1  0  0  0  0
 49 48  1  0  0  0  0
 50 51  1  0  0  0  0
 52 53  1  0  0  0  0
 52 50  2  0  0  0  0
 54 52  1  0  0  0  0
 55 54  1  0  0  0  0
 56 54  2  0  0  0  0
 56 58  1  0  0  0  0
 57 56  1  0  0  0  0
 58 49  2  0  0  0  0
 59 58  1  0  0  0  0
 59 44  1  0  0  0  0
 60 59  1  0  0  0  0
M  END
>  <minimizedAffinity>
-7.19728279

$$$$

 OpenBabel03242512033D

 60 65  0  0  1  0  0  0  0  0999 V2000
   36.7720   30.2290   38.2330 C   0  0  2  0  0  0  0  0  0  0  0  0
   37.4570   31.2430   37.3340 C   0  0  0  0  0  0  0  0  0  0  0  0
   37.9710   30.9870   38.6900 C   0  0  1  0  0  0  0  0  0  0  0  0
   35.7470   30.5570   38.5260 H   0  0  0  0  0  0  0  0  0  0  0  0
   36.9680   32.2080   37.1130 H   0  0  0  0  0  0  0  0  0  0  0  0
   38.1180   30.8870   36.5110 H   0  0  0  0  0  0  0  0  0  0  0  0
   38.8590   30.3270   38.8520 H   0  0  0  0  0  0  0  0  0  0  0  0
   36.2490   27.9750   38.9300 C   0  0  2  0  0  0  0  0  0  0  0  0
   35.8100   26.5970   38.5300 C   0  0  0  0  0  0  0  0  0  0  0  0
   36.3860   26.1750   37.2360 C   0  0  0  0  0  0  0  0  0  0  0  0
   36.1050   27.1470   36.1140 C   0  0  0  0  0  0  0  0  0  0  0  0
   36.2030   28.5850   36.5270 C   0  0  0  0  0  0  0  0  0  0  0  0
   36.8890   28.7760   37.8590 C   0  0  1  0  0  0  0  0  0  0  0  0
   35.2940   28.5010   39.2360 H   0  0  0  0  0  0  0  0  0  0  0  0
   34.7110   26.4650   38.4910 H   0  0  0  0  0  0  0  0  0  0  0  0
   36.1630   25.9020   39.3170 H   0  0  0  0  0  0  0  0  0  0  0  0
   37.5000   26.0550   37.2730 H   0  0  0  0  0  0  0  0  0  0  0  0
   36.0010   25.1820   36.9390 H   0  0  0  0  0  0  0  0  0  0  0  0
   35.0560   26.9650   35.7800 H   0  0  0  0  0  0  0  0  0  0  0  0
   36.7710   26.8840   35.2700 H   0  0  0  0  0  0  0  0  0  0  0  0
   36.7820   29.1220   35.7500 H   0  0  0  0  0  0  0  0  0  0  0  0
   35.1940   29.0560   36.6120 H   0  0  0  0  0  0  0  0  0  0  0  0
   37.9560   28.5960   37.6680 H   0  0  0  0  0  0  0  0  0  0  0  0
   37.0830   27.9780   40.1470 C   0  0  0  0  0  0  0  0  0  0  0  0
   36.3750   28.3000   41.2920 C   0  0  0  0  0  0  0  0  0  0  0  0
   37.0330   28.3400   42.5330 C   0  0  0  0  0  0  0  0  0  0  0  0
   38.4000   28.0390   42.4980 N   0  0  0  0  0  0  0  0  0  0  0  0
   39.0440   27.7300   41.3540 C   0  0  0  0  0  0  0  0  0  0  0  0
   38.3710   27.7040   40.1900 N   0  0  0  0  0  0  0  0  0  0  0  0
   35.3550   28.5670   41.5270 H   0  0  0  0  0  0  0  0  0  0  0  0
   36.6790   28.5610   43.5060 H   0  0  0  0  0  0  0  0  0  0  0  0
   40.1060   27.5110   41.4270 H   0  0  0  0  0  0  0  0  0  0  0  0
   37.6770   31.8680   39.8710 C   0  0  0  0  0  0  0  0  0  0  0  0
   38.4810   31.7080   40.6190 H   0  0  0  0  0  0  0  0  0  0  0  0
   36.7360   31.5150   40.3380 H   0  0  0  0  0  0  0  0  0  0  0  0
   37.6280   33.3330   39.5260 C   0  0  0  0  0  0  0  0  0  0  0  0
   36.7190   33.8280   39.8700 H   0  0  0  0  0  0  0  0  0  0  0  0
   37.6860   33.4490   38.4300 H   0  0  0  0  0  0  0  0  0  0  0  0
   38.8560   33.9600   40.0810 C   0  0  0  0  0  0  0  0  0  0  0  0
   38.8960   35.3270   40.2610 C   0  0  0  0  0  0  0  0  0  0  0  0
   38.0390   35.9230   39.9990 H   0  0  0  0  0  0  0  0  0  0  0  0
   40.0460   35.8860   40.7780 C   0  0  0  0  0  0  0  0  0  0  0  0
   40.0060   36.9670   40.8930 H   0  0  0  0  0  0  0  0  0  0  0  0
   41.1790   35.1850   41.1350 C   0  0  0  0  0  0  0  0  0  0  0  0
   41.0920   33.8370   40.9390 C   0  0  0  0  0  0  0  0  0  0  0  0
   39.9770   33.2370   40.4320 C   0  0  0  0  0  0  0  0  0  0  0  0
   39.9510   32.1570   40.2900 H   0  0  0  0  0  0  0  0  0  0  0  0
   42.4930   32.8270   41.3640 S   0  0  0  0  0  0  0  0  0  0  0  0
   43.7480   33.9300   41.9860 C   0  0  0  0  0  0  0  0  0  0  0  0
   44.9350   33.4270   42.3890 C   0  0  0  0  0  0  0  0  0  0  0  0
   45.1020   32.3440   42.3240 H   0  0  0  0  0  0  0  0  0  0  0  0
   45.9490   34.2180   42.8800 C   0  0  0  0  0  0  0  0  0  0  0  0
   46.9050   33.8650   43.2110 H   0  0  0  0  0  0  0  0  0  0  0  0
   45.7090   35.5780   42.9510 C   0  0  0  0  0  0  0  0  0  0  0  0
   46.4690   36.2250   43.3260 H   0  0  0  0  0  0  0  0  0  0  0  0
   44.4780   36.0480   42.5280 C   0  0  0  0  0  0  0  0  0  0  0  0
   44.3620   37.1320   42.6130 H   0  0  0  0  0  0  0  0  0  0  0  0
   43.4520   35.2700   42.0330 C   0  0  0  0  0  0  0  0  0  0  0  0
   42.2590   35.9080   41.6440 N   0  0  0  0  0  0  0  0  0  0  0  0
   42.1920   36.9430   41.7430 H   0  0  0  0  0  0  0  0  0  0  0  0
  1  4  1  1  0  0  0
  1  3  1  0  0  0  0
  2  1  1  0  0  0  0
  2  3  1  0  0  0  0
  3  7  1  1  0  0  0
  3 33  1  0  0  0  0
  5  2  1  0  0  0  0
  6  2  1  0  0  0  0
  8 14  1  1  0  0  0
  8 24  1  0  0  0  0
  9  8  1  0  0  0  0
  9 16  1  0  0  0  0
 10 17  1  0  0  0  0
 10  9  1  0  0  0  0
 11 12  1  0  0  0  0
 11 10  1  0  0  0  0
 12 22  1  0  0  0  0
 12 13  1  0  0  0  0
 13 23  1  6  0  0  0
 13  1  1  0  0  0  0
 13  8  1  0  0  0  0
 15  9  1  0  0  0  0
 18 10  1  0  0  0  0
 19 11  1  0  0  0  0
 20 11  1  0  0  0  0
 21 12  1  0  0  0  0
 24 29  2  0  0  0  0
 24 25  1  0  0  0  0
 25 30  1  0  0  0  0
 25 26  2  0  0  0  0
 26 31  1  0  0  0  0
 27 26  1  0  0  0  0
 28 32  1  0  0  0  0
 28 27  2  0  0  0  0
 29 28  1  0  0  0  0
 33 35  1  0  0  0  0
 33 34  1  0  0  0  0
 36 37  1  0  0  0  0
 36 33  1  0  0  0  0
 36 39  1  0  0  0  0
 38 36  1  0  0  0  0
 39 40  2  0  0  0  0
 39 46  1  0  0  0  0
 40 42  1  0  0  0  0
 41 40  1  0  0  0  0
 42 43  1  0  0  0  0
 42 44  2  0  0  0  0
 44 59  1  0  0  0  0
 45 44  1  0  0  0  0
 45 48  1  0  0  0  0
 46 45  2  0  0  0  0
 47 46  1  0  0  0  0
 48 49  1  0  0  0  0
 49 58  2  0  0  0  0
 49 50  1  0  0  0  0
 50 52  2  0  0  0  0
 51 50  1  0  0  0  0
 52 54  1  0  0  0  0
 52 53  1  0  0  0  0
 54 55  1  0  0  0  0
 56 57  1  0  0  0  0
 56 54  2  0  0  0  0
 58 56  1  0  0  0  0
 59 60  1  0  0  0  0
 59 58  1  0  0  0  0
M  END
>  <minimizedAffinity>
-7.05885172

$$$$

 OpenBabel03242512033D

 60 65  0  0  1  0  0  0  0  0999 V2000
   37.7120   30.5280   41.0100 C   0  0  2  0  0  0  0  0  0  0  0  0
   36.2950   30.9300   40.6380 C   0  0  0  0  0  0  0  0  0  0  0  0
   37.3070   30.7190   39.5890 C   0  0  1  0  0  0  0  0  0  0  0  0
   38.2430   31.3390   41.5620 H   0  0  0  0  0  0  0  0  0  0  0  0
   35.9360   31.9520   40.8480 H   0  0  0  0  0  0  0  0  0  0  0  0
   35.4860   30.1650   40.6640 H   0  0  0  0  0  0  0  0  0  0  0  0
   37.3360   29.7660   39.0030 H   0  0  0  0  0  0  0  0  0  0  0  0
   39.3700   28.8350   41.4820 C   0  0  2  0  0  0  0  0  0  0  0  0
   39.8520   27.7610   42.4130 C   0  0  0  0  0  0  0  0  0  0  0  0
   38.7420   26.9890   43.0060 C   0  0  0  0  0  0  0  0  0  0  0  0
   37.7220   27.8540   43.7080 C   0  0  0  0  0  0  0  0  0  0  0  0
   37.4220   29.1340   42.9870 C   0  0  0  0  0  0  0  0  0  0  0  0
   37.9220   29.1450   41.5610 C   0  0  1  0  0  0  0  0  0  0  0  0
   39.9430   29.7610   41.7930 H   0  0  0  0  0  0  0  0  0  0  0  0
   40.5060   28.1290   43.2290 H   0  0  0  0  0  0  0  0  0  0  0  0
   40.4830   27.0730   41.8170 H   0  0  0  0  0  0  0  0  0  0  0  0
   38.1730   26.3900   42.2470 H   0  0  0  0  0  0  0  0  0  0  0  0
   39.1220   26.2450   43.7300 H   0  0  0  0  0  0  0  0  0  0  0  0
   38.1500   28.1230   44.7030 H   0  0  0  0  0  0  0  0  0  0  0  0
   36.8250   27.2310   43.8920 H   0  0  0  0  0  0  0  0  0  0  0  0
   36.3220   29.2680   42.9770 H   0  0  0  0  0  0  0  0  0  0  0  0
   37.8860   30.0110   43.4990 H   0  0  0  0  0  0  0  0  0  0  0  0
   37.2380   28.4880   41.0050 H   0  0  0  0  0  0  0  0  0  0  0  0
   39.7730   28.6000   40.0820 C   0  0  0  0  0  0  0  0  0  0  0  0
   39.0900   27.5510   39.4890 C   0  0  0  0  0  0  0  0  0  0  0  0
   39.3610   27.2080   38.1530 C   0  0  0  0  0  0  0  0  0  0  0  0
   40.3350   27.9880   37.5180 N   0  0  0  0  0  0  0  0  0  0  0  0
   40.9700   29.0010   38.1420 C   0  0  0  0  0  0  0  0  0  0  0  0
   40.6770   29.2920   39.4210 N   0  0  0  0  0  0  0  0  0  0  0  0
   38.3370   26.8400   39.7950 H   0  0  0  0  0  0  0  0  0  0  0  0
   38.9570   26.4540   37.5290 H   0  0  0  0  0  0  0  0  0  0  0  0
   41.7110   29.5500   37.5660 H   0  0  0  0  0  0  0  0  0  0  0  0
   38.0570   31.8350   38.9220 C   0  0  0  0  0  0  0  0  0  0  0  0
   37.8510   31.7770   37.8330 H   0  0  0  0  0  0  0  0  0  0  0  0
   39.1420   31.6450   39.0490 H   0  0  0  0  0  0  0  0  0  0  0  0
   37.6580   33.2020   39.4120 C   0  0  0  0  0  0  0  0  0  0  0  0
   36.8290   33.1830   40.1190 H   0  0  0  0  0  0  0  0  0  0  0  0
   37.3590   33.8230   38.5500 H   0  0  0  0  0  0  0  0  0  0  0  0
   38.8730   33.8390   39.9850 C   0  0  0  0  0  0  0  0  0  0  0  0
   38.8910   35.2020   40.1890 C   0  0  0  0  0  0  0  0  0  0  0  0
   38.0250   35.7900   39.9310 H   0  0  0  0  0  0  0  0  0  0  0  0
   40.0280   35.7710   40.7230 C   0  0  0  0  0  0  0  0  0  0  0  0
   39.9700   36.8490   40.8560 H   0  0  0  0  0  0  0  0  0  0  0  0
   41.1700   35.0820   41.0760 C   0  0  0  0  0  0  0  0  0  0  0  0
   41.1050   33.7360   40.8570 C   0  0  0  0  0  0  0  0  0  0  0  0
   40.0030   33.1280   40.3320 C   0  0  0  0  0  0  0  0  0  0  0  0
   39.9950   32.0500   40.1720 H   0  0  0  0  0  0  0  0  0  0  0  0
   42.5190   32.7410   41.2740 S   0  0  0  0  0  0  0  0  0  0  0  0
   43.7530   33.8530   41.9240 C   0  0  0  0  0  0  0  0  0  0  0  0
   44.9440   33.3620   42.3260 C   0  0  0  0  0  0  0  0  0  0  0  0
   45.1290   32.2830   42.2440 H   0  0  0  0  0  0  0  0  0  0  0  0
   45.9420   34.1610   42.8370 C   0  0  0  0  0  0  0  0  0  0  0  0
   46.9020   33.8170   43.1680 H   0  0  0  0  0  0  0  0  0  0  0  0
   45.6810   35.5150   42.9290 C   0  0  0  0  0  0  0  0  0  0  0  0
   46.4280   36.1680   43.3200 H   0  0  0  0  0  0  0  0  0  0  0  0
   44.4450   35.9720   42.5050 C   0  0  0  0  0  0  0  0  0  0  0  0
   44.3110   37.0530   42.6080 H   0  0  0  0  0  0  0  0  0  0  0  0
   43.4350   35.1880   41.9910 C   0  0  0  0  0  0  0  0  0  0  0  0
   42.2340   35.8130   41.6050 N   0  0  0  0  0  0  0  0  0  0  0  0
   42.1510   36.8450   41.7200 H   0  0  0  0  0  0  0  0  0  0  0  0
  1 13  1  0  0  0  0
  1  4  1  1  0  0  0
  2  6  1  0  0  0  0
  2  5  1  0  0  0  0
  2  1  1  0  0  0  0
  3  7  1  6  0  0  0
  3  2  1  0  0  0  0
  3  1  1  0  0  0  0
  8 13  1  0  0  0  0
  8 14  1  1  0  0  0
  8  9  1  0  0  0  0
  9 10  1  0  0  0  0
  9 15  1  0  0  0  0
 10 11  1  0  0  0  0
 10 18  1  0  0  0  0
 11 20  1  0  0  0  0
 11 19  1  0  0  0  0
 12 22  1  0  0  0  0
 12 11  1  0  0  0  0
 13 23  1  6  0  0  0
 13 12  1  0  0  0  0
 16  9  1  0  0  0  0
 17 10  1  0  0  0  0
 21 12  1  0  0  0  0
 24  8  1  0  0  0  0
 25 30  1  0  0  0  0
 25 24  1  0  0  0  0
 26 25  2  0  0  0  0
 27 28  2  0  0  0  0
 27 26  1  0  0  0  0
 28 29  1  0  0  0  0
 29 24  2  0  0  0  0
 31 26  1  0  0  0  0
 32 28  1  0  0  0  0
 33 35  1  0  0  0  0
 33 36  1  0  0  0  0
 33  3  1  0  0  0  0
 34 33  1  0  0  0  0
 36 39  1  0  0  0  0
 36 37  1  0  0  0  0
 38 36  1  0  0  0  0
 39 40  2  0  0  0  0
 39 46  1  0  0  0  0
 40 42  1  0  0  0  0
 41 40  1  0  0  0  0
 42 43  1  0  0  0  0
 42 44  2  0  0  0  0
 44 59  1  0  0  0  0
 45 44  1  0  0  0  0
 45 48  1  0  0  0  0
 46 45  2  0  0  0  0
 47 46  1  0  0  0  0
 48 49  1  0  0  0  0
 49 58  2  0  0  0  0
 49 50  1  0  0  0  0
 50 52  2  0  0  0  0
 51 50  1  0  0  0  0
 52 54  1  0  0  0  0
 52 53  1  0  0  0  0
 54 55  1  0  0  0  0
 56 57  1  0  0  0  0
 56 54  2  0  0  0  0
 58 56  1  0  0  0  0
 59 60  1  0  0  0  0
 59 58  1  0  0  0  0
M  END
>  <minimizedAffinity>
-7.02160072

$$$$

 OpenBabel03242512033D

 60 65  0  0  1  0  0  0  0  0999 V2000
   37.0940   26.8490   41.4390 C   0  0  2  0  0  0  0  0  0  0  0  0
   36.6010   26.3970   40.0760 C   0  0  0  0  0  0  0  0  0  0  0  0
   37.0510   27.7840   40.2800 C   0  0  1  0  0  0  0  0  0  0  0  0
   36.2770   26.8490   42.1990 H   0  0  0  0  0  0  0  0  0  0  0  0
   35.5290   26.1920   39.9140 H   0  0  0  0  0  0  0  0  0  0  0  0
   37.2690   25.7810   39.4300 H   0  0  0  0  0  0  0  0  0  0  0  0
   38.0710   28.1110   39.9540 H   0  0  0  0  0  0  0  0  0  0  0  0
   38.8310   27.0910   43.1030 C   0  0  2  0  0  0  0  0  0  0  0  0
   39.8090   26.4150   44.0180 C   0  0  0  0  0  0  0  0  0  0  0  0
   40.4160   25.2150   43.4070 C   0  0  0  0  0  0  0  0  0  0  0  0
   39.3960   24.2140   42.9190 C   0  0  0  0  0  0  0  0  0  0  0  0
   38.2000   24.8430   42.2690 C   0  0  0  0  0  0  0  0  0  0  0  0
   38.4080   26.2990   41.9230 C   0  0  1  0  0  0  0  0  0  0  0  0
   37.9170   27.2740   43.7470 H   0  0  0  0  0  0  0  0  0  0  0  0
   39.3880   26.1380   45.0050 H   0  0  0  0  0  0  0  0  0  0  0  0
   40.6120   27.1470   44.2340 H   0  0  0  0  0  0  0  0  0  0  0  0
   41.0640   25.4570   42.5240 H   0  0  0  0  0  0  0  0  0  0  0  0
   41.0870   24.7050   44.1220 H   0  0  0  0  0  0  0  0  0  0  0  0
   39.0350   23.6530   43.8130 H   0  0  0  0  0  0  0  0  0  0  0  0
   39.9230   23.4900   42.2660 H   0  0  0  0  0  0  0  0  0  0  0  0
   37.9890   24.2840   41.3350 H   0  0  0  0  0  0  0  0  0  0  0  0
   37.3010   24.7920   42.9290 H   0  0  0  0  0  0  0  0  0  0  0  0
   39.0780   26.3010   41.0520 H   0  0  0  0  0  0  0  0  0  0  0  0
   39.2710   28.4380   42.6910 C   0  0  0  0  0  0  0  0  0  0  0  0
   40.3940   28.4180   41.8800 C   0  0  0  0  0  0  0  0  0  0  0  0
   40.9310   29.6250   41.4010 C   0  0  0  0  0  0  0  0  0  0  0  0
   40.2560   30.7840   41.8040 N   0  0  0  0  0  0  0  0  0  0  0  0
   39.1650   30.7490   42.5950 C   0  0  0  0  0  0  0  0  0  0  0  0
   38.6870   29.5690   43.0290 N   0  0  0  0  0  0  0  0  0  0  0  0
   41.0480   27.6610   41.4750 H   0  0  0  0  0  0  0  0  0  0  0  0
   41.7670   29.8220   40.7820 H   0  0  0  0  0  0  0  0  0  0  0  0
   38.7090   31.7010   42.8540 H   0  0  0  0  0  0  0  0  0  0  0  0
   36.1150   28.9370   40.5050 C   0  0  0  0  0  0  0  0  0  0  0  0
   36.5570   29.5800   41.2940 H   0  0  0  0  0  0  0  0  0  0  0  0
   35.1680   28.5350   40.9190 H   0  0  0  0  0  0  0  0  0  0  0  0
   35.8890   29.7740   39.2740 C   0  0  0  0  0  0  0  0  0  0  0  0
   34.9210   30.2750   39.2630 H   0  0  0  0  0  0  0  0  0  0  0  0
   35.9500   29.1280   38.3810 H   0  0  0  0  0  0  0  0  0  0  0  0
   37.0210   30.7320   39.1770 C   0  0  0  0  0  0  0  0  0  0  0  0
   36.8750   32.0070   39.6800 C   0  0  0  0  0  0  0  0  0  0  0  0
   35.9430   32.2950   40.1380 H   0  0  0  0  0  0  0  0  0  0  0  0
   37.9390   32.8790   39.5790 C   0  0  0  0  0  0  0  0  0  0  0  0
   37.7520   33.8650   39.9970 H   0  0  0  0  0  0  0  0  0  0  0  0
   39.1580   32.5800   39.0080 C   0  0  0  0  0  0  0  0  0  0  0  0
   39.2560   31.3080   38.5240 C   0  0  0  0  0  0  0  0  0  0  0  0
   38.2330   30.4090   38.6010 C   0  0  0  0  0  0  0  0  0  0  0  0
   38.3550   29.4030   38.2010 H   0  0  0  0  0  0  0  0  0  0  0  0
   40.7850   30.8050   37.7640 S   0  0  0  0  0  0  0  0  0  0  0  0
   41.8780   32.2120   37.8390 C   0  0  0  0  0  0  0  0  0  0  0  0
   43.1240   32.1120   37.3280 C   0  0  0  0  0  0  0  0  0  0  0  0
   43.4380   31.1630   36.8750 H   0  0  0  0  0  0  0  0  0  0  0  0
   44.0210   33.1570   37.3510 C   0  0  0  0  0  0  0  0  0  0  0  0
   45.0180   33.1250   36.9580 H   0  0  0  0  0  0  0  0  0  0  0  0
   43.5980   34.3390   37.9270 C   0  0  0  0  0  0  0  0  0  0  0  0
   44.2630   35.1720   37.9650 H   0  0  0  0  0  0  0  0  0  0  0  0
   42.3130   34.3940   38.4390 C   0  0  0  0  0  0  0  0  0  0  0  0
   42.0490   35.3600   38.8780 H   0  0  0  0  0  0  0  0  0  0  0  0
   41.4010   33.3590   38.4240 C   0  0  0  0  0  0  0  0  0  0  0  0
   40.1300   33.5810   38.9880 N   0  0  0  0  0  0  0  0  0  0  0  0
   39.9230   34.5170   39.3950 H   0  0  0  0  0  0  0  0  0  0  0  0
  1 13  1  0  0  0  0
  1  4  1  1  0  0  0
  2  3  1  0  0  0  0
  2  1  1  0  0  0  0
  3  7  1  6  0  0  0
  3 33  1  0  0  0  0
  3  1  1  0  0  0  0
  5  2  1  0  0  0  0
  6  2  1  0  0  0  0
  8 14  1  1  0  0  0
  8  9  1  0  0  0  0
  9 16  1  0  0  0  0
  9 15  1  0  0  0  0
 10  9  1  0  0  0  0
 10 18  1  0  0  0  0
 11 10  1  0  0  0  0
 11 19  1  0  0  0  0
 12 11  1  0  0  0  0
 12 22  1  0  0  0  0
 13 23  1  6  0  0  0
 13 12  1  0  0  0  0
 13  8  1  0  0  0  0
 17 10  1  0  0  0  0
 20 11  1  0  0  0  0
 21 12  1  0  0  0  0
 24 29  1  0  0  0  0
 24  8  1  0  0  0  0
 25 24  2  0  0  0  0
 26 27  2  0  0  0  0
 26 25  1  0  0  0  0
 27 28  1  0  0  0  0
 28 32  1  0  0  0  0
 28 29  2  0  0  0  0
 30 25  1  0  0  0  0
 31 26  1  0  0  0  0
 33 35  1  0  0  0  0
 33 34  1  0  0  0  0
 36 33  1  0  0  0  0
 37 36  1  0  0  0  0
 38 36  1  0  0  0  0
 39 36  1  0  0  0  0
 39 40  1  0  0  0  0
 40 41  1  0  0  0  0
 42 40  2  0  0  0  0
 42 43  1  0  0  0  0
 44 42  1  0  0  0  0
 45 46  1  0  0  0  0
 45 44  2  0  0  0  0
 46 39  2  0  0  0  0
 47 46  1  0  0  0  0
 48 49  1  0  0  0  0
 48 45  1  0  0  0  0
 49 58  1  0  0  0  0
 50 52  1  0  0  0  0
 50 49  2  0  0  0  0
 51 50  1  0  0  0  0
 52 54  2  0  0  0  0
 53 52  1  0  0  0  0
 54 55  1  0  0  0  0
 54 56  1  0  0  0  0
 56 57  1  0  0  0  0
 58 56  2  0  0  0  0
 58 59  1  0  0  0  0
 59 44  1  0  0  0  0
 59 60  1  0  0  0  0
M  END
>  <minimizedAffinity>
-6.96637678

$$$$

 OpenBabel03242512033D

 60 65  0  0  1  0  0  0  0  0999 V2000
   37.1060   29.3640   38.9670 C   0  0  2  0  0  0  0  0  0  0  0  0
   36.1870   29.3400   37.7590 C   0  0  0  0  0  0  0  0  0  0  0  0
   37.6000   29.7260   37.6090 C   0  0  1  0  0  0  0  0  0  0  0  0
   36.8160   30.1570   39.6960 H   0  0  0  0  0  0  0  0  0  0  0  0
   35.4000   30.1060   37.6450 H   0  0  0  0  0  0  0  0  0  0  0  0
   35.9190   28.3630   37.2940 H   0  0  0  0  0  0  0  0  0  0  0  0
   38.3550   28.9980   37.2190 H   0  0  0  0  0  0  0  0  0  0  0  0
   37.5800   28.2360   41.0520 C   0  0  2  0  0  0  0  0  0  0  0  0
   37.4380   26.9910   41.8770 C   0  0  0  0  0  0  0  0  0  0  0  0
   37.5460   25.7620   41.0660 C   0  0  0  0  0  0  0  0  0  0  0  0
   36.5740   25.7220   39.9100 C   0  0  0  0  0  0  0  0  0  0  0  0
   36.4070   27.0430   39.2210 C   0  0  0  0  0  0  0  0  0  0  0  0
   37.4790   28.0440   39.5840 C   0  0  1  0  0  0  0  0  0  0  0  0
   36.7180   28.8950   41.3770 H   0  0  0  0  0  0  0  0  0  0  0  0
   36.5040   26.9450   42.4700 H   0  0  0  0  0  0  0  0  0  0  0  0
   38.2600   26.9980   42.6200 H   0  0  0  0  0  0  0  0  0  0  0  0
   38.5660   25.6210   40.6200 H   0  0  0  0  0  0  0  0  0  0  0  0
   37.3800   24.8630   41.6880 H   0  0  0  0  0  0  0  0  0  0  0  0
   35.5800   25.4350   40.3290 H   0  0  0  0  0  0  0  0  0  0  0  0
   36.8940   24.9080   39.2310 H   0  0  0  0  0  0  0  0  0  0  0  0
   36.4470   26.8630   38.1290 H   0  0  0  0  0  0  0  0  0  0  0  0
   35.4260   27.5150   39.4710 H   0  0  0  0  0  0  0  0  0  0  0  0
   38.3850   27.7080   39.0600 H   0  0  0  0  0  0  0  0  0  0  0  0
   38.7900   29.0100   41.3890 C   0  0  0  0  0  0  0  0  0  0  0  0
   38.5210   30.1360   42.1500 C   0  0  0  0  0  0  0  0  0  0  0  0
   39.5740   30.9740   42.5550 C   0  0  0  0  0  0  0  0  0  0  0  0
   40.8510   30.5800   42.1350 N   0  0  0  0  0  0  0  0  0  0  0  0
   41.0590   29.4720   41.3940 C   0  0  0  0  0  0  0  0  0  0  0  0
   40.0190   28.7010   41.0310 N   0  0  0  0  0  0  0  0  0  0  0  0
   37.6390   30.6080   42.5560 H   0  0  0  0  0  0  0  0  0  0  0  0
   39.5790   31.8630   43.1280 H   0  0  0  0  0  0  0  0  0  0  0  0
   42.0860   29.2480   41.1160 H   0  0  0  0  0  0  0  0  0  0  0  0
   38.0680   31.1500   37.5280 C   0  0  0  0  0  0  0  0  0  0  0  0
   37.9190   31.4960   36.4850 H   0  0  0  0  0  0  0  0  0  0  0  0
   39.1620   31.1640   37.7120 H   0  0  0  0  0  0  0  0  0  0  0  0
   37.3250   32.0780   38.4530 C   0  0  0  0  0  0  0  0  0  0  0  0
   36.6270   31.5640   39.1130 H   0  0  0  0  0  0  0  0  0  0  0  0
   36.7520   32.8060   37.8500 H   0  0  0  0  0  0  0  0  0  0  0  0
   38.3400   32.8620   39.2040 C   0  0  0  0  0  0  0  0  0  0  0  0
   37.9330   33.9180   39.9920 C   0  0  0  0  0  0  0  0  0  0  0  0
   36.8860   34.1620   40.0550 H   0  0  0  0  0  0  0  0  0  0  0  0
   38.8930   34.6300   40.6800 C   0  0  0  0  0  0  0  0  0  0  0  0
   38.4990   35.4470   41.2810 H   0  0  0  0  0  0  0  0  0  0  0  0
   40.2480   34.3740   40.6480 C   0  0  0  0  0  0  0  0  0  0  0  0
   40.6020   33.3210   39.8550 C   0  0  0  0  0  0  0  0  0  0  0  0
   39.6910   32.5860   39.1550 C   0  0  0  0  0  0  0  0  0  0  0  0
   40.0180   31.7530   38.5340 H   0  0  0  0  0  0  0  0  0  0  0  0
   42.3250   32.8940   39.7340 S   0  0  0  0  0  0  0  0  0  0  0  0
   43.2110   34.0480   40.7640 C   0  0  0  0  0  0  0  0  0  0  0  0
   44.5550   33.9560   40.8620 C   0  0  0  0  0  0  0  0  0  0  0  0
   45.0750   33.1690   40.3010 H   0  0  0  0  0  0  0  0  0  0  0  0
   45.3030   34.8130   41.6380 C   0  0  0  0  0  0  0  0  0  0  0  0
   46.3690   34.7790   41.7450 H   0  0  0  0  0  0  0  0  0  0  0  0
   44.6200   35.7940   42.3320 C   0  0  0  0  0  0  0  0  0  0  0  0
   45.1630   36.4770   42.9440 H   0  0  0  0  0  0  0  0  0  0  0  0
   43.2430   35.8490   42.2020 C   0  0  0  0  0  0  0  0  0  0  0  0
   42.7730   36.6500   42.7790 H   0  0  0  0  0  0  0  0  0  0  0  0
   42.4780   35.0010   41.4300 C   0  0  0  0  0  0  0  0  0  0  0  0
   41.0840   35.1940   41.4070 N   0  0  0  0  0  0  0  0  0  0  0  0
   40.6790   35.9690   41.9720 H   0  0  0  0  0  0  0  0  0  0  0  0
  1 13  1  0  0  0  0
  1  4  1  1  0  0  0
  2  1  1  0  0  0  0
  3  7  1  6  0  0  0
  3  2  1  0  0  0  0
  3  1  1  0  0  0  0
  5  2  1  0  0  0  0
  6  2  1  0  0  0  0
  8 14  1  1  0  0  0
  8 24  1  0  0  0  0
  8  9  1  0  0  0  0
  9 15  1  0  0  0  0
  9 16  1  0  0  0  0
 10 18  1  0  0  0  0
 10  9  1  0  0  0  0
 11 19  1  0  0  0  0
 11 10  1  0  0  0  0
 12 22  1  0  0  0  0
 12 13  1  0  0  0  0
 12 11  1  0  0  0  0
 13 23  1  6  0  0  0
 13  8  1  0  0  0  0
 17 10  1  0  0  0  0
 20 11  1  0  0  0  0
 21 12  1  0  0  0  0
 24 25  1  0  0  0  0
 25 26  2  0  0  0  0
 25 30  1  0  0  0  0
 26 31  1  0  0  0  0
 27 26  1  0  0  0  0
 28 27  2  0  0  0  0
 29 24  2  0  0  0  0
 29 28  1  0  0  0  0
 32 28  1  0  0  0  0
 33  3  1  0  0  0  0
 33 35  1  0  0  0  0
 33 36  1  0  0  0  0
 34 33  1  0  0  0  0
 36 37  1  0  0  0  0
 36 39  1  0  0  0  0
 38 36  1  0  0  0  0
 39 40  1  0  0  0  0
 40 41  1  0  0  0  0
 40 42  2  0  0  0  0
 42 43  1  0  0  0  0
 44 42  1  0  0  0  0
 44 59  1  0  0  0  0
 45 44  2  0  0  0  0
 46 39  2  0  0  0  0
 46 45  1  0  0  0  0
 47 46  1  0  0  0  0
 48 45  1  0  0  0  0
 48 49  1  0  0  0  0
 49 50  2  0  0  0  0
 49 58  1  0  0  0  0
 50 52  1  0  0  0  0
 51 50  1  0  0  0  0
 52 53  1  0  0  0  0
 52 54  2  0  0  0  0
 54 55  1  0  0  0  0
 56 54  1  0  0  0  0
 56 57  1  0  0  0  0
 58 56  2  0  0  0  0
 59 58  1  0  0  0  0
 59 60  1  0  0  0  0
M  END
>  <minimizedAffinity>
-6.81405067

$$$$

 OpenBabel03242512033D

 60 65  0  0  1  0  0  0  0  0999 V2000
   39.1170   26.1310   41.1880 C   0  0  2  0  0  0  0  0  0  0  0  0
   39.5370   24.6740   41.1310 C   0  0  0  0  0  0  0  0  0  0  0  0
   40.5540   25.7380   41.1820 C   0  0  1  0  0  0  0  0  0  0  0  0
   38.6130   26.4570   40.2480 H   0  0  0  0  0  0  0  0  0  0  0  0
   39.4050   24.0950   40.2010 H   0  0  0  0  0  0  0  0  0  0  0  0
   39.4710   24.0490   42.0510 H   0  0  0  0  0  0  0  0  0  0  0  0
   41.0720   25.9920   42.1410 H   0  0  0  0  0  0  0  0  0  0  0  0
   38.9640   27.9920   42.7240 C   0  0  2  0  0  0  0  0  0  0  0  0
   38.0920   28.8300   43.6130 C   0  0  0  0  0  0  0  0  0  0  0  0
   37.0680   28.0300   44.3140 C   0  0  0  0  0  0  0  0  0  0  0  0
   36.2080   27.2120   43.3810 C   0  0  0  0  0  0  0  0  0  0  0  0
   36.9720   26.5940   42.2480 C   0  0  0  0  0  0  0  0  0  0  0  0
   38.4680   26.6200   42.4550 C   0  0  1  0  0  0  0  0  0  0  0  0
   38.9920   28.5520   41.7410 H   0  0  0  0  0  0  0  0  0  0  0  0
   37.5940   29.6720   43.0940 H   0  0  0  0  0  0  0  0  0  0  0  0
   38.7540   29.2990   44.3680 H   0  0  0  0  0  0  0  0  0  0  0  0
   37.5080   27.3060   45.0490 H   0  0  0  0  0  0  0  0  0  0  0  0
   36.4050   28.6800   44.9150 H   0  0  0  0  0  0  0  0  0  0  0  0
   35.4550   27.9060   42.9370 H   0  0  0  0  0  0  0  0  0  0  0  0
   35.6560   26.4740   43.9940 H   0  0  0  0  0  0  0  0  0  0  0  0
   36.6460   25.5390   42.1550 H   0  0  0  0  0  0  0  0  0  0  0  0
   36.7690   27.1190   41.2830 H   0  0  0  0  0  0  0  0  0  0  0  0
   38.6730   25.8550   43.2160 H   0  0  0  0  0  0  0  0  0  0  0  0
   40.3690   27.9540   43.1730 C   0  0  0  0  0  0  0  0  0  0  0  0
   41.1510   28.9400   42.5950 C   0  0  0  0  0  0  0  0  0  0  0  0
   42.5130   29.0350   42.9270 C   0  0  0  0  0  0  0  0  0  0  0  0
   42.9750   28.0870   43.8490 N   0  0  0  0  0  0  0  0  0  0  0  0
   42.1700   27.1460   44.3830 C   0  0  0  0  0  0  0  0  0  0  0  0
   40.8720   27.0950   44.0340 N   0  0  0  0  0  0  0  0  0  0  0  0
   40.9990   29.7340   41.8790 H   0  0  0  0  0  0  0  0  0  0  0  0
   43.2670   29.7040   42.6020 H   0  0  0  0  0  0  0  0  0  0  0  0
   42.6200   26.4530   45.0910 H   0  0  0  0  0  0  0  0  0  0  0  0
   41.2840   26.2480   39.9730 C   0  0  0  0  0  0  0  0  0  0  0  0
   41.7580   25.3780   39.4740 H   0  0  0  0  0  0  0  0  0  0  0  0
   42.1100   26.9020   40.3200 H   0  0  0  0  0  0  0  0  0  0  0  0
   40.3880   26.9420   38.9810 C   0  0  0  0  0  0  0  0  0  0  0  0
   39.3320   26.7160   39.1200 H   0  0  0  0  0  0  0  0  0  0  0  0
   40.6730   26.6320   37.9600 H   0  0  0  0  0  0  0  0  0  0  0  0
   40.6710   28.3980   39.0720 C   0  0  0  0  0  0  0  0  0  0  0  0
   41.9530   28.8550   38.8510 C   0  0  0  0  0  0  0  0  0  0  0  0
   42.7350   28.1520   38.6160 H   0  0  0  0  0  0  0  0  0  0  0  0
   42.1910   30.2100   38.9410 C   0  0  0  0  0  0  0  0  0  0  0  0
   43.2240   30.4970   38.7540 H   0  0  0  0  0  0  0  0  0  0  0  0
   41.2410   31.1660   39.2370 C   0  0  0  0  0  0  0  0  0  0  0  0
   39.9890   30.6670   39.4470 C   0  0  0  0  0  0  0  0  0  0  0  0
   39.7030   29.3350   39.3700 C   0  0  0  0  0  0  0  0  0  0  0  0
   38.6880   28.9810   39.5460 H   0  0  0  0  0  0  0  0  0  0  0  0
   38.6780   31.8050   39.8370 S   0  0  0  0  0  0  0  0  0  0  0  0
   39.4040   33.4340   39.8530 C   0  0  0  0  0  0  0  0  0  0  0  0
   38.6280   34.5050   40.1240 C   0  0  0  0  0  0  0  0  0  0  0  0
   37.5610   34.3490   40.3310 H   0  0  0  0  0  0  0  0  0  0  0  0
   39.1200   35.7900   40.1540 C   0  0  0  0  0  0  0  0  0  0  0  0
   38.5440   36.6690   40.3640 H   0  0  0  0  0  0  0  0  0  0  0  0
   40.4670   35.9560   39.8900 C   0  0  0  0  0  0  0  0  0  0  0  0
   40.8870   36.9350   39.9020 H   0  0  0  0  0  0  0  0  0  0  0  0
   41.2230   34.8290   39.6160 C   0  0  0  0  0  0  0  0  0  0  0  0
   42.2770   35.0380   39.4170 H   0  0  0  0  0  0  0  0  0  0  0  0
   40.7470   33.5350   39.5830 C   0  0  0  0  0  0  0  0  0  0  0  0
   41.6530   32.4980   39.2880 N   0  0  0  0  0  0  0  0  0  0  0  0
   42.6480   32.7430   39.1050 H   0  0  0  0  0  0  0  0  0  0  0  0
  1  4  1  6  0  0  0
  1 13  1  0  0  0  0
  2  3  1  0  0  0  0
  2  1  1  0  0  0  0
  2  6  1  0  0  0  0
  3  1  1  0  0  0  0
  3  7  1  1  0  0  0
  5  2  1  0  0  0  0
  8 14  1  6  0  0  0
  8 24  1  0  0  0  0
  8  9  1  0  0  0  0
  9 10  1  0  0  0  0
  9 16  1  0  0  0  0
 10 18  1  0  0  0  0
 10 17  1  0  0  0  0
 11 20  1  0  0  0  0
 11 10  1  0  0  0  0
 12 13  1  0  0  0  0
 12 11  1  0  0  0  0
 13  8  1  0  0  0  0
 13 23  1  1  0  0  0
 15  9  1  0  0  0  0
 19 11  1  0  0  0  0
 21 12  1  0  0  0  0
 22 12  1  0  0  0  0
 24 29  1  0  0  0  0
 25 26  1  0  0  0  0
 25 24  2  0  0  0  0
 26 27  2  0  0  0  0
 27 28  1  0  0  0  0
 28 32  1  0  0  0  0
 29 28  2  0  0  0  0
 30 25  1  0  0  0  0
 31 26  1  0  0  0  0
 33 35  1  0  0  0  0
 33  3  1  0  0  0  0
 34 33  1  0  0  0  0
 36 39  1  0  0  0  0
 36 37  1  0  0  0  0
 36 33  1  0  0  0  0
 38 36  1  0  0  0  0
 39 46  1  0  0  0  0
 40 42  1  0  0  0  0
 40 39  2  0  0  0  0
 41 40  1  0  0  0  0
 42 44  2  0  0  0  0
 43 42  1  0  0  0  0
 44 59  1  0  0  0  0
 44 45  1  0  0  0  0
 45 48  1  0  0  0  0
 46 45  2  0  0  0  0
 46 47  1  0  0  0  0
 48 49  1  0  0  0  0
 49 50  1  0  0  0  0
 50 52  2  0  0  0  0
 50 51  1  0  0  0  0
 52 53  1  0  0  0  0
 54 55  1  0  0  0  0
 54 52  1  0  0  0  0
 56 54  2  0  0  0  0
 57 56  1  0  0  0  0
 58 56  1  0  0  0  0
 58 49  2  0  0  0  0
 59 58  1  0  0  0  0
 60 59  1  0  0  0  0
M  END
>  <minimizedAffinity>
-6.70163774

$$$$

 OpenBabel03242512033D

 60 65  0  0  1  0  0  0  0  0999 V2000
   38.1260   26.2550   38.5340 C   0  0  2  0  0  0  0  0  0  0  0  0
   38.5100   25.4550   37.3020 C   0  0  0  0  0  0  0  0  0  0  0  0
   39.3140   26.6180   37.7120 C   0  0  1  0  0  0  0  0  0  0  0  0
   37.1560   26.7910   38.3970 H   0  0  0  0  0  0  0  0  0  0  0  0
   37.8950   25.5150   36.3880 H   0  0  0  0  0  0  0  0  0  0  0  0
   39.0180   24.4710   37.4260 H   0  0  0  0  0  0  0  0  0  0  0  0
   40.2760   26.4840   38.2670 H   0  0  0  0  0  0  0  0  0  0  0  0
   37.2710   26.1440   40.7920 C   0  0  2  0  0  0  0  0  0  0  0  0
   36.9450   25.2880   41.9810 C   0  0  0  0  0  0  0  0  0  0  0  0
   37.9380   24.2140   42.1910 C   0  0  0  0  0  0  0  0  0  0  0  0
   38.1400   23.3430   40.9740 C   0  0  0  0  0  0  0  0  0  0  0  0
   38.1480   24.1070   39.6840 C   0  0  0  0  0  0  0  0  0  0  0  0
   38.3010   25.5980   39.8760 C   0  0  1  0  0  0  0  0  0  0  0  0
   36.2980   26.2190   40.2190 H   0  0  0  0  0  0  0  0  0  0  0  0
   35.9330   24.8370   41.9500 H   0  0  0  0  0  0  0  0  0  0  0  0
   36.9470   25.9500   42.8690 H   0  0  0  0  0  0  0  0  0  0  0  0
   38.9520   24.6060   42.4670 H   0  0  0  0  0  0  0  0  0  0  0  0
   37.6420   23.5650   43.0360 H   0  0  0  0  0  0  0  0  0  0  0  0
   37.2820   22.6300   40.9350 H   0  0  0  0  0  0  0  0  0  0  0  0
   39.0580   22.7460   41.1380 H   0  0  0  0  0  0  0  0  0  0  0  0
   39.0000   23.7400   39.0770 H   0  0  0  0  0  0  0  0  0  0  0  0
   37.2040   23.9500   39.1080 H   0  0  0  0  0  0  0  0  0  0  0  0
   39.3530   25.7520   40.1540 H   0  0  0  0  0  0  0  0  0  0  0  0
   37.5950   27.5350   41.1620 C   0  0  0  0  0  0  0  0  0  0  0  0
   36.5050   28.3860   41.0850 C   0  0  0  0  0  0  0  0  0  0  0  0
   36.6560   29.7450   41.4110 C   0  0  0  0  0  0  0  0  0  0  0  0
   37.9440   30.1310   41.8010 N   0  0  0  0  0  0  0  0  0  0  0  0
   38.9720   29.2610   41.8600 C   0  0  0  0  0  0  0  0  0  0  0  0
   38.7800   27.9690   41.5380 N   0  0  0  0  0  0  0  0  0  0  0  0
   35.4660   28.2970   40.8070 H   0  0  0  0  0  0  0  0  0  0  0  0
   35.9610   30.5440   41.4160 H   0  0  0  0  0  0  0  0  0  0  0  0
   39.9370   29.6540   42.1740 H   0  0  0  0  0  0  0  0  0  0  0  0
   39.1880   27.9780   37.0870 C   0  0  0  0  0  0  0  0  0  0  0  0
   39.3490   27.8630   35.9950 H   0  0  0  0  0  0  0  0  0  0  0  0
   40.0180   28.6080   37.4640 H   0  0  0  0  0  0  0  0  0  0  0  0
   37.8420   28.6160   37.3090 C   0  0  0  0  0  0  0  0  0  0  0  0
   37.1680   28.0070   37.9120 H   0  0  0  0  0  0  0  0  0  0  0  0
   37.3600   28.7930   36.3310 H   0  0  0  0  0  0  0  0  0  0  0  0
   38.0800   29.9550   37.9080 C   0  0  0  0  0  0  0  0  0  0  0  0
   37.0430   30.8610   37.9760 C   0  0  0  0  0  0  0  0  0  0  0  0
   36.0730   30.5880   37.5950 H   0  0  0  0  0  0  0  0  0  0  0  0
   37.2880   32.0970   38.5360 C   0  0  0  0  0  0  0  0  0  0  0  0
   36.4250   32.7590   38.5570 H   0  0  0  0  0  0  0  0  0  0  0  0
   38.5010   32.5130   39.0430 C   0  0  0  0  0  0  0  0  0  0  0  0
   39.4960   31.5840   38.9540 C   0  0  0  0  0  0  0  0  0  0  0  0
   39.3040   30.3480   38.4090 C   0  0  0  0  0  0  0  0  0  0  0  0
   40.1280   29.6370   38.3580 H   0  0  0  0  0  0  0  0  0  0  0  0
   41.1090   32.0060   39.5770 S   0  0  0  0  0  0  0  0  0  0  0  0
   40.9930   33.6710   40.2050 C   0  0  0  0  0  0  0  0  0  0  0  0
   42.0850   34.2550   40.7450 C   0  0  0  0  0  0  0  0  0  0  0  0
   43.0240   33.6890   40.7850 H   0  0  0  0  0  0  0  0  0  0  0  0
   42.0690   35.5360   41.2490 C   0  0  0  0  0  0  0  0  0  0  0  0
   42.9080   36.0400   41.6850 H   0  0  0  0  0  0  0  0  0  0  0  0
   40.8710   36.2240   41.1850 C   0  0  0  0  0  0  0  0  0  0  0  0
   40.8170   37.2180   41.5660 H   0  0  0  0  0  0  0  0  0  0  0  0
   39.7790   35.5840   40.6250 C   0  0  0  0  0  0  0  0  0  0  0  0
   38.8690   36.1900   40.6090 H   0  0  0  0  0  0  0  0  0  0  0  0
   39.7770   34.3030   40.1140 C   0  0  0  0  0  0  0  0  0  0  0  0
   38.5770   33.8010   39.5770 N   0  0  0  0  0  0  0  0  0  0  0  0
   37.7340   34.4120   39.5820 H   0  0  0  0  0  0  0  0  0  0  0  0
  1  4  1  6  0  0  0
  1 13  1  0  0  0  0
  2  6  1  0  0  0  0
  2  3  1  0  0  0  0
  2  1  1  0  0  0  0
  3  7  1  1  0  0  0
  3  1  1  0  0  0  0
  5  2  1  0  0  0  0
  8 14  1  6  0  0  0
  8 24  1  0  0  0  0
  8  9  1  0  0  0  0
  9 10  1  0  0  0  0
  9 16  1  0  0  0  0
 10 17  1  0  0  0  0
 10 18  1  0  0  0  0
 11 20  1  0  0  0  0
 11 10  1  0  0  0  0
 12 13  1  0  0  0  0
 12 11  1  0  0  0  0
 13 23  1  1  0  0  0
 13  8  1  0  0  0  0
 15  9  1  0  0  0  0
 19 11  1  0  0  0  0
 21 12  1  0  0  0  0
 22 12  1  0  0  0  0
 24 29  1  0  0  0  0
 25 24  2  0  0  0  0
 25 26  1  0  0  0  0
 26 31  1  0  0  0  0
 26 27  2  0  0  0  0
 27 28  1  0  0  0  0
 28 32  1  0  0  0  0
 29 28  2  0  0  0  0
 30 25  1  0  0  0  0
 33 36  1  0  0  0  0
 33 35  1  0  0  0  0
 33  3  1  0  0  0  0
 34 33  1  0  0  0  0
 36 39  1  0  0  0  0
 36 37  1  0  0  0  0
 38 36  1  0  0  0  0
 39 40  2  0  0  0  0
 39 46  1  0  0  0  0
 40 42  1  0  0  0  0
 41 40  1  0  0  0  0
 42 43  1  0  0  0  0
 42 44  2  0  0  0  0
 44 59  1  0  0  0  0
 45 44  1  0  0  0  0
 45 48  1  0  0  0  0
 46 45  2  0  0  0  0
 47 46  1  0  0  0  0
 48 49  1  0  0  0  0
 49 50  1  0  0  0  0
 50 51  1  0  0  0  0
 50 52  2  0  0  0  0
 52 53  1  0  0  0  0
 54 52  1  0  0  0  0
 54 55  1  0  0  0  0
 56 54  2  0  0  0  0
 57 56  1  0  0  0  0
 58 49  2  0  0  0  0
 58 56  1  0  0  0  0
 59 60  1  0  0  0  0
 59 58  1  0  0  0  0
M  END
>  <minimizedAffinity>
-6.6687851

$$$$

 OpenBabel03242512033D

 60 65  0  0  1  0  0  0  0  0999 V2000
   37.5480   26.9490   41.9580 C   0  0  2  0  0  0  0  0  0  0  0  0
   36.9560   27.0480   43.3530 C   0  0  0  0  0  0  0  0  0  0  0  0
   36.9590   28.2210   42.4630 C   0  0  1  0  0  0  0  0  0  0  0  0
   38.6510   26.7840   41.9850 H   0  0  0  0  0  0  0  0  0  0  0  0
   37.6160   27.0360   44.2380 H   0  0  0  0  0  0  0  0  0  0  0  0
   35.9470   26.6170   43.5510 H   0  0  0  0  0  0  0  0  0  0  0  0
   36.0370   28.5190   41.9020 H   0  0  0  0  0  0  0  0  0  0  0  0
   37.4200   26.3650   39.6160 C   0  0  2  0  0  0  0  0  0  0  0  0
   37.1870   25.2950   38.5910 C   0  0  0  0  0  0  0  0  0  0  0  0
   36.1260   24.3500   38.9920 C   0  0  0  0  0  0  0  0  0  0  0  0
   36.3690   23.7190   40.3430 C   0  0  0  0  0  0  0  0  0  0  0  0
   36.9270   24.6700   41.3580 C   0  0  0  0  0  0  0  0  0  0  0  0
   36.8080   26.1180   40.9450 C   0  0  1  0  0  0  0  0  0  0  0  0
   38.5440   26.3940   39.7490 H   0  0  0  0  0  0  0  0  0  0  0  0
   38.0950   24.7190   38.3240 H   0  0  0  0  0  0  0  0  0  0  0  0
   36.8740   25.8020   37.6570 H   0  0  0  0  0  0  0  0  0  0  0  0
   35.1140   24.8300   39.0500 H   0  0  0  0  0  0  0  0  0  0  0  0
   36.0160   23.5410   38.2470 H   0  0  0  0  0  0  0  0  0  0  0  0
   37.1220   22.9090   40.1940 H   0  0  0  0  0  0  0  0  0  0  0  0
   35.4250   23.2360   40.6620 H   0  0  0  0  0  0  0  0  0  0  0  0
   36.3660   24.5250   42.3030 H   0  0  0  0  0  0  0  0  0  0  0  0
   38.0100   24.4760   41.5510 H   0  0  0  0  0  0  0  0  0  0  0  0
   35.7450   26.3710   41.0620 H   0  0  0  0  0  0  0  0  0  0  0  0
   37.0670   27.7120   39.1270 C   0  0  0  0  0  0  0  0  0  0  0  0
   35.7030   27.8970   38.9800 C   0  0  0  0  0  0  0  0  0  0  0  0
   35.2110   29.1330   38.5260 C   0  0  0  0  0  0  0  0  0  0  0  0
   36.1830   30.1030   38.2520 N   0  0  0  0  0  0  0  0  0  0  0  0
   37.5020   29.8710   38.4120 C   0  0  0  0  0  0  0  0  0  0  0  0
   37.9250   28.6720   38.8500 N   0  0  0  0  0  0  0  0  0  0  0  0
   34.8170   27.2970   39.1210 H   0  0  0  0  0  0  0  0  0  0  0  0
   34.2230   29.4700   38.3500 H   0  0  0  0  0  0  0  0  0  0  0  0
   38.1810   30.6860   38.1740 H   0  0  0  0  0  0  0  0  0  0  0  0
   37.9700   29.3280   42.5500 C   0  0  0  0  0  0  0  0  0  0  0  0
   38.0190   29.6570   43.6090 H   0  0  0  0  0  0  0  0  0  0  0  0
   37.5870   30.1910   41.9690 H   0  0  0  0  0  0  0  0  0  0  0  0
   39.3500   28.9140   42.1120 C   0  0  0  0  0  0  0  0  0  0  0  0
   39.3540   28.3180   41.2000 H   0  0  0  0  0  0  0  0  0  0  0  0
   39.8190   28.3160   42.9130 H   0  0  0  0  0  0  0  0  0  0  0  0
   40.1630   30.1510   41.9810 C   0  0  0  0  0  0  0  0  0  0  0  0
   39.7540   31.1410   41.1130 C   0  0  0  0  0  0  0  0  0  0  0  0
   38.8510   31.0070   40.5400 H   0  0  0  0  0  0  0  0  0  0  0  0
   40.5230   32.2810   41.0080 C   0  0  0  0  0  0  0  0  0  0  0  0
   40.1400   33.0170   40.3050 H   0  0  0  0  0  0  0  0  0  0  0  0
   41.6870   32.5200   41.7090 C   0  0  0  0  0  0  0  0  0  0  0  0
   42.0510   31.5140   42.5550 C   0  0  0  0  0  0  0  0  0  0  0  0
   41.3240   30.3680   42.6940 C   0  0  0  0  0  0  0  0  0  0  0  0
   41.6520   29.5900   43.3810 H   0  0  0  0  0  0  0  0  0  0  0  0
   43.5360   31.7090   43.5150 S   0  0  0  0  0  0  0  0  0  0  0  0
   44.2170   33.3000   43.0840 C   0  0  0  0  0  0  0  0  0  0  0  0
   45.3610   33.7150   43.6700 C   0  0  0  0  0  0  0  0  0  0  0  0
   45.8500   33.0590   44.4030 H   0  0  0  0  0  0  0  0  0  0  0  0
   45.9430   34.9300   43.3860 C   0  0  0  0  0  0  0  0  0  0  0  0
   46.8470   35.3000   43.8240 H   0  0  0  0  0  0  0  0  0  0  0  0
   45.3040   35.7330   42.4600 C   0  0  0  0  0  0  0  0  0  0  0  0
   45.7220   36.6820   42.2120 H   0  0  0  0  0  0  0  0  0  0  0  0
   44.1340   35.2670   41.8860 C   0  0  0  0  0  0  0  0  0  0  0  0
   43.6870   35.9560   41.1640 H   0  0  0  0  0  0  0  0  0  0  0  0
   43.5380   34.0540   42.1580 C   0  0  0  0  0  0  0  0  0  0  0  0
   42.3450   33.7300   41.4840 N   0  0  0  0  0  0  0  0  0  0  0  0
   41.9550   34.4170   40.8040 H   0  0  0  0  0  0  0  0  0  0  0  0
  1  4  1  6  0  0  0
  1  3  1  0  0  0  0
  1  2  1  0  0  0  0
  2  6  1  0  0  0  0
  2  5  1  0  0  0  0
  3  7  1  6  0  0  0
  3 33  1  0  0  0  0
  3  2  1  0  0  0  0
  8 14  1  1  0  0  0
  8 13  1  0  0  0  0
  9 10  1  0  0  0  0
  9  8  1  0  0  0  0
 10 17  1  0  0  0  0
 10 11  1  0  0  0  0
 11 20  1  0  0  0  0
 11 12  1  0  0  0  0
 12 22  1  0  0  0  0
 12 21  1  0  0  0  0
 13 23  1  6  0  0  0
 13 12  1  0  0  0  0
 13  1  1  0  0  0  0
 15  9  1  0  0  0  0
 16  9  1  0  0  0  0
 18 10  1  0  0  0  0
 19 11  1  0  0  0  0
 24  8  1  0  0  0  0
 25 30  1  0  0  0  0
 25 24  1  0  0  0  0
 26 25  2  0  0  0  0
 27 28  2  0  0  0  0
 27 26  1  0  0  0  0
 28 29  1  0  0  0  0
 29 24  2  0  0  0  0
 31 26  1  0  0  0  0
 32 28  1  0  0  0  0
 33 34  1  0  0  0  0
 35 33  1  0  0  0  0
 36 33  1  0  0  0  0
 36 38  1  0  0  0  0
 37 36  1  0  0  0  0
 39 36  1  0  0  0  0
 39 46  1  0  0  0  0
 40 39  2  0  0  0  0
 41 40  1  0  0  0  0
 42 40  1  0  0  0  0
 42 44  2  0  0  0  0
 43 42  1  0  0  0  0
 44 45  1  0  0  0  0
 45 46  2  0  0  0  0
 45 48  1  0  0  0  0
 46 47  1  0  0  0  0
 49 48  1  0  0  0  0
 49 50  1  0  0  0  0
 50 51  1  0  0  0  0
 52 50  2  0  0  0  0
 52 53  1  0  0  0  0
 54 52  1  0  0  0  0
 55 54  1  0  0  0  0
 56 58  1  0  0  0  0
 56 54  2  0  0  0  0
 57 56  1  0  0  0  0
 58 49  2  0  0  0  0
 59 44  1  0  0  0  0
 59 58  1  0  0  0  0
 60 59  1  0  0  0  0
M  END
>  <minimizedAffinity>
-6.63976049

$$$$
