
 OpenBabel03242520403D

 52 57  0  0  1  0  0  0  0  0999 V2000
   48.0490   30.2360   47.9540 C   0  0  0  0  0  0  0  0  0  0  0  0
   47.4430   31.1930   48.7390 C   0  0  0  0  0  0  0  0  0  0  0  0
   48.2990   31.7360   49.6110 N   0  0  0  0  0  0  0  0  0  0  0  0
   49.4650   31.1240   49.3840 C   0  0  0  0  0  0  0  0  0  0  0  0
   49.3170   30.2330   48.4020 N   0  0  0  0  0  0  0  0  0  0  0  0
   46.4030   31.4690   48.6550 H   0  0  0  0  0  0  0  0  0  0  0  0
   48.1150   32.4820   50.3230 H   0  0  0  0  0  0  0  0  0  0  0  0
   46.0560   33.4030   45.1270 C   0  0  0  0  0  0  0  0  0  0  0  0
   47.0190   33.4900   44.0900 C   0  0  0  0  0  0  0  0  0  0  0  0
   47.7860   32.3240   43.7880 C   0  0  0  0  0  0  0  0  0  0  0  0
   47.5570   31.1820   44.5050 N   0  0  0  0  0  0  0  0  0  0  0  0
   46.6210   31.1620   45.4850 C   0  0  0  0  0  0  0  0  0  0  0  0
   45.8850   32.2590   45.7860 N   0  0  0  0  0  0  0  0  0  0  0  0
   46.4610   29.9470   46.1660 N   0  0  0  0  0  0  0  0  0  0  0  0
   47.5490   29.3550   46.8720 C   0  0  2  0  0  0  0  0  0  0  0  0
   47.3130   27.9560   47.3250 C   0  0  0  0  0  0  0  0  0  0  0  0
   45.9820   27.5850   47.6180 N   0  0  0  0  0  0  0  0  0  0  0  0
   45.0350   28.6440   47.5090 C   0  0  0  0  0  0  0  0  0  0  0  0
   45.1730   29.2820   46.1560 C   0  0  0  0  0  0  0  0  0  0  0  0
   45.5080   34.3030   45.3150 H   0  0  0  0  0  0  0  0  0  0  0  0
   47.2340   34.3590   43.5030 H   0  0  0  0  0  0  0  0  0  0  0  0
   48.5230   32.3400   43.0170 H   0  0  0  0  0  0  0  0  0  0  0  0
   48.3830   29.2550   46.1100 H   0  0  0  0  0  0  0  0  0  0  0  0
   47.7340   27.1940   46.6380 H   0  0  0  0  0  0  0  0  0  0  0  0
   47.9120   27.8330   48.2720 H   0  0  0  0  0  0  0  0  0  0  0  0
   45.8560   27.1470   48.5630 H   0  0  0  0  0  0  0  0  0  0  0  0
   44.0140   28.1540   47.5110 H   0  0  0  0  0  0  0  0  0  0  0  0
   45.0160   29.3490   48.3550 H   0  0  0  0  0  0  0  0  0  0  0  0
   44.3320   29.9510   45.9060 H   0  0  0  0  0  0  0  0  0  0  0  0
   45.2410   28.4670   45.4190 H   0  0  0  0  0  0  0  0  0  0  0  0
   50.7410   31.3360   50.0580 C   0  0  0  0  0  0  0  0  0  0  0  0
   51.8780   31.8070   49.4380 C   0  0  0  0  0  0  0  0  0  0  0  0
   51.8330   32.0380   48.3830 H   0  0  0  0  0  0  0  0  0  0  0  0
   53.0260   31.9690   50.1680 C   0  0  0  0  0  0  0  0  0  0  0  0
   53.8810   32.3480   49.5950 H   0  0  0  0  0  0  0  0  0  0  0  0
   53.1470   31.6920   51.5110 C   0  0  0  0  0  0  0  0  0  0  0  0
   52.0000   31.2250   52.1000 C   0  0  0  0  0  0  0  0  0  0  0  0
   50.8360   31.0520   51.4030 C   0  0  0  0  0  0  0  0  0  0  0  0
   49.9580   30.6800   51.9130 H   0  0  0  0  0  0  0  0  0  0  0  0
   52.0370   30.8330   53.8350 S   0  0  0  0  0  0  0  0  0  0  0  0
   53.6910   31.1810   54.3940 C   0  0  0  0  0  0  0  0  0  0  0  0
   54.0070   30.9680   55.7080 C   0  0  0  0  0  0  0  0  0  0  0  0
   53.2580   30.5920   56.3950 H   0  0  0  0  0  0  0  0  0  0  0  0
   55.2680   31.2150   56.2070 C   0  0  0  0  0  0  0  0  0  0  0  0
   55.5880   31.0710   57.2290 H   0  0  0  0  0  0  0  0  0  0  0  0
   56.2110   31.6920   55.3200 C   0  0  0  0  0  0  0  0  0  0  0  0
   57.2120   31.9000   55.6680 H   0  0  0  0  0  0  0  0  0  0  0  0
   55.8540   31.8940   54.0030 C   0  0  0  0  0  0  0  0  0  0  0  0
   56.6610   32.2750   53.3640 H   0  0  0  0  0  0  0  0  0  0  0  0
   54.6010   31.6540   53.4860 C   0  0  0  0  0  0  0  0  0  0  0  0
   54.4010   31.9140   52.1120 N   0  0  0  0  0  0  0  0  0  0  0  0
   55.1890   32.2740   51.5410 H   0  0  0  0  0  0  0  0  0  0  0  0
  1  5  1  0  0  0  0
  1  2  2  0  0  0  0
  2  3  1  0  0  0  0
  3  7  1  0  0  0  0
  4  3  1  0  0  0  0
  4 31  1  0  0  0  0
  5  4  2  0  0  0  0
  6  2  1  0  0  0  0
  8 20  1  0  0  0  0
  8 13  1  0  0  0  0
  9  8  2  0  0  0  0
 10  9  1  0  0  0  0
 10 11  2  0  0  0  0
 11 12  1  0  0  0  0
 12 13  2  0  0  0  0
 12 14  1  0  0  0  0
 14 15  1  0  0  0  0
 15 23  1  6  0  0  0
 15 16  1  0  0  0  0
 15  1  1  0  0  0  0
 16 17  1  0  0  0  0
 16 25  1  0  0  0  0
 17 26  1  0  0  0  0
 18 27  1  0  0  0  0
 18 17  1  0  0  0  0
 18 28  1  0  0  0  0
 19 14  1  0  0  0  0
 19 18  1  0  0  0  0
 21  9  1  0  0  0  0
 22 10  1  0  0  0  0
 24 16  1  0  0  0  0
 29 19  1  0  0  0  0
 30 19  1  0  0  0  0
 31 38  1  0  0  0  0
 32 31  2  0  0  0  0
 32 34  1  0  0  0  0
 33 32  1  0  0  0  0
 34 36  2  0  0  0  0
 35 34  1  0  0  0  0
 36 37  1  0  0  0  0
 36 51  1  0  0  0  0
 37 40  1  0  0  0  0
 38 39  1  0  0  0  0
 38 37  2  0  0  0  0
 40 41  1  0  0  0  0
 41 42  1  0  0  0  0
 42 44  2  0  0  0  0
 42 43  1  0  0  0  0
 44 45  1  0  0  0  0
 46 47  1  0  0  0  0
 46 44  1  0  0  0  0
 48 46  2  0  0  0  0
 49 48  1  0  0  0  0
 50 48  1  0  0  0  0
 50 41  2  0  0  0  0
 51 50  1  0  0  0  0
 52 51  1  0  0  0  0
M  END
>  <minimizedAffinity>
-6.52225876

>  <minimizedRMSD>
1.94079578

$$$$
