
 OpenBabel03242523323D

 50 55  0  0  0  0  0  0  0  0999 V2000
   44.4150   36.1980   44.8520 C   0  0  0  0  0  0  0  0  0  0  0  0
   45.0830   36.0580   43.6180 C   0  0  0  0  0  0  0  0  0  0  0  0
   45.8950   34.9430   43.4080 C   0  0  0  0  0  0  0  0  0  0  0  0
   46.0170   34.0150   44.4150 N   0  0  0  0  0  0  0  0  0  0  0  0
   45.3540   34.1870   45.5890 C   0  0  0  0  0  0  0  0  0  0  0  0
   44.5750   35.2530   45.7960 N   0  0  0  0  0  0  0  0  0  0  0  0
   43.7710   37.0580   45.0480 H   0  0  0  0  0  0  0  0  0  0  0  0
   44.9510   36.8200   42.8630 H   0  0  0  0  0  0  0  0  0  0  0  0
   46.6030   34.7410   42.1760 C   0  0  0  0  0  0  0  0  0  0  0  0
   47.8720   35.1970   41.9080 C   0  0  0  0  0  0  0  0  0  0  0  0
   48.4000   35.7480   42.6590 H   0  0  0  0  0  0  0  0  0  0  0  0
   48.4740   34.9500   40.6780 C   0  0  0  0  0  0  0  0  0  0  0  0
   49.4910   35.3540   40.5620 H   0  0  0  0  0  0  0  0  0  0  0  0
   47.8490   34.2470   39.6720 C   0  0  0  0  0  0  0  0  0  0  0  0
   46.5890   33.7980   39.9450 C   0  0  0  0  0  0  0  0  0  0  0  0
   46.0180   34.0450   41.1410 C   0  0  0  0  0  0  0  0  0  0  0  0
   45.0040   33.6610   41.3070 H   0  0  0  0  0  0  0  0  0  0  0  0
   45.7380   32.8840   38.6760 S   0  0  0  0  0  0  0  0  0  0  0  0
   46.8460   32.7950   37.2840 C   0  0  0  0  0  0  0  0  0  0  0  0
   46.3950   32.1270   36.1750 C   0  0  0  0  0  0  0  0  0  0  0  0
   45.4220   31.6800   36.1450 H   0  0  0  0  0  0  0  0  0  0  0  0
   47.2010   32.0200   35.0630 C   0  0  0  0  0  0  0  0  0  0  0  0
   46.8450   31.4930   34.1870 H   0  0  0  0  0  0  0  0  0  0  0  0
   48.4540   32.5930   35.0920 C   0  0  0  0  0  0  0  0  0  0  0  0
   49.1040   32.5250   34.2350 H   0  0  0  0  0  0  0  0  0  0  0  0
   48.8400   33.2470   36.2390 C   0  0  0  0  0  0  0  0  0  0  0  0
   49.8500   33.6830   36.1990 H   0  0  0  0  0  0  0  0  0  0  0  0
   48.0800   33.3870   37.3820 C   0  0  0  0  0  0  0  0  0  0  0  0
   48.6010   34.0880   38.4920 N   0  0  0  0  0  0  0  0  0  0  0  0
   49.5620   34.4740   38.3890 H   0  0  0  0  0  0  0  0  0  0  0  0
   45.5740   33.1110   46.5870 C   0  0  0  0  0  0  0  0  0  0  0  0
   44.5960   32.6270   46.8100 H   0  0  0  0  0  0  0  0  0  0  0  0
   45.8770   33.6400   47.5060 H   0  0  0  0  0  0  0  0  0  0  0  0
   46.7830   31.9600   45.9260 S   0  0  0  0  0  0  0  0  0  0  0  0
   47.7410   31.2280   47.2380 C   0  0  0  0  0  0  0  0  0  0  0  0
   48.0200   32.0050   48.3380 C   0  0  0  0  0  0  0  0  0  0  0  0
   48.7510   31.4490   49.3450 C   0  0  0  0  0  0  0  0  0  0  0  0
   49.2180   30.1330   49.2920 C   0  0  0  0  0  0  0  0  0  0  0  0
   49.9330   29.6350   50.3190 N   0  0  0  0  0  0  0  0  0  0  0  0
   50.3920   28.3720   50.2970 C   0  0  0  0  0  0  0  0  0  0  0  0
   50.1190   27.5840   49.2000 C   0  0  0  0  0  0  0  0  0  0  0  0
   49.3810   28.0970   48.1390 C   0  0  0  0  0  0  0  0  0  0  0  0
   48.9010   29.4100   48.1560 C   0  0  0  0  0  0  0  0  0  0  0  0
   48.1680   29.9300   47.1220 C   0  0  0  0  0  0  0  0  0  0  0  0
   47.7270   33.0300   48.5130 H   0  0  0  0  0  0  0  0  0  0  0  0
   49.0140   32.0000   50.2510 H   0  0  0  0  0  0  0  0  0  0  0  0
   50.9560   28.0740   51.1740 H   0  0  0  0  0  0  0  0  0  0  0  0
   50.4990   26.5780   49.2090 H   0  0  0  0  0  0  0  0  0  0  0  0
   49.1700   27.4740   47.2820 H   0  0  0  0  0  0  0  0  0  0  0  0
   47.9420   29.3330   46.2520 H   0  0  0  0  0  0  0  0  0  0  0  0
  1  7  1  0  0  0  0
  1  6  1  0  0  0  0
  2  1  2  0  0  0  0
  3  2  1  0  0  0  0
  3  4  2  0  0  0  0
  4  5  1  0  0  0  0
  5  6  2  0  0  0  0
  5 31  1  0  0  0  0
  8  2  1  0  0  0  0
  9  3  1  0  0  0  0
 10  9  1  0  0  0  0
 10 11  1  0  0  0  0
 12 10  2  0  0  0  0
 13 12  1  0  0  0  0
 14 15  2  0  0  0  0
 14 12  1  0  0  0  0
 15 16  1  0  0  0  0
 16 17  1  0  0  0  0
 16  9  2  0  0  0  0
 18 15  1  0  0  0  0
 19 28  1  0  0  0  0
 19 18  1  0  0  0  0
 20 19  2  0  0  0  0
 21 20  1  0  0  0  0
 22 24  2  0  0  0  0
 22 20  1  0  0  0  0
 23 22  1  0  0  0  0
 24 26  1  0  0  0  0
 25 24  1  0  0  0  0
 26 28  2  0  0  0  0
 27 26  1  0  0  0  0
 28 29  1  0  0  0  0
 29 14  1  0  0  0  0
 30 29  1  0  0  0  0
 31 32  1  0  0  0  0
 31 33  1  0  0  0  0
 34 31  1  0  0  0  0
 34 35  1  0  0  0  0
 35 36  1  0  0  0  0
 36 45  1  0  0  0  0
 36 37  2  0  0  0  0
 37 46  1  0  0  0  0
 38 37  1  0  0  0  0
 38 39  1  0  0  0  0
 40 39  2  0  0  0  0
 40 47  1  0  0  0  0
 41 48  1  0  0  0  0
 41 40  1  0  0  0  0
 42 43  1  0  0  0  0
 42 41  2  0  0  0  0
 43 38  2  0  0  0  0
 44 35  2  0  0  0  0
 44 43  1  0  0  0  0
 49 42  1  0  0  0  0
 50 44  1  0  0  0  0
M  END
>  <minimizedAffinity>
-8.05762959

>  <minimizedRMSD>
0.591743767

$$$$
