
 OpenBabel03242523323D

 50 55  0  0  0  0  0  0  0  0999 V2000
   44.4150   36.2000   44.8510 C   0  0  0  0  0  0  0  0  0  0  0  0
   45.0830   36.0600   43.6180 C   0  0  0  0  0  0  0  0  0  0  0  0
   45.8950   34.9450   43.4080 C   0  0  0  0  0  0  0  0  0  0  0  0
   46.0160   34.0160   44.4140 N   0  0  0  0  0  0  0  0  0  0  0  0
   45.3540   34.1890   45.5880 C   0  0  0  0  0  0  0  0  0  0  0  0
   44.5750   35.2550   45.7950 N   0  0  0  0  0  0  0  0  0  0  0  0
   43.7720   37.0610   45.0480 H   0  0  0  0  0  0  0  0  0  0  0  0
   44.9520   36.8220   42.8620 H   0  0  0  0  0  0  0  0  0  0  0  0
   46.6020   34.7420   42.1750 C   0  0  0  0  0  0  0  0  0  0  0  0
   47.8720   35.1980   41.9070 C   0  0  0  0  0  0  0  0  0  0  0  0
   48.4000   35.7490   42.6580 H   0  0  0  0  0  0  0  0  0  0  0  0
   48.4750   34.9500   40.6790 C   0  0  0  0  0  0  0  0  0  0  0  0
   49.4920   35.3550   40.5610 H   0  0  0  0  0  0  0  0  0  0  0  0
   47.8490   34.2470   39.6700 C   0  0  0  0  0  0  0  0  0  0  0  0
   46.5890   33.7990   39.9450 C   0  0  0  0  0  0  0  0  0  0  0  0
   46.0180   34.0460   41.1400 C   0  0  0  0  0  0  0  0  0  0  0  0
   45.0040   33.6620   41.3060 H   0  0  0  0  0  0  0  0  0  0  0  0
   45.7390   32.8850   38.6750 S   0  0  0  0  0  0  0  0  0  0  0  0
   46.8460   32.7960   37.2840 C   0  0  0  0  0  0  0  0  0  0  0  0
   46.3960   32.1280   36.1750 C   0  0  0  0  0  0  0  0  0  0  0  0
   45.4220   31.6800   36.1440 H   0  0  0  0  0  0  0  0  0  0  0  0
   47.2010   32.0200   35.0630 C   0  0  0  0  0  0  0  0  0  0  0  0
   46.8460   31.4940   34.1870 H   0  0  0  0  0  0  0  0  0  0  0  0
   48.4550   32.5930   35.0920 C   0  0  0  0  0  0  0  0  0  0  0  0
   49.1050   32.5240   34.2360 H   0  0  0  0  0  0  0  0  0  0  0  0
   48.8400   33.2470   36.2390 C   0  0  0  0  0  0  0  0  0  0  0  0
   49.8510   33.6830   36.2000 H   0  0  0  0  0  0  0  0  0  0  0  0
   48.0800   33.3870   37.3810 C   0  0  0  0  0  0  0  0  0  0  0  0
   48.6010   34.0870   38.4910 N   0  0  0  0  0  0  0  0  0  0  0  0
   49.5620   34.4730   38.3880 H   0  0  0  0  0  0  0  0  0  0  0  0
   45.5720   33.1120   46.5860 C   0  0  0  0  0  0  0  0  0  0  0  0
   44.5940   32.6290   46.8080 H   0  0  0  0  0  0  0  0  0  0  0  0
   45.8760   33.6410   47.5050 H   0  0  0  0  0  0  0  0  0  0  0  0
   46.7810   31.9600   45.9250 S   0  0  0  0  0  0  0  0  0  0  0  0
   47.7400   31.2290   47.2370 C   0  0  0  0  0  0  0  0  0  0  0  0
   48.0170   32.0060   48.3370 C   0  0  0  0  0  0  0  0  0  0  0  0
   48.7490   31.4500   49.3450 C   0  0  0  0  0  0  0  0  0  0  0  0
   49.2160   30.1340   49.2910 C   0  0  0  0  0  0  0  0  0  0  0  0
   49.9320   29.6360   50.3180 N   0  0  0  0  0  0  0  0  0  0  0  0
   50.3910   28.3730   50.2960 C   0  0  0  0  0  0  0  0  0  0  0  0
   50.1190   27.5860   49.1980 C   0  0  0  0  0  0  0  0  0  0  0  0
   49.3810   28.0990   48.1380 C   0  0  0  0  0  0  0  0  0  0  0  0
   48.9000   29.4110   48.1550 C   0  0  0  0  0  0  0  0  0  0  0  0
   48.1670   29.9320   47.1210 C   0  0  0  0  0  0  0  0  0  0  0  0
   47.7240   33.0310   48.5130 H   0  0  0  0  0  0  0  0  0  0  0  0
   49.0110   32.0000   50.2510 H   0  0  0  0  0  0  0  0  0  0  0  0
   50.9550   28.0760   51.1730 H   0  0  0  0  0  0  0  0  0  0  0  0
   50.4990   26.5800   49.2070 H   0  0  0  0  0  0  0  0  0  0  0  0
   49.1710   27.4760   47.2800 H   0  0  0  0  0  0  0  0  0  0  0  0
   47.9410   29.3340   46.2510 H   0  0  0  0  0  0  0  0  0  0  0  0
  1  7  1  0  0  0  0
  1  6  1  0  0  0  0
  2  1  2  0  0  0  0
  3  2  1  0  0  0  0
  3  4  2  0  0  0  0
  4  5  1  0  0  0  0
  5  6  2  0  0  0  0
  5 31  1  0  0  0  0
  8  2  1  0  0  0  0
  9  3  1  0  0  0  0
 10  9  1  0  0  0  0
 10 11  1  0  0  0  0
 12 10  2  0  0  0  0
 13 12  1  0  0  0  0
 14 15  2  0  0  0  0
 14 12  1  0  0  0  0
 15 16  1  0  0  0  0
 16 17  1  0  0  0  0
 16  9  2  0  0  0  0
 18 15  1  0  0  0  0
 19 28  1  0  0  0  0
 19 18  1  0  0  0  0
 20 19  2  0  0  0  0
 21 20  1  0  0  0  0
 22 24  2  0  0  0  0
 22 20  1  0  0  0  0
 23 22  1  0  0  0  0
 24 26  1  0  0  0  0
 25 24  1  0  0  0  0
 26 28  2  0  0  0  0
 27 26  1  0  0  0  0
 28 29  1  0  0  0  0
 29 14  1  0  0  0  0
 30 29  1  0  0  0  0
 31 32  1  0  0  0  0
 31 33  1  0  0  0  0
 34 31  1  0  0  0  0
 34 35  1  0  0  0  0
 35 36  1  0  0  0  0
 36 45  1  0  0  0  0
 36 37  2  0  0  0  0
 37 46  1  0  0  0  0
 38 37  1  0  0  0  0
 38 39  1  0  0  0  0
 40 39  2  0  0  0  0
 40 47  1  0  0  0  0
 41 48  1  0  0  0  0
 41 40  1  0  0  0  0
 42 43  1  0  0  0  0
 42 41  2  0  0  0  0
 43 38  2  0  0  0  0
 44 35  2  0  0  0  0
 44 43  1  0  0  0  0
 49 42  1  0  0  0  0
 50 44  1  0  0  0  0
M  END
>  <minimizedAffinity>
-8.05674744

>  <minimizedRMSD>
0.782857358

$$$$
