
 OpenBabel03242518033D

 50 54  0  0  0  0  0  0  0  0999 V2000
   40.5340   33.4260   40.3500 C   0  0  0  0  0  0  0  0  0  0  0  0
   40.0930   34.7670   40.5420 C   0  0  0  0  0  0  0  0  0  0  0  0
   38.7310   35.0160   40.3320 C   0  0  0  0  0  0  0  0  0  0  0  0
   37.9230   33.9890   39.9640 N   0  0  0  0  0  0  0  0  0  0  0  0
   38.3750   32.7430   39.7940 C   0  0  0  0  0  0  0  0  0  0  0  0
   39.6600   32.4790   39.9870 N   0  0  0  0  0  0  0  0  0  0  0  0
   41.5670   33.1380   40.4890 H   0  0  0  0  0  0  0  0  0  0  0  0
   38.3580   36.0280   40.4690 H   0  0  0  0  0  0  0  0  0  0  0  0
   37.4730   31.6670   39.3980 C   0  0  0  0  0  0  0  0  0  0  0  0
   36.6160   31.1060   40.3240 C   0  0  0  0  0  0  0  0  0  0  0  0
   36.6210   31.4760   41.3510 H   0  0  0  0  0  0  0  0  0  0  0  0
   35.7660   30.0870   39.9400 C   0  0  0  0  0  0  0  0  0  0  0  0
   35.1230   29.7030   40.7370 H   0  0  0  0  0  0  0  0  0  0  0  0
   35.7170   29.5810   38.6580 C   0  0  0  0  0  0  0  0  0  0  0  0
   36.5790   30.1560   37.7570 C   0  0  0  0  0  0  0  0  0  0  0  0
   37.4140   31.1530   38.1270 C   0  0  0  0  0  0  0  0  0  0  0  0
   38.0800   31.5860   37.3940 H   0  0  0  0  0  0  0  0  0  0  0  0
   36.5600   29.5450   36.0940 S   0  0  0  0  0  0  0  0  0  0  0  0
   35.3340   28.2510   36.0320 C   0  0  0  0  0  0  0  0  0  0  0  0
   35.1640   27.6440   34.8220 C   0  0  0  0  0  0  0  0  0  0  0  0
   35.7130   27.8980   33.9360 H   0  0  0  0  0  0  0  0  0  0  0  0
   34.2310   26.6360   34.7110 C   0  0  0  0  0  0  0  0  0  0  0  0
   34.0230   26.0960   33.7970 H   0  0  0  0  0  0  0  0  0  0  0  0
   33.4960   26.2660   35.8180 C   0  0  0  0  0  0  0  0  0  0  0  0
   32.7570   25.4790   35.7570 H   0  0  0  0  0  0  0  0  0  0  0  0
   33.7340   26.9350   37.0010 C   0  0  0  0  0  0  0  0  0  0  0  0
   33.1200   26.5980   37.8500 H   0  0  0  0  0  0  0  0  0  0  0  0
   34.6500   27.9500   37.1840 C   0  0  0  0  0  0  0  0  0  0  0  0
   34.7900   28.5410   38.4370 N   0  0  0  0  0  0  0  0  0  0  0  0
   34.1860   28.1870   39.2080 H   0  0  0  0  0  0  0  0  0  0  0  0
   41.0420   35.7980   40.9300 C   0  0  0  0  0  0  0  0  0  0  0  0
   40.7220   36.4590   41.7420 H   0  0  0  0  0  0  0  0  0  0  0  0
   41.1430   36.4870   40.0390 H   0  0  0  0  0  0  0  0  0  0  0  0
   42.3820   35.1230   41.1670 C   0  0  0  0  0  0  0  0  0  0  0  0
   42.9160   35.0270   40.1930 H   0  0  0  0  0  0  0  0  0  0  0  0
   42.2470   34.0490   41.4930 H   0  0  0  0  0  0  0  0  0  0  0  0
   44.5080   35.3400   42.3820 C   0  0  0  0  0  0  0  0  0  0  0  0
   43.1950   35.7450   42.2120 C   0  0  0  0  0  0  0  0  0  0  0  0
   42.6130   36.7180   42.9880 C   0  0  0  0  0  0  0  0  0  0  0  0
   43.3770   37.3060   43.9740 C   0  0  0  0  0  0  0  0  0  0  0  0
   44.6740   36.9680   44.2110 C   0  0  0  0  0  0  0  0  0  0  0  0
   45.1900   35.9780   43.3860 C   0  0  0  0  0  0  0  0  0  0  0  0
   41.6260   37.0830   42.9260 H   0  0  0  0  0  0  0  0  0  0  0  0
   42.9750   38.0920   44.6340 H   0  0  0  0  0  0  0  0  0  0  0  0
   45.2790   37.4190   44.9750 H   0  0  0  0  0  0  0  0  0  0  0  0
   46.2320   35.6840   43.5510 H   0  0  0  0  0  0  0  0  0  0  0  0
   45.2870   34.1090   41.4210 S   0  0  0  0  0  0  0  0  0  0  0  0
   46.5590   33.5970   42.0620 O   0  0  0  0  0  0  0  0  0  0  0  0
   45.7700   34.7420   40.1290 O   0  0  0  0  0  0  0  0  0  0  0  0
   44.4550   33.1070   41.0310 H   0  0  0  0  0  0  0  0  0  0  0  0
  1  7  1  0  0  0  0
  1  2  1  0  0  0  0
  2 31  1  0  0  0  0
  3  8  1  0  0  0  0
  3  2  2  0  0  0  0
  4  3  1  0  0  0  0
  5  4  2  0  0  0  0
  5  6  1  0  0  0  0
  6  1  2  0  0  0  0
  9  5  1  0  0  0  0
  9 10  1  0  0  0  0
 10 11  1  0  0  0  0
 12 10  2  0  0  0  0
 12 13  1  0  0  0  0
 14 12  1  0  0  0  0
 15 16  1  0  0  0  0
 15 14  2  0  0  0  0
 16  9  2  0  0  0  0
 17 16  1  0  0  0  0
 18 15  1  0  0  0  0
 19 18  1  0  0  0  0
 19 28  1  0  0  0  0
 20 19  2  0  0  0  0
 21 20  1  0  0  0  0
 22 20  1  0  0  0  0
 22 24  2  0  0  0  0
 23 22  1  0  0  0  0
 24 26  1  0  0  0  0
 25 24  1  0  0  0  0
 26 28  2  0  0  0  0
 26 27  1  0  0  0  0
 28 29  1  0  0  0  0
 29 14  1  0  0  0  0
 29 30  1  0  0  0  0
 31 34  1  0  0  0  0
 31 32  1  0  0  0  0
 33 31  1  0  0  0  0
 34 36  1  0  0  0  0
 34 38  1  0  0  0  0
 35 34  1  0  0  0  0
 37 42  1  0  0  0  0
 38 37  2  0  0  0  0
 38 39  1  0  0  0  0
 39 40  2  0  0  0  0
 40 41  1  0  0  0  0
 40 44  1  0  0  0  0
 41 45  1  0  0  0  0
 42 46  1  0  0  0  0
 42 41  2  0  0  0  0
 43 39  1  0  0  0  0
 47 48  2  0  0  0  0
 47 37  1  0  0  0  0
 49 47  2  0  0  0  0
 50 47  1  0  0  0  0
M  END
>  <minimizedAffinity>
-7.2667923

$$$$

 OpenBabel03242518033D

 50 54  0  0  0  0  0  0  0  0999 V2000
   39.3210   32.8160   40.7290 C   0  0  0  0  0  0  0  0  0  0  0  0
   38.5650   33.9230   40.2480 C   0  0  0  0  0  0  0  0  0  0  0  0
   37.3850   33.6220   39.5550 C   0  0  0  0  0  0  0  0  0  0  0  0
   37.0350   32.3220   39.3830 N   0  0  0  0  0  0  0  0  0  0  0  0
   37.7730   31.3110   39.8490 C   0  0  0  0  0  0  0  0  0  0  0  0
   38.8950   31.5660   40.5090 N   0  0  0  0  0  0  0  0  0  0  0  0
   40.2460   32.9490   41.2750 H   0  0  0  0  0  0  0  0  0  0  0  0
   36.7810   34.4420   39.1740 H   0  0  0  0  0  0  0  0  0  0  0  0
   37.3630   29.9260   39.6420 C   0  0  0  0  0  0  0  0  0  0  0  0
   36.2440   29.6420   38.8840 C   0  0  0  0  0  0  0  0  0  0  0  0
   35.6740   30.4620   38.4420 H   0  0  0  0  0  0  0  0  0  0  0  0
   35.8630   28.3290   38.6930 C   0  0  0  0  0  0  0  0  0  0  0  0
   34.9660   28.1960   38.0800 H   0  0  0  0  0  0  0  0  0  0  0  0
   36.5440   27.2540   39.2260 C   0  0  0  0  0  0  0  0  0  0  0  0
   37.6530   27.5640   39.9750 C   0  0  0  0  0  0  0  0  0  0  0  0
   38.0310   28.8480   40.1650 C   0  0  0  0  0  0  0  0  0  0  0  0
   38.9080   29.0600   40.7610 H   0  0  0  0  0  0  0  0  0  0  0  0
   38.5680   26.2230   40.6850 S   0  0  0  0  0  0  0  0  0  0  0  0
   37.7440   24.7190   40.1980 C   0  0  0  0  0  0  0  0  0  0  0  0
   38.3000   23.5580   40.6490 C   0  0  0  0  0  0  0  0  0  0  0  0
   39.1790   23.5070   41.2610 H   0  0  0  0  0  0  0  0  0  0  0  0
   37.7080   22.3610   40.3050 C   0  0  0  0  0  0  0  0  0  0  0  0
   38.0720   21.3910   40.6130 H   0  0  0  0  0  0  0  0  0  0  0  0
   36.5740   22.3650   39.5200 C   0  0  0  0  0  0  0  0  0  0  0  0
   36.0910   21.4410   39.2370 H   0  0  0  0  0  0  0  0  0  0  0  0
   36.0800   23.5860   39.1090 C   0  0  0  0  0  0  0  0  0  0  0  0
   35.1760   23.5300   38.4860 H   0  0  0  0  0  0  0  0  0  0  0  0
   36.6210   24.8190   39.4140 C   0  0  0  0  0  0  0  0  0  0  0  0
   36.0190   25.9790   38.9320 N   0  0  0  0  0  0  0  0  0  0  0  0
   35.1640   25.8720   38.3470 H   0  0  0  0  0  0  0  0  0  0  0  0
   39.0300   35.2800   40.4800 C   0  0  0  0  0  0  0  0  0  0  0  0
   38.9060   35.6600   41.4990 H   0  0  0  0  0  0  0  0  0  0  0  0
   38.3700   35.9520   39.8540 H   0  0  0  0  0  0  0  0  0  0  0  0
   40.4500   35.3760   39.9480 C   0  0  0  0  0  0  0  0  0  0  0  0
   40.4720   36.1010   39.1030 H   0  0  0  0  0  0  0  0  0  0  0  0
   40.7720   34.4060   39.4640 H   0  0  0  0  0  0  0  0  0  0  0  0
   42.5820   34.8430   41.0500 C   0  0  0  0  0  0  0  0  0  0  0  0
   41.4600   35.6500   40.9710 C   0  0  0  0  0  0  0  0  0  0  0  0
   41.2480   36.7120   41.8170 C   0  0  0  0  0  0  0  0  0  0  0  0
   42.2000   36.9740   42.7810 C   0  0  0  0  0  0  0  0  0  0  0  0
   43.3300   36.2310   42.9310 C   0  0  0  0  0  0  0  0  0  0  0  0
   43.4720   35.1770   42.0400 C   0  0  0  0  0  0  0  0  0  0  0  0
   40.4270   37.3720   41.8250 H   0  0  0  0  0  0  0  0  0  0  0  0
   42.0950   37.8070   43.4930 H   0  0  0  0  0  0  0  0  0  0  0  0
   44.0780   36.4250   43.6780 H   0  0  0  0  0  0  0  0  0  0  0  0
   44.3720   34.5610   42.1330 H   0  0  0  0  0  0  0  0  0  0  0  0
   42.8900   33.4860   39.9980 S   0  0  0  0  0  0  0  0  0  0  0  0
   43.9750   32.5760   40.5350 O   0  0  0  0  0  0  0  0  0  0  0  0
   43.4760   34.0070   38.6990 O   0  0  0  0  0  0  0  0  0  0  0  0
   41.7700   32.8080   39.6310 H   0  0  0  0  0  0  0  0  0  0  0  0
  1  7  1  0  0  0  0
  2 31  1  0  0  0  0
  2  1  2  0  0  0  0
  3  2  1  0  0  0  0
  4  3  2  0  0  0  0
  4  5  1  0  0  0  0
  5  6  2  0  0  0  0
  6  1  1  0  0  0  0
  8  3  1  0  0  0  0
  9  5  1  0  0  0  0
  9 16  1  0  0  0  0
 10  9  2  0  0  0  0
 11 10  1  0  0  0  0
 12 10  1  0  0  0  0
 12 14  2  0  0  0  0
 13 12  1  0  0  0  0
 14 15  1  0  0  0  0
 15 16  2  0  0  0  0
 15 18  1  0  0  0  0
 16 17  1  0  0  0  0
 19 20  1  0  0  0  0
 19 18  1  0  0  0  0
 20 21  1  0  0  0  0
 22 23  1  0  0  0  0
 22 20  2  0  0  0  0
 24 22  1  0  0  0  0
 25 24  1  0  0  0  0
 26 28  1  0  0  0  0
 26 24  2  0  0  0  0
 27 26  1  0  0  0  0
 28 19  2  0  0  0  0
 29 14  1  0  0  0  0
 29 28  1  0  0  0  0
 30 29  1  0  0  0  0
 31 32  1  0  0  0  0
 33 31  1  0  0  0  0
 34 31  1  0  0  0  0
 34 38  1  0  0  0  0
 35 34  1  0  0  0  0
 36 34  1  0  0  0  0
 37 42  1  0  0  0  0
 38 37  2  0  0  0  0
 38 39  1  0  0  0  0
 39 43  1  0  0  0  0
 39 40  2  0  0  0  0
 40 41  1  0  0  0  0
 40 44  1  0  0  0  0
 41 45  1  0  0  0  0
 42 46  1  0  0  0  0
 42 41  2  0  0  0  0
 47 48  2  0  0  0  0
 47 37  1  0  0  0  0
 49 47  2  0  0  0  0
 50 47  1  0  0  0  0
M  END
>  <minimizedAffinity>
-7.1213789

$$$$

 OpenBabel03242518033D

 50 54  0  0  0  0  0  0  0  0999 V2000
   35.7450   25.2270   38.4130 C   0  0  0  0  0  0  0  0  0  0  0  0
   36.4950   25.7430   39.5090 C   0  0  0  0  0  0  0  0  0  0  0  0
   36.4370   27.1280   39.7120 C   0  0  0  0  0  0  0  0  0  0  0  0
   35.6870   27.8860   38.8720 N   0  0  0  0  0  0  0  0  0  0  0  0
   34.9980   27.3640   37.8540 C   0  0  0  0  0  0  0  0  0  0  0  0
   35.0340   26.0550   37.6390 N   0  0  0  0  0  0  0  0  0  0  0  0
   35.7290   24.1710   38.1780 H   0  0  0  0  0  0  0  0  0  0  0  0
   36.9960   27.5570   40.5400 H   0  0  0  0  0  0  0  0  0  0  0  0
   34.2030   28.2140   36.9730 C   0  0  0  0  0  0  0  0  0  0  0  0
   34.6290   28.4630   35.6840 C   0  0  0  0  0  0  0  0  0  0  0  0
   35.5620   28.0190   35.3330 H   0  0  0  0  0  0  0  0  0  0  0  0
   33.8710   29.2690   34.8580 C   0  0  0  0  0  0  0  0  0  0  0  0
   34.2840   29.4130   33.8540 H   0  0  0  0  0  0  0  0  0  0  0  0
   32.6860   29.8560   35.2470 C   0  0  0  0  0  0  0  0  0  0  0  0
   32.2850   29.5920   36.5340 C   0  0  0  0  0  0  0  0  0  0  0  0
   33.0230   28.8040   37.3480 C   0  0  0  0  0  0  0  0  0  0  0  0
   32.6800   28.6140   38.3550 H   0  0  0  0  0  0  0  0  0  0  0  0
   30.7680   30.3200   37.0900 S   0  0  0  0  0  0  0  0  0  0  0  0
   30.1200   31.2710   35.7270 C   0  0  0  0  0  0  0  0  0  0  0  0
   28.9420   31.9190   35.9560 C   0  0  0  0  0  0  0  0  0  0  0  0
   28.4040   31.8850   36.8820 H   0  0  0  0  0  0  0  0  0  0  0  0
   28.3900   32.6700   34.9400 C   0  0  0  0  0  0  0  0  0  0  0  0
   27.4620   33.2190   35.0230 H   0  0  0  0  0  0  0  0  0  0  0  0
   29.0390   32.7510   33.7250 C   0  0  0  0  0  0  0  0  0  0  0  0
   28.6280   33.3330   32.9130 H   0  0  0  0  0  0  0  0  0  0  0  0
   30.2260   32.0620   33.5840 C   0  0  0  0  0  0  0  0  0  0  0  0
   30.7000   32.1620   32.5950 H   0  0  0  0  0  0  0  0  0  0  0  0
   30.8340   31.2930   34.5540 C   0  0  0  0  0  0  0  0  0  0  0  0
   32.0380   30.6490   34.2770 N   0  0  0  0  0  0  0  0  0  0  0  0
   32.4460   30.7750   33.3270 H   0  0  0  0  0  0  0  0  0  0  0  0
   37.2730   24.8450   40.3470 C   0  0  0  0  0  0  0  0  0  0  0  0
   38.3130   24.6890   40.0420 H   0  0  0  0  0  0  0  0  0  0  0  0
   36.8000   23.8230   40.2410 H   0  0  0  0  0  0  0  0  0  0  0  0
   37.1070   25.3020   41.7860 C   0  0  0  0  0  0  0  0  0  0  0  0
   36.4530   24.5770   42.3230 H   0  0  0  0  0  0  0  0  0  0  0  0
   36.5230   26.2680   41.8450 H   0  0  0  0  0  0  0  0  0  0  0  0
   38.5120   26.7510   43.1910 C   0  0  0  0  0  0  0  0  0  0  0  0
   38.3660   25.5700   42.4840 C   0  0  0  0  0  0  0  0  0  0  0  0
   39.3600   24.6240   42.4050 C   0  0  0  0  0  0  0  0  0  0  0  0
   40.5470   24.8740   43.0610 C   0  0  0  0  0  0  0  0  0  0  0  0
   40.7760   26.0080   43.7780 C   0  0  0  0  0  0  0  0  0  0  0  0
   39.7250   26.9140   43.8100 C   0  0  0  0  0  0  0  0  0  0  0  0
   39.3310   23.7050   41.8910 H   0  0  0  0  0  0  0  0  0  0  0  0
   41.3870   24.1610   43.0410 H   0  0  0  0  0  0  0  0  0  0  0  0
   41.6960   26.2140   44.2940 H   0  0  0  0  0  0  0  0  0  0  0  0
   39.8770   27.8360   44.3790 H   0  0  0  0  0  0  0  0  0  0  0  0
   37.2770   27.9780   43.3160 S   0  0  0  0  0  0  0  0  0  0  0  0
   37.8250   29.3710   43.0910 O   0  0  0  0  0  0  0  0  0  0  0  0
   36.7840   28.0190   44.7510 O   0  0  0  0  0  0  0  0  0  0  0  0
   36.1690   27.7220   42.5710 H   0  0  0  0  0  0  0  0  0  0  0  0
  1  2  1  0  0  0  0
  2  3  2  0  0  0  0
  2 31  1  0  0  0  0
  3  8  1  0  0  0  0
  4  3  1  0  0  0  0
  5  4  2  0  0  0  0
  6  5  1  0  0  0  0
  6  1  2  0  0  0  0
  7  1  1  0  0  0  0
  9 16  1  0  0  0  0
  9  5  1  0  0  0  0
 10  9  2  0  0  0  0
 11 10  1  0  0  0  0
 12 14  2  0  0  0  0
 12 10  1  0  0  0  0
 13 12  1  0  0  0  0
 14 15  1  0  0  0  0
 15 18  1  0  0  0  0
 15 16  2  0  0  0  0
 16 17  1  0  0  0  0
 19 20  1  0  0  0  0
 19 18  1  0  0  0  0
 20 21  1  0  0  0  0
 22 23  1  0  0  0  0
 22 20  2  0  0  0  0
 24 22  1  0  0  0  0
 25 24  1  0  0  0  0
 26 24  2  0  0  0  0
 26 28  1  0  0  0  0
 27 26  1  0  0  0  0
 28 19  2  0  0  0  0
 29 28  1  0  0  0  0
 29 14  1  0  0  0  0
 30 29  1  0  0  0  0
 31 34  1  0  0  0  0
 32 31  1  0  0  0  0
 33 31  1  0  0  0  0
 34 36  1  0  0  0  0
 34 35  1  0  0  0  0
 34 38  1  0  0  0  0
 37 47  1  0  0  0  0
 37 42  1  0  0  0  0
 38 37  2  0  0  0  0
 39 38  1  0  0  0  0
 39 40  2  0  0  0  0
 40 41  1  0  0  0  0
 41 42  2  0  0  0  0
 41 45  1  0  0  0  0
 42 46  1  0  0  0  0
 43 39  1  0  0  0  0
 44 40  1  0  0  0  0
 47 49  2  0  0  0  0
 48 47  2  0  0  0  0
 50 47  1  0  0  0  0
M  END
>  <minimizedAffinity>
-6.94939375

$$$$

 OpenBabel03242518033D

 50 54  0  0  0  0  0  0  0  0999 V2000
   40.0590   33.1790   39.7870 C   0  0  0  0  0  0  0  0  0  0  0  0
   39.2700   34.3360   40.0490 C   0  0  0  0  0  0  0  0  0  0  0  0
   37.8810   34.1860   39.9430 C   0  0  0  0  0  0  0  0  0  0  0  0
   37.3740   32.9730   39.6040 N   0  0  0  0  0  0  0  0  0  0  0  0
   38.1480   31.9100   39.3660 C   0  0  0  0  0  0  0  0  0  0  0  0
   39.4670   32.0240   39.4590 N   0  0  0  0  0  0  0  0  0  0  0  0
   41.1390   33.1980   39.8450 H   0  0  0  0  0  0  0  0  0  0  0  0
   37.2480   35.0480   40.1350 H   0  0  0  0  0  0  0  0  0  0  0  0
   37.5630   30.6240   39.0040 C   0  0  0  0  0  0  0  0  0  0  0  0
   36.8210   30.5020   37.8470 C   0  0  0  0  0  0  0  0  0  0  0  0
   36.6780   31.3760   37.2080 H   0  0  0  0  0  0  0  0  0  0  0  0
   36.2710   29.2810   37.5120 C   0  0  0  0  0  0  0  0  0  0  0  0
   35.6990   29.2760   36.5790 H   0  0  0  0  0  0  0  0  0  0  0  0
   36.4180   28.1450   38.2800 C   0  0  0  0  0  0  0  0  0  0  0  0
   37.1610   28.2920   39.4260 C   0  0  0  0  0  0  0  0  0  0  0  0
   37.7020   29.4860   39.7590 C   0  0  0  0  0  0  0  0  0  0  0  0
   38.2820   29.5710   40.6670 H   0  0  0  0  0  0  0  0  0  0  0  0
   37.3850   26.8660   40.4520 S   0  0  0  0  0  0  0  0  0  0  0  0
   36.5220   25.5200   39.6620 C   0  0  0  0  0  0  0  0  0  0  0  0
   36.5730   24.3170   40.3040 C   0  0  0  0  0  0  0  0  0  0  0  0
   37.0890   24.1460   41.2280 H   0  0  0  0  0  0  0  0  0  0  0  0
   35.9240   23.2370   39.7420 C   0  0  0  0  0  0  0  0  0  0  0  0
   35.9070   22.2460   40.1730 H   0  0  0  0  0  0  0  0  0  0  0  0
   35.2430   23.3980   38.5540 C   0  0  0  0  0  0  0  0  0  0  0  0
   34.7270   22.5680   38.0930 H   0  0  0  0  0  0  0  0  0  0  0  0
   35.2450   24.6500   37.9750 C   0  0  0  0  0  0  0  0  0  0  0  0
   34.6860   24.7200   37.0300 H   0  0  0  0  0  0  0  0  0  0  0  0
   35.8700   25.7710   38.4800 C   0  0  0  0  0  0  0  0  0  0  0  0
   35.7910   26.9800   37.7910 N   0  0  0  0  0  0  0  0  0  0  0  0
   35.2510   26.9940   36.9010 H   0  0  0  0  0  0  0  0  0  0  0  0
   39.9130   35.5930   40.3980 C   0  0  0  0  0  0  0  0  0  0  0  0
   39.6470   36.0080   41.3750 H   0  0  0  0  0  0  0  0  0  0  0  0
   39.5290   36.3600   39.6600 H   0  0  0  0  0  0  0  0  0  0  0  0
   41.4060   35.4220   40.1770 C   0  0  0  0  0  0  0  0  0  0  0  0
   41.7090   36.0130   39.2830 H   0  0  0  0  0  0  0  0  0  0  0  0
   41.6570   34.3600   39.8810 H   0  0  0  0  0  0  0  0  0  0  0  0
   43.3310   34.9060   41.6160 C   0  0  0  0  0  0  0  0  0  0  0  0
   42.2260   35.6980   41.3580 C   0  0  0  0  0  0  0  0  0  0  0  0
   41.8590   36.7460   42.1660 C   0  0  0  0  0  0  0  0  0  0  0  0
   42.6300   37.0090   43.2790 C   0  0  0  0  0  0  0  0  0  0  0  0
   43.7310   36.2800   43.6090 C   0  0  0  0  0  0  0  0  0  0  0  0
   44.0370   35.2400   42.7440 C   0  0  0  0  0  0  0  0  0  0  0  0
   41.0370   37.3950   42.0420 H   0  0  0  0  0  0  0  0  0  0  0  0
   42.3950   37.8330   43.9720 H   0  0  0  0  0  0  0  0  0  0  0  0
   44.3400   36.4750   44.4730 H   0  0  0  0  0  0  0  0  0  0  0  0
   44.9180   34.6350   42.9820 H   0  0  0  0  0  0  0  0  0  0  0  0
   43.8330   33.5660   40.6180 S   0  0  0  0  0  0  0  0  0  0  0  0
   44.8710   32.6980   41.2970 O   0  0  0  0  0  0  0  0  0  0  0  0
   44.5660   34.1150   39.4080 O   0  0  0  0  0  0  0  0  0  0  0  0
   42.8010   32.8450   40.1040 H   0  0  0  0  0  0  0  0  0  0  0  0
  1  7  1  0  0  0  0
  1  2  1  0  0  0  0
  2 31  1  0  0  0  0
  3  2  2  0  0  0  0
  3  8  1  0  0  0  0
  4  3  1  0  0  0  0
  5  6  1  0  0  0  0
  5  4  2  0  0  0  0
  6  1  2  0  0  0  0
  9  5  1  0  0  0  0
  9 16  1  0  0  0  0
 10  9  2  0  0  0  0
 11 10  1  0  0  0  0
 12 10  1  0  0  0  0
 12 14  2  0  0  0  0
 13 12  1  0  0  0  0
 14 15  1  0  0  0  0
 15 16  2  0  0  0  0
 15 18  1  0  0  0  0
 16 17  1  0  0  0  0
 19 20  1  0  0  0  0
 19 18  1  0  0  0  0
 20 21  1  0  0  0  0
 22 23  1  0  0  0  0
 22 20  2  0  0  0  0
 24 22  1  0  0  0  0
 25 24  1  0  0  0  0
 26 28  1  0  0  0  0
 26 24  2  0  0  0  0
 27 26  1  0  0  0  0
 28 19  2  0  0  0  0
 29 14  1  0  0  0  0
 29 28  1  0  0  0  0
 30 29  1  0  0  0  0
 31 32  1  0  0  0  0
 33 31  1  0  0  0  0
 34 31  1  0  0  0  0
 34 38  1  0  0  0  0
 35 34  1  0  0  0  0
 36 34  1  0  0  0  0
 37 42  1  0  0  0  0
 38 37  2  0  0  0  0
 38 39  1  0  0  0  0
 39 40  2  0  0  0  0
 40 41  1  0  0  0  0
 40 44  1  0  0  0  0
 41 45  1  0  0  0  0
 42 46  1  0  0  0  0
 42 41  2  0  0  0  0
 43 39  1  0  0  0  0
 47 48  2  0  0  0  0
 47 37  1  0  0  0  0
 49 47  2  0  0  0  0
 50 47  1  0  0  0  0
M  END
>  <minimizedAffinity>
-6.9423461

$$$$

 OpenBabel03242518033D

 50 54  0  0  0  0  0  0  0  0999 V2000
   36.6060   31.3450   39.3480 C   0  0  0  0  0  0  0  0  0  0  0  0
   36.8630   30.3860   38.3260 C   0  0  0  0  0  0  0  0  0  0  0  0
   38.1820   30.3010   37.8630 C   0  0  0  0  0  0  0  0  0  0  0  0
   39.1230   31.1180   38.4000 N   0  0  0  0  0  0  0  0  0  0  0  0
   38.8420   32.0060   39.3580 C   0  0  0  0  0  0  0  0  0  0  0  0
   37.6010   32.1080   39.8160 N   0  0  0  0  0  0  0  0  0  0  0  0
   35.6190   31.4830   39.7680 H   0  0  0  0  0  0  0  0  0  0  0  0
   38.4150   29.5800   37.0830 H   0  0  0  0  0  0  0  0  0  0  0  0
   39.8830   32.8680   39.9100 C   0  0  0  0  0  0  0  0  0  0  0  0
   39.7490   34.2400   39.8510 C   0  0  0  0  0  0  0  0  0  0  0  0
   38.8580   34.6720   39.3890 H   0  0  0  0  0  0  0  0  0  0  0  0
   40.7390   35.0470   40.3750 C   0  0  0  0  0  0  0  0  0  0  0  0
   40.5490   36.1210   40.2850 H   0  0  0  0  0  0  0  0  0  0  0  0
   41.8830   34.5580   40.9680 C   0  0  0  0  0  0  0  0  0  0  0  0
   41.9930   33.1900   41.0140 C   0  0  0  0  0  0  0  0  0  0  0  0
   41.0260   32.3940   40.5030 C   0  0  0  0  0  0  0  0  0  0  0  0
   41.1410   31.3210   40.5540 H   0  0  0  0  0  0  0  0  0  0  0  0
   43.4430   32.5040   41.7660 S   0  0  0  0  0  0  0  0  0  0  0  0
   44.4460   33.8780   42.3020 C   0  0  0  0  0  0  0  0  0  0  0  0
   45.6230   33.5570   42.9140 C   0  0  0  0  0  0  0  0  0  0  0  0
   45.9620   32.5540   43.0830 H   0  0  0  0  0  0  0  0  0  0  0  0
   46.4420   34.5760   43.3510 C   0  0  0  0  0  0  0  0  0  0  0  0
   47.3920   34.4240   43.8460 H   0  0  0  0  0  0  0  0  0  0  0  0
   46.0570   35.8860   43.1600 C   0  0  0  0  0  0  0  0  0  0  0  0
   46.6810   36.7030   43.4940 H   0  0  0  0  0  0  0  0  0  0  0  0
   44.8510   36.1170   42.5330 C   0  0  0  0  0  0  0  0  0  0  0  0
   44.5940   37.1800   42.4070 H   0  0  0  0  0  0  0  0  0  0  0  0
   43.9830   35.1490   42.0710 C   0  0  0  0  0  0  0  0  0  0  0  0
   42.7910   35.5220   41.4520 N   0  0  0  0  0  0  0  0  0  0  0  0
   42.5950   36.5410   41.3570 H   0  0  0  0  0  0  0  0  0  0  0  0
   35.7820   29.5620   37.8120 C   0  0  0  0  0  0  0  0  0  0  0  0
   36.0200   28.9580   36.9310 H   0  0  0  0  0  0  0  0  0  0  0  0
   34.9840   30.2760   37.4470 H   0  0  0  0  0  0  0  0  0  0  0  0
   35.2150   28.7680   38.9770 C   0  0  0  0  0  0  0  0  0  0  0  0
   34.1100   28.6880   38.8580 H   0  0  0  0  0  0  0  0  0  0  0  0
   35.3290   29.3330   39.9500 H   0  0  0  0  0  0  0  0  0  0  0  0
   36.5360   27.2530   40.3920 C   0  0  0  0  0  0  0  0  0  0  0  0
   35.8670   27.4770   39.2020 C   0  0  0  0  0  0  0  0  0  0  0  0
   35.7830   26.5320   38.2080 C   0  0  0  0  0  0  0  0  0  0  0  0
   36.3950   25.3140   38.4170 C   0  0  0  0  0  0  0  0  0  0  0  0
   37.0750   25.0100   39.5560 C   0  0  0  0  0  0  0  0  0  0  0  0
   37.1150   26.0150   40.5110 C   0  0  0  0  0  0  0  0  0  0  0  0
   35.2960   26.6210   37.2770 H   0  0  0  0  0  0  0  0  0  0  0  0
   36.3700   24.5100   37.6640 H   0  0  0  0  0  0  0  0  0  0  0  0
   37.5560   24.0650   39.7310 H   0  0  0  0  0  0  0  0  0  0  0  0
   37.6540   25.8010   41.4400 H   0  0  0  0  0  0  0  0  0  0  0  0
   36.6680   28.4240   41.6790 S   0  0  0  0  0  0  0  0  0  0  0  0
   38.0330   29.0770   41.7260 O   0  0  0  0  0  0  0  0  0  0  0  0
   36.5790   27.6920   43.0060 O   0  0  0  0  0  0  0  0  0  0  0  0
   35.6520   29.3270   41.7080 H   0  0  0  0  0  0  0  0  0  0  0  0
  1  7  1  0  0  0  0
  1  6  1  0  0  0  0
  2  1  2  0  0  0  0
  3  2  1  0  0  0  0
  3  4  2  0  0  0  0
  4  5  1  0  0  0  0
  5  6  2  0  0  0  0
  5  9  1  0  0  0  0
  8  3  1  0  0  0  0
  9 16  1  0  0  0  0
 10  9  2  0  0  0  0
 10 12  1  0  0  0  0
 11 10  1  0  0  0  0
 12 14  2  0  0  0  0
 13 12  1  0  0  0  0
 14 15  1  0  0  0  0
 14 29  1  0  0  0  0
 15 18  1  0  0  0  0
 16 17  1  0  0  0  0
 16 15  2  0  0  0  0
 18 19  1  0  0  0  0
 19 20  1  0  0  0  0
 20 21  1  0  0  0  0
 20 22  2  0  0  0  0
 22 23  1  0  0  0  0
 24 22  1  0  0  0  0
 24 25  1  0  0  0  0
 26 24  2  0  0  0  0
 27 26  1  0  0  0  0
 28 19  2  0  0  0  0
 28 26  1  0  0  0  0
 29 28  1  0  0  0  0
 30 29  1  0  0  0  0
 31  2  1  0  0  0  0
 31 34  1  0  0  0  0
 32 31  1  0  0  0  0
 33 31  1  0  0  0  0
 34 38  1  0  0  0  0
 34 36  1  0  0  0  0
 35 34  1  0  0  0  0
 37 42  1  0  0  0  0
 37 47  1  0  0  0  0
 38 37  2  0  0  0  0
 39 40  2  0  0  0  0
 39 38  1  0  0  0  0
 40 41  1  0  0  0  0
 41 45  1  0  0  0  0
 41 42  2  0  0  0  0
 42 46  1  0  0  0  0
 43 39  1  0  0  0  0
 44 40  1  0  0  0  0
 47 50  1  0  0  0  0
 47 48  2  0  0  0  0
 47 49  2  0  0  0  0
M  END
>  <minimizedAffinity>
-6.91476822

$$$$

 OpenBabel03242518033D

 50 54  0  0  0  0  0  0  0  0999 V2000
   36.8890   26.0430   40.1300 C   0  0  0  0  0  0  0  0  0  0  0  0
   37.2680   25.3850   41.3350 C   0  0  0  0  0  0  0  0  0  0  0  0
   37.7650   26.1970   42.3630 C   0  0  0  0  0  0  0  0  0  0  0  0
   37.8570   27.5360   42.1590 N   0  0  0  0  0  0  0  0  0  0  0  0
   37.4910   28.1150   41.0120 C   0  0  0  0  0  0  0  0  0  0  0  0
   37.0170   27.3710   40.0220 N   0  0  0  0  0  0  0  0  0  0  0  0
   36.4940   25.4990   39.2820 H   0  0  0  0  0  0  0  0  0  0  0  0
   38.0640   25.7300   43.2980 H   0  0  0  0  0  0  0  0  0  0  0  0
   37.6070   29.5590   40.8320 C   0  0  0  0  0  0  0  0  0  0  0  0
   36.4740   30.3270   40.6560 C   0  0  0  0  0  0  0  0  0  0  0  0
   35.4950   29.8440   40.6540 H   0  0  0  0  0  0  0  0  0  0  0  0
   36.5930   31.6920   40.4870 C   0  0  0  0  0  0  0  0  0  0  0  0
   35.6440   32.2210   40.3540 H   0  0  0  0  0  0  0  0  0  0  0  0
   37.8020   32.3550   40.4810 C   0  0  0  0  0  0  0  0  0  0  0  0
   38.9140   31.5680   40.6580 C   0  0  0  0  0  0  0  0  0  0  0  0
   38.8030   30.2310   40.8250 C   0  0  0  0  0  0  0  0  0  0  0  0
   39.6970   29.6380   40.9620 H   0  0  0  0  0  0  0  0  0  0  0  0
   40.4950   32.3660   40.6600 S   0  0  0  0  0  0  0  0  0  0  0  0
   40.1980   34.1070   40.4140 C   0  0  0  0  0  0  0  0  0  0  0  0
   41.3040   34.9050   40.3840 C   0  0  0  0  0  0  0  0  0  0  0  0
   42.3080   34.5500   40.4980 H   0  0  0  0  0  0  0  0  0  0  0  0
   41.1380   36.2610   40.1970 C   0  0  0  0  0  0  0  0  0  0  0  0
   41.9490   36.9740   40.1580 H   0  0  0  0  0  0  0  0  0  0  0  0
   39.8670   36.7750   40.0440 C   0  0  0  0  0  0  0  0  0  0  0  0
   39.7090   37.8340   39.8970 H   0  0  0  0  0  0  0  0  0  0  0  0
   38.8070   35.8930   40.0890 C   0  0  0  0  0  0  0  0  0  0  0  0
   37.8170   36.3580   39.9620 H   0  0  0  0  0  0  0  0  0  0  0  0
   38.8990   34.5290   40.2730 C   0  0  0  0  0  0  0  0  0  0  0  0
   37.7430   33.7520   40.2960 N   0  0  0  0  0  0  0  0  0  0  0  0
   36.8310   34.2390   40.1710 H   0  0  0  0  0  0  0  0  0  0  0  0
   37.1360   23.9420   41.4510 C   0  0  0  0  0  0  0  0  0  0  0  0
   36.1850   23.5810   41.8570 H   0  0  0  0  0  0  0  0  0  0  0  0
   37.9020   23.6150   42.2160 H   0  0  0  0  0  0  0  0  0  0  0  0
   37.5110   23.3380   40.1090 C   0  0  0  0  0  0  0  0  0  0  0  0
   38.5380   22.9110   40.1790 H   0  0  0  0  0  0  0  0  0  0  0  0
   37.6180   24.1360   39.3160 H   0  0  0  0  0  0  0  0  0  0  0  0
   36.9000   21.0780   39.3590 C   0  0  0  0  0  0  0  0  0  0  0  0
   36.5280   22.3930   39.5770 C   0  0  0  0  0  0  0  0  0  0  0  0
   35.2630   22.8600   39.3140 C   0  0  0  0  0  0  0  0  0  0  0  0
   34.3340   21.9720   38.8120 C   0  0  0  0  0  0  0  0  0  0  0  0
   34.6140   20.6630   38.5670 C   0  0  0  0  0  0  0  0  0  0  0  0
   35.9120   20.2680   38.8570 C   0  0  0  0  0  0  0  0  0  0  0  0
   34.8990   23.8400   39.4500 H   0  0  0  0  0  0  0  0  0  0  0  0
   33.3020   22.2770   38.5780 H   0  0  0  0  0  0  0  0  0  0  0  0
   33.9000   19.9620   38.1760 H   0  0  0  0  0  0  0  0  0  0  0  0
   36.1690   19.2200   38.6720 H   0  0  0  0  0  0  0  0  0  0  0  0
   38.4940   20.4430   39.6770 S   0  0  0  0  0  0  0  0  0  0  0  0
   39.0720   19.7130   38.4830 O   0  0  0  0  0  0  0  0  0  0  0  0
   38.3780   19.3600   40.7340 O   0  0  0  0  0  0  0  0  0  0  0  0
   39.3550   21.3550   40.2020 H   0  0  0  0  0  0  0  0  0  0  0  0
  1  2  1  0  0  0  0
  2 31  1  0  0  0  0
  2  3  2  0  0  0  0
  3  8  1  0  0  0  0
  4  3  1  0  0  0  0
  5  4  2  0  0  0  0
  6  1  2  0  0  0  0
  6  5  1  0  0  0  0
  7  1  1  0  0  0  0
  9  5  1  0  0  0  0
 10  9  2  0  0  0  0
 11 10  1  0  0  0  0
 12 10  1  0  0  0  0
 13 12  1  0  0  0  0
 14 12  2  0  0  0  0
 14 15  1  0  0  0  0
 15 18  1  0  0  0  0
 15 16  2  0  0  0  0
 16  9  1  0  0  0  0
 16 17  1  0  0  0  0
 19 18  1  0  0  0  0
 20 19  1  0  0  0  0
 20 21  1  0  0  0  0
 22 20  2  0  0  0  0
 23 22  1  0  0  0  0
 24 26  2  0  0  0  0
 24 22  1  0  0  0  0
 25 24  1  0  0  0  0
 26 28  1  0  0  0  0
 27 26  1  0  0  0  0
 28 29  1  0  0  0  0
 28 19  2  0  0  0  0
 29 14  1  0  0  0  0
 30 29  1  0  0  0  0
 31 32  1  0  0  0  0
 31 33  1  0  0  0  0
 34 35  1  0  0  0  0
 34 31  1  0  0  0  0
 36 34  1  0  0  0  0
 37 38  1  0  0  0  0
 37 47  1  0  0  0  0
 38 34  1  0  0  0  0
 39 43  1  0  0  0  0
 39 38  2  0  0  0  0
 40 39  1  0  0  0  0
 41 40  2  0  0  0  0
 41 42  1  0  0  0  0
 42 37  2  0  0  0  0
 44 40  1  0  0  0  0
 45 41  1  0  0  0  0
 46 42  1  0  0  0  0
 47 50  1  0  0  0  0
 47 49  2  0  0  0  0
 48 47  2  0  0  0  0
M  END
>  <minimizedAffinity>
-6.86758947

$$$$

 OpenBabel03242518033D

 50 54  0  0  0  0  0  0  0  0999 V2000
   35.9910   25.7510   38.5490 C   0  0  0  0  0  0  0  0  0  0  0  0
   36.2760   24.8100   39.5790 C   0  0  0  0  0  0  0  0  0  0  0  0
   36.8130   25.3230   40.7660 C   0  0  0  0  0  0  0  0  0  0  0  0
   37.0290   26.6590   40.8680 N   0  0  0  0  0  0  0  0  0  0  0  0
   36.7480   27.5110   39.8770 C   0  0  0  0  0  0  0  0  0  0  0  0
   36.2380   27.0520   38.7420 N   0  0  0  0  0  0  0  0  0  0  0  0
   35.5740   25.4480   37.5970 H   0  0  0  0  0  0  0  0  0  0  0  0
   37.0430   24.6340   41.5750 H   0  0  0  0  0  0  0  0  0  0  0  0
   36.9950   28.9410   40.0260 C   0  0  0  0  0  0  0  0  0  0  0  0
   36.0240   29.7580   40.5700 C   0  0  0  0  0  0  0  0  0  0  0  0
   35.0740   29.3230   40.8870 H   0  0  0  0  0  0  0  0  0  0  0  0
   36.2660   31.1100   40.7080 C   0  0  0  0  0  0  0  0  0  0  0  0
   35.4430   31.6810   41.1470 H   0  0  0  0  0  0  0  0  0  0  0  0
   37.4460   31.7130   40.3260 C   0  0  0  0  0  0  0  0  0  0  0  0
   38.3950   30.8790   39.7880 C   0  0  0  0  0  0  0  0  0  0  0  0
   38.1640   29.5540   39.6510 C   0  0  0  0  0  0  0  0  0  0  0  0
   38.9300   28.9230   39.2240 H   0  0  0  0  0  0  0  0  0  0  0  0
   39.9320   31.5990   39.2800 S   0  0  0  0  0  0  0  0  0  0  0  0
   39.8270   33.3450   39.6300 C   0  0  0  0  0  0  0  0  0  0  0  0
   40.9250   34.0880   39.3060 C   0  0  0  0  0  0  0  0  0  0  0  0
   41.8170   33.6880   38.8670 H   0  0  0  0  0  0  0  0  0  0  0  0
   40.9040   35.4440   39.5530 C   0  0  0  0  0  0  0  0  0  0  0  0
   41.7210   36.1160   39.3330 H   0  0  0  0  0  0  0  0  0  0  0  0
   39.7810   36.0140   40.1160 C   0  0  0  0  0  0  0  0  0  0  0  0
   39.7390   37.0750   40.3210 H   0  0  0  0  0  0  0  0  0  0  0  0
   38.7180   35.1860   40.4110 C   0  0  0  0  0  0  0  0  0  0  0  0
   37.8500   35.6940   40.8580 H   0  0  0  0  0  0  0  0  0  0  0  0
   38.6700   33.8250   40.1920 C   0  0  0  0  0  0  0  0  0  0  0  0
   37.5280   33.1050   40.5370 N   0  0  0  0  0  0  0  0  0  0  0  0
   36.7340   33.6330   40.9570 H   0  0  0  0  0  0  0  0  0  0  0  0
   36.0140   23.3950   39.3670 C   0  0  0  0  0  0  0  0  0  0  0  0
   35.6770   22.8360   40.2460 H   0  0  0  0  0  0  0  0  0  0  0  0
   37.0100   22.9250   39.1080 H   0  0  0  0  0  0  0  0  0  0  0  0
   35.0990   23.2730   38.1610 C   0  0  0  0  0  0  0  0  0  0  0  0
   35.4470   22.4250   37.5270 H   0  0  0  0  0  0  0  0  0  0  0  0
   35.2030   24.1660   37.4760 H   0  0  0  0  0  0  0  0  0  0  0  0
   32.7500   23.7680   37.6280 C   0  0  0  0  0  0  0  0  0  0  0  0
   33.6740   23.2020   38.4900 C   0  0  0  0  0  0  0  0  0  0  0  0
   33.3120   22.5670   39.6530 C   0  0  0  0  0  0  0  0  0  0  0  0
   31.9700   22.4980   39.9650 C   0  0  0  0  0  0  0  0  0  0  0  0
   30.9960   23.0280   39.1760 C   0  0  0  0  0  0  0  0  0  0  0  0
   31.4410   23.6520   38.0200 C   0  0  0  0  0  0  0  0  0  0  0  0
   33.9480   22.1130   40.3610 H   0  0  0  0  0  0  0  0  0  0  0  0
   31.6080   22.0050   40.8810 H   0  0  0  0  0  0  0  0  0  0  0  0
   29.9480   22.9810   39.4080 H   0  0  0  0  0  0  0  0  0  0  0  0
   30.6810   24.0880   37.3630 H   0  0  0  0  0  0  0  0  0  0  0  0
   33.1660   24.5830   36.1420 S   0  0  0  0  0  0  0  0  0  0  0  0
   33.2640   26.0840   36.3160 O   0  0  0  0  0  0  0  0  0  0  0  0
   32.0180   24.4140   35.1630 O   0  0  0  0  0  0  0  0  0  0  0  0
   34.2470   24.0560   35.5090 H   0  0  0  0  0  0  0  0  0  0  0  0
  1  6  2  0  0  0  0
  1  2  1  0  0  0  0
  2  3  2  0  0  0  0
  3  4  1  0  0  0  0
  3  8  1  0  0  0  0
  5  9  1  0  0  0  0
  5  4  2  0  0  0  0
  6  5  1  0  0  0  0
  7  1  1  0  0  0  0
  9 10  1  0  0  0  0
 10 12  2  0  0  0  0
 10 11  1  0  0  0  0
 12 13  1  0  0  0  0
 14 29  1  0  0  0  0
 14 12  1  0  0  0  0
 15 14  2  0  0  0  0
 16 15  1  0  0  0  0
 16  9  2  0  0  0  0
 17 16  1  0  0  0  0
 18 19  1  0  0  0  0
 18 15  1  0  0  0  0
 19 28  1  0  0  0  0
 20 22  1  0  0  0  0
 20 19  2  0  0  0  0
 21 20  1  0  0  0  0
 22 24  2  0  0  0  0
 23 22  1  0  0  0  0
 24 25  1  0  0  0  0
 24 26  1  0  0  0  0
 26 27  1  0  0  0  0
 28 26  2  0  0  0  0
 28 29  1  0  0  0  0
 29 30  1  0  0  0  0
 31  2  1  0  0  0  0
 31 32  1  0  0  0  0
 33 31  1  0  0  0  0
 34 38  1  0  0  0  0
 34 31  1  0  0  0  0
 35 34  1  0  0  0  0
 36 34  1  0  0  0  0
 37 42  2  0  0  0  0
 37 38  1  0  0  0  0
 38 39  2  0  0  0  0
 39 40  1  0  0  0  0
 39 43  1  0  0  0  0
 40 44  1  0  0  0  0
 41 45  1  0  0  0  0
 41 40  2  0  0  0  0
 42 41  1  0  0  0  0
 46 42  1  0  0  0  0
 47 48  2  0  0  0  0
 47 37  1  0  0  0  0
 49 47  2  0  0  0  0
 50 47  1  0  0  0  0
M  END
>  <minimizedAffinity>
-6.8314786

$$$$

 OpenBabel03242518033D

 50 54  0  0  0  0  0  0  0  0999 V2000
   37.0070   26.5620   40.1290 C   0  0  0  0  0  0  0  0  0  0  0  0
   37.0430   25.9880   41.4320 C   0  0  0  0  0  0  0  0  0  0  0  0
   37.2580   26.8700   42.4990 C   0  0  0  0  0  0  0  0  0  0  0  0
   37.4150   28.1930   42.2390 N   0  0  0  0  0  0  0  0  0  0  0  0
   37.3750   28.6920   41.0010 C   0  0  0  0  0  0  0  0  0  0  0  0
   37.1730   27.8800   39.9710 N   0  0  0  0  0  0  0  0  0  0  0  0
   36.8470   25.9600   39.2430 H   0  0  0  0  0  0  0  0  0  0  0  0
   37.2910   26.4680   43.5090 H   0  0  0  0  0  0  0  0  0  0  0  0
   37.5500   30.1210   40.7630 C   0  0  0  0  0  0  0  0  0  0  0  0
   36.4860   30.8860   40.3290 C   0  0  0  0  0  0  0  0  0  0  0  0
   35.5170   30.4110   40.1660 H   0  0  0  0  0  0  0  0  0  0  0  0
   36.6610   32.2380   40.1070 C   0  0  0  0  0  0  0  0  0  0  0  0
   35.7650   32.7650   39.7640 H   0  0  0  0  0  0  0  0  0  0  0  0
   37.8610   32.8900   40.2950 C   0  0  0  0  0  0  0  0  0  0  0  0
   38.9030   32.1070   40.7280 C   0  0  0  0  0  0  0  0  0  0  0  0
   38.7380   30.7830   40.9480 C   0  0  0  0  0  0  0  0  0  0  0  0
   39.5770   30.1930   41.2880 H   0  0  0  0  0  0  0  0  0  0  0  0
   40.4700   32.8920   40.9880 S   0  0  0  0  0  0  0  0  0  0  0  0
   40.2580   34.6170   40.5900 C   0  0  0  0  0  0  0  0  0  0  0  0
   41.3640   35.4040   40.7270 C   0  0  0  0  0  0  0  0  0  0  0  0
   42.3220   35.0490   41.0520 H   0  0  0  0  0  0  0  0  0  0  0  0
   41.2620   36.7470   40.4330 C   0  0  0  0  0  0  0  0  0  0  0  0
   42.0800   37.4510   40.5100 H   0  0  0  0  0  0  0  0  0  0  0  0
   40.0540   37.2600   40.0100 C   0  0  0  0  0  0  0  0  0  0  0  0
   39.9480   38.3100   39.7740 H   0  0  0  0  0  0  0  0  0  0  0  0
   38.9890   36.3910   39.9010 C   0  0  0  0  0  0  0  0  0  0  0  0
   38.0510   36.8540   39.5590 H   0  0  0  0  0  0  0  0  0  0  0  0
   39.0180   35.0400   40.1770 C   0  0  0  0  0  0  0  0  0  0  0  0
   37.8640   34.2740   40.0230 N   0  0  0  0  0  0  0  0  0  0  0  0
   37.0030   34.7590   39.6970 H   0  0  0  0  0  0  0  0  0  0  0  0
   36.8690   24.5550   41.6030 C   0  0  0  0  0  0  0  0  0  0  0  0
   36.3940   24.0290   40.7690 H   0  0  0  0  0  0  0  0  0  0  0  0
   36.1420   24.4250   42.4600 H   0  0  0  0  0  0  0  0  0  0  0  0
   38.2100   23.9770   42.0210 C   0  0  0  0  0  0  0  0  0  0  0  0
   38.0760   22.9010   42.2790 H   0  0  0  0  0  0  0  0  0  0  0  0
   38.5670   24.4320   42.9930 H   0  0  0  0  0  0  0  0  0  0  0  0
   40.4500   24.8420   41.4910 C   0  0  0  0  0  0  0  0  0  0  0  0
   39.2940   24.2120   41.0650 C   0  0  0  0  0  0  0  0  0  0  0  0
   39.1130   23.7890   39.7710 C   0  0  0  0  0  0  0  0  0  0  0  0
   40.1320   24.0080   38.8670 C   0  0  0  0  0  0  0  0  0  0  0  0
   41.3010   24.6210   39.2010 C   0  0  0  0  0  0  0  0  0  0  0  0
   41.4070   25.0190   40.5250 C   0  0  0  0  0  0  0  0  0  0  0  0
   38.2690   23.3050   39.3660 H   0  0  0  0  0  0  0  0  0  0  0  0
   40.0560   23.6970   37.8140 H   0  0  0  0  0  0  0  0  0  0  0  0
   42.1020   24.7970   38.5060 H   0  0  0  0  0  0  0  0  0  0  0  0
   42.3370   25.5140   40.8250 H   0  0  0  0  0  0  0  0  0  0  0  0
   40.7210   25.3950   43.1240 S   0  0  0  0  0  0  0  0  0  0  0  0
   40.4440   26.8750   43.2840 O   0  0  0  0  0  0  0  0  0  0  0  0
   42.2020   25.2770   43.4320 O   0  0  0  0  0  0  0  0  0  0  0  0
   40.1040   24.6400   44.0710 H   0  0  0  0  0  0  0  0  0  0  0  0
  1  2  1  0  0  0  0
  2 31  1  0  0  0  0
  2  3  2  0  0  0  0
  3  8  1  0  0  0  0
  4  3  1  0  0  0  0
  5  4  2  0  0  0  0
  6  1  2  0  0  0  0
  6  5  1  0  0  0  0
  7  1  1  0  0  0  0
  9 16  1  0  0  0  0
  9  5  1  0  0  0  0
 10  9  2  0  0  0  0
 11 10  1  0  0  0  0
 12 14  2  0  0  0  0
 12 10  1  0  0  0  0
 13 12  1  0  0  0  0
 14 15  1  0  0  0  0
 15 16  2  0  0  0  0
 15 18  1  0  0  0  0
 16 17  1  0  0  0  0
 19 20  1  0  0  0  0
 19 18  1  0  0  0  0
 20 21  1  0  0  0  0
 22 23  1  0  0  0  0
 22 20  2  0  0  0  0
 24 22  1  0  0  0  0
 25 24  1  0  0  0  0
 26 24  2  0  0  0  0
 26 28  1  0  0  0  0
 27 26  1  0  0  0  0
 28 19  2  0  0  0  0
 29 28  1  0  0  0  0
 29 14  1  0  0  0  0
 30 29  1  0  0  0  0
 31 34  1  0  0  0  0
 31 33  1  0  0  0  0
 32 31  1  0  0  0  0
 34 35  1  0  0  0  0
 34 36  1  0  0  0  0
 37 47  1  0  0  0  0
 38 37  1  0  0  0  0
 38 34  1  0  0  0  0
 39 38  2  0  0  0  0
 40 41  2  0  0  0  0
 40 39  1  0  0  0  0
 41 42  1  0  0  0  0
 42 46  1  0  0  0  0
 42 37  2  0  0  0  0
 43 39  1  0  0  0  0
 44 40  1  0  0  0  0
 45 41  1  0  0  0  0
 47 48  2  0  0  0  0
 47 49  2  0  0  0  0
 47 50  1  0  0  0  0
M  END
>  <minimizedAffinity>
-6.82263327

$$$$

 OpenBabel03242518033D

 50 54  0  0  0  0  0  0  0  0999 V2000
   38.0610   26.1660   40.2330 C   0  0  0  0  0  0  0  0  0  0  0  0
   37.7380   25.5850   41.4920 C   0  0  0  0  0  0  0  0  0  0  0  0
   37.4710   26.4730   42.5420 C   0  0  0  0  0  0  0  0  0  0  0  0
   37.5330   27.8090   42.3070 N   0  0  0  0  0  0  0  0  0  0  0  0
   37.8400   28.3150   41.1090 C   0  0  0  0  0  0  0  0  0  0  0  0
   38.0980   27.4970   40.0970 N   0  0  0  0  0  0  0  0  0  0  0  0
   38.2830   25.5600   39.3640 H   0  0  0  0  0  0  0  0  0  0  0  0
   37.2200   26.0660   43.5190 H   0  0  0  0  0  0  0  0  0  0  0  0
   37.8960   29.7580   40.8980 C   0  0  0  0  0  0  0  0  0  0  0  0
   36.7370   30.4690   40.6630 C   0  0  0  0  0  0  0  0  0  0  0  0
   35.7810   29.9410   40.6390 H   0  0  0  0  0  0  0  0  0  0  0  0
   36.8000   31.8330   40.4640 C   0  0  0  0  0  0  0  0  0  0  0  0
   35.8340   32.3150   40.2860 H   0  0  0  0  0  0  0  0  0  0  0  0
   37.9770   32.5510   40.4840 C   0  0  0  0  0  0  0  0  0  0  0  0
   39.1160   31.8210   40.7200 C   0  0  0  0  0  0  0  0  0  0  0  0
   39.0610   30.4840   40.9160 C   0  0  0  0  0  0  0  0  0  0  0  0
   39.9740   29.9370   41.0990 H   0  0  0  0  0  0  0  0  0  0  0  0
   40.6590   32.6900   40.7570 S   0  0  0  0  0  0  0  0  0  0  0  0
   40.2920   34.4090   40.4580 C   0  0  0  0  0  0  0  0  0  0  0  0
   41.3610   35.2570   40.4470 C   0  0  0  0  0  0  0  0  0  0  0  0
   42.3760   34.9510   40.6040 H   0  0  0  0  0  0  0  0  0  0  0  0
   41.1410   36.5990   40.2200 C   0  0  0  0  0  0  0  0  0  0  0  0
   41.9200   37.3480   40.1920 H   0  0  0  0  0  0  0  0  0  0  0  0
   39.8540   37.0500   40.0110 C   0  0  0  0  0  0  0  0  0  0  0  0
   39.6550   38.0970   39.8320 H   0  0  0  0  0  0  0  0  0  0  0  0
   38.8340   36.1220   40.0400 C   0  0  0  0  0  0  0  0  0  0  0  0
   37.8300   36.5380   39.8670 H   0  0  0  0  0  0  0  0  0  0  0  0
   38.9810   34.7680   40.2610 C   0  0  0  0  0  0  0  0  0  0  0  0
   37.8610   33.9390   40.2630 N   0  0  0  0  0  0  0  0  0  0  0  0
   36.9330   34.3810   40.0940 H   0  0  0  0  0  0  0  0  0  0  0  0
   37.7050   24.1400   41.6420 C   0  0  0  0  0  0  0  0  0  0  0  0
   37.6800   23.7670   42.6710 H   0  0  0  0  0  0  0  0  0  0  0  0
   38.6890   23.7570   41.2360 H   0  0  0  0  0  0  0  0  0  0  0  0
   36.5870   23.6120   40.7610 C   0  0  0  0  0  0  0  0  0  0  0  0
   36.0990   24.4700   40.2420 H   0  0  0  0  0  0  0  0  0  0  0  0
   35.7480   23.1760   41.3810 H   0  0  0  0  0  0  0  0  0  0  0  0
   36.1160   22.1270   38.8590 C   0  0  0  0  0  0  0  0  0  0  0  0
   36.9900   22.5410   39.8490 C   0  0  0  0  0  0  0  0  0  0  0  0
   38.2360   21.9870   40.0180 C   0  0  0  0  0  0  0  0  0  0  0  0
   38.6190   20.9760   39.1600 C   0  0  0  0  0  0  0  0  0  0  0  0
   37.8220   20.5080   38.1610 C   0  0  0  0  0  0  0  0  0  0  0  0
   36.5810   21.1170   38.0550 C   0  0  0  0  0  0  0  0  0  0  0  0
   38.9590   22.2410   40.7420 H   0  0  0  0  0  0  0  0  0  0  0  0
   39.6020   20.4860   39.2380 H   0  0  0  0  0  0  0  0  0  0  0  0
   38.1090   19.7220   37.4870 H   0  0  0  0  0  0  0  0  0  0  0  0
   35.9160   20.7630   37.2600 H   0  0  0  0  0  0  0  0  0  0  0  0
   34.5260   22.8020   38.6100 S   0  0  0  0  0  0  0  0  0  0  0  0
   33.5060   22.2480   39.5820 O   0  0  0  0  0  0  0  0  0  0  0  0
   34.0140   22.3400   37.2580 O   0  0  0  0  0  0  0  0  0  0  0  0
   34.5080   24.1590   38.5460 H   0  0  0  0  0  0  0  0  0  0  0  0
  1  2  1  0  0  0  0
  2 31  1  0  0  0  0
  2  3  2  0  0  0  0
  3  8  1  0  0  0  0
  4  3  1  0  0  0  0
  5  4  2  0  0  0  0
  6  1  2  0  0  0  0
  6  5  1  0  0  0  0
  7  1  1  0  0  0  0
  9 16  1  0  0  0  0
  9  5  1  0  0  0  0
 10  9  2  0  0  0  0
 11 10  1  0  0  0  0
 12 14  2  0  0  0  0
 12 10  1  0  0  0  0
 13 12  1  0  0  0  0
 14 15  1  0  0  0  0
 15 18  1  0  0  0  0
 15 16  2  0  0  0  0
 16 17  1  0  0  0  0
 19 18  1  0  0  0  0
 20 19  1  0  0  0  0
 20 21  1  0  0  0  0
 22 20  2  0  0  0  0
 23 22  1  0  0  0  0
 24 26  2  0  0  0  0
 24 22  1  0  0  0  0
 25 24  1  0  0  0  0
 26 28  1  0  0  0  0
 27 26  1  0  0  0  0
 28 29  1  0  0  0  0
 28 19  2  0  0  0  0
 29 14  1  0  0  0  0
 30 29  1  0  0  0  0
 31 32  1  0  0  0  0
 33 31  1  0  0  0  0
 34 36  1  0  0  0  0
 34 31  1  0  0  0  0
 35 34  1  0  0  0  0
 37 38  1  0  0  0  0
 38 39  2  0  0  0  0
 38 34  1  0  0  0  0
 39 43  1  0  0  0  0
 40 44  1  0  0  0  0
 40 39  1  0  0  0  0
 41 40  2  0  0  0  0
 42 41  1  0  0  0  0
 42 37  2  0  0  0  0
 45 41  1  0  0  0  0
 46 42  1  0  0  0  0
 47 37  1  0  0  0  0
 47 48  2  0  0  0  0
 49 47  2  0  0  0  0
 50 47  1  0  0  0  0
M  END
>  <minimizedAffinity>
-6.74785423

$$$$
