
 OpenBabel03242523323D

 50 55  0  0  0  0  0  0  0  0999 V2000
   44.5700   35.8490   44.6830 C   0  0  0  0  0  0  0  0  0  0  0  0
   45.3210   35.5920   43.5190 C   0  0  0  0  0  0  0  0  0  0  0  0
   46.1700   34.4850   43.4890 C   0  0  0  0  0  0  0  0  0  0  0  0
   46.2450   33.6790   44.6010 N   0  0  0  0  0  0  0  0  0  0  0  0
   45.5030   33.9630   45.7030 C   0  0  0  0  0  0  0  0  0  0  0  0
   44.6880   35.0220   45.7370 N   0  0  0  0  0  0  0  0  0  0  0  0
   43.8960   36.7080   44.7390 H   0  0  0  0  0  0  0  0  0  0  0  0
   45.2230   36.2600   42.6740 H   0  0  0  0  0  0  0  0  0  0  0  0
   46.9620   34.1660   42.3360 C   0  0  0  0  0  0  0  0  0  0  0  0
   47.3700   35.0690   41.3820 C   0  0  0  0  0  0  0  0  0  0  0  0
   47.0900   36.0980   41.4810 H   0  0  0  0  0  0  0  0  0  0  0  0
   48.1390   34.6610   40.2960 C   0  0  0  0  0  0  0  0  0  0  0  0
   48.4150   35.4580   39.5880 H   0  0  0  0  0  0  0  0  0  0  0  0
   48.5320   33.3540   40.1110 C   0  0  0  0  0  0  0  0  0  0  0  0
   48.1230   32.4640   41.0620 C   0  0  0  0  0  0  0  0  0  0  0  0
   47.3780   32.8720   42.1090 C   0  0  0  0  0  0  0  0  0  0  0  0
   47.0780   32.1150   42.8430 H   0  0  0  0  0  0  0  0  0  0  0  0
   48.6040   30.7610   40.8680 S   0  0  0  0  0  0  0  0  0  0  0  0
   49.5640   30.6710   39.3720 C   0  0  0  0  0  0  0  0  0  0  0  0
   50.0470   29.4380   39.0170 C   0  0  0  0  0  0  0  0  0  0  0  0
   49.8570   28.5680   39.6130 H   0  0  0  0  0  0  0  0  0  0  0  0
   50.7980   29.2960   37.8700 C   0  0  0  0  0  0  0  0  0  0  0  0
   51.1780   28.3230   37.5910 H   0  0  0  0  0  0  0  0  0  0  0  0
   51.0470   30.4100   37.0980 C   0  0  0  0  0  0  0  0  0  0  0  0
   51.6310   30.3270   36.1960 H   0  0  0  0  0  0  0  0  0  0  0  0
   50.5300   31.6150   37.5140 C   0  0  0  0  0  0  0  0  0  0  0  0
   50.7650   32.4650   36.8550 H   0  0  0  0  0  0  0  0  0  0  0  0
   49.7740   31.8190   38.6490 C   0  0  0  0  0  0  0  0  0  0  0  0
   49.3050   33.1150   38.9590 N   0  0  0  0  0  0  0  0  0  0  0  0
   49.5620   33.8740   38.2960 H   0  0  0  0  0  0  0  0  0  0  0  0
   45.6790   33.0130   46.8290 C   0  0  0  0  0  0  0  0  0  0  0  0
   44.6760   32.7490   47.2330 H   0  0  0  0  0  0  0  0  0  0  0  0
   46.1860   33.6000   47.6140 H   0  0  0  0  0  0  0  0  0  0  0  0
   46.5850   31.5830   46.2310 S   0  0  0  0  0  0  0  0  0  0  0  0
   47.6730   30.9510   47.4930 C   0  0  0  0  0  0  0  0  0  0  0  0
   48.0490   31.8070   48.5010 C   0  0  0  0  0  0  0  0  0  0  0  0
   48.8810   31.3290   49.4700 C   0  0  0  0  0  0  0  0  0  0  0  0
   49.3530   30.0130   49.4660 C   0  0  0  0  0  0  0  0  0  0  0  0
   50.1710   29.5930   50.4520 N   0  0  0  0  0  0  0  0  0  0  0  0
   50.6380   28.3330   50.4760 C   0  0  0  0  0  0  0  0  0  0  0  0
   50.2680   27.4670   49.4700 C   0  0  0  0  0  0  0  0  0  0  0  0
   49.4240   27.9000   48.4530 C   0  0  0  0  0  0  0  0  0  0  0  0
   48.9350   29.2090   48.4220 C   0  0  0  0  0  0  0  0  0  0  0  0
   48.1000   29.6500   47.4300 C   0  0  0  0  0  0  0  0  0  0  0  0
   47.7650   32.8420   48.6300 H   0  0  0  0  0  0  0  0  0  0  0  0
   49.2260   31.9440   50.3030 H   0  0  0  0  0  0  0  0  0  0  0  0
   51.2870   28.1020   51.3130 H   0  0  0  0  0  0  0  0  0  0  0  0
   50.6560   26.4650   49.5140 H   0  0  0  0  0  0  0  0  0  0  0  0
   49.1380   27.2150   47.6670 H   0  0  0  0  0  0  0  0  0  0  0  0
   47.7960   28.9900   46.6310 H   0  0  0  0  0  0  0  0  0  0  0  0
  1  7  1  0  0  0  0
  1  6  1  0  0  0  0
  2  1  2  0  0  0  0
  3  2  1  0  0  0  0
  3  4  2  0  0  0  0
  4  5  1  0  0  0  0
  5  6  2  0  0  0  0
  5 31  1  0  0  0  0
  8  2  1  0  0  0  0
  9  3  1  0  0  0  0
 10 11  1  0  0  0  0
 10  9  2  0  0  0  0
 12 10  1  0  0  0  0
 13 12  1  0  0  0  0
 14 12  2  0  0  0  0
 14 15  1  0  0  0  0
 15 16  2  0  0  0  0
 16  9  1  0  0  0  0
 16 17  1  0  0  0  0
 18 15  1  0  0  0  0
 19 18  1  0  0  0  0
 20 19  1  0  0  0  0
 20 21  1  0  0  0  0
 22 20  2  0  0  0  0
 23 22  1  0  0  0  0
 24 26  2  0  0  0  0
 24 22  1  0  0  0  0
 25 24  1  0  0  0  0
 26 28  1  0  0  0  0
 27 26  1  0  0  0  0
 28 29  1  0  0  0  0
 28 19  2  0  0  0  0
 29 14  1  0  0  0  0
 30 29  1  0  0  0  0
 31 32  1  0  0  0  0
 31 33  1  0  0  0  0
 34 31  1  0  0  0  0
 34 35  1  0  0  0  0
 35 36  1  0  0  0  0
 36 45  1  0  0  0  0
 36 37  2  0  0  0  0
 37 46  1  0  0  0  0
 38 37  1  0  0  0  0
 38 39  1  0  0  0  0
 39 40  2  0  0  0  0
 40 47  1  0  0  0  0
 41 48  1  0  0  0  0
 41 40  1  0  0  0  0
 42 41  2  0  0  0  0
 43 42  1  0  0  0  0
 43 38  2  0  0  0  0
 44 35  2  0  0  0  0
 44 43  1  0  0  0  0
 49 42  1  0  0  0  0
 50 44  1  0  0  0  0
M  END
>  <minimizedAffinity>
-7.12307787

>  <minimizedRMSD>
0.258428633

$$$$
