
     RDKit          3D

 50 54  0  0  0  0  0  0  0  0999 V2000
   47.0693   32.6634   44.7918 C   0  0  0  0  0  0  0  0  0  0  0  0
   46.4823   34.5223   43.2939 C   0  0  0  0  0  0  0  0  0  0  0  0
   46.2745   33.8547   44.4895 C   0  0  0  0  0  0  0  0  0  0  0  0
   45.3473   34.2634   45.4157 C   0  0  0  0  0  0  0  0  0  0  0  0
   44.5974   35.3864   45.1335 C   0  0  0  0  0  0  0  0  0  0  0  0
   44.7362   36.1017   43.9843 C   0  0  0  0  0  0  0  0  0  0  0  0
   45.6925   35.6268   43.0985 C   0  0  0  0  0  0  0  0  0  0  0  0
   47.6492   34.0393   42.0901 S   0  0  0  0  0  0  0  0  0  0  0  0
   48.9955   34.7017   42.2937 O   0  0  0  0  0  0  0  0  0  0  0  0
   47.1946   34.5660   40.7407 O   0  0  0  0  0  0  0  0  0  0  0  0
   46.3280   31.6020   45.5874 C   0  0  0  0  0  0  0  0  0  0  0  0
   47.3723   32.1465   47.7845 C   0  0  0  0  0  0  0  0  0  0  0  0
   47.1681   31.2306   46.7135 C   0  0  0  0  0  0  0  0  0  0  0  0
   47.8159   29.9931   46.8151 C   0  0  0  0  0  0  0  0  0  0  0  0
   48.5861   29.7396   47.9038 N   0  0  0  0  0  0  0  0  0  0  0  0
   48.7528   30.6274   48.8888 C   0  0  0  0  0  0  0  0  0  0  0  0
   48.1512   31.8071   48.8192 N   0  0  0  0  0  0  0  0  0  0  0  0
   47.5161   32.1913   43.8874 H   0  0  0  0  0  0  0  0  0  0  0  0
   47.9723   33.0419   45.3571 H   0  0  0  0  0  0  0  0  0  0  0  0
   45.1283   33.8162   46.3454 H   0  0  0  0  0  0  0  0  0  0  0  0
   43.8357   35.7712   45.8304 H   0  0  0  0  0  0  0  0  0  0  0  0
   44.1581   36.9784   43.7523 H   0  0  0  0  0  0  0  0  0  0  0  0
   45.8283   36.1805   42.1644 H   0  0  0  0  0  0  0  0  0  0  0  0
   47.7460   32.6925   41.9262 H   0  0  0  0  0  0  0  0  0  0  0  0
   45.2934   31.8629   45.8291 H   0  0  0  0  0  0  0  0  0  0  0  0
   46.2341   30.6756   44.9445 H   0  0  0  0  0  0  0  0  0  0  0  0
   46.9125   33.1273   47.7948 H   0  0  0  0  0  0  0  0  0  0  0  0
   47.6831   29.2679   46.0160 H   0  0  0  0  0  0  0  0  0  0  0  0
   49.5897   30.3164   50.0430 C   0  0  0  0  0  0  0  0  0  0  0  0
   49.5134   31.0918   51.1827 C   0  0  0  0  0  0  0  0  0  0  0  0
   48.8223   31.9369   51.2098 H   0  0  0  0  0  0  0  0  0  0  0  0
   50.3086   30.7907   52.2702 C   0  0  0  0  0  0  0  0  0  0  0  0
   50.1828   31.4567   53.1285 H   0  0  0  0  0  0  0  0  0  0  0  0
   51.1984   29.7367   52.2915 C   0  0  0  0  0  0  0  0  0  0  0  0
   51.2553   28.9811   51.1461 C   0  0  0  0  0  0  0  0  0  0  0  0
   50.4786   29.2720   50.0789 C   0  0  0  0  0  0  0  0  0  0  0  0
   50.5463   28.6584   49.1914 H   0  0  0  0  0  0  0  0  0  0  0  0
   52.3813   27.6134   51.1171 S   0  0  0  0  0  0  0  0  0  0  0  0
   53.1998   27.5824   52.7011 C   0  0  0  0  0  0  0  0  0  0  0  0
   54.1177   26.5900   52.8818 C   0  0  0  0  0  0  0  0  0  0  0  0
   54.3637   25.8521   52.1437 H   0  0  0  0  0  0  0  0  0  0  0  0
   54.7842   26.5140   54.0871 C   0  0  0  0  0  0  0  0  0  0  0  0
   55.5275   25.7660   54.3258 H   0  0  0  0  0  0  0  0  0  0  0  0
   54.5088   27.4368   55.0745 C   0  0  0  0  0  0  0  0  0  0  0  0
   55.0170   27.3988   56.0269 H   0  0  0  0  0  0  0  0  0  0  0  0
   53.5652   28.4061   54.8043 C   0  0  0  0  0  0  0  0  0  0  0  0
   53.3865   29.1142   55.6271 H   0  0  0  0  0  0  0  0  0  0  0  0
   52.8623   28.5413   53.6249 C   0  0  0  0  0  0  0  0  0  0  0  0
   51.9336   29.5705   53.4840 N   0  0  0  0  0  0  0  0  0  0  0  0
   51.8010   30.2144   54.2921 H   0  0  0  0  0  0  0  0  0  0  0  0
  1 11  1  0
  2  3  2  0
  3  1  1  0
  3  4  1  0
  5  4  2  0
  6  5  1  0
  7  2  1  0
  7  6  2  0
  8  9  2  0
  8  2  1  0
 10  8  2  0
 11 13  1  0
 12 17  2  0
 13 14  2  0
 13 12  1  0
 14 15  1  0
 15 16  2  0
 17 16  1  0
  1 18  1  0
  1 19  1  0
  4 20  1  0
  5 21  1  0
  6 22  1  0
  7 23  1  0
  8 24  1  0
 11 25  1  0
 11 26  1  0
 12 27  1  0
 14 28  1  0
 29 30  2  0
 30 31  1  0
 30 32  1  0
 32 33  1  0
 32 34  2  0
 34 35  1  0
 35 36  2  0
 36 37  1  0
 35 38  1  0
 38 39  1  0
 39 40  2  0
 40 41  1  0
 40 42  1  0
 42 43  1  0
 42 44  2  0
 44 45  1  0
 44 46  1  0
 46 47  1  0
 46 48  2  0
 48 49  1  0
 49 50  1  0
 36 29  1  0
 48 39  1  0
 49 34  1  0
 16 29  1  0
M  ISO  8  18   8  19   8  20  14  21  14  22  14  23  14  24  11  25   8
M  ISO  8  26   8  27  14  28  14  31  16  33  16  37  16  41  16  43  16
M  ISO  3  45  16  47  16  50   5
M  END
>  <DihAtoms>  (1) 
14,15,28,29

>  <DihDeg>  (1) 
-0.0012535575740709312

$$$$
