
 OpenBabel03242518003D

 50 54  0  0  0  0  0  0  0  0999 V2000
   47.4530   32.3230   47.7550 C   0  0  0  0  0  0  0  0  0  0  0  0
   47.3400   31.3310   46.7400 C   0  0  0  0  0  0  0  0  0  0  0  0
   48.0980   30.1660   46.9140 C   0  0  0  0  0  0  0  0  0  0  0  0
   48.8810   30.0480   48.0160 N   0  0  0  0  0  0  0  0  0  0  0  0
   48.9600   31.0030   48.9480 C   0  0  0  0  0  0  0  0  0  0  0  0
   48.2530   32.1170   48.8080 N   0  0  0  0  0  0  0  0  0  0  0  0
   46.9060   33.2550   47.7070 H   0  0  0  0  0  0  0  0  0  0  0  0
   48.0370   29.3860   46.1590 H   0  0  0  0  0  0  0  0  0  0  0  0
   49.8150   30.8380   50.1190 C   0  0  0  0  0  0  0  0  0  0  0  0
   50.0360   29.5810   50.6430 C   0  0  0  0  0  0  0  0  0  0  0  0
   49.5650   28.7140   50.1720 H   0  0  0  0  0  0  0  0  0  0  0  0
   50.8460   29.4330   51.7510 C   0  0  0  0  0  0  0  0  0  0  0  0
   50.9660   28.4030   52.0980 H   0  0  0  0  0  0  0  0  0  0  0  0
   51.4650   30.4900   52.3850 C   0  0  0  0  0  0  0  0  0  0  0  0
   51.2280   31.7300   51.8440 C   0  0  0  0  0  0  0  0  0  0  0  0
   50.4360   31.8800   50.7590 C   0  0  0  0  0  0  0  0  0  0  0  0
   50.2700   32.8690   50.3580 H   0  0  0  0  0  0  0  0  0  0  0  0
   51.9990   33.1260   52.6190 S   0  0  0  0  0  0  0  0  0  0  0  0
   52.9430   32.4990   53.9950 C   0  0  0  0  0  0  0  0  0  0  0  0
   53.6200   33.4280   54.7290 C   0  0  0  0  0  0  0  0  0  0  0  0
   53.6130   34.4810   54.5280 H   0  0  0  0  0  0  0  0  0  0  0  0
   54.3700   33.0030   55.8070 C   0  0  0  0  0  0  0  0  0  0  0  0
   54.9400   33.6610   56.4480 H   0  0  0  0  0  0  0  0  0  0  0  0
   54.4180   31.6600   56.1150 C   0  0  0  0  0  0  0  0  0  0  0  0
   54.9970   31.3030   56.9530 H   0  0  0  0  0  0  0  0  0  0  0  0
   53.7010   30.7920   55.3160 C   0  0  0  0  0  0  0  0  0  0  0  0
   53.7750   29.7340   55.6080 H   0  0  0  0  0  0  0  0  0  0  0  0
   52.9330   31.1450   54.2260 C   0  0  0  0  0  0  0  0  0  0  0  0
   52.2590   30.1630   53.5050 N   0  0  0  0  0  0  0  0  0  0  0  0
   52.3610   29.1750   53.8210 H   0  0  0  0  0  0  0  0  0  0  0  0
   46.4770   31.5570   45.5920 C   0  0  0  0  0  0  0  0  0  0  0  0
   45.4290   31.7790   45.8200 H   0  0  0  0  0  0  0  0  0  0  0  0
   46.4330   30.5750   45.0310 H   0  0  0  0  0  0  0  0  0  0  0  0
   47.1540   32.5860   44.7040 C   0  0  0  0  0  0  0  0  0  0  0  0
   47.5200   32.0820   43.7800 H   0  0  0  0  0  0  0  0  0  0  0  0
   48.1030   32.9750   45.1780 H   0  0  0  0  0  0  0  0  0  0  0  0
   46.5450   34.4770   43.2550 C   0  0  0  0  0  0  0  0  0  0  0  0
   46.3440   33.7740   44.4310 C   0  0  0  0  0  0  0  0  0  0  0  0
   45.4070   34.1430   45.3660 C   0  0  0  0  0  0  0  0  0  0  0  0
   44.6420   35.2630   45.1110 C   0  0  0  0  0  0  0  0  0  0  0  0
   44.7740   36.0120   43.9820 C   0  0  0  0  0  0  0  0  0  0  0  0
   45.7400   35.5750   43.0880 C   0  0  0  0  0  0  0  0  0  0  0  0
   45.1920   33.6680   46.2810 H   0  0  0  0  0  0  0  0  0  0  0  0
   43.8730   35.6180   45.8150 H   0  0  0  0  0  0  0  0  0  0  0  0
   44.1840   36.8860   43.7720 H   0  0  0  0  0  0  0  0  0  0  0  0
   45.8700   36.1570   42.1690 H   0  0  0  0  0  0  0  0  0  0  0  0
   47.7220   34.0440   42.0430 S   0  0  0  0  0  0  0  0  0  0  0  0
   49.0520   34.7360   42.2580 O   0  0  0  0  0  0  0  0  0  0  0  0
   47.2540   34.5830   40.7030 O   0  0  0  0  0  0  0  0  0  0  0  0
   47.8520   32.7040   41.8550 H   0  0  0  0  0  0  0  0  0  0  0  0
  1  6  1  0  0  0  0
  2  3  1  0  0  0  0
  2  1  2  0  0  0  0
  3  4  2  0  0  0  0
  4  5  1  0  0  0  0
  5  9  1  0  0  0  0
  6  5  2  0  0  0  0
  7  1  1  0  0  0  0
  8  3  1  0  0  0  0
  9 10  2  0  0  0  0
  9 16  1  0  0  0  0
 10 12  1  0  0  0  0
 11 10  1  0  0  0  0
 12 13  1  0  0  0  0
 12 14  2  0  0  0  0
 14 29  1  0  0  0  0
 15 14  1  0  0  0  0
 15 18  1  0  0  0  0
 16 15  2  0  0  0  0
 17 16  1  0  0  0  0
 18 19  1  0  0  0  0
 19 28  2  0  0  0  0
 19 20  1  0  0  0  0
 20 22  2  0  0  0  0
 21 20  1  0  0  0  0
 22 24  1  0  0  0  0
 22 23  1  0  0  0  0
 24 25  1  0  0  0  0
 26 27  1  0  0  0  0
 26 24  2  0  0  0  0
 28 26  1  0  0  0  0
 29 30  1  0  0  0  0
 29 28  1  0  0  0  0
 31 32  1  0  0  0  0
 31  2  1  0  0  0  0
 33 31  1  0  0  0  0
 34 36  1  0  0  0  0
 34 31  1  0  0  0  0
 35 34  1  0  0  0  0
 37 38  1  0  0  0  0
 38 34  1  0  0  0  0
 38 39  2  0  0  0  0
 39 43  1  0  0  0  0
 40 39  1  0  0  0  0
 40 44  1  0  0  0  0
 41 40  2  0  0  0  0
 42 37  2  0  0  0  0
 42 41  1  0  0  0  0
 45 41  1  0  0  0  0
 46 42  1  0  0  0  0
 47 48  2  0  0  0  0
 47 37  1  0  0  0  0
 49 47  2  0  0  0  0
 50 47  1  0  0  0  0
M  END
>  <minimizedAffinity>
-7.68872404

>  <minimizedRMSD>
1.24722588

$$$$
