
 OpenBabel03242518003D

 50 54  0  0  0  0  0  0  0  0999 V2000
   47.4460   32.3180   47.7600 C   0  0  0  0  0  0  0  0  0  0  0  0
   47.3400   31.3290   46.7400 C   0  0  0  0  0  0  0  0  0  0  0  0
   48.1040   30.1670   46.9100 C   0  0  0  0  0  0  0  0  0  0  0  0
   48.8870   30.0500   48.0130 N   0  0  0  0  0  0  0  0  0  0  0  0
   48.9600   31.0020   48.9480 C   0  0  0  0  0  0  0  0  0  0  0  0
   48.2470   32.1120   48.8120 N   0  0  0  0  0  0  0  0  0  0  0  0
   46.8950   33.2480   47.7150 H   0  0  0  0  0  0  0  0  0  0  0  0
   48.0470   29.3900   46.1520 H   0  0  0  0  0  0  0  0  0  0  0  0
   49.8150   30.8370   50.1190 C   0  0  0  0  0  0  0  0  0  0  0  0
   50.0370   29.5790   50.6420 C   0  0  0  0  0  0  0  0  0  0  0  0
   49.5670   28.7130   50.1720 H   0  0  0  0  0  0  0  0  0  0  0  0
   50.8470   29.4320   51.7510 C   0  0  0  0  0  0  0  0  0  0  0  0
   50.9670   28.4010   52.0970 H   0  0  0  0  0  0  0  0  0  0  0  0
   51.4650   30.4890   52.3850 C   0  0  0  0  0  0  0  0  0  0  0  0
   51.2290   31.7300   51.8450 C   0  0  0  0  0  0  0  0  0  0  0  0
   50.4360   31.8790   50.7590 C   0  0  0  0  0  0  0  0  0  0  0  0
   50.2690   32.8680   50.3570 H   0  0  0  0  0  0  0  0  0  0  0  0
   51.9980   33.1250   52.6190 S   0  0  0  0  0  0  0  0  0  0  0  0
   52.9440   32.4980   53.9950 C   0  0  0  0  0  0  0  0  0  0  0  0
   53.6200   33.4280   54.7300 C   0  0  0  0  0  0  0  0  0  0  0  0
   53.6110   34.4800   54.5280 H   0  0  0  0  0  0  0  0  0  0  0  0
   54.3690   33.0040   55.8070 C   0  0  0  0  0  0  0  0  0  0  0  0
   54.9390   33.6620   56.4490 H   0  0  0  0  0  0  0  0  0  0  0  0
   54.4170   31.6610   56.1140 C   0  0  0  0  0  0  0  0  0  0  0  0
   54.9980   31.3030   56.9530 H   0  0  0  0  0  0  0  0  0  0  0  0
   53.7020   30.7920   55.3160 C   0  0  0  0  0  0  0  0  0  0  0  0
   53.7770   29.7340   55.6070 H   0  0  0  0  0  0  0  0  0  0  0  0
   52.9340   31.1450   54.2260 C   0  0  0  0  0  0  0  0  0  0  0  0
   52.2600   30.1620   53.5030 N   0  0  0  0  0  0  0  0  0  0  0  0
   52.3620   29.1750   53.8200 H   0  0  0  0  0  0  0  0  0  0  0  0
   46.4760   31.5550   45.5930 C   0  0  0  0  0  0  0  0  0  0  0  0
   45.4290   31.7790   45.8210 H   0  0  0  0  0  0  0  0  0  0  0  0
   46.4310   30.5730   45.0330 H   0  0  0  0  0  0  0  0  0  0  0  0
   47.1530   32.5820   44.7030 C   0  0  0  0  0  0  0  0  0  0  0  0
   47.5190   32.0770   43.7800 H   0  0  0  0  0  0  0  0  0  0  0  0
   48.1040   32.9710   45.1770 H   0  0  0  0  0  0  0  0  0  0  0  0
   46.5470   34.4730   43.2540 C   0  0  0  0  0  0  0  0  0  0  0  0
   46.3440   33.7720   44.4290 C   0  0  0  0  0  0  0  0  0  0  0  0
   45.4080   34.1420   45.3630 C   0  0  0  0  0  0  0  0  0  0  0  0
   44.6440   35.2620   45.1080 C   0  0  0  0  0  0  0  0  0  0  0  0
   44.7770   36.0110   43.9790 C   0  0  0  0  0  0  0  0  0  0  0  0
   45.7440   35.5730   43.0860 C   0  0  0  0  0  0  0  0  0  0  0  0
   45.1910   33.6670   46.2790 H   0  0  0  0  0  0  0  0  0  0  0  0
   43.8750   35.6180   45.8120 H   0  0  0  0  0  0  0  0  0  0  0  0
   44.1880   36.8850   43.7690 H   0  0  0  0  0  0  0  0  0  0  0  0
   45.8740   36.1530   42.1660 H   0  0  0  0  0  0  0  0  0  0  0  0
   47.7240   34.0390   42.0420 S   0  0  0  0  0  0  0  0  0  0  0  0
   49.0600   34.7170   42.2670 O   0  0  0  0  0  0  0  0  0  0  0  0
   47.2660   34.5930   40.7050 O   0  0  0  0  0  0  0  0  0  0  0  0
   47.8420   32.6990   41.8440 H   0  0  0  0  0  0  0  0  0  0  0  0
  1  6  1  0  0  0  0
  2  3  1  0  0  0  0
  2  1  2  0  0  0  0
  3  4  2  0  0  0  0
  4  5  1  0  0  0  0
  5  9  1  0  0  0  0
  6  5  2  0  0  0  0
  7  1  1  0  0  0  0
  8  3  1  0  0  0  0
  9 10  2  0  0  0  0
  9 16  1  0  0  0  0
 10 12  1  0  0  0  0
 11 10  1  0  0  0  0
 12 13  1  0  0  0  0
 12 14  2  0  0  0  0
 14 29  1  0  0  0  0
 15 14  1  0  0  0  0
 15 18  1  0  0  0  0
 16 15  2  0  0  0  0
 17 16  1  0  0  0  0
 18 19  1  0  0  0  0
 19 28  2  0  0  0  0
 19 20  1  0  0  0  0
 20 22  2  0  0  0  0
 21 20  1  0  0  0  0
 22 24  1  0  0  0  0
 22 23  1  0  0  0  0
 24 25  1  0  0  0  0
 26 27  1  0  0  0  0
 26 24  2  0  0  0  0
 28 26  1  0  0  0  0
 29 30  1  0  0  0  0
 29 28  1  0  0  0  0
 31 32  1  0  0  0  0
 31  2  1  0  0  0  0
 33 31  1  0  0  0  0
 34 36  1  0  0  0  0
 34 31  1  0  0  0  0
 35 34  1  0  0  0  0
 37 38  1  0  0  0  0
 38 34  1  0  0  0  0
 38 39  2  0  0  0  0
 39 43  1  0  0  0  0
 40 39  1  0  0  0  0
 40 44  1  0  0  0  0
 41 40  2  0  0  0  0
 42 37  2  0  0  0  0
 42 41  1  0  0  0  0
 45 41  1  0  0  0  0
 46 42  1  0  0  0  0
 47 48  2  0  0  0  0
 47 37  1  0  0  0  0
 49 47  2  0  0  0  0
 50 47  1  0  0  0  0
M  END
>  <minimizedAffinity>
-7.69189453

>  <minimizedRMSD>
0.675260425

$$$$
