
     RDKit          3D

 50 55  0  0  0  0  0  0  0  0999 V2000
   46.5509   31.7034   46.0608 S   0  0  0  0  0  0  0  0  0  0  0  0
   47.6049   31.0687   47.3497 C   0  0  0  0  0  0  0  0  0  0  0  0
   47.9332   31.9150   48.3827 C   0  0  0  0  0  0  0  0  0  0  0  0
   48.7380   31.4344   49.3730 C   0  0  0  0  0  0  0  0  0  0  0  0
   49.2302   30.1259   49.3666 C   0  0  0  0  0  0  0  0  0  0  0  0
   50.0194   29.7034   50.3737 N   0  0  0  0  0  0  0  0  0  0  0  0
   50.5042   28.4504   50.3956 C   0  0  0  0  0  0  0  0  0  0  0  0
   50.1824   27.5936   49.3662 C   0  0  0  0  0  0  0  0  0  0  0  0
   49.3679   28.0285   48.3260 C   0  0  0  0  0  0  0  0  0  0  0  0
   48.8597   29.3311   48.2973 C   0  0  0  0  0  0  0  0  0  0  0  0
   48.0535   29.7753   47.2826 C   0  0  0  0  0  0  0  0  0  0  0  0
   45.6247   33.1294   46.6393 C   0  0  0  0  0  0  0  0  0  0  0  0
   44.5997   35.9932   44.4884 C   0  0  0  0  0  0  0  0  0  0  0  0
   45.3544   35.7193   43.3289 C   0  0  0  0  0  0  0  0  0  0  0  0
   46.1768   34.5917   43.3050 C   0  0  0  0  0  0  0  0  0  0  0  0
   46.2235   33.7837   44.4161 N   0  0  0  0  0  0  0  0  0  0  0  0
   45.4803   34.0837   45.5125 C   0  0  0  0  0  0  0  0  0  0  0  0
   44.6903   35.1622   45.5425 N   0  0  0  0  0  0  0  0  0  0  0  0
   47.6290   32.9434   48.5173 H   0  0  0  0  0  0  0  0  0  0  0  0
   49.0444   32.0418   50.2268 H   0  0  0  0  0  0  0  0  0  0  0  0
   51.1282   28.2163   51.2522 H   0  0  0  0  0  0  0  0  0  0  0  0
   50.5841   26.5966   49.4087 H   0  0  0  0  0  0  0  0  0  0  0  0
   49.1190   27.3516   47.5211 H   0  0  0  0  0  0  0  0  0  0  0  0
   47.7874   29.1226   46.4652 H   0  0  0  0  0  0  0  0  0  0  0  0
   44.6108   32.8608   47.0124 H   0  0  0  0  0  0  0  0  0  0  0  0
   46.1082   33.7127   47.4412 H   0  0  0  0  0  0  0  0  0  0  0  0
   43.9464   36.8674   44.5396 H   0  0  0  0  0  0  0  0  0  0  0  0
   45.2783   36.3898   42.4849 H   0  0  0  0  0  0  0  0  0  0  0  0
   46.9702   34.2564   42.1567 C   0  0  0  0  0  0  0  0  0  0  0  0
   47.9476   35.0541   41.6089 C   0  0  0  0  0  0  0  0  0  0  0  0
   48.1553   36.0064   42.0527 H   0  0  0  0  0  0  0  0  0  0  0  0
   48.6639   34.6385   40.4915 C   0  0  0  0  0  0  0  0  0  0  0  0
   49.4243   35.3475   40.1286 H   0  0  0  0  0  0  0  0  0  0  0  0
   48.4447   33.4260   39.8746 C   0  0  0  0  0  0  0  0  0  0  0  0
   47.4724   32.6398   40.4248 C   0  0  0  0  0  0  0  0  0  0  0  0
   46.7860   33.0548   41.5076 C   0  0  0  0  0  0  0  0  0  0  0  0
   46.0171   32.3834   41.9074 H   0  0  0  0  0  0  0  0  0  0  0  0
   47.1508   31.0628   39.6642 S   0  0  0  0  0  0  0  0  0  0  0  0
   48.2693   30.9250   38.2852 C   0  0  0  0  0  0  0  0  0  0  0  0
   48.1997   29.7756   37.5423 C   0  0  0  0  0  0  0  0  0  0  0  0
   47.5039   28.9942   37.7795 H   0  0  0  0  0  0  0  0  0  0  0  0
   49.0355   29.6023   36.4617 C   0  0  0  0  0  0  0  0  0  0  0  0
   48.9805   28.6956   35.8756 H   0  0  0  0  0  0  0  0  0  0  0  0
   49.9329   30.6016   36.1494 C   0  0  0  0  0  0  0  0  0  0  0  0
   50.5984   30.4919   35.3093 H   0  0  0  0  0  0  0  0  0  0  0  0
   49.9472   31.7277   36.9391 C   0  0  0  0  0  0  0  0  0  0  0  0
   50.6850   32.4878   36.6386 H   0  0  0  0  0  0  0  0  0  0  0  0
   49.1372   31.9575   38.0308 C   0  0  0  0  0  0  0  0  0  0  0  0
   49.2578   33.1636   38.7561 N   0  0  0  0  0  0  0  0  0  0  0  0
   49.9742   33.8386   38.4192 H   0  0  0  0  0  0  0  0  0  0  0  0
  1 12  1  0
  1  2  1  0
  2  3  2  0
  3  4  1  0
  4  5  2  0
  5  6  1  0
  6  7  2  0
  8  7  1  0
  9  8  2  0
 10  9  1  0
 10  5  1  0
 11  2  1  0
 11 10  2  0
 13 18  2  0
 14 13  1  0
 15 14  2  0
 15 16  1  0
 16 17  2  0
 17 18  1  0
 17 12  1  0
  3 19  1  0
  4 20  1  0
  7 21  1  0
  8 22  1  0
  9 23  1  0
 11 24  1  0
 12 25  1  0
 12 26  1  0
 13 27  1  0
 14 28  1  0
 29 30  2  0
 30 31  1  0
 30 32  1  0
 32 33  1  0
 32 34  2  0
 34 35  1  0
 35 36  2  0
 36 37  1  0
 35 38  1  0
 38 39  1  0
 39 40  2  0
 40 41  1  0
 40 42  1  0
 42 43  1  0
 42 44  2  0
 44 45  1  0
 44 46  1  0
 46 47  1  0
 46 48  2  0
 48 49  1  0
 49 50  1  0
 36 29  1  0
 48 39  1  0
 49 34  1  0
 15 29  1  0
M  ISO  8  19  14  20  14  21  14  22  14  23  14  24  14  25   8  26   8
M  ISO  8  27  14  28  14  31  16  33  16  37  16  41  16  43  16  45  16
M  ISO  2  47  16  50   5
M  END
>  <DihAtoms>  (1) 
13,14,28,29

>  <DihDeg>  (1) 
-7.875700124382986e-05

$$$$
