
 OpenBabel03242523323D

 50 55  0  0  0  0  0  0  0  0999 V2000
   44.6890   36.0230   44.2350 C   0  0  0  0  0  0  0  0  0  0  0  0
   45.4620   35.6280   43.1240 C   0  0  0  0  0  0  0  0  0  0  0  0
   46.2350   34.4700   43.2120 C   0  0  0  0  0  0  0  0  0  0  0  0
   46.2170   33.7500   44.3830 N   0  0  0  0  0  0  0  0  0  0  0  0
   45.4570   34.1650   45.4300 C   0  0  0  0  0  0  0  0  0  0  0  0
   44.7140   35.2730   45.3520 N   0  0  0  0  0  0  0  0  0  0  0  0
   44.0720   36.9240   44.2000 H   0  0  0  0  0  0  0  0  0  0  0  0
   45.4380   36.2340   42.2290 H   0  0  0  0  0  0  0  0  0  0  0  0
   47.0440   34.0130   42.1180 C   0  0  0  0  0  0  0  0  0  0  0  0
   46.7130   34.1250   40.7880 C   0  0  0  0  0  0  0  0  0  0  0  0
   45.7840   34.5830   40.5160 H   0  0  0  0  0  0  0  0  0  0  0  0
   47.5670   33.6500   39.7970 C   0  0  0  0  0  0  0  0  0  0  0  0
   47.2130   33.7850   38.7640 H   0  0  0  0  0  0  0  0  0  0  0  0
   48.7760   33.0510   40.0810 C   0  0  0  0  0  0  0  0  0  0  0  0
   49.0970   32.9450   41.4040 C   0  0  0  0  0  0  0  0  0  0  0  0
   48.2600   33.4080   42.3530 C   0  0  0  0  0  0  0  0  0  0  0  0
   48.5680   33.2970   43.3980 H   0  0  0  0  0  0  0  0  0  0  0  0
   50.6490   32.1780   41.8220 S   0  0  0  0  0  0  0  0  0  0  0  0
   51.4220   31.7210   40.2850 C   0  0  0  0  0  0  0  0  0  0  0  0
   52.6440   31.1060   40.3630 C   0  0  0  0  0  0  0  0  0  0  0  0
   53.1140   30.9090   41.3080 H   0  0  0  0  0  0  0  0  0  0  0  0
   53.2980   30.7250   39.2140 C   0  0  0  0  0  0  0  0  0  0  0  0
   54.2620   30.2400   39.2760 H   0  0  0  0  0  0  0  0  0  0  0  0
   52.7020   30.9760   37.9950 C   0  0  0  0  0  0  0  0  0  0  0  0
   53.1920   30.6890   37.0800 H   0  0  0  0  0  0  0  0  0  0  0  0
   51.4740   31.5960   37.9930 C   0  0  0  0  0  0  0  0  0  0  0  0
   51.0510   31.7670   36.9910 H   0  0  0  0  0  0  0  0  0  0  0  0
   50.7720   32.0000   39.1080 C   0  0  0  0  0  0  0  0  0  0  0  0
   49.5150   32.6290   38.9600 N   0  0  0  0  0  0  0  0  0  0  0  0
   49.1740   32.7600   37.9870 H   0  0  0  0  0  0  0  0  0  0  0  0
   45.5300   33.2950   46.6300 C   0  0  0  0  0  0  0  0  0  0  0  0
   44.5180   33.2350   47.0890 H   0  0  0  0  0  0  0  0  0  0  0  0
   46.1620   33.8530   47.3420 H   0  0  0  0  0  0  0  0  0  0  0  0
   46.1630   31.6900   46.1330 S   0  0  0  0  0  0  0  0  0  0  0  0
   47.3400   31.0790   47.3220 C   0  0  0  0  0  0  0  0  0  0  0  0
   47.7880   31.9510   48.2870 C   0  0  0  0  0  0  0  0  0  0  0  0
   48.6880   31.4870   49.2010 C   0  0  0  0  0  0  0  0  0  0  0  0
   49.1590   30.1720   49.1850 C   0  0  0  0  0  0  0  0  0  0  0  0
   50.0450   29.7670   50.1150 N   0  0  0  0  0  0  0  0  0  0  0  0
   50.5130   28.5080   50.1260 C   0  0  0  0  0  0  0  0  0  0  0  0
   50.0720   27.6260   49.1650 C   0  0  0  0  0  0  0  0  0  0  0  0
   49.1570   28.0420   48.2040 C   0  0  0  0  0  0  0  0  0  0  0  0
   48.6660   29.3500   48.1860 C   0  0  0  0  0  0  0  0  0  0  0  0
   47.7620   29.7760   47.2500 C   0  0  0  0  0  0  0  0  0  0  0  0
   47.5130   32.9870   48.4190 H   0  0  0  0  0  0  0  0  0  0  0  0
   49.0910   32.1160   49.9970 H   0  0  0  0  0  0  0  0  0  0  0  0
   51.2220   28.2900   50.9180 H   0  0  0  0  0  0  0  0  0  0  0  0
   50.4630   26.6240   49.1970 H   0  0  0  0  0  0  0  0  0  0  0  0
   48.8150   27.3440   47.4520 H   0  0  0  0  0  0  0  0  0  0  0  0
   47.4010   29.1040   46.4870 H   0  0  0  0  0  0  0  0  0  0  0  0
  1  6  1  0  0  0  0
  2  3  1  0  0  0  0
  2  1  2  0  0  0  0
  3  4  2  0  0  0  0
  4  5  1  0  0  0  0
  5 31  1  0  0  0  0
  6  5  2  0  0  0  0
  7  1  1  0  0  0  0
  8  2  1  0  0  0  0
  9 16  1  0  0  0  0
  9  3  1  0  0  0  0
 10  9  2  0  0  0  0
 11 10  1  0  0  0  0
 12 14  2  0  0  0  0
 12 10  1  0  0  0  0
 13 12  1  0  0  0  0
 14 15  1  0  0  0  0
 15 18  1  0  0  0  0
 15 16  2  0  0  0  0
 16 17  1  0  0  0  0
 19 20  1  0  0  0  0
 19 18  1  0  0  0  0
 20 21  1  0  0  0  0
 22 23  1  0  0  0  0
 22 20  2  0  0  0  0
 24 22  1  0  0  0  0
 25 24  1  0  0  0  0
 26 24  2  0  0  0  0
 26 28  1  0  0  0  0
 27 26  1  0  0  0  0
 28 19  2  0  0  0  0
 29 28  1  0  0  0  0
 29 14  1  0  0  0  0
 30 29  1  0  0  0  0
 31 32  1  0  0  0  0
 31 33  1  0  0  0  0
 34 31  1  0  0  0  0
 34 35  1  0  0  0  0
 35 36  1  0  0  0  0
 36 45  1  0  0  0  0
 36 37  2  0  0  0  0
 37 46  1  0  0  0  0
 38 37  1  0  0  0  0
 38 39  1  0  0  0  0
 39 40  2  0  0  0  0
 40 47  1  0  0  0  0
 41 48  1  0  0  0  0
 41 40  1  0  0  0  0
 42 41  2  0  0  0  0
 43 42  1  0  0  0  0
 43 38  2  0  0  0  0
 44 35  2  0  0  0  0
 44 43  1  0  0  0  0
 49 42  1  0  0  0  0
 50 44  1  0  0  0  0
M  END
>  <minimizedAffinity>
-7.27262259

>  <minimizedRMSD>
0.588227689

$$$$
