REMARK  Name = 
REMARK  2 active torsions:
REMARK  status: ('A' for Active; 'I' for Inactive)
REMARK    1  A    between atoms: C_1  and  C_7
REMARK    2  A    between atoms: C_3  and  C_13
REMARK                            x       y       z     vdW  Elec       q    Type
REMARK                         _______ _______ _______ _____ _____    ______ ____
ROOT
ATOM      1  C   UNL     1      47.085  32.453  45.088  0.00  0.00    +0.000 A 
ATOM      2  C   UNL     1      48.284  32.103  45.670  0.00  0.00    +0.000 A 
ATOM      3  H   UNL     1      49.156  32.657  45.406  0.00  0.00    +0.000 HD
ATOM      4  C   UNL     1      48.325  31.058  46.570  0.00  0.00    +0.000 A 
ATOM      5  H   UNL     1      49.320  30.852  46.981  0.00  0.00    +0.000 HD
ATOM      6  C   UNL     1      47.223  30.314  46.941  0.00  0.00    +0.000 A 
ATOM      7  C   UNL     1      46.043  30.684  46.345  0.00  0.00    +0.000 A 
ATOM      8  C   UNL     1      45.988  31.707  45.461  0.00  0.00    +0.000 A 
ATOM      9  H   UNL     1      45.013  31.956  45.017  0.00  0.00    +0.000 HD
ATOM     10  S   UNL     1      44.579  29.784  46.763  0.00  0.00    +0.000 S 
ATOM     11  C   UNL     1      45.057  28.535  47.939  0.00  0.00    +0.000 A 
ATOM     12  C   UNL     1      44.110  27.690  48.433  0.00  0.00    +0.000 A 
ATOM     13  H   UNL     1      43.075  27.790  48.102  0.00  0.00    +0.000 HD
ATOM     14  C   UNL     1      44.409  26.703  49.344  0.00  0.00    +0.000 A 
ATOM     15  H   UNL     1      43.699  26.011  49.764  0.00  0.00    +0.000 HD
ATOM     16  C   UNL     1      45.722  26.594  49.750  0.00  0.00    +0.000 A 
ATOM     17  H   UNL     1      46.006  25.833  50.464  0.00  0.00    +0.000 HD
ATOM     18  C   UNL     1      46.650  27.469  49.225  0.00  0.00    +0.000 A 
ATOM     19  H   UNL     1      47.677  27.321  49.596  0.00  0.00    +0.000 HD
ATOM     20  C   UNL     1      46.376  28.465  48.312  0.00  0.00    +0.000 A 
ATOM     21  N   UNL     1      47.434  29.273  47.876  0.00  0.00    +0.000 N 
ATOM     22  H   UNL     1      48.391  29.102  48.249  0.00  0.00    +0.000 HD
ENDROOT
BRANCH   1  25
ATOM     23  C   UNL     1      47.683  34.960  42.347  0.00  0.00    +0.000 A 
ATOM     24  C   UNL     1      47.913  33.918  43.249  0.00  0.00    +0.000 A 
ATOM     25  C   UNL     1      46.902  33.531  44.127  0.00  0.00    +0.000 A 
ATOM     26  N   UNL     1      45.726  34.206  44.050  0.00  0.00    +0.000 NA
ATOM     27  C   UNL     1      45.515  35.203  43.182  0.00  0.00    +0.000 A 
ATOM     28  N   UNL     1      46.485  35.571  42.344  0.00  0.00    +0.000 NA
ATOM     29  H   UNL     1      48.857  33.435  43.255  0.00  0.00    +0.000 HD
ATOM     30  H   UNL     1      44.544  35.681  43.195  0.00  0.00    +0.000 HD
BRANCH  23  31
ATOM     31  C   UNL     1      48.789  35.344  41.426  0.00  0.00    +0.000 C 
ATOM     32  F   UNL     1      48.416  35.240  40.110  0.00  0.00    +0.000 F 
ATOM     33  F   UNL     1      49.216  36.613  41.755  0.00  0.00    +0.000 F 
ATOM     34  F   UNL     1      49.885  34.499  41.668  0.00  0.00    +0.000 F 
ENDBRANCH  23  31
ENDBRANCH   1  25
TORSDOF 2
