
     RDKit          3D

 34 37  0  0  0  0  0  0  0  0999 V2000
   47.6833   34.9602   42.3473 C   0  0  0  0  0  0  0  0  0  0  0  0
   47.9135   33.9184   43.2494 C   0  0  0  0  0  0  0  0  0  0  0  0
   46.9016   33.5308   44.1272 C   0  0  0  0  0  0  0  0  0  0  0  0
   45.7257   34.2056   44.0498 N   0  0  0  0  0  0  0  0  0  0  0  0
   45.5152   35.2026   43.1817 C   0  0  0  0  0  0  0  0  0  0  0  0
   46.4852   35.5708   42.3436 N   0  0  0  0  0  0  0  0  0  0  0  0
   48.7895   35.3444   41.4263 C   0  0  0  0  0  0  0  0  0  0  0  0
   48.4165   35.2404   40.1099 F   0  0  0  0  0  0  0  0  0  0  0  0
   49.2161   36.6126   41.7546 F   0  0  0  0  0  0  0  0  0  0  0  0
   49.8854   34.4992   41.6681 F   0  0  0  0  0  0  0  0  0  0  0  0
   48.8566   33.4349   43.2551 H   0  0  0  0  0  0  0  0  0  0  0  0
   44.5436   35.6811   43.1949 H   0  0  0  0  0  0  0  0  0  0  0  0
   47.0853   32.4529   45.0876 C   0  0  0  0  0  0  0  0  0  0  0  0
   46.9849   32.5822   46.4558 C   0  0  0  0  0  0  0  0  0  0  0  0
   46.7550   33.5420   46.8583 H   0  0  0  0  0  0  0  0  0  0  0  0
   47.1821   31.4781   47.2602 C   0  0  0  0  0  0  0  0  0  0  0  0
   47.0823   31.6766   48.3337 H   0  0  0  0  0  0  0  0  0  0  0  0
   47.4811   30.2179   46.7837 C   0  0  0  0  0  0  0  0  0  0  0  0
   47.5749   30.1191   45.4172 C   0  0  0  0  0  0  0  0  0  0  0  0
   47.3842   31.1923   44.6163 C   0  0  0  0  0  0  0  0  0  0  0  0
   47.4726   31.0498   43.5290 H   0  0  0  0  0  0  0  0  0  0  0  0
   47.9552   28.5384   44.7197 S   0  0  0  0  0  0  0  0  0  0  0  0
   48.1303   27.4011   46.0789 C   0  0  0  0  0  0  0  0  0  0  0  0
   48.4271   26.0974   45.8194 C   0  0  0  0  0  0  0  0  0  0  0  0
   48.5530   25.7694   44.7867 H   0  0  0  0  0  0  0  0  0  0  0  0
   48.5764   25.1649   46.8213 C   0  0  0  0  0  0  0  0  0  0  0  0
   48.8103   24.1245   46.6692 H   0  0  0  0  0  0  0  0  0  0  0  0
   48.4133   25.5993   48.1188 C   0  0  0  0  0  0  0  0  0  0  0  0
   48.5208   24.9036   48.9399 H   0  0  0  0  0  0  0  0  0  0  0  0
   48.1133   26.9278   48.3374 C   0  0  0  0  0  0  0  0  0  0  0  0
   47.9980   27.1999   49.3988 H   0  0  0  0  0  0  0  0  0  0  0  0
   47.9586   27.8806   47.3529 C   0  0  0  0  0  0  0  0  0  0  0  0
   47.6534   29.1911   47.7422 N   0  0  0  0  0  0  0  0  0  0  0  0
   47.5520   29.4103   48.7552 H   0  0  0  0  0  0  0  0  0  0  0  0
  1  2  2  0
  2  3  1  0
  4  3  2  0
  5  4  1  0
  6  1  1  0
  6  5  2  0
  7 10  1  0
  7  9  1  0
  7  1  1  0
  8  7  1  0
  2 11  1  0
  5 12  1  0
 13 14  2  0
 14 15  1  0
 14 16  1  0
 16 17  1  0
 16 18  2  0
 18 19  1  0
 19 20  2  0
 20 21  1  0
 19 22  1  0
 22 23  1  0
 23 24  2  0
 24 25  1  0
 24 26  1  0
 26 27  1  0
 26 28  2  0
 28 29  1  0
 28 30  1  0
 30 31  1  0
 30 32  2  0
 32 33  1  0
 33 34  1  0
 20 13  1  0
 32 23  1  0
 33 18  1  0
  3 13  1  0
M  ISO  8  11  14  12  14  15  16  17  16  21  16  25  16  27  16  29  16
M  ISO  2  31  16  34   5
M  END
>  <DihAtoms>  (1) 
1,2,12,13

>  <DihDeg>  (1) 
-0.009098496134389953

$$$$
