
     RDKit          3D

 37 40  0  0  0  0  0  0  0  0999 V2000
   45.1936   35.2070   44.0533 C   0  0  0  0  0  0  0  0  0  0  0  0
   46.2348   34.5874   43.3699 C   0  0  0  0  0  0  0  0  0  0  0  0
   46.9117   33.5711   44.0699 C   0  0  0  0  0  0  0  0  0  0  0  0
   46.5133   33.2719   45.3317 N   0  0  0  0  0  0  0  0  0  0  0  0
   45.5050   33.9020   45.9378 C   0  0  0  0  0  0  0  0  0  0  0  0
   44.8402   34.8729   45.3009 N   0  0  0  0  0  0  0  0  0  0  0  0
   46.5463   35.0091   42.0231 C   0  0  1  0  0  0  0  0  0  0  0  0
   48.0512   35.1646   41.9194 C   0  0  0  0  0  0  0  0  0  0  0  0
   44.6099   36.0116   43.5830 H   0  0  0  0  0  0  0  0  0  0  0  0
   47.7274   33.0630   43.5750 H   0  0  0  0  0  0  0  0  0  0  0  0
   45.1697   33.6794   46.9455 H   0  0  0  0  0  0  0  0  0  0  0  0
   46.0828   36.0104   41.8524 H   0  0  0  0  0  0  0  0  0  0  0  0
   48.4149   35.9286   42.6414 H   0  0  0  0  0  0  0  0  0  0  0  0
   48.5015   34.1847   42.0702 H   0  0  0  0  0  0  0  0  0  0  0  0
   48.2481   35.5866   40.9024 H   0  0  0  0  0  0  0  0  0  0  0  0
   46.0579   34.0984   40.9534 C   0  0  0  0  0  0  0  0  0  0  0  0
   46.6224   33.8737   39.7126 C   0  0  0  0  0  0  0  0  0  0  0  0
   47.5139   34.4249   39.5105 H   0  0  0  0  0  0  0  0  0  0  0  0
   46.0473   32.9987   38.8355 C   0  0  0  0  0  0  0  0  0  0  0  0
   46.5624   32.8880   37.8860 H   0  0  0  0  0  0  0  0  0  0  0  0
   44.8949   32.3040   39.1318 C   0  0  0  0  0  0  0  0  0  0  0  0
   44.3027   32.4992   40.3547 C   0  0  0  0  0  0  0  0  0  0  0  0
   44.8877   33.3719   41.2132 C   0  0  0  0  0  0  0  0  0  0  0  0
   44.3989   33.5068   42.1721 H   0  0  0  0  0  0  0  0  0  0  0  0
   42.8116   31.6162   40.7688 S   0  0  0  0  0  0  0  0  0  0  0  0
   42.4458   30.6127   39.3439 C   0  0  0  0  0  0  0  0  0  0  0  0
   41.3357   29.8449   39.4380 C   0  0  0  0  0  0  0  0  0  0  0  0
   40.6839   29.8223   40.3238 H   0  0  0  0  0  0  0  0  0  0  0  0
   40.9529   29.0260   38.3956 C   0  0  0  0  0  0  0  0  0  0  0  0
   40.0708   28.4028   38.4449 H   0  0  0  0  0  0  0  0  0  0  0  0
   41.7354   29.0157   37.2596 C   0  0  0  0  0  0  0  0  0  0  0  0
   41.4656   28.3860   36.4229 H   0  0  0  0  0  0  0  0  0  0  0  0
   42.8496   29.8212   37.2331 C   0  0  0  0  0  0  0  0  0  0  0  0
   43.4258   29.7649   36.3019 H   0  0  0  0  0  0  0  0  0  0  0  0
   43.2666   30.6522   38.2502 C   0  0  0  0  0  0  0  0  0  0  0  0
   44.4309   31.4396   38.1167 N   0  0  0  0  0  0  0  0  0  0  0  0
   44.9304   31.3394   37.2100 H   0  0  0  0  0  0  0  0  0  0  0  0
  1  6  2  0
  2  1  1  0
  2  3  2  0
  3  4  1  0
  4  5  2  0
  6  5  1  0
  7  2  1  0
  8  7  1  0
  1  9  1  0
  3 10  1  0
  5 11  1  0
  7 12  1  6
  8 13  1  0
  8 14  1  0
  8 15  1  0
 16 17  2  0
 17 18  1  0
 17 19  1  0
 19 20  1  0
 19 21  2  0
 21 22  1  0
 22 23  2  0
 23 24  1  0
 22 25  1  0
 25 26  1  0
 26 27  2  0
 27 28  1  0
 27 29  1  0
 29 30  1  0
 29 31  2  0
 31 32  1  0
 31 33  1  0
 33 34  1  0
 33 35  2  0
 35 36  1  0
 36 37  1  0
 23 16  1  0
 35 26  1  0
 36 21  1  0
  7 16  1  0
M  ISO  8   9  14  10  14  11  14  12   8  13   8  14   8  15   8  18  16
M  ISO  7  20  16  24  16  28  16  30  16  32  16  34  16  37   5
M  END
>  <DihAtoms>  (1) 
1,6,15,16

>  <DihDeg>  (1) 
-89.77594872504334

$$$$
