
     RDKit          3D

 37 40  0  0  0  0  0  0  0  0999 V2000
   45.1936   35.2070   44.0533 C   0  0  0  0  0  0  0  0  0  0  0  0
   46.2348   34.5874   43.3699 C   0  0  0  0  0  0  0  0  0  0  0  0
   46.9117   33.5711   44.0699 C   0  0  0  0  0  0  0  0  0  0  0  0
   46.5133   33.2719   45.3317 N   0  0  0  0  0  0  0  0  0  0  0  0
   45.5050   33.9020   45.9378 C   0  0  0  0  0  0  0  0  0  0  0  0
   44.8402   34.8729   45.3009 N   0  0  0  0  0  0  0  0  0  0  0  0
   46.5463   35.0091   42.0231 C   0  0  1  0  0  0  0  0  0  0  0  0
   48.0512   35.1646   41.9194 C   0  0  0  0  0  0  0  0  0  0  0  0
   44.6099   36.0116   43.5830 H   0  0  0  0  0  0  0  0  0  0  0  0
   47.7274   33.0630   43.5750 H   0  0  0  0  0  0  0  0  0  0  0  0
   45.1697   33.6794   46.9455 H   0  0  0  0  0  0  0  0  0  0  0  0
   46.0828   36.0104   41.8524 H   0  0  0  0  0  0  0  0  0  0  0  0
   48.4149   35.9286   42.6414 H   0  0  0  0  0  0  0  0  0  0  0  0
   48.5015   34.1847   42.0702 H   0  0  0  0  0  0  0  0  0  0  0  0
   48.2481   35.5866   40.9024 H   0  0  0  0  0  0  0  0  0  0  0  0
   46.0579   34.0984   40.9534 C   0  0  0  0  0  0  0  0  0  0  0  0
   46.7988   33.2129   40.1947 C   0  0  0  0  0  0  0  0  0  0  0  0
   47.8436   33.1893   40.4120 H   0  0  0  0  0  0  0  0  0  0  0  0
   46.1965   32.4399   39.2431 C   0  0  0  0  0  0  0  0  0  0  0  0
   46.8596   31.7748   38.6980 H   0  0  0  0  0  0  0  0  0  0  0  0
   44.8433   32.4976   38.9906 C   0  0  0  0  0  0  0  0  0  0  0  0
   44.0717   33.3650   39.7231 C   0  0  0  0  0  0  0  0  0  0  0  0
   44.6867   34.1250   40.6638 C   0  0  0  0  0  0  0  0  0  0  0  0
   44.0534   34.8013   41.2278 H   0  0  0  0  0  0  0  0  0  0  0  0
   42.3186   33.4638   39.4210 S   0  0  0  0  0  0  0  0  0  0  0  0
   41.9972   32.2938   38.1175 C   0  0  0  0  0  0  0  0  0  0  0  0
   40.7074   32.1997   37.7201 C   0  0  0  0  0  0  0  0  0  0  0  0
   39.8908   32.7943   38.1557 H   0  0  0  0  0  0  0  0  0  0  0  0
   40.3391   31.3265   36.7174 C   0  0  0  0  0  0  0  0  0  0  0  0
   39.3160   31.2317   36.3811 H   0  0  0  0  0  0  0  0  0  0  0  0
   41.3245   30.5558   36.1360 C   0  0  0  0  0  0  0  0  0  0  0  0
   41.0723   29.8605   35.3471 H   0  0  0  0  0  0  0  0  0  0  0  0
   42.6143   30.7033   36.5896 C   0  0  0  0  0  0  0  0  0  0  0  0
   43.3468   30.0618   36.0852 H   0  0  0  0  0  0  0  0  0  0  0  0
   43.0239   31.5620   37.5865 C   0  0  0  0  0  0  0  0  0  0  0  0
   44.3793   31.6334   37.9752 N   0  0  0  0  0  0  0  0  0  0  0  0
   45.0212   30.9995   37.4578 H   0  0  0  0  0  0  0  0  0  0  0  0
  1  6  2  0
  2  1  1  0
  2  3  2  0
  3  4  1  0
  4  5  2  0
  6  5  1  0
  7  2  1  0
  8  7  1  0
  1  9  1  0
  3 10  1  0
  5 11  1  0
  7 12  1  6
  8 13  1  0
  8 14  1  0
  8 15  1  0
 16 17  2  0
 17 18  1  0
 17 19  1  0
 19 20  1  0
 19 21  2  0
 21 22  1  0
 22 23  2  0
 23 24  1  0
 22 25  1  0
 25 26  1  0
 26 27  2  0
 27 28  1  0
 27 29  1  0
 29 30  1  0
 29 31  2  0
 31 32  1  0
 31 33  1  0
 33 34  1  0
 33 35  2  0
 35 36  1  0
 36 37  1  0
 23 16  1  0
 35 26  1  0
 36 21  1  0
  7 16  1  0
M  ISO  8   9  14  10  14  11  14  12   8  13   8  14   8  15   8  18  16
M  ISO  7  20  16  24  16  28  16  30  16  32  16  34  16  37   5
M  END
>  <DihAtoms>  (1) 
1,6,15,16

>  <DihDeg>  (1) 
-89.77594872504334

$$$$
