
     RDKit          3D

 37 40  0  0  0  0  0  0  0  0999 V2000
   45.1936   35.2070   44.0533 C   0  0  0  0  0  0  0  0  0  0  0  0
   46.2348   34.5874   43.3699 C   0  0  0  0  0  0  0  0  0  0  0  0
   46.9117   33.5711   44.0699 C   0  0  0  0  0  0  0  0  0  0  0  0
   46.5133   33.2719   45.3317 N   0  0  0  0  0  0  0  0  0  0  0  0
   45.5050   33.9020   45.9378 C   0  0  0  0  0  0  0  0  0  0  0  0
   44.8402   34.8729   45.3009 N   0  0  0  0  0  0  0  0  0  0  0  0
   46.5463   35.0091   42.0231 C   0  0  1  0  0  0  0  0  0  0  0  0
   48.0512   35.1646   41.9194 C   0  0  0  0  0  0  0  0  0  0  0  0
   44.6099   36.0116   43.5830 H   0  0  0  0  0  0  0  0  0  0  0  0
   47.7274   33.0630   43.5750 H   0  0  0  0  0  0  0  0  0  0  0  0
   45.1697   33.6794   46.9455 H   0  0  0  0  0  0  0  0  0  0  0  0
   46.0828   36.0104   41.8524 H   0  0  0  0  0  0  0  0  0  0  0  0
   48.4149   35.9286   42.6414 H   0  0  0  0  0  0  0  0  0  0  0  0
   48.5015   34.1847   42.0702 H   0  0  0  0  0  0  0  0  0  0  0  0
   48.2481   35.5866   40.9024 H   0  0  0  0  0  0  0  0  0  0  0  0
   46.0579   34.0984   40.9534 C   0  0  0  0  0  0  0  0  0  0  0  0
   46.8087   33.4278   40.0071 C   0  0  0  0  0  0  0  0  0  0  0  0
   47.8622   33.5911   40.0614 H   0  0  0  0  0  0  0  0  0  0  0  0
   46.2049   32.6216   39.0845 C   0  0  0  0  0  0  0  0  0  0  0  0
   46.8763   32.1369   38.3821 H   0  0  0  0  0  0  0  0  0  0  0  0
   44.8403   32.4346   39.0455 C   0  0  0  0  0  0  0  0  0  0  0  0
   44.0587   33.0834   39.9688 C   0  0  0  0  0  0  0  0  0  0  0  0
   44.6754   33.8800   40.8775 C   0  0  0  0  0  0  0  0  0  0  0  0
   44.0340   34.3803   41.5951 H   0  0  0  0  0  0  0  0  0  0  0  0
   42.2909   32.8628   39.9452 S   0  0  0  0  0  0  0  0  0  0  0  0
   41.9720   31.7470   38.5945 C   0  0  0  0  0  0  0  0  0  0  0  0
   40.6720   31.4338   38.3883 C   0  0  0  0  0  0  0  0  0  0  0  0
   39.8462   31.8277   38.9990 H   0  0  0  0  0  0  0  0  0  0  0  0
   40.3045   30.5782   37.3702 C   0  0  0  0  0  0  0  0  0  0  0  0
   39.2735   30.3116   37.1838 H   0  0  0  0  0  0  0  0  0  0  0  0
   41.3014   30.0549   36.5730 C   0  0  0  0  0  0  0  0  0  0  0  0
   41.0501   29.3809   35.7656 H   0  0  0  0  0  0  0  0  0  0  0  0
   42.6010   30.4164   36.8399 C   0  0  0  0  0  0  0  0  0  0  0  0
   43.3423   29.9653   36.1695 H   0  0  0  0  0  0  0  0  0  0  0  0
   43.0102   31.2661   37.8446 C   0  0  0  0  0  0  0  0  0  0  0  0
   44.3763   31.5704   38.0302 N   0  0  0  0  0  0  0  0  0  0  0  0
   45.0263   31.1100   37.3614 H   0  0  0  0  0  0  0  0  0  0  0  0
  1  6  2  0
  2  1  1  0
  2  3  2  0
  3  4  1  0
  4  5  2  0
  6  5  1  0
  7  2  1  0
  8  7  1  0
  1  9  1  0
  3 10  1  0
  5 11  1  0
  7 12  1  6
  8 13  1  0
  8 14  1  0
  8 15  1  0
 16 17  2  0
 17 18  1  0
 17 19  1  0
 19 20  1  0
 19 21  2  0
 21 22  1  0
 22 23  2  0
 23 24  1  0
 22 25  1  0
 25 26  1  0
 26 27  2  0
 27 28  1  0
 27 29  1  0
 29 30  1  0
 29 31  2  0
 31 32  1  0
 31 33  1  0
 33 34  1  0
 33 35  2  0
 35 36  1  0
 36 37  1  0
 23 16  1  0
 35 26  1  0
 36 21  1  0
  7 16  1  0
M  ISO  8   9  14  10  14  11  14  12   8  13   8  14   8  15   8  18  16
M  ISO  7  20  16  24  16  28  16  30  16  32  16  34  16  37   5
M  END
>  <DihAtoms>  (1) 
1,6,15,16

>  <DihDeg>  (1) 
-89.77594872504334

$$$$
