
     RDKit          3D

 34 37  0  0  0  0  0  0  0  0999 V2000
   47.6833   34.9602   42.3473 C   0  0  0  0  0  0  0  0  0  0  0  0
   47.9135   33.9184   43.2494 C   0  0  0  0  0  0  0  0  0  0  0  0
   46.9016   33.5308   44.1272 C   0  0  0  0  0  0  0  0  0  0  0  0
   45.7257   34.2056   44.0498 N   0  0  0  0  0  0  0  0  0  0  0  0
   45.5152   35.2026   43.1817 C   0  0  0  0  0  0  0  0  0  0  0  0
   46.4852   35.5708   42.3436 N   0  0  0  0  0  0  0  0  0  0  0  0
   48.7895   35.3444   41.4263 C   0  0  0  0  0  0  0  0  0  0  0  0
   48.4165   35.2404   40.1099 F   0  0  0  0  0  0  0  0  0  0  0  0
   49.2161   36.6126   41.7546 F   0  0  0  0  0  0  0  0  0  0  0  0
   49.8854   34.4992   41.6681 F   0  0  0  0  0  0  0  0  0  0  0  0
   48.8566   33.4349   43.2551 H   0  0  0  0  0  0  0  0  0  0  0  0
   44.5436   35.6811   43.1949 H   0  0  0  0  0  0  0  0  0  0  0  0
   47.0853   32.4529   45.0876 C   0  0  0  0  0  0  0  0  0  0  0  0
   47.5611   32.6055   46.3717 C   0  0  0  0  0  0  0  0  0  0  0  0
   47.8198   33.5851   46.7030 H   0  0  0  0  0  0  0  0  0  0  0  0
   47.6887   31.4987   47.1865 C   0  0  0  0  0  0  0  0  0  0  0  0
   48.0746   31.7169   48.1891 H   0  0  0  0  0  0  0  0  0  0  0  0
   47.3665   30.2135   46.8007 C   0  0  0  0  0  0  0  0  0  0  0  0
   46.8953   30.0918   45.5166 C   0  0  0  0  0  0  0  0  0  0  0  0
   46.7648   31.1673   44.7067 C   0  0  0  0  0  0  0  0  0  0  0  0
   46.3815   31.0057   43.6882 H   0  0  0  0  0  0  0  0  0  0  0  0
   46.4576   28.4780   44.9384 S   0  0  0  0  0  0  0  0  0  0  0  0
   46.7670   27.3464   46.2783 C   0  0  0  0  0  0  0  0  0  0  0  0
   46.5119   26.0205   46.0994 C   0  0  0  0  0  0  0  0  0  0  0  0
   46.1232   25.6717   45.1418 H   0  0  0  0  0  0  0  0  0  0  0  0
   46.7277   25.0908   47.0918 C   0  0  0  0  0  0  0  0  0  0  0  0
   46.5425   24.0336   47.0010 H   0  0  0  0  0  0  0  0  0  0  0  0
   47.2190   25.5518   48.2939 C   0  0  0  0  0  0  0  0  0  0  0  0
   47.4047   24.8595   49.1038 H   0  0  0  0  0  0  0  0  0  0  0  0
   47.4637   26.9022   48.4329 C   0  0  0  0  0  0  0  0  0  0  0  0
   47.8548   27.1948   49.4205 H   0  0  0  0  0  0  0  0  0  0  0  0
   47.2563   27.8527   47.4559 C   0  0  0  0  0  0  0  0  0  0  0  0
   47.5558   29.1875   47.7568 N   0  0  0  0  0  0  0  0  0  0  0  0
   47.9238   29.4258   48.7015 H   0  0  0  0  0  0  0  0  0  0  0  0
  1  2  2  0
  2  3  1  0
  4  3  2  0
  5  4  1  0
  6  1  1  0
  6  5  2  0
  7 10  1  0
  7  9  1  0
  7  1  1  0
  8  7  1  0
  2 11  1  0
  5 12  1  0
 13 14  2  0
 14 15  1  0
 14 16  1  0
 16 17  1  0
 16 18  2  0
 18 19  1  0
 19 20  2  0
 20 21  1  0
 19 22  1  0
 22 23  1  0
 23 24  2  0
 24 25  1  0
 24 26  1  0
 26 27  1  0
 26 28  2  0
 28 29  1  0
 28 30  1  0
 30 31  1  0
 30 32  2  0
 32 33  1  0
 33 34  1  0
 20 13  1  0
 32 23  1  0
 33 18  1  0
  3 13  1  0
M  ISO  8  11  14  12  14  15  16  17  16  21  16  25  16  27  16  29  16
M  ISO  2  31  16  34   5
M  END
>  <DihAtoms>  (1) 
1,2,12,13

>  <DihDeg>  (1) 
-0.009098496134389953

$$$$
