
     RDKit          3D

 37 40  0  0  0  0  0  0  0  0999 V2000
   45.1936   35.2070   44.0533 C   0  0  0  0  0  0  0  0  0  0  0  0
   46.2348   34.5874   43.3699 C   0  0  0  0  0  0  0  0  0  0  0  0
   46.9117   33.5711   44.0699 C   0  0  0  0  0  0  0  0  0  0  0  0
   46.5133   33.2719   45.3317 N   0  0  0  0  0  0  0  0  0  0  0  0
   45.5050   33.9020   45.9378 C   0  0  0  0  0  0  0  0  0  0  0  0
   44.8402   34.8729   45.3009 N   0  0  0  0  0  0  0  0  0  0  0  0
   46.5463   35.0091   42.0231 C   0  0  1  0  0  0  0  0  0  0  0  0
   48.0512   35.1646   41.9194 C   0  0  0  0  0  0  0  0  0  0  0  0
   44.6099   36.0116   43.5830 H   0  0  0  0  0  0  0  0  0  0  0  0
   47.7274   33.0630   43.5750 H   0  0  0  0  0  0  0  0  0  0  0  0
   45.1697   33.6794   46.9455 H   0  0  0  0  0  0  0  0  0  0  0  0
   46.0828   36.0104   41.8524 H   0  0  0  0  0  0  0  0  0  0  0  0
   48.4149   35.9286   42.6414 H   0  0  0  0  0  0  0  0  0  0  0  0
   48.5015   34.1847   42.0702 H   0  0  0  0  0  0  0  0  0  0  0  0
   48.2481   35.5866   40.9024 H   0  0  0  0  0  0  0  0  0  0  0  0
   46.0579   34.0984   40.9534 C   0  0  0  0  0  0  0  0  0  0  0  0
   46.7195   33.0230   40.3925 C   0  0  0  0  0  0  0  0  0  0  0  0
   47.6953   32.8343   40.7819 H   0  0  0  0  0  0  0  0  0  0  0  0
   46.1295   32.2793   39.4104 C   0  0  0  0  0  0  0  0  0  0  0  0
   46.7261   31.4550   39.0312 H   0  0  0  0  0  0  0  0  0  0  0  0
   44.8665   32.5532   38.9326 C   0  0  0  0  0  0  0  0  0  0  0  0
   44.1756   33.6137   39.4639 C   0  0  0  0  0  0  0  0  0  0  0  0
   44.7771   34.3413   40.4384 C   0  0  0  0  0  0  0  0  0  0  0  0
   44.2087   35.1732   40.8403 H   0  0  0  0  0  0  0  0  0  0  0  0
   42.5403   33.9945   38.8679 S   0  0  0  0  0  0  0  0  0  0  0  0
   42.1990   32.7767   37.6142 C   0  0  0  0  0  0  0  0  0  0  0  0
   40.9900   32.8762   37.0151 C   0  0  0  0  0  0  0  0  0  0  0  0
   40.2475   33.6481   37.2661 H   0  0  0  0  0  0  0  0  0  0  0  0
   40.6152   31.9873   36.0287 C   0  0  0  0  0  0  0  0  0  0  0  0
   39.6555   32.0444   35.5342 H   0  0  0  0  0  0  0  0  0  0  0  0
   41.5094   30.9982   35.6749 C   0  0  0  0  0  0  0  0  0  0  0  0
   41.2493   30.2841   34.9057 H   0  0  0  0  0  0  0  0  0  0  0  0
   42.7202   30.9567   36.3255 C   0  0  0  0  0  0  0  0  0  0  0  0
   43.3825   30.1471   35.9963 H   0  0  0  0  0  0  0  0  0  0  0  0
   43.1331   31.8233   37.3141 C   0  0  0  0  0  0  0  0  0  0  0  0
   44.4026   31.6891   37.9172 N   0  0  0  0  0  0  0  0  0  0  0  0
   44.9805   30.9018   37.5596 H   0  0  0  0  0  0  0  0  0  0  0  0
  1  6  2  0
  2  1  1  0
  2  3  2  0
  3  4  1  0
  4  5  2  0
  6  5  1  0
  7  2  1  0
  8  7  1  0
  1  9  1  0
  3 10  1  0
  5 11  1  0
  7 12  1  6
  8 13  1  0
  8 14  1  0
  8 15  1  0
 16 17  2  0
 17 18  1  0
 17 19  1  0
 19 20  1  0
 19 21  2  0
 21 22  1  0
 22 23  2  0
 23 24  1  0
 22 25  1  0
 25 26  1  0
 26 27  2  0
 27 28  1  0
 27 29  1  0
 29 30  1  0
 29 31  2  0
 31 32  1  0
 31 33  1  0
 33 34  1  0
 33 35  2  0
 35 36  1  0
 36 37  1  0
 23 16  1  0
 35 26  1  0
 36 21  1  0
  7 16  1  0
M  ISO  8   9  14  10  14  11  14  12   8  13   8  14   8  15   8  18  16
M  ISO  7  20  16  24  16  28  16  30  16  32  16  34  16  37   5
M  END
>  <DihAtoms>  (1) 
1,6,15,16

>  <DihDeg>  (1) 
-89.77594872504334

$$$$
