
 OpenBabel03252502363D

 37 40  0  0  1  0  0  0  0  0999 V2000
   44.5420   34.0190   40.8410 C   0  0  0  0  0  0  0  0  0  0  0  0
   44.6740   32.6990   40.4600 C   0  0  0  0  0  0  0  0  0  0  0  0
   45.5830   32.2260   40.7600 H   0  0  0  0  0  0  0  0  0  0  0  0
   43.6850   32.0780   39.7510 C   0  0  0  0  0  0  0  0  0  0  0  0
   43.8780   31.0390   39.4970 H   0  0  0  0  0  0  0  0  0  0  0  0
   42.5240   32.7200   39.3830 C   0  0  0  0  0  0  0  0  0  0  0  0
   42.3540   34.0340   39.7420 C   0  0  0  0  0  0  0  0  0  0  0  0
   43.3470   34.6340   40.4460 C   0  0  0  0  0  0  0  0  0  0  0  0
   43.1860   35.6730   40.7160 H   0  0  0  0  0  0  0  0  0  0  0  0
   40.8630   34.8940   39.2810 S   0  0  0  0  0  0  0  0  0  0  0  0
   39.8890   33.7020   38.3860 C   0  0  0  0  0  0  0  0  0  0  0  0
   38.6930   34.1450   37.9330 C   0  0  0  0  0  0  0  0  0  0  0  0
   38.3220   35.1690   38.0920 H   0  0  0  0  0  0  0  0  0  0  0  0
   37.8520   33.3110   37.2260 C   0  0  0  0  0  0  0  0  0  0  0  0
   36.8920   33.6400   36.8530 H   0  0  0  0  0  0  0  0  0  0  0  0
   38.2680   32.0160   36.9970 C   0  0  0  0  0  0  0  0  0  0  0  0
   37.6340   31.3330   36.4470 H   0  0  0  0  0  0  0  0  0  0  0  0
   39.4940   31.6330   37.4870 C   0  0  0  0  0  0  0  0  0  0  0  0
   39.7630   30.5920   37.2700 H   0  0  0  0  0  0  0  0  0  0  0  0
   40.3630   32.4330   38.1960 C   0  0  0  0  0  0  0  0  0  0  0  0
   41.6040   31.9370   38.6540 N   0  0  0  0  0  0  0  0  0  0  0  0
   41.7960   30.9430   38.4140 H   0  0  0  0  0  0  0  0  0  0  0  0
   45.5120   34.8450   41.6090 C   0  0  1  0  0  0  0  0  0  0  0  0
   45.4370   35.8930   41.2310 H   0  0  0  0  0  0  0  0  0  0  0  0
   44.7270   35.9830   43.6290 C   0  0  0  0  0  0  0  0  0  0  0  0
   45.2990   34.8610   43.0390 C   0  0  0  0  0  0  0  0  0  0  0  0
   45.6280   33.8070   43.9110 C   0  0  0  0  0  0  0  0  0  0  0  0
   45.3710   33.9520   45.2350 N   0  0  0  0  0  0  0  0  0  0  0  0
   44.8180   35.0540   45.7460 C   0  0  0  0  0  0  0  0  0  0  0  0
   44.4930   36.0760   44.9440 N   0  0  0  0  0  0  0  0  0  0  0  0
   44.4380   36.8540   43.0230 H   0  0  0  0  0  0  0  0  0  0  0  0
   46.0750   32.9160   43.4930 H   0  0  0  0  0  0  0  0  0  0  0  0
   44.6040   35.1910   46.8010 H   0  0  0  0  0  0  0  0  0  0  0  0
   46.9230   34.3540   41.3530 C   0  0  0  0  0  0  0  0  0  0  0  0
   47.6650   35.0310   41.8310 H   0  0  0  0  0  0  0  0  0  0  0  0
   46.9910   33.3260   41.7070 H   0  0  0  0  0  0  0  0  0  0  0  0
   47.0880   34.4500   40.2500 H   0  0  0  0  0  0  0  0  0  0  0  0
  1 23  1  0  0  0  0
  2  3  1  0  0  0  0
  2  1  1  0  0  0  0
  4  2  2  0  0  0  0
  5  4  1  0  0  0  0
  6  7  2  0  0  0  0
  6  4  1  0  0  0  0
  7  8  1  0  0  0  0
  8  9  1  0  0  0  0
  8  1  2  0  0  0  0
 10  7  1  0  0  0  0
 11 10  1  0  0  0  0
 12 13  1  0  0  0  0
 12 11  2  0  0  0  0
 14 12  1  0  0  0  0
 15 14  1  0  0  0  0
 16 14  2  0  0  0  0
 16 18  1  0  0  0  0
 17 16  1  0  0  0  0
 18 20  2  0  0  0  0
 19 18  1  0  0  0  0
 20 11  1  0  0  0  0
 20 21  1  0  0  0  0
 21  6  1  0  0  0  0
 22 21  1  0  0  0  0
 23 24  1  6  0  0  0
 23 26  1  0  0  0  0
 25 30  1  0  0  0  0
 26 25  2  0  0  0  0
 26 27  1  0  0  0  0
 27 28  2  0  0  0  0
 28 29  1  0  0  0  0
 29 33  1  0  0  0  0
 30 29  2  0  0  0  0
 31 25  1  0  0  0  0
 32 27  1  0  0  0  0
 34 23  1  0  0  0  0
 34 36  1  0  0  0  0
 34 35  1  0  0  0  0
 37 34  1  0  0  0  0
M  END
>  <minimizedAffinity>
-6.11461067

>  <minimizedRMSD>
2.95079374

$$$$
