REMARK  Name = 
REMARK  2 active torsions:
REMARK  status: ('A' for Active; 'I' for Inactive)
REMARK    1  A    between atoms: C_1  and  C_7
REMARK    2  A    between atoms: C_3  and  C_13
REMARK                            x       y       z     vdW  Elec       q    Type
REMARK                         _______ _______ _______ _____ _____    ______ ____
ROOT
ATOM      1  C   UNL     1      47.085  32.453  45.088  0.00  0.00    +0.000 A 
ATOM      2  C   UNL     1      46.551  31.188  44.974  0.00  0.00    +0.000 A 
ATOM      3  H   UNL     1      45.952  30.966  44.120  0.00  0.00    +0.000 HD
ATOM      4  C   UNL     1      46.801  30.252  45.957  0.00  0.00    +0.000 A 
ATOM      5  H   UNL     1      46.335  29.276  45.782  0.00  0.00    +0.000 HD
ATOM      6  C   UNL     1      47.569  30.495  47.078  0.00  0.00    +0.000 A 
ATOM      7  C   UNL     1      48.088  31.764  47.165  0.00  0.00    +0.000 A 
ATOM      8  C   UNL     1      47.851  32.691  46.209  0.00  0.00    +0.000 A 
ATOM      9  H   UNL     1      48.295  33.690  46.334  0.00  0.00    +0.000 HD
ATOM     10  S   UNL     1      49.086  32.162  48.570  0.00  0.00    +0.000 S 
ATOM     11  C   UNL     1      49.160  30.699  49.584  0.00  0.00    +0.000 A 
ATOM     12  C   UNL     1      49.874  30.731  50.743  0.00  0.00    +0.000 A 
ATOM     13  H   UNL     1      50.388  31.648  51.034  0.00  0.00    +0.000 HD
ATOM     14  C   UNL     1      49.974  29.638  51.574  0.00  0.00    +0.000 A 
ATOM     15  H   UNL     1      50.525  29.611  52.500  0.00  0.00    +0.000 HD
ATOM     16  C   UNL     1      49.318  28.489  51.189  0.00  0.00    +0.000 A 
ATOM     17  H   UNL     1      49.367  27.604  51.809  0.00  0.00    +0.000 HD
ATOM     18  C   UNL     1      48.606  28.500  50.007  0.00  0.00    +0.000 A 
ATOM     19  H   UNL     1      48.109  27.546  49.766  0.00  0.00    +0.000 HD
ATOM     20  C   UNL     1      48.490  29.580  49.158  0.00  0.00    +0.000 A 
ATOM     21  N   UNL     1      47.729  29.427  47.993  0.00  0.00    +0.000 N 
ATOM     22  H   UNL     1      47.274  28.511  47.799  0.00  0.00    +0.000 HD
ENDROOT
BRANCH   1  25
ATOM     23  C   UNL     1      47.683  34.960  42.347  0.00  0.00    +0.000 A 
ATOM     24  C   UNL     1      47.913  33.918  43.249  0.00  0.00    +0.000 A 
ATOM     25  C   UNL     1      46.902  33.531  44.127  0.00  0.00    +0.000 A 
ATOM     26  N   UNL     1      45.726  34.206  44.050  0.00  0.00    +0.000 NA
ATOM     27  C   UNL     1      45.515  35.203  43.182  0.00  0.00    +0.000 A 
ATOM     28  N   UNL     1      46.485  35.571  42.344  0.00  0.00    +0.000 NA
ATOM     29  H   UNL     1      48.857  33.435  43.255  0.00  0.00    +0.000 HD
ATOM     30  H   UNL     1      44.544  35.681  43.195  0.00  0.00    +0.000 HD
BRANCH  23  31
ATOM     31  C   UNL     1      48.789  35.344  41.426  0.00  0.00    +0.000 C 
ATOM     32  F   UNL     1      48.416  35.240  40.110  0.00  0.00    +0.000 F 
ATOM     33  F   UNL     1      49.216  36.613  41.755  0.00  0.00    +0.000 F 
ATOM     34  F   UNL     1      49.885  34.499  41.668  0.00  0.00    +0.000 F 
ENDBRANCH  23  31
ENDBRANCH   1  25
TORSDOF 2
