
 OpenBabel03252503523D

 34 37  0  0  0  0  0  0  0  0999 V2000
   34.8800   28.2500   38.4960 C   0  0  0  0  0  0  0  0  0  0  0  0
   34.6790   29.1410   39.5280 C   0  0  0  0  0  0  0  0  0  0  0  0
   33.9300   29.8920   39.4110 H   0  0  0  0  0  0  0  0  0  0  0  0
   35.4400   29.0370   40.6740 C   0  0  0  0  0  0  0  0  0  0  0  0
   35.2110   29.7870   41.4400 H   0  0  0  0  0  0  0  0  0  0  0  0
   36.4180   28.0830   40.8700 C   0  0  0  0  0  0  0  0  0  0  0  0
   36.5970   27.2100   39.8230 C   0  0  0  0  0  0  0  0  0  0  0  0
   35.8570   27.3000   38.6940 C   0  0  0  0  0  0  0  0  0  0  0  0
   36.0470   26.5710   37.8920 H   0  0  0  0  0  0  0  0  0  0  0  0
   37.8300   25.9530   39.9880 S   0  0  0  0  0  0  0  0  0  0  0  0
   38.5740   26.1650   41.5920 C   0  0  0  0  0  0  0  0  0  0  0  0
   39.5680   25.3170   41.9800 C   0  0  0  0  0  0  0  0  0  0  0  0
   39.8920   24.5240   41.3060 H   0  0  0  0  0  0  0  0  0  0  0  0
   40.1870   25.4240   43.2060 C   0  0  0  0  0  0  0  0  0  0  0  0
   40.9750   24.7810   43.5590 H   0  0  0  0  0  0  0  0  0  0  0  0
   39.7630   26.4330   44.0430 C   0  0  0  0  0  0  0  0  0  0  0  0
   40.2190   26.5570   45.0160 H   0  0  0  0  0  0  0  0  0  0  0  0
   38.7540   27.2690   43.6110 C   0  0  0  0  0  0  0  0  0  0  0  0
   38.4700   28.0500   44.3340 H   0  0  0  0  0  0  0  0  0  0  0  0
   38.1190   27.1840   42.3900 C   0  0  0  0  0  0  0  0  0  0  0  0
   37.1110   28.1130   42.1030 N   0  0  0  0  0  0  0  0  0  0  0  0
   36.8690   28.8370   42.8110 H   0  0  0  0  0  0  0  0  0  0  0  0
   32.5050   29.1510   35.7200 C   0  0  0  0  0  0  0  0  0  0  0  0
   33.1770   29.2020   36.9440 C   0  0  0  0  0  0  0  0  0  0  0  0
   34.1490   28.2470   37.2370 C   0  0  0  0  0  0  0  0  0  0  0  0
   34.3900   27.3020   36.2920 N   0  0  0  0  0  0  0  0  0  0  0  0
   33.7410   27.2610   35.1210 C   0  0  0  0  0  0  0  0  0  0  0  0
   32.8120   28.1760   34.8450 N   0  0  0  0  0  0  0  0  0  0  0  0
   32.9360   29.9680   37.6370 H   0  0  0  0  0  0  0  0  0  0  0  0
   34.0040   26.4700   34.4310 H   0  0  0  0  0  0  0  0  0  0  0  0
   31.4730   30.1890   35.4450 C   0  0  0  0  0  0  0  0  0  0  0  0
   30.2870   29.6330   35.0370 F   0  0  0  0  0  0  0  0  0  0  0  0
   31.3290   30.9760   36.5680 F   0  0  0  0  0  0  0  0  0  0  0  0
   31.9570   31.0440   34.4410 F   0  0  0  0  0  0  0  0  0  0  0  0
  1  8  2  0  0  0  0
  1  2  1  0  0  0  0
  2  4  2  0  0  0  0
  3  2  1  0  0  0  0
  4  6  1  0  0  0  0
  4  5  1  0  0  0  0
  6 21  1  0  0  0  0
  7 10  1  0  0  0  0
  7  6  2  0  0  0  0
  8  7  1  0  0  0  0
  9  8  1  0  0  0  0
 10 11  1  0  0  0  0
 11 12  2  0  0  0  0
 11 20  1  0  0  0  0
 12 14  1  0  0  0  0
 13 12  1  0  0  0  0
 14 15  1  0  0  0  0
 14 16  2  0  0  0  0
 16 17  1  0  0  0  0
 18 16  1  0  0  0  0
 18 19  1  0  0  0  0
 20 18  2  0  0  0  0
 21 20  1  0  0  0  0
 21 22  1  0  0  0  0
 23 24  1  0  0  0  0
 24 25  2  0  0  0  0
 24 29  1  0  0  0  0
 25  1  1  0  0  0  0
 26 25  1  0  0  0  0
 27 26  2  0  0  0  0
 28 27  1  0  0  0  0
 28 23  2  0  0  0  0
 30 27  1  0  0  0  0
 31 23  1  0  0  0  0
 31 33  1  0  0  0  0
 32 31  1  0  0  0  0
 34 31  1  0  0  0  0
M  END
>  <minimizedAffinity>
-6.00487995

$$$$

 OpenBabel03252503523D

 34 37  0  0  0  0  0  0  0  0999 V2000
   39.0100   30.8350   40.9900 C   0  0  0  0  0  0  0  0  0  0  0  0
   39.1220   30.3320   42.2690 C   0  0  0  0  0  0  0  0  0  0  0  0
   39.5450   30.9560   43.0230 H   0  0  0  0  0  0  0  0  0  0  0  0
   38.6850   29.0510   42.5370 C   0  0  0  0  0  0  0  0  0  0  0  0
   38.8140   28.7370   43.5790 H   0  0  0  0  0  0  0  0  0  0  0  0
   38.1300   28.2090   41.5940 C   0  0  0  0  0  0  0  0  0  0  0  0
   38.0330   28.7370   40.3290 C   0  0  0  0  0  0  0  0  0  0  0  0
   38.4560   29.9910   40.0520 C   0  0  0  0  0  0  0  0  0  0  0  0
   38.3510   30.3570   39.0200 H   0  0  0  0  0  0  0  0  0  0  0  0
   37.3330   27.7270   39.0570 S   0  0  0  0  0  0  0  0  0  0  0  0
   36.9050   26.1700   39.8080 C   0  0  0  0  0  0  0  0  0  0  0  0
   36.3410   25.1960   39.0410 C   0  0  0  0  0  0  0  0  0  0  0  0
   36.1600   25.3820   37.9820 H   0  0  0  0  0  0  0  0  0  0  0  0
   35.9860   23.9690   39.5570 C   0  0  0  0  0  0  0  0  0  0  0  0
   35.5380   23.1670   38.9940 H   0  0  0  0  0  0  0  0  0  0  0  0
   36.2240   23.7530   40.8970 C   0  0  0  0  0  0  0  0  0  0  0  0
   35.9620   22.8050   41.3470 H   0  0  0  0  0  0  0  0  0  0  0  0
   36.7970   24.7660   41.6370 C   0  0  0  0  0  0  0  0  0  0  0  0
   36.9560   24.5200   42.6990 H   0  0  0  0  0  0  0  0  0  0  0  0
   37.1610   26.0020   41.1450 C   0  0  0  0  0  0  0  0  0  0  0  0
   37.7330   26.9230   42.0310 N   0  0  0  0  0  0  0  0  0  0  0  0
   37.8680   26.6550   43.0280 H   0  0  0  0  0  0  0  0  0  0  0  0
   40.9750   33.6800   39.5080 C   0  0  0  0  0  0  0  0  0  0  0  0
   40.6220   32.3820   39.8850 C   0  0  0  0  0  0  0  0  0  0  0  0
   39.4280   32.1650   40.5720 C   0  0  0  0  0  0  0  0  0  0  0  0
   38.6630   33.2540   40.8390 N   0  0  0  0  0  0  0  0  0  0  0  0
   39.0100   34.4940   40.4740 C   0  0  0  0  0  0  0  0  0  0  0  0
   40.1530   34.6980   39.8170 N   0  0  0  0  0  0  0  0  0  0  0  0
   41.2680   31.5770   39.6450 H   0  0  0  0  0  0  0  0  0  0  0  0
   38.3340   35.3000   40.7310 H   0  0  0  0  0  0  0  0  0  0  0  0
   42.2580   33.8700   38.7760 C   0  0  0  0  0  0  0  0  0  0  0  0
   42.8130   32.6730   38.4010 F   0  0  0  0  0  0  0  0  0  0  0  0
   42.0340   34.7080   37.7040 F   0  0  0  0  0  0  0  0  0  0  0  0
   43.1530   34.5560   39.6140 F   0  0  0  0  0  0  0  0  0  0  0  0
  1  2  1  0  0  0  0
  2  4  2  0  0  0  0
  2  3  1  0  0  0  0
  4  5  1  0  0  0  0
  6 21  1  0  0  0  0
  6  4  1  0  0  0  0
  7  6  2  0  0  0  0
  8  7  1  0  0  0  0
  8  1  2  0  0  0  0
  9  8  1  0  0  0  0
 10 11  1  0  0  0  0
 10  7  1  0  0  0  0
 11 20  1  0  0  0  0
 12 14  1  0  0  0  0
 12 11  2  0  0  0  0
 13 12  1  0  0  0  0
 14 16  2  0  0  0  0
 15 14  1  0  0  0  0
 16 17  1  0  0  0  0
 16 18  1  0  0  0  0
 18 19  1  0  0  0  0
 20 18  2  0  0  0  0
 20 21  1  0  0  0  0
 21 22  1  0  0  0  0
 23 28  2  0  0  0  0
 23 24  1  0  0  0  0
 24 25  2  0  0  0  0
 25 26  1  0  0  0  0
 25  1  1  0  0  0  0
 27 30  1  0  0  0  0
 27 26  2  0  0  0  0
 28 27  1  0  0  0  0
 29 24  1  0  0  0  0
 31 23  1  0  0  0  0
 31 34  1  0  0  0  0
 32 31  1  0  0  0  0
 33 31  1  0  0  0  0
M  END
>  <minimizedAffinity>
-5.89461327

$$$$

 OpenBabel03252503523D

 34 37  0  0  0  0  0  0  0  0999 V2000
   34.0870   28.3700   37.6760 C   0  0  0  0  0  0  0  0  0  0  0  0
   34.6250   27.1710   37.2610 C   0  0  0  0  0  0  0  0  0  0  0  0
   34.2640   26.7400   36.3540 H   0  0  0  0  0  0  0  0  0  0  0  0
   35.6070   26.5670   38.0190 C   0  0  0  0  0  0  0  0  0  0  0  0
   35.9750   25.6180   37.6110 H   0  0  0  0  0  0  0  0  0  0  0  0
   36.1050   27.0870   39.1970 C   0  0  0  0  0  0  0  0  0  0  0  0
   35.5490   28.2820   39.5860 C   0  0  0  0  0  0  0  0  0  0  0  0
   34.5860   28.8850   38.8530 C   0  0  0  0  0  0  0  0  0  0  0  0
   34.1810   29.8410   39.2160 H   0  0  0  0  0  0  0  0  0  0  0  0
   36.1290   29.0210   41.0850 S   0  0  0  0  0  0  0  0  0  0  0  0
   37.3770   27.9380   41.7480 C   0  0  0  0  0  0  0  0  0  0  0  0
   37.9960   28.2740   42.9140 C   0  0  0  0  0  0  0  0  0  0  0  0
   37.7200   29.1970   43.4230 H   0  0  0  0  0  0  0  0  0  0  0  0
   38.9700   27.4830   43.4820 C   0  0  0  0  0  0  0  0  0  0  0  0
   39.4880   27.7030   44.4000 H   0  0  0  0  0  0  0  0  0  0  0  0
   39.3050   26.3200   42.8240 C   0  0  0  0  0  0  0  0  0  0  0  0
   40.0640   25.6660   43.2310 H   0  0  0  0  0  0  0  0  0  0  0  0
   38.6540   26.0180   41.6460 C   0  0  0  0  0  0  0  0  0  0  0  0
   38.9750   25.0740   41.1780 H   0  0  0  0  0  0  0  0  0  0  0  0
   37.6760   26.7920   41.0560 C   0  0  0  0  0  0  0  0  0  0  0  0
   37.1120   26.3420   39.8550 N   0  0  0  0  0  0  0  0  0  0  0  0
   37.4410   25.4450   39.4430 H   0  0  0  0  0  0  0  0  0  0  0  0
   31.0090   30.3970   36.9200 C   0  0  0  0  0  0  0  0  0  0  0  0
   31.9770   29.6960   37.6440 C   0  0  0  0  0  0  0  0  0  0  0  0
   33.0500   29.1120   36.9740 C   0  0  0  0  0  0  0  0  0  0  0  0
   33.0920   29.2630   35.6250 N   0  0  0  0  0  0  0  0  0  0  0  0
   32.1600   29.9370   34.9390 C   0  0  0  0  0  0  0  0  0  0  0  0
   31.1340   30.4940   35.5840 N   0  0  0  0  0  0  0  0  0  0  0  0
   31.8810   29.6160   38.6970 H   0  0  0  0  0  0  0  0  0  0  0  0
   32.2790   30.0050   33.8660 H   0  0  0  0  0  0  0  0  0  0  0  0
   29.8770   31.0060   37.6730 C   0  0  0  0  0  0  0  0  0  0  0  0
   30.1570   32.2910   38.0620 F   0  0  0  0  0  0  0  0  0  0  0  0
   28.7390   30.9230   36.9000 F   0  0  0  0  0  0  0  0  0  0  0  0
   29.6240   30.2200   38.8100 F   0  0  0  0  0  0  0  0  0  0  0  0
  1  8  1  0  0  0  0
  2  1  2  0  0  0  0
  2  4  1  0  0  0  0
  3  2  1  0  0  0  0
  4  6  2  0  0  0  0
  5  4  1  0  0  0  0
  6  7  1  0  0  0  0
  6 21  1  0  0  0  0
  7 10  1  0  0  0  0
  8  9  1  0  0  0  0
  8  7  2  0  0  0  0
 10 11  1  0  0  0  0
 11 12  1  0  0  0  0
 12 13  1  0  0  0  0
 12 14  2  0  0  0  0
 14 15  1  0  0  0  0
 16 17  1  0  0  0  0
 16 14  1  0  0  0  0
 18 16  2  0  0  0  0
 19 18  1  0  0  0  0
 20 18  1  0  0  0  0
 20 11  2  0  0  0  0
 21 20  1  0  0  0  0
 22 21  1  0  0  0  0
 23 24  1  0  0  0  0
 23 31  1  0  0  0  0
 24 29  1  0  0  0  0
 25 24  2  0  0  0  0
 25  1  1  0  0  0  0
 26 25  1  0  0  0  0
 27 28  1  0  0  0  0
 27 26  2  0  0  0  0
 28 23  2  0  0  0  0
 30 27  1  0  0  0  0
 31 32  1  0  0  0  0
 31 34  1  0  0  0  0
 33 31  1  0  0  0  0
M  END
>  <minimizedAffinity>
-5.89381409

$$$$

 OpenBabel03252503523D

 34 37  0  0  0  0  0  0  0  0999 V2000
   35.2170   27.3620   37.9900 C   0  0  0  0  0  0  0  0  0  0  0  0
   35.4880   26.0210   37.8240 C   0  0  0  0  0  0  0  0  0  0  0  0
   35.0340   25.5100   37.0050 H   0  0  0  0  0  0  0  0  0  0  0  0
   36.3320   25.3820   38.7090 C   0  0  0  0  0  0  0  0  0  0  0  0
   36.4880   24.3180   38.4980 H   0  0  0  0  0  0  0  0  0  0  0  0
   36.9410   26.0020   39.7810 C   0  0  0  0  0  0  0  0  0  0  0  0
   36.6520   27.3380   39.9220 C   0  0  0  0  0  0  0  0  0  0  0  0
   35.8270   27.9770   39.0620 C   0  0  0  0  0  0  0  0  0  0  0  0
   35.6350   29.0470   39.2280 H   0  0  0  0  0  0  0  0  0  0  0  0
   37.3910   28.2120   41.2710 S   0  0  0  0  0  0  0  0  0  0  0  0
   38.3940   27.0410   42.1610 C   0  0  0  0  0  0  0  0  0  0  0  0
   39.0840   27.4570   43.2590 C   0  0  0  0  0  0  0  0  0  0  0  0
   39.0120   28.4970   43.5770 H   0  0  0  0  0  0  0  0  0  0  0  0
   39.8780   26.6040   43.9940 C   0  0  0  0  0  0  0  0  0  0  0  0
   40.4420   26.8830   44.8680 H   0  0  0  0  0  0  0  0  0  0  0  0
   39.9550   25.2930   43.5760 C   0  0  0  0  0  0  0  0  0  0  0  0
   40.5660   24.5860   44.1200 H   0  0  0  0  0  0  0  0  0  0  0  0
   39.2410   24.9140   42.4580 C   0  0  0  0  0  0  0  0  0  0  0  0
   39.3520   23.8530   42.1860 H   0  0  0  0  0  0  0  0  0  0  0  0
   38.4390   25.7470   41.7060 C   0  0  0  0  0  0  0  0  0  0  0  0
   37.7790   25.2040   40.5960 N   0  0  0  0  0  0  0  0  0  0  0  0
   37.9090   24.1960   40.3700 H   0  0  0  0  0  0  0  0  0  0  0  0
   32.3460   29.4340   36.7190 C   0  0  0  0  0  0  0  0  0  0  0  0
   33.1410   28.6800   37.5860 C   0  0  0  0  0  0  0  0  0  0  0  0
   34.3490   28.1550   37.1320 C   0  0  0  0  0  0  0  0  0  0  0  0
   34.6890   28.4150   35.8430 N   0  0  0  0  0  0  0  0  0  0  0  0
   33.9210   29.1390   35.0200 C   0  0  0  0  0  0  0  0  0  0  0  0
   32.7650   29.6390   35.4580 N   0  0  0  0  0  0  0  0  0  0  0  0
   32.8120   28.5150   38.5810 H   0  0  0  0  0  0  0  0  0  0  0  0
   34.2770   29.2930   34.0090 H   0  0  0  0  0  0  0  0  0  0  0  0
   31.0610   29.9770   37.2430 C   0  0  0  0  0  0  0  0  0  0  0  0
   29.9840   29.2490   36.8060 F   0  0  0  0  0  0  0  0  0  0  0  0
   31.1360   30.0370   38.6180 F   0  0  0  0  0  0  0  0  0  0  0  0
   30.9300   31.3080   36.8110 F   0  0  0  0  0  0  0  0  0  0  0  0
  1  8  1  0  0  0  0
  2  1  2  0  0  0  0
  2  4  1  0  0  0  0
  3  2  1  0  0  0  0
  4  6  2  0  0  0  0
  5  4  1  0  0  0  0
  6  7  1  0  0  0  0
  6 21  1  0  0  0  0
  7 10  1  0  0  0  0
  8  9  1  0  0  0  0
  8  7  2  0  0  0  0
 10 11  1  0  0  0  0
 11 12  1  0  0  0  0
 12 13  1  0  0  0  0
 12 14  2  0  0  0  0
 14 15  1  0  0  0  0
 16 14  1  0  0  0  0
 16 17  1  0  0  0  0
 18 16  2  0  0  0  0
 19 18  1  0  0  0  0
 20 11  2  0  0  0  0
 20 18  1  0  0  0  0
 21 20  1  0  0  0  0
 22 21  1  0  0  0  0
 23 31  1  0  0  0  0
 23 24  1  0  0  0  0
 24 29  1  0  0  0  0
 25 24  2  0  0  0  0
 25  1  1  0  0  0  0
 26 25  1  0  0  0  0
 27 28  1  0  0  0  0
 27 26  2  0  0  0  0
 28 23  2  0  0  0  0
 30 27  1  0  0  0  0
 31 33  1  0  0  0  0
 32 31  1  0  0  0  0
 34 31  1  0  0  0  0
M  END
>  <minimizedAffinity>
-5.83831453

$$$$

 OpenBabel03252503523D

 34 37  0  0  0  0  0  0  0  0999 V2000
   37.4830   27.4280   40.9540 C   0  0  0  0  0  0  0  0  0  0  0  0
   36.3930   28.1960   41.2990 C   0  0  0  0  0  0  0  0  0  0  0  0
   35.4970   27.7000   41.5980 H   0  0  0  0  0  0  0  0  0  0  0  0
   36.4870   29.5730   41.2520 C   0  0  0  0  0  0  0  0  0  0  0  0
   35.5710   30.1000   41.5430 H   0  0  0  0  0  0  0  0  0  0  0  0
   37.6240   30.2580   40.8720 C   0  0  0  0  0  0  0  0  0  0  0  0
   38.6940   29.4650   40.5320 C   0  0  0  0  0  0  0  0  0  0  0  0
   38.6160   28.1160   40.5750 C   0  0  0  0  0  0  0  0  0  0  0  0
   39.5070   27.5360   40.2910 H   0  0  0  0  0  0  0  0  0  0  0  0
   40.1930   30.2600   40.0330 S   0  0  0  0  0  0  0  0  0  0  0  0
   39.8990   32.0150   40.1070 C   0  0  0  0  0  0  0  0  0  0  0  0
   40.9030   32.8710   39.7680 C   0  0  0  0  0  0  0  0  0  0  0  0
   41.8680   32.4710   39.4580 H   0  0  0  0  0  0  0  0  0  0  0  0
   40.7440   34.2390   39.8030 C   0  0  0  0  0  0  0  0  0  0  0  0
   41.5040   34.9570   39.5450 H   0  0  0  0  0  0  0  0  0  0  0  0
   39.5160   34.7240   40.1970 C   0  0  0  0  0  0  0  0  0  0  0  0
   39.3430   35.7900   40.2400 H   0  0  0  0  0  0  0  0  0  0  0  0
   38.5270   33.8220   40.5320 C   0  0  0  0  0  0  0  0  0  0  0  0
   37.5750   34.2830   40.8360 H   0  0  0  0  0  0  0  0  0  0  0  0
   38.6600   32.4490   40.5060 C   0  0  0  0  0  0  0  0  0  0  0  0
   37.5560   31.6710   40.8760 N   0  0  0  0  0  0  0  0  0  0  0  0
   36.6720   32.1430   41.1580 H   0  0  0  0  0  0  0  0  0  0  0  0
   36.6700   23.8130   40.3030 C   0  0  0  0  0  0  0  0  0  0  0  0
   36.5880   25.2070   40.2620 C   0  0  0  0  0  0  0  0  0  0  0  0
   37.5200   25.9730   40.9610 C   0  0  0  0  0  0  0  0  0  0  0  0
   38.4740   25.3010   41.6550 N   0  0  0  0  0  0  0  0  0  0  0  0
   38.5450   23.9650   41.6880 C   0  0  0  0  0  0  0  0  0  0  0  0
   37.6510   23.2360   41.0190 N   0  0  0  0  0  0  0  0  0  0  0  0
   35.8150   25.6660   39.6990 H   0  0  0  0  0  0  0  0  0  0  0  0
   39.3420   23.5200   42.2690 H   0  0  0  0  0  0  0  0  0  0  0  0
   35.6550   23.0310   39.5440 C   0  0  0  0  0  0  0  0  0  0  0  0
   34.4190   23.0880   40.1360 F   0  0  0  0  0  0  0  0  0  0  0  0
   35.6370   23.4800   38.2400 F   0  0  0  0  0  0  0  0  0  0  0  0
   36.0790   21.6930   39.4790 F   0  0  0  0  0  0  0  0  0  0  0  0
  1 25  1  0  0  0  0
  1  2  1  0  0  0  0
  2  3  1  0  0  0  0
  4  2  2  0  0  0  0
  4  5  1  0  0  0  0
  6 21  1  0  0  0  0
  6  4  1  0  0  0  0
  7  8  1  0  0  0  0
  7  6  2  0  0  0  0
  8  1  2  0  0  0  0
  9  8  1  0  0  0  0
 10 11  1  0  0  0  0
 10  7  1  0  0  0  0
 11 20  1  0  0  0  0
 12 14  1  0  0  0  0
 12 11  2  0  0  0  0
 13 12  1  0  0  0  0
 14 16  2  0  0  0  0
 15 14  1  0  0  0  0
 16 17  1  0  0  0  0
 16 18  1  0  0  0  0
 18 19  1  0  0  0  0
 20 18  2  0  0  0  0
 20 21  1  0  0  0  0
 21 22  1  0  0  0  0
 23 28  1  0  0  0  0
 24 23  2  0  0  0  0
 24 25  1  0  0  0  0
 25 26  2  0  0  0  0
 26 27  1  0  0  0  0
 27 30  1  0  0  0  0
 28 27  2  0  0  0  0
 29 24  1  0  0  0  0
 31 32  1  0  0  0  0
 31 23  1  0  0  0  0
 33 31  1  0  0  0  0
 34 31  1  0  0  0  0
M  END
>  <minimizedAffinity>
-5.6476984

$$$$

 OpenBabel03252503523D

 34 37  0  0  0  0  0  0  0  0999 V2000
   36.3820   27.6130   39.2180 C   0  0  0  0  0  0  0  0  0  0  0  0
   35.2830   28.4450   39.2030 C   0  0  0  0  0  0  0  0  0  0  0  0
   34.3200   28.0100   39.0660 H   0  0  0  0  0  0  0  0  0  0  0  0
   35.4570   29.8050   39.3660 C   0  0  0  0  0  0  0  0  0  0  0  0
   34.5280   30.3860   39.3400 H   0  0  0  0  0  0  0  0  0  0  0  0
   36.6830   30.4120   39.5460 C   0  0  0  0  0  0  0  0  0  0  0  0
   37.7590   29.5580   39.5550 C   0  0  0  0  0  0  0  0  0  0  0  0
   37.6040   28.2240   39.3970 C   0  0  0  0  0  0  0  0  0  0  0  0
   38.5050   27.5920   39.4140 H   0  0  0  0  0  0  0  0  0  0  0  0
   39.3710   30.2510   39.7810 S   0  0  0  0  0  0  0  0  0  0  0  0
   39.1590   32.0110   39.9510 C   0  0  0  0  0  0  0  0  0  0  0  0
   40.2560   32.7970   40.1380 C   0  0  0  0  0  0  0  0  0  0  0  0
   41.2440   32.3390   40.1810 H   0  0  0  0  0  0  0  0  0  0  0  0
   40.1640   34.1640   40.2760 C   0  0  0  0  0  0  0  0  0  0  0  0
   40.9990   34.8280   40.4260 H   0  0  0  0  0  0  0  0  0  0  0  0
   38.9060   34.7230   40.2180 C   0  0  0  0  0  0  0  0  0  0  0  0
   38.7840   35.7930   40.3220 H   0  0  0  0  0  0  0  0  0  0  0  0
   37.8230   33.8910   40.0270 C   0  0  0  0  0  0  0  0  0  0  0  0
   36.8520   34.4100   39.9920 H   0  0  0  0  0  0  0  0  0  0  0  0
   37.8870   32.5210   39.8860 C   0  0  0  0  0  0  0  0  0  0  0  0
   36.6900   31.8190   39.6980 N   0  0  0  0  0  0  0  0  0  0  0  0
   35.7910   32.3430   39.6700 H   0  0  0  0  0  0  0  0  0  0  0  0
   37.0260   23.9330   39.6560 C   0  0  0  0  0  0  0  0  0  0  0  0
   37.1040   25.3140   39.8530 C   0  0  0  0  0  0  0  0  0  0  0  0
   36.3410   26.1670   39.0580 C   0  0  0  0  0  0  0  0  0  0  0  0
   35.5480   25.5900   38.1190 N   0  0  0  0  0  0  0  0  0  0  0  0
   35.4790   24.2650   37.9380 C   0  0  0  0  0  0  0  0  0  0  0  0
   36.2120   23.4520   38.7000 N   0  0  0  0  0  0  0  0  0  0  0  0
   37.7460   25.6960   40.6050 H   0  0  0  0  0  0  0  0  0  0  0  0
   34.8170   23.8990   37.1640 H   0  0  0  0  0  0  0  0  0  0  0  0
   37.8590   23.0550   40.5260 C   0  0  0  0  0  0  0  0  0  0  0  0
   37.7680   23.4130   41.8470 F   0  0  0  0  0  0  0  0  0  0  0  0
   37.4930   21.7440   40.3070 F   0  0  0  0  0  0  0  0  0  0  0  0
   39.1960   23.1510   40.1070 F   0  0  0  0  0  0  0  0  0  0  0  0
  1  8  1  0  0  0  0
  2  1  2  0  0  0  0
  2  4  1  0  0  0  0
  3  2  1  0  0  0  0
  4  6  2  0  0  0  0
  5  4  1  0  0  0  0
  6  7  1  0  0  0  0
  6 21  1  0  0  0  0
  7 10  1  0  0  0  0
  8  9  1  0  0  0  0
  8  7  2  0  0  0  0
 10 11  1  0  0  0  0
 11 12  1  0  0  0  0
 12 13  1  0  0  0  0
 12 14  2  0  0  0  0
 14 15  1  0  0  0  0
 16 14  1  0  0  0  0
 16 17  1  0  0  0  0
 18 16  2  0  0  0  0
 19 18  1  0  0  0  0
 20 11  2  0  0  0  0
 20 18  1  0  0  0  0
 21 20  1  0  0  0  0
 22 21  1  0  0  0  0
 23 24  1  0  0  0  0
 23 31  1  0  0  0  0
 24 29  1  0  0  0  0
 25  1  1  0  0  0  0
 25 24  2  0  0  0  0
 26 25  1  0  0  0  0
 27 26  2  0  0  0  0
 27 28  1  0  0  0  0
 28 23  2  0  0  0  0
 30 27  1  0  0  0  0
 31 32  1  0  0  0  0
 33 31  1  0  0  0  0
 34 31  1  0  0  0  0
M  END
>  <minimizedAffinity>
-5.54680824

$$$$

 OpenBabel03252503523D

 34 37  0  0  0  0  0  0  0  0999 V2000
   34.9200   28.3120   38.6310 C   0  0  0  0  0  0  0  0  0  0  0  0
   34.7770   29.2060   39.6690 C   0  0  0  0  0  0  0  0  0  0  0  0
   34.0530   29.9830   39.5730 H   0  0  0  0  0  0  0  0  0  0  0  0
   35.5630   29.0720   40.7960 C   0  0  0  0  0  0  0  0  0  0  0  0
   35.3790   29.8270   41.5680 H   0  0  0  0  0  0  0  0  0  0  0  0
   36.5110   28.0830   40.9650 C   0  0  0  0  0  0  0  0  0  0  0  0
   36.6320   27.2080   39.9130 C   0  0  0  0  0  0  0  0  0  0  0  0
   35.8680   27.3260   38.8030 C   0  0  0  0  0  0  0  0  0  0  0  0
   36.0120   26.5940   37.9950 H   0  0  0  0  0  0  0  0  0  0  0  0
   37.8230   25.9070   40.0450 S   0  0  0  0  0  0  0  0  0  0  0  0
   38.6150   26.0870   41.6300 C   0  0  0  0  0  0  0  0  0  0  0  0
   39.5870   25.2040   41.9910 C   0  0  0  0  0  0  0  0  0  0  0  0
   39.8650   24.4020   41.3070 H   0  0  0  0  0  0  0  0  0  0  0  0
   40.2390   25.2860   43.2010 C   0  0  0  0  0  0  0  0  0  0  0  0
   41.0130   24.6140   43.5330 H   0  0  0  0  0  0  0  0  0  0  0  0
   39.8730   26.3070   44.0500 C   0  0  0  0  0  0  0  0  0  0  0  0
   40.3580   26.4120   45.0120 H   0  0  0  0  0  0  0  0  0  0  0  0
   38.8840   27.1790   43.6450 C   0  0  0  0  0  0  0  0  0  0  0  0
   38.6460   27.9680   44.3760 H   0  0  0  0  0  0  0  0  0  0  0  0
   38.2160   27.1200   42.4410 C   0  0  0  0  0  0  0  0  0  0  0  0
   37.2350   28.0850   42.1810 N   0  0  0  0  0  0  0  0  0  0  0  0
   37.0370   28.8150   42.8960 H   0  0  0  0  0  0  0  0  0  0  0  0
   33.7770   27.6680   35.1050 C   0  0  0  0  0  0  0  0  0  0  0  0
   34.5460   27.6060   36.2690 C   0  0  0  0  0  0  0  0  0  0  0  0
   34.1580   28.3370   37.3910 C   0  0  0  0  0  0  0  0  0  0  0  0
   33.0280   29.0830   37.2810 N   0  0  0  0  0  0  0  0  0  0  0  0
   32.2980   29.1360   36.1600 C   0  0  0  0  0  0  0  0  0  0  0  0
   32.6720   28.4350   35.0890 N   0  0  0  0  0  0  0  0  0  0  0  0
   35.4180   27.0030   36.2850 H   0  0  0  0  0  0  0  0  0  0  0  0
   31.4120   29.7580   36.1690 H   0  0  0  0  0  0  0  0  0  0  0  0
   34.2260   26.8720   33.9280 C   0  0  0  0  0  0  0  0  0  0  0  0
   35.2870   27.4610   33.2890 F   0  0  0  0  0  0  0  0  0  0  0  0
   34.5070   25.5890   34.3450 F   0  0  0  0  0  0  0  0  0  0  0  0
   33.1500   26.7550   33.0320 F   0  0  0  0  0  0  0  0  0  0  0  0
  1  8  2  0  0  0  0
  1  2  1  0  0  0  0
  2  4  2  0  0  0  0
  3  2  1  0  0  0  0
  4  6  1  0  0  0  0
  4  5  1  0  0  0  0
  6 21  1  0  0  0  0
  7 10  1  0  0  0  0
  7  6  2  0  0  0  0
  8  7  1  0  0  0  0
  9  8  1  0  0  0  0
 10 11  1  0  0  0  0
 11 12  2  0  0  0  0
 11 20  1  0  0  0  0
 12 14  1  0  0  0  0
 13 12  1  0  0  0  0
 14 15  1  0  0  0  0
 14 16  2  0  0  0  0
 16 17  1  0  0  0  0
 18 16  1  0  0  0  0
 18 19  1  0  0  0  0
 20 18  2  0  0  0  0
 21 20  1  0  0  0  0
 21 22  1  0  0  0  0
 23 24  1  0  0  0  0
 24 29  1  0  0  0  0
 24 25  2  0  0  0  0
 25  1  1  0  0  0  0
 26 25  1  0  0  0  0
 27 30  1  0  0  0  0
 27 26  2  0  0  0  0
 28 23  2  0  0  0  0
 28 27  1  0  0  0  0
 31 33  1  0  0  0  0
 31 23  1  0  0  0  0
 32 31  1  0  0  0  0
 34 31  1  0  0  0  0
M  END
>  <minimizedAffinity>
-5.4624362

$$$$

 OpenBabel03252503523D

 34 37  0  0  0  0  0  0  0  0999 V2000
   37.7660   30.9370   39.0090 C   0  0  0  0  0  0  0  0  0  0  0  0
   37.0780   30.7620   37.8280 C   0  0  0  0  0  0  0  0  0  0  0  0
   36.9820   31.5960   37.1700 H   0  0  0  0  0  0  0  0  0  0  0  0
   36.5400   29.5270   37.5290 C   0  0  0  0  0  0  0  0  0  0  0  0
   36.0120   29.4830   36.5700 H   0  0  0  0  0  0  0  0  0  0  0  0
   36.6400   28.4210   38.3490 C   0  0  0  0  0  0  0  0  0  0  0  0
   37.3300   28.6250   39.5200 C   0  0  0  0  0  0  0  0  0  0  0  0
   37.8620   29.8300   39.8260 C   0  0  0  0  0  0  0  0  0  0  0  0
   38.4030   29.9310   40.7780 H   0  0  0  0  0  0  0  0  0  0  0  0
   37.5060   27.2610   40.6320 S   0  0  0  0  0  0  0  0  0  0  0  0
   36.6800   25.8720   39.8830 C   0  0  0  0  0  0  0  0  0  0  0  0
   36.6640   24.6780   40.5380 C   0  0  0  0  0  0  0  0  0  0  0  0
   37.1550   24.5890   41.5070 H   0  0  0  0  0  0  0  0  0  0  0  0
   36.0430   23.5640   40.0170 C   0  0  0  0  0  0  0  0  0  0  0  0
   36.0030   22.5990   40.4940 H   0  0  0  0  0  0  0  0  0  0  0  0
   35.4280   23.6970   38.7910 C   0  0  0  0  0  0  0  0  0  0  0  0
   34.9280   22.8500   38.3420 H   0  0  0  0  0  0  0  0  0  0  0  0
   35.4680   24.9240   38.1630 C   0  0  0  0  0  0  0  0  0  0  0  0
   34.9550   24.9530   37.1890 H   0  0  0  0  0  0  0  0  0  0  0  0
   36.0820   26.0540   38.6620 C   0  0  0  0  0  0  0  0  0  0  0  0
   36.0320   27.2260   37.8970 N   0  0  0  0  0  0  0  0  0  0  0  0
   35.5380   27.2150   36.9810 H   0  0  0  0  0  0  0  0  0  0  0  0
   40.2930   33.5170   40.0620 C   0  0  0  0  0  0  0  0  0  0  0  0
   39.7560   32.2970   39.6420 C   0  0  0  0  0  0  0  0  0  0  0  0
   38.3810   32.1820   39.4460 C   0  0  0  0  0  0  0  0  0  0  0  0
   37.6290   33.2880   39.6790 N   0  0  0  0  0  0  0  0  0  0  0  0
   38.1530   34.4520   40.0820 C   0  0  0  0  0  0  0  0  0  0  0  0
   39.4690   34.5590   40.2690 N   0  0  0  0  0  0  0  0  0  0  0  0
   40.4030   31.4730   39.4790 H   0  0  0  0  0  0  0  0  0  0  0  0
   37.4730   35.2790   40.2420 H   0  0  0  0  0  0  0  0  0  0  0  0
   41.7670   33.5990   40.2610 C   0  0  0  0  0  0  0  0  0  0  0  0
   42.2930   32.4030   40.6780 F   0  0  0  0  0  0  0  0  0  0  0  0
   42.3450   34.0520   39.0940 F   0  0  0  0  0  0  0  0  0  0  0  0
   42.0330   34.5860   41.2260 F   0  0  0  0  0  0  0  0  0  0  0  0
  1 25  1  0  0  0  0
  1  8  1  0  0  0  0
  2  1  2  0  0  0  0
  3  2  1  0  0  0  0
  4  2  1  0  0  0  0
  4  6  2  0  0  0  0
  5  4  1  0  0  0  0
  6  7  1  0  0  0  0
  7  8  2  0  0  0  0
  7 10  1  0  0  0  0
  8  9  1  0  0  0  0
 11 12  1  0  0  0  0
 11 10  1  0  0  0  0
 12 13  1  0  0  0  0
 14 15  1  0  0  0  0
 14 12  2  0  0  0  0
 16 14  1  0  0  0  0
 17 16  1  0  0  0  0
 18 20  1  0  0  0  0
 18 16  2  0  0  0  0
 19 18  1  0  0  0  0
 20 11  2  0  0  0  0
 21  6  1  0  0  0  0
 21 20  1  0  0  0  0
 22 21  1  0  0  0  0
 23 31  1  0  0  0  0
 23 28  1  0  0  0  0
 24 23  2  0  0  0  0
 25 24  1  0  0  0  0
 25 26  2  0  0  0  0
 26 27  1  0  0  0  0
 27 30  1  0  0  0  0
 27 28  2  0  0  0  0
 29 24  1  0  0  0  0
 31 32  1  0  0  0  0
 31 34  1  0  0  0  0
 33 31  1  0  0  0  0
M  END
>  <minimizedAffinity>
-5.43005037

$$$$

 OpenBabel03252503523D

 34 37  0  0  0  0  0  0  0  0999 V2000
   38.1950   26.2930   40.7110 C   0  0  0  0  0  0  0  0  0  0  0  0
   39.1930   26.6660   41.5850 C   0  0  0  0  0  0  0  0  0  0  0  0
   39.7190   25.9010   42.1100 H   0  0  0  0  0  0  0  0  0  0  0  0
   39.4860   28.0040   41.7540 C   0  0  0  0  0  0  0  0  0  0  0  0
   40.2930   28.2040   42.4670 H   0  0  0  0  0  0  0  0  0  0  0  0
   38.8340   29.0270   41.0960 C   0  0  0  0  0  0  0  0  0  0  0  0
   37.8430   28.6260   40.2330 C   0  0  0  0  0  0  0  0  0  0  0  0
   37.5460   27.3180   40.0570 C   0  0  0  0  0  0  0  0  0  0  0  0
   36.7420   27.0600   39.3520 H   0  0  0  0  0  0  0  0  0  0  0  0
   36.9550   29.8730   39.3470 S   0  0  0  0  0  0  0  0  0  0  0  0
   37.6300   31.4430   39.8450 C   0  0  0  0  0  0  0  0  0  0  0  0
   37.1200   32.5860   39.3060 C   0  0  0  0  0  0  0  0  0  0  0  0
   36.3090   32.5230   38.5810 H   0  0  0  0  0  0  0  0  0  0  0  0
   37.5960   33.8330   39.6470 C   0  0  0  0  0  0  0  0  0  0  0  0
   37.2270   34.7650   39.2510 H   0  0  0  0  0  0  0  0  0  0  0  0
   38.6210   33.8910   40.5660 C   0  0  0  0  0  0  0  0  0  0  0  0
   39.0270   34.8480   40.8640 H   0  0  0  0  0  0  0  0  0  0  0  0
   39.1080   32.7100   41.0860 C   0  0  0  0  0  0  0  0  0  0  0  0
   39.9260   32.8360   41.8130 H   0  0  0  0  0  0  0  0  0  0  0  0
   38.6500   31.4500   40.7620 C   0  0  0  0  0  0  0  0  0  0  0  0
   39.2540   30.3480   41.3820 N   0  0  0  0  0  0  0  0  0  0  0  0
   40.0240   30.5060   42.0640 H   0  0  0  0  0  0  0  0  0  0  0  0
   36.1540   23.2720   39.7840 C   0  0  0  0  0  0  0  0  0  0  0  0
   36.4920   24.6050   40.0310 C   0  0  0  0  0  0  0  0  0  0  0  0
   37.7860   24.9230   40.4390 C   0  0  0  0  0  0  0  0  0  0  0  0
   38.6610   23.8930   40.5750 N   0  0  0  0  0  0  0  0  0  0  0  0
   38.3280   22.6190   40.3360 C   0  0  0  0  0  0  0  0  0  0  0  0
   37.0890   22.3180   39.9460 N   0  0  0  0  0  0  0  0  0  0  0  0
   35.7570   25.3590   39.9060 H   0  0  0  0  0  0  0  0  0  0  0  0
   39.0950   21.8670   40.4710 H   0  0  0  0  0  0  0  0  0  0  0  0
   34.7610   22.9730   39.3500 C   0  0  0  0  0  0  0  0  0  0  0  0
   33.8930   22.9330   40.4120 F   0  0  0  0  0  0  0  0  0  0  0  0
   34.3880   23.8980   38.3980 F   0  0  0  0  0  0  0  0  0  0  0  0
   34.7540   21.7300   38.6960 F   0  0  0  0  0  0  0  0  0  0  0  0
  1  2  1  0  0  0  0
  2  4  2  0  0  0  0
  2  3  1  0  0  0  0
  4  5  1  0  0  0  0
  6 21  1  0  0  0  0
  6  4  1  0  0  0  0
  7  6  2  0  0  0  0
  8  7  1  0  0  0  0
  8  1  2  0  0  0  0
  9  8  1  0  0  0  0
 10 11  1  0  0  0  0
 10  7  1  0  0  0  0
 11 20  1  0  0  0  0
 12 14  1  0  0  0  0
 12 11  2  0  0  0  0
 13 12  1  0  0  0  0
 14 16  2  0  0  0  0
 15 14  1  0  0  0  0
 16 17  1  0  0  0  0
 16 18  1  0  0  0  0
 18 19  1  0  0  0  0
 20 18  2  0  0  0  0
 20 21  1  0  0  0  0
 21 22  1  0  0  0  0
 23 28  2  0  0  0  0
 23 24  1  0  0  0  0
 24 25  2  0  0  0  0
 25 26  1  0  0  0  0
 25  1  1  0  0  0  0
 27 30  1  0  0  0  0
 27 26  2  0  0  0  0
 28 27  1  0  0  0  0
 29 24  1  0  0  0  0
 31 23  1  0  0  0  0
 31 32  1  0  0  0  0
 33 31  1  0  0  0  0
 34 31  1  0  0  0  0
M  END
>  <minimizedAffinity>
-5.42381668

$$$$
