REMARK  Name = 
REMARK  2 active torsions:
REMARK  status: ('A' for Active; 'I' for Inactive)
REMARK    1  A    between atoms: C_1  and  C_7
REMARK    2  A    between atoms: C_3  and  C_13
REMARK                            x       y       z     vdW  Elec       q    Type
REMARK                         _______ _______ _______ _____ _____    ______ ____
ROOT
ATOM      1  C   UNL     1      47.085  32.453  45.088  0.00  0.00    +0.000 A 
ATOM      2  C   UNL     1      47.821  32.541  46.250  0.00  0.00    +0.000 A 
ATOM      3  H   UNL     1      48.299  33.466  46.477  0.00  0.00    +0.000 HD
ATOM      4  C   UNL     1      47.917  31.442  47.079  0.00  0.00    +0.000 A 
ATOM      5  H   UNL     1      48.521  31.606  47.979  0.00  0.00    +0.000 HD
ATOM      6  C   UNL     1      47.315  30.227  46.825  0.00  0.00    +0.000 A 
ATOM      7  C   UNL     1      46.589  30.168  45.661  0.00  0.00    +0.000 A 
ATOM      8  C   UNL     1      46.486  31.237  44.838  0.00  0.00    +0.000 A 
ATOM      9  H   UNL     1      45.890  31.128  43.919  0.00  0.00    +0.000 HD
ATOM     10  S   UNL     1      45.783  28.646  45.256  0.00  0.00    +0.000 S 
ATOM     11  C   UNL     1      46.153  27.499  46.567  0.00  0.00    +0.000 A 
ATOM     12  C   UNL     1      45.650  26.235  46.505  0.00  0.00    +0.000 A 
ATOM     13  H   UNL     1      45.029  25.944  45.657  0.00  0.00    +0.000 HD
ATOM     14  C   UNL     1      45.896  25.298  47.484  0.00  0.00    +0.000 A 
ATOM     15  H   UNL     1      45.522  24.288  47.482  0.00  0.00    +0.000 HD
ATOM     16  C   UNL     1      46.682  25.686  48.547  0.00  0.00    +0.000 A 
ATOM     17  H   UNL     1      46.903  24.985  49.341  0.00  0.00    +0.000 HD
ATOM     18  C   UNL     1      47.171  26.975  48.571  0.00  0.00    +0.000 A 
ATOM     19  H   UNL     1      47.791  27.211  49.451  0.00  0.00    +0.000 HD
ATOM     20  C   UNL     1      46.940  27.932  47.605  0.00  0.00    +0.000 A 
ATOM     21  N   UNL     1      47.512  29.199  47.778  0.00  0.00    +0.000 N 
ATOM     22  H   UNL     1      48.091  29.384  48.623  0.00  0.00    +0.000 HD
ENDROOT
BRANCH   1  25
ATOM     23  C   UNL     1      47.683  34.960  42.347  0.00  0.00    +0.000 A 
ATOM     24  C   UNL     1      47.913  33.918  43.249  0.00  0.00    +0.000 A 
ATOM     25  C   UNL     1      46.902  33.531  44.127  0.00  0.00    +0.000 A 
ATOM     26  N   UNL     1      45.726  34.206  44.050  0.00  0.00    +0.000 NA
ATOM     27  C   UNL     1      45.515  35.203  43.182  0.00  0.00    +0.000 A 
ATOM     28  N   UNL     1      46.485  35.571  42.344  0.00  0.00    +0.000 NA
ATOM     29  H   UNL     1      48.857  33.435  43.255  0.00  0.00    +0.000 HD
ATOM     30  H   UNL     1      44.544  35.681  43.195  0.00  0.00    +0.000 HD
BRANCH  23  31
ATOM     31  C   UNL     1      48.789  35.344  41.426  0.00  0.00    +0.000 C 
ATOM     32  F   UNL     1      48.416  35.240  40.110  0.00  0.00    +0.000 F 
ATOM     33  F   UNL     1      49.216  36.613  41.755  0.00  0.00    +0.000 F 
ATOM     34  F   UNL     1      49.885  34.499  41.668  0.00  0.00    +0.000 F 
ENDBRANCH  23  31
ENDBRANCH   1  25
TORSDOF 2
