
 OpenBabel03242522053D

 57 62  0  0  1  0  0  0  0  0999 V2000
   46.0300   32.3750   47.4260 C   0  0  0  0  0  0  0  0  0  0  0  0
   44.9010   31.8400   48.0040 C   0  0  0  0  0  0  0  0  0  0  0  0
   45.0390   31.0290   49.1240 C   0  0  0  0  0  0  0  0  0  0  0  0
   46.3280   30.8260   49.5700 C   0  0  0  0  0  0  0  0  0  0  0  0
   47.4590   31.3490   49.0080 C   0  0  0  0  0  0  0  0  0  0  0  0
   47.2860   32.1330   47.9200 N   0  0  0  0  0  0  0  0  0  0  0  0
   43.9160   32.0560   47.5810 H   0  0  0  0  0  0  0  0  0  0  0  0
   44.1660   30.5950   49.5990 H   0  0  0  0  0  0  0  0  0  0  0  0
   46.4320   30.1950   50.4430 H   0  0  0  0  0  0  0  0  0  0  0  0
   48.8040   31.1360   49.4760 C   0  0  0  0  0  0  0  0  0  0  0  0
   49.7220   32.1580   49.3710 C   0  0  0  0  0  0  0  0  0  0  0  0
   49.4410   33.1110   48.9430 H   0  0  0  0  0  0  0  0  0  0  0  0
   51.0220   31.9480   49.8240 C   0  0  0  0  0  0  0  0  0  0  0  0
   51.6930   32.8050   49.7080 H   0  0  0  0  0  0  0  0  0  0  0  0
   51.4750   30.7720   50.3830 C   0  0  0  0  0  0  0  0  0  0  0  0
   50.5220   29.7880   50.4640 C   0  0  0  0  0  0  0  0  0  0  0  0
   49.2470   29.9550   50.0330 C   0  0  0  0  0  0  0  0  0  0  0  0
   48.5540   29.1300   50.1330 H   0  0  0  0  0  0  0  0  0  0  0  0
   51.0130   28.2280   51.1730 S   0  0  0  0  0  0  0  0  0  0  0  0
   52.7220   28.3740   51.6170 C   0  0  0  0  0  0  0  0  0  0  0  0
   53.3390   27.2940   52.1870 C   0  0  0  0  0  0  0  0  0  0  0  0
   52.7950   26.3860   52.3590 H   0  0  0  0  0  0  0  0  0  0  0  0
   54.6670   27.3490   52.5520 C   0  0  0  0  0  0  0  0  0  0  0  0
   55.1170   26.4760   52.9990 H   0  0  0  0  0  0  0  0  0  0  0  0
   55.3540   28.5230   52.3250 C   0  0  0  0  0  0  0  0  0  0  0  0
   56.3970   28.6020   52.5990 H   0  0  0  0  0  0  0  0  0  0  0  0
   54.6820   29.5800   51.7470 C   0  0  0  0  0  0  0  0  0  0  0  0
   55.2950   30.4830   51.5960 H   0  0  0  0  0  0  0  0  0  0  0  0
   53.3570   29.5650   51.3670 C   0  0  0  0  0  0  0  0  0  0  0  0
   52.8270   30.7330   50.7890 N   0  0  0  0  0  0  0  0  0  0  0  0
   53.4290   31.5560   50.6660 H   0  0  0  0  0  0  0  0  0  0  0  0
   44.9120   34.9740   45.1340 C   0  0  0  0  0  0  0  0  0  0  0  0
   45.7560   34.8020   44.0260 C   0  0  0  0  0  0  0  0  0  0  0  0
   46.7160   33.7850   44.0690 C   0  0  0  0  0  0  0  0  0  0  0  0
   46.7440   33.0380   45.2060 N   0  0  0  0  0  0  0  0  0  0  0  0
   45.9210   33.2270   46.2520 C   0  0  0  0  0  0  0  0  0  0  0  0
   44.9940   34.2090   46.2130 N   0  0  0  0  0  0  0  0  0  0  0  0
   44.2220   35.7860   44.9730 H   0  0  0  0  0  0  0  0  0  0  0  0
   45.7410   35.3860   43.1250 H   0  0  0  0  0  0  0  0  0  0  0  0
   47.6340   33.5000   43.0190 N   0  0  0  0  0  0  0  0  0  0  0  0
   47.4660   32.3170   42.2080 C   0  0  0  0  0  0  0  0  0  0  0  0
   48.7600   31.9240   41.5330 C   0  0  0  0  0  0  0  0  0  0  0  0
   49.4150   32.9710   40.8550 N   0  0  0  0  0  0  0  0  0  0  0  0
   49.3460   34.2630   41.4380 C   0  0  2  0  0  0  0  0  0  0  0  0
   48.7300   34.3900   42.7700 C   0  0  0  0  0  0  0  0  0  0  0  0
   46.6510   32.4180   41.4670 H   0  0  0  0  0  0  0  0  0  0  0  0
   47.1930   31.4600   42.8680 H   0  0  0  0  0  0  0  0  0  0  0  0
   49.4310   31.4440   42.2830 H   0  0  0  0  0  0  0  0  0  0  0  0
   48.5170   31.1260   40.7990 H   0  0  0  0  0  0  0  0  0  0  0  0
   50.3690   32.6690   40.6080 H   0  0  0  0  0  0  0  0  0  0  0  0
   50.3880   34.6770   41.4910 H   0  0  0  0  0  0  0  0  0  0  0  0
   49.5140   34.2060   43.5400 H   0  0  0  0  0  0  0  0  0  0  0  0
   48.4040   35.4340   42.9290 H   0  0  0  0  0  0  0  0  0  0  0  0
   48.5850   35.1770   40.4950 C   0  0  0  0  0  0  0  0  0  0  0  0
   49.2360   36.3990   40.3830 F   0  0  0  0  0  0  0  0  0  0  0  0
   47.3780   35.4490   41.1140 F   0  0  0  0  0  0  0  0  0  0  0  0
   48.4390   34.6550   39.2400 F   0  0  0  0  0  0  0  0  0  0  0  0
  1  6  2  0  0  0  0
  1  2  1  0  0  0  0
  2  3  2  0  0  0  0
  3  4  1  0  0  0  0
  3  8  1  0  0  0  0
  4  9  1  0  0  0  0
  5 10  1  0  0  0  0
  5  4  2  0  0  0  0
  6  5  1  0  0  0  0
  7  2  1  0  0  0  0
 10 17  1  0  0  0  0
 11 10  2  0  0  0  0
 11 13  1  0  0  0  0
 12 11  1  0  0  0  0
 13 15  2  0  0  0  0
 14 13  1  0  0  0  0
 15 16  1  0  0  0  0
 15 30  1  0  0  0  0
 16 19  1  0  0  0  0
 17 18  1  0  0  0  0
 17 16  2  0  0  0  0
 19 20  1  0  0  0  0
 20 21  1  0  0  0  0
 21 22  1  0  0  0  0
 21 23  2  0  0  0  0
 23 24  1  0  0  0  0
 25 23  1  0  0  0  0
 25 26  1  0  0  0  0
 27 25  2  0  0  0  0
 28 27  1  0  0  0  0
 29 20  2  0  0  0  0
 29 27  1  0  0  0  0
 30 29  1  0  0  0  0
 31 30  1  0  0  0  0
 32 37  1  0  0  0  0
 33 34  1  0  0  0  0
 33 32  2  0  0  0  0
 34 35  2  0  0  0  0
 35 36  1  0  0  0  0
 36  1  1  0  0  0  0
 37 36  2  0  0  0  0
 38 32  1  0  0  0  0
 39 33  1  0  0  0  0
 40 34  1  0  0  0  0
 41 47  1  0  0  0  0
 41 40  1  0  0  0  0
 42 41  1  0  0  0  0
 42 48  1  0  0  0  0
 43 44  1  0  0  0  0
 43 42  1  0  0  0  0
 44 51  1  1  0  0  0
 44 45  1  0  0  0  0
 45 53  1  0  0  0  0
 45 40  1  0  0  0  0
 45 52  1  0  0  0  0
 46 41  1  0  0  0  0
 49 42  1  0  0  0  0
 50 43  1  0  0  0  0
 54 56  1  0  0  0  0
 54 44  1  0  0  0  0
 55 54  1  0  0  0  0
 57 54  1  0  0  0  0
M  END
>  <minimizedAffinity>
-8.31794357

>  <minimizedRMSD>
0.957149446

$$$$
