REMARK  Name = 
REMARK  2 active torsions:
REMARK  status: ('A' for Active; 'I' for Inactive)
REMARK    1  A    between atoms: C_1  and  C_7
REMARK    2  A    between atoms: C_3  and  C_13
REMARK                            x       y       z     vdW  Elec       q    Type
REMARK                         _______ _______ _______ _____ _____    ______ ____
ROOT
ATOM      1  C   UNL     1      47.085  32.453  45.088  0.00  0.00    +0.000 A 
ATOM      2  C   UNL     1      46.985  32.582  46.456  0.00  0.00    +0.000 A 
ATOM      3  H   UNL     1      46.755  33.542  46.858  0.00  0.00    +0.000 HD
ATOM      4  C   UNL     1      47.182  31.478  47.260  0.00  0.00    +0.000 A 
ATOM      5  H   UNL     1      47.082  31.677  48.334  0.00  0.00    +0.000 HD
ATOM      6  C   UNL     1      47.481  30.218  46.784  0.00  0.00    +0.000 A 
ATOM      7  C   UNL     1      47.575  30.119  45.417  0.00  0.00    +0.000 A 
ATOM      8  C   UNL     1      47.384  31.192  44.616  0.00  0.00    +0.000 A 
ATOM      9  H   UNL     1      47.473  31.050  43.529  0.00  0.00    +0.000 HD
ATOM     10  S   UNL     1      47.955  28.538  44.720  0.00  0.00    +0.000 S 
ATOM     11  C   UNL     1      48.130  27.401  46.079  0.00  0.00    +0.000 A 
ATOM     12  C   UNL     1      48.427  26.097  45.819  0.00  0.00    +0.000 A 
ATOM     13  H   UNL     1      48.553  25.769  44.787  0.00  0.00    +0.000 HD
ATOM     14  C   UNL     1      48.576  25.165  46.821  0.00  0.00    +0.000 A 
ATOM     15  H   UNL     1      48.810  24.125  46.669  0.00  0.00    +0.000 HD
ATOM     16  C   UNL     1      48.413  25.599  48.119  0.00  0.00    +0.000 A 
ATOM     17  H   UNL     1      48.521  24.904  48.940  0.00  0.00    +0.000 HD
ATOM     18  C   UNL     1      48.113  26.928  48.337  0.00  0.00    +0.000 A 
ATOM     19  H   UNL     1      47.998  27.200  49.399  0.00  0.00    +0.000 HD
ATOM     20  C   UNL     1      47.959  27.881  47.353  0.00  0.00    +0.000 A 
ATOM     21  N   UNL     1      47.653  29.191  47.742  0.00  0.00    +0.000 N 
ATOM     22  H   UNL     1      47.552  29.410  48.755  0.00  0.00    +0.000 HD
ENDROOT
BRANCH   1  25
ATOM     23  C   UNL     1      47.683  34.960  42.347  0.00  0.00    +0.000 A 
ATOM     24  C   UNL     1      47.913  33.918  43.249  0.00  0.00    +0.000 A 
ATOM     25  C   UNL     1      46.902  33.531  44.127  0.00  0.00    +0.000 A 
ATOM     26  N   UNL     1      45.726  34.206  44.050  0.00  0.00    +0.000 NA
ATOM     27  C   UNL     1      45.515  35.203  43.182  0.00  0.00    +0.000 A 
ATOM     28  N   UNL     1      46.485  35.571  42.344  0.00  0.00    +0.000 NA
ATOM     29  H   UNL     1      48.857  33.435  43.255  0.00  0.00    +0.000 HD
ATOM     30  H   UNL     1      44.544  35.681  43.195  0.00  0.00    +0.000 HD
BRANCH  23  31
ATOM     31  C   UNL     1      48.789  35.344  41.426  0.00  0.00    +0.000 C 
ATOM     32  F   UNL     1      48.416  35.240  40.110  0.00  0.00    +0.000 F 
ATOM     33  F   UNL     1      49.216  36.613  41.755  0.00  0.00    +0.000 F 
ATOM     34  F   UNL     1      49.885  34.499  41.668  0.00  0.00    +0.000 F 
ENDBRANCH  23  31
ENDBRANCH   1  25
TORSDOF 2
