
     RDKit          3D

 34 37  0  0  0  0  0  0  0  0999 V2000
   47.6833   34.9602   42.3473 C   0  0  0  0  0  0  0  0  0  0  0  0
   47.9135   33.9184   43.2494 C   0  0  0  0  0  0  0  0  0  0  0  0
   46.9016   33.5308   44.1272 C   0  0  0  0  0  0  0  0  0  0  0  0
   45.7257   34.2056   44.0498 N   0  0  0  0  0  0  0  0  0  0  0  0
   45.5152   35.2026   43.1817 C   0  0  0  0  0  0  0  0  0  0  0  0
   46.4852   35.5708   42.3436 N   0  0  0  0  0  0  0  0  0  0  0  0
   48.7895   35.3444   41.4263 C   0  0  0  0  0  0  0  0  0  0  0  0
   48.4165   35.2404   40.1099 F   0  0  0  0  0  0  0  0  0  0  0  0
   49.2161   36.6126   41.7546 F   0  0  0  0  0  0  0  0  0  0  0  0
   49.8854   34.4992   41.6681 F   0  0  0  0  0  0  0  0  0  0  0  0
   48.8566   33.4349   43.2551 H   0  0  0  0  0  0  0  0  0  0  0  0
   44.5436   35.6811   43.1949 H   0  0  0  0  0  0  0  0  0  0  0  0
   47.0853   32.4529   45.0876 C   0  0  0  0  0  0  0  0  0  0  0  0
   46.5506   31.1880   44.9741 C   0  0  0  0  0  0  0  0  0  0  0  0
   45.9523   30.9658   44.1204 H   0  0  0  0  0  0  0  0  0  0  0  0
   46.8010   30.2523   45.9574 C   0  0  0  0  0  0  0  0  0  0  0  0
   46.3350   29.2757   45.7819 H   0  0  0  0  0  0  0  0  0  0  0  0
   47.5687   30.4952   47.0782 C   0  0  0  0  0  0  0  0  0  0  0  0
   48.0882   31.7635   47.1646 C   0  0  0  0  0  0  0  0  0  0  0  0
   47.8513   32.6909   46.2088 C   0  0  0  0  0  0  0  0  0  0  0  0
   48.2953   33.6896   46.3344 H   0  0  0  0  0  0  0  0  0  0  0  0
   49.0856   32.1620   48.5704 S   0  0  0  0  0  0  0  0  0  0  0  0
   49.1602   30.6994   49.5837 C   0  0  0  0  0  0  0  0  0  0  0  0
   49.8739   30.7312   50.7435 C   0  0  0  0  0  0  0  0  0  0  0  0
   50.3876   31.6485   51.0342 H   0  0  0  0  0  0  0  0  0  0  0  0
   49.9740   29.6378   51.5741 C   0  0  0  0  0  0  0  0  0  0  0  0
   50.5245   29.6114   52.4996 H   0  0  0  0  0  0  0  0  0  0  0  0
   49.3178   28.4889   51.1889 C   0  0  0  0  0  0  0  0  0  0  0  0
   49.3672   27.6039   51.8087 H   0  0  0  0  0  0  0  0  0  0  0  0
   48.6065   28.4996   50.0072 C   0  0  0  0  0  0  0  0  0  0  0  0
   48.1095   27.5462   49.7662 H   0  0  0  0  0  0  0  0  0  0  0  0
   48.4905   29.5800   49.1584 C   0  0  0  0  0  0  0  0  0  0  0  0
   47.7289   29.4273   47.9928 N   0  0  0  0  0  0  0  0  0  0  0  0
   47.2741   28.5108   47.7987 H   0  0  0  0  0  0  0  0  0  0  0  0
  1  2  2  0
  2  3  1  0
  4  3  2  0
  5  4  1  0
  6  1  1  0
  6  5  2  0
  7 10  1  0
  7  9  1  0
  7  1  1  0
  8  7  1  0
  2 11  1  0
  5 12  1  0
 13 14  2  0
 14 15  1  0
 14 16  1  0
 16 17  1  0
 16 18  2  0
 18 19  1  0
 19 20  2  0
 20 21  1  0
 19 22  1  0
 22 23  1  0
 23 24  2  0
 24 25  1  0
 24 26  1  0
 26 27  1  0
 26 28  2  0
 28 29  1  0
 28 30  1  0
 30 31  1  0
 30 32  2  0
 32 33  1  0
 33 34  1  0
 20 13  1  0
 32 23  1  0
 33 18  1  0
  3 13  1  0
M  ISO  8  11  14  12  14  15  16  17  16  21  16  25  16  27  16  29  16
M  ISO  2  31  16  34   5
M  END
>  <DihAtoms>  (1) 
1,2,12,13

>  <DihDeg>  (1) 
-0.009098496134389953

$$$$
