REMARK  Name = 
REMARK  2 active torsions:
REMARK  status: ('A' for Active; 'I' for Inactive)
REMARK    1  A    between atoms: C_1  and  C_7
REMARK    2  A    between atoms: C_3  and  C_13
REMARK                            x       y       z     vdW  Elec       q    Type
REMARK                         _______ _______ _______ _____ _____    ______ ____
ROOT
ATOM      1  C   UNL     1      47.085  32.453  45.088  0.00  0.00    +0.000 A 
ATOM      2  C   UNL     1      47.561  32.605  46.372  0.00  0.00    +0.000 A 
ATOM      3  H   UNL     1      47.820  33.585  46.703  0.00  0.00    +0.000 HD
ATOM      4  C   UNL     1      47.689  31.499  47.187  0.00  0.00    +0.000 A 
ATOM      5  H   UNL     1      48.075  31.717  48.189  0.00  0.00    +0.000 HD
ATOM      6  C   UNL     1      47.367  30.213  46.801  0.00  0.00    +0.000 A 
ATOM      7  C   UNL     1      46.895  30.092  45.517  0.00  0.00    +0.000 A 
ATOM      8  C   UNL     1      46.765  31.167  44.707  0.00  0.00    +0.000 A 
ATOM      9  H   UNL     1      46.382  31.006  43.688  0.00  0.00    +0.000 HD
ATOM     10  S   UNL     1      46.458  28.478  44.938  0.00  0.00    +0.000 S 
ATOM     11  C   UNL     1      46.767  27.346  46.278  0.00  0.00    +0.000 A 
ATOM     12  C   UNL     1      46.512  26.020  46.099  0.00  0.00    +0.000 A 
ATOM     13  H   UNL     1      46.123  25.672  45.142  0.00  0.00    +0.000 HD
ATOM     14  C   UNL     1      46.728  25.091  47.092  0.00  0.00    +0.000 A 
ATOM     15  H   UNL     1      46.542  24.034  47.001  0.00  0.00    +0.000 HD
ATOM     16  C   UNL     1      47.219  25.552  48.294  0.00  0.00    +0.000 A 
ATOM     17  H   UNL     1      47.405  24.860  49.104  0.00  0.00    +0.000 HD
ATOM     18  C   UNL     1      47.464  26.902  48.433  0.00  0.00    +0.000 A 
ATOM     19  H   UNL     1      47.855  27.195  49.420  0.00  0.00    +0.000 HD
ATOM     20  C   UNL     1      47.256  27.853  47.456  0.00  0.00    +0.000 A 
ATOM     21  N   UNL     1      47.556  29.188  47.757  0.00  0.00    +0.000 N 
ATOM     22  H   UNL     1      47.924  29.426  48.702  0.00  0.00    +0.000 HD
ENDROOT
BRANCH   1  25
ATOM     23  C   UNL     1      47.683  34.960  42.347  0.00  0.00    +0.000 A 
ATOM     24  C   UNL     1      47.913  33.918  43.249  0.00  0.00    +0.000 A 
ATOM     25  C   UNL     1      46.902  33.531  44.127  0.00  0.00    +0.000 A 
ATOM     26  N   UNL     1      45.726  34.206  44.050  0.00  0.00    +0.000 NA
ATOM     27  C   UNL     1      45.515  35.203  43.182  0.00  0.00    +0.000 A 
ATOM     28  N   UNL     1      46.485  35.571  42.344  0.00  0.00    +0.000 NA
ATOM     29  H   UNL     1      48.857  33.435  43.255  0.00  0.00    +0.000 HD
ATOM     30  H   UNL     1      44.544  35.681  43.195  0.00  0.00    +0.000 HD
BRANCH  23  31
ATOM     31  C   UNL     1      48.789  35.344  41.426  0.00  0.00    +0.000 C 
ATOM     32  F   UNL     1      48.416  35.240  40.110  0.00  0.00    +0.000 F 
ATOM     33  F   UNL     1      49.216  36.613  41.755  0.00  0.00    +0.000 F 
ATOM     34  F   UNL     1      49.885  34.499  41.668  0.00  0.00    +0.000 F 
ENDBRANCH  23  31
ENDBRANCH   1  25
TORSDOF 2
