REMARK  Name = 
REMARK  2 active torsions:
REMARK  status: ('A' for Active; 'I' for Inactive)
REMARK    1  A    between atoms: C_1  and  C_7
REMARK    2  A    between atoms: C_3  and  C_13
REMARK                            x       y       z     vdW  Elec       q    Type
REMARK                         _______ _______ _______ _____ _____    ______ ____
ROOT
ATOM      1  C   UNL     1      47.085  32.453  45.088  0.00  0.00    +0.000 A 
ATOM      2  C   UNL     1      46.087  31.625  45.554  0.00  0.00    +0.000 A 
ATOM      3  H   UNL     1      45.096  31.774  45.192  0.00  0.00    +0.000 HD
ATOM      4  C   UNL     1      46.393  30.637  46.467  0.00  0.00    +0.000 A 
ATOM      5  H   UNL     1      45.536  30.029  46.780  0.00  0.00    +0.000 HD
ATOM      6  C   UNL     1      47.660  30.408  46.963  0.00  0.00    +0.000 A 
ATOM      7  C   UNL     1      48.635  31.247  46.481  0.00  0.00    +0.000 A 
ATOM      8  C   UNL     1      48.350  32.221  45.586  0.00  0.00    +0.000 A 
ATOM      9  H   UNL     1      49.173  32.861  45.237  0.00  0.00    +0.000 HD
ATOM     10  S   UNL     1      50.290  31.024  47.063  0.00  0.00    +0.000 S 
ATOM     11  C   UNL     1      50.256  29.664  48.212  0.00  0.00    +0.000 A 
ATOM     12  C   UNL     1      51.414  29.276  48.816  0.00  0.00    +0.000 A 
ATOM     13  H   UNL     1      52.342  29.803  48.589  0.00  0.00    +0.000 HD
ATOM     14  C   UNL     1      51.460  28.233  49.714  0.00  0.00    +0.000 A 
ATOM     15  H   UNL     1      52.348  27.889  50.217  0.00  0.00    +0.000 HD
ATOM     16  C   UNL     1      50.277  27.581  49.987  0.00  0.00    +0.000 A 
ATOM     17  H   UNL     1      50.264  26.756  50.685  0.00  0.00    +0.000 HD
ATOM     18  C   UNL     1      49.128  28.006  49.353  0.00  0.00    +0.000 A 
ATOM     19  H   UNL     1      48.224  27.437  49.622  0.00  0.00    +0.000 HD
ATOM     20  C   UNL     1      49.055  29.046  48.451  0.00  0.00    +0.000 A 
ATOM     21  N   UNL     1      47.807  29.353  47.894  0.00  0.00    +0.000 N 
ATOM     22  H   UNL     1      46.974  28.793  48.172  0.00  0.00    +0.000 HD
ENDROOT
BRANCH   1  25
ATOM     23  C   UNL     1      47.683  34.960  42.347  0.00  0.00    +0.000 A 
ATOM     24  C   UNL     1      47.913  33.918  43.249  0.00  0.00    +0.000 A 
ATOM     25  C   UNL     1      46.902  33.531  44.127  0.00  0.00    +0.000 A 
ATOM     26  N   UNL     1      45.726  34.206  44.050  0.00  0.00    +0.000 NA
ATOM     27  C   UNL     1      45.515  35.203  43.182  0.00  0.00    +0.000 A 
ATOM     28  N   UNL     1      46.485  35.571  42.344  0.00  0.00    +0.000 NA
ATOM     29  H   UNL     1      48.857  33.435  43.255  0.00  0.00    +0.000 HD
ATOM     30  H   UNL     1      44.544  35.681  43.195  0.00  0.00    +0.000 HD
BRANCH  23  31
ATOM     31  C   UNL     1      48.789  35.344  41.426  0.00  0.00    +0.000 C 
ATOM     32  F   UNL     1      48.416  35.240  40.110  0.00  0.00    +0.000 F 
ATOM     33  F   UNL     1      49.216  36.613  41.755  0.00  0.00    +0.000 F 
ATOM     34  F   UNL     1      49.885  34.499  41.668  0.00  0.00    +0.000 F 
ENDBRANCH  23  31
ENDBRANCH   1  25
TORSDOF 2
