
     RDKit          3D

 37 40  0  0  0  0  0  0  0  0999 V2000
   45.1936   35.2070   44.0533 C   0  0  0  0  0  0  0  0  0  0  0  0
   46.2348   34.5874   43.3699 C   0  0  0  0  0  0  0  0  0  0  0  0
   46.9117   33.5711   44.0699 C   0  0  0  0  0  0  0  0  0  0  0  0
   46.5133   33.2719   45.3317 N   0  0  0  0  0  0  0  0  0  0  0  0
   45.5050   33.9020   45.9378 C   0  0  0  0  0  0  0  0  0  0  0  0
   44.8402   34.8729   45.3009 N   0  0  0  0  0  0  0  0  0  0  0  0
   46.5463   35.0091   42.0231 C   0  0  1  0  0  0  0  0  0  0  0  0
   48.0512   35.1646   41.9194 C   0  0  0  0  0  0  0  0  0  0  0  0
   44.6099   36.0116   43.5830 H   0  0  0  0  0  0  0  0  0  0  0  0
   47.7274   33.0630   43.5750 H   0  0  0  0  0  0  0  0  0  0  0  0
   45.1697   33.6794   46.9455 H   0  0  0  0  0  0  0  0  0  0  0  0
   46.0828   36.0104   41.8524 H   0  0  0  0  0  0  0  0  0  0  0  0
   48.4149   35.9286   42.6414 H   0  0  0  0  0  0  0  0  0  0  0  0
   48.5015   34.1847   42.0702 H   0  0  0  0  0  0  0  0  0  0  0  0
   48.2481   35.5866   40.9024 H   0  0  0  0  0  0  0  0  0  0  0  0
   46.0579   34.0984   40.9534 C   0  0  0  0  0  0  0  0  0  0  0  0
   46.7485   33.6532   39.8427 C   0  0  0  0  0  0  0  0  0  0  0  0
   47.7497   34.0126   39.7539 H   0  0  0  0  0  0  0  0  0  0  0  0
   46.1540   32.8122   38.9455 C   0  0  0  0  0  0  0  0  0  0  0  0
   46.7749   32.5165   38.1052 H   0  0  0  0  0  0  0  0  0  0  0  0
   44.8579   32.3686   39.0937 C   0  0  0  0  0  0  0  0  0  0  0  0
   44.1375   32.7881   40.1842 C   0  0  0  0  0  0  0  0  0  0  0  0
   44.7440   33.6232   41.0649 C   0  0  0  0  0  0  0  0  0  0  0  0
   44.1518   33.9387   41.9172 H   0  0  0  0  0  0  0  0  0  0  0  0
   42.4590   32.2327   40.4049 S   0  0  0  0  0  0  0  0  0  0  0  0
   42.1250   31.1736   39.0128 C   0  0  0  0  0  0  0  0  0  0  0  0
   40.8863   30.6306   38.9742 C   0  0  0  0  0  0  0  0  0  0  0  0
   40.1168   30.8140   39.7385 H   0  0  0  0  0  0  0  0  0  0  0  0
   40.5139   29.7936   37.9426 C   0  0  0  0  0  0  0  0  0  0  0  0
   39.5310   29.3467   37.8878 H   0  0  0  0  0  0  0  0  0  0  0  0
   41.4415   29.5295   36.9562 C   0  0  0  0  0  0  0  0  0  0  0  0
   41.1842   28.8780   36.1325 H   0  0  0  0  0  0  0  0  0  0  0  0
   42.6813   30.1156   37.0594 C   0  0  0  0  0  0  0  0  0  0  0  0
   43.3692   29.8640   36.2434 H   0  0  0  0  0  0  0  0  0  0  0  0
   43.0930   30.9558   38.0710 C   0  0  0  0  0  0  0  0  0  0  0  0
   44.3939   31.5043   38.0785 N   0  0  0  0  0  0  0  0  0  0  0  0
   44.9953   31.2260   37.2769 H   0  0  0  0  0  0  0  0  0  0  0  0
  1  6  2  0
  2  1  1  0
  2  3  2  0
  3  4  1  0
  4  5  2  0
  6  5  1  0
  7  2  1  0
  8  7  1  0
  1  9  1  0
  3 10  1  0
  5 11  1  0
  7 12  1  6
  8 13  1  0
  8 14  1  0
  8 15  1  0
 16 17  2  0
 17 18  1  0
 17 19  1  0
 19 20  1  0
 19 21  2  0
 21 22  1  0
 22 23  2  0
 23 24  1  0
 22 25  1  0
 25 26  1  0
 26 27  2  0
 27 28  1  0
 27 29  1  0
 29 30  1  0
 29 31  2  0
 31 32  1  0
 31 33  1  0
 33 34  1  0
 33 35  2  0
 35 36  1  0
 36 37  1  0
 23 16  1  0
 35 26  1  0
 36 21  1  0
  7 16  1  0
M  ISO  8   9  14  10  14  11  14  12   8  13   8  14   8  15   8  18  16
M  ISO  7  20  16  24  16  28  16  30  16  32  16  34  16  37   5
M  END
>  <DihAtoms>  (1) 
1,6,15,16

>  <DihDeg>  (1) 
-89.77594872504334

$$$$
