
     RDKit          3D

 34 37  0  0  0  0  0  0  0  0999 V2000
   47.6833   34.9602   42.3473 C   0  0  0  0  0  0  0  0  0  0  0  0
   47.9135   33.9184   43.2494 C   0  0  0  0  0  0  0  0  0  0  0  0
   46.9016   33.5308   44.1272 C   0  0  0  0  0  0  0  0  0  0  0  0
   45.7257   34.2056   44.0498 N   0  0  0  0  0  0  0  0  0  0  0  0
   45.5152   35.2026   43.1817 C   0  0  0  0  0  0  0  0  0  0  0  0
   46.4852   35.5708   42.3436 N   0  0  0  0  0  0  0  0  0  0  0  0
   48.7895   35.3444   41.4263 C   0  0  0  0  0  0  0  0  0  0  0  0
   48.4165   35.2404   40.1099 F   0  0  0  0  0  0  0  0  0  0  0  0
   49.2161   36.6126   41.7546 F   0  0  0  0  0  0  0  0  0  0  0  0
   49.8854   34.4992   41.6681 F   0  0  0  0  0  0  0  0  0  0  0  0
   48.8566   33.4349   43.2551 H   0  0  0  0  0  0  0  0  0  0  0  0
   44.5436   35.6811   43.1949 H   0  0  0  0  0  0  0  0  0  0  0  0
   47.0853   32.4529   45.0876 C   0  0  0  0  0  0  0  0  0  0  0  0
   46.1338   32.0164   45.9835 C   0  0  0  0  0  0  0  0  0  0  0  0
   45.1821   32.4966   45.9858 H   0  0  0  0  0  0  0  0  0  0  0  0
   46.4341   30.9805   46.8448 C   0  0  0  0  0  0  0  0  0  0  0  0
   45.6167   30.7021   47.5202 H   0  0  0  0  0  0  0  0  0  0  0  0
   47.6509   30.3302   46.8772 C   0  0  0  0  0  0  0  0  0  0  0  0
   48.5792   30.7862   45.9738 C   0  0  0  0  0  0  0  0  0  0  0  0
   48.2992   31.8004   45.1237 C   0  0  0  0  0  0  0  0  0  0  0  0
   49.0843   32.1210   44.4229 H   0  0  0  0  0  0  0  0  0  0  0  0
   50.1681   30.0086   45.9465 S   0  0  0  0  0  0  0  0  0  0  0  0
   50.1448   28.7391   47.1952 C   0  0  0  0  0  0  0  0  0  0  0  0
   51.2573   27.9772   47.3878 C   0  0  0  0  0  0  0  0  0  0  0  0
   52.1434   28.1546   46.7770 H   0  0  0  0  0  0  0  0  0  0  0  0
   51.3087   26.9791   48.3349 C   0  0  0  0  0  0  0  0  0  0  0  0
   52.1620   26.3501   48.5261 H   0  0  0  0  0  0  0  0  0  0  0  0
   50.1791   26.7710   49.0961 C   0  0  0  0  0  0  0  0  0  0  0  0
   50.1713   25.9983   49.8528 H   0  0  0  0  0  0  0  0  0  0  0  0
   49.0742   27.5649   48.8686 C   0  0  0  0  0  0  0  0  0  0  0  0
   48.2108   27.3396   49.5149 H   0  0  0  0  0  0  0  0  0  0  0  0
   48.9970   28.5697   47.9277 C   0  0  0  0  0  0  0  0  0  0  0  0
   47.7983   29.2865   47.8215 N   0  0  0  0  0  0  0  0  0  0  0  0
   47.0037   29.0447   48.4498 H   0  0  0  0  0  0  0  0  0  0  0  0
  1  2  2  0
  2  3  1  0
  4  3  2  0
  5  4  1  0
  6  1  1  0
  6  5  2  0
  7 10  1  0
  7  9  1  0
  7  1  1  0
  8  7  1  0
  2 11  1  0
  5 12  1  0
 13 14  2  0
 14 15  1  0
 14 16  1  0
 16 17  1  0
 16 18  2  0
 18 19  1  0
 19 20  2  0
 20 21  1  0
 19 22  1  0
 22 23  1  0
 23 24  2  0
 24 25  1  0
 24 26  1  0
 26 27  1  0
 26 28  2  0
 28 29  1  0
 28 30  1  0
 30 31  1  0
 30 32  2  0
 32 33  1  0
 33 34  1  0
 20 13  1  0
 32 23  1  0
 33 18  1  0
  3 13  1  0
M  ISO  8  11  14  12  14  15  16  17  16  21  16  25  16  27  16  29  16
M  ISO  2  31  16  34   5
M  END
>  <DihAtoms>  (1) 
1,2,12,13

>  <DihDeg>  (1) 
-0.009098496134389953

$$$$
