
 OpenBabel03252502363D

 37 40  0  0  1  0  0  0  0  0999 V2000
   45.1250   34.6570   41.5210 C   0  0  0  0  0  0  0  0  0  0  0  0
   45.4440   33.8450   40.4500 C   0  0  0  0  0  0  0  0  0  0  0  0
   46.4780   33.6000   40.3550 H   0  0  0  0  0  0  0  0  0  0  0  0
   44.4710   33.4080   39.5960 C   0  0  0  0  0  0  0  0  0  0  0  0
   44.8170   32.7740   38.7840 H   0  0  0  0  0  0  0  0  0  0  0  0
   43.1440   33.7440   39.7510 C   0  0  0  0  0  0  0  0  0  0  0  0
   42.7860   34.5510   40.8040 C   0  0  0  0  0  0  0  0  0  0  0  0
   43.7660   34.9750   41.6410 C   0  0  0  0  0  0  0  0  0  0  0  0
   43.4550   35.6110   42.4640 H   0  0  0  0  0  0  0  0  0  0  0  0
   41.0790   35.0050   41.0320 S   0  0  0  0  0  0  0  0  0  0  0  0
   40.1980   34.2150   39.7020 C   0  0  0  0  0  0  0  0  0  0  0  0
   38.8620   34.4280   39.6770 C   0  0  0  0  0  0  0  0  0  0  0  0
   38.3290   35.0420   40.4170 H   0  0  0  0  0  0  0  0  0  0  0  0
   38.0760   33.8650   38.6920 C   0  0  0  0  0  0  0  0  0  0  0  0
   37.0060   34.0190   38.6490 H   0  0  0  0  0  0  0  0  0  0  0  0
   38.6930   33.0840   37.7380 C   0  0  0  0  0  0  0  0  0  0  0  0
   38.1080   32.6280   36.9510 H   0  0  0  0  0  0  0  0  0  0  0  0
   40.0540   32.9110   37.8240 C   0  0  0  0  0  0  0  0  0  0  0  0
   40.4810   32.2810   37.0350 H   0  0  0  0  0  0  0  0  0  0  0  0
   40.8750   33.4540   38.7890 C   0  0  0  0  0  0  0  0  0  0  0  0
   42.2670   33.2110   38.7830 N   0  0  0  0  0  0  0  0  0  0  0  0
   42.6050   32.6040   38.0090 H   0  0  0  0  0  0  0  0  0  0  0  0
   46.0500   35.2210   42.5410 C   0  0  1  0  0  0  0  0  0  0  0  0
   45.7840   36.2960   42.6810 H   0  0  0  0  0  0  0  0  0  0  0  0
   45.0780   34.9960   44.7750 C   0  0  0  0  0  0  0  0  0  0  0  0
   46.0040   34.5680   43.8300 C   0  0  0  0  0  0  0  0  0  0  0  0
   46.8390   33.5050   44.2220 C   0  0  0  0  0  0  0  0  0  0  0  0
   46.6860   32.9810   45.4640 N   0  0  0  0  0  0  0  0  0  0  0  0
   45.7780   33.4330   46.3310 C   0  0  0  0  0  0  0  0  0  0  0  0
   44.9690   34.4430   45.9910 N   0  0  0  0  0  0  0  0  0  0  0  0
   44.3860   35.8220   44.5550 H   0  0  0  0  0  0  0  0  0  0  0  0
   47.5720   33.1420   43.5160 H   0  0  0  0  0  0  0  0  0  0  0  0
   45.6400   33.0290   47.3290 H   0  0  0  0  0  0  0  0  0  0  0  0
   47.4780   35.1530   42.0340 C   0  0  0  0  0  0  0  0  0  0  0  0
   48.1660   35.6720   42.7370 H   0  0  0  0  0  0  0  0  0  0  0  0
   47.7320   34.1050   41.8820 H   0  0  0  0  0  0  0  0  0  0  0  0
   47.4990   35.7510   41.0890 H   0  0  0  0  0  0  0  0  0  0  0  0
  1  8  1  0  0  0  0
  1 23  1  0  0  0  0
  2  1  2  0  0  0  0
  3  2  1  0  0  0  0
  4  6  2  0  0  0  0
  4  2  1  0  0  0  0
  5  4  1  0  0  0  0
  6  7  1  0  0  0  0
  7 10  1  0  0  0  0
  7  8  2  0  0  0  0
  8  9  1  0  0  0  0
 11 10  1  0  0  0  0
 12 11  1  0  0  0  0
 12 13  1  0  0  0  0
 14 12  2  0  0  0  0
 15 14  1  0  0  0  0
 16 18  2  0  0  0  0
 16 14  1  0  0  0  0
 17 16  1  0  0  0  0
 18 20  1  0  0  0  0
 19 18  1  0  0  0  0
 20 11  2  0  0  0  0
 21 20  1  0  0  0  0
 21  6  1  0  0  0  0
 22 21  1  0  0  0  0
 23 24  1  1  0  0  0
 23 26  1  0  0  0  0
 25 30  1  0  0  0  0
 26 27  1  0  0  0  0
 26 25  2  0  0  0  0
 27 28  2  0  0  0  0
 28 29  1  0  0  0  0
 29 33  1  0  0  0  0
 30 29  2  0  0  0  0
 31 25  1  0  0  0  0
 32 27  1  0  0  0  0
 34 23  1  0  0  0  0
 34 35  1  0  0  0  0
 36 34  1  0  0  0  0
 37 34  1  0  0  0  0
M  END
>  <minimizedAffinity>
-6.6088748

>  <minimizedRMSD>
3.25617361

$$$$
