
     RDKit          3D

 34 37  0  0  0  0  0  0  0  0999 V2000
   47.6833   34.9602   42.3473 C   0  0  0  0  0  0  0  0  0  0  0  0
   47.9135   33.9184   43.2494 C   0  0  0  0  0  0  0  0  0  0  0  0
   46.9016   33.5308   44.1272 C   0  0  0  0  0  0  0  0  0  0  0  0
   45.7257   34.2056   44.0498 N   0  0  0  0  0  0  0  0  0  0  0  0
   45.5152   35.2026   43.1817 C   0  0  0  0  0  0  0  0  0  0  0  0
   46.4852   35.5708   42.3436 N   0  0  0  0  0  0  0  0  0  0  0  0
   48.7895   35.3444   41.4263 C   0  0  0  0  0  0  0  0  0  0  0  0
   48.4165   35.2404   40.1099 F   0  0  0  0  0  0  0  0  0  0  0  0
   49.2161   36.6126   41.7546 F   0  0  0  0  0  0  0  0  0  0  0  0
   49.8854   34.4992   41.6681 F   0  0  0  0  0  0  0  0  0  0  0  0
   48.8566   33.4349   43.2551 H   0  0  0  0  0  0  0  0  0  0  0  0
   44.5436   35.6811   43.1949 H   0  0  0  0  0  0  0  0  0  0  0  0
   47.0853   32.4529   45.0876 C   0  0  0  0  0  0  0  0  0  0  0  0
   46.4624   32.3666   46.3137 C   0  0  0  0  0  0  0  0  0  0  0  0
   45.7895   33.1436   46.5958 H   0  0  0  0  0  0  0  0  0  0  0  0
   46.7229   31.2884   47.1351 C   0  0  0  0  0  0  0  0  0  0  0  0
   46.1826   31.3052   48.0889 H   0  0  0  0  0  0  0  0  0  0  0  0
   47.5852   30.2606   46.8117 C   0  0  0  0  0  0  0  0  0  0  0  0
   48.1913   30.3733   45.5846 C   0  0  0  0  0  0  0  0  0  0  0  0
   47.9458   31.4240   44.7689 C   0  0  0  0  0  0  0  0  0  0  0  0
   48.4619   31.4580   43.7979 H   0  0  0  0  0  0  0  0  0  0  0  0
   49.3134   29.0986   45.0886 S   0  0  0  0  0  0  0  0  0  0  0  0
   49.3666   27.9109   46.4145 C   0  0  0  0  0  0  0  0  0  0  0  0
   50.1640   26.8136   46.2910 C   0  0  0  0  0  0  0  0  0  0  0  0
   50.7566   26.6782   45.3852 H   0  0  0  0  0  0  0  0  0  0  0  0
   50.2532   25.8560   47.2763 C   0  0  0  0  0  0  0  0  0  0  0  0
   50.8672   24.9724   47.2274 H   0  0  0  0  0  0  0  0  0  0  0  0
   49.4968   26.0455   48.4124 C   0  0  0  0  0  0  0  0  0  0  0  0
   49.5334   25.3205   49.2141 H   0  0  0  0  0  0  0  0  0  0  0  0
   48.7028   27.1704   48.4969 C   0  0  0  0  0  0  0  0  0  0  0  0
   48.1283   27.2529   49.4334 H   0  0  0  0  0  0  0  0  0  0  0  0
   48.5958   28.1431   47.5256 C   0  0  0  0  0  0  0  0  0  0  0  0
   47.7422   29.2273   47.7659 N   0  0  0  0  0  0  0  0  0  0  0  0
   47.2152   29.2708   48.6631 H   0  0  0  0  0  0  0  0  0  0  0  0
  1  2  2  0
  2  3  1  0
  4  3  2  0
  5  4  1  0
  6  1  1  0
  6  5  2  0
  7 10  1  0
  7  9  1  0
  7  1  1  0
  8  7  1  0
  2 11  1  0
  5 12  1  0
 13 14  2  0
 14 15  1  0
 14 16  1  0
 16 17  1  0
 16 18  2  0
 18 19  1  0
 19 20  2  0
 20 21  1  0
 19 22  1  0
 22 23  1  0
 23 24  2  0
 24 25  1  0
 24 26  1  0
 26 27  1  0
 26 28  2  0
 28 29  1  0
 28 30  1  0
 30 31  1  0
 30 32  2  0
 32 33  1  0
 33 34  1  0
 20 13  1  0
 32 23  1  0
 33 18  1  0
  3 13  1  0
M  ISO  8  11  14  12  14  15  16  17  16  21  16  25  16  27  16  29  16
M  ISO  2  31  16  34   5
M  END
>  <DihAtoms>  (1) 
1,2,12,13

>  <DihDeg>  (1) 
-0.009098496134389953

$$$$
