REMARK  Name = 
REMARK  2 active torsions:
REMARK  status: ('A' for Active; 'I' for Inactive)
REMARK    1  A    between atoms: C_1  and  C_7
REMARK    2  A    between atoms: C_3  and  C_13
REMARK                            x       y       z     vdW  Elec       q    Type
REMARK                         _______ _______ _______ _____ _____    ______ ____
ROOT
ATOM      1  C   UNL     1      47.085  32.453  45.088  0.00  0.00    +0.000 A 
ATOM      2  C   UNL     1      46.334  31.299  45.140  0.00  0.00    +0.000 A 
ATOM      3  H   UNL     1      45.553  31.170  44.426  0.00  0.00    +0.000 HD
ATOM      4  C   UNL     1      46.611  30.350  46.103  0.00  0.00    +0.000 A 
ATOM      5  H   UNL     1      45.963  29.466  46.067  0.00  0.00    +0.000 HD
ATOM      6  C   UNL     1      47.612  30.473  47.045  0.00  0.00    +0.000 A 
ATOM      7  C   UNL     1      48.343  31.633  46.969  0.00  0.00    +0.000 A 
ATOM      8  C   UNL     1      48.084  32.572  46.031  0.00  0.00    +0.000 A 
ATOM      9  H   UNL     1      48.705  33.480  46.021  0.00  0.00    +0.000 HD
ATOM     10  S   UNL     1      49.647  31.874  48.140  0.00  0.00    +0.000 S 
ATOM     11  C   UNL     1      49.671  30.437  49.192  0.00  0.00    +0.000 A 
ATOM     12  C   UNL     1      50.592  30.363  50.193  0.00  0.00    +0.000 A 
ATOM     13  H   UNL     1      51.299  31.181  50.336  0.00  0.00    +0.000 HD
ATOM     14  C   UNL     1      50.667  29.282  51.043  0.00  0.00    +0.000 A 
ATOM     15  H   UNL     1      51.375  29.175  51.848  0.00  0.00    +0.000 HD
ATOM     16  C   UNL     1      49.766  28.259  50.846  0.00  0.00    +0.000 A 
ATOM     17  H   UNL     1      49.785  27.389  51.488  0.00  0.00    +0.000 HD
ATOM     18  C   UNL     1      48.850  28.375  49.820  0.00  0.00    +0.000 A 
ATOM     19  H   UNL     1      48.163  27.518  49.725  0.00  0.00    +0.000 HD
ATOM     20  C   UNL     1      48.754  29.445  48.956  0.00  0.00    +0.000 A 
ATOM     21  N   UNL     1      47.765  29.408  47.965  0.00  0.00    +0.000 N 
ATOM     22  H   UNL     1      47.134  28.582  47.905  0.00  0.00    +0.000 HD
ENDROOT
BRANCH   1  25
ATOM     23  C   UNL     1      47.683  34.960  42.347  0.00  0.00    +0.000 A 
ATOM     24  C   UNL     1      47.913  33.918  43.249  0.00  0.00    +0.000 A 
ATOM     25  C   UNL     1      46.902  33.531  44.127  0.00  0.00    +0.000 A 
ATOM     26  N   UNL     1      45.726  34.206  44.050  0.00  0.00    +0.000 NA
ATOM     27  C   UNL     1      45.515  35.203  43.182  0.00  0.00    +0.000 A 
ATOM     28  N   UNL     1      46.485  35.571  42.344  0.00  0.00    +0.000 NA
ATOM     29  H   UNL     1      48.857  33.435  43.255  0.00  0.00    +0.000 HD
ATOM     30  H   UNL     1      44.544  35.681  43.195  0.00  0.00    +0.000 HD
BRANCH  23  31
ATOM     31  C   UNL     1      48.789  35.344  41.426  0.00  0.00    +0.000 C 
ATOM     32  F   UNL     1      48.416  35.240  40.110  0.00  0.00    +0.000 F 
ATOM     33  F   UNL     1      49.216  36.613  41.755  0.00  0.00    +0.000 F 
ATOM     34  F   UNL     1      49.885  34.499  41.668  0.00  0.00    +0.000 F 
ENDBRANCH  23  31
ENDBRANCH   1  25
TORSDOF 2
