
 OpenBabel03242515443D

 51 56  0  0  0  0  0  0  0  0999 V2000
   36.5700   30.3420   39.2690 C   0  0  0  0  0  0  0  0  0  0  0  0
   37.4270   31.3000   38.8500 C   0  0  0  0  0  0  0  0  0  0  0  0
   37.7020   31.3280   37.4620 C   0  0  0  0  0  0  0  0  0  0  0  0
   37.1210   30.4230   36.6370 N   0  0  0  0  0  0  0  0  0  0  0  0
   36.2800   29.4900   37.1070 C   0  0  0  0  0  0  0  0  0  0  0  0
   36.0470   29.5000   38.3990 N   0  0  0  0  0  0  0  0  0  0  0  0
   38.2330   32.3790   39.3940 C   0  0  0  0  0  0  0  0  0  0  0  0
   38.0840   33.7140   39.6750 C   0  0  0  0  0  0  0  0  0  0  0  0
   37.0590   33.9940   39.3820 H   0  0  0  0  0  0  0  0  0  0  0  0
   39.0830   34.4770   40.2150 C   0  0  0  0  0  0  0  0  0  0  0  0
   38.7560   35.5180   40.3610 H   0  0  0  0  0  0  0  0  0  0  0  0
   40.3220   33.9580   40.5190 C   0  0  0  0  0  0  0  0  0  0  0  0
   40.5370   32.6290   40.2610 C   0  0  0  0  0  0  0  0  0  0  0  0
   39.5230   31.9040   39.7260 C   0  0  0  0  0  0  0  0  0  0  0  0
   39.8330   30.8530   39.5710 H   0  0  0  0  0  0  0  0  0  0  0  0
   42.1330   31.9680   40.6550 S   0  0  0  0  0  0  0  0  0  0  0  0
   43.1040   33.3030   41.3270 C   0  0  0  0  0  0  0  0  0  0  0  0
   44.3640   32.9710   41.6860 C   0  0  0  0  0  0  0  0  0  0  0  0
   44.7900   31.9840   41.5880 H   0  0  0  0  0  0  0  0  0  0  0  0
   45.1900   33.9530   42.2190 C   0  0  0  0  0  0  0  0  0  0  0  0
   46.2110   33.8040   42.5400 H   0  0  0  0  0  0  0  0  0  0  0  0
   44.6910   35.2270   42.3630 C   0  0  0  0  0  0  0  0  0  0  0  0
   45.3040   36.0140   42.7740 H   0  0  0  0  0  0  0  0  0  0  0  0
   43.3920   35.4720   41.9710 C   0  0  0  0  0  0  0  0  0  0  0  0
   43.0540   36.5110   42.1120 H   0  0  0  0  0  0  0  0  0  0  0  0
   42.5240   34.5440   41.4340 C   0  0  0  0  0  0  0  0  0  0  0  0
   41.2070   34.8920   41.0610 N   0  0  0  0  0  0  0  0  0  0  0  0
   40.9710   35.8930   41.2290 H   0  0  0  0  0  0  0  0  0  0  0  0
   38.5560   32.3190   36.8750 N   0  0  0  0  0  0  0  0  0  0  0  0
   39.5240   32.3340   37.2860 H   0  0  0  0  0  0  0  0  0  0  0  0
   38.2380   32.9610   36.1110 H   0  0  0  0  0  0  0  0  0  0  0  0
   36.2490   30.3560   41.0490 S   0  0  0  0  0  0  0  0  0  0  0  0
   36.4840   27.9520   42.1740 C   0  0  0  0  0  0  0  0  0  0  0  0
   37.2100   29.1200   41.8820 C   0  0  0  0  0  0  0  0  0  0  0  0
   38.5490   29.2390   42.2000 C   0  0  0  0  0  0  0  0  0  0  0  0
   39.2130   28.2020   42.8160 C   0  0  0  0  0  0  0  0  0  0  0  0
   38.5110   27.0270   43.1170 C   0  0  0  0  0  0  0  0  0  0  0  0
   37.1640   26.8860   42.8070 C   0  0  0  0  0  0  0  0  0  0  0  0
   39.4150   26.1390   43.7330 O   0  0  0  0  0  0  0  0  0  0  0  0
   40.5450   26.8690   44.0560 C   0  0  0  0  0  0  0  0  0  0  0  0
   40.5170   28.0210   43.2460 O   0  0  0  0  0  0  0  0  0  0  0  0
   35.4390   27.8110   41.9470 H   0  0  0  0  0  0  0  0  0  0  0  0
   39.0360   30.1660   41.9480 H   0  0  0  0  0  0  0  0  0  0  0  0
   36.6710   25.9590   43.0620 H   0  0  0  0  0  0  0  0  0  0  0  0
   41.4460   26.2850   43.7270 H   0  0  0  0  0  0  0  0  0  0  0  0
   40.6990   27.0810   45.1220 H   0  0  0  0  0  0  0  0  0  0  0  0
   35.6430   28.5260   36.3590 O   0  0  0  0  0  0  0  0  0  0  0  0
   34.5370   28.9180   35.5830 C   0  0  0  0  0  0  0  0  0  0  0  0
   34.8730   29.8620   34.6400 F   0  0  0  0  0  0  0  0  0  0  0  0
   34.0380   27.7520   34.9780 F   0  0  0  0  0  0  0  0  0  0  0  0
   33.5870   29.4600   36.4300 F   0  0  0  0  0  0  0  0  0  0  0  0
  1 32  1  0  0  0  0
  2  1  1  0  0  0  0
  2  7  1  0  0  0  0
  3  2  2  0  0  0  0
  4  5  2  0  0  0  0
  4  3  1  0  0  0  0
  5  6  1  0  0  0  0
  6  1  2  0  0  0  0
  7  8  2  0  0  0  0
  7 14  1  0  0  0  0
  8 10  1  0  0  0  0
  9  8  1  0  0  0  0
 10 11  1  0  0  0  0
 10 12  2  0  0  0  0
 12 27  1  0  0  0  0
 13 12  1  0  0  0  0
 13 16  1  0  0  0  0
 14 13  2  0  0  0  0
 15 14  1  0  0  0  0
 16 17  1  0  0  0  0
 17 26  2  0  0  0  0
 17 18  1  0  0  0  0
 18 20  2  0  0  0  0
 19 18  1  0  0  0  0
 20 22  1  0  0  0  0
 20 21  1  0  0  0  0
 22 23  1  0  0  0  0
 24 25  1  0  0  0  0
 24 22  2  0  0  0  0
 26 24  1  0  0  0  0
 27 28  1  0  0  0  0
 27 26  1  0  0  0  0
 29 30  1  0  0  0  0
 29  3  1  0  0  0  0
 31 29  1  0  0  0  0
 32 34  1  0  0  0  0
 33 38  1  0  0  0  0
 34 33  2  0  0  0  0
 34 35  1  0  0  0  0
 35 36  2  0  0  0  0
 36 37  1  0  0  0  0
 36 41  1  0  0  0  0
 37 39  1  0  0  0  0
 38 44  1  0  0  0  0
 38 37  2  0  0  0  0
 39 40  1  0  0  0  0
 40 46  1  0  0  0  0
 41 40  1  0  0  0  0
 42 33  1  0  0  0  0
 43 35  1  0  0  0  0
 45 40  1  0  0  0  0
 47  5  1  0  0  0  0
 48 47  1  0  0  0  0
 48 51  1  0  0  0  0
 49 48  1  0  0  0  0
 50 48  1  0  0  0  0
M  END
>  <minimizedAffinity>
-8.26267338

$$$$

 OpenBabel03242515443D

 51 56  0  0  0  0  0  0  0  0999 V2000
   36.9120   25.9430   40.9620 C   0  0  0  0  0  0  0  0  0  0  0  0
   36.6320   27.0380   40.2200 C   0  0  0  0  0  0  0  0  0  0  0  0
   36.2870   26.8060   38.8680 C   0  0  0  0  0  0  0  0  0  0  0  0
   36.2560   25.5400   38.3830 N   0  0  0  0  0  0  0  0  0  0  0  0
   36.5470   24.4880   39.1630 C   0  0  0  0  0  0  0  0  0  0  0  0
   36.8580   24.7450   40.4120 N   0  0  0  0  0  0  0  0  0  0  0  0
   36.5820   28.4840   40.3560 C   0  0  0  0  0  0  0  0  0  0  0  0
   35.6650   29.4360   40.7280 C   0  0  0  0  0  0  0  0  0  0  0  0
   34.7300   28.9080   40.9710 H   0  0  0  0  0  0  0  0  0  0  0  0
   35.9520   30.7730   40.7560 C   0  0  0  0  0  0  0  0  0  0  0  0
   35.0810   31.3620   41.0820 H   0  0  0  0  0  0  0  0  0  0  0  0
   37.1900   31.2670   40.4100 C   0  0  0  0  0  0  0  0  0  0  0  0
   38.1520   30.3680   40.0280 C   0  0  0  0  0  0  0  0  0  0  0  0
   37.8310   29.0500   40.0130 C   0  0  0  0  0  0  0  0  0  0  0  0
   38.6950   28.4400   39.6870 H   0  0  0  0  0  0  0  0  0  0  0  0
   39.7420   31.0110   39.5860 S   0  0  0  0  0  0  0  0  0  0  0  0
   39.6630   32.7810   39.7660 C   0  0  0  0  0  0  0  0  0  0  0  0
   40.8050   33.4400   39.4660 C   0  0  0  0  0  0  0  0  0  0  0  0
   41.7180   32.9670   39.1370 H   0  0  0  0  0  0  0  0  0  0  0  0
   40.8300   34.8240   39.5790 C   0  0  0  0  0  0  0  0  0  0  0  0
   41.6830   35.4530   39.3670 H   0  0  0  0  0  0  0  0  0  0  0  0
   39.6900   35.4730   39.9950 C   0  0  0  0  0  0  0  0  0  0  0  0
   39.6730   36.5470   40.0950 H   0  0  0  0  0  0  0  0  0  0  0  0
   38.5710   34.7170   40.2800 C   0  0  0  0  0  0  0  0  0  0  0  0
   37.6930   35.2960   40.6070 H   0  0  0  0  0  0  0  0  0  0  0  0
   38.4820   33.3440   40.1870 C   0  0  0  0  0  0  0  0  0  0  0  0
   37.2890   32.6570   40.5010 N   0  0  0  0  0  0  0  0  0  0  0  0
   36.5090   33.2810   40.8020 H   0  0  0  0  0  0  0  0  0  0  0  0
   35.9220   27.8710   37.9810 N   0  0  0  0  0  0  0  0  0  0  0  0
   36.6630   28.6120   37.8890 H   0  0  0  0  0  0  0  0  0  0  0  0
   35.0040   27.9010   37.4780 H   0  0  0  0  0  0  0  0  0  0  0  0
   37.3400   26.2980   42.6830 S   0  0  0  0  0  0  0  0  0  0  0  0
   39.4620   27.8960   42.8880 C   0  0  0  0  0  0  0  0  0  0  0  0
   39.0860   26.5420   42.8700 C   0  0  0  0  0  0  0  0  0  0  0  0
   40.0160   25.5320   43.0200 C   0  0  0  0  0  0  0  0  0  0  0  0
   41.3480   25.8310   43.1950 C   0  0  0  0  0  0  0  0  0  0  0  0
   41.7470   27.1740   43.2170 C   0  0  0  0  0  0  0  0  0  0  0  0
   40.8300   28.2070   43.0670 C   0  0  0  0  0  0  0  0  0  0  0  0
   43.1420   27.2000   43.4100 O   0  0  0  0  0  0  0  0  0  0  0  0
   43.6030   25.9100   43.2160 C   0  0  0  0  0  0  0  0  0  0  0  0
   42.4870   25.0630   43.3720 O   0  0  0  0  0  0  0  0  0  0  0  0
   38.7750   28.7210   42.7740 H   0  0  0  0  0  0  0  0  0  0  0  0
   39.6530   24.5180   42.9920 H   0  0  0  0  0  0  0  0  0  0  0  0
   41.1910   29.2250   43.0910 H   0  0  0  0  0  0  0  0  0  0  0  0
   44.3010   25.6550   44.0570 H   0  0  0  0  0  0  0  0  0  0  0  0
   44.1700   25.7290   42.2930 H   0  0  0  0  0  0  0  0  0  0  0  0
   36.5510   23.1690   38.7710 O   0  0  0  0  0  0  0  0  0  0  0  0
   35.3170   22.4940   38.7170 C   0  0  0  0  0  0  0  0  0  0  0  0
   34.3660   23.0860   39.5160 F   0  0  0  0  0  0  0  0  0  0  0  0
   34.9190   22.4940   37.3690 F   0  0  0  0  0  0  0  0  0  0  0  0
   35.5160   21.1970   39.1550 F   0  0  0  0  0  0  0  0  0  0  0  0
  1 32  1  0  0  0  0
  2  7  1  0  0  0  0
  2  1  2  0  0  0  0
  3  2  1  0  0  0  0
  4  3  2  0  0  0  0
  4  5  1  0  0  0  0
  5  6  2  0  0  0  0
  6  1  1  0  0  0  0
  7  8  1  0  0  0  0
  8 10  2  0  0  0  0
  8  9  1  0  0  0  0
 10 11  1  0  0  0  0
 12 27  1  0  0  0  0
 12 10  1  0  0  0  0
 13 12  2  0  0  0  0
 14 13  1  0  0  0  0
 14  7  2  0  0  0  0
 15 14  1  0  0  0  0
 16 17  1  0  0  0  0
 16 13  1  0  0  0  0
 17 26  1  0  0  0  0
 18 20  1  0  0  0  0
 18 17  2  0  0  0  0
 19 18  1  0  0  0  0
 20 22  2  0  0  0  0
 21 20  1  0  0  0  0
 22 23  1  0  0  0  0
 22 24  1  0  0  0  0
 24 25  1  0  0  0  0
 26 24  2  0  0  0  0
 26 27  1  0  0  0  0
 27 28  1  0  0  0  0
 29  3  1  0  0  0  0
 30 29  1  0  0  0  0
 31 29  1  0  0  0  0
 32 34  1  0  0  0  0
 33 38  1  0  0  0  0
 34 33  2  0  0  0  0
 34 35  1  0  0  0  0
 35 36  2  0  0  0  0
 36 37  1  0  0  0  0
 36 41  1  0  0  0  0
 37 39  1  0  0  0  0
 38 44  1  0  0  0  0
 38 37  2  0  0  0  0
 40 41  1  0  0  0  0
 40 39  1  0  0  0  0
 40 45  1  0  0  0  0
 42 33  1  0  0  0  0
 43 35  1  0  0  0  0
 46 40  1  0  0  0  0
 47  5  1  0  0  0  0
 48 47  1  0  0  0  0
 48 51  1  0  0  0  0
 48 49  1  0  0  0  0
 50 48  1  0  0  0  0
M  END
>  <minimizedAffinity>
-7.51140928

$$$$

 OpenBabel03242515443D

 51 56  0  0  0  0  0  0  0  0999 V2000
   36.6920   29.5400   38.6710 C   0  0  0  0  0  0  0  0  0  0  0  0
   37.3080   30.7020   38.3600 C   0  0  0  0  0  0  0  0  0  0  0  0
   37.3870   31.0190   36.9820 C   0  0  0  0  0  0  0  0  0  0  0  0
   36.8630   30.1720   36.0610 N   0  0  0  0  0  0  0  0  0  0  0  0
   36.2650   29.0290   36.4250 C   0  0  0  0  0  0  0  0  0  0  0  0
   36.2090   28.7730   37.7120 N   0  0  0  0  0  0  0  0  0  0  0  0
   37.9840   31.8080   39.0160 C   0  0  0  0  0  0  0  0  0  0  0  0
   37.6570   33.0450   39.5130 C   0  0  0  0  0  0  0  0  0  0  0  0
   36.5800   33.1930   39.3310 H   0  0  0  0  0  0  0  0  0  0  0  0
   38.5700   33.8740   40.1050 C   0  0  0  0  0  0  0  0  0  0  0  0
   38.1010   34.8150   40.4330 H   0  0  0  0  0  0  0  0  0  0  0  0
   39.8950   33.5270   40.2470 C   0  0  0  0  0  0  0  0  0  0  0  0
   40.2880   32.3030   39.7710 C   0  0  0  0  0  0  0  0  0  0  0  0
   39.3550   31.5070   39.1910 C   0  0  0  0  0  0  0  0  0  0  0  0
   39.8070   30.5560   38.8540 H   0  0  0  0  0  0  0  0  0  0  0  0
   41.9940   31.8630   39.9580 S   0  0  0  0  0  0  0  0  0  0  0  0
   42.8030   33.2260   40.7720 C   0  0  0  0  0  0  0  0  0  0  0  0
   44.1250   33.0570   40.9960 C   0  0  0  0  0  0  0  0  0  0  0  0
   44.6870   32.1780   40.7190 H   0  0  0  0  0  0  0  0  0  0  0  0
   44.8330   34.0720   41.6270 C   0  0  0  0  0  0  0  0  0  0  0  0
   45.8890   34.0470   41.8570 H   0  0  0  0  0  0  0  0  0  0  0  0
   44.1600   35.2120   42.0000 C   0  0  0  0  0  0  0  0  0  0  0  0
   44.6780   36.0210   42.4920 H   0  0  0  0  0  0  0  0  0  0  0  0
   42.8100   35.2960   41.7300 C   0  0  0  0  0  0  0  0  0  0  0  0
   42.3310   36.2330   42.0540 H   0  0  0  0  0  0  0  0  0  0  0  0
   42.0510   34.3260   41.1080 C   0  0  0  0  0  0  0  0  0  0  0  0
   40.6700   34.5040   40.8750 N   0  0  0  0  0  0  0  0  0  0  0  0
   40.2990   35.4180   41.2130 H   0  0  0  0  0  0  0  0  0  0  0  0
   37.9710   32.2400   36.5140 N   0  0  0  0  0  0  0  0  0  0  0  0
   38.9690   32.3720   36.8210 H   0  0  0  0  0  0  0  0  0  0  0  0
   37.4490   32.9300   35.9230 H   0  0  0  0  0  0  0  0  0  0  0  0
   36.6150   29.1890   40.4440 S   0  0  0  0  0  0  0  0  0  0  0  0
   36.9780   27.1670   42.1400 C   0  0  0  0  0  0  0  0  0  0  0  0
   36.9240   27.4740   40.7690 C   0  0  0  0  0  0  0  0  0  0  0  0
   37.0700   26.4970   39.8030 C   0  0  0  0  0  0  0  0  0  0  0  0
   37.2710   25.1840   40.1640 C   0  0  0  0  0  0  0  0  0  0  0  0
   37.3270   24.8530   41.5240 C   0  0  0  0  0  0  0  0  0  0  0  0
   37.1850   25.8180   42.5130 C   0  0  0  0  0  0  0  0  0  0  0  0
   37.5370   23.4630   41.6150 O   0  0  0  0  0  0  0  0  0  0  0  0
   37.8870   23.0220   40.3510 C   0  0  0  0  0  0  0  0  0  0  0  0
   37.4430   24.0100   39.4500 O   0  0  0  0  0  0  0  0  0  0  0  0
   36.8710   27.8910   42.9320 H   0  0  0  0  0  0  0  0  0  0  0  0
   37.0200   26.8110   38.7740 H   0  0  0  0  0  0  0  0  0  0  0  0
   37.2380   25.5090   43.5470 H   0  0  0  0  0  0  0  0  0  0  0  0
   37.2840   22.1040   40.1200 H   0  0  0  0  0  0  0  0  0  0  0  0
   38.9370   22.7330   40.2100 H   0  0  0  0  0  0  0  0  0  0  0  0
   35.7080   28.1010   35.5750 O   0  0  0  0  0  0  0  0  0  0  0  0
   34.3050   28.0000   35.5380 C   0  0  0  0  0  0  0  0  0  0  0  0
   33.8480   27.5520   34.3210 F   0  0  0  0  0  0  0  0  0  0  0  0
   33.9400   27.1220   36.5730 F   0  0  0  0  0  0  0  0  0  0  0  0
   33.7770   29.2580   35.7720 F   0  0  0  0  0  0  0  0  0  0  0  0
  1 32  1  0  0  0  0
  2  1  1  0  0  0  0
  2  7  1  0  0  0  0
  3  2  2  0  0  0  0
  4  5  2  0  0  0  0
  4  3  1  0  0  0  0
  5  6  1  0  0  0  0
  6  1  2  0  0  0  0
  7 14  2  0  0  0  0
  7  8  1  0  0  0  0
  8 10  2  0  0  0  0
  9  8  1  0  0  0  0
 10 12  1  0  0  0  0
 10 11  1  0  0  0  0
 12 27  1  0  0  0  0
 13 16  1  0  0  0  0
 13 12  2  0  0  0  0
 14 13  1  0  0  0  0
 15 14  1  0  0  0  0
 16 17  1  0  0  0  0
 17 18  2  0  0  0  0
 17 26  1  0  0  0  0
 18 20  1  0  0  0  0
 19 18  1  0  0  0  0
 20 21  1  0  0  0  0
 20 22  2  0  0  0  0
 22 23  1  0  0  0  0
 24 22  1  0  0  0  0
 24 25  1  0  0  0  0
 26 24  2  0  0  0  0
 27 26  1  0  0  0  0
 27 28  1  0  0  0  0
 29 30  1  0  0  0  0
 29  3  1  0  0  0  0
 31 29  1  0  0  0  0
 32 34  1  0  0  0  0
 33 38  1  0  0  0  0
 33 42  1  0  0  0  0
 34 33  2  0  0  0  0
 35 36  2  0  0  0  0
 35 34  1  0  0  0  0
 36 37  1  0  0  0  0
 37 39  1  0  0  0  0
 37 38  2  0  0  0  0
 38 44  1  0  0  0  0
 40 39  1  0  0  0  0
 41 36  1  0  0  0  0
 41 40  1  0  0  0  0
 43 35  1  0  0  0  0
 45 40  1  0  0  0  0
 46 40  1  0  0  0  0
 47  5  1  0  0  0  0
 48 47  1  0  0  0  0
 48 51  1  0  0  0  0
 48 50  1  0  0  0  0
 49 48  1  0  0  0  0
M  END
>  <minimizedAffinity>
-7.38043928

$$$$

 OpenBabel03242515443D

 51 56  0  0  0  0  0  0  0  0999 V2000
   37.3370   30.8360   39.9780 C   0  0  0  0  0  0  0  0  0  0  0  0
   36.9590   30.3100   38.7920 C   0  0  0  0  0  0  0  0  0  0  0  0
   37.6010   30.8320   37.6430 C   0  0  0  0  0  0  0  0  0  0  0  0
   38.5340   31.8080   37.7730 N   0  0  0  0  0  0  0  0  0  0  0  0
   38.8690   32.2970   38.9750 C   0  0  0  0  0  0  0  0  0  0  0  0
   38.2540   31.7840   40.0160 N   0  0  0  0  0  0  0  0  0  0  0  0
   36.0300   29.3270   38.2620 C   0  0  0  0  0  0  0  0  0  0  0  0
   34.8870   29.3180   37.5030 C   0  0  0  0  0  0  0  0  0  0  0  0
   34.6480   30.3670   37.2650 H   0  0  0  0  0  0  0  0  0  0  0  0
   34.2300   28.1680   37.1590 C   0  0  0  0  0  0  0  0  0  0  0  0
   33.3390   28.3830   36.5500 H   0  0  0  0  0  0  0  0  0  0  0  0
   34.6720   26.9240   37.5520 C   0  0  0  0  0  0  0  0  0  0  0  0
   35.8100   26.8620   38.3140 C   0  0  0  0  0  0  0  0  0  0  0  0
   36.4340   28.0240   38.6350 C   0  0  0  0  0  0  0  0  0  0  0  0
   37.3330   27.8280   39.2490 H   0  0  0  0  0  0  0  0  0  0  0  0
   36.3720   25.2590   38.8160 S   0  0  0  0  0  0  0  0  0  0  0  0
   35.2270   24.0680   38.1500 C   0  0  0  0  0  0  0  0  0  0  0  0
   35.5070   22.7780   38.4400 C   0  0  0  0  0  0  0  0  0  0  0  0
   36.3530   22.4510   39.0280 H   0  0  0  0  0  0  0  0  0  0  0  0
   34.6640   21.7830   37.9600 C   0  0  0  0  0  0  0  0  0  0  0  0
   34.7900   20.7240   38.1280 H   0  0  0  0  0  0  0  0  0  0  0  0
   33.5740   22.1510   37.2060 C   0  0  0  0  0  0  0  0  0  0  0  0
   32.8980   21.4060   36.8170 H   0  0  0  0  0  0  0  0  0  0  0  0
   33.3670   23.4930   36.9600 C   0  0  0  0  0  0  0  0  0  0  0  0
   32.4780   23.7200   36.3520 H   0  0  0  0  0  0  0  0  0  0  0  0
   34.1640   24.5260   37.4080 C   0  0  0  0  0  0  0  0  0  0  0  0
   33.8700   25.8730   37.1040 N   0  0  0  0  0  0  0  0  0  0  0  0
   33.0120   25.9970   36.5240 H   0  0  0  0  0  0  0  0  0  0  0  0
   37.3310   30.3340   36.3270 N   0  0  0  0  0  0  0  0  0  0  0  0
   36.3160   30.4000   36.0540 H   0  0  0  0  0  0  0  0  0  0  0  0
   38.0760   29.9430   35.7040 H   0  0  0  0  0  0  0  0  0  0  0  0
   36.4900   30.1280   41.4110 S   0  0  0  0  0  0  0  0  0  0  0  0
   36.7680   27.6580   42.3710 C   0  0  0  0  0  0  0  0  0  0  0  0
   37.4690   28.8600   42.1700 C   0  0  0  0  0  0  0  0  0  0  0  0
   38.8010   28.9870   42.5160 C   0  0  0  0  0  0  0  0  0  0  0  0
   39.4810   27.9250   43.0690 C   0  0  0  0  0  0  0  0  0  0  0  0
   38.8040   26.7170   43.2780 C   0  0  0  0  0  0  0  0  0  0  0  0
   37.4640   26.5670   42.9400 C   0  0  0  0  0  0  0  0  0  0  0  0
   39.7200   25.8090   43.8450 O   0  0  0  0  0  0  0  0  0  0  0  0
   40.8280   26.5410   44.2340 C   0  0  0  0  0  0  0  0  0  0  0  0
   40.7840   27.7450   43.5040 O   0  0  0  0  0  0  0  0  0  0  0  0
   35.7290   27.5090   42.1200 H   0  0  0  0  0  0  0  0  0  0  0  0
   39.2690   29.9400   42.3340 H   0  0  0  0  0  0  0  0  0  0  0  0
   36.9900   25.6140   43.1240 H   0  0  0  0  0  0  0  0  0  0  0  0
   41.7470   26.0010   43.8790 H   0  0  0  0  0  0  0  0  0  0  0  0
   40.9640   26.6830   45.3140 H   0  0  0  0  0  0  0  0  0  0  0  0
   39.7940   33.2870   39.2160 O   0  0  0  0  0  0  0  0  0  0  0  0
   39.3620   34.4410   39.8950 C   0  0  0  0  0  0  0  0  0  0  0  0
   39.3360   34.2630   41.2590 F   0  0  0  0  0  0  0  0  0  0  0  0
   40.2460   35.4730   39.5350 F   0  0  0  0  0  0  0  0  0  0  0  0
   38.0810   34.7400   39.4650 F   0  0  0  0  0  0  0  0  0  0  0  0
  1  6  1  0  0  0  0
  1 32  1  0  0  0  0
  2  1  2  0  0  0  0
  3  4  2  0  0  0  0
  3  2  1  0  0  0  0
  4  5  1  0  0  0  0
  5 47  1  0  0  0  0
  5  6  2  0  0  0  0
  7 14  1  0  0  0  0
  7  2  1  0  0  0  0
  8  7  2  0  0  0  0
  9  8  1  0  0  0  0
 10  8  1  0  0  0  0
 10 12  2  0  0  0  0
 11 10  1  0  0  0  0
 12 13  1  0  0  0  0
 13 14  2  0  0  0  0
 13 16  1  0  0  0  0
 14 15  1  0  0  0  0
 17 18  1  0  0  0  0
 17 16  1  0  0  0  0
 18 19  1  0  0  0  0
 20 21  1  0  0  0  0
 20 18  2  0  0  0  0
 22 20  1  0  0  0  0
 23 22  1  0  0  0  0
 24 22  2  0  0  0  0
 24 26  1  0  0  0  0
 25 24  1  0  0  0  0
 26 17  2  0  0  0  0
 27 26  1  0  0  0  0
 27 12  1  0  0  0  0
 28 27  1  0  0  0  0
 29  3  1  0  0  0  0
 30 29  1  0  0  0  0
 31 29  1  0  0  0  0
 32 34  1  0  0  0  0
 33 38  1  0  0  0  0
 34 33  2  0  0  0  0
 34 35  1  0  0  0  0
 35 36  2  0  0  0  0
 36 37  1  0  0  0  0
 36 41  1  0  0  0  0
 37 39  1  0  0  0  0
 38 44  1  0  0  0  0
 38 37  2  0  0  0  0
 39 40  1  0  0  0  0
 40 46  1  0  0  0  0
 41 40  1  0  0  0  0
 42 33  1  0  0  0  0
 43 35  1  0  0  0  0
 45 40  1  0  0  0  0
 47 48  1  0  0  0  0
 48 49  1  0  0  0  0
 50 48  1  0  0  0  0
 51 48  1  0  0  0  0
M  END
>  <minimizedAffinity>
-7.27272272

$$$$

 OpenBabel03242515443D

 51 56  0  0  0  0  0  0  0  0999 V2000
   36.9470   25.9340   40.8540 C   0  0  0  0  0  0  0  0  0  0  0  0
   36.6170   27.0400   40.1500 C   0  0  0  0  0  0  0  0  0  0  0  0
   36.1890   26.8280   38.8180 C   0  0  0  0  0  0  0  0  0  0  0  0
   36.1310   25.5690   38.3160 N   0  0  0  0  0  0  0  0  0  0  0  0
   36.4740   24.5060   39.0580 C   0  0  0  0  0  0  0  0  0  0  0  0
   36.8620   24.7440   40.2900 N   0  0  0  0  0  0  0  0  0  0  0  0
   36.5720   28.4820   40.3120 C   0  0  0  0  0  0  0  0  0  0  0  0
   35.6630   29.4280   40.7180 C   0  0  0  0  0  0  0  0  0  0  0  0
   34.7320   28.8970   40.9690 H   0  0  0  0  0  0  0  0  0  0  0  0
   35.9520   30.7650   40.7640 C   0  0  0  0  0  0  0  0  0  0  0  0
   35.0880   31.3490   41.1160 H   0  0  0  0  0  0  0  0  0  0  0  0
   37.1850   31.2640   40.4040 C   0  0  0  0  0  0  0  0  0  0  0  0
   38.1380   30.3710   39.9890 C   0  0  0  0  0  0  0  0  0  0  0  0
   37.8160   29.0530   39.9560 C   0  0  0  0  0  0  0  0  0  0  0  0
   38.6730   28.4490   39.6040 H   0  0  0  0  0  0  0  0  0  0  0  0
   39.7210   31.0190   39.5290 S   0  0  0  0  0  0  0  0  0  0  0  0
   39.6470   32.7870   39.7420 C   0  0  0  0  0  0  0  0  0  0  0  0
   40.7840   33.4500   39.4320 C   0  0  0  0  0  0  0  0  0  0  0  0
   41.6900   32.9810   39.0790 H   0  0  0  0  0  0  0  0  0  0  0  0
   40.8130   34.8320   39.5700 C   0  0  0  0  0  0  0  0  0  0  0  0
   41.6630   35.4630   39.3540 H   0  0  0  0  0  0  0  0  0  0  0  0
   39.6820   35.4730   40.0180 C   0  0  0  0  0  0  0  0  0  0  0  0
   39.6680   36.5460   40.1370 H   0  0  0  0  0  0  0  0  0  0  0  0
   38.5680   34.7140   40.3110 C   0  0  0  0  0  0  0  0  0  0  0  0
   37.6970   35.2880   40.6640 H   0  0  0  0  0  0  0  0  0  0  0  0
   38.4750   33.3430   40.1940 C   0  0  0  0  0  0  0  0  0  0  0  0
   37.2870   32.6520   40.5180 N   0  0  0  0  0  0  0  0  0  0  0  0
   36.5130   33.2710   40.8440 H   0  0  0  0  0  0  0  0  0  0  0  0
   35.7660   27.9060   37.9740 N   0  0  0  0  0  0  0  0  0  0  0  0
   36.4970   28.6510   37.8470 H   0  0  0  0  0  0  0  0  0  0  0  0
   34.8170   27.9400   37.5300 H   0  0  0  0  0  0  0  0  0  0  0  0
   37.4810   26.2620   42.5510 S   0  0  0  0  0  0  0  0  0  0  0  0
   39.8930   26.2040   41.4200 C   0  0  0  0  0  0  0  0  0  0  0  0
   39.2500   26.3080   42.6660 C   0  0  0  0  0  0  0  0  0  0  0  0
   39.9640   26.4640   43.8380 C   0  0  0  0  0  0  0  0  0  0  0  0
   41.3390   26.5240   43.8130 C   0  0  0  0  0  0  0  0  0  0  0  0
   42.0030   26.4220   42.5830 C   0  0  0  0  0  0  0  0  0  0  0  0
   41.3060   26.2640   41.3920 C   0  0  0  0  0  0  0  0  0  0  0  0
   43.3860   26.5150   42.8380 O   0  0  0  0  0  0  0  0  0  0  0  0
   43.5560   26.3800   44.2050 C   0  0  0  0  0  0  0  0  0  0  0  0
   42.3090   26.6740   44.7910 O   0  0  0  0  0  0  0  0  0  0  0  0
   39.3820   26.0800   40.4780 H   0  0  0  0  0  0  0  0  0  0  0  0
   39.4010   26.5330   44.7530 H   0  0  0  0  0  0  0  0  0  0  0  0
   41.8670   26.1910   40.4720 H   0  0  0  0  0  0  0  0  0  0  0  0
   44.2550   27.1870   44.5520 H   0  0  0  0  0  0  0  0  0  0  0  0
   43.9960   25.4350   44.5500 H   0  0  0  0  0  0  0  0  0  0  0  0
   36.4570   23.1940   38.6450 O   0  0  0  0  0  0  0  0  0  0  0  0
   37.6220   22.6760   38.0480 C   0  0  0  0  0  0  0  0  0  0  0  0
   38.1340   23.5210   37.0910 F   0  0  0  0  0  0  0  0  0  0  0  0
   38.5450   22.4650   39.0860 F   0  0  0  0  0  0  0  0  0  0  0  0
   37.2980   21.4730   37.4460 F   0  0  0  0  0  0  0  0  0  0  0  0
  1 32  1  0  0  0  0
  2  7  1  0  0  0  0
  2  1  2  0  0  0  0
  3  2  1  0  0  0  0
  4  3  2  0  0  0  0
  4  5  1  0  0  0  0
  5  6  2  0  0  0  0
  6  1  1  0  0  0  0
  7  8  1  0  0  0  0
  8 10  2  0  0  0  0
  8  9  1  0  0  0  0
 10 11  1  0  0  0  0
 12 27  1  0  0  0  0
 12 10  1  0  0  0  0
 13 12  2  0  0  0  0
 14 13  1  0  0  0  0
 14  7  2  0  0  0  0
 15 14  1  0  0  0  0
 16 17  1  0  0  0  0
 16 13  1  0  0  0  0
 17 26  1  0  0  0  0
 18 20  1  0  0  0  0
 18 17  2  0  0  0  0
 19 18  1  0  0  0  0
 20 22  2  0  0  0  0
 21 20  1  0  0  0  0
 22 23  1  0  0  0  0
 22 24  1  0  0  0  0
 24 25  1  0  0  0  0
 26 24  2  0  0  0  0
 26 27  1  0  0  0  0
 27 28  1  0  0  0  0
 29  3  1  0  0  0  0
 30 29  1  0  0  0  0
 31 29  1  0  0  0  0
 32 34  1  0  0  0  0
 33 34  1  0  0  0  0
 34 35  2  0  0  0  0
 35 43  1  0  0  0  0
 36 35  1  0  0  0  0
 36 41  1  0  0  0  0
 37 39  1  0  0  0  0
 37 36  2  0  0  0  0
 38 33  2  0  0  0  0
 38 37  1  0  0  0  0
 39 40  1  0  0  0  0
 40 46  1  0  0  0  0
 40 45  1  0  0  0  0
 40 41  1  0  0  0  0
 42 33  1  0  0  0  0
 44 38  1  0  0  0  0
 47  5  1  0  0  0  0
 48 47  1  0  0  0  0
 48 50  1  0  0  0  0
 49 48  1  0  0  0  0
 51 48  1  0  0  0  0
M  END
>  <minimizedAffinity>
-7.17986679

$$$$

 OpenBabel03242515443D

 51 56  0  0  0  0  0  0  0  0999 V2000
   36.4050   30.4480   39.6180 C   0  0  0  0  0  0  0  0  0  0  0  0
   36.6450   30.1480   38.3220 C   0  0  0  0  0  0  0  0  0  0  0  0
   37.2540   31.1640   37.5480 C   0  0  0  0  0  0  0  0  0  0  0  0
   37.5590   32.3580   38.1150 N   0  0  0  0  0  0  0  0  0  0  0  0
   37.2950   32.6040   39.4060 C   0  0  0  0  0  0  0  0  0  0  0  0
   36.7330   31.6350   40.0910 N   0  0  0  0  0  0  0  0  0  0  0  0
   36.4540   29.0550   37.3850 C   0  0  0  0  0  0  0  0  0  0  0  0
   35.5460   28.6920   36.4210 C   0  0  0  0  0  0  0  0  0  0  0  0
   34.7670   29.4710   36.4000 H   0  0  0  0  0  0  0  0  0  0  0  0
   35.6670   27.5500   35.6770 C   0  0  0  0  0  0  0  0  0  0  0  0
   34.8350   27.4490   34.9630 H   0  0  0  0  0  0  0  0  0  0  0  0
   36.7170   26.6740   35.8410 C   0  0  0  0  0  0  0  0  0  0  0  0
   37.6590   26.9770   36.7880 C   0  0  0  0  0  0  0  0  0  0  0  0
   37.5070   28.1180   37.5070 C   0  0  0  0  0  0  0  0  0  0  0  0
   38.3340   28.2380   38.2310 H   0  0  0  0  0  0  0  0  0  0  0  0
   39.0070   25.8460   36.9930 S   0  0  0  0  0  0  0  0  0  0  0  0
   38.7600   24.5180   35.8300 C   0  0  0  0  0  0  0  0  0  0  0  0
   39.7070   23.5540   35.8510 C   0  0  0  0  0  0  0  0  0  0  0  0
   40.5650   23.5500   36.5070 H   0  0  0  0  0  0  0  0  0  0  0  0
   39.5910   22.4810   34.9760 C   0  0  0  0  0  0  0  0  0  0  0  0
   40.2850   21.6560   34.9040 H   0  0  0  0  0  0  0  0  0  0  0  0
   38.5150   22.4420   34.1200 C   0  0  0  0  0  0  0  0  0  0  0  0
   38.3930   21.6240   33.4270 H   0  0  0  0  0  0  0  0  0  0  0  0
   37.5980   23.4710   34.1700 C   0  0  0  0  0  0  0  0  0  0  0  0
   36.7610   23.3790   33.4600 H   0  0  0  0  0  0  0  0  0  0  0  0
   37.6560   24.5610   35.0140 C   0  0  0  0  0  0  0  0  0  0  0  0
   36.6650   25.5670   34.9910 N   0  0  0  0  0  0  0  0  0  0  0  0
   35.9110   25.4020   34.2900 H   0  0  0  0  0  0  0  0  0  0  0  0
   37.6080   30.9660   36.1730 N   0  0  0  0  0  0  0  0  0  0  0  0
   36.7920   30.6950   35.5660 H   0  0  0  0  0  0  0  0  0  0  0  0
   38.5850   31.0820   35.8160 H   0  0  0  0  0  0  0  0  0  0  0  0
   35.6310   29.1120   40.5610 S   0  0  0  0  0  0  0  0  0  0  0  0
   37.4340   29.0620   42.5210 C   0  0  0  0  0  0  0  0  0  0  0  0
   36.8260   28.2510   41.5480 C   0  0  0  0  0  0  0  0  0  0  0  0
   37.1350   26.9100   41.4280 C   0  0  0  0  0  0  0  0  0  0  0  0
   38.0550   26.3280   42.2710 C   0  0  0  0  0  0  0  0  0  0  0  0
   38.6740   27.1160   43.2500 C   0  0  0  0  0  0  0  0  0  0  0  0
   38.3800   28.4670   43.3880 C   0  0  0  0  0  0  0  0  0  0  0  0
   39.5570   26.2850   43.9680 O   0  0  0  0  0  0  0  0  0  0  0  0
   39.6790   25.1080   43.2510 C   0  0  0  0  0  0  0  0  0  0  0  0
   38.5580   25.0440   42.3990 O   0  0  0  0  0  0  0  0  0  0  0  0
   37.2290   30.1130   42.6550 H   0  0  0  0  0  0  0  0  0  0  0  0
   36.6300   26.3550   40.6550 H   0  0  0  0  0  0  0  0  0  0  0  0
   38.8870   29.0280   44.1600 H   0  0  0  0  0  0  0  0  0  0  0  0
   39.5690   24.2490   43.9650 H   0  0  0  0  0  0  0  0  0  0  0  0
   40.6360   24.9480   42.7370 H   0  0  0  0  0  0  0  0  0  0  0  0
   37.5570   33.7780   40.0750 O   0  0  0  0  0  0  0  0  0  0  0  0
   38.8580   33.9730   40.5760 C   0  0  0  0  0  0  0  0  0  0  0  0
   39.2880   32.9100   41.3340 F   0  0  0  0  0  0  0  0  0  0  0  0
   39.6910   34.1740   39.4620 F   0  0  0  0  0  0  0  0  0  0  0  0
   38.8460   35.1060   41.3720 F   0  0  0  0  0  0  0  0  0  0  0  0
  1  6  1  0  0  0  0
  1 32  1  0  0  0  0
  2  1  2  0  0  0  0
  3  4  2  0  0  0  0
  3  2  1  0  0  0  0
  4  5  1  0  0  0  0
  5 47  1  0  0  0  0
  5  6  2  0  0  0  0
  7 14  1  0  0  0  0
  7  2  1  0  0  0  0
  8  7  2  0  0  0  0
  9  8  1  0  0  0  0
 10 12  2  0  0  0  0
 10  8  1  0  0  0  0
 11 10  1  0  0  0  0
 12 13  1  0  0  0  0
 13 16  1  0  0  0  0
 13 14  2  0  0  0  0
 14 15  1  0  0  0  0
 17 18  1  0  0  0  0
 17 16  1  0  0  0  0
 18 19  1  0  0  0  0
 20 18  2  0  0  0  0
 21 20  1  0  0  0  0
 22 24  2  0  0  0  0
 22 20  1  0  0  0  0
 23 22  1  0  0  0  0
 24 26  1  0  0  0  0
 25 24  1  0  0  0  0
 26 17  2  0  0  0  0
 27 26  1  0  0  0  0
 27 12  1  0  0  0  0
 28 27  1  0  0  0  0
 29  3  1  0  0  0  0
 30 29  1  0  0  0  0
 31 29  1  0  0  0  0
 32 34  1  0  0  0  0
 33 42  1  0  0  0  0
 33 38  1  0  0  0  0
 34 33  2  0  0  0  0
 35 34  1  0  0  0  0
 35 36  2  0  0  0  0
 36 41  1  0  0  0  0
 36 37  1  0  0  0  0
 37 38  2  0  0  0  0
 37 39  1  0  0  0  0
 38 44  1  0  0  0  0
 40 45  1  0  0  0  0
 40 39  1  0  0  0  0
 41 40  1  0  0  0  0
 43 35  1  0  0  0  0
 46 40  1  0  0  0  0
 47 48  1  0  0  0  0
 48 49  1  0  0  0  0
 48 51  1  0  0  0  0
 50 48  1  0  0  0  0
M  END
>  <minimizedAffinity>
-7.15357876

$$$$

 OpenBabel03242515443D

 51 56  0  0  0  0  0  0  0  0999 V2000
   36.9720   25.9970   40.8840 C   0  0  0  0  0  0  0  0  0  0  0  0
   36.6220   27.1180   40.2160 C   0  0  0  0  0  0  0  0  0  0  0  0
   36.0970   26.9330   38.9150 C   0  0  0  0  0  0  0  0  0  0  0  0
   35.9740   25.6830   38.4050 N   0  0  0  0  0  0  0  0  0  0  0  0
   36.3410   24.6030   39.1100 C   0  0  0  0  0  0  0  0  0  0  0  0
   36.8190   24.8160   40.3140 N   0  0  0  0  0  0  0  0  0  0  0  0
   36.6230   28.5600   40.3960 C   0  0  0  0  0  0  0  0  0  0  0  0
   35.7650   29.5230   40.8640 C   0  0  0  0  0  0  0  0  0  0  0  0
   34.8360   29.0130   41.1640 H   0  0  0  0  0  0  0  0  0  0  0  0
   36.0900   30.8520   40.9080 C   0  0  0  0  0  0  0  0  0  0  0  0
   35.2630   31.4530   41.3170 H   0  0  0  0  0  0  0  0  0  0  0  0
   37.3120   31.3230   40.4830 C   0  0  0  0  0  0  0  0  0  0  0  0
   38.2160   30.4120   40.0020 C   0  0  0  0  0  0  0  0  0  0  0  0
   37.8580   29.1030   39.9740 C   0  0  0  0  0  0  0  0  0  0  0  0
   38.6770   28.4820   39.5660 H   0  0  0  0  0  0  0  0  0  0  0  0
   39.7860   31.0260   39.4570 S   0  0  0  0  0  0  0  0  0  0  0  0
   39.7710   32.7920   39.6930 C   0  0  0  0  0  0  0  0  0  0  0  0
   40.9040   33.4300   39.3250 C   0  0  0  0  0  0  0  0  0  0  0  0
   41.7760   32.9430   38.9140 H   0  0  0  0  0  0  0  0  0  0  0  0
   40.9770   34.8090   39.4760 C   0  0  0  0  0  0  0  0  0  0  0  0
   41.8290   35.4210   39.2170 H   0  0  0  0  0  0  0  0  0  0  0  0
   39.8910   35.4730   39.9960 C   0  0  0  0  0  0  0  0  0  0  0  0
   39.9120   36.5440   40.1270 H   0  0  0  0  0  0  0  0  0  0  0  0
   38.7760   34.7390   40.3450 C   0  0  0  0  0  0  0  0  0  0  0  0
   37.9420   35.3300   40.7550 H   0  0  0  0  0  0  0  0  0  0  0  0
   38.6410   33.3720   40.2190 C   0  0  0  0  0  0  0  0  0  0  0  0
   37.4570   32.7070   40.6050 N   0  0  0  0  0  0  0  0  0  0  0  0
   36.7200   33.3410   40.9820 H   0  0  0  0  0  0  0  0  0  0  0  0
   35.6430   28.0310   38.1140 N   0  0  0  0  0  0  0  0  0  0  0  0
   36.3820   28.7600   37.9440 H   0  0  0  0  0  0  0  0  0  0  0  0
   34.6670   28.0940   37.7370 H   0  0  0  0  0  0  0  0  0  0  0  0
   37.6310   26.2910   42.5430 S   0  0  0  0  0  0  0  0  0  0  0  0
   40.2210   26.1150   41.9430 C   0  0  0  0  0  0  0  0  0  0  0  0
   39.2570   26.9930   42.4690 C   0  0  0  0  0  0  0  0  0  0  0  0
   39.5830   28.2810   42.8480 C   0  0  0  0  0  0  0  0  0  0  0  0
   40.8730   28.7410   42.7150 C   0  0  0  0  0  0  0  0  0  0  0  0
   41.8510   27.8840   42.1930 C   0  0  0  0  0  0  0  0  0  0  0  0
   41.5470   26.5850   41.8070 C   0  0  0  0  0  0  0  0  0  0  0  0
   43.0670   28.5960   42.1630 O   0  0  0  0  0  0  0  0  0  0  0  0
   42.8850   29.7430   42.9160 C   0  0  0  0  0  0  0  0  0  0  0  0
   41.4930   29.9480   42.9940 O   0  0  0  0  0  0  0  0  0  0  0  0
   40.0180   25.1010   41.6340 H   0  0  0  0  0  0  0  0  0  0  0  0
   38.7910   28.8930   43.2450 H   0  0  0  0  0  0  0  0  0  0  0  0
   42.3400   25.9660   41.4110 H   0  0  0  0  0  0  0  0  0  0  0  0
   43.2910   30.6130   42.3340 H   0  0  0  0  0  0  0  0  0  0  0  0
   43.3920   29.7720   43.8890 H   0  0  0  0  0  0  0  0  0  0  0  0
   36.2630   23.2960   38.6860 O   0  0  0  0  0  0  0  0  0  0  0  0
   35.0350   22.6260   38.8400 C   0  0  0  0  0  0  0  0  0  0  0  0
   34.3690   23.0160   39.9780 F   0  0  0  0  0  0  0  0  0  0  0  0
   34.2790   22.9050   37.6880 F   0  0  0  0  0  0  0  0  0  0  0  0
   35.2920   21.2690   38.9220 F   0  0  0  0  0  0  0  0  0  0  0  0
  1 32  1  0  0  0  0
  2  7  1  0  0  0  0
  2  1  2  0  0  0  0
  3  2  1  0  0  0  0
  4  3  2  0  0  0  0
  4  5  1  0  0  0  0
  5  6  2  0  0  0  0
  6  1  1  0  0  0  0
  7  8  1  0  0  0  0
  8 10  2  0  0  0  0
  8  9  1  0  0  0  0
 10 11  1  0  0  0  0
 12 27  1  0  0  0  0
 12 10  1  0  0  0  0
 13 12  2  0  0  0  0
 14 13  1  0  0  0  0
 14  7  2  0  0  0  0
 15 14  1  0  0  0  0
 16 17  1  0  0  0  0
 16 13  1  0  0  0  0
 17 26  1  0  0  0  0
 18 20  1  0  0  0  0
 18 17  2  0  0  0  0
 19 18  1  0  0  0  0
 20 22  2  0  0  0  0
 21 20  1  0  0  0  0
 22 23  1  0  0  0  0
 22 24  1  0  0  0  0
 24 25  1  0  0  0  0
 26 24  2  0  0  0  0
 26 27  1  0  0  0  0
 27 28  1  0  0  0  0
 29  3  1  0  0  0  0
 30 29  1  0  0  0  0
 31 29  1  0  0  0  0
 33 34  1  0  0  0  0
 34 32  1  0  0  0  0
 34 35  2  0  0  0  0
 35 43  1  0  0  0  0
 36 35  1  0  0  0  0
 36 41  1  0  0  0  0
 37 36  2  0  0  0  0
 38 33  2  0  0  0  0
 38 37  1  0  0  0  0
 39 37  1  0  0  0  0
 39 40  1  0  0  0  0
 40 41  1  0  0  0  0
 40 46  1  0  0  0  0
 42 33  1  0  0  0  0
 44 38  1  0  0  0  0
 45 40  1  0  0  0  0
 47 48  1  0  0  0  0
 47  5  1  0  0  0  0
 48 51  1  0  0  0  0
 48 49  1  0  0  0  0
 50 48  1  0  0  0  0
M  END
>  <minimizedAffinity>
-7.10600042

$$$$

 OpenBabel03242515443D

 51 56  0  0  0  0  0  0  0  0999 V2000
   37.1830   30.3900   40.0200 C   0  0  0  0  0  0  0  0  0  0  0  0
   36.9240   29.8930   38.7900 C   0  0  0  0  0  0  0  0  0  0  0  0
   37.5170   30.5750   37.7020 C   0  0  0  0  0  0  0  0  0  0  0  0
   38.2910   31.6660   37.9260 N   0  0  0  0  0  0  0  0  0  0  0  0
   38.5120   32.1210   39.1680 C   0  0  0  0  0  0  0  0  0  0  0  0
   37.9470   31.4580   40.1510 N   0  0  0  0  0  0  0  0  0  0  0  0
   36.1670   28.8210   38.1670 C   0  0  0  0  0  0  0  0  0  0  0  0
   36.3480   27.4930   37.8690 C   0  0  0  0  0  0  0  0  0  0  0  0
   37.3590   27.2190   38.2090 H   0  0  0  0  0  0  0  0  0  0  0  0
   35.3900   26.7310   37.2570 C   0  0  0  0  0  0  0  0  0  0  0  0
   35.7360   25.6960   37.1100 H   0  0  0  0  0  0  0  0  0  0  0  0
   34.1650   27.2440   36.8910 C   0  0  0  0  0  0  0  0  0  0  0  0
   33.9210   28.5660   37.1590 C   0  0  0  0  0  0  0  0  0  0  0  0
   34.8940   29.2900   37.7680 C   0  0  0  0  0  0  0  0  0  0  0  0
   34.5650   30.3350   37.9240 H   0  0  0  0  0  0  0  0  0  0  0  0
   32.3440   29.2180   36.6870 S   0  0  0  0  0  0  0  0  0  0  0  0
   31.4290   27.8880   35.9330 C   0  0  0  0  0  0  0  0  0  0  0  0
   30.1880   28.2150   35.5080 C   0  0  0  0  0  0  0  0  0  0  0  0
   29.7460   29.1960   35.6000 H   0  0  0  0  0  0  0  0  0  0  0  0
   29.4050   27.2360   34.9080 C   0  0  0  0  0  0  0  0  0  0  0  0
   28.4030   27.3810   34.5320 H   0  0  0  0  0  0  0  0  0  0  0  0
   29.9250   25.9700   34.7690 C   0  0  0  0  0  0  0  0  0  0  0  0
   29.3460   25.1850   34.3080 H   0  0  0  0  0  0  0  0  0  0  0  0
   31.2020   25.7290   35.2330 C   0  0  0  0  0  0  0  0  0  0  0  0
   31.5580   24.6970   35.0910 H   0  0  0  0  0  0  0  0  0  0  0  0
   32.0280   26.6560   35.8360 C   0  0  0  0  0  0  0  0  0  0  0  0
   33.3240   26.3130   36.2790 N   0  0  0  0  0  0  0  0  0  0  0  0
   33.5800   25.3170   36.1060 H   0  0  0  0  0  0  0  0  0  0  0  0
   37.3650   30.1290   36.3490 N   0  0  0  0  0  0  0  0  0  0  0  0
   36.3610   30.0640   36.0390 H   0  0  0  0  0  0  0  0  0  0  0  0
   38.1790   29.8920   35.7340 H   0  0  0  0  0  0  0  0  0  0  0  0
   36.4040   29.4760   41.3730 S   0  0  0  0  0  0  0  0  0  0  0  0
   38.5710   28.7830   42.7600 C   0  0  0  0  0  0  0  0  0  0  0  0
   37.5000   28.2440   42.0260 C   0  0  0  0  0  0  0  0  0  0  0  0
   37.3370   26.8810   41.8790 C   0  0  0  0  0  0  0  0  0  0  0  0
   38.2280   26.0060   42.4580 C   0  0  0  0  0  0  0  0  0  0  0  0
   39.3030   26.5190   43.1960 C   0  0  0  0  0  0  0  0  0  0  0  0
   39.4890   27.8860   43.3550 C   0  0  0  0  0  0  0  0  0  0  0  0
   40.0500   25.4240   43.6740 O   0  0  0  0  0  0  0  0  0  0  0  0
   39.6030   24.3010   43.0000 C   0  0  0  0  0  0  0  0  0  0  0  0
   38.3290   24.6250   42.4930 O   0  0  0  0  0  0  0  0  0  0  0  0
   38.7430   29.8390   42.9040 H   0  0  0  0  0  0  0  0  0  0  0  0
   36.4940   26.5450   41.2980 H   0  0  0  0  0  0  0  0  0  0  0  0
   40.3340   28.2280   43.9340 H   0  0  0  0  0  0  0  0  0  0  0  0
   39.4360   23.4840   43.7500 H   0  0  0  0  0  0  0  0  0  0  0  0
   40.2850   23.8820   42.2480 H   0  0  0  0  0  0  0  0  0  0  0  0
   39.2730   33.2170   39.5040 O   0  0  0  0  0  0  0  0  0  0  0  0
   38.6140   34.3350   40.0460 C   0  0  0  0  0  0  0  0  0  0  0  0
   37.3070   34.4220   39.6270 F   0  0  0  0  0  0  0  0  0  0  0  0
   38.6910   34.2080   41.4440 F   0  0  0  0  0  0  0  0  0  0  0  0
   39.2860   35.4730   39.6350 F   0  0  0  0  0  0  0  0  0  0  0  0
  1  6  1  0  0  0  0
  1 32  1  0  0  0  0
  2  1  2  0  0  0  0
  3  4  2  0  0  0  0
  3  2  1  0  0  0  0
  4  5  1  0  0  0  0
  5 47  1  0  0  0  0
  5  6  2  0  0  0  0
  7  2  1  0  0  0  0
  8  7  1  0  0  0  0
  8  9  1  0  0  0  0
 10  8  2  0  0  0  0
 11 10  1  0  0  0  0
 12 13  2  0  0  0  0
 12 10  1  0  0  0  0
 13 14  1  0  0  0  0
 14 15  1  0  0  0  0
 14  7  2  0  0  0  0
 16 13  1  0  0  0  0
 17 16  1  0  0  0  0
 18 19  1  0  0  0  0
 18 17  2  0  0  0  0
 20 18  1  0  0  0  0
 21 20  1  0  0  0  0
 22 20  2  0  0  0  0
 22 24  1  0  0  0  0
 23 22  1  0  0  0  0
 24 26  2  0  0  0  0
 25 24  1  0  0  0  0
 26 17  1  0  0  0  0
 26 27  1  0  0  0  0
 27 12  1  0  0  0  0
 28 27  1  0  0  0  0
 29  3  1  0  0  0  0
 30 29  1  0  0  0  0
 31 29  1  0  0  0  0
 32 34  1  0  0  0  0
 33 42  1  0  0  0  0
 33 38  1  0  0  0  0
 34 33  2  0  0  0  0
 35 34  1  0  0  0  0
 35 36  2  0  0  0  0
 36 41  1  0  0  0  0
 36 37  1  0  0  0  0
 37 38  2  0  0  0  0
 37 39  1  0  0  0  0
 38 44  1  0  0  0  0
 40 39  1  0  0  0  0
 40 45  1  0  0  0  0
 41 40  1  0  0  0  0
 43 35  1  0  0  0  0
 46 40  1  0  0  0  0
 47 48  1  0  0  0  0
 48 50  1  0  0  0  0
 49 48  1  0  0  0  0
 51 48  1  0  0  0  0
M  END
>  <minimizedAffinity>
-7.08447933

$$$$

 OpenBabel03242515443D

 51 56  0  0  0  0  0  0  0  0999 V2000
   35.9120   29.5810   38.5420 C   0  0  0  0  0  0  0  0  0  0  0  0
   37.0160   30.3600   38.5640 C   0  0  0  0  0  0  0  0  0  0  0  0
   37.5220   30.7620   37.3050 C   0  0  0  0  0  0  0  0  0  0  0  0
   36.9050   30.3610   36.1660 N   0  0  0  0  0  0  0  0  0  0  0  0
   35.8120   29.5840   36.2020 C   0  0  0  0  0  0  0  0  0  0  0  0
   35.3720   29.2360   37.3890 N   0  0  0  0  0  0  0  0  0  0  0  0
   37.9360   30.9500   39.5210 C   0  0  0  0  0  0  0  0  0  0  0  0
   38.1500   32.1780   40.0960 C   0  0  0  0  0  0  0  0  0  0  0  0
   37.3990   32.8670   39.6790 H   0  0  0  0  0  0  0  0  0  0  0  0
   39.1430   32.4090   41.0090 C   0  0  0  0  0  0  0  0  0  0  0  0
   39.1410   33.4570   41.3450 H   0  0  0  0  0  0  0  0  0  0  0  0
   40.0070   31.4190   41.4210 C   0  0  0  0  0  0  0  0  0  0  0  0
   39.8480   30.1680   40.8830 C   0  0  0  0  0  0  0  0  0  0  0  0
   38.8520   29.9770   39.9810 C   0  0  0  0  0  0  0  0  0  0  0  0
   38.8380   28.9280   39.6310 H   0  0  0  0  0  0  0  0  0  0  0  0
   40.9630   28.9000   41.4180 S   0  0  0  0  0  0  0  0  0  0  0  0
   42.0760   29.6410   42.5960 C   0  0  0  0  0  0  0  0  0  0  0  0
   43.0050   28.8050   43.1110 C   0  0  0  0  0  0  0  0  0  0  0  0
   43.1000   27.7600   42.8550 H   0  0  0  0  0  0  0  0  0  0  0  0
   43.9130   29.3010   44.0380 C   0  0  0  0  0  0  0  0  0  0  0  0
   44.6950   28.7280   44.5150 H   0  0  0  0  0  0  0  0  0  0  0  0
   43.8320   30.6270   44.3960 C   0  0  0  0  0  0  0  0  0  0  0  0
   44.5210   31.0460   45.1120 H   0  0  0  0  0  0  0  0  0  0  0  0
   42.8500   31.4050   43.8170 C   0  0  0  0  0  0  0  0  0  0  0  0
   42.8390   32.4560   44.1460 H   0  0  0  0  0  0  0  0  0  0  0  0
   41.9210   30.9730   42.8930 C   0  0  0  0  0  0  0  0  0  0  0  0
   40.9520   31.8480   42.3560 N   0  0  0  0  0  0  0  0  0  0  0  0
   41.0120   32.8220   42.7210 H   0  0  0  0  0  0  0  0  0  0  0  0
   38.6590   31.6260   37.1820 N   0  0  0  0  0  0  0  0  0  0  0  0
   39.5230   31.2510   37.6500 H   0  0  0  0  0  0  0  0  0  0  0  0
   38.6240   32.5410   36.6730 H   0  0  0  0  0  0  0  0  0  0  0  0
   35.3050   29.1020   40.1780 S   0  0  0  0  0  0  0  0  0  0  0  0
   36.5970   27.9580   42.2080 C   0  0  0  0  0  0  0  0  0  0  0  0
   36.2680   27.7750   40.8530 C   0  0  0  0  0  0  0  0  0  0  0  0
   36.6510   26.6420   40.1630 C   0  0  0  0  0  0  0  0  0  0  0  0
   37.3690   25.6510   40.7930 C   0  0  0  0  0  0  0  0  0  0  0  0
   37.7080   25.8100   42.1430 C   0  0  0  0  0  0  0  0  0  0  0  0
   37.3360   26.9420   42.8570 C   0  0  0  0  0  0  0  0  0  0  0  0
   38.4310   24.6660   42.5370 O   0  0  0  0  0  0  0  0  0  0  0  0
   38.7650   23.9800   41.3820 C   0  0  0  0  0  0  0  0  0  0  0  0
   37.8800   24.4310   40.3830 O   0  0  0  0  0  0  0  0  0  0  0  0
   36.3240   28.8240   42.7910 H   0  0  0  0  0  0  0  0  0  0  0  0
   36.3640   26.5750   39.1260 H   0  0  0  0  0  0  0  0  0  0  0  0
   37.6240   27.0140   43.8960 H   0  0  0  0  0  0  0  0  0  0  0  0
   38.5260   22.8940   41.5370 H   0  0  0  0  0  0  0  0  0  0  0  0
   39.8220   24.0130   41.0860 H   0  0  0  0  0  0  0  0  0  0  0  0
   35.1160   29.1180   35.1100 O   0  0  0  0  0  0  0  0  0  0  0  0
   35.8020   28.3050   34.1890 C   0  0  0  0  0  0  0  0  0  0  0  0
   36.4890   29.0440   33.2550 F   0  0  0  0  0  0  0  0  0  0  0  0
   36.6740   27.4970   34.9390 F   0  0  0  0  0  0  0  0  0  0  0  0
   34.8710   27.5180   33.5330 F   0  0  0  0  0  0  0  0  0  0  0  0
  1  2  1  0  0  0  0
  1 32  1  0  0  0  0
  2  7  1  0  0  0  0
  3  2  2  0  0  0  0
  4  5  2  0  0  0  0
  4  3  1  0  0  0  0
  5  6  1  0  0  0  0
  6  1  2  0  0  0  0
  7 14  2  0  0  0  0
  7  8  1  0  0  0  0
  8 10  2  0  0  0  0
  9  8  1  0  0  0  0
 10 11  1  0  0  0  0
 10 12  1  0  0  0  0
 12 27  1  0  0  0  0
 13 16  1  0  0  0  0
 13 12  2  0  0  0  0
 14 13  1  0  0  0  0
 15 14  1  0  0  0  0
 16 17  1  0  0  0  0
 17 26  2  0  0  0  0
 17 18  1  0  0  0  0
 18 20  2  0  0  0  0
 19 18  1  0  0  0  0
 20 22  1  0  0  0  0
 20 21  1  0  0  0  0
 22 23  1  0  0  0  0
 24 25  1  0  0  0  0
 24 22  2  0  0  0  0
 26 24  1  0  0  0  0
 27 28  1  0  0  0  0
 27 26  1  0  0  0  0
 29  3  1  0  0  0  0
 29 30  1  0  0  0  0
 31 29  1  0  0  0  0
 32 34  1  0  0  0  0
 33 42  1  0  0  0  0
 33 38  1  0  0  0  0
 34 33  2  0  0  0  0
 35 36  2  0  0  0  0
 35 34  1  0  0  0  0
 36 37  1  0  0  0  0
 37 39  1  0  0  0  0
 37 38  2  0  0  0  0
 38 44  1  0  0  0  0
 40 45  1  0  0  0  0
 40 39  1  0  0  0  0
 41 36  1  0  0  0  0
 41 40  1  0  0  0  0
 43 35  1  0  0  0  0
 46 40  1  0  0  0  0
 47  5  1  0  0  0  0
 48 50  1  0  0  0  0
 48 47  1  0  0  0  0
 49 48  1  0  0  0  0
 51 48  1  0  0  0  0
M  END
>  <minimizedAffinity>
-7.00671148

$$$$
