REMARK  Name = 
REMARK  2 active torsions:
REMARK  status: ('A' for Active; 'I' for Inactive)
REMARK    1  A    between atoms: C_1  and  C_7
REMARK    2  A    between atoms: C_3  and  C_13
REMARK                            x       y       z     vdW  Elec       q    Type
REMARK                         _______ _______ _______ _____ _____    ______ ____
ROOT
ATOM      1  C   UNL     1      47.085  32.453  45.088  0.00  0.00    +0.000 A 
ATOM      2  C   UNL     1      48.195  32.281  45.886  0.00  0.00    +0.000 A 
ATOM      3  H   UNL     1      48.991  32.986  45.806  0.00  0.00    +0.000 HD
ATOM      4  C   UNL     1      48.246  31.214  46.760  0.00  0.00    +0.000 A 
ATOM      5  H   UNL     1      49.166  31.158  47.353  0.00  0.00    +0.000 HD
ATOM      6  C   UNL     1      47.241  30.278  46.898  0.00  0.00    +0.000 A 
ATOM      7  C   UNL     1      46.148  30.475  46.089  0.00  0.00    +0.000 A 
ATOM      8  C   UNL     1      46.084  31.516  45.228  0.00  0.00    +0.000 A 
ATOM      9  H   UNL     1      45.182  31.620  44.607  0.00  0.00    +0.000 HD
ATOM     10  S   UNL     1      44.811  29.322  46.200  0.00  0.00    +0.000 S 
ATOM     11  C   UNL     1      45.268  28.115  47.427  0.00  0.00    +0.000 A 
ATOM     12  C   UNL     1      44.406  27.100  47.713  0.00  0.00    +0.000 A 
ATOM     13  H   UNL     1      43.452  27.041  47.189  0.00  0.00    +0.000 HD
ATOM     14  C   UNL     1      44.696  26.133  48.650  0.00  0.00    +0.000 A 
ATOM     15  H   UNL     1      44.050  25.312  48.912  0.00  0.00    +0.000 HD
ATOM     16  C   UNL     1      45.907  26.225  49.301  0.00  0.00    +0.000 A 
ATOM     17  H   UNL     1      46.179  25.489  50.045  0.00  0.00    +0.000 HD
ATOM     18  C   UNL     1      46.750  27.269  48.981  0.00  0.00    +0.000 A 
ATOM     19  H   UNL     1      47.698  27.276  49.542  0.00  0.00    +0.000 HD
ATOM     20  C   UNL     1      46.484  28.249  48.048  0.00  0.00    +0.000 A 
ATOM     21  N   UNL     1      47.449  29.243  47.840  0.00  0.00    +0.000 N 
ATOM     22  H   UNL     1      48.333  29.217  48.389  0.00  0.00    +0.000 HD
ENDROOT
BRANCH   1  25
ATOM     23  C   UNL     1      47.683  34.960  42.347  0.00  0.00    +0.000 A 
ATOM     24  C   UNL     1      47.913  33.918  43.249  0.00  0.00    +0.000 A 
ATOM     25  C   UNL     1      46.902  33.531  44.127  0.00  0.00    +0.000 A 
ATOM     26  N   UNL     1      45.726  34.206  44.050  0.00  0.00    +0.000 NA
ATOM     27  C   UNL     1      45.515  35.203  43.182  0.00  0.00    +0.000 A 
ATOM     28  N   UNL     1      46.485  35.571  42.344  0.00  0.00    +0.000 NA
ATOM     29  H   UNL     1      48.857  33.435  43.255  0.00  0.00    +0.000 HD
ATOM     30  H   UNL     1      44.544  35.681  43.195  0.00  0.00    +0.000 HD
BRANCH  23  31
ATOM     31  C   UNL     1      48.789  35.344  41.426  0.00  0.00    +0.000 C 
ATOM     32  F   UNL     1      48.416  35.240  40.110  0.00  0.00    +0.000 F 
ATOM     33  F   UNL     1      49.216  36.613  41.755  0.00  0.00    +0.000 F 
ATOM     34  F   UNL     1      49.885  34.499  41.668  0.00  0.00    +0.000 F 
ENDBRANCH  23  31
ENDBRANCH   1  25
TORSDOF 2
