REMARK  Name = 
REMARK  3 active torsions:
REMARK  status: ('A' for Active; 'I' for Inactive)
REMARK    1  A    between atoms: C_2  and  C_7
REMARK    2  A    between atoms: C_7  and  C_8
REMARK    3  A    between atoms: C_7  and  C_16
REMARK                            x       y       z     vdW  Elec       q    Type
REMARK                         _______ _______ _______ _____ _____    ______ ____
ROOT
ATOM      1  C   UNL     1      46.058  34.098  40.953  0.00  0.00    +0.000 A 
ATOM      2  C   UNL     1      46.748  33.653  39.843  0.00  0.00    +0.000 A 
ATOM      3  H   UNL     1      47.750  34.013  39.754  0.00  0.00    +0.000 HD
ATOM      4  C   UNL     1      46.154  32.812  38.946  0.00  0.00    +0.000 A 
ATOM      5  H   UNL     1      46.775  32.517  38.105  0.00  0.00    +0.000 HD
ATOM      6  C   UNL     1      44.858  32.369  39.094  0.00  0.00    +0.000 A 
ATOM      7  C   UNL     1      44.138  32.788  40.184  0.00  0.00    +0.000 A 
ATOM      8  C   UNL     1      44.744  33.623  41.065  0.00  0.00    +0.000 A 
ATOM      9  H   UNL     1      44.152  33.939  41.917  0.00  0.00    +0.000 HD
ATOM     10  S   UNL     1      42.459  32.233  40.405  0.00  0.00    +0.000 S 
ATOM     11  C   UNL     1      42.125  31.174  39.013  0.00  0.00    +0.000 A 
ATOM     12  C   UNL     1      40.886  30.631  38.974  0.00  0.00    +0.000 A 
ATOM     13  H   UNL     1      40.117  30.814  39.739  0.00  0.00    +0.000 HD
ATOM     14  C   UNL     1      40.514  29.794  37.943  0.00  0.00    +0.000 A 
ATOM     15  H   UNL     1      39.531  29.347  37.888  0.00  0.00    +0.000 HD
ATOM     16  C   UNL     1      41.441  29.529  36.956  0.00  0.00    +0.000 A 
ATOM     17  H   UNL     1      41.184  28.878  36.133  0.00  0.00    +0.000 HD
ATOM     18  C   UNL     1      42.681  30.116  37.059  0.00  0.00    +0.000 A 
ATOM     19  H   UNL     1      43.369  29.864  36.243  0.00  0.00    +0.000 HD
ATOM     20  C   UNL     1      43.093  30.956  38.071  0.00  0.00    +0.000 A 
ATOM     21  N   UNL     1      44.394  31.504  38.078  0.00  0.00    +0.000 N 
ATOM     22  H   UNL     1      44.995  31.226  37.277  0.00  0.00    +0.000 HD
ENDROOT
BRANCH   1  23
ATOM     23  C   UNL     1      46.546  35.009  42.023  0.00  0.00    +0.000 C 
ATOM     24  H   UNL     1      46.083  36.010  41.852  0.00  0.00    +0.000 HD
BRANCH  23  26
ATOM     25  C   UNL     1      45.194  35.207  44.053  0.00  0.00    +0.000 A 
ATOM     26  C   UNL     1      46.235  34.587  43.370  0.00  0.00    +0.000 A 
ATOM     27  C   UNL     1      46.912  33.571  44.070  0.00  0.00    +0.000 A 
ATOM     28  N   UNL     1      46.513  33.272  45.332  0.00  0.00    +0.000 NA
ATOM     29  C   UNL     1      45.505  33.902  45.938  0.00  0.00    +0.000 A 
ATOM     30  N   UNL     1      44.840  34.873  45.301  0.00  0.00    +0.000 NA
ATOM     31  H   UNL     1      44.610  36.012  43.583  0.00  0.00    +0.000 HD
ATOM     32  H   UNL     1      47.727  33.063  43.575  0.00  0.00    +0.000 HD
ATOM     33  H   UNL     1      45.170  33.679  46.946  0.00  0.00    +0.000 HD
ENDBRANCH  23  26
BRANCH  23  34
ATOM     34  C   UNL     1      48.051  35.165  41.919  0.00  0.00    +0.000 C 
ATOM     35  H   UNL     1      48.415  35.929  42.641  0.00  0.00    +0.000 HD
ATOM     36  H   UNL     1      48.502  34.185  42.070  0.00  0.00    +0.000 HD
ATOM     37  H   UNL     1      48.248  35.587  40.902  0.00  0.00    +0.000 HD
ENDBRANCH  23  34
ENDBRANCH   1  23
TORSDOF 3
