
 OpenBabel03242513353D

 34 37  0  0  0  0  0  0  0  0999 V2000
   35.0330   28.5930   38.8140 C   0  0  0  0  0  0  0  0  0  0  0  0
   35.0510   29.4660   39.8810 C   0  0  0  0  0  0  0  0  0  0  0  0
   34.4260   30.3330   39.8650 H   0  0  0  0  0  0  0  0  0  0  0  0
   35.8870   29.1780   40.9400 C   0  0  0  0  0  0  0  0  0  0  0  0
   35.8480   29.9180   41.7540 H   0  0  0  0  0  0  0  0  0  0  0  0
   36.7190   28.0820   41.0310 C   0  0  0  0  0  0  0  0  0  0  0  0
   36.6770   27.2360   39.9550 C   0  0  0  0  0  0  0  0  0  0  0  0
   35.8580   27.4890   38.8860 C   0  0  0  0  0  0  0  0  0  0  0  0
   35.8410   26.7940   38.0310 H   0  0  0  0  0  0  0  0  0  0  0  0
   37.7050   25.7850   39.9510 S   0  0  0  0  0  0  0  0  0  0  0  0
   38.6030   25.8160   41.4900 C   0  0  0  0  0  0  0  0  0  0  0  0
   39.4780   24.8210   41.7750 C   0  0  0  0  0  0  0  0  0  0  0  0
   39.6340   24.0030   41.0640 H   0  0  0  0  0  0  0  0  0  0  0  0
   40.2040   24.7680   42.9270 C   0  0  0  0  0  0  0  0  0  0  0  0
   40.9150   24.0030   43.2080 H   0  0  0  0  0  0  0  0  0  0  0  0
   40.0150   25.7940   43.8280 C   0  0  0  0  0  0  0  0  0  0  0  0
   40.5640   25.8040   44.7590 H   0  0  0  0  0  0  0  0  0  0  0  0
   39.1190   26.7970   43.5190 C   0  0  0  0  0  0  0  0  0  0  0  0
   39.0210   27.5810   44.2870 H   0  0  0  0  0  0  0  0  0  0  0  0
   38.3810   26.8570   42.3560 C   0  0  0  0  0  0  0  0  0  0  0  0
   37.5100   27.9420   42.1880 N   0  0  0  0  0  0  0  0  0  0  0  0
   37.4420   28.6660   42.9330 H   0  0  0  0  0  0  0  0  0  0  0  0
   32.0410   29.3650   36.8870 C   0  0  0  0  0  0  0  0  0  0  0  0
   32.4960   29.3420   35.5520 C   0  0  0  0  0  0  0  0  0  0  0  0
   33.8330   29.0590   35.3480 C   0  0  0  0  0  0  0  0  0  0  0  0
   34.6460   28.8180   36.4000 N   0  0  0  0  0  0  0  0  0  0  0  0
   34.1660   28.8500   37.6690 C   0  0  0  0  0  0  0  0  0  0  0  0
   32.8670   29.1210   37.9230 N   0  0  0  0  0  0  0  0  0  0  0  0
   30.9930   29.5840   37.0900 H   0  0  0  0  0  0  0  0  0  0  0  0
   34.1670   29.0450   34.3280 H   0  0  0  0  0  0  0  0  0  0  0  0
   31.4880   29.6250   34.4960 C   0  0  0  0  0  0  0  0  0  0  0  0
   30.2670   29.7010   35.1330 F   0  0  0  0  0  0  0  0  0  0  0  0
   31.4890   28.5880   33.5960 F   0  0  0  0  0  0  0  0  0  0  0  0
   31.8450   30.8270   33.8870 F   0  0  0  0  0  0  0  0  0  0  0  0
  1  8  2  0  0  0  0
  1  2  1  0  0  0  0
  2  4  2  0  0  0  0
  3  2  1  0  0  0  0
  4  6  1  0  0  0  0
  4  5  1  0  0  0  0
  6 21  1  0  0  0  0
  7  6  2  0  0  0  0
  8  7  1  0  0  0  0
  9  8  1  0  0  0  0
 10  7  1  0  0  0  0
 10 11  1  0  0  0  0
 11 12  2  0  0  0  0
 11 20  1  0  0  0  0
 12 14  1  0  0  0  0
 13 12  1  0  0  0  0
 14 15  1  0  0  0  0
 14 16  2  0  0  0  0
 16 17  1  0  0  0  0
 18 16  1  0  0  0  0
 18 19  1  0  0  0  0
 20 18  2  0  0  0  0
 21 20  1  0  0  0  0
 21 22  1  0  0  0  0
 23 29  1  0  0  0  0
 23 28  1  0  0  0  0
 24 23  2  0  0  0  0
 25 24  1  0  0  0  0
 25 26  2  0  0  0  0
 26 27  1  0  0  0  0
 27 28  2  0  0  0  0
 27  1  1  0  0  0  0
 30 25  1  0  0  0  0
 31 32  1  0  0  0  0
 31 24  1  0  0  0  0
 33 31  1  0  0  0  0
 34 31  1  0  0  0  0
M  END
>  <minimizedAffinity>
-5.82001448

$$$$

 OpenBabel03242513353D

 34 37  0  0  0  0  0  0  0  0999 V2000
   34.6410   28.1000   37.8090 C   0  0  0  0  0  0  0  0  0  0  0  0
   35.1060   26.8580   37.4290 C   0  0  0  0  0  0  0  0  0  0  0  0
   34.7600   26.4210   36.5170 H   0  0  0  0  0  0  0  0  0  0  0  0
   36.0110   26.2250   38.2550 C   0  0  0  0  0  0  0  0  0  0  0  0
   36.3370   25.2390   37.8880 H   0  0  0  0  0  0  0  0  0  0  0  0
   36.5010   26.7240   39.4420 C   0  0  0  0  0  0  0  0  0  0  0  0
   36.0190   27.9580   39.7910 C   0  0  0  0  0  0  0  0  0  0  0  0
   35.1200   28.6180   38.9950 C   0  0  0  0  0  0  0  0  0  0  0  0
   34.7460   29.6100   39.2950 H   0  0  0  0  0  0  0  0  0  0  0  0
   36.5750   28.7120   41.3030 S   0  0  0  0  0  0  0  0  0  0  0  0
   37.7180   27.5570   42.0350 C   0  0  0  0  0  0  0  0  0  0  0  0
   38.3140   27.8610   43.2140 C   0  0  0  0  0  0  0  0  0  0  0  0
   38.0960   28.8110   43.7130 H   0  0  0  0  0  0  0  0  0  0  0  0
   39.1990   27.0360   43.8420 C   0  0  0  0  0  0  0  0  0  0  0  0
   39.7040   27.2250   44.7790 H   0  0  0  0  0  0  0  0  0  0  0  0
   39.4800   25.8390   43.2200 C   0  0  0  0  0  0  0  0  0  0  0  0
   40.1740   25.1440   43.6720 H   0  0  0  0  0  0  0  0  0  0  0  0
   38.8620   25.5480   42.0200 C   0  0  0  0  0  0  0  0  0  0  0  0
   39.1360   24.5740   41.5840 H   0  0  0  0  0  0  0  0  0  0  0  0
   37.9670   26.3770   41.3790 C   0  0  0  0  0  0  0  0  0  0  0  0
   37.4230   25.9400   40.1640 N   0  0  0  0  0  0  0  0  0  0  0  0
   37.7030   25.0150   39.7800 H   0  0  0  0  0  0  0  0  0  0  0  0
   31.6650   29.9520   36.8250 C   0  0  0  0  0  0  0  0  0  0  0  0
   31.8530   30.1650   35.4440 C   0  0  0  0  0  0  0  0  0  0  0  0
   33.0100   29.6610   34.8810 C   0  0  0  0  0  0  0  0  0  0  0  0
   33.9050   28.9970   35.6460 N   0  0  0  0  0  0  0  0  0  0  0  0
   33.6840   28.8140   36.9720 C   0  0  0  0  0  0  0  0  0  0  0  0
   32.5680   29.2860   37.5710 N   0  0  0  0  0  0  0  0  0  0  0  0
   30.7640   30.3330   37.3070 H   0  0  0  0  0  0  0  0  0  0  0  0
   33.1420   29.8300   33.8290 H   0  0  0  0  0  0  0  0  0  0  0  0
   30.7840   30.9120   34.7300 C   0  0  0  0  0  0  0  0  0  0  0  0
   30.9500   32.2410   35.0610 F   0  0  0  0  0  0  0  0  0  0  0  0
   29.5620   30.4640   35.1710 F   0  0  0  0  0  0  0  0  0  0  0  0
   30.9480   30.6800   33.3660 F   0  0  0  0  0  0  0  0  0  0  0  0
  1  8  1  0  0  0  0
  2  1  2  0  0  0  0
  2  4  1  0  0  0  0
  3  2  1  0  0  0  0
  4  6  2  0  0  0  0
  5  4  1  0  0  0  0
  6  7  1  0  0  0  0
  6 21  1  0  0  0  0
  7 10  1  0  0  0  0
  8  9  1  0  0  0  0
  8  7  2  0  0  0  0
 10 11  1  0  0  0  0
 11 12  1  0  0  0  0
 12 13  1  0  0  0  0
 12 14  2  0  0  0  0
 14 15  1  0  0  0  0
 16 17  1  0  0  0  0
 16 14  1  0  0  0  0
 18 16  2  0  0  0  0
 19 18  1  0  0  0  0
 20 18  1  0  0  0  0
 20 11  2  0  0  0  0
 21 20  1  0  0  0  0
 22 21  1  0  0  0  0
 23 29  1  0  0  0  0
 23 28  1  0  0  0  0
 24 23  2  0  0  0  0
 25 24  1  0  0  0  0
 25 26  2  0  0  0  0
 26 27  1  0  0  0  0
 27 28  2  0  0  0  0
 27  1  1  0  0  0  0
 30 25  1  0  0  0  0
 31 32  1  0  0  0  0
 31 33  1  0  0  0  0
 31 24  1  0  0  0  0
 34 31  1  0  0  0  0
M  END
>  <minimizedAffinity>
-5.67700577

$$$$

 OpenBabel03242513353D

 34 37  0  0  0  0  0  0  0  0999 V2000
   35.0560   27.6420   38.0630 C   0  0  0  0  0  0  0  0  0  0  0  0
   35.3970   26.3430   37.7530 C   0  0  0  0  0  0  0  0  0  0  0  0
   34.9800   25.8800   36.8850 H   0  0  0  0  0  0  0  0  0  0  0  0
   36.2750   25.6870   38.5900 C   0  0  0  0  0  0  0  0  0  0  0  0
   36.5000   24.6540   38.2810 H   0  0  0  0  0  0  0  0  0  0  0  0
   36.8520   26.2170   39.7250 C   0  0  0  0  0  0  0  0  0  0  0  0
   36.4920   27.5080   40.0040 C   0  0  0  0  0  0  0  0  0  0  0  0
   35.6220   28.1920   39.1950 C   0  0  0  0  0  0  0  0  0  0  0  0
   35.3470   29.2300   39.4390 H   0  0  0  0  0  0  0  0  0  0  0  0
   37.1690   28.3070   41.4420 S   0  0  0  0  0  0  0  0  0  0  0  0
   38.2350   27.1050   42.2130 C   0  0  0  0  0  0  0  0  0  0  0  0
   38.9000   27.4320   43.3480 C   0  0  0  0  0  0  0  0  0  0  0  0
   38.7840   28.4270   43.7890 H   0  0  0  0  0  0  0  0  0  0  0  0
   39.7340   26.5740   44.0010 C   0  0  0  0  0  0  0  0  0  0  0  0
   40.2890   26.7780   44.9070 H   0  0  0  0  0  0  0  0  0  0  0  0
   39.8870   25.3190   43.4540 C   0  0  0  0  0  0  0  0  0  0  0  0
   40.5360   24.5970   43.9290 H   0  0  0  0  0  0  0  0  0  0  0  0
   39.2000   25.0070   42.2980 C   0  0  0  0  0  0  0  0  0  0  0  0
   39.3730   23.9860   41.9200 H   0  0  0  0  0  0  0  0  0  0  0  0
   38.3560   25.8680   41.6320 C   0  0  0  0  0  0  0  0  0  0  0  0
   37.7300   25.4030   40.4670 N   0  0  0  0  0  0  0  0  0  0  0  0
   37.9140   24.4330   40.1380 H   0  0  0  0  0  0  0  0  0  0  0  0
   33.6390   29.2150   35.1000 C   0  0  0  0  0  0  0  0  0  0  0  0
   32.4280   29.7640   35.5670 C   0  0  0  0  0  0  0  0  0  0  0  0
   32.1260   29.5770   36.9030 C   0  0  0  0  0  0  0  0  0  0  0  0
   32.9750   28.8940   37.7030 N   0  0  0  0  0  0  0  0  0  0  0  0
   34.1310   28.3820   37.2110 C   0  0  0  0  0  0  0  0  0  0  0  0
   34.4730   28.5370   35.9130 N   0  0  0  0  0  0  0  0  0  0  0  0
   33.9140   29.3410   34.0520 H   0  0  0  0  0  0  0  0  0  0  0  0
   31.2010   29.9990   37.2470 H   0  0  0  0  0  0  0  0  0  0  0  0
   31.5940   30.4900   34.5740 C   0  0  0  0  0  0  0  0  0  0  0  0
   32.4200   31.4210   33.9770 F   0  0  0  0  0  0  0  0  0  0  0  0
   30.5700   31.1230   35.2360 F   0  0  0  0  0  0  0  0  0  0  0  0
   31.1090   29.5520   33.6650 F   0  0  0  0  0  0  0  0  0  0  0  0
  1  8  1  0  0  0  0
  2  1  2  0  0  0  0
  2  4  1  0  0  0  0
  3  2  1  0  0  0  0
  4  6  2  0  0  0  0
  5  4  1  0  0  0  0
  6  7  1  0  0  0  0
  6 21  1  0  0  0  0
  7 10  1  0  0  0  0
  8  9  1  0  0  0  0
  8  7  2  0  0  0  0
 10 11  1  0  0  0  0
 11 12  1  0  0  0  0
 12 13  1  0  0  0  0
 12 14  2  0  0  0  0
 14 15  1  0  0  0  0
 16 17  1  0  0  0  0
 16 14  1  0  0  0  0
 18 16  2  0  0  0  0
 19 18  1  0  0  0  0
 20 11  2  0  0  0  0
 20 18  1  0  0  0  0
 21 20  1  0  0  0  0
 22 21  1  0  0  0  0
 23 24  2  0  0  0  0
 23 28  1  0  0  0  0
 24 25  1  0  0  0  0
 25 30  1  0  0  0  0
 25 26  2  0  0  0  0
 27 26  1  0  0  0  0
 27  1  1  0  0  0  0
 28 27  2  0  0  0  0
 29 23  1  0  0  0  0
 31 33  1  0  0  0  0
 31 24  1  0  0  0  0
 32 31  1  0  0  0  0
 34 31  1  0  0  0  0
M  END
>  <minimizedAffinity>
-5.6335721

$$$$

 OpenBabel03242513353D

 34 37  0  0  0  0  0  0  0  0999 V2000
   34.8640   28.5950   38.3380 C   0  0  0  0  0  0  0  0  0  0  0  0
   35.4580   28.5430   37.0950 C   0  0  0  0  0  0  0  0  0  0  0  0
   36.4810   28.2490   37.0100 H   0  0  0  0  0  0  0  0  0  0  0  0
   34.6920   28.8780   35.9970 C   0  0  0  0  0  0  0  0  0  0  0  0
   35.2320   28.8140   35.0400 H   0  0  0  0  0  0  0  0  0  0  0  0
   33.3700   29.2660   36.0280 C   0  0  0  0  0  0  0  0  0  0  0  0
   32.8110   29.3080   37.2770 C   0  0  0  0  0  0  0  0  0  0  0  0
   33.5400   28.9810   38.3910 C   0  0  0  0  0  0  0  0  0  0  0  0
   33.0690   29.0220   39.3860 H   0  0  0  0  0  0  0  0  0  0  0  0
   31.1090   29.7940   37.4520 S   0  0  0  0  0  0  0  0  0  0  0  0
   30.5250   30.1310   35.8020 C   0  0  0  0  0  0  0  0  0  0  0  0
   29.2420   30.5290   35.6150 C   0  0  0  0  0  0  0  0  0  0  0  0
   28.5690   30.6420   36.4700 H   0  0  0  0  0  0  0  0  0  0  0  0
   28.7150   30.8060   34.3890 C   0  0  0  0  0  0  0  0  0  0  0  0
   27.7030   31.1270   34.1790 H   0  0  0  0  0  0  0  0  0  0  0  0
   29.5550   30.6660   33.3060 C   0  0  0  0  0  0  0  0  0  0  0  0
   29.1910   30.8730   32.3090 H   0  0  0  0  0  0  0  0  0  0  0  0
   30.8570   30.2600   33.5180 C   0  0  0  0  0  0  0  0  0  0  0  0
   31.4670   30.1700   32.6050 H   0  0  0  0  0  0  0  0  0  0  0  0
   31.3970   29.9770   34.7540 C   0  0  0  0  0  0  0  0  0  0  0  0
   32.7380   29.5750   34.8070 N   0  0  0  0  0  0  0  0  0  0  0  0
   33.2870   29.5010   33.9260 H   0  0  0  0  0  0  0  0  0  0  0  0
   36.3500   28.8670   41.6510 C   0  0  0  0  0  0  0  0  0  0  0  0
   37.0470   27.6510   41.7990 C   0  0  0  0  0  0  0  0  0  0  0  0
   36.9870   26.7590   40.7440 C   0  0  0  0  0  0  0  0  0  0  0  0
   36.2840   27.0670   39.6320 N   0  0  0  0  0  0  0  0  0  0  0  0
   35.6280   28.2510   39.5320 C   0  0  0  0  0  0  0  0  0  0  0  0
   35.6540   29.1570   40.5340 N   0  0  0  0  0  0  0  0  0  0  0  0
   36.3730   29.5980   42.4600 H   0  0  0  0  0  0  0  0  0  0  0  0
   37.5220   25.8370   40.8690 H   0  0  0  0  0  0  0  0  0  0  0  0
   37.7780   27.4490   43.0770 C   0  0  0  0  0  0  0  0  0  0  0  0
   38.7130   28.4600   43.1560 F   0  0  0  0  0  0  0  0  0  0  0  0
   38.4050   26.2270   43.0380 F   0  0  0  0  0  0  0  0  0  0  0  0
   36.8440   27.5070   44.1100 F   0  0  0  0  0  0  0  0  0  0  0  0
  1  8  1  0  0  0  0
  1 27  1  0  0  0  0
  2  1  2  0  0  0  0
  3  2  1  0  0  0  0
  4  6  2  0  0  0  0
  4  2  1  0  0  0  0
  5  4  1  0  0  0  0
  6  7  1  0  0  0  0
  7 10  1  0  0  0  0
  7  8  2  0  0  0  0
  8  9  1  0  0  0  0
 11 10  1  0  0  0  0
 12 11  1  0  0  0  0
 12 13  1  0  0  0  0
 14 12  2  0  0  0  0
 15 14  1  0  0  0  0
 16 18  2  0  0  0  0
 16 14  1  0  0  0  0
 17 16  1  0  0  0  0
 18 20  1  0  0  0  0
 19 18  1  0  0  0  0
 20 21  1  0  0  0  0
 20 11  2  0  0  0  0
 21  6  1  0  0  0  0
 22 21  1  0  0  0  0
 23 24  1  0  0  0  0
 23 29  1  0  0  0  0
 24 31  1  0  0  0  0
 25 30  1  0  0  0  0
 25 24  2  0  0  0  0
 26 25  1  0  0  0  0
 27 26  2  0  0  0  0
 27 28  1  0  0  0  0
 28 23  2  0  0  0  0
 31 32  1  0  0  0  0
 31 34  1  0  0  0  0
 33 31  1  0  0  0  0
M  END
>  <minimizedAffinity>
-5.49345636

$$$$

 OpenBabel03242513353D

 34 37  0  0  0  0  0  0  0  0999 V2000
   36.6770   27.8670   39.7350 C   0  0  0  0  0  0  0  0  0  0  0  0
   35.6940   28.6450   40.3080 C   0  0  0  0  0  0  0  0  0  0  0  0
   34.7600   28.2010   40.5800 H   0  0  0  0  0  0  0  0  0  0  0  0
   35.9620   29.9830   40.5110 C   0  0  0  0  0  0  0  0  0  0  0  0
   35.1320   30.5400   40.9730 H   0  0  0  0  0  0  0  0  0  0  0  0
   37.1380   30.6240   40.1880 C   0  0  0  0  0  0  0  0  0  0  0  0
   38.0930   29.8230   39.6200 C   0  0  0  0  0  0  0  0  0  0  0  0
   37.8630   28.4900   39.4040 C   0  0  0  0  0  0  0  0  0  0  0  0
   38.6460   27.8660   38.9460 H   0  0  0  0  0  0  0  0  0  0  0  0
   39.6580   30.5330   39.1580 S   0  0  0  0  0  0  0  0  0  0  0  0
   39.5620   32.2580   39.5950 C   0  0  0  0  0  0  0  0  0  0  0  0
   40.6230   33.0680   39.3580 C   0  0  0  0  0  0  0  0  0  0  0  0
   41.5330   32.6660   38.9010 H   0  0  0  0  0  0  0  0  0  0  0  0
   40.6340   34.3970   39.6610 C   0  0  0  0  0  0  0  0  0  0  0  0
   41.4470   35.0900   39.4960 H   0  0  0  0  0  0  0  0  0  0  0  0
   39.4920   34.9110   40.2370 C   0  0  0  0  0  0  0  0  0  0  0  0
   39.4440   35.9590   40.4990 H   0  0  0  0  0  0  0  0  0  0  0  0
   38.4240   34.0690   40.4700 C   0  0  0  0  0  0  0  0  0  0  0  0
   37.5480   34.5520   40.9330 H   0  0  0  0  0  0  0  0  0  0  0  0
   38.4050   32.7250   40.1670 C   0  0  0  0  0  0  0  0  0  0  0  0
   37.2430   32.0010   40.4650 N   0  0  0  0  0  0  0  0  0  0  0  0
   36.4330   32.4880   40.9020 H   0  0  0  0  0  0  0  0  0  0  0  0
   36.6790   24.2630   40.2550 C   0  0  0  0  0  0  0  0  0  0  0  0
   36.0350   23.7650   39.1040 C   0  0  0  0  0  0  0  0  0  0  0  0
   35.6120   24.6920   38.1690 C   0  0  0  0  0  0  0  0  0  0  0  0
   35.8210   26.0110   38.3750 N   0  0  0  0  0  0  0  0  0  0  0  0
   36.4460   26.4470   39.4980 C   0  0  0  0  0  0  0  0  0  0  0  0
   36.8780   25.5830   40.4430 N   0  0  0  0  0  0  0  0  0  0  0  0
   37.0270   23.5650   41.0160 H   0  0  0  0  0  0  0  0  0  0  0  0
   35.1230   24.3000   37.2970 H   0  0  0  0  0  0  0  0  0  0  0  0
   35.8740   22.2900   39.0110 C   0  0  0  0  0  0  0  0  0  0  0  0
   36.0570   21.9600   37.6840 F   0  0  0  0  0  0  0  0  0  0  0  0
   34.6020   21.9590   39.4100 F   0  0  0  0  0  0  0  0  0  0  0  0
   36.8330   21.7100   39.8390 F   0  0  0  0  0  0  0  0  0  0  0  0
  1  2  1  0  0  0  0
  2  4  2  0  0  0  0
  2  3  1  0  0  0  0
  4  5  1  0  0  0  0
  6 21  1  0  0  0  0
  6  4  1  0  0  0  0
  7  6  2  0  0  0  0
  8  7  1  0  0  0  0
  8  1  2  0  0  0  0
  9  8  1  0  0  0  0
 10 11  1  0  0  0  0
 10  7  1  0  0  0  0
 11 20  1  0  0  0  0
 12 11  2  0  0  0  0
 12 14  1  0  0  0  0
 13 12  1  0  0  0  0
 14 16  2  0  0  0  0
 15 14  1  0  0  0  0
 16 18  1  0  0  0  0
 16 17  1  0  0  0  0
 18 19  1  0  0  0  0
 20 21  1  0  0  0  0
 20 18  2  0  0  0  0
 21 22  1  0  0  0  0
 23 28  1  0  0  0  0
 23 29  1  0  0  0  0
 24 23  2  0  0  0  0
 25 26  2  0  0  0  0
 25 24  1  0  0  0  0
 26 27  1  0  0  0  0
 27  1  1  0  0  0  0
 27 28  2  0  0  0  0
 30 25  1  0  0  0  0
 31 24  1  0  0  0  0
 31 33  1  0  0  0  0
 31 34  1  0  0  0  0
 32 31  1  0  0  0  0
M  END
>  <minimizedAffinity>
-5.44370747

$$$$

 OpenBabel03242513353D

 34 37  0  0  0  0  0  0  0  0999 V2000
   37.7030   27.3400   39.9070 C   0  0  0  0  0  0  0  0  0  0  0  0
   39.0470   27.3110   40.2110 C   0  0  0  0  0  0  0  0  0  0  0  0
   39.5440   26.3710   40.3210 H   0  0  0  0  0  0  0  0  0  0  0  0
   39.7040   28.5150   40.3600 C   0  0  0  0  0  0  0  0  0  0  0  0
   40.7730   28.4140   40.6010 H   0  0  0  0  0  0  0  0  0  0  0  0
   39.1320   29.7630   40.2330 C   0  0  0  0  0  0  0  0  0  0  0  0
   37.7960   29.7560   39.9310 C   0  0  0  0  0  0  0  0  0  0  0  0
   37.1110   28.5800   39.7740 C   0  0  0  0  0  0  0  0  0  0  0  0
   36.0360   28.5990   39.5320 H   0  0  0  0  0  0  0  0  0  0  0  0
   36.9410   31.3050   39.7400 S   0  0  0  0  0  0  0  0  0  0  0  0
   38.1600   32.5740   40.0170 C   0  0  0  0  0  0  0  0  0  0  0  0
   37.7980   33.8780   39.9370 C   0  0  0  0  0  0  0  0  0  0  0  0
   36.7640   34.1510   39.7030 H   0  0  0  0  0  0  0  0  0  0  0  0
   38.6660   34.9110   40.1350 C   0  0  0  0  0  0  0  0  0  0  0  0
   38.4350   35.9660   40.0840 H   0  0  0  0  0  0  0  0  0  0  0  0
   39.9700   34.5780   40.4290 C   0  0  0  0  0  0  0  0  0  0  0  0
   40.7020   35.3560   40.5960 H   0  0  0  0  0  0  0  0  0  0  0  0
   40.3180   33.2440   40.5060 C   0  0  0  0  0  0  0  0  0  0  0  0
   41.3770   33.0560   40.7450 H   0  0  0  0  0  0  0  0  0  0  0  0
   39.4470   32.1950   40.3070 C   0  0  0  0  0  0  0  0  0  0  0  0
   39.9520   30.8930   40.4200 N   0  0  0  0  0  0  0  0  0  0  0  0
   40.9580   30.7500   40.6470 H   0  0  0  0  0  0  0  0  0  0  0  0
   35.5320   24.8210   38.4230 C   0  0  0  0  0  0  0  0  0  0  0  0
   35.5480   23.7760   39.3690 C   0  0  0  0  0  0  0  0  0  0  0  0
   36.3130   23.9660   40.5040 C   0  0  0  0  0  0  0  0  0  0  0  0
   37.0050   25.1150   40.6740 N   0  0  0  0  0  0  0  0  0  0  0  0
   36.9600   26.0960   39.7370 C   0  0  0  0  0  0  0  0  0  0  0  0
   36.2280   25.9600   38.6100 N   0  0  0  0  0  0  0  0  0  0  0  0
   34.9400   24.7100   37.5140 H   0  0  0  0  0  0  0  0  0  0  0  0
   36.3180   23.1630   41.2170 H   0  0  0  0  0  0  0  0  0  0  0  0
   34.7390   22.5700   39.0500 C   0  0  0  0  0  0  0  0  0  0  0  0
   34.4020   22.6690   37.7160 F   0  0  0  0  0  0  0  0  0  0  0  0
   33.6050   22.5820   39.8260 F   0  0  0  0  0  0  0  0  0  0  0  0
   35.5260   21.4520   39.3170 F   0  0  0  0  0  0  0  0  0  0  0  0
  1  2  1  0  0  0  0
  2  3  1  0  0  0  0
  2  4  2  0  0  0  0
  4  5  1  0  0  0  0
  6  4  1  0  0  0  0
  6 21  1  0  0  0  0
  7  6  2  0  0  0  0
  8  1  2  0  0  0  0
  8  7  1  0  0  0  0
  9  8  1  0  0  0  0
 10  7  1  0  0  0  0
 10 11  1  0  0  0  0
 11 20  1  0  0  0  0
 12 11  2  0  0  0  0
 12 14  1  0  0  0  0
 13 12  1  0  0  0  0
 14 16  2  0  0  0  0
 15 14  1  0  0  0  0
 16 18  1  0  0  0  0
 16 17  1  0  0  0  0
 18 19  1  0  0  0  0
 20 21  1  0  0  0  0
 20 18  2  0  0  0  0
 21 22  1  0  0  0  0
 23 28  2  0  0  0  0
 23 24  1  0  0  0  0
 24 25  2  0  0  0  0
 25 26  1  0  0  0  0
 25 30  1  0  0  0  0
 27  1  1  0  0  0  0
 27 26  2  0  0  0  0
 28 27  1  0  0  0  0
 29 23  1  0  0  0  0
 31 34  1  0  0  0  0
 31 24  1  0  0  0  0
 31 33  1  0  0  0  0
 32 31  1  0  0  0  0
M  END
>  <minimizedAffinity>
-5.25729704

$$$$

 OpenBabel03242513353D

 34 37  0  0  0  0  0  0  0  0999 V2000
   36.1500   28.3120   39.7670 C   0  0  0  0  0  0  0  0  0  0  0  0
   35.8960   28.7790   41.0400 C   0  0  0  0  0  0  0  0  0  0  0  0
   35.0100   29.3460   41.2280 H   0  0  0  0  0  0  0  0  0  0  0  0
   36.8110   28.4870   42.0300 C   0  0  0  0  0  0  0  0  0  0  0  0
   36.5420   28.8910   43.0190 H   0  0  0  0  0  0  0  0  0  0  0  0
   37.9720   27.7640   41.8640 C   0  0  0  0  0  0  0  0  0  0  0  0
   38.1940   27.3160   40.5890 C   0  0  0  0  0  0  0  0  0  0  0  0
   37.3070   27.5850   39.5790 C   0  0  0  0  0  0  0  0  0  0  0  0
   37.5070   27.2150   38.5610 H   0  0  0  0  0  0  0  0  0  0  0  0
   39.6600   26.3690   40.2430 S   0  0  0  0  0  0  0  0  0  0  0  0
   40.5350   26.2410   41.7900 C   0  0  0  0  0  0  0  0  0  0  0  0
   41.7090   25.5640   41.8400 C   0  0  0  0  0  0  0  0  0  0  0  0
   42.1170   25.0980   40.9370 H   0  0  0  0  0  0  0  0  0  0  0  0
   42.4410   25.4170   42.9800 C   0  0  0  0  0  0  0  0  0  0  0  0
   43.3810   24.8910   43.0810 H   0  0  0  0  0  0  0  0  0  0  0  0
   41.9350   25.9990   44.1230 C   0  0  0  0  0  0  0  0  0  0  0  0
   42.4740   25.9160   45.0560 H   0  0  0  0  0  0  0  0  0  0  0  0
   40.7390   26.6840   44.0500 C   0  0  0  0  0  0  0  0  0  0  0  0
   40.3990   27.1210   45.0020 H   0  0  0  0  0  0  0  0  0  0  0  0
   39.9930   26.8360   42.9010 C   0  0  0  0  0  0  0  0  0  0  0  0
   38.7960   27.5600   42.9880 N   0  0  0  0  0  0  0  0  0  0  0  0
   38.5040   27.9600   43.9030 H   0  0  0  0  0  0  0  0  0  0  0  0
   33.0660   29.1990   38.0450 C   0  0  0  0  0  0  0  0  0  0  0  0
   33.4190   29.1270   36.6820 C   0  0  0  0  0  0  0  0  0  0  0  0
   34.7220   28.7720   36.3880 C   0  0  0  0  0  0  0  0  0  0  0  0
   35.5980   28.5110   37.3830 N   0  0  0  0  0  0  0  0  0  0  0  0
   35.2150   28.5910   38.6830 C   0  0  0  0  0  0  0  0  0  0  0  0
   33.9530   28.9340   39.0250 N   0  0  0  0  0  0  0  0  0  0  0  0
   32.0470   29.4750   38.3200 H   0  0  0  0  0  0  0  0  0  0  0  0
   34.9790   28.7210   35.3470 H   0  0  0  0  0  0  0  0  0  0  0  0
   32.3520   29.4410   35.6960 C   0  0  0  0  0  0  0  0  0  0  0  0
   32.9910   29.7390   34.5110 F   0  0  0  0  0  0  0  0  0  0  0  0
   31.6480   30.5340   36.1420 F   0  0  0  0  0  0  0  0  0  0  0  0
   31.5330   28.3180   35.5910 F   0  0  0  0  0  0  0  0  0  0  0  0
  1  2  1  0  0  0  0
  2  3  1  0  0  0  0
  2  4  2  0  0  0  0
  4  5  1  0  0  0  0
  6  4  1  0  0  0  0
  6 21  1  0  0  0  0
  7  6  2  0  0  0  0
  8  1  2  0  0  0  0
  8  7  1  0  0  0  0
  9  8  1  0  0  0  0
 10  7  1  0  0  0  0
 10 11  1  0  0  0  0
 11 12  2  0  0  0  0
 11 20  1  0  0  0  0
 12 14  1  0  0  0  0
 13 12  1  0  0  0  0
 14 15  1  0  0  0  0
 14 16  2  0  0  0  0
 16 17  1  0  0  0  0
 18 16  1  0  0  0  0
 18 19  1  0  0  0  0
 20 21  1  0  0  0  0
 20 18  2  0  0  0  0
 21 22  1  0  0  0  0
 23 29  1  0  0  0  0
 23 28  1  0  0  0  0
 24 23  2  0  0  0  0
 25 24  1  0  0  0  0
 25 26  2  0  0  0  0
 26 27  1  0  0  0  0
 27 28  2  0  0  0  0
 27  1  1  0  0  0  0
 30 25  1  0  0  0  0
 31 33  1  0  0  0  0
 31 24  1  0  0  0  0
 32 31  1  0  0  0  0
 34 31  1  0  0  0  0
M  END
>  <minimizedAffinity>
-5.25549316

$$$$

 OpenBabel03242513353D

 34 37  0  0  0  0  0  0  0  0999 V2000
   37.6740   31.3300   39.0260 C   0  0  0  0  0  0  0  0  0  0  0  0
   37.2430   32.4650   39.6790 C   0  0  0  0  0  0  0  0  0  0  0  0
   36.1960   32.6720   39.7450 H   0  0  0  0  0  0  0  0  0  0  0  0
   38.1950   33.2980   40.2290 C   0  0  0  0  0  0  0  0  0  0  0  0
   37.7770   34.1820   40.7340 H   0  0  0  0  0  0  0  0  0  0  0  0
   39.5580   33.0980   40.1850 C   0  0  0  0  0  0  0  0  0  0  0  0
   39.9530   31.9620   39.5290 C   0  0  0  0  0  0  0  0  0  0  0  0
   39.0350   31.1110   38.9710 C   0  0  0  0  0  0  0  0  0  0  0  0
   39.3760   30.2040   38.4480 H   0  0  0  0  0  0  0  0  0  0  0  0
   41.6880   31.5910   39.4030 S   0  0  0  0  0  0  0  0  0  0  0  0
   42.5350   32.9160   40.2410 C   0  0  0  0  0  0  0  0  0  0  0  0
   43.8880   32.9070   40.3100 C   0  0  0  0  0  0  0  0  0  0  0  0
   44.4590   32.0910   39.8550 H   0  0  0  0  0  0  0  0  0  0  0  0
   44.6140   33.8800   40.9310 C   0  0  0  0  0  0  0  0  0  0  0  0
   45.6910   33.9260   41.0170 H   0  0  0  0  0  0  0  0  0  0  0  0
   43.9040   34.9110   41.5070 C   0  0  0  0  0  0  0  0  0  0  0  0
   44.4270   35.7110   42.0120 H   0  0  0  0  0  0  0  0  0  0  0  0
   42.5270   34.9010   41.4250 C   0  0  0  0  0  0  0  0  0  0  0  0
   42.0290   35.7580   41.9080 H   0  0  0  0  0  0  0  0  0  0  0  0
   41.7860   33.9220   40.7990 C   0  0  0  0  0  0  0  0  0  0  0  0
   40.3910   34.0530   40.8010 N   0  0  0  0  0  0  0  0  0  0  0  0
   39.9530   34.8740   41.2660 H   0  0  0  0  0  0  0  0  0  0  0  0
   35.9350   29.3460   36.5160 C   0  0  0  0  0  0  0  0  0  0  0  0
   34.9190   28.7030   37.2520 C   0  0  0  0  0  0  0  0  0  0  0  0
   34.8580   28.9710   38.6070 C   0  0  0  0  0  0  0  0  0  0  0  0
   35.7460   29.8170   39.1740 N   0  0  0  0  0  0  0  0  0  0  0  0
   36.7080   30.4160   38.4270 C   0  0  0  0  0  0  0  0  0  0  0  0
   36.8120   30.1880   37.0990 N   0  0  0  0  0  0  0  0  0  0  0  0
   36.0170   29.1610   35.4450 H   0  0  0  0  0  0  0  0  0  0  0  0
   34.0800   28.4750   39.1560 H   0  0  0  0  0  0  0  0  0  0  0  0
   34.0140   27.7990   36.4960 C   0  0  0  0  0  0  0  0  0  0  0  0
   34.7610   27.2740   35.4620 F   0  0  0  0  0  0  0  0  0  0  0  0
   32.9690   28.5380   35.9970 F   0  0  0  0  0  0  0  0  0  0  0  0
   33.5660   26.8180   37.3790 F   0  0  0  0  0  0  0  0  0  0  0  0
  1  2  1  0  0  0  0
  2  3  1  0  0  0  0
  2  4  2  0  0  0  0
  4  5  1  0  0  0  0
  6  4  1  0  0  0  0
  6 21  1  0  0  0  0
  7  6  2  0  0  0  0
  8  1  2  0  0  0  0
  8  7  1  0  0  0  0
  9  8  1  0  0  0  0
 10  7  1  0  0  0  0
 10 11  1  0  0  0  0
 11 12  2  0  0  0  0
 11 20  1  0  0  0  0
 12 14  1  0  0  0  0
 13 12  1  0  0  0  0
 14 15  1  0  0  0  0
 14 16  2  0  0  0  0
 16 17  1  0  0  0  0
 18 16  1  0  0  0  0
 18 19  1  0  0  0  0
 20 21  1  0  0  0  0
 20 18  2  0  0  0  0
 21 22  1  0  0  0  0
 23 28  2  0  0  0  0
 23 24  1  0  0  0  0
 24 25  2  0  0  0  0
 25 30  1  0  0  0  0
 25 26  1  0  0  0  0
 27  1  1  0  0  0  0
 27 26  2  0  0  0  0
 28 27  1  0  0  0  0
 29 23  1  0  0  0  0
 31 24  1  0  0  0  0
 31 34  1  0  0  0  0
 32 31  1  0  0  0  0
 33 31  1  0  0  0  0
M  END
>  <minimizedAffinity>
-5.226511

$$$$

 OpenBabel03242513353D

 34 37  0  0  0  0  0  0  0  0999 V2000
   37.4860   28.7940   40.2520 C   0  0  0  0  0  0  0  0  0  0  0  0
   37.8630   27.9680   41.2890 C   0  0  0  0  0  0  0  0  0  0  0  0
   38.4190   28.3700   42.1090 H   0  0  0  0  0  0  0  0  0  0  0  0
   37.5020   26.6390   41.2240 C   0  0  0  0  0  0  0  0  0  0  0  0
   37.8370   26.0410   42.0850 H   0  0  0  0  0  0  0  0  0  0  0  0
   36.7880   26.0500   40.2020 C   0  0  0  0  0  0  0  0  0  0  0  0
   36.4290   26.8970   39.1880 C   0  0  0  0  0  0  0  0  0  0  0  0
   36.7690   28.2240   39.2190 C   0  0  0  0  0  0  0  0  0  0  0  0
   36.4690   28.8870   38.3920 H   0  0  0  0  0  0  0  0  0  0  0  0
   35.5030   26.2580   37.8100 S   0  0  0  0  0  0  0  0  0  0  0  0
   35.2650   24.5240   38.1410 C   0  0  0  0  0  0  0  0  0  0  0  0
   34.5830   23.7600   37.2530 C   0  0  0  0  0  0  0  0  0  0  0  0
   34.1790   24.2060   36.3380 H   0  0  0  0  0  0  0  0  0  0  0  0
   34.3550   22.4280   37.4290 C   0  0  0  0  0  0  0  0  0  0  0  0
   33.8200   21.7700   36.7570 H   0  0  0  0  0  0  0  0  0  0  0  0
   34.8580   21.8590   38.5780 C   0  0  0  0  0  0  0  0  0  0  0  0
   34.7090   20.8050   38.7700 H   0  0  0  0  0  0  0  0  0  0  0  0
   35.5500   22.6540   39.4690 C   0  0  0  0  0  0  0  0  0  0  0  0
   35.9220   22.1290   40.3640 H   0  0  0  0  0  0  0  0  0  0  0  0
   35.7840   24.0010   39.2990 C   0  0  0  0  0  0  0  0  0  0  0  0
   36.5040   24.6730   40.2960 N   0  0  0  0  0  0  0  0  0  0  0  0
   36.8410   24.1470   41.1280 H   0  0  0  0  0  0  0  0  0  0  0  0
   37.2080   32.4020   39.8480 C   0  0  0  0  0  0  0  0  0  0  0  0
   38.4590   32.8790   40.2890 C   0  0  0  0  0  0  0  0  0  0  0  0
   39.3750   31.9370   40.7190 C   0  0  0  0  0  0  0  0  0  0  0  0
   39.0590   30.6230   40.7050 N   0  0  0  0  0  0  0  0  0  0  0  0
   37.8410   30.2080   40.2710 C   0  0  0  0  0  0  0  0  0  0  0  0
   36.9100   31.0880   39.8410 N   0  0  0  0  0  0  0  0  0  0  0  0
   36.4580   33.1130   39.5010 H   0  0  0  0  0  0  0  0  0  0  0  0
   40.3240   32.3120   41.0530 H   0  0  0  0  0  0  0  0  0  0  0  0
   38.6680   34.3500   40.2480 C   0  0  0  0  0  0  0  0  0  0  0  0
   39.8560   34.5570   39.5780 F   0  0  0  0  0  0  0  0  0  0  0  0
   38.7640   34.8180   41.5360 F   0  0  0  0  0  0  0  0  0  0  0  0
   37.5790   34.9110   39.5840 F   0  0  0  0  0  0  0  0  0  0  0  0
  1 27  1  0  0  0  0
  1  2  1  0  0  0  0
  2  3  1  0  0  0  0
  4  2  2  0  0  0  0
  4  5  1  0  0  0  0
  6 21  1  0  0  0  0
  6  4  1  0  0  0  0
  7  8  1  0  0  0  0
  7  6  2  0  0  0  0
  8  1  2  0  0  0  0
  9  8  1  0  0  0  0
 10 11  1  0  0  0  0
 10  7  1  0  0  0  0
 11 20  1  0  0  0  0
 12 14  1  0  0  0  0
 12 11  2  0  0  0  0
 13 12  1  0  0  0  0
 14 16  2  0  0  0  0
 15 14  1  0  0  0  0
 16 17  1  0  0  0  0
 16 18  1  0  0  0  0
 18 19  1  0  0  0  0
 20 18  2  0  0  0  0
 20 21  1  0  0  0  0
 21 22  1  0  0  0  0
 23 24  1  0  0  0  0
 24 25  2  0  0  0  0
 25 30  1  0  0  0  0
 26 25  1  0  0  0  0
 27 26  2  0  0  0  0
 28 23  2  0  0  0  0
 28 27  1  0  0  0  0
 29 23  1  0  0  0  0
 31 24  1  0  0  0  0
 31 33  1  0  0  0  0
 32 31  1  0  0  0  0
 34 31  1  0  0  0  0
M  END
>  <minimizedAffinity>
-5.21840811

$$$$
