
     RDKit          3D

 44 48  0  0  0  0  0  0  0  0999 V2000
   47.5822   33.2254   43.3809 C   0  0  0  0  0  0  0  0  0  0  0  0
   46.6579   34.1233   43.9459 C   0  0  0  0  0  0  0  0  0  0  0  0
   45.9504   34.9509   43.0859 C   0  0  0  0  0  0  0  0  0  0  0  0
   46.1744   34.8642   41.7438 N   0  0  0  0  0  0  0  0  0  0  0  0
   47.0715   33.9903   41.2175 C   0  0  0  0  0  0  0  0  0  0  0  0
   47.7717   33.1738   42.0455 N   0  0  0  0  0  0  0  0  0  0  0  0
   45.1142   32.3065   39.7350 Cl  0  0  0  0  0  0  0  0  0  0  0  0
   46.4148   33.1796   39.0136 C   0  0  0  0  0  0  0  0  0  0  0  0
   47.2764   33.9352   39.7669 C   0  0  0  0  0  0  0  0  0  0  0  0
   48.3324   34.6484   39.2117 C   0  0  0  0  0  0  0  0  0  0  0  0
   48.4707   34.5554   37.8449 C   0  0  0  0  0  0  0  0  0  0  0  0
   47.6119   33.7996   37.0763 C   0  0  0  0  0  0  0  0  0  0  0  0
   46.5859   33.1114   37.6486 C   0  0  0  0  0  0  0  0  0  0  0  0
   44.9387   35.9484   43.5693 C   0  0  0  0  0  0  0  0  0  0  0  0
   45.2638   37.2102   43.1733 F   0  0  0  0  0  0  0  0  0  0  0  0
   43.7003   35.6175   43.0234 F   0  0  0  0  0  0  0  0  0  0  0  0
   44.8848   35.8351   44.9293 F   0  0  0  0  0  0  0  0  0  0  0  0
   48.1391   32.5758   44.0415 H   0  0  0  0  0  0  0  0  0  0  0  0
   46.4788   34.1934   45.0117 H   0  0  0  0  0  0  0  0  0  0  0  0
   49.0084   35.2443   39.8231 H   0  0  0  0  0  0  0  0  0  0  0  0
   49.3027   35.1200   37.4259 H   0  0  0  0  0  0  0  0  0  0  0  0
   47.8002   33.7868   36.0054 H   0  0  0  0  0  0  0  0  0  0  0  0
   45.7361   32.3431   36.7470 C   0  0  0  0  0  0  0  0  0  0  0  0
   44.8338   33.0414   35.9712 C   0  0  0  0  0  0  0  0  0  0  0  0
   44.7762   34.1173   36.0454 H   0  0  0  0  0  0  0  0  0  0  0  0
   44.0271   32.3291   35.1174 C   0  0  0  0  0  0  0  0  0  0  0  0
   43.3310   32.9474   34.5284 H   0  0  0  0  0  0  0  0  0  0  0  0
   44.0316   30.9592   34.9575 C   0  0  0  0  0  0  0  0  0  0  0  0
   44.9495   30.3215   35.7552 C   0  0  0  0  0  0  0  0  0  0  0  0
   45.7746   30.9698   36.6189 C   0  0  0  0  0  0  0  0  0  0  0  0
   46.4838   30.4202   37.2287 H   0  0  0  0  0  0  0  0  0  0  0  0
   45.0727   28.5485   35.6601 S   0  0  0  0  0  0  0  0  0  0  0  0
   43.8751   28.0179   34.4557 C   0  0  0  0  0  0  0  0  0  0  0  0
   43.7215   26.7131   34.1530 C   0  0  0  0  0  0  0  0  0  0  0  0
   44.3453   25.9574   34.6566 H   0  0  0  0  0  0  0  0  0  0  0  0
   42.8105   26.2255   33.2268 C   0  0  0  0  0  0  0  0  0  0  0  0
   42.6655   25.1863   32.9640 H   0  0  0  0  0  0  0  0  0  0  0  0
   42.0279   27.1862   32.5963 C   0  0  0  0  0  0  0  0  0  0  0  0
   41.3044   26.8583   31.8679 H   0  0  0  0  0  0  0  0  0  0  0  0
   42.2018   28.5096   32.9207 C   0  0  0  0  0  0  0  0  0  0  0  0
   41.5383   29.1951   32.3708 H   0  0  0  0  0  0  0  0  0  0  0  0
   43.1184   28.9590   33.8477 C   0  0  0  0  0  0  0  0  0  0  0  0
   43.1406   30.3599   34.0367 N   0  0  0  0  0  0  0  0  0  0  0  0
   42.5094   31.0000   33.5122 H   0  0  0  0  0  0  0  0  0  0  0  0
  1  2  2  0
  3 14  1  0
  3  2  1  0
  4  3  2  0
  5  4  1  0
  5  6  2  0
  6  1  1  0
  8  7  1  0
  8  9  2  0
  9  5  1  0
 10  9  1  0
 11 10  2  0
 12 13  2  0
 12 11  1  0
 13  8  1  0
 14 17  1  0
 15 14  1  0
 16 14  1  0
  1 18  1  0
  2 19  1  0
 10 20  1  0
 11 21  1  0
 12 22  1  0
 23 24  2  0
 24 25  1  0
 24 26  1  0
 26 27  1  0
 26 28  2  0
 28 29  1  0
 29 30  2  0
 30 31  1  0
 29 32  1  0
 32 33  1  0
 33 34  2  0
 34 35  1  0
 34 36  1  0
 36 37  1  0
 36 38  2  0
 38 39  1  0
 38 40  1  0
 40 41  1  0
 40 42  2  0
 42 43  1  0
 43 44  1  0
 30 23  1  0
 42 33  1  0
 43 28  1  0
 13 23  1  0
M  ISO  8  18  14  19  14  20  14  21  14  22  14  25  16  27  16  31  16
M  ISO  5  35  16  37  16  39  16  41  16  44   5
M  END
>  <DihAtoms>  (1) 
11,12,22,23

>  <DihDeg>  (1) 
44.99521503472306

$$$$
