REMARK  Name = 
REMARK  3 active torsions:
REMARK  status: ('A' for Active; 'I' for Inactive)
REMARK    1  A    between atoms: C_3  and  C_14
REMARK    2  A    between atoms: C_5  and  C_9
REMARK    3  A    between atoms: C_13  and  C_23
REMARK                            x       y       z     vdW  Elec       q    Type
REMARK                         _______ _______ _______ _____ _____    ______ ____
ROOT
ATOM      1 CL   UNL     1      45.114  32.306  39.735  0.00  0.00    +0.000 Cl
ATOM      2  C   UNL     1      46.415  33.180  39.014  0.00  0.00    +0.000 A 
ATOM      3  C   UNL     1      47.276  33.935  39.767  0.00  0.00    +0.000 A 
ATOM      4  C   UNL     1      48.332  34.648  39.212  0.00  0.00    +0.000 A 
ATOM      5  C   UNL     1      48.471  34.555  37.845  0.00  0.00    +0.000 A 
ATOM      6  C   UNL     1      47.612  33.800  37.076  0.00  0.00    +0.000 A 
ATOM      7  C   UNL     1      46.586  33.111  37.649  0.00  0.00    +0.000 A 
ATOM      8  H   UNL     1      49.008  35.244  39.823  0.00  0.00    +0.000 HD
ATOM      9  H   UNL     1      49.303  35.120  37.426  0.00  0.00    +0.000 HD
ATOM     10  H   UNL     1      47.800  33.787  36.005  0.00  0.00    +0.000 HD
ENDROOT
BRANCH   7  11
ATOM     11  C   UNL     1      45.736  32.343  36.747  0.00  0.00    +0.000 A 
ATOM     12  C   UNL     1      45.325  32.956  35.581  0.00  0.00    +0.000 A 
ATOM     13  H   UNL     1      45.634  33.968  35.364  0.00  0.00    +0.000 HD
ATOM     14  C   UNL     1      44.524  32.242  34.723  0.00  0.00    +0.000 A 
ATOM     15  H   UNL     1      44.233  32.790  33.812  0.00  0.00    +0.000 HD
ATOM     16  C   UNL     1      44.083  30.950  34.917  0.00  0.00    +0.000 A 
ATOM     17  C   UNL     1      44.524  30.396  36.093  0.00  0.00    +0.000 A 
ATOM     18  C   UNL     1      45.318  31.049  36.982  0.00  0.00    +0.000 A 
ATOM     19  H   UNL     1      45.640  30.567  37.898  0.00  0.00    +0.000 HD
ATOM     20  S   UNL     1      44.036  28.729  36.483  0.00  0.00    +0.000 S 
ATOM     21  C   UNL     1      43.017  28.167  35.137  0.00  0.00    +0.000 A 
ATOM     22  C   UNL     1      42.485  26.929  35.135  0.00  0.00    +0.000 A 
ATOM     23  H   UNL     1      42.681  26.248  35.978  0.00  0.00    +0.000 HD
ATOM     24  C   UNL     1      41.683  26.422  34.122  0.00  0.00    +0.000 A 
ATOM     25  H   UNL     1      41.244  25.434  34.093  0.00  0.00    +0.000 HD
ATOM     26  C   UNL     1      41.442  27.288  33.061  0.00  0.00    +0.000 A 
ATOM     27  H   UNL     1      40.825  26.942  32.249  0.00  0.00    +0.000 HD
ATOM     28  C   UNL     1      41.995  28.546  33.085  0.00  0.00    +0.000 A 
ATOM     29  H   UNL     1      41.748  29.158  32.204  0.00  0.00    +0.000 HD
ATOM     30  C   UNL     1      42.788  29.017  34.110  0.00  0.00    +0.000 A 
ATOM     31  N   UNL     1      43.259  30.339  33.943  0.00  0.00    +0.000 N 
ATOM     32  H   UNL     1      43.020  30.911  33.106  0.00  0.00    +0.000 HD
ENDBRANCH   7  11
BRANCH   3  37
ATOM     33  C   UNL     1      47.582  33.225  43.381  0.00  0.00    +0.000 A 
ATOM     34  C   UNL     1      46.658  34.123  43.946  0.00  0.00    +0.000 A 
ATOM     35  C   UNL     1      45.950  34.951  43.086  0.00  0.00    +0.000 A 
ATOM     36  N   UNL     1      46.174  34.864  41.744  0.00  0.00    +0.000 NA
ATOM     37  C   UNL     1      47.072  33.990  41.218  0.00  0.00    +0.000 A 
ATOM     38  N   UNL     1      47.772  33.174  42.045  0.00  0.00    +0.000 NA
ATOM     39  H   UNL     1      48.139  32.576  44.041  0.00  0.00    +0.000 HD
ATOM     40  H   UNL     1      46.479  34.193  45.012  0.00  0.00    +0.000 HD
BRANCH  35  41
ATOM     41  C   UNL     1      44.939  35.948  43.569  0.00  0.00    +0.000 C 
ATOM     42  F   UNL     1      45.264  37.210  43.173  0.00  0.00    +0.000 F 
ATOM     43  F   UNL     1      43.700  35.617  43.023  0.00  0.00    +0.000 F 
ATOM     44  F   UNL     1      44.885  35.835  44.929  0.00  0.00    +0.000 F 
ENDBRANCH  35  41
ENDBRANCH   3  37
TORSDOF 3
