
 OpenBabel03252500093D

 44 48  0  0  0  0  0  0  0  0999 V2000
   45.6660   31.7060   39.8690 Cl  0  0  0  0  0  0  0  0  0  0  0  0
   46.7240   32.7920   39.0450 C   0  0  0  0  0  0  0  0  0  0  0  0
   47.4140   33.7680   39.7160 C   0  0  0  0  0  0  0  0  0  0  0  0
   48.2720   34.6550   39.0770 C   0  0  0  0  0  0  0  0  0  0  0  0
   48.3970   34.5000   37.7150 C   0  0  0  0  0  0  0  0  0  0  0  0
   47.7090   33.5230   37.0280 C   0  0  0  0  0  0  0  0  0  0  0  0
   46.8740   32.6670   37.6820 C   0  0  0  0  0  0  0  0  0  0  0  0
   48.8140   35.4260   39.6240 H   0  0  0  0  0  0  0  0  0  0  0  0
   49.0730   35.2030   37.2300 H   0  0  0  0  0  0  0  0  0  0  0  0
   47.8700   33.4770   35.9540 H   0  0  0  0  0  0  0  0  0  0  0  0
   46.1950   31.6700   36.8630 C   0  0  0  0  0  0  0  0  0  0  0  0
   46.9790   30.8380   36.0900 C   0  0  0  0  0  0  0  0  0  0  0  0
   48.0540   30.9390   36.1080 H   0  0  0  0  0  0  0  0  0  0  0  0
   46.3510   29.8940   35.3150 C   0  0  0  0  0  0  0  0  0  0  0  0
   47.0350   29.2640   34.7240 H   0  0  0  0  0  0  0  0  0  0  0  0
   44.9890   29.6940   35.2310 C   0  0  0  0  0  0  0  0  0  0  0  0
   44.2640   30.5510   36.0220 C   0  0  0  0  0  0  0  0  0  0  0  0
   44.8260   31.5040   36.8100 C   0  0  0  0  0  0  0  0  0  0  0  0
   44.2100   32.1590   37.4170 H   0  0  0  0  0  0  0  0  0  0  0  0
   42.4890   30.4150   36.0200 S   0  0  0  0  0  0  0  0  0  0  0  0
   42.0820   29.0910   34.9020 C   0  0  0  0  0  0  0  0  0  0  0  0
   40.8000   28.7370   34.6790 C   0  0  0  0  0  0  0  0  0  0  0  0
   39.9860   29.2720   35.1960 H   0  0  0  0  0  0  0  0  0  0  0  0
   40.4060   27.7190   33.8240 C   0  0  0  0  0  0  0  0  0  0  0  0
   39.3870   27.4130   33.6260 H   0  0  0  0  0  0  0  0  0  0  0  0
   41.4380   27.0490   33.1760 C   0  0  0  0  0  0  0  0  0  0  0  0
   41.1840   26.2500   32.5000 H   0  0  0  0  0  0  0  0  0  0  0  0
   42.7360   27.4280   33.4180 C   0  0  0  0  0  0  0  0  0  0  0  0
   43.4830   26.8420   32.8610 H   0  0  0  0  0  0  0  0  0  0  0  0
   43.0920   28.4470   34.2770 C   0  0  0  0  0  0  0  0  0  0  0  0
   44.4820   28.6790   34.3860 N   0  0  0  0  0  0  0  0  0  0  0  0
   45.1810   28.1200   33.8550 H   0  0  0  0  0  0  0  0  0  0  0  0
   47.8420   33.2520   43.3500 C   0  0  0  0  0  0  0  0  0  0  0  0
   46.8710   34.1120   43.8950 C   0  0  0  0  0  0  0  0  0  0  0  0
   46.0910   34.8490   43.0150 C   0  0  0  0  0  0  0  0  0  0  0  0
   46.2920   34.7140   41.6740 N   0  0  0  0  0  0  0  0  0  0  0  0
   47.2370   33.8780   41.1670 C   0  0  0  0  0  0  0  0  0  0  0  0
   48.0070   33.1510   42.0140 N   0  0  0  0  0  0  0  0  0  0  0  0
   48.4550   32.6740   44.0260 H   0  0  0  0  0  0  0  0  0  0  0  0
   46.7090   34.2210   44.9610 H   0  0  0  0  0  0  0  0  0  0  0  0
   45.0250   35.7990   43.4760 C   0  0  0  0  0  0  0  0  0  0  0  0
   45.3080   37.0770   43.1020 F   0  0  0  0  0  0  0  0  0  0  0  0
   43.8180   35.4220   42.8890 F   0  0  0  0  0  0  0  0  0  0  0  0
   44.9340   35.6690   44.8330 F   0  0  0  0  0  0  0  0  0  0  0  0
  2  3  1  0  0  0  0
  2  1  1  0  0  0  0
  3 37  1  0  0  0  0
  4  8  1  0  0  0  0
  4  3  2  0  0  0  0
  5  4  1  0  0  0  0
  6  7  1  0  0  0  0
  6  5  2  0  0  0  0
  7  2  2  0  0  0  0
  9  5  1  0  0  0  0
 10  6  1  0  0  0  0
 11  7  1  0  0  0  0
 12 13  1  0  0  0  0
 12 11  2  0  0  0  0
 14 12  1  0  0  0  0
 15 14  1  0  0  0  0
 16 14  2  0  0  0  0
 16 17  1  0  0  0  0
 17 18  2  0  0  0  0
 18 11  1  0  0  0  0
 18 19  1  0  0  0  0
 20 17  1  0  0  0  0
 21 20  1  0  0  0  0
 22 21  1  0  0  0  0
 22 23  1  0  0  0  0
 24 22  2  0  0  0  0
 25 24  1  0  0  0  0
 26 28  2  0  0  0  0
 26 24  1  0  0  0  0
 27 26  1  0  0  0  0
 28 30  1  0  0  0  0
 29 28  1  0  0  0  0
 30 31  1  0  0  0  0
 30 21  2  0  0  0  0
 31 16  1  0  0  0  0
 32 31  1  0  0  0  0
 33 34  1  0  0  0  0
 33 39  1  0  0  0  0
 34 40  1  0  0  0  0
 35 41  1  0  0  0  0
 35 34  2  0  0  0  0
 36 35  1  0  0  0  0
 37 36  2  0  0  0  0
 37 38  1  0  0  0  0
 38 33  2  0  0  0  0
 41 44  1  0  0  0  0
 42 41  1  0  0  0  0
 43 41  1  0  0  0  0
M  END
>  <minimizedAffinity>
-6.20883036

>  <minimizedRMSD>
1.25220895

$$$$
