
     RDKit          3D

 44 48  0  0  0  0  0  0  0  0999 V2000
   48.0955   35.3497   41.7990 C   0  0  0  0  0  0  0  0  0  0  0  0
   46.7669   34.8586   42.0993 C   0  0  0  0  0  0  0  0  0  0  0  0
   46.3261   34.6697   43.4098 C   0  0  0  0  0  0  0  0  0  0  0  0
   45.0354   34.1937   43.6238 C   0  0  0  0  0  0  0  0  0  0  0  0
   44.2708   33.9375   42.5433 N   0  0  0  0  0  0  0  0  0  0  0  0
   44.7155   34.1266   41.2952 C   0  0  0  0  0  0  0  0  0  0  0  0
   45.9400   34.5783   41.0808 N   0  0  0  0  0  0  0  0  0  0  0  0
   49.1189   34.3842   42.3463 C   0  0  0  0  0  0  0  0  0  0  0  0
   49.4941   33.3109   41.4888 C   0  0  0  0  0  0  0  0  0  0  0  0
   48.9697   32.6872   40.3060 C   0  0  0  0  0  0  0  0  0  0  0  0
   49.6520   31.6386   39.7471 C   0  0  0  0  0  0  0  0  0  0  0  0
   50.8817   31.2130   40.3935 C   0  0  0  0  0  0  0  0  0  0  0  0
   51.0664   32.3181   41.8091 S   0  0  0  0  0  0  0  0  0  0  0  0
   48.2345   36.3453   42.3058 H   0  0  0  0  0  0  0  0  0  0  0  0
   48.2565   35.5303   40.7441 H   0  0  0  0  0  0  0  0  0  0  0  0
   47.0394   34.9138   44.1819 H   0  0  0  0  0  0  0  0  0  0  0  0
   44.7394   34.0639   44.6362 H   0  0  0  0  0  0  0  0  0  0  0  0
   44.0388   33.8971   40.4683 H   0  0  0  0  0  0  0  0  0  0  0  0
   48.7638   34.0134   43.3182 H   0  0  0  0  0  0  0  0  0  0  0  0
   50.0347   34.9973   42.5602 H   0  0  0  0  0  0  0  0  0  0  0  0
   48.0521   33.1096   39.9435 H   0  0  0  0  0  0  0  0  0  0  0  0
   49.2935   31.1455   38.8618 H   0  0  0  0  0  0  0  0  0  0  0  0
   51.7407   30.2120   40.0512 C   0  0  0  0  0  0  0  0  0  0  0  0
   51.3966   28.8996   40.2897 C   0  0  0  0  0  0  0  0  0  0  0  0
   50.4505   28.6419   40.7472 H   0  0  0  0  0  0  0  0  0  0  0  0
   52.2724   27.8619   39.9415 C   0  0  0  0  0  0  0  0  0  0  0  0
   51.9429   26.8532   40.1553 H   0  0  0  0  0  0  0  0  0  0  0  0
   53.4988   28.0926   39.3546 C   0  0  0  0  0  0  0  0  0  0  0  0
   53.7979   29.4112   39.1368 C   0  0  0  0  0  0  0  0  0  0  0  0
   52.9659   30.4327   39.4653 C   0  0  0  0  0  0  0  0  0  0  0  0
   53.2304   31.4685   39.2804 H   0  0  0  0  0  0  0  0  0  0  0  0
   55.3655   29.7956   38.3812 S   0  0  0  0  0  0  0  0  0  0  0  0
   56.1846   28.2396   38.0904 C   0  0  0  0  0  0  0  0  0  0  0  0
   57.4241   28.2622   37.5097 C   0  0  0  0  0  0  0  0  0  0  0  0
   57.8773   29.2181   37.2414 H   0  0  0  0  0  0  0  0  0  0  0  0
   58.1194   27.0991   37.2536 C   0  0  0  0  0  0  0  0  0  0  0  0
   59.0796   27.1879   36.7995 H   0  0  0  0  0  0  0  0  0  0  0  0
   57.5210   25.9145   37.6033 C   0  0  0  0  0  0  0  0  0  0  0  0
   58.0366   24.9901   37.4170 H   0  0  0  0  0  0  0  0  0  0  0  0
   56.2717   25.9525   38.1850 C   0  0  0  0  0  0  0  0  0  0  0  0
   55.8636   24.9637   38.4342 H   0  0  0  0  0  0  0  0  0  0  0  0
   55.5376   27.0867   38.4610 C   0  0  0  0  0  0  0  0  0  0  0  0
   54.2804   26.9653   39.0559 N   0  0  0  0  0  0  0  0  0  0  0  0
   53.9385   26.0083   39.2723 H   0  0  0  0  0  0  0  0  0  0  0  0
  1  2  1  0
  1  8  1  0
  2  3  2  0
  3  4  1  0
  5  4  2  0
  6  5  1  0
  7  6  2  0
  7  2  1  0
  9 13  1  0
  9  8  1  0
 10  9  2  0
 11 10  1  0
 11 12  2  0
 12 13  1  0
  1 14  1  0
  1 15  1  0
  3 16  1  0
  4 17  1  0
  6 18  1  0
  8 19  1  0
  8 20  1  0
 10 21  1  0
 11 22  1  0
 23 24  2  0
 24 25  1  0
 24 26  1  0
 26 27  1  0
 26 28  2  0
 28 29  1  0
 29 30  2  0
 30 31  1  0
 29 32  1  0
 32 33  1  0
 33 34  2  0
 34 35  1  0
 34 36  1  0
 36 37  1  0
 36 38  2  0
 38 39  1  0
 38 40  1  0
 40 41  1  0
 40 42  2  0
 42 43  1  0
 43 44  1  0
 30 23  1  0
 42 33  1  0
 43 28  1  0
 12 23  1  0
M  ISO  8  14   8  15   8  16  14  17  14  18  14  19   8  20   8  21  14
M  ISO  8  22  14  25  16  27  16  31  16  35  16  37  16  39  16  41  16
M  ISO  1  44   5
M  END
>  <DihAtoms>  (1) 
10,11,22,23

>  <DihDeg>  (1) 
-179.98896010917167

$$$$
