
     RDKit          3D

 44 48  0  0  0  0  0  0  0  0999 V2000
   47.5822   33.2254   43.3809 C   0  0  0  0  0  0  0  0  0  0  0  0
   46.6579   34.1233   43.9459 C   0  0  0  0  0  0  0  0  0  0  0  0
   45.9504   34.9509   43.0859 C   0  0  0  0  0  0  0  0  0  0  0  0
   46.1744   34.8642   41.7438 N   0  0  0  0  0  0  0  0  0  0  0  0
   47.0715   33.9903   41.2175 C   0  0  0  0  0  0  0  0  0  0  0  0
   47.7717   33.1738   42.0455 N   0  0  0  0  0  0  0  0  0  0  0  0
   45.1142   32.3065   39.7350 Cl  0  0  0  0  0  0  0  0  0  0  0  0
   46.4148   33.1796   39.0136 C   0  0  0  0  0  0  0  0  0  0  0  0
   47.2764   33.9352   39.7669 C   0  0  0  0  0  0  0  0  0  0  0  0
   48.3324   34.6484   39.2117 C   0  0  0  0  0  0  0  0  0  0  0  0
   48.4707   34.5554   37.8449 C   0  0  0  0  0  0  0  0  0  0  0  0
   47.6119   33.7996   37.0763 C   0  0  0  0  0  0  0  0  0  0  0  0
   46.5859   33.1114   37.6486 C   0  0  0  0  0  0  0  0  0  0  0  0
   44.9387   35.9484   43.5693 C   0  0  0  0  0  0  0  0  0  0  0  0
   45.2638   37.2102   43.1733 F   0  0  0  0  0  0  0  0  0  0  0  0
   43.7003   35.6175   43.0234 F   0  0  0  0  0  0  0  0  0  0  0  0
   44.8848   35.8351   44.9293 F   0  0  0  0  0  0  0  0  0  0  0  0
   48.1391   32.5758   44.0415 H   0  0  0  0  0  0  0  0  0  0  0  0
   46.4788   34.1934   45.0117 H   0  0  0  0  0  0  0  0  0  0  0  0
   49.0084   35.2443   39.8231 H   0  0  0  0  0  0  0  0  0  0  0  0
   49.3027   35.1200   37.4259 H   0  0  0  0  0  0  0  0  0  0  0  0
   47.8002   33.7868   36.0054 H   0  0  0  0  0  0  0  0  0  0  0  0
   45.7361   32.3431   36.7470 C   0  0  0  0  0  0  0  0  0  0  0  0
   46.2051   32.1128   35.4700 C   0  0  0  0  0  0  0  0  0  0  0  0
   47.1690   32.4969   35.1708 H   0  0  0  0  0  0  0  0  0  0  0  0
   45.4138   31.3901   34.6106 C   0  0  0  0  0  0  0  0  0  0  0  0
   45.8477   31.2431   33.6086 H   0  0  0  0  0  0  0  0  0  0  0  0
   44.1740   30.8629   34.9054 C   0  0  0  0  0  0  0  0  0  0  0  0
   43.7626   31.1251   36.1891 C   0  0  0  0  0  0  0  0  0  0  0  0
   44.4993   31.8333   37.0851 C   0  0  0  0  0  0  0  0  0  0  0  0
   44.1300   32.0141   38.0890 H   0  0  0  0  0  0  0  0  0  0  0  0
   42.1792   30.5078   36.7177 S   0  0  0  0  0  0  0  0  0  0  0  0
   41.4816   29.6386   35.3305 C   0  0  0  0  0  0  0  0  0  0  0  0
   40.2721   29.0489   35.4137 C   0  0  0  0  0  0  0  0  0  0  0  0
   39.7007   29.1026   36.3542 H   0  0  0  0  0  0  0  0  0  0  0  0
   39.6654   28.3552   34.3763 C   0  0  0  0  0  0  0  0  0  0  0  0
   38.6980   27.8729   34.4142 H   0  0  0  0  0  0  0  0  0  0  0  0
   40.3937   28.2927   33.1936 C   0  0  0  0  0  0  0  0  0  0  0  0
   39.9657   27.7648   32.3572 H   0  0  0  0  0  0  0  0  0  0  0  0
   41.6239   28.9009   33.1320 C   0  0  0  0  0  0  0  0  0  0  0  0
   42.1245   28.7981   32.1566 H   0  0  0  0  0  0  0  0  0  0  0  0
   42.1969   29.5829   34.1845 C   0  0  0  0  0  0  0  0  0  0  0  0
   43.4697   30.1369   33.9165 N   0  0  0  0  0  0  0  0  0  0  0  0
   43.9351   30.0345   32.9912 H   0  0  0  0  0  0  0  0  0  0  0  0
  1  2  2  0
  3 14  1  0
  3  2  1  0
  4  3  2  0
  5  4  1  0
  5  6  2  0
  6  1  1  0
  8  7  1  0
  8  9  2  0
  9  5  1  0
 10  9  1  0
 11 10  2  0
 12 13  2  0
 12 11  1  0
 13  8  1  0
 14 17  1  0
 15 14  1  0
 16 14  1  0
  1 18  1  0
  2 19  1  0
 10 20  1  0
 11 21  1  0
 12 22  1  0
 23 24  2  0
 24 25  1  0
 24 26  1  0
 26 27  1  0
 26 28  2  0
 28 29  1  0
 29 30  2  0
 30 31  1  0
 29 32  1  0
 32 33  1  0
 33 34  2  0
 34 35  1  0
 34 36  1  0
 36 37  1  0
 36 38  2  0
 38 39  1  0
 38 40  1  0
 40 41  1  0
 40 42  2  0
 42 43  1  0
 43 44  1  0
 30 23  1  0
 42 33  1  0
 43 28  1  0
 13 23  1  0
M  ISO  8  18  14  19  14  20  14  21  14  22  14  25  16  27  16  31  16
M  ISO  5  35  16  37  16  39  16  41  16  44   5
M  END
>  <DihAtoms>  (1) 
11,12,22,23

>  <DihDeg>  (1) 
44.99521503472306

$$$$
