
 OpenBabel03242515073D

 52 56  0  0  0  0  0  0  0  0999 V2000
   36.7580   25.3770   39.7690 C   0  0  0  0  0  0  0  0  0  0  0  0
   37.1260   26.6800   40.1070 C   0  0  0  0  0  0  0  0  0  0  0  0
   36.6020   27.7370   39.3770 C   0  0  0  0  0  0  0  0  0  0  0  0
   35.7570   27.4510   38.3720 N   0  0  0  0  0  0  0  0  0  0  0  0
   35.4010   26.1780   38.0480 C   0  0  0  0  0  0  0  0  0  0  0  0
   35.9110   25.1820   38.7540 N   0  0  0  0  0  0  0  0  0  0  0  0
   37.7950   26.8800   40.9050 H   0  0  0  0  0  0  0  0  0  0  0  0
   36.9100   29.1320   39.6340 C   0  0  0  0  0  0  0  0  0  0  0  0
   35.9640   29.8880   40.2910 C   0  0  0  0  0  0  0  0  0  0  0  0
   35.0290   29.4800   40.6070 H   0  0  0  0  0  0  0  0  0  0  0  0
   36.2710   31.2320   40.5340 C   0  0  0  0  0  0  0  0  0  0  0  0
   35.4800   31.7900   41.0620 H   0  0  0  0  0  0  0  0  0  0  0  0
   37.4540   31.8340   40.1600 C   0  0  0  0  0  0  0  0  0  0  0  0
   38.3500   31.0410   39.5170 C   0  0  0  0  0  0  0  0  0  0  0  0
   38.0890   29.7440   39.2640 C   0  0  0  0  0  0  0  0  0  0  0  0
   38.8470   29.1620   38.7460 H   0  0  0  0  0  0  0  0  0  0  0  0
   39.8960   31.7630   39.0070 S   0  0  0  0  0  0  0  0  0  0  0  0
   39.8470   33.4670   39.5190 C   0  0  0  0  0  0  0  0  0  0  0  0
   40.9290   34.2610   39.2460 C   0  0  0  0  0  0  0  0  0  0  0  0
   41.7950   33.8300   38.7200 H   0  0  0  0  0  0  0  0  0  0  0  0
   40.9750   35.5760   39.6020 C   0  0  0  0  0  0  0  0  0  0  0  0
   41.8580   36.1470   39.3570 H   0  0  0  0  0  0  0  0  0  0  0  0
   39.8840   36.1010   40.2590 C   0  0  0  0  0  0  0  0  0  0  0  0
   39.8760   37.1380   40.5610 H   0  0  0  0  0  0  0  0  0  0  0  0
   38.8160   35.2670   40.5140 C   0  0  0  0  0  0  0  0  0  0  0  0
   37.9800   35.7490   41.0410 H   0  0  0  0  0  0  0  0  0  0  0  0
   38.7330   33.9360   40.1700 C   0  0  0  0  0  0  0  0  0  0  0  0
   37.5720   33.2000   40.4970 N   0  0  0  0  0  0  0  0  0  0  0  0
   36.8170   33.7130   40.9940 H   0  0  0  0  0  0  0  0  0  0  0  0
   34.4850   26.0110   36.9460 C   0  0  0  0  0  0  0  0  0  0  0  0
   34.8420   25.2490   36.0050 O   0  0  0  0  0  0  0  0  0  0  0  0
   33.2420   26.7180   36.9960 N   0  0  0  0  0  0  0  0  0  0  0  0
   33.5060   27.6390   36.6050 H   0  0  0  0  0  0  0  0  0  0  0  0
   32.4840   26.1170   37.3920 H   0  0  0  0  0  0  0  0  0  0  0  0
   37.4700   24.0660   40.7470 S   0  0  0  0  0  0  0  0  0  0  0  0
   38.9140   24.5870   41.6810 C   0  0  0  0  0  0  0  0  0  0  0  0
   39.4900   23.6460   41.9090 H   0  0  0  0  0  0  0  0  0  0  0  0
   39.5930   25.2100   41.0570 H   0  0  0  0  0  0  0  0  0  0  0  0
   38.6100   25.2460   42.9770 C   0  0  0  0  0  0  0  0  0  0  0  0
   37.4960   25.1800   43.1280 H   0  0  0  0  0  0  0  0  0  0  0  0
   39.1450   24.7550   43.7890 H   0  0  0  0  0  0  0  0  0  0  0  0
   36.3540   27.1590   43.6800 Cl  0  0  0  0  0  0  0  0  0  0  0  0
   37.9470   27.6680   43.2200 C   0  0  0  0  0  0  0  0  0  0  0  0
   38.9100   26.6970   42.9170 C   0  0  0  0  0  0  0  0  0  0  0  0
   40.1460   27.1790   42.5620 C   0  0  0  0  0  0  0  0  0  0  0  0
   40.5330   28.5100   42.4730 C   0  0  0  0  0  0  0  0  0  0  0  0
   39.5600   29.4360   42.7790 C   0  0  0  0  0  0  0  0  0  0  0  0
   39.9420   31.1500   42.6990 Cl  0  0  0  0  0  0  0  0  0  0  0  0
   38.2930   29.0180   43.1440 C   0  0  0  0  0  0  0  0  0  0  0  0
   40.9120   26.4500   42.3220 H   0  0  0  0  0  0  0  0  0  0  0  0
   41.5310   28.7810   42.1840 H   0  0  0  0  0  0  0  0  0  0  0  0
   37.5020   29.7200   43.3910 H   0  0  0  0  0  0  0  0  0  0  0  0
  1  2  1  0  0  0  0
  1 35  1  0  0  0  0
  2  7  1  0  0  0  0
  3  8  1  0  0  0  0
  3  2  2  0  0  0  0
  4  3  1  0  0  0  0
  5  4  2  0  0  0  0
  5  6  1  0  0  0  0
  6  1  2  0  0  0  0
  8  9  1  0  0  0  0
  9 11  2  0  0  0  0
  9 10  1  0  0  0  0
 11 12  1  0  0  0  0
 13 28  1  0  0  0  0
 13 11  1  0  0  0  0
 14 13  2  0  0  0  0
 15 14  1  0  0  0  0
 15  8  2  0  0  0  0
 16 15  1  0  0  0  0
 17 14  1  0  0  0  0
 17 18  1  0  0  0  0
 18 27  1  0  0  0  0
 19 18  2  0  0  0  0
 19 21  1  0  0  0  0
 20 19  1  0  0  0  0
 21 23  2  0  0  0  0
 22 21  1  0  0  0  0
 23 25  1  0  0  0  0
 23 24  1  0  0  0  0
 25 26  1  0  0  0  0
 27 28  1  0  0  0  0
 27 25  2  0  0  0  0
 28 29  1  0  0  0  0
 30 32  1  0  0  0  0
 30  5  1  0  0  0  0
 31 30  2  0  0  0  0
 32 34  1  0  0  0  0
 33 32  1  0  0  0  0
 35 36  1  0  0  0  0
 36 37  1  0  0  0  0
 36 39  1  0  0  0  0
 38 36  1  0  0  0  0
 39 40  1  0  0  0  0
 39 41  1  0  0  0  0
 43 42  1  0  0  0  0
 44 39  1  0  0  0  0
 44 43  2  0  0  0  0
 45 44  1  0  0  0  0
 46 45  2  0  0  0  0
 46 47  1  0  0  0  0
 47 49  2  0  0  0  0
 48 47  1  0  0  0  0
 49 43  1  0  0  0  0
 49 52  1  0  0  0  0
 50 45  1  0  0  0  0
 51 46  1  0  0  0  0
M  END
>  <minimizedAffinity>
-7.68128777

$$$$

 OpenBabel03242515073D

 52 56  0  0  0  0  0  0  0  0999 V2000
   36.5660   25.3670   39.5250 C   0  0  0  0  0  0  0  0  0  0  0  0
   36.9820   26.6380   39.9200 C   0  0  0  0  0  0  0  0  0  0  0  0
   36.5070   27.7450   39.2320 C   0  0  0  0  0  0  0  0  0  0  0  0
   35.6610   27.5350   38.2090 N   0  0  0  0  0  0  0  0  0  0  0  0
   35.2590   26.2920   37.8290 C   0  0  0  0  0  0  0  0  0  0  0  0
   35.7230   25.2480   38.4960 N   0  0  0  0  0  0  0  0  0  0  0  0
   37.6500   26.7780   40.7320 H   0  0  0  0  0  0  0  0  0  0  0  0
   36.8680   29.1150   39.5500 C   0  0  0  0  0  0  0  0  0  0  0  0
   35.9930   29.8450   40.3250 C   0  0  0  0  0  0  0  0  0  0  0  0
   35.0760   29.4360   40.6870 H   0  0  0  0  0  0  0  0  0  0  0  0
   36.3500   31.1650   40.6270 C   0  0  0  0  0  0  0  0  0  0  0  0
   35.6160   31.7020   41.2480 H   0  0  0  0  0  0  0  0  0  0  0  0
   37.5140   31.7670   40.1990 C   0  0  0  0  0  0  0  0  0  0  0  0
   38.3390   31.0000   39.4390 C   0  0  0  0  0  0  0  0  0  0  0  0
   38.0280   29.7270   39.1270 C   0  0  0  0  0  0  0  0  0  0  0  0
   38.7300   29.1650   38.5170 H   0  0  0  0  0  0  0  0  0  0  0  0
   39.8580   31.7230   38.8550 S   0  0  0  0  0  0  0  0  0  0  0  0
   39.8890   33.3920   39.4750 C   0  0  0  0  0  0  0  0  0  0  0  0
   40.9660   34.1810   39.1670 C   0  0  0  0  0  0  0  0  0  0  0  0
   41.7780   33.7680   38.5490 H   0  0  0  0  0  0  0  0  0  0  0  0
   41.0710   35.4690   39.6000 C   0  0  0  0  0  0  0  0  0  0  0  0
   41.9450   36.0380   39.3220 H   0  0  0  0  0  0  0  0  0  0  0  0
   40.0460   35.9720   40.3720 C   0  0  0  0  0  0  0  0  0  0  0  0
   40.0860   36.9870   40.7370 H   0  0  0  0  0  0  0  0  0  0  0  0
   38.9820   35.1440   40.6580 C   0  0  0  0  0  0  0  0  0  0  0  0
   38.2000   35.6070   41.2770 H   0  0  0  0  0  0  0  0  0  0  0  0
   38.8410   33.8390   40.2390 C   0  0  0  0  0  0  0  0  0  0  0  0
   37.6910   33.1060   40.6100 N   0  0  0  0  0  0  0  0  0  0  0  0
   36.9890   33.6000   41.1960 H   0  0  0  0  0  0  0  0  0  0  0  0
   34.3480   26.2090   36.7130 C   0  0  0  0  0  0  0  0  0  0  0  0
   34.7800   25.6860   35.6480 O   0  0  0  0  0  0  0  0  0  0  0  0
   33.0240   26.7220   36.8900 N   0  0  0  0  0  0  0  0  0  0  0  0
   33.1550   27.7250   36.6750 H   0  0  0  0  0  0  0  0  0  0  0  0
   32.3610   25.9620   37.1670 H   0  0  0  0  0  0  0  0  0  0  0  0
   37.2160   23.9880   40.4530 S   0  0  0  0  0  0  0  0  0  0  0  0
   37.4760   24.3670   42.1900 C   0  0  0  0  0  0  0  0  0  0  0  0
   36.8480   25.2760   42.4050 H   0  0  0  0  0  0  0  0  0  0  0  0
   37.0700   23.5620   42.8420 H   0  0  0  0  0  0  0  0  0  0  0  0
   38.8790   24.7000   42.5490 C   0  0  0  0  0  0  0  0  0  0  0  0
   39.0390   24.3560   43.6090 H   0  0  0  0  0  0  0  0  0  0  0  0
   39.5730   24.2080   41.8680 H   0  0  0  0  0  0  0  0  0  0  0  0
   41.2580   25.8010   41.0090 Cl  0  0  0  0  0  0  0  0  0  0  0  0
   40.1460   26.7840   41.9070 C   0  0  0  0  0  0  0  0  0  0  0  0
   39.0830   26.1680   42.5800 C   0  0  0  0  0  0  0  0  0  0  0  0
   38.2480   27.0140   43.2680 C   0  0  0  0  0  0  0  0  0  0  0  0
   38.3470   28.3960   43.3620 C   0  0  0  0  0  0  0  0  0  0  0  0
   39.4040   28.9660   42.6880 C   0  0  0  0  0  0  0  0  0  0  0  0
   39.6240   30.7090   42.7410 Cl  0  0  0  0  0  0  0  0  0  0  0  0
   40.2840   28.1720   41.9760 C   0  0  0  0  0  0  0  0  0  0  0  0
   37.4160   26.5640   43.7980 H   0  0  0  0  0  0  0  0  0  0  0  0
   37.6360   28.9660   43.9300 H   0  0  0  0  0  0  0  0  0  0  0  0
   41.1270   28.5870   41.4320 H   0  0  0  0  0  0  0  0  0  0  0  0
  1  2  1  0  0  0  0
  1 35  1  0  0  0  0
  2  7  1  0  0  0  0
  3  8  1  0  0  0  0
  3  2  2  0  0  0  0
  4  3  1  0  0  0  0
  5  4  2  0  0  0  0
  5  6  1  0  0  0  0
  6  1  2  0  0  0  0
  8  9  1  0  0  0  0
  9 11  2  0  0  0  0
  9 10  1  0  0  0  0
 11 12  1  0  0  0  0
 13 28  1  0  0  0  0
 13 11  1  0  0  0  0
 14 13  2  0  0  0  0
 15 14  1  0  0  0  0
 15  8  2  0  0  0  0
 16 15  1  0  0  0  0
 17 14  1  0  0  0  0
 17 18  1  0  0  0  0
 18 27  1  0  0  0  0
 19 18  2  0  0  0  0
 19 21  1  0  0  0  0
 20 19  1  0  0  0  0
 21 23  2  0  0  0  0
 22 21  1  0  0  0  0
 23 25  1  0  0  0  0
 23 24  1  0  0  0  0
 25 26  1  0  0  0  0
 27 28  1  0  0  0  0
 27 25  2  0  0  0  0
 28 29  1  0  0  0  0
 30 32  1  0  0  0  0
 30  5  1  0  0  0  0
 31 30  2  0  0  0  0
 32 34  1  0  0  0  0
 33 32  1  0  0  0  0
 35 36  1  0  0  0  0
 36 37  1  0  0  0  0
 36 39  1  0  0  0  0
 36 38  1  0  0  0  0
 39 44  1  0  0  0  0
 39 40  1  0  0  0  0
 41 39  1  0  0  0  0
 42 43  1  0  0  0  0
 43 49  2  0  0  0  0
 43 44  1  0  0  0  0
 44 45  2  0  0  0  0
 45 46  1  0  0  0  0
 45 50  1  0  0  0  0
 46 51  1  0  0  0  0
 47 48  1  0  0  0  0
 47 46  2  0  0  0  0
 49 47  1  0  0  0  0
 52 49  1  0  0  0  0
M  END
>  <minimizedAffinity>
-7.4715662

$$$$

 OpenBabel03242515073D

 52 56  0  0  0  0  0  0  0  0999 V2000
   39.6100   29.2790   37.7440 C   0  0  0  0  0  0  0  0  0  0  0  0
   39.7840   30.3950   38.5620 C   0  0  0  0  0  0  0  0  0  0  0  0
   40.9870   31.0850   38.5100 C   0  0  0  0  0  0  0  0  0  0  0  0
   41.9320   30.6410   37.6660 N   0  0  0  0  0  0  0  0  0  0  0  0
   41.7560   29.5520   36.8700 C   0  0  0  0  0  0  0  0  0  0  0  0
   40.6030   28.9050   36.9320 N   0  0  0  0  0  0  0  0  0  0  0  0
   39.0220   30.7270   39.2200 H   0  0  0  0  0  0  0  0  0  0  0  0
   41.2830   32.2590   39.3130 C   0  0  0  0  0  0  0  0  0  0  0  0
   40.4890   33.3710   39.1410 C   0  0  0  0  0  0  0  0  0  0  0  0
   39.6790   33.3900   38.4460 H   0  0  0  0  0  0  0  0  0  0  0  0
   40.7830   34.4970   39.9190 C   0  0  0  0  0  0  0  0  0  0  0  0
   40.1180   35.3570   39.7420 H   0  0  0  0  0  0  0  0  0  0  0  0
   41.8100   34.5540   40.8380 C   0  0  0  0  0  0  0  0  0  0  0  0
   42.5590   33.4290   40.9660 C   0  0  0  0  0  0  0  0  0  0  0  0
   42.3070   32.3270   40.2330 C   0  0  0  0  0  0  0  0  0  0  0  0
   42.9420   31.4580   40.3820 H   0  0  0  0  0  0  0  0  0  0  0  0
   43.9020   33.4420   42.1370 S   0  0  0  0  0  0  0  0  0  0  0  0
   43.8980   35.0570   42.8850 C   0  0  0  0  0  0  0  0  0  0  0  0
   44.8440   35.3370   43.8360 C   0  0  0  0  0  0  0  0  0  0  0  0
   45.5760   34.5630   44.1120 H   0  0  0  0  0  0  0  0  0  0  0  0
   44.9140   36.5470   44.4590 C   0  0  0  0  0  0  0  0  0  0  0  0
   45.6830   36.7040   45.1990 H   0  0  0  0  0  0  0  0  0  0  0  0
   43.9900   37.5060   44.1030 C   0  0  0  0  0  0  0  0  0  0  0  0
   44.0070   38.4790   44.5690 H   0  0  0  0  0  0  0  0  0  0  0  0
   43.0560   37.1830   43.1410 C   0  0  0  0  0  0  0  0  0  0  0  0
   42.3500   37.9910   42.9040 H   0  0  0  0  0  0  0  0  0  0  0  0
   42.9550   35.9730   42.4910 C   0  0  0  0  0  0  0  0  0  0  0  0
   41.9430   35.7820   41.5230 N   0  0  0  0  0  0  0  0  0  0  0  0
   41.3070   36.5840   41.3450 H   0  0  0  0  0  0  0  0  0  0  0  0
   42.8540   29.1820   36.0090 C   0  0  0  0  0  0  0  0  0  0  0  0
   43.3390   30.0820   35.2680 O   0  0  0  0  0  0  0  0  0  0  0  0
   43.3130   27.8270   36.0540 N   0  0  0  0  0  0  0  0  0  0  0  0
   42.6700   27.3630   35.3910 H   0  0  0  0  0  0  0  0  0  0  0  0
   44.1200   27.7270   36.7120 H   0  0  0  0  0  0  0  0  0  0  0  0
   38.0410   28.4380   37.8610 S   0  0  0  0  0  0  0  0  0  0  0  0
   38.0880   27.0070   38.9470 C   0  0  0  0  0  0  0  0  0  0  0  0
   37.0760   26.9600   39.4390 H   0  0  0  0  0  0  0  0  0  0  0  0
   38.1830   26.0630   38.3660 H   0  0  0  0  0  0  0  0  0  0  0  0
   39.1050   27.0820   40.0290 C   0  0  0  0  0  0  0  0  0  0  0  0
   39.5680   26.0600   40.1180 H   0  0  0  0  0  0  0  0  0  0  0  0
   39.8570   27.8340   39.7920 H   0  0  0  0  0  0  0  0  0  0  0  0
   40.7180   26.3990   42.5130 Cl  0  0  0  0  0  0  0  0  0  0  0  0
   39.1150   27.0590   42.5510 C   0  0  0  0  0  0  0  0  0  0  0  0
   38.4640   27.3360   41.3420 C   0  0  0  0  0  0  0  0  0  0  0  0
   37.1980   27.8560   41.4550 C   0  0  0  0  0  0  0  0  0  0  0  0
   36.5070   28.1310   42.6280 C   0  0  0  0  0  0  0  0  0  0  0  0
   37.1780   27.8460   43.7970 C   0  0  0  0  0  0  0  0  0  0  0  0
   36.3960   28.1570   45.3400 Cl  0  0  0  0  0  0  0  0  0  0  0  0
   38.4570   27.3200   43.7540 C   0  0  0  0  0  0  0  0  0  0  0  0
   36.6710   28.0800   40.5350 H   0  0  0  0  0  0  0  0  0  0  0  0
   35.5150   28.5400   42.6050 H   0  0  0  0  0  0  0  0  0  0  0  0
   39.0150   27.0840   44.6550 H   0  0  0  0  0  0  0  0  0  0  0  0
  1 35  1  0  0  0  0
  1  2  1  0  0  0  0
  2  7  1  0  0  0  0
  3  2  2  0  0  0  0
  3  8  1  0  0  0  0
  4  3  1  0  0  0  0
  5  6  1  0  0  0  0
  5  4  2  0  0  0  0
  6  1  2  0  0  0  0
  8 15  1  0  0  0  0
  9  8  2  0  0  0  0
  9 11  1  0  0  0  0
 10  9  1  0  0  0  0
 11 13  2  0  0  0  0
 12 11  1  0  0  0  0
 13 14  1  0  0  0  0
 13 28  1  0  0  0  0
 14 17  1  0  0  0  0
 15 16  1  0  0  0  0
 15 14  2  0  0  0  0
 17 18  1  0  0  0  0
 18 19  1  0  0  0  0
 19 20  1  0  0  0  0
 19 21  2  0  0  0  0
 21 22  1  0  0  0  0
 23 21  1  0  0  0  0
 23 24  1  0  0  0  0
 25 23  2  0  0  0  0
 26 25  1  0  0  0  0
 27 18  2  0  0  0  0
 27 25  1  0  0  0  0
 28 27  1  0  0  0  0
 29 28  1  0  0  0  0
 30 32  1  0  0  0  0
 30  5  1  0  0  0  0
 31 30  2  0  0  0  0
 32 34  1  0  0  0  0
 33 32  1  0  0  0  0
 35 36  1  0  0  0  0
 36 37  1  0  0  0  0
 36 39  1  0  0  0  0
 38 36  1  0  0  0  0
 39 40  1  0  0  0  0
 39 44  1  0  0  0  0
 41 39  1  0  0  0  0
 42 43  1  0  0  0  0
 43 49  1  0  0  0  0
 44 45  1  0  0  0  0
 44 43  2  0  0  0  0
 45 46  2  0  0  0  0
 46 47  1  0  0  0  0
 47 48  1  0  0  0  0
 49 47  2  0  0  0  0
 49 52  1  0  0  0  0
 50 45  1  0  0  0  0
 51 46  1  0  0  0  0
M  END
>  <minimizedAffinity>
-7.40846205

$$$$

 OpenBabel03242515073D

 52 56  0  0  0  0  0  0  0  0999 V2000
   37.3890   25.7360   40.1470 C   0  0  0  0  0  0  0  0  0  0  0  0
   37.3420   27.1130   39.9290 C   0  0  0  0  0  0  0  0  0  0  0  0
   38.0100   27.9550   40.8050 C   0  0  0  0  0  0  0  0  0  0  0  0
   38.6770   27.3970   41.8300 N   0  0  0  0  0  0  0  0  0  0  0  0
   38.7190   26.0530   42.0360 C   0  0  0  0  0  0  0  0  0  0  0  0
   38.0760   25.2650   41.1910 N   0  0  0  0  0  0  0  0  0  0  0  0
   36.8090   27.5290   39.1120 H   0  0  0  0  0  0  0  0  0  0  0  0
   38.0330   29.4020   40.6810 C   0  0  0  0  0  0  0  0  0  0  0  0
   36.8240   30.0590   40.6160 C   0  0  0  0  0  0  0  0  0  0  0  0
   35.8920   29.5410   40.6520 H   0  0  0  0  0  0  0  0  0  0  0  0
   36.8570   31.4540   40.4960 C   0  0  0  0  0  0  0  0  0  0  0  0
   35.8640   31.9280   40.4480 H   0  0  0  0  0  0  0  0  0  0  0  0
   38.0170   32.1970   40.4430 C   0  0  0  0  0  0  0  0  0  0  0  0
   39.1790   31.4970   40.5130 C   0  0  0  0  0  0  0  0  0  0  0  0
   39.1870   30.1540   40.6270 C   0  0  0  0  0  0  0  0  0  0  0  0
   40.1490   29.6520   40.6790 H   0  0  0  0  0  0  0  0  0  0  0  0
   40.7120   32.4020   40.4490 S   0  0  0  0  0  0  0  0  0  0  0  0
   40.2720   34.1210   40.2980 C   0  0  0  0  0  0  0  0  0  0  0  0
   41.2790   35.0470   40.2280 C   0  0  0  0  0  0  0  0  0  0  0  0
   42.3260   34.7090   40.2650 H   0  0  0  0  0  0  0  0  0  0  0  0
   41.0320   36.3820   40.1110 C   0  0  0  0  0  0  0  0  0  0  0  0
   41.8710   37.0600   40.0600 H   0  0  0  0  0  0  0  0  0  0  0  0
   39.7170   36.7900   40.0650 C   0  0  0  0  0  0  0  0  0  0  0  0
   39.4740   37.8380   39.9740 H   0  0  0  0  0  0  0  0  0  0  0  0
   38.7350   35.8250   40.1390 C   0  0  0  0  0  0  0  0  0  0  0  0
   37.7090   36.2170   40.0970 H   0  0  0  0  0  0  0  0  0  0  0  0
   38.9450   34.4690   40.2570 C   0  0  0  0  0  0  0  0  0  0  0  0
   37.8390   33.5930   40.3220 N   0  0  0  0  0  0  0  0  0  0  0  0
   36.8950   34.0260   40.2770 H   0  0  0  0  0  0  0  0  0  0  0  0
   39.4710   25.5860   43.1760 C   0  0  0  0  0  0  0  0  0  0  0  0
   39.8390   24.3790   43.1740 O   0  0  0  0  0  0  0  0  0  0  0  0
   39.7470   26.5210   44.2240 N   0  0  0  0  0  0  0  0  0  0  0  0
   38.8880   26.4570   44.7970 H   0  0  0  0  0  0  0  0  0  0  0  0
   40.6880   26.9600   44.0970 H   0  0  0  0  0  0  0  0  0  0  0  0
   36.5070   24.7110   38.9820 S   0  0  0  0  0  0  0  0  0  0  0  0
   35.5840   23.3840   39.7680 C   0  0  0  0  0  0  0  0  0  0  0  0
   36.3480   22.7490   40.2980 H   0  0  0  0  0  0  0  0  0  0  0  0
   34.9160   23.7770   40.5670 H   0  0  0  0  0  0  0  0  0  0  0  0
   34.8460   22.5010   38.8280 C   0  0  0  0  0  0  0  0  0  0  0  0
   35.1900   22.7640   37.7890 H   0  0  0  0  0  0  0  0  0  0  0  0
   35.0460   21.4540   39.0550 H   0  0  0  0  0  0  0  0  0  0  0  0
   33.6420   23.6750   36.2960 Cl  0  0  0  0  0  0  0  0  0  0  0  0
   32.7350   23.3450   37.7370 C   0  0  0  0  0  0  0  0  0  0  0  0
   33.3940   22.8030   38.8470 C   0  0  0  0  0  0  0  0  0  0  0  0
   32.6080   22.5700   39.9490 C   0  0  0  0  0  0  0  0  0  0  0  0
   31.2470   22.8150   40.0730 C   0  0  0  0  0  0  0  0  0  0  0  0
   30.6320   23.3490   38.9620 C   0  0  0  0  0  0  0  0  0  0  0  0
   28.9100   23.6970   39.0100 Cl  0  0  0  0  0  0  0  0  0  0  0  0
   31.3660   23.6070   37.8190 C   0  0  0  0  0  0  0  0  0  0  0  0
   33.0930   22.1500   40.8230 H   0  0  0  0  0  0  0  0  0  0  0  0
   30.7240   22.5960   40.9850 H   0  0  0  0  0  0  0  0  0  0  0  0
   30.9140   24.0270   36.9240 H   0  0  0  0  0  0  0  0  0  0  0  0
  1  6  1  0  0  0  0
  2  1  2  0  0  0  0
  2  3  1  0  0  0  0
  3  4  2  0  0  0  0
  4  5  1  0  0  0  0
  5 30  1  0  0  0  0
  6  5  2  0  0  0  0
  7  2  1  0  0  0  0
  8  3  1  0  0  0  0
  9 10  1  0  0  0  0
  9  8  2  0  0  0  0
 11  9  1  0  0  0  0
 12 11  1  0  0  0  0
 13 11  2  0  0  0  0
 13 14  1  0  0  0  0
 14 15  2  0  0  0  0
 15 16  1  0  0  0  0
 15  8  1  0  0  0  0
 17 14  1  0  0  0  0
 18 17  1  0  0  0  0
 19 20  1  0  0  0  0
 19 18  2  0  0  0  0
 21 19  1  0  0  0  0
 22 21  1  0  0  0  0
 23 21  2  0  0  0  0
 23 25  1  0  0  0  0
 24 23  1  0  0  0  0
 25 27  2  0  0  0  0
 26 25  1  0  0  0  0
 27 18  1  0  0  0  0
 27 28  1  0  0  0  0
 28 13  1  0  0  0  0
 29 28  1  0  0  0  0
 30 32  1  0  0  0  0
 31 30  2  0  0  0  0
 32 33  1  0  0  0  0
 34 32  1  0  0  0  0
 35 36  1  0  0  0  0
 35  1  1  0  0  0  0
 36 37  1  0  0  0  0
 36 38  1  0  0  0  0
 39 44  1  0  0  0  0
 39 41  1  0  0  0  0
 39 36  1  0  0  0  0
 40 39  1  0  0  0  0
 42 43  1  0  0  0  0
 43 49  2  0  0  0  0
 43 44  1  0  0  0  0
 44 45  2  0  0  0  0
 45 46  1  0  0  0  0
 45 50  1  0  0  0  0
 46 51  1  0  0  0  0
 47 48  1  0  0  0  0
 47 46  2  0  0  0  0
 49 47  1  0  0  0  0
 52 49  1  0  0  0  0
M  END
>  <minimizedAffinity>
-7.40462971

$$$$

 OpenBabel03242515073D

 52 56  0  0  0  0  0  0  0  0999 V2000
   40.8350   25.7720   43.1490 C   0  0  0  0  0  0  0  0  0  0  0  0
   40.2510   26.9700   42.7360 C   0  0  0  0  0  0  0  0  0  0  0  0
   41.0100   28.1310   42.7640 C   0  0  0  0  0  0  0  0  0  0  0  0
   42.2810   28.0440   43.1910 N   0  0  0  0  0  0  0  0  0  0  0  0
   42.8440   26.8720   43.5920 C   0  0  0  0  0  0  0  0  0  0  0  0
   42.1060   25.7740   43.5590 N   0  0  0  0  0  0  0  0  0  0  0  0
   39.2460   27.0130   42.4020 H   0  0  0  0  0  0  0  0  0  0  0  0
   40.5130   29.4340   42.3590 C   0  0  0  0  0  0  0  0  0  0  0  0
   39.1630   29.6750   42.4920 C   0  0  0  0  0  0  0  0  0  0  0  0
   38.4890   28.9420   42.8760 H   0  0  0  0  0  0  0  0  0  0  0  0
   38.6940   30.9350   42.0990 C   0  0  0  0  0  0  0  0  0  0  0  0
   37.6080   31.0740   42.2270 H   0  0  0  0  0  0  0  0  0  0  0  0
   39.4970   31.9350   41.5950 C   0  0  0  0  0  0  0  0  0  0  0  0
   40.8190   31.6420   41.4860 C   0  0  0  0  0  0  0  0  0  0  0  0
   41.3060   30.4410   41.8530 C   0  0  0  0  0  0  0  0  0  0  0  0
   42.3740   30.2680   41.7430 H   0  0  0  0  0  0  0  0  0  0  0  0
   41.9070   32.8950   40.8400 S   0  0  0  0  0  0  0  0  0  0  0  0
   40.8860   34.3090   40.4800 C   0  0  0  0  0  0  0  0  0  0  0  0
   41.4830   35.4290   39.9640 C   0  0  0  0  0  0  0  0  0  0  0  0
   42.5690   35.4280   39.7860 H   0  0  0  0  0  0  0  0  0  0  0  0
   40.7770   36.5540   39.6600 C   0  0  0  0  0  0  0  0  0  0  0  0
   41.3070   37.4030   39.2560 H   0  0  0  0  0  0  0  0  0  0  0  0
   39.4180   36.5410   39.8900 C   0  0  0  0  0  0  0  0  0  0  0  0
   38.8190   37.4100   39.6640 H   0  0  0  0  0  0  0  0  0  0  0  0
   38.8580   35.3930   40.4090 C   0  0  0  0  0  0  0  0  0  0  0  0
   37.7720   35.4490   40.5680 H   0  0  0  0  0  0  0  0  0  0  0  0
   39.5380   34.2380   40.7290 C   0  0  0  0  0  0  0  0  0  0  0  0
   38.8320   33.1340   41.2560 N   0  0  0  0  0  0  0  0  0  0  0  0
   37.8070   33.2500   41.3820 H   0  0  0  0  0  0  0  0  0  0  0  0
   44.2190   26.9190   44.0280 C   0  0  0  0  0  0  0  0  0  0  0  0
   44.9290   27.8740   43.6070 O   0  0  0  0  0  0  0  0  0  0  0  0
   44.6800   25.8840   44.9020 N   0  0  0  0  0  0  0  0  0  0  0  0
   44.9450   25.1420   44.2310 H   0  0  0  0  0  0  0  0  0  0  0  0
   44.6130   26.1800   45.9020 H   0  0  0  0  0  0  0  0  0  0  0  0
   39.8040   24.3170   43.0880 S   0  0  0  0  0  0  0  0  0  0  0  0
   38.6100   24.3540   41.7460 C   0  0  0  0  0  0  0  0  0  0  0  0
   39.0340   25.0570   40.9750 H   0  0  0  0  0  0  0  0  0  0  0  0
   38.5390   23.3640   41.2420 H   0  0  0  0  0  0  0  0  0  0  0  0
   37.2670   24.8670   42.1240 C   0  0  0  0  0  0  0  0  0  0  0  0
   36.5190   24.0750   41.8410 H   0  0  0  0  0  0  0  0  0  0  0  0
   37.2280   25.0800   43.1930 H   0  0  0  0  0  0  0  0  0  0  0  0
   36.4590   27.3830   43.6290 Cl  0  0  0  0  0  0  0  0  0  0  0  0
   36.5180   27.2650   41.9000 C   0  0  0  0  0  0  0  0  0  0  0  0
   36.9050   26.0540   41.3120 C   0  0  0  0  0  0  0  0  0  0  0  0
   36.9270   26.0410   39.9390 C   0  0  0  0  0  0  0  0  0  0  0  0
   36.6090   27.0900   39.0860 C   0  0  0  0  0  0  0  0  0  0  0  0
   36.2330   28.2650   39.6990 C   0  0  0  0  0  0  0  0  0  0  0  0
   35.8090   29.6570   38.7130 Cl  0  0  0  0  0  0  0  0  0  0  0  0
   36.1890   28.3460   41.0790 C   0  0  0  0  0  0  0  0  0  0  0  0
   37.2240   25.1160   39.4570 H   0  0  0  0  0  0  0  0  0  0  0  0
   36.6590   26.9730   38.0200 H   0  0  0  0  0  0  0  0  0  0  0  0
   35.8980   29.2560   41.5950 H   0  0  0  0  0  0  0  0  0  0  0  0
  1  6  1  0  0  0  0
  2  3  1  0  0  0  0
  2  1  2  0  0  0  0
  3  4  2  0  0  0  0
  4  5  1  0  0  0  0
  5 30  1  0  0  0  0
  6  5  2  0  0  0  0
  7  2  1  0  0  0  0
  8  9  1  0  0  0  0
  8  3  1  0  0  0  0
  9 10  1  0  0  0  0
 11 12  1  0  0  0  0
 11  9  2  0  0  0  0
 13 11  1  0  0  0  0
 14 13  2  0  0  0  0
 14 15  1  0  0  0  0
 15  8  2  0  0  0  0
 16 15  1  0  0  0  0
 17 14  1  0  0  0  0
 18 27  1  0  0  0  0
 18 17  1  0  0  0  0
 19 18  2  0  0  0  0
 20 19  1  0  0  0  0
 21 23  2  0  0  0  0
 21 19  1  0  0  0  0
 22 21  1  0  0  0  0
 23 25  1  0  0  0  0
 24 23  1  0  0  0  0
 25 26  1  0  0  0  0
 25 27  2  0  0  0  0
 27 28  1  0  0  0  0
 28 29  1  0  0  0  0
 28 13  1  0  0  0  0
 30 32  1  0  0  0  0
 31 30  2  0  0  0  0
 32 34  1  0  0  0  0
 33 32  1  0  0  0  0
 35  1  1  0  0  0  0
 36 39  1  0  0  0  0
 36 35  1  0  0  0  0
 37 36  1  0  0  0  0
 38 36  1  0  0  0  0
 39 41  1  0  0  0  0
 40 39  1  0  0  0  0
 43 42  1  0  0  0  0
 44 43  1  0  0  0  0
 44 39  1  0  0  0  0
 45 44  2  0  0  0  0
 46 47  2  0  0  0  0
 46 45  1  0  0  0  0
 47 49  1  0  0  0  0
 48 47  1  0  0  0  0
 49 52  1  0  0  0  0
 49 43  2  0  0  0  0
 50 45  1  0  0  0  0
 51 46  1  0  0  0  0
M  END
>  <minimizedAffinity>
-7.34331369

$$$$

 OpenBabel03242515073D

 52 56  0  0  0  0  0  0  0  0999 V2000
   38.2790   31.4960   40.8970 C   0  0  0  0  0  0  0  0  0  0  0  0
   37.4710   31.0620   39.8460 C   0  0  0  0  0  0  0  0  0  0  0  0
   36.8250   29.8390   39.9560 C   0  0  0  0  0  0  0  0  0  0  0  0
   37.0110   29.1270   41.0810 N   0  0  0  0  0  0  0  0  0  0  0  0
   37.8000   29.5570   42.1030 C   0  0  0  0  0  0  0  0  0  0  0  0
   38.4090   30.7260   41.9800 N   0  0  0  0  0  0  0  0  0  0  0  0
   37.3390   31.6420   38.9690 H   0  0  0  0  0  0  0  0  0  0  0  0
   35.9600   29.2820   38.9310 C   0  0  0  0  0  0  0  0  0  0  0  0
   34.6060   29.2480   39.1830 C   0  0  0  0  0  0  0  0  0  0  0  0
   34.1880   29.6110   40.0950 H   0  0  0  0  0  0  0  0  0  0  0  0
   33.7810   28.7090   38.1880 C   0  0  0  0  0  0  0  0  0  0  0  0
   32.7090   28.7060   38.4410 H   0  0  0  0  0  0  0  0  0  0  0  0
   34.2420   28.2200   36.9840 C   0  0  0  0  0  0  0  0  0  0  0  0
   35.5850   28.2810   36.7890 C   0  0  0  0  0  0  0  0  0  0  0  0
   36.4100   28.7900   37.7250 C   0  0  0  0  0  0  0  0  0  0  0  0
   37.4750   28.8110   37.5090 H   0  0  0  0  0  0  0  0  0  0  0  0
   36.2400   27.6620   35.2530 S   0  0  0  0  0  0  0  0  0  0  0  0
   34.8450   27.0850   34.3100 C   0  0  0  0  0  0  0  0  0  0  0  0
   35.0740   26.5530   33.0680 C   0  0  0  0  0  0  0  0  0  0  0  0
   36.1050   26.4950   32.6870 H   0  0  0  0  0  0  0  0  0  0  0  0
   34.0640   26.0870   32.2790 C   0  0  0  0  0  0  0  0  0  0  0  0
   34.3120   25.6790   31.3110 H   0  0  0  0  0  0  0  0  0  0  0  0
   32.7790   26.1660   32.7690 C   0  0  0  0  0  0  0  0  0  0  0  0
   31.9480   25.8100   32.1790 H   0  0  0  0  0  0  0  0  0  0  0  0
   32.5940   26.7090   34.0230 C   0  0  0  0  0  0  0  0  0  0  0  0
   31.5460   26.7420   34.3530 H   0  0  0  0  0  0  0  0  0  0  0  0
   33.5870   27.1890   34.8480 C   0  0  0  0  0  0  0  0  0  0  0  0
   33.2500   27.7190   36.1130 N   0  0  0  0  0  0  0  0  0  0  0  0
   32.2410   27.7230   36.3660 H   0  0  0  0  0  0  0  0  0  0  0  0
   37.9140   28.6940   43.2540 C   0  0  0  0  0  0  0  0  0  0  0  0
   38.8810   27.8840   43.2780 O   0  0  0  0  0  0  0  0  0  0  0  0
   36.9260   28.8160   44.2820 N   0  0  0  0  0  0  0  0  0  0  0  0
   36.1730   28.2020   43.9270 H   0  0  0  0  0  0  0  0  0  0  0  0
   37.2520   29.4580   45.0410 H   0  0  0  0  0  0  0  0  0  0  0  0
   39.0800   33.0770   40.6890 S   0  0  0  0  0  0  0  0  0  0  0  0
   40.5480   32.9930   39.6550 C   0  0  0  0  0  0  0  0  0  0  0  0
   41.3310   32.4720   40.2740 H   0  0  0  0  0  0  0  0  0  0  0  0
   40.3800   32.3390   38.7710 H   0  0  0  0  0  0  0  0  0  0  0  0
   41.1020   34.3130   39.2570 C   0  0  0  0  0  0  0  0  0  0  0  0
   41.9710   34.1120   38.5710 H   0  0  0  0  0  0  0  0  0  0  0  0
   40.3390   34.9110   38.7580 H   0  0  0  0  0  0  0  0  0  0  0  0
   39.7470   36.8920   40.1280 Cl  0  0  0  0  0  0  0  0  0  0  0  0
   41.1380   36.2150   40.9120 C   0  0  0  0  0  0  0  0  0  0  0  0
   41.6810   35.0190   40.4250 C   0  0  0  0  0  0  0  0  0  0  0  0
   42.7800   34.5480   41.1000 C   0  0  0  0  0  0  0  0  0  0  0  0
   43.4000   35.1270   42.1990 C   0  0  0  0  0  0  0  0  0  0  0  0
   42.8390   36.3020   42.6510 C   0  0  0  0  0  0  0  0  0  0  0  0
   43.5450   37.1190   44.0380 Cl  0  0  0  0  0  0  0  0  0  0  0  0
   41.7310   36.8310   42.0170 C   0  0  0  0  0  0  0  0  0  0  0  0
   43.2210   33.6240   40.7440 H   0  0  0  0  0  0  0  0  0  0  0  0
   44.2600   34.6740   42.6550 H   0  0  0  0  0  0  0  0  0  0  0  0
   41.2620   37.7550   42.3460 H   0  0  0  0  0  0  0  0  0  0  0  0
  1  6  1  0  0  0  0
  2  3  1  0  0  0  0
  2  1  2  0  0  0  0
  3  4  2  0  0  0  0
  4  5  1  0  0  0  0
  5 30  1  0  0  0  0
  6  5  2  0  0  0  0
  7  2  1  0  0  0  0
  8  9  1  0  0  0  0
  8  3  1  0  0  0  0
  9 10  1  0  0  0  0
 11 12  1  0  0  0  0
 11  9  2  0  0  0  0
 13 11  1  0  0  0  0
 14 13  2  0  0  0  0
 14 15  1  0  0  0  0
 15  8  2  0  0  0  0
 16 15  1  0  0  0  0
 17 14  1  0  0  0  0
 18 27  1  0  0  0  0
 18 17  1  0  0  0  0
 19 18  2  0  0  0  0
 20 19  1  0  0  0  0
 21 23  2  0  0  0  0
 21 19  1  0  0  0  0
 22 21  1  0  0  0  0
 23 25  1  0  0  0  0
 24 23  1  0  0  0  0
 25 26  1  0  0  0  0
 25 27  2  0  0  0  0
 27 28  1  0  0  0  0
 28 29  1  0  0  0  0
 28 13  1  0  0  0  0
 30 31  2  0  0  0  0
 30 32  1  0  0  0  0
 32 34  1  0  0  0  0
 33 32  1  0  0  0  0
 35  1  1  0  0  0  0
 36 37  1  0  0  0  0
 36 35  1  0  0  0  0
 38 36  1  0  0  0  0
 39 36  1  0  0  0  0
 39 44  1  0  0  0  0
 40 39  1  0  0  0  0
 41 39  1  0  0  0  0
 42 43  1  0  0  0  0
 43 49  1  0  0  0  0
 44 43  2  0  0  0  0
 44 45  1  0  0  0  0
 45 46  2  0  0  0  0
 46 47  1  0  0  0  0
 46 51  1  0  0  0  0
 47 48  1  0  0  0  0
 49 52  1  0  0  0  0
 49 47  2  0  0  0  0
 50 45  1  0  0  0  0
M  END
>  <minimizedAffinity>
-7.34083796

$$$$

 OpenBabel03242515073D

 52 56  0  0  0  0  0  0  0  0999 V2000
   36.9820   25.3320   40.3690 C   0  0  0  0  0  0  0  0  0  0  0  0
   36.9260   26.7090   40.1560 C   0  0  0  0  0  0  0  0  0  0  0  0
   37.6950   27.5440   40.9530 C   0  0  0  0  0  0  0  0  0  0  0  0
   38.4630   26.9790   41.9000 N   0  0  0  0  0  0  0  0  0  0  0  0
   38.5130   25.6340   42.1020 C   0  0  0  0  0  0  0  0  0  0  0  0
   37.7730   24.8530   41.3330 N   0  0  0  0  0  0  0  0  0  0  0  0
   36.3120   27.1310   39.4020 H   0  0  0  0  0  0  0  0  0  0  0  0
   37.7200   28.9910   40.8260 C   0  0  0  0  0  0  0  0  0  0  0  0
   36.5240   29.6650   40.9440 C   0  0  0  0  0  0  0  0  0  0  0  0
   35.6010   29.1600   41.1210 H   0  0  0  0  0  0  0  0  0  0  0  0
   36.5590   31.0590   40.8190 C   0  0  0  0  0  0  0  0  0  0  0  0
   35.5770   31.5480   40.9210 H   0  0  0  0  0  0  0  0  0  0  0  0
   37.7080   31.7860   40.5900 C   0  0  0  0  0  0  0  0  0  0  0  0
   38.8570   31.0690   40.4840 C   0  0  0  0  0  0  0  0  0  0  0  0
   38.8620   29.7260   40.5970 C   0  0  0  0  0  0  0  0  0  0  0  0
   39.8140   29.2100   40.5030 H   0  0  0  0  0  0  0  0  0  0  0  0
   40.3750   31.9520   40.1870 S   0  0  0  0  0  0  0  0  0  0  0  0
   39.9420   33.6770   40.1030 C   0  0  0  0  0  0  0  0  0  0  0  0
   40.9410   34.5890   39.8800 C   0  0  0  0  0  0  0  0  0  0  0  0
   41.9760   34.2360   39.7590 H   0  0  0  0  0  0  0  0  0  0  0  0
   40.6980   35.9280   39.8010 C   0  0  0  0  0  0  0  0  0  0  0  0
   41.5290   36.5940   39.6230 H   0  0  0  0  0  0  0  0  0  0  0  0
   39.3970   36.3540   39.9550 C   0  0  0  0  0  0  0  0  0  0  0  0
   39.1580   37.4060   39.9000 H   0  0  0  0  0  0  0  0  0  0  0  0
   38.4230   35.4030   40.1770 C   0  0  0  0  0  0  0  0  0  0  0  0
   37.4090   35.8110   40.2910 H   0  0  0  0  0  0  0  0  0  0  0  0
   38.6300   34.0440   40.2630 C   0  0  0  0  0  0  0  0  0  0  0  0
   37.5330   33.1840   40.4960 N   0  0  0  0  0  0  0  0  0  0  0  0
   36.6000   33.6310   40.5940 H   0  0  0  0  0  0  0  0  0  0  0  0
   39.3800   25.1600   43.1540 C   0  0  0  0  0  0  0  0  0  0  0  0
   39.8490   26.0190   43.9520 O   0  0  0  0  0  0  0  0  0  0  0  0
   39.6480   23.7560   43.2180 N   0  0  0  0  0  0  0  0  0  0  0  0
   40.4390   23.6600   42.5580 H   0  0  0  0  0  0  0  0  0  0  0  0
   38.9950   23.2790   43.8820 H   0  0  0  0  0  0  0  0  0  0  0  0
   35.9670   24.3160   39.3090 S   0  0  0  0  0  0  0  0  0  0  0  0
   35.2300   25.2320   37.9500 C   0  0  0  0  0  0  0  0  0  0  0  0
   34.4390   24.5590   37.5170 H   0  0  0  0  0  0  0  0  0  0  0  0
   34.6880   26.1320   38.3180 H   0  0  0  0  0  0  0  0  0  0  0  0
   36.1700   25.5760   36.8520 C   0  0  0  0  0  0  0  0  0  0  0  0
   37.1200   25.0020   37.0390 H   0  0  0  0  0  0  0  0  0  0  0  0
   35.7380   25.3160   35.8860 H   0  0  0  0  0  0  0  0  0  0  0  0
   39.1030   26.2370   36.3970 Cl  0  0  0  0  0  0  0  0  0  0  0  0
   37.8820   27.4240   36.7210 C   0  0  0  0  0  0  0  0  0  0  0  0
   36.5590   27.0060   36.9150 C   0  0  0  0  0  0  0  0  0  0  0  0
   35.6520   28.0050   37.1670 C   0  0  0  0  0  0  0  0  0  0  0  0
   35.9070   29.3680   37.2480 C   0  0  0  0  0  0  0  0  0  0  0  0
   37.2180   29.7430   37.0520 C   0  0  0  0  0  0  0  0  0  0  0  0
   37.6520   31.4440   37.1330 Cl  0  0  0  0  0  0  0  0  0  0  0  0
   38.1830   28.7860   36.7950 C   0  0  0  0  0  0  0  0  0  0  0  0
   34.6200   27.7100   37.3210 H   0  0  0  0  0  0  0  0  0  0  0  0
   35.1200   30.0700   37.4510 H   0  0  0  0  0  0  0  0  0  0  0  0
   39.2260   29.0450   36.6340 H   0  0  0  0  0  0  0  0  0  0  0  0
  1  6  1  0  0  0  0
  2  1  2  0  0  0  0
  2  3  1  0  0  0  0
  3  4  2  0  0  0  0
  4  5  1  0  0  0  0
  5 30  1  0  0  0  0
  6  5  2  0  0  0  0
  7  2  1  0  0  0  0
  8  9  1  0  0  0  0
  8  3  1  0  0  0  0
  9 10  1  0  0  0  0
 11 12  1  0  0  0  0
 11  9  2  0  0  0  0
 13 11  1  0  0  0  0
 14 13  2  0  0  0  0
 14 15  1  0  0  0  0
 15  8  2  0  0  0  0
 16 15  1  0  0  0  0
 17 14  1  0  0  0  0
 18 17  1  0  0  0  0
 18 27  1  0  0  0  0
 19 18  2  0  0  0  0
 20 19  1  0  0  0  0
 21 19  1  0  0  0  0
 21 23  2  0  0  0  0
 22 21  1  0  0  0  0
 23 25  1  0  0  0  0
 24 23  1  0  0  0  0
 25 27  2  0  0  0  0
 25 26  1  0  0  0  0
 27 28  1  0  0  0  0
 28 13  1  0  0  0  0
 28 29  1  0  0  0  0
 30 32  1  0  0  0  0
 30 31  2  0  0  0  0
 32 34  1  0  0  0  0
 33 32  1  0  0  0  0
 35  1  1  0  0  0  0
 36 38  1  0  0  0  0
 36 35  1  0  0  0  0
 37 36  1  0  0  0  0
 39 44  1  0  0  0  0
 39 40  1  0  0  0  0
 39 36  1  0  0  0  0
 41 39  1  0  0  0  0
 42 43  1  0  0  0  0
 43 49  2  0  0  0  0
 43 44  1  0  0  0  0
 44 45  2  0  0  0  0
 45 46  1  0  0  0  0
 45 50  1  0  0  0  0
 46 51  1  0  0  0  0
 47 48  1  0  0  0  0
 47 46  2  0  0  0  0
 49 47  1  0  0  0  0
 52 49  1  0  0  0  0
M  END
>  <minimizedAffinity>
-7.32787991

$$$$

 OpenBabel03242515073D

 52 56  0  0  0  0  0  0  0  0999 V2000
   36.5760   28.2030   37.8820 C   0  0  0  0  0  0  0  0  0  0  0  0
   37.1340   29.2270   38.6470 C   0  0  0  0  0  0  0  0  0  0  0  0
   37.3850   30.4530   38.0470 C   0  0  0  0  0  0  0  0  0  0  0  0
   37.0760   30.5940   36.7470 N   0  0  0  0  0  0  0  0  0  0  0  0
   36.5310   29.5900   36.0070 C   0  0  0  0  0  0  0  0  0  0  0  0
   36.2980   28.4280   36.5950 N   0  0  0  0  0  0  0  0  0  0  0  0
   37.3690   29.0920   39.6720 H   0  0  0  0  0  0  0  0  0  0  0  0
   37.9620   31.5920   38.7400 C   0  0  0  0  0  0  0  0  0  0  0  0
   37.1320   32.6520   39.0320 C   0  0  0  0  0  0  0  0  0  0  0  0
   36.0990   32.6560   38.7660 H   0  0  0  0  0  0  0  0  0  0  0  0
   37.6980   33.7450   39.7000 C   0  0  0  0  0  0  0  0  0  0  0  0
   36.9910   34.5640   39.9080 H   0  0  0  0  0  0  0  0  0  0  0  0
   39.0220   33.8180   40.0780 C   0  0  0  0  0  0  0  0  0  0  0  0
   39.7930   32.7440   39.7650 C   0  0  0  0  0  0  0  0  0  0  0  0
   39.2840   31.6750   39.1220 C   0  0  0  0  0  0  0  0  0  0  0  0
   39.9520   30.8470   38.9000 H   0  0  0  0  0  0  0  0  0  0  0  0
   41.5120   32.7800   40.2270 S   0  0  0  0  0  0  0  0  0  0  0  0
   41.7800   34.3410   41.0410 C   0  0  0  0  0  0  0  0  0  0  0  0
   43.0370   34.6270   41.5040 C   0  0  0  0  0  0  0  0  0  0  0  0
   43.8450   33.8920   41.3620 H   0  0  0  0  0  0  0  0  0  0  0  0
   43.3300   35.7980   42.1380 C   0  0  0  0  0  0  0  0  0  0  0  0
   44.3410   35.9620   42.4780 H   0  0  0  0  0  0  0  0  0  0  0  0
   42.3090   36.7070   42.3080 C   0  0  0  0  0  0  0  0  0  0  0  0
   42.4940   37.6480   42.8050 H   0  0  0  0  0  0  0  0  0  0  0  0
   41.0590   36.3790   41.8270 C   0  0  0  0  0  0  0  0  0  0  0  0
   40.2920   37.1480   41.9960 H   0  0  0  0  0  0  0  0  0  0  0  0
   40.7260   35.2080   41.1830 C   0  0  0  0  0  0  0  0  0  0  0  0
   39.3990   35.0060   40.7420 N   0  0  0  0  0  0  0  0  0  0  0  0
   38.7200   35.7700   40.9310 H   0  0  0  0  0  0  0  0  0  0  0  0
   36.2470   29.8750   34.6210 C   0  0  0  0  0  0  0  0  0  0  0  0
   35.5330   29.0450   33.9920 O   0  0  0  0  0  0  0  0  0  0  0  0
   36.7930   31.0730   34.0590 N   0  0  0  0  0  0  0  0  0  0  0  0
   37.7380   30.7620   33.7750 H   0  0  0  0  0  0  0  0  0  0  0  0
   36.1020   31.8560   34.1040 H   0  0  0  0  0  0  0  0  0  0  0  0
   36.2790   26.6530   38.7160 S   0  0  0  0  0  0  0  0  0  0  0  0
   37.6040   26.1920   39.8390 C   0  0  0  0  0  0  0  0  0  0  0  0
   37.8160   25.1050   39.6350 H   0  0  0  0  0  0  0  0  0  0  0  0
   38.5450   26.7310   39.5940 H   0  0  0  0  0  0  0  0  0  0  0  0
   37.2660   26.3160   41.2800 C   0  0  0  0  0  0  0  0  0  0  0  0
   36.7910   27.3270   41.4220 H   0  0  0  0  0  0  0  0  0  0  0  0
   36.5880   25.5180   41.5830 H   0  0  0  0  0  0  0  0  0  0  0  0
   37.1090   27.7830   43.9390 Cl  0  0  0  0  0  0  0  0  0  0  0  0
   38.5350   26.9890   43.3540 C   0  0  0  0  0  0  0  0  0  0  0  0
   38.4940   26.3430   42.1120 C   0  0  0  0  0  0  0  0  0  0  0  0
   39.6620   25.7380   41.7180 C   0  0  0  0  0  0  0  0  0  0  0  0
   40.8630   25.7020   42.4150 C   0  0  0  0  0  0  0  0  0  0  0  0
   40.8660   26.3480   43.6330 C   0  0  0  0  0  0  0  0  0  0  0  0
   42.3350   26.3640   44.5980 Cl  0  0  0  0  0  0  0  0  0  0  0  0
   39.7230   26.9780   44.0880 C   0  0  0  0  0  0  0  0  0  0  0  0
   39.6590   25.2300   40.7610 H   0  0  0  0  0  0  0  0  0  0  0  0
   41.7230   25.1980   42.0160 H   0  0  0  0  0  0  0  0  0  0  0  0
   39.6890   27.4960   45.0420 H   0  0  0  0  0  0  0  0  0  0  0  0
  1  2  1  0  0  0  0
  1 35  1  0  0  0  0
  2  7  1  0  0  0  0
  3  2  2  0  0  0  0
  3  8  1  0  0  0  0
  4  3  1  0  0  0  0
  5  6  1  0  0  0  0
  5  4  2  0  0  0  0
  6  1  2  0  0  0  0
  8  9  2  0  0  0  0
  8 15  1  0  0  0  0
  9 11  1  0  0  0  0
 10  9  1  0  0  0  0
 11 12  1  0  0  0  0
 11 13  2  0  0  0  0
 13 28  1  0  0  0  0
 14 13  1  0  0  0  0
 14 17  1  0  0  0  0
 15 14  2  0  0  0  0
 16 15  1  0  0  0  0
 17 18  1  0  0  0  0
 18 27  2  0  0  0  0
 18 19  1  0  0  0  0
 19 21  2  0  0  0  0
 20 19  1  0  0  0  0
 21 23  1  0  0  0  0
 21 22  1  0  0  0  0
 23 24  1  0  0  0  0
 25 26  1  0  0  0  0
 25 23  2  0  0  0  0
 27 25  1  0  0  0  0
 28 29  1  0  0  0  0
 28 27  1  0  0  0  0
 30  5  1  0  0  0  0
 31 30  2  0  0  0  0
 32 34  1  0  0  0  0
 32 30  1  0  0  0  0
 33 32  1  0  0  0  0
 35 36  1  0  0  0  0
 36 39  1  0  0  0  0
 37 36  1  0  0  0  0
 38 36  1  0  0  0  0
 39 40  1  0  0  0  0
 39 41  1  0  0  0  0
 39 44  1  0  0  0  0
 43 42  1  0  0  0  0
 43 49  1  0  0  0  0
 44 43  2  0  0  0  0
 45 44  1  0  0  0  0
 45 46  2  0  0  0  0
 46 47  1  0  0  0  0
 47 49  2  0  0  0  0
 47 48  1  0  0  0  0
 49 52  1  0  0  0  0
 50 45  1  0  0  0  0
 51 46  1  0  0  0  0
M  END
>  <minimizedAffinity>
-7.32049942

$$$$

 OpenBabel03242515073D

 52 56  0  0  0  0  0  0  0  0999 V2000
   37.1190   30.3040   39.9330 C   0  0  0  0  0  0  0  0  0  0  0  0
   38.1450   31.0710   40.4870 C   0  0  0  0  0  0  0  0  0  0  0  0
   38.8990   31.8860   39.6550 C   0  0  0  0  0  0  0  0  0  0  0  0
   38.6000   31.8980   38.3450 N   0  0  0  0  0  0  0  0  0  0  0  0
   37.5980   31.1480   37.8110 C   0  0  0  0  0  0  0  0  0  0  0  0
   36.8900   30.3760   38.6190 N   0  0  0  0  0  0  0  0  0  0  0  0
   38.3600   31.0440   41.5240 H   0  0  0  0  0  0  0  0  0  0  0  0
   39.9890   32.7280   40.1160 C   0  0  0  0  0  0  0  0  0  0  0  0
   39.9400   34.0690   39.8040 C   0  0  0  0  0  0  0  0  0  0  0  0
   39.1380   34.4930   39.2430 H   0  0  0  0  0  0  0  0  0  0  0  0
   40.9960   34.8710   40.2520 C   0  0  0  0  0  0  0  0  0  0  0  0
   40.9070   35.9340   39.9750 H   0  0  0  0  0  0  0  0  0  0  0  0
   42.0680   34.4010   40.9810 C   0  0  0  0  0  0  0  0  0  0  0  0
   42.0630   33.0720   41.2600 C   0  0  0  0  0  0  0  0  0  0  0  0
   41.0650   32.2680   40.8440 C   0  0  0  0  0  0  0  0  0  0  0  0
   41.1190   31.2130   41.1000 H   0  0  0  0  0  0  0  0  0  0  0  0
   43.4220   32.4050   42.1980 S   0  0  0  0  0  0  0  0  0  0  0  0
   44.5090   33.7720   42.5450 C   0  0  0  0  0  0  0  0  0  0  0  0
   45.6500   33.5300   43.2650 C   0  0  0  0  0  0  0  0  0  0  0  0
   45.8650   32.5060   43.6080 H   0  0  0  0  0  0  0  0  0  0  0  0
   46.5370   34.5170   43.5760 C   0  0  0  0  0  0  0  0  0  0  0  0
   47.4170   34.2610   44.1460 H   0  0  0  0  0  0  0  0  0  0  0  0
   46.2540   35.7940   43.1400 C   0  0  0  0  0  0  0  0  0  0  0  0
   46.9280   36.6070   43.3620 H   0  0  0  0  0  0  0  0  0  0  0  0
   45.0960   35.9920   42.4180 C   0  0  0  0  0  0  0  0  0  0  0  0
   44.9310   37.0320   42.1020 H   0  0  0  0  0  0  0  0  0  0  0  0
   44.1770   35.0210   42.0860 C   0  0  0  0  0  0  0  0  0  0  0  0
   43.0300   35.3700   41.3390 N   0  0  0  0  0  0  0  0  0  0  0  0
   42.9320   36.3700   41.0700 H   0  0  0  0  0  0  0  0  0  0  0  0
   37.3840   31.2550   36.3880 C   0  0  0  0  0  0  0  0  0  0  0  0
   36.7690   30.3090   35.8210 O   0  0  0  0  0  0  0  0  0  0  0  0
   37.8830   32.4190   35.7210 N   0  0  0  0  0  0  0  0  0  0  0  0
   38.8630   32.1500   35.5290 H   0  0  0  0  0  0  0  0  0  0  0  0
   37.1390   33.1490   35.6370 H   0  0  0  0  0  0  0  0  0  0  0  0
   36.1900   29.2770   41.0580 S   0  0  0  0  0  0  0  0  0  0  0  0
   36.7500   27.5700   41.0790 C   0  0  0  0  0  0  0  0  0  0  0  0
   36.7740   27.2670   42.1630 H   0  0  0  0  0  0  0  0  0  0  0  0
   36.0060   26.8970   40.5970 H   0  0  0  0  0  0  0  0  0  0  0  0
   38.1130   27.3560   40.5270 C   0  0  0  0  0  0  0  0  0  0  0  0
   38.1270   26.3280   40.0710 H   0  0  0  0  0  0  0  0  0  0  0  0
   38.3450   28.1180   39.7830 H   0  0  0  0  0  0  0  0  0  0  0  0
   40.7910   28.6850   39.9750 Cl  0  0  0  0  0  0  0  0  0  0  0  0
   40.3900   27.8970   41.4660 C   0  0  0  0  0  0  0  0  0  0  0  0
   39.1230   27.3170   41.6110 C   0  0  0  0  0  0  0  0  0  0  0  0
   38.8830   26.7120   42.8210 C   0  0  0  0  0  0  0  0  0  0  0  0
   39.7540   26.6180   43.8980 C   0  0  0  0  0  0  0  0  0  0  0  0
   40.9900   27.1990   43.7200 C   0  0  0  0  0  0  0  0  0  0  0  0
   42.1700   27.1380   45.0210 Cl  0  0  0  0  0  0  0  0  0  0  0  0
   41.2980   27.8250   42.5250 C   0  0  0  0  0  0  0  0  0  0  0  0
   37.9100   26.2550   42.9610 H   0  0  0  0  0  0  0  0  0  0  0  0
   39.4640   26.1200   44.8050 H   0  0  0  0  0  0  0  0  0  0  0  0
   42.2610   28.2940   42.3500 H   0  0  0  0  0  0  0  0  0  0  0  0
  1  2  1  0  0  0  0
  1 35  1  0  0  0  0
  2  7  1  0  0  0  0
  3  8  1  0  0  0  0
  3  2  2  0  0  0  0
  4  3  1  0  0  0  0
  5  4  2  0  0  0  0
  5  6  1  0  0  0  0
  6  1  2  0  0  0  0
  8 15  1  0  0  0  0
  9  8  2  0  0  0  0
  9 11  1  0  0  0  0
 10  9  1  0  0  0  0
 11 13  2  0  0  0  0
 12 11  1  0  0  0  0
 13 14  1  0  0  0  0
 13 28  1  0  0  0  0
 14 17  1  0  0  0  0
 15 16  1  0  0  0  0
 15 14  2  0  0  0  0
 17 18  1  0  0  0  0
 18 19  1  0  0  0  0
 19 21  2  0  0  0  0
 19 20  1  0  0  0  0
 21 22  1  0  0  0  0
 23 24  1  0  0  0  0
 23 21  1  0  0  0  0
 25 23  2  0  0  0  0
 26 25  1  0  0  0  0
 27 25  1  0  0  0  0
 27 18  2  0  0  0  0
 28 27  1  0  0  0  0
 29 28  1  0  0  0  0
 30  5  1  0  0  0  0
 31 30  2  0  0  0  0
 32 30  1  0  0  0  0
 33 32  1  0  0  0  0
 34 32  1  0  0  0  0
 35 36  1  0  0  0  0
 36 37  1  0  0  0  0
 38 36  1  0  0  0  0
 39 36  1  0  0  0  0
 39 44  1  0  0  0  0
 40 39  1  0  0  0  0
 41 39  1  0  0  0  0
 42 43  1  0  0  0  0
 43 44  2  0  0  0  0
 43 49  1  0  0  0  0
 44 45  1  0  0  0  0
 45 50  1  0  0  0  0
 45 46  2  0  0  0  0
 46 51  1  0  0  0  0
 47 46  1  0  0  0  0
 47 48  1  0  0  0  0
 49 47  2  0  0  0  0
 52 49  1  0  0  0  0
M  END
>  <minimizedAffinity>
-7.31988335

$$$$
