REMARK  Name = 
REMARK  2 active torsions:
REMARK  status: ('A' for Active; 'I' for Inactive)
REMARK    1  A    between atoms: C_3  and  C_13
REMARK    2  A    between atoms: C_5  and  C_7
REMARK                            x       y       z     vdW  Elec       q    Type
REMARK                         _______ _______ _______ _____ _____    ______ ____
ROOT
ATOM      1  C   UNL     1      46.937  34.448  42.080  0.00  0.00    +0.000 A 
ATOM      2  C   UNL     1      46.317  34.533  40.850  0.00  0.00    +0.000 A 
ATOM      3  H   UNL     1      45.276  34.802  40.752  0.00  0.00    +0.000 HD
ATOM      4  C   UNL     1      47.078  34.259  39.714  0.00  0.00    +0.000 A 
ATOM      5  H   UNL     1      46.532  34.342  38.763  0.00  0.00    +0.000 HD
ATOM      6  C   UNL     1      48.410  33.908  39.737  0.00  0.00    +0.000 A 
ATOM      7  C   UNL     1      48.970  33.841  40.989  0.00  0.00    +0.000 A 
ATOM      8  C   UNL     1      48.258  34.101  42.105  0.00  0.00    +0.000 A 
ATOM      9  H   UNL     1      48.767  34.028  43.058  0.00  0.00    +0.000 HD
ATOM     10  S   UNL     1      50.691  33.394  41.103  0.00  0.00    +0.000 S 
ATOM     11  C   UNL     1      51.258  33.138  39.448  0.00  0.00    +0.000 A 
ATOM     12  C   UNL     1      52.566  32.779  39.251  0.00  0.00    +0.000 A 
ATOM     13  H   UNL     1      53.226  32.660  40.109  0.00  0.00    +0.000 HD
ATOM     14  C   UNL     1      53.097  32.558  38.000  0.00  0.00    +0.000 A 
ATOM     15  H   UNL     1      54.113  32.282  37.875  0.00  0.00    +0.000 HD
ATOM     16  C   UNL     1      52.241  32.716  36.930  0.00  0.00    +0.000 A 
ATOM     17  H   UNL     1      52.608  32.554  35.926  0.00  0.00    +0.000 HD
ATOM     18  C   UNL     1      50.931  33.077  37.165  0.00  0.00    +0.000 A 
ATOM     19  H   UNL     1      50.314  33.181  36.258  0.00  0.00    +0.000 HD
ATOM     20  C   UNL     1      50.376  33.303  38.408  0.00  0.00    +0.000 A 
ATOM     21  N   UNL     1      49.026  33.666  38.497  0.00  0.00    +0.000 N 
ATOM     22  H   UNL     1      48.484  33.752  37.611  0.00  0.00    +0.000 HD
ENDROOT
BRANCH   1  25
ATOM     23  C   UNL     1      44.548  35.998  44.547  0.00  0.00    +0.000 A 
ATOM     24  C   UNL     1      45.278  35.824  43.336  0.00  0.00    +0.000 A 
ATOM     25  C   UNL     1      46.135  34.737  43.263  0.00  0.00    +0.000 A 
ATOM     26  N   UNL     1      46.238  33.909  44.319  0.00  0.00    +0.000 NA
ATOM     27  C   UNL     1      45.532  34.098  45.459  0.00  0.00    +0.000 A 
ATOM     28  N   UNL     1      44.688  35.147  45.565  0.00  0.00    +0.000 NA
ATOM     29  H   UNL     1      43.886  36.838  44.606  0.00  0.00    +0.000 HD
ATOM     30  H   UNL     1      45.173  36.496  42.522  0.00  0.00    +0.000 HD
BRANCH  27  31
ATOM     31  C   UNL     1      45.783  33.074  46.508  0.00  0.00    +0.000 C 
ATOM     32  F   UNL     1      44.925  33.195  47.560  0.00  0.00    +0.000 F 
ATOM     33  F   UNL     1      47.093  33.150  46.948  0.00  0.00    +0.000 F 
ATOM     34  F   UNL     1      45.674  31.800  45.933  0.00  0.00    +0.000 F 
ENDBRANCH  27  31
ENDBRANCH   1  25
TORSDOF 2
