
 OpenBabel03242510343D

 34 37  0  0  0  0  0  0  0  0999 V2000
   46.7380   31.3440   45.2130 C   0  0  0  0  0  0  0  0  0  0  0  0
   47.0370   30.0710   44.7780 C   0  0  0  0  0  0  0  0  0  0  0  0
   46.7000   29.7470   43.8240 H   0  0  0  0  0  0  0  0  0  0  0  0
   47.7720   29.2610   45.6200 C   0  0  0  0  0  0  0  0  0  0  0  0
   47.9750   28.2580   45.2120 H   0  0  0  0  0  0  0  0  0  0  0  0
   48.2410   29.6120   46.8680 C   0  0  0  0  0  0  0  0  0  0  0  0
   47.9080   30.8930   47.2380 C   0  0  0  0  0  0  0  0  0  0  0  0
   47.1910   31.7180   46.4470 C   0  0  0  0  0  0  0  0  0  0  0  0
   46.9420   32.7390   46.7760 H   0  0  0  0  0  0  0  0  0  0  0  0
   48.4540   31.4720   48.8340 S   0  0  0  0  0  0  0  0  0  0  0  0
   49.3470   30.1470   49.5730 C   0  0  0  0  0  0  0  0  0  0  0  0
   49.9060   30.2680   50.8160 C   0  0  0  0  0  0  0  0  0  0  0  0
   49.7840   31.2220   51.3520 H   0  0  0  0  0  0  0  0  0  0  0  0
   50.6180   29.2780   51.4620 C   0  0  0  0  0  0  0  0  0  0  0  0
   51.0200   29.4740   52.4470 H   0  0  0  0  0  0  0  0  0  0  0  0
   50.7560   28.0800   50.7620 C   0  0  0  0  0  0  0  0  0  0  0  0
   51.3040   27.2850   51.2300 H   0  0  0  0  0  0  0  0  0  0  0  0
   50.1940   27.9690   49.5180 C   0  0  0  0  0  0  0  0  0  0  0  0
   50.3550   26.9890   49.0430 H   0  0  0  0  0  0  0  0  0  0  0  0
   49.4840   28.9680   48.8860 C   0  0  0  0  0  0  0  0  0  0  0  0
   48.9820   28.6650   47.6090 N   0  0  0  0  0  0  0  0  0  0  0  0
   49.1450   27.7330   47.1750 H   0  0  0  0  0  0  0  0  0  0  0  0
   44.8330   32.6000   42.3650 C   0  0  0  0  0  0  0  0  0  0  0  0
   44.4970   33.9240   42.7460 C   0  0  0  0  0  0  0  0  0  0  0  0
   44.9450   34.3530   43.9980 C   0  0  0  0  0  0  0  0  0  0  0  0
   45.6640   33.4920   44.7620 N   0  0  0  0  0  0  0  0  0  0  0  0
   45.9620   32.2390   44.3600 C   0  0  0  0  0  0  0  0  0  0  0  0
   45.5500   31.7950   43.1670 N   0  0  0  0  0  0  0  0  0  0  0  0
   44.4870   32.2660   41.3960 H   0  0  0  0  0  0  0  0  0  0  0  0
   43.9130   34.5190   42.0410 H   0  0  0  0  0  0  0  0  0  0  0  0
   44.5820   35.7180   44.3580 C   0  0  0  0  0  0  0  0  0  0  0  0
   44.6340   35.8520   45.7350 F   0  0  0  0  0  0  0  0  0  0  0  0
   43.2570   35.8900   44.0060 F   0  0  0  0  0  0  0  0  0  0  0  0
   45.3940   36.6700   43.7990 F   0  0  0  0  0  0  0  0  0  0  0  0
  1  8  1  0  0  0  0
  2  1  2  0  0  0  0
  2  4  1  0  0  0  0
  3  2  1  0  0  0  0
  4  6  2  0  0  0  0
  5  4  1  0  0  0  0
  6  7  1  0  0  0  0
  6 21  1  0  0  0  0
  7 10  1  0  0  0  0
  8  9  1  0  0  0  0
  8  7  2  0  0  0  0
 10 11  1  0  0  0  0
 11 12  1  0  0  0  0
 12 13  1  0  0  0  0
 12 14  2  0  0  0  0
 14 15  1  0  0  0  0
 16 17  1  0  0  0  0
 16 14  1  0  0  0  0
 18 16  2  0  0  0  0
 19 18  1  0  0  0  0
 20 18  1  0  0  0  0
 20 11  2  0  0  0  0
 21 20  1  0  0  0  0
 22 21  1  0  0  0  0
 23 24  2  0  0  0  0
 23 28  1  0  0  0  0
 24 25  1  0  0  0  0
 25 31  1  0  0  0  0
 25 26  2  0  0  0  0
 27 26  1  0  0  0  0
 27  1  1  0  0  0  0
 28 27  2  0  0  0  0
 29 23  1  0  0  0  0
 30 24  1  0  0  0  0
 31 32  1  0  0  0  0
 33 31  1  0  0  0  0
 34 31  1  0  0  0  0
M  END
>  <minimizedAffinity>
-5.57267046

>  <minimizedRMSD>
4.32879353

$$$$
