
 OpenBabel03252500093D

 44 48  0  0  0  0  0  0  0  0999 V2000
   46.1150   30.9510   42.0530 Cl  0  0  0  0  0  0  0  0  0  0  0  0
   47.1270   32.3430   41.9350 C   0  0  0  0  0  0  0  0  0  0  0  0
   48.3250   32.4170   42.5950 C   0  0  0  0  0  0  0  0  0  0  0  0
   49.1600   33.5250   42.5170 C   0  0  0  0  0  0  0  0  0  0  0  0
   48.7130   34.5620   41.7280 C   0  0  0  0  0  0  0  0  0  0  0  0
   47.5100   34.5020   41.0590 C   0  0  0  0  0  0  0  0  0  0  0  0
   46.7130   33.4010   41.1550 C   0  0  0  0  0  0  0  0  0  0  0  0
   50.1090   33.5700   43.0470 H   0  0  0  0  0  0  0  0  0  0  0  0
   49.3790   35.4240   41.6780 H   0  0  0  0  0  0  0  0  0  0  0  0
   47.2400   35.3690   40.4610 H   0  0  0  0  0  0  0  0  0  0  0  0
   45.4620   33.4380   40.4080 C   0  0  0  0  0  0  0  0  0  0  0  0
   45.5240   33.2110   39.0480 C   0  0  0  0  0  0  0  0  0  0  0  0
   46.4760   33.0150   38.5760 H   0  0  0  0  0  0  0  0  0  0  0  0
   44.3530   33.2430   38.3320 C   0  0  0  0  0  0  0  0  0  0  0  0
   44.4730   33.0550   37.2540 H   0  0  0  0  0  0  0  0  0  0  0  0
   43.0970   33.4850   38.8490 C   0  0  0  0  0  0  0  0  0  0  0  0
   43.1000   33.7030   40.2060 C   0  0  0  0  0  0  0  0  0  0  0  0
   44.2260   33.6840   40.9680 C   0  0  0  0  0  0  0  0  0  0  0  0
   44.1750   33.8620   42.0370 H   0  0  0  0  0  0  0  0  0  0  0  0
   41.5510   34.0290   41.0180 S   0  0  0  0  0  0  0  0  0  0  0  0
   40.2950   33.9840   39.7580 C   0  0  0  0  0  0  0  0  0  0  0  0
   38.9980   34.1960   40.0600 C   0  0  0  0  0  0  0  0  0  0  0  0
   38.7030   34.4010   41.1020 H   0  0  0  0  0  0  0  0  0  0  0  0
   37.9650   34.1760   39.1330 C   0  0  0  0  0  0  0  0  0  0  0  0
   36.9170   34.3430   39.3450 H   0  0  0  0  0  0  0  0  0  0  0  0
   38.3450   33.9170   37.8210 C   0  0  0  0  0  0  0  0  0  0  0  0
   37.5800   33.8920   37.0620 H   0  0  0  0  0  0  0  0  0  0  0  0
   39.6720   33.7050   37.5380 C   0  0  0  0  0  0  0  0  0  0  0  0
   39.8760   33.5080   36.4740 H   0  0  0  0  0  0  0  0  0  0  0  0
   40.6730   33.7320   38.4860 C   0  0  0  0  0  0  0  0  0  0  0  0
   41.9740   33.4880   37.9890 N   0  0  0  0  0  0  0  0  0  0  0  0
   42.1570   33.3020   36.9820 H   0  0  0  0  0  0  0  0  0  0  0  0
   50.2050   29.4840   43.8300 C   0  0  0  0  0  0  0  0  0  0  0  0
   49.4930   29.1350   44.9920 C   0  0  0  0  0  0  0  0  0  0  0  0
   48.3890   29.9040   45.3310 C   0  0  0  0  0  0  0  0  0  0  0  0
   48.0400   30.9550   44.5360 N   0  0  0  0  0  0  0  0  0  0  0  0
   48.7420   31.2760   43.4170 C   0  0  0  0  0  0  0  0  0  0  0  0
   49.8240   30.5350   43.0720 N   0  0  0  0  0  0  0  0  0  0  0  0
   51.0670   28.8920   43.5560 H   0  0  0  0  0  0  0  0  0  0  0  0
   49.7690   28.3000   45.6250 H   0  0  0  0  0  0  0  0  0  0  0  0
   47.5520   29.6300   46.5450 C   0  0  0  0  0  0  0  0  0  0  0  0
   48.0410   30.2800   47.6380 F   0  0  0  0  0  0  0  0  0  0  0  0
   46.2580   30.0870   46.2990 F   0  0  0  0  0  0  0  0  0  0  0  0
   47.5330   28.2750   46.7200 F   0  0  0  0  0  0  0  0  0  0  0  0
  2  1  1  0  0  0  0
  2  3  1  0  0  0  0
  3 37  1  0  0  0  0
  4  3  2  0  0  0  0
  4  8  1  0  0  0  0
  5  4  1  0  0  0  0
  6  7  1  0  0  0  0
  6  5  2  0  0  0  0
  7  2  2  0  0  0  0
  9  5  1  0  0  0  0
 10  6  1  0  0  0  0
 11 18  1  0  0  0  0
 11  7  1  0  0  0  0
 12 11  2  0  0  0  0
 13 12  1  0  0  0  0
 14 16  2  0  0  0  0
 14 12  1  0  0  0  0
 15 14  1  0  0  0  0
 16 17  1  0  0  0  0
 17 18  2  0  0  0  0
 17 20  1  0  0  0  0
 18 19  1  0  0  0  0
 21 22  1  0  0  0  0
 21 20  1  0  0  0  0
 22 23  1  0  0  0  0
 24 25  1  0  0  0  0
 24 22  2  0  0  0  0
 26 24  1  0  0  0  0
 27 26  1  0  0  0  0
 28 26  2  0  0  0  0
 28 30  1  0  0  0  0
 29 28  1  0  0  0  0
 30 21  2  0  0  0  0
 31 30  1  0  0  0  0
 31 16  1  0  0  0  0
 32 31  1  0  0  0  0
 33 34  1  0  0  0  0
 34 35  2  0  0  0  0
 34 40  1  0  0  0  0
 35 41  1  0  0  0  0
 36 35  1  0  0  0  0
 37 36  2  0  0  0  0
 38 37  1  0  0  0  0
 38 33  2  0  0  0  0
 39 33  1  0  0  0  0
 41 44  1  0  0  0  0
 41 42  1  0  0  0  0
 43 41  1  0  0  0  0
M  END
>  <minimizedAffinity>
-6.09753561

>  <minimizedRMSD>
6.43528223

$$$$
