
     RDKit          3D

 44 48  0  0  0  0  0  0  0  0999 V2000
   47.5822   33.2254   43.3809 C   0  0  0  0  0  0  0  0  0  0  0  0
   46.6579   34.1233   43.9459 C   0  0  0  0  0  0  0  0  0  0  0  0
   45.9504   34.9509   43.0859 C   0  0  0  0  0  0  0  0  0  0  0  0
   46.1744   34.8642   41.7438 N   0  0  0  0  0  0  0  0  0  0  0  0
   47.0715   33.9903   41.2175 C   0  0  0  0  0  0  0  0  0  0  0  0
   47.7717   33.1738   42.0455 N   0  0  0  0  0  0  0  0  0  0  0  0
   45.1142   32.3065   39.7350 Cl  0  0  0  0  0  0  0  0  0  0  0  0
   46.4148   33.1796   39.0136 C   0  0  0  0  0  0  0  0  0  0  0  0
   47.2764   33.9352   39.7669 C   0  0  0  0  0  0  0  0  0  0  0  0
   48.3324   34.6484   39.2117 C   0  0  0  0  0  0  0  0  0  0  0  0
   48.4707   34.5554   37.8449 C   0  0  0  0  0  0  0  0  0  0  0  0
   47.6119   33.7996   37.0763 C   0  0  0  0  0  0  0  0  0  0  0  0
   46.5859   33.1114   37.6486 C   0  0  0  0  0  0  0  0  0  0  0  0
   44.9387   35.9484   43.5693 C   0  0  0  0  0  0  0  0  0  0  0  0
   45.2638   37.2102   43.1733 F   0  0  0  0  0  0  0  0  0  0  0  0
   43.7003   35.6175   43.0234 F   0  0  0  0  0  0  0  0  0  0  0  0
   44.8848   35.8351   44.9293 F   0  0  0  0  0  0  0  0  0  0  0  0
   48.1391   32.5758   44.0415 H   0  0  0  0  0  0  0  0  0  0  0  0
   46.4788   34.1934   45.0117 H   0  0  0  0  0  0  0  0  0  0  0  0
   49.0084   35.2443   39.8231 H   0  0  0  0  0  0  0  0  0  0  0  0
   49.3027   35.1200   37.4259 H   0  0  0  0  0  0  0  0  0  0  0  0
   47.8002   33.7868   36.0054 H   0  0  0  0  0  0  0  0  0  0  0  0
   45.7361   32.3431   36.7470 C   0  0  0  0  0  0  0  0  0  0  0  0
   46.3577   31.5814   35.7790 C   0  0  0  0  0  0  0  0  0  0  0  0
   47.4354   31.5697   35.7099 H   0  0  0  0  0  0  0  0  0  0  0  0
   45.5682   30.8527   34.9230 C   0  0  0  0  0  0  0  0  0  0  0  0
   46.1278   30.2679   34.1756 H   0  0  0  0  0  0  0  0  0  0  0  0
   44.1898   30.8077   34.9375 C   0  0  0  0  0  0  0  0  0  0  0  0
   43.6305   31.5850   35.9217 C   0  0  0  0  0  0  0  0  0  0  0  0
   44.3573   32.3275   36.7978 C   0  0  0  0  0  0  0  0  0  0  0  0
   43.8680   32.9262   37.5587 H   0  0  0  0  0  0  0  0  0  0  0  0
   41.8571   31.6291   36.0658 S   0  0  0  0  0  0  0  0  0  0  0  0
   41.2152   30.5661   34.7913 C   0  0  0  0  0  0  0  0  0  0  0  0
   39.8881   30.3856   34.6366 C   0  0  0  0  0  0  0  0  0  0  0  0
   39.1837   30.9024   35.3078 H   0  0  0  0  0  0  0  0  0  0  0  0
   39.3153   29.5740   33.6677 C   0  0  0  0  0  0  0  0  0  0  0  0
   38.2563   29.4104   33.5203 H   0  0  0  0  0  0  0  0  0  0  0  0
   40.2118   28.9259   32.8255 C   0  0  0  0  0  0  0  0  0  0  0  0
   39.8167   28.2835   32.0556 H   0  0  0  0  0  0  0  0  0  0  0  0
   41.5595   29.1249   33.0018 C   0  0  0  0  0  0  0  0  0  0  0  0
   42.1897   28.5709   32.2887 H   0  0  0  0  0  0  0  0  0  0  0  0
   42.0943   29.9400   33.9769 C   0  0  0  0  0  0  0  0  0  0  0  0
   43.5063   30.0094   33.9907 N   0  0  0  0  0  0  0  0  0  0  0  0
   44.0938   29.4820   33.3124 H   0  0  0  0  0  0  0  0  0  0  0  0
  1  2  2  0
  3 14  1  0
  3  2  1  0
  4  3  2  0
  5  4  1  0
  5  6  2  0
  6  1  1  0
  8  7  1  0
  8  9  2  0
  9  5  1  0
 10  9  1  0
 11 10  2  0
 12 13  2  0
 12 11  1  0
 13  8  1  0
 14 17  1  0
 15 14  1  0
 16 14  1  0
  1 18  1  0
  2 19  1  0
 10 20  1  0
 11 21  1  0
 12 22  1  0
 23 24  2  0
 24 25  1  0
 24 26  1  0
 26 27  1  0
 26 28  2  0
 28 29  1  0
 29 30  2  0
 30 31  1  0
 29 32  1  0
 32 33  1  0
 33 34  2  0
 34 35  1  0
 34 36  1  0
 36 37  1  0
 36 38  2  0
 38 39  1  0
 38 40  1  0
 40 41  1  0
 40 42  2  0
 42 43  1  0
 43 44  1  0
 30 23  1  0
 42 33  1  0
 43 28  1  0
 13 23  1  0
M  ISO  8  18  14  19  14  20  14  21  14  22  14  25  16  27  16  31  16
M  ISO  5  35  16  37  16  39  16  41  16  44   5
M  END
>  <DihAtoms>  (1) 
11,12,22,23

>  <DihDeg>  (1) 
44.99521503472306

$$$$
