
 OpenBabel03242519043D

 32 34  0  0  1  0  0  0  0  0999 V2000
   37.2230   30.7790   41.1160 N   0  0  0  0  0  0  0  0  0  0  0  0
   37.5720   29.7380   42.0650 C   0  0  0  0  0  0  0  0  0  0  0  0
   37.1340   28.5490   41.2790 C   0  0  2  0  0  0  0  0  0  0  0  0
   35.7460   28.9690   40.8310 C   0  0  0  0  0  0  0  0  0  0  0  0
   35.9260   30.4460   40.5730 C   0  0  0  0  0  0  0  0  0  0  0  0
   37.0550   29.8580   43.0270 H   0  0  0  0  0  0  0  0  0  0  0  0
   38.6720   29.7710   42.1480 H   0  0  0  0  0  0  0  0  0  0  0  0
   37.8050   28.4410   40.4010 H   0  0  0  0  0  0  0  0  0  0  0  0
   35.4910   28.3950   39.9120 H   0  0  0  0  0  0  0  0  0  0  0  0
   35.0290   28.7600   41.6440 H   0  0  0  0  0  0  0  0  0  0  0  0
   35.9800   30.5670   39.4620 H   0  0  0  0  0  0  0  0  0  0  0  0
   35.1180   31.0620   41.0120 H   0  0  0  0  0  0  0  0  0  0  0  0
   38.1640   34.1120   39.7250 C   0  0  0  0  0  0  0  0  0  0  0  0
   37.3690   33.0260   40.0660 C   0  0  0  0  0  0  0  0  0  0  0  0
   37.9350   31.9240   40.7300 C   0  0  0  0  0  0  0  0  0  0  0  0
   39.2720   31.9810   41.0140 N   0  0  0  0  0  0  0  0  0  0  0  0
   40.0270   33.0590   40.6680 C   0  0  0  0  0  0  0  0  0  0  0  0
   39.4670   34.1220   40.0240 N   0  0  0  0  0  0  0  0  0  0  0  0
   37.7550   34.9690   39.2160 H   0  0  0  0  0  0  0  0  0  0  0  0
   36.3220   32.9910   39.8390 H   0  0  0  0  0  0  0  0  0  0  0  0
   41.0810   32.9760   40.9540 H   0  0  0  0  0  0  0  0  0  0  0  0
   37.0080   27.3530   42.0490 N   0  0  0  0  0  0  0  0  0  0  0  0
   36.0570   27.1220   42.4580 H   0  0  0  0  0  0  0  0  0  0  0  0
   36.6280   24.6110   40.7920 Cl  0  0  0  0  0  0  0  0  0  0  0  0
   37.9240   25.0430   41.9210 C   0  0  0  0  0  0  0  0  0  0  0  0
   37.9370   26.3550   42.4030 C   0  0  0  0  0  0  0  0  0  0  0  0
   38.9800   26.5980   43.2720 C   0  0  0  0  0  0  0  0  0  0  0  0
   39.1490   27.5490   43.7320 H   0  0  0  0  0  0  0  0  0  0  0  0
   39.9300   25.6820   43.6570 C   0  0  0  0  0  0  0  0  0  0  0  0
   40.7450   25.8740   44.3380 H   0  0  0  0  0  0  0  0  0  0  0  0
   39.8690   24.4020   43.1510 C   0  0  0  0  0  3  0  0  0  0  0  0
   38.8570   24.1050   42.2850 C   0  0  0  0  0  3  0  0  0  0  0  0
  1  2  1  0  0  0  0
  2  7  1  0  0  0  0
  2  6  1  0  0  0  0
  3  8  1  6  0  0  0
  3 22  1  0  0  0  0
  3  2  1  0  0  0  0
  4  3  1  0  0  0  0
  4 10  1  0  0  0  0
  5  4  1  0  0  0  0
  5 12  1  0  0  0  0
  5  1  1  0  0  0  0
  9  4  1  0  0  0  0
 11  5  1  0  0  0  0
 13 18  2  0  0  0  0
 13 14  1  0  0  0  0
 14 15  2  0  0  0  0
 15 16  1  0  0  0  0
 15  1  1  0  0  0  0
 17 21  1  0  0  0  0
 17 16  2  0  0  0  0
 18 17  1  0  0  0  0
 19 13  1  0  0  0  0
 20 14  1  0  0  0  0
 22 26  1  0  0  0  0
 22 23  1  0  0  0  0
 24 25  1  0  0  0  0
 25 32  2  0  0  0  0
 25 26  1  0  0  0  0
 26 27  2  0  0  0  0
 27 29  1  0  0  0  0
 27 28  1  0  0  0  0
 29 30  1  0  0  0  0
 31 29  2  0  0  0  0
 32 31  1  0  0  0  0
M  END
>  <minimizedAffinity>
-5.47585917

$$$$

 OpenBabel03242519043D

 32 34  0  0  1  0  0  0  0  0999 V2000
   36.5070   30.0730   38.8160 N   0  0  0  0  0  0  0  0  0  0  0  0
   36.9230   29.2850   39.9610 C   0  0  0  0  0  0  0  0  0  0  0  0
   36.4660   30.1950   41.0490 C   0  0  2  0  0  0  0  0  0  0  0  0
   37.0240   31.5300   40.5910 C   0  0  0  0  0  0  0  0  0  0  0  0
   36.8590   31.4470   39.0920 C   0  0  0  0  0  0  0  0  0  0  0  0
   38.0040   29.0860   39.9630 H   0  0  0  0  0  0  0  0  0  0  0  0
   36.3060   28.3710   39.9280 H   0  0  0  0  0  0  0  0  0  0  0  0
   35.3560   30.2210   41.0450 H   0  0  0  0  0  0  0  0  0  0  0  0
   36.4120   32.3370   41.0510 H   0  0  0  0  0  0  0  0  0  0  0  0
   38.0810   31.6030   40.9020 H   0  0  0  0  0  0  0  0  0  0  0  0
   35.9760   32.0830   38.8360 H   0  0  0  0  0  0  0  0  0  0  0  0
   37.7650   31.7660   38.5400 H   0  0  0  0  0  0  0  0  0  0  0  0
   34.0640   28.7470   36.3260 C   0  0  0  0  0  0  0  0  0  0  0  0
   34.5960   29.1080   37.5570 C   0  0  0  0  0  0  0  0  0  0  0  0
   35.8790   29.6770   37.6270 C   0  0  0  0  0  0  0  0  0  0  0  0
   36.5530   29.8500   36.4490 N   0  0  0  0  0  0  0  0  0  0  0  0
   36.0070   29.4870   35.2570 C   0  0  0  0  0  0  0  0  0  0  0  0
   34.7620   28.9360   35.2010 N   0  0  0  0  0  0  0  0  0  0  0  0
   33.0830   28.3090   36.2450 H   0  0  0  0  0  0  0  0  0  0  0  0
   34.0590   28.9680   38.4740 H   0  0  0  0  0  0  0  0  0  0  0  0
   36.6530   29.6810   34.3930 H   0  0  0  0  0  0  0  0  0  0  0  0
   37.0220   29.9000   42.3310 N   0  0  0  0  0  0  0  0  0  0  0  0
   36.5930   30.3690   43.1800 H   0  0  0  0  0  0  0  0  0  0  0  0
   36.2850   27.2300   43.5840 Cl  0  0  0  0  0  0  0  0  0  0  0  0
   37.9390   27.8060   43.3160 C   0  0  0  0  0  0  0  0  0  0  0  0
   38.0860   29.0680   42.7310 C   0  0  0  0  0  0  0  0  0  0  0  0
   39.4060   29.4300   42.5600 C   0  0  0  0  0  0  0  0  0  0  0  0
   39.7050   30.3580   42.1210 H   0  0  0  0  0  0  0  0  0  0  0  0
   40.4950   28.6710   42.9130 C   0  0  0  0  0  0  0  0  0  0  0  0
   41.5280   28.9560   42.7790 H   0  0  0  0  0  0  0  0  0  0  0  0
   40.2930   27.4350   43.4880 C   0  0  0  0  0  3  0  0  0  0  0  0
   39.0050   27.0240   43.6800 C   0  0  0  0  0  3  0  0  0  0  0  0
  1  5  1  0  0  0  0
  1  2  1  0  0  0  0
  2  6  1  0  0  0  0
  2  3  1  0  0  0  0
  3  8  1  1  0  0  0
  3 22  1  0  0  0  0
  4 10  1  0  0  0  0
  4  3  1  0  0  0  0
  4  9  1  0  0  0  0
  5  4  1  0  0  0  0
  7  2  1  0  0  0  0
 11  5  1  0  0  0  0
 12  5  1  0  0  0  0
 13 14  1  0  0  0  0
 14 15  2  0  0  0  0
 14 20  1  0  0  0  0
 15  1  1  0  0  0  0
 16 15  1  0  0  0  0
 17 16  2  0  0  0  0
 18 17  1  0  0  0  0
 18 13  2  0  0  0  0
 19 13  1  0  0  0  0
 21 17  1  0  0  0  0
 22 26  1  0  0  0  0
 22 23  1  0  0  0  0
 25 24  1  0  0  0  0
 25 32  1  0  0  0  0
 26 25  2  0  0  0  0
 27 26  1  0  0  0  0
 27 29  2  0  0  0  0
 28 27  1  0  0  0  0
 29 31  1  0  0  0  0
 30 29  1  0  0  0  0
 31 32  2  0  0  0  0
M  END
>  <minimizedAffinity>
-5.46158266

$$$$

 OpenBabel03242519043D

 32 34  0  0  1  0  0  0  0  0999 V2000
   36.5020   30.0980   38.2730 N   0  0  0  0  0  0  0  0  0  0  0  0
   36.6910   29.3410   39.4970 C   0  0  0  0  0  0  0  0  0  0  0  0
   36.1900   30.3490   40.4740 C   0  0  2  0  0  0  0  0  0  0  0  0
   36.9280   31.6000   40.0340 C   0  0  0  0  0  0  0  0  0  0  0  0
   36.9470   31.4480   38.5320 C   0  0  0  0  0  0  0  0  0  0  0  0
   37.7380   29.0460   39.6500 H   0  0  0  0  0  0  0  0  0  0  0  0
   35.9970   28.4860   39.4230 H   0  0  0  0  0  0  0  0  0  0  0  0
   35.0970   30.4750   40.3230 H   0  0  0  0  0  0  0  0  0  0  0  0
   36.3440   32.4840   40.3740 H   0  0  0  0  0  0  0  0  0  0  0  0
   37.9390   31.5940   40.4790 H   0  0  0  0  0  0  0  0  0  0  0  0
   36.1700   32.1460   38.1350 H   0  0  0  0  0  0  0  0  0  0  0  0
   37.9430   31.6520   38.0910 H   0  0  0  0  0  0  0  0  0  0  0  0
   34.3550   28.6750   35.5730 C   0  0  0  0  0  0  0  0  0  0  0  0
   34.7660   29.0350   36.8500 C   0  0  0  0  0  0  0  0  0  0  0  0
   35.9950   29.6930   37.0300 C   0  0  0  0  0  0  0  0  0  0  0  0
   36.7390   29.9510   35.9120 N   0  0  0  0  0  0  0  0  0  0  0  0
   36.3110   29.5860   34.6730 C   0  0  0  0  0  0  0  0  0  0  0  0
   35.1180   28.9490   34.5090 N   0  0  0  0  0  0  0  0  0  0  0  0
   33.4180   28.1700   35.4070 H   0  0  0  0  0  0  0  0  0  0  0  0
   34.1750   28.8290   37.7190 H   0  0  0  0  0  0  0  0  0  0  0  0
   37.0020   29.8530   33.8650 H   0  0  0  0  0  0  0  0  0  0  0  0
   36.5480   30.0770   41.8300 N   0  0  0  0  0  0  0  0  0  0  0  0
   36.1750   30.7250   42.5830 H   0  0  0  0  0  0  0  0  0  0  0  0
   39.4760   30.7370   42.3090 Cl  0  0  0  0  0  0  0  0  0  0  0  0
   38.7000   29.1970   42.7150 C   0  0  0  0  0  0  0  0  0  0  0  0
   37.3400   29.0700   42.4140 C   0  0  0  0  0  0  0  0  0  0  0  0
   36.8240   27.8400   42.7660 C   0  0  0  0  0  0  0  0  0  0  0  0
   35.8010   27.5720   42.6170 H   0  0  0  0  0  0  0  0  0  0  0  0
   37.5290   26.8150   43.3490 C   0  0  0  0  0  0  0  0  0  0  0  0
   37.1240   25.8530   43.6230 H   0  0  0  0  0  0  0  0  0  0  0  0
   38.8690   26.9930   43.6220 C   0  0  0  0  0  3  0  0  0  0  0  0
   39.4330   28.1920   43.2960 C   0  0  0  0  0  3  0  0  0  0  0  0
  1  5  1  0  0  0  0
  1  2  1  0  0  0  0
  2  6  1  0  0  0  0
  2  3  1  0  0  0  0
  3  8  1  6  0  0  0
  3 22  1  0  0  0  0
  4  9  1  0  0  0  0
  4  3  1  0  0  0  0
  4 10  1  0  0  0  0
  5  4  1  0  0  0  0
  7  2  1  0  0  0  0
 11  5  1  0  0  0  0
 12  5  1  0  0  0  0
 13 14  1  0  0  0  0
 14 15  2  0  0  0  0
 14 20  1  0  0  0  0
 15  1  1  0  0  0  0
 16 15  1  0  0  0  0
 17 16  2  0  0  0  0
 18 17  1  0  0  0  0
 18 13  2  0  0  0  0
 19 13  1  0  0  0  0
 21 17  1  0  0  0  0
 22 26  1  0  0  0  0
 22 23  1  0  0  0  0
 24 25  1  0  0  0  0
 25 32  1  0  0  0  0
 26 25  2  0  0  0  0
 26 27  1  0  0  0  0
 27 29  2  0  0  0  0
 28 27  1  0  0  0  0
 29 31  1  0  0  0  0
 29 30  1  0  0  0  0
 32 31  2  0  0  0  0
M  END
>  <minimizedAffinity>
-5.10834265

$$$$

 OpenBabel03242519043D

 32 34  0  0  1  0  0  0  0  0999 V2000
   36.1540   29.5030   38.7450 N   0  0  0  0  0  0  0  0  0  0  0  0
   36.5090   28.4410   39.6690 C   0  0  0  0  0  0  0  0  0  0  0  0
   35.7850   28.9310   40.8760 C   0  0  2  0  0  0  0  0  0  0  0  0
   36.2140   30.3860   40.9260 C   0  0  0  0  0  0  0  0  0  0  0  0
   36.2740   30.7520   39.4620 C   0  0  0  0  0  0  0  0  0  0  0  0
   37.5950   28.3470   39.8020 H   0  0  0  0  0  0  0  0  0  0  0  0
   36.0320   27.5310   39.2680 H   0  0  0  0  0  0  0  0  0  0  0  0
   34.6930   28.8600   40.6870 H   0  0  0  0  0  0  0  0  0  0  0  0
   35.4400   30.9570   41.4850 H   0  0  0  0  0  0  0  0  0  0  0  0
   37.1980   30.4520   41.4240 H   0  0  0  0  0  0  0  0  0  0  0  0
   35.3570   31.3560   39.2500 H   0  0  0  0  0  0  0  0  0  0  0  0
   37.1960   31.3020   39.1920 H   0  0  0  0  0  0  0  0  0  0  0  0
   34.2080   28.9570   35.6070 C   0  0  0  0  0  0  0  0  0  0  0  0
   34.5000   28.9860   36.9650 C   0  0  0  0  0  0  0  0  0  0  0  0
   35.7580   29.4360   37.4020 C   0  0  0  0  0  0  0  0  0  0  0  0
   36.6500   29.8310   36.4430 N   0  0  0  0  0  0  0  0  0  0  0  0
   36.3360   29.7920   35.1190 C   0  0  0  0  0  0  0  0  0  0  0  0
   35.1130   29.3540   34.7080 N   0  0  0  0  0  0  0  0  0  0  0  0
   33.2520   28.6170   35.2470 H   0  0  0  0  0  0  0  0  0  0  0  0
   33.7930   28.6740   37.7080 H   0  0  0  0  0  0  0  0  0  0  0  0
   37.1400   30.1370   34.4600 H   0  0  0  0  0  0  0  0  0  0  0  0
   36.1910   28.3080   42.0950 N   0  0  0  0  0  0  0  0  0  0  0  0
   35.6100   28.4880   42.9640 H   0  0  0  0  0  0  0  0  0  0  0  0
   38.6960   29.6080   43.2240 Cl  0  0  0  0  0  0  0  0  0  0  0  0
   38.4900   27.8710   42.9400 C   0  0  0  0  0  0  0  0  0  0  0  0
   37.2670   27.4540   42.4070 C   0  0  0  0  0  0  0  0  0  0  0  0
   37.1990   26.0890   42.2220 C   0  0  0  0  0  0  0  0  0  0  0  0
   36.3350   25.5950   41.8310 H   0  0  0  0  0  0  0  0  0  0  0  0
   38.1990   25.1920   42.5120 C   0  0  0  0  0  0  0  0  0  0  0  0
   38.1440   24.1240   42.3660 H   0  0  0  0  0  0  0  0  0  0  0  0
   39.3860   25.6580   43.0350 C   0  0  0  0  0  3  0  0  0  0  0  0
   39.5090   27.0020   43.2400 C   0  0  0  0  0  3  0  0  0  0  0  0
  1  5  1  0  0  0  0
  1  2  1  0  0  0  0
  2  6  1  0  0  0  0
  2  3  1  0  0  0  0
  3  8  1  6  0  0  0
  3  4  1  0  0  0  0
  3 22  1  0  0  0  0
  4 10  1  0  0  0  0
  4  9  1  0  0  0  0
  5  4  1  0  0  0  0
  7  2  1  0  0  0  0
 11  5  1  0  0  0  0
 12  5  1  0  0  0  0
 13 14  1  0  0  0  0
 14 15  2  0  0  0  0
 14 20  1  0  0  0  0
 15  1  1  0  0  0  0
 16 15  1  0  0  0  0
 17 16  2  0  0  0  0
 18 17  1  0  0  0  0
 18 13  2  0  0  0  0
 19 13  1  0  0  0  0
 21 17  1  0  0  0  0
 22 26  1  0  0  0  0
 22 23  1  0  0  0  0
 25 24  1  0  0  0  0
 25 32  1  0  0  0  0
 26 25  2  0  0  0  0
 27 26  1  0  0  0  0
 27 29  2  0  0  0  0
 28 27  1  0  0  0  0
 29 31  1  0  0  0  0
 30 29  1  0  0  0  0
 31 32  2  0  0  0  0
M  END
>  <minimizedAffinity>
-5.00774622

$$$$

 OpenBabel03242519043D

 32 34  0  0  1  0  0  0  0  0999 V2000
   38.2250   31.0380   41.3600 N   0  0  0  0  0  0  0  0  0  0  0  0
   38.3410   29.8670   42.2090 C   0  0  0  0  0  0  0  0  0  0  0  0
   37.5770   28.8960   41.3750 C   0  0  2  0  0  0  0  0  0  0  0  0
   36.3230   29.6870   41.0510 C   0  0  0  0  0  0  0  0  0  0  0  0
   36.8620   31.0880   40.8840 C   0  0  0  0  0  0  0  0  0  0  0  0
   37.9190   30.0310   43.2100 H   0  0  0  0  0  0  0  0  0  0  0  0
   39.4160   29.6160   42.2190 H   0  0  0  0  0  0  0  0  0  0  0  0
   38.1540   28.6970   40.4470 H   0  0  0  0  0  0  0  0  0  0  0  0
   35.8850   29.2750   40.1150 H   0  0  0  0  0  0  0  0  0  0  0  0
   35.6160   29.5980   41.8960 H   0  0  0  0  0  0  0  0  0  0  0  0
   36.8910   31.2850   39.7840 H   0  0  0  0  0  0  0  0  0  0  0  0
   36.2600   31.8480   41.4190 H   0  0  0  0  0  0  0  0  0  0  0  0
   41.4420   32.8360   40.7720 C   0  0  0  0  0  0  0  0  0  0  0  0
   40.5730   31.8210   41.1530 C   0  0  0  0  0  0  0  0  0  0  0  0
   39.1860   31.9950   41.0070 C   0  0  0  0  0  0  0  0  0  0  0  0
   38.7550   33.1840   40.4840 N   0  0  0  0  0  0  0  0  0  0  0  0
   39.6290   34.1600   40.1190 C   0  0  0  0  0  0  0  0  0  0  0  0
   40.9720   33.9810   40.2660 N   0  0  0  0  0  0  0  0  0  0  0  0
   42.5090   32.7280   40.8740 H   0  0  0  0  0  0  0  0  0  0  0  0
   40.9220   30.8940   41.5610 H   0  0  0  0  0  0  0  0  0  0  0  0
   39.1520   35.0600   39.7150 H   0  0  0  0  0  0  0  0  0  0  0  0
   37.1870   27.7100   42.0670 N   0  0  0  0  0  0  0  0  0  0  0  0
   36.4410   27.7930   42.8160 H   0  0  0  0  0  0  0  0  0  0  0  0
   39.6360   26.9080   43.6800 Cl  0  0  0  0  0  0  0  0  0  0  0  0
   38.7070   25.8220   42.6310 C   0  0  0  0  0  0  0  0  0  0  0  0
   37.6100   26.3710   41.9600 C   0  0  0  0  0  0  0  0  0  0  0  0
   36.9490   25.4530   41.1700 C   0  0  0  0  0  0  0  0  0  0  0  0
   36.0840   25.6950   40.5910 H   0  0  0  0  0  0  0  0  0  0  0  0
   37.2930   24.1310   41.0240 C   0  0  0  0  0  0  0  0  0  0  0  0
   36.7760   23.4130   40.4050 H   0  0  0  0  0  0  0  0  0  0  0  0
   38.3850   23.6420   41.7080 C   0  0  0  0  0  3  0  0  0  0  0  0
   39.0770   24.5070   42.5060 C   0  0  0  0  0  3  0  0  0  0  0  0
  1  2  1  0  0  0  0
  2  7  1  0  0  0  0
  2  6  1  0  0  0  0
  3  8  1  6  0  0  0
  3 22  1  0  0  0  0
  3  2  1  0  0  0  0
  4  3  1  0  0  0  0
  4 10  1  0  0  0  0
  5  4  1  0  0  0  0
  5  1  1  0  0  0  0
  5 12  1  0  0  0  0
  9  4  1  0  0  0  0
 11  5  1  0  0  0  0
 13 19  1  0  0  0  0
 13 14  1  0  0  0  0
 14 20  1  0  0  0  0
 15 14  2  0  0  0  0
 15  1  1  0  0  0  0
 16 15  1  0  0  0  0
 17 18  1  0  0  0  0
 17 16  2  0  0  0  0
 18 13  2  0  0  0  0
 21 17  1  0  0  0  0
 22 23  1  0  0  0  0
 25 24  1  0  0  0  0
 26 22  1  0  0  0  0
 26 25  2  0  0  0  0
 27 26  1  0  0  0  0
 28 27  1  0  0  0  0
 29 27  2  0  0  0  0
 29 31  1  0  0  0  0
 30 29  1  0  0  0  0
 31 32  2  0  0  0  0
 32 25  1  0  0  0  0
M  END
>  <minimizedAffinity>
-4.95401144

$$$$

 OpenBabel03242519043D

 32 34  0  0  1  0  0  0  0  0999 V2000
   35.1470   28.9290   38.4870 N   0  0  0  0  0  0  0  0  0  0  0  0
   35.4480   28.6260   39.8740 C   0  0  0  0  0  0  0  0  0  0  0  0
   35.6710   30.0130   40.3730 C   0  0  2  0  0  0  0  0  0  0  0  0
   36.6100   30.5730   39.3200 C   0  0  0  0  0  0  0  0  0  0  0  0
   36.0880   29.9360   38.0540 C   0  0  0  0  0  0  0  0  0  0  0  0
   36.3190   27.9630   39.9780 H   0  0  0  0  0  0  0  0  0  0  0  0
   34.5190   28.2030   40.2910 H   0  0  0  0  0  0  0  0  0  0  0  0
   34.7030   30.5550   40.3510 H   0  0  0  0  0  0  0  0  0  0  0  0
   36.5100   31.6810   39.3220 H   0  0  0  0  0  0  0  0  0  0  0  0
   37.6430   30.2650   39.5610 H   0  0  0  0  0  0  0  0  0  0  0  0
   35.5140   30.7300   37.5150 H   0  0  0  0  0  0  0  0  0  0  0  0
   36.8920   29.5120   37.4210 H   0  0  0  0  0  0  0  0  0  0  0  0
   32.1490   28.5270   36.3000 C   0  0  0  0  0  0  0  0  0  0  0  0
   33.0780   29.1440   37.1280 C   0  0  0  0  0  0  0  0  0  0  0  0
   34.1570   28.4050   37.6430 C   0  0  0  0  0  0  0  0  0  0  0  0
   34.2380   27.0850   37.2920 N   0  0  0  0  0  0  0  0  0  0  0  0
   33.3130   26.5070   36.4780 C   0  0  0  0  0  0  0  0  0  0  0  0
   32.2710   27.2330   35.9850 N   0  0  0  0  0  0  0  0  0  0  0  0
   31.3130   29.0710   35.8930 H   0  0  0  0  0  0  0  0  0  0  0  0
   33.0050   30.1780   37.3970 H   0  0  0  0  0  0  0  0  0  0  0  0
   33.4970   25.4460   36.2760 H   0  0  0  0  0  0  0  0  0  0  0  0
   36.3320   30.0800   41.6370 N   0  0  0  0  0  0  0  0  0  0  0  0
   36.0730   30.8740   42.2920 H   0  0  0  0  0  0  0  0  0  0  0  0
   39.1810   31.1410   41.6280 Cl  0  0  0  0  0  0  0  0  0  0  0  0
   38.6720   29.5950   42.3290 C   0  0  0  0  0  0  0  0  0  0  0  0
   37.3160   29.2680   42.2340 C   0  0  0  0  0  0  0  0  0  0  0  0
   37.0150   28.0510   42.8070 C   0  0  0  0  0  0  0  0  0  0  0  0
   36.0260   27.6460   42.8330 H   0  0  0  0  0  0  0  0  0  0  0  0
   37.9140   27.2100   43.4160 C   0  0  0  0  0  0  0  0  0  0  0  0
   37.6770   26.2560   43.8640 H   0  0  0  0  0  0  0  0  0  0  0  0
   39.2400   27.5800   43.4810 C   0  0  0  0  0  3  0  0  0  0  0  0
   39.5960   28.7770   42.9300 C   0  0  0  0  0  3  0  0  0  0  0  0
  1  2  1  0  0  0  0
  2  6  1  0  0  0  0
  2  7  1  0  0  0  0
  2  3  1  0  0  0  0
  3  8  1  1  0  0  0
  3 22  1  0  0  0  0
  4  9  1  0  0  0  0
  4 10  1  0  0  0  0
  4  3  1  0  0  0  0
  5  1  1  0  0  0  0
  5  4  1  0  0  0  0
 11  5  1  0  0  0  0
 12  5  1  0  0  0  0
 13 14  1  0  0  0  0
 14 20  1  0  0  0  0
 14 15  2  0  0  0  0
 15  1  1  0  0  0  0
 16 15  1  0  0  0  0
 17 16  2  0  0  0  0
 18 13  2  0  0  0  0
 18 17  1  0  0  0  0
 19 13  1  0  0  0  0
 21 17  1  0  0  0  0
 22 26  1  0  0  0  0
 22 23  1  0  0  0  0
 24 25  1  0  0  0  0
 25 32  1  0  0  0  0
 26 25  2  0  0  0  0
 26 27  1  0  0  0  0
 27 28  1  0  0  0  0
 27 29  2  0  0  0  0
 29 31  1  0  0  0  0
 29 30  1  0  0  0  0
 32 31  2  0  0  0  0
M  END
>  <minimizedAffinity>
-4.91414881

$$$$

 OpenBabel03242519043D

 32 34  0  0  1  0  0  0  0  0999 V2000
   37.9060   31.0980   41.1350 N   0  0  0  0  0  0  0  0  0  0  0  0
   37.9060   29.8510   41.8770 C   0  0  0  0  0  0  0  0  0  0  0  0
   37.1030   29.0190   40.9360 C   0  0  2  0  0  0  0  0  0  0  0  0
   35.9220   29.9280   40.6490 C   0  0  0  0  0  0  0  0  0  0  0  0
   36.5680   31.2940   40.6260 C   0  0  0  0  0  0  0  0  0  0  0  0
   37.4610   29.9580   42.8760 H   0  0  0  0  0  0  0  0  0  0  0  0
   38.9580   29.5190   41.8950 H   0  0  0  0  0  0  0  0  0  0  0  0
   37.6970   28.8590   40.0120 H   0  0  0  0  0  0  0  0  0  0  0  0
   35.4900   29.6350   39.6670 H   0  0  0  0  0  0  0  0  0  0  0  0
   35.1810   29.8190   41.4610 H   0  0  0  0  0  0  0  0  0  0  0  0
   36.6520   31.5840   39.5500 H   0  0  0  0  0  0  0  0  0  0  0  0
   36.0050   32.0470   41.2100 H   0  0  0  0  0  0  0  0  0  0  0  0
   39.8630   34.1610   40.2890 C   0  0  0  0  0  0  0  0  0  0  0  0
   38.7610   33.3420   40.4990 C   0  0  0  0  0  0  0  0  0  0  0  0
   38.9470   32.0070   40.8980 C   0  0  0  0  0  0  0  0  0  0  0  0
   40.2340   31.5740   41.0630 N   0  0  0  0  0  0  0  0  0  0  0  0
   41.2950   32.4000   40.8500 C   0  0  0  0  0  0  0  0  0  0  0  0
   41.1030   33.6920   40.4630 N   0  0  0  0  0  0  0  0  0  0  0  0
   39.7490   35.1870   39.9820 H   0  0  0  0  0  0  0  0  0  0  0  0
   37.7570   33.6910   40.3670 H   0  0  0  0  0  0  0  0  0  0  0  0
   42.2690   31.9270   41.0180 H   0  0  0  0  0  0  0  0  0  0  0  0
   36.6020   27.8090   41.5060 N   0  0  0  0  0  0  0  0  0  0  0  0
   35.8230   27.8820   42.2220 H   0  0  0  0  0  0  0  0  0  0  0  0
   36.0400   26.6380   38.7570 Cl  0  0  0  0  0  0  0  0  0  0  0  0
   36.7680   25.7550   40.1100 C   0  0  0  0  0  0  0  0  0  0  0  0
   36.9450   26.4580   41.3060 C   0  0  0  0  0  0  0  0  0  0  0  0
   37.5180   25.6910   42.3000 C   0  0  0  0  0  0  0  0  0  0  0  0
   37.7350   26.0680   43.2770 H   0  0  0  0  0  0  0  0  0  0  0  0
   37.8910   24.3740   42.1780 C   0  0  0  0  0  0  0  0  0  0  0  0
   38.3380   23.7760   42.9570 H   0  0  0  0  0  0  0  0  0  0  0  0
   37.6910   23.7290   40.9770 C   0  0  0  0  0  3  0  0  0  0  0  0
   37.1280   24.4400   39.9570 C   0  0  0  0  0  3  0  0  0  0  0  0
  1  2  1  0  0  0  0
  2  7  1  0  0  0  0
  2  6  1  0  0  0  0
  3  8  1  6  0  0  0
  3 22  1  0  0  0  0
  3  2  1  0  0  0  0
  4  3  1  0  0  0  0
  4 10  1  0  0  0  0
  5  4  1  0  0  0  0
  5  1  1  0  0  0  0
  5 12  1  0  0  0  0
  9  4  1  0  0  0  0
 11  5  1  0  0  0  0
 13 18  2  0  0  0  0
 13 14  1  0  0  0  0
 14 15  2  0  0  0  0
 15 16  1  0  0  0  0
 15  1  1  0  0  0  0
 17 21  1  0  0  0  0
 17 16  2  0  0  0  0
 18 17  1  0  0  0  0
 19 13  1  0  0  0  0
 20 14  1  0  0  0  0
 22 23  1  0  0  0  0
 24 25  1  0  0  0  0
 25 26  1  0  0  0  0
 26 22  1  0  0  0  0
 26 27  2  0  0  0  0
 27 28  1  0  0  0  0
 29 27  1  0  0  0  0
 29 30  1  0  0  0  0
 31 29  2  0  0  0  0
 32 25  2  0  0  0  0
 32 31  1  0  0  0  0
M  END
>  <minimizedAffinity>
-4.90777159

$$$$

 OpenBabel03242519043D

 32 34  0  0  1  0  0  0  0  0999 V2000
   37.8100   29.1520   41.3690 N   0  0  0  0  0  0  0  0  0  0  0  0
   37.7090   27.7340   41.0780 C   0  0  0  0  0  0  0  0  0  0  0  0
   36.9660   27.2990   42.2950 C   0  0  2  0  0  0  0  0  0  0  0  0
   37.7640   27.9640   43.4000 C   0  0  0  0  0  0  0  0  0  0  0  0
   38.1520   29.2790   42.7670 C   0  0  0  0  0  0  0  0  0  0  0  0
   38.6940   27.2600   40.9570 H   0  0  0  0  0  0  0  0  0  0  0  0
   37.0710   27.6630   40.1810 H   0  0  0  0  0  0  0  0  0  0  0  0
   35.9410   27.7230   42.2530 H   0  0  0  0  0  0  0  0  0  0  0  0
   37.0980   28.0870   44.2830 H   0  0  0  0  0  0  0  0  0  0  0  0
   38.6360   27.3320   43.6430 H   0  0  0  0  0  0  0  0  0  0  0  0
   37.4810   30.0540   43.2140 H   0  0  0  0  0  0  0  0  0  0  0  0
   39.2210   29.5300   42.9150 H   0  0  0  0  0  0  0  0  0  0  0  0
   37.0330   31.3490   38.4530 C   0  0  0  0  0  0  0  0  0  0  0  0
   37.1780   30.1870   39.2010 C   0  0  0  0  0  0  0  0  0  0  0  0
   37.6290   30.2610   40.5310 C   0  0  0  0  0  0  0  0  0  0  0  0
   37.9070   31.5030   41.0300 N   0  0  0  0  0  0  0  0  0  0  0  0
   37.7560   32.6250   40.2740 C   0  0  0  0  0  0  0  0  0  0  0  0
   37.3190   32.5410   38.9860 N   0  0  0  0  0  0  0  0  0  0  0  0
   36.6900   31.3190   37.4330 H   0  0  0  0  0  0  0  0  0  0  0  0
   36.9560   29.2180   38.8000 H   0  0  0  0  0  0  0  0  0  0  0  0
   38.0140   33.5530   40.7960 H   0  0  0  0  0  0  0  0  0  0  0  0
   36.9880   25.8880   42.5200 N   0  0  0  0  0  0  0  0  0  0  0  0
   36.8030   25.5390   43.5050 H   0  0  0  0  0  0  0  0  0  0  0  0
   39.6800   24.4960   42.7550 Cl  0  0  0  0  0  0  0  0  0  0  0  0
   38.3900   24.0350   41.6310 C   0  0  0  0  0  0  0  0  0  0  0  0
   37.2180   24.7980   41.6600 C   0  0  0  0  0  0  0  0  0  0  0  0
   36.2730   24.3640   40.7540 C   0  0  0  0  0  0  0  0  0  0  0  0
   35.3150   24.8250   40.6440 H   0  0  0  0  0  0  0  0  0  0  0  0
   36.4190   23.3040   39.8920 C   0  0  0  0  0  0  0  0  0  0  0  0
   35.6780   22.9670   39.1830 H   0  0  0  0  0  0  0  0  0  0  0  0
   37.5950   22.5870   39.9050 C   0  0  0  0  0  3  0  0  0  0  0  0
   38.5670   22.9710   40.7830 C   0  0  0  0  0  3  0  0  0  0  0  0
  1  5  1  0  0  0  0
  2  1  1  0  0  0  0
  2  3  1  0  0  0  0
  3  8  1  6  0  0  0
  3 22  1  0  0  0  0
  3  4  1  0  0  0  0
  4 10  1  0  0  0  0
  4  9  1  0  0  0  0
  5 12  1  0  0  0  0
  5 11  1  0  0  0  0
  5  4  1  0  0  0  0
  6  2  1  0  0  0  0
  7  2  1  0  0  0  0
 13 18  2  0  0  0  0
 13 14  1  0  0  0  0
 14 15  2  0  0  0  0
 15 16  1  0  0  0  0
 15  1  1  0  0  0  0
 17 21  1  0  0  0  0
 17 16  2  0  0  0  0
 18 17  1  0  0  0  0
 19 13  1  0  0  0  0
 20 14  1  0  0  0  0
 22 23  1  0  0  0  0
 25 26  1  0  0  0  0
 25 24  1  0  0  0  0
 26 22  1  0  0  0  0
 27 26  2  0  0  0  0
 28 27  1  0  0  0  0
 29 31  2  0  0  0  0
 29 27  1  0  0  0  0
 30 29  1  0  0  0  0
 31 32  1  0  0  0  0
 32 25  2  0  0  0  0
M  END
>  <minimizedAffinity>
-4.90602255

$$$$

 OpenBabel03242519043D

 32 34  0  0  1  0  0  0  0  0999 V2000
   38.3150   31.4640   38.6820 N   0  0  0  0  0  0  0  0  0  0  0  0
   37.7980   30.7410   39.8290 C   0  0  0  0  0  0  0  0  0  0  0  0
   37.4100   29.4720   39.1490 C   0  0  2  0  0  0  0  0  0  0  0  0
   36.6350   29.9870   37.9510 C   0  0  0  0  0  0  0  0  0  0  0  0
   37.4040   31.2340   37.5840 C   0  0  0  0  0  0  0  0  0  0  0  0
   36.9630   31.2660   40.3140 H   0  0  0  0  0  0  0  0  0  0  0  0
   38.6650   30.5820   40.4920 H   0  0  0  0  0  0  0  0  0  0  0  0
   38.3340   28.9540   38.8150 H   0  0  0  0  0  0  0  0  0  0  0  0
   36.6670   29.2080   37.1570 H   0  0  0  0  0  0  0  0  0  0  0  0
   35.5960   30.2000   38.2610 H   0  0  0  0  0  0  0  0  0  0  0  0
   38.0130   30.9750   36.6840 H   0  0  0  0  0  0  0  0  0  0  0  0
   36.7470   32.1060   37.3970 H   0  0  0  0  0  0  0  0  0  0  0  0
   41.5320   32.9510   37.5120 C   0  0  0  0  0  0  0  0  0  0  0  0
   40.4250   32.1130   37.5430 C   0  0  0  0  0  0  0  0  0  0  0  0
   39.4640   32.2570   38.5590 C   0  0  0  0  0  0  0  0  0  0  0  0
   39.6750   33.2410   39.4860 N   0  0  0  0  0  0  0  0  0  0  0  0
   40.7690   34.0490   39.4310 C   0  0  0  0  0  0  0  0  0  0  0  0
   41.6940   33.8990   38.4410 N   0  0  0  0  0  0  0  0  0  0  0  0
   42.2830   32.8610   36.7450 H   0  0  0  0  0  0  0  0  0  0  0  0
   40.2700   31.3450   36.8120 H   0  0  0  0  0  0  0  0  0  0  0  0
   40.8140   34.7940   40.2330 H   0  0  0  0  0  0  0  0  0  0  0  0
   36.5390   28.6400   39.9160 N   0  0  0  0  0  0  0  0  0  0  0  0
   35.5560   28.9920   40.1080 H   0  0  0  0  0  0  0  0  0  0  0  0
   37.1730   28.5930   42.8890 Cl  0  0  0  0  0  0  0  0  0  0  0  0
   37.0070   27.1600   41.8610 C   0  0  0  0  0  0  0  0  0  0  0  0
   36.7190   27.3760   40.5090 C   0  0  0  0  0  0  0  0  0  0  0  0
   36.6080   26.2040   39.7900 C   0  0  0  0  0  0  0  0  0  0  0  0
   36.3830   26.1790   38.7450 H   0  0  0  0  0  0  0  0  0  0  0  0
   36.7580   24.9370   40.2990 C   0  0  0  0  0  0  0  0  0  0  0  0
   36.6710   24.0210   39.7340 H   0  0  0  0  0  0  0  0  0  0  0  0
   37.0430   24.7810   41.6380 C   0  0  0  0  0  3  0  0  0  0  0  0
   37.1640   25.9080   42.3990 C   0  0  0  0  0  3  0  0  0  0  0  0
  1  2  1  0  0  0  0
  2  6  1  0  0  0  0
  2  7  1  0  0  0  0
  3  8  1  6  0  0  0
  3  2  1  0  0  0  0
  3 22  1  0  0  0  0
  4 10  1  0  0  0  0
  4  3  1  0  0  0  0
  5  4  1  0  0  0  0
  5  1  1  0  0  0  0
  9  4  1  0  0  0  0
 11  5  1  0  0  0  0
 12  5  1  0  0  0  0
 13 14  2  0  0  0  0
 13 18  1  0  0  0  0
 14 15  1  0  0  0  0
 15  1  1  0  0  0  0
 15 16  2  0  0  0  0
 17 16  1  0  0  0  0
 17 21  1  0  0  0  0
 18 17  2  0  0  0  0
 19 13  1  0  0  0  0
 20 14  1  0  0  0  0
 22 23  1  0  0  0  0
 22 26  1  0  0  0  0
 25 32  1  0  0  0  0
 25 24  1  0  0  0  0
 26 25  2  0  0  0  0
 27 29  2  0  0  0  0
 27 26  1  0  0  0  0
 28 27  1  0  0  0  0
 29 31  1  0  0  0  0
 30 29  1  0  0  0  0
 31 32  2  0  0  0  0
M  END
>  <minimizedAffinity>
-4.84942436

$$$$
