REMARK  Name = 
REMARK  6 active torsions:
REMARK  status: ('A' for Active; 'I' for Inactive)
REMARK    1  A    between atoms: C_1  and  C_6
REMARK    2  A    between atoms: C_3  and  O_10
REMARK    3  A    between atoms: O_10  and  P_12
REMARK    4  A    between atoms: P_12  and  O_13
REMARK    5  A    between atoms: P_12  and  O_14
REMARK    6  A    between atoms: O_14  and  C_25
REMARK                            x       y       z     vdW  Elec       q    Type
REMARK                         _______ _______ _______ _____ _____    ______ ____
ROOT
ATOM      1  C   UNL     1      48.035  35.614  42.034  0.00  0.00    +0.000 C 
ATOM      2  C   UNL     1      49.429  35.118  41.980  0.00  0.00    +0.000 C 
ATOM      3  C   UNL     1      48.557  35.188  40.734  0.00  0.00    +0.000 C 
ATOM      4  H   UNL     1      47.788  36.683  42.156  0.00  0.00    +0.000 HD
ATOM      5  H   UNL     1      50.220  35.914  42.076  0.00  0.00    +0.000 HD
ATOM      6  H   UNL     1      49.730  34.098  42.201  0.00  0.00    +0.000 HD
ATOM      7  H   UNL     1      48.872  35.979  40.023  0.00  0.00    +0.000 HD
ENDROOT
BRANCH   1  10
ATOM      8  C   UNL     1      46.583  32.817  44.122  0.00  0.00    +0.000 A 
ATOM      9  C   UNL     1      47.526  33.654  43.523  0.00  0.00    +0.000 A 
ATOM     10  C   UNL     1      47.070  34.693  42.703  0.00  0.00    +0.000 A 
ATOM     11  N   UNL     1      45.728  34.842  42.524  0.00  0.00    +0.000 NA
ATOM     12  C   UNL     1      44.827  34.021  43.114  0.00  0.00    +0.000 A 
ATOM     13  N   UNL     1      45.261  33.012  43.910  0.00  0.00    +0.000 NA
ATOM     14  H   UNL     1      46.840  31.991  44.770  0.00  0.00    +0.000 HD
ATOM     15  H   UNL     1      48.552  33.474  43.712  0.00  0.00    +0.000 HD
ATOM     16  H   UNL     1      43.774  34.196  42.929  0.00  0.00    +0.000 HD
ENDBRANCH   1  10
BRANCH   3  17
ATOM     17  O   UNL     1      48.034  34.091  40.163  0.00  0.00    +0.000 OA
BRANCH  17  19
ATOM     18  O   UNL     1      48.715  32.536  38.128  0.00  0.00    +0.000 OA
ATOM     19  P   UNL     1      48.169  33.885  38.542  0.00  0.00    +0.000 P 
BRANCH  19  20
ATOM     20  O   UNL     1      49.152  35.032  37.783  0.00  0.00    +0.000 OA
ATOM     21  H   UNL     1      48.656  35.696  37.277  0.00  0.00    +0.000 HD
ENDBRANCH  19  20
BRANCH  19  22
ATOM     22  O   UNL     1      46.643  33.997  37.828  0.00  0.00    +0.000 OA
BRANCH  22  25
ATOM     23 CL   UNL     1      45.167  31.459  37.808  0.00  0.00    +0.000 Cl
ATOM     24  C   UNL     1      45.625  32.447  36.431  0.00  0.00    +0.000 A 
ATOM     25  C   UNL     1      46.329  33.643  36.547  0.00  0.00    +0.000 A 
ATOM     26  C   UNL     1      46.614  34.302  35.379  0.00  0.00    +0.000 A 
ATOM     27  H   UNL     1      47.171  35.242  35.511  0.00  0.00    +0.000 HD
ATOM     28  C   UNL     1      46.236  33.827  34.155  0.00  0.00    +0.000 A 
ATOM     29  H   UNL     1      46.489  34.391  33.284  0.00  0.00    +0.000 HD
ATOM     30  C   UNL     1      45.535  32.640  34.022  0.00  0.00    +0.000 A 
ATOM     31  C   UNL     1      45.233  31.950  35.201  0.00  0.00    +0.000 A 
ENDBRANCH  22  25
ENDBRANCH  19  22
ENDBRANCH  17  19
ENDBRANCH   3  17
TORSDOF 6
