
 OpenBabel03252509263D

 30 32  0  0  1  0  0  0  0  0999 V2000
   46.5520   35.0620   42.0070 C   0  0  1  0  0  0  0  0  0  0  0  0
   48.0790   35.3430   41.9810 C   0  0  0  0  0  0  0  0  0  0  0  0
   47.3510   34.1160   41.3460 C   0  0  2  0  0  0  0  0  0  0  0  0
   45.9500   35.8330   41.4820 H   0  0  0  0  0  0  0  0  0  0  0  0
   48.3660   36.1240   41.2560 H   0  0  0  0  0  0  0  0  0  0  0  0
   48.6700   35.1730   42.8850 H   0  0  0  0  0  0  0  0  0  0  0  0
   47.6490   33.1540   41.8660 H   0  0  0  0  0  0  0  0  0  0  0  0
   44.7060   35.2300   45.2710 C   0  0  0  0  0  0  0  0  0  0  0  0
   45.1250   35.5920   43.9630 C   0  0  0  0  0  0  0  0  0  0  0  0
   46.0880   34.8050   43.4240 C   0  0  0  0  0  0  0  0  0  0  0  0
   46.6310   33.7260   44.1010 N   0  0  0  0  0  0  0  0  0  0  0  0
   46.1950   33.4250   45.3490 C   0  0  0  0  0  0  0  0  0  0  0  0
   45.2340   34.1770   45.9320 N   0  0  0  0  0  0  0  0  0  0  0  0
   43.9370   35.8220   45.7520 H   0  0  0  0  0  0  0  0  0  0  0  0
   46.6990   32.5630   45.7630 H   0  0  0  0  0  0  0  0  0  0  0  0
   44.6030   36.7060   43.2890 N   0  0  0  0  0  0  0  0  0  0  0  0
   43.9440   36.2910   42.6000 H   0  0  0  0  0  0  0  0  0  0  0  0
   44.8160   37.7370   43.4300 H   0  0  0  0  0  0  0  0  0  0  0  0
   47.3580   33.9930   39.8410 C   0  0  0  0  0  0  0  0  0  0  0  0
   46.3570   33.7080   39.4460 H   0  0  0  0  0  0  0  0  0  0  0  0
   47.6000   34.9860   39.4030 H   0  0  0  0  0  0  0  0  0  0  0  0
   47.9770   34.3750   36.9860 Cl  0  0  0  0  0  0  0  0  0  0  0  0
   48.7290   33.2240   38.0680 C   0  0  0  0  0  0  0  0  0  0  0  0
   48.4190   33.0620   39.4190 C   0  0  0  0  0  0  0  0  0  0  0  0
   49.0930   32.1130   40.1540 C   0  0  0  0  0  0  0  0  0  0  0  0
   48.7650   32.0860   41.1770 H   0  0  0  0  0  0  0  0  0  0  0  0
   50.0650   31.3340   39.5620 C   0  0  0  0  0  0  0  0  0  0  0  0
   50.5400   30.6160   40.2160 H   0  0  0  0  0  0  0  0  0  0  0  0
   50.3770   31.4940   38.2110 C   0  0  0  0  0  3  0  0  0  0  0  0
   49.7090   32.4410   37.4610 C   0  0  0  0  0  3  0  0  0  0  0  0
  1  4  1  6  0  0  0
  1 10  1  0  0  0  0
  2  1  1  0  0  0  0
  2  6  1  0  0  0  0
  3  7  1  1  0  0  0
  3  2  1  0  0  0  0
  3  1  1  0  0  0  0
  5  2  1  0  0  0  0
  8 14  1  0  0  0  0
  8 13  1  0  0  0  0
  9  8  2  0  0  0  0
 10  9  1  0  0  0  0
 10 11  2  0  0  0  0
 11 12  1  0  0  0  0
 12 15  1  0  0  0  0
 12 13  2  0  0  0  0
 16 18  1  0  0  0  0
 16  9  1  0  0  0  0
 17 16  1  0  0  0  0
 19  3  1  0  0  0  0
 20 19  1  0  0  0  0
 21 19  1  0  0  0  0
 22 23  1  0  0  0  0
 23 24  1  0  0  0  0
 24 19  1  0  0  0  0
 24 25  2  0  0  0  0
 25 26  1  0  0  0  0
 27 25  1  0  0  0  0
 27 28  1  0  0  0  0
 29 27  2  0  0  0  0
 30 23  2  0  0  0  0
 30 29  1  0  0  0  0
M  END
>  <minimizedAffinity>
-5.19583321

>  <minimizedRMSD>
0.612380266

$$$$
