
 OpenBabel03252504173D

 38 40  0  0  0  0  0  0  0  0999 V2000
   47.9020   30.0570   44.7630 F   0  0  0  0  0  0  0  0  0  0  0  0
   47.6890   30.7170   45.9610 C   0  0  0  0  0  0  0  0  0  0  0  0
   47.0170   31.9060   45.9630 C   0  0  0  0  0  0  0  0  0  0  0  0
   46.8490   32.4950   47.2050 C   0  0  0  0  0  0  0  0  0  0  0  0
   47.3310   31.9140   48.3500 C   0  0  0  0  0  0  0  0  0  0  0  0
   48.0020   30.7140   48.2850 C   0  0  0  0  0  0  0  0  0  0  0  0
   48.1980   30.0770   47.0600 C   0  0  0  0  0  0  0  0  0  0  0  0
   46.3110   33.4520   47.2320 H   0  0  0  0  0  0  0  0  0  0  0  0
   47.1800   32.4080   49.3030 H   0  0  0  0  0  0  0  0  0  0  0  0
   48.3980   30.2250   49.1670 H   0  0  0  0  0  0  0  0  0  0  0  0
   46.8190   34.1210   43.0660 C   0  0  0  0  0  0  0  0  0  0  0  0
   45.6420   33.7190   42.4240 C   0  0  0  0  0  0  0  0  0  0  0  0
   44.9110   32.6680   43.0070 C   0  0  0  0  0  0  0  0  0  0  0  0
   45.3630   32.0950   44.1420 N   0  0  0  0  0  0  0  0  0  0  0  0
   46.5080   32.5120   44.7320 C   0  0  0  0  0  0  0  0  0  0  0  0
   47.2220   33.5200   44.1880 N   0  0  0  0  0  0  0  0  0  0  0  0
   44.0040   32.3610   42.5090 H   0  0  0  0  0  0  0  0  0  0  0  0
   45.2140   34.3940   41.1880 C   0  0  0  0  0  0  0  0  0  0  0  0
   44.9120   35.7260   41.4610 F   0  0  0  0  0  0  0  0  0  0  0  0
   46.2960   34.4040   40.3030 F   0  0  0  0  0  0  0  0  0  0  0  0
   44.1570   33.8410   40.5600 F   0  0  0  0  0  0  0  0  0  0  0  0
   47.5140   35.1290   42.5020 O   0  0  0  0  0  0  0  0  0  0  0  0
   48.8180   35.0570   41.9680 C   0  0  0  0  0  0  0  0  0  0  0  0
   49.7110   35.2840   43.0160 F   0  0  0  0  0  0  0  0  0  0  0  0
   49.0100   33.8400   41.3550 F   0  0  0  0  0  0  0  0  0  0  0  0
   49.0280   36.1080   41.0920 F   0  0  0  0  0  0  0  0  0  0  0  0
   48.9240   28.7670   46.9480 C   0  0  0  0  0  0  0  0  0  0  0  0
   48.1200   28.0010   47.1410 H   0  0  0  0  0  0  0  0  0  0  0  0
   49.3640   28.6000   45.9630 H   0  0  0  0  0  0  0  0  0  0  0  0
   48.7250   26.3620   48.8390 Cl  0  0  0  0  0  0  0  0  0  0  0  0
   49.9610   27.6010   48.9390 C   0  0  0  0  0  0  0  0  0  0  0  0
   49.9150   28.6220   48.0120 C   0  0  0  0  0  0  0  0  0  0  0  0
   50.9050   29.6090   48.0960 C   0  0  0  0  0  0  0  0  0  0  0  0
   50.9350   30.4520   47.3940 H   0  0  0  0  0  0  0  0  0  0  0  0
   51.9010   29.5850   49.0590 C   0  0  0  0  0  0  0  0  0  0  0  0
   52.6530   30.3700   49.0920 H   0  0  0  0  0  0  0  0  0  0  0  0
   51.9200   28.5510   49.9710 C   0  0  0  0  0  0  0  0  0  0  0  0
   50.9520   27.5440   49.9260 C   0  0  0  0  0  0  0  0  0  0  0  0
  1  2  1  0  0  0  0
  2  3  2  0  0  0  0
  2  7  1  0  0  0  0
  3  4  1  0  0  0  0
  4  8  1  0  0  0  0
  4  5  2  0  0  0  0
  5  9  1  0  0  0  0
  6  5  1  0  0  0  0
  6 10  1  0  0  0  0
  7  6  2  0  0  0  0
 11 16  1  0  0  0  0
 12 13  1  0  0  0  0
 12 11  2  0  0  0  0
 13 14  2  0  0  0  0
 14 15  1  0  0  0  0
 15  3  1  0  0  0  0
 16 15  2  0  0  0  0
 17 13  1  0  0  0  0
 18 19  1  0  0  0  0
 18 12  1  0  0  0  0
 20 18  1  0  0  0  0
 21 18  1  0  0  0  0
 22 11  1  0  0  0  0
 23 22  1  0  0  0  0
 23 24  1  0  0  0  0
 25 23  1  0  0  0  0
 26 23  1  0  0  0  0
 27  7  1  0  0  0  0
 27 28  1  0  0  0  0
 27 32  1  0  0  0  0
 29 27  1  0  0  0  0
 30 31  1  0  0  0  0
 31 38  1  0  0  0  0
 32 33  1  0  0  0  0
 32 31  2  0  0  0  0
 33 35  2  0  0  0  0
 34 33  1  0  0  0  0
 35 36  1  0  0  0  0
 35 37  1  0  0  0  0
 38 37  2  0  0  0  0
M  END
>  <minimizedAffinity>
-5.8029542

>  <minimizedRMSD>
0.797428966

$$$$
