REMARK  Name = 
REMARK  7 active torsions:
REMARK  status: ('A' for Active; 'I' for Inactive)
REMARK    1  A    between atoms: C_2  and  O_17
REMARK    2  A    between atoms: C_3  and  C_7
REMARK    3  A    between atoms: O_17  and  P_19
REMARK    4  A    between atoms: P_19  and  O_20
REMARK    5  A    between atoms: P_19  and  O_21
REMARK    6  A    between atoms: O_20  and  C_38
REMARK    7  A    between atoms: O_21  and  C_22
REMARK                            x       y       z     vdW  Elec       q    Type
REMARK                         _______ _______ _______ _____ _____    ______ ____
ROOT
ATOM      1  C   UNL     1      45.136  36.015  42.910  0.00  0.00    +0.000 A 
ATOM      2  C   UNL     1      45.375  34.641  42.904  0.00  0.00    +0.000 A 
ATOM      3  C   UNL     1      45.212  33.921  44.067  0.00  0.00    +0.000 A 
ATOM      4  N   UNL     1      44.812  34.610  45.195  0.00  0.00    +0.000 NA
ATOM      5  C   UNL     1      44.589  35.923  45.182  0.00  0.00    +0.000 A 
ATOM      6  N   UNL     1      44.754  36.615  44.037  0.00  0.00    +0.000 NA
ATOM      7  H   UNL     1      45.255  36.612  42.017  0.00  0.00    +0.000 HD
ATOM      8  H   UNL     1      44.277  36.477  46.054  0.00  0.00    +0.000 HD
ENDROOT
BRANCH   3   9
ATOM      9  C   UNL     1      45.418  32.532  44.216  0.00  0.00    +0.000 A 
ATOM     10  C   UNL     1      44.939  31.566  43.326  0.00  0.00    +0.000 A 
ATOM     11  C   UNL     1      45.079  30.210  43.514  0.00  0.00    +0.000 A 
ATOM     12  C   UNL     1      45.727  29.734  44.643  0.00  0.00    +0.000 A 
ATOM     13  C   UNL     1      46.224  30.709  45.561  0.00  0.00    +0.000 A 
ATOM     14  C   UNL     1      46.863  30.247  46.674  0.00  0.00    +0.000 A 
ATOM     15  C   UNL     1      47.373  31.137  47.606  0.00  0.00    +0.000 A 
ATOM     16  C   UNL     1      47.224  32.509  47.390  0.00  0.00    +0.000 A 
ATOM     17  C   UNL     1      46.555  32.934  46.224  0.00  0.00    +0.000 A 
ATOM     18  C   UNL     1      46.058  32.034  45.322  0.00  0.00    +0.000 A 
ATOM     19  H   UNL     1      44.428  31.883  42.434  0.00  0.00    +0.000 HD
ATOM     20  H   UNL     1      44.701  29.488  42.812  0.00  0.00    +0.000 HD
ATOM     21  H   UNL     1      45.882  28.696  44.874  0.00  0.00    +0.000 HD
ATOM     22  H   UNL     1      46.985  29.176  46.852  0.00  0.00    +0.000 HD
ATOM     23  H   UNL     1      47.871  30.715  48.474  0.00  0.00    +0.000 HD
ATOM     24  H   UNL     1      47.651  33.097  48.161  0.00  0.00    +0.000 HD
ATOM     25  H   UNL     1      46.568  34.003  46.236  0.00  0.00    +0.000 HD
ENDBRANCH   3   9
BRANCH   2  26
ATOM     26  O   UNL     1      45.756  34.094  41.729  0.00  0.00    +0.000 OA
BRANCH  26  28
ATOM     27  O   UNL     1      47.675  32.430  41.094  0.00  0.00    +0.000 OA
ATOM     28  P   UNL     1      47.380  33.878  41.234  0.00  0.00    +0.000 P 
BRANCH  28  29
ATOM     29  O   UNL     1      47.645  34.602  39.748  0.00  0.00    +0.000 OA
BRANCH  29  32
ATOM     30 CL   UNL     1      48.750  36.790  37.724  0.00  0.00    +0.000 Cl
ATOM     31  C   UNL     1      49.322  35.158  37.879  0.00  0.00    +0.000 A 
ATOM     32  C   UNL     1      48.644  34.453  38.843  0.00  0.00    +0.000 A 
ATOM     33  C   UNL     1      49.072  33.121  39.007  0.00  0.00    +0.000 A 
ATOM     34  H   UNL     1      48.741  32.311  39.682  0.00  0.00    +0.000 HD
ATOM     35  C   UNL     1      50.112  32.571  38.239  0.00  0.00    +0.000 A 
ATOM     36  H   UNL     1      50.524  31.574  38.273  0.00  0.00    +0.000 HD
ATOM     37  C   UNL     1      50.740  33.350  37.291  0.00  0.00    +0.000 A 
ATOM     38  C   UNL     1      50.342  34.656  37.109  0.00  0.00    +0.000 A 
ENDBRANCH  29  32
ENDBRANCH  28  29
BRANCH  28  39
ATOM     39  O   UNL     1      48.359  34.597  42.392  0.00  0.00    +0.000 OA
BRANCH  39  40
ATOM     40  C   UNL     1      49.532  35.295  42.152  0.00  0.00    +0.000 C 
ATOM     41  O   UNL     1      49.199  36.214  41.380  0.00  0.00    +0.000 OA
ATOM     42  N   UNL     1      50.636  34.703  42.864  0.00  0.00    +0.000 N 
ATOM     43  H   UNL     1      51.490  34.213  42.515  0.00  0.00    +0.000 HD
ATOM     44  H   UNL     1      50.604  34.760  43.910  0.00  0.00    +0.000 HD
ENDBRANCH  39  40
ENDBRANCH  28  39
ENDBRANCH  26  28
ENDBRANCH   2  26
TORSDOF 7
