
 OpenBabel03242520073D

 49 53  0  0  1  0  0  0  0  0999 V2000
   48.5030   29.5830   46.1800 N   0  0  0  0  0  0  0  0  0  0  0  0
   48.1530   29.5660   44.8220 C   0  0  1  0  0  0  0  0  0  0  0  0
   46.8640   28.7980   44.6820 C   0  0  0  0  0  0  0  0  0  0  0  0
   45.8770   29.5910   45.3640 N   0  0  0  0  0  0  0  0  0  0  0  0
   46.1030   29.6320   46.7940 C   0  0  0  0  0  0  0  0  0  0  0  0
   47.5460   29.7780   47.1870 C   0  0  2  0  0  0  0  0  0  0  0  0
   49.2170   28.8400   46.3580 H   0  0  0  0  0  0  0  0  0  0  0  0
   48.9140   29.0670   44.2240 H   0  0  0  0  0  0  0  0  0  0  0  0
   46.5720   28.6060   43.6520 H   0  0  0  0  0  0  0  0  0  0  0  0
   46.9940   27.8600   45.2960 H   0  0  0  0  0  0  0  0  0  0  0  0
   45.6840   30.5050   44.9380 H   0  0  0  0  0  0  0  0  0  0  0  0
   45.4550   30.4760   47.1530 H   0  0  0  0  0  0  0  0  0  0  0  0
   45.6050   28.7250   47.1940 H   0  0  0  0  0  0  0  0  0  0  0  0
   47.7150   28.9560   47.9380 H   0  0  0  0  0  0  0  0  0  0  0  0
   47.0290   32.8280   44.0120 C   0  0  0  0  0  0  0  0  0  0  0  0
   48.0400   32.6880   43.0760 C   0  0  0  0  0  0  0  0  0  0  0  0
   48.5960   31.4670   43.2420 C   0  0  0  0  0  0  0  0  0  0  0  0
   47.9410   30.8680   44.2600 N   0  0  0  0  0  0  0  0  0  0  0  0
   47.0030   31.7020   44.7090 N   0  0  0  0  0  0  0  0  0  0  0  0
   48.3510   33.4100   42.3310 H   0  0  0  0  0  0  0  0  0  0  0  0
   49.4070   31.0010   42.7030 H   0  0  0  0  0  0  0  0  0  0  0  0
   44.6770   35.2600   45.4490 C   0  0  0  0  0  0  0  0  0  0  0  0
   44.5600   36.2130   44.4320 C   0  0  0  0  0  0  0  0  0  0  0  0
   45.2810   36.0150   43.2790 C   0  0  0  0  0  0  0  0  0  0  0  0
   46.0710   34.8980   43.1900 N   0  0  0  0  0  0  0  0  0  0  0  0
   46.1570   34.0020   44.1920 C   0  0  0  0  0  0  0  0  0  0  0  0
   45.4680   34.1640   45.3310 N   0  0  0  0  0  0  0  0  0  0  0  0
   44.0860   35.4680   46.3340 H   0  0  0  0  0  0  0  0  0  0  0  0
   43.9280   37.0800   44.5410 H   0  0  0  0  0  0  0  0  0  0  0  0
   45.2520   36.7050   42.4350 H   0  0  0  0  0  0  0  0  0  0  0  0
   47.6820   31.1150   47.8910 C   0  0  1  0  0  0  0  0  0  0  0  0
   47.5140   31.0660   49.4110 C   0  0  0  0  0  0  0  0  0  0  0  0
   48.8010   31.4360   48.7830 C   0  0  1  0  0  0  0  0  0  0  0  0
   47.1490   32.0060   47.4420 H   0  0  0  0  0  0  0  0  0  0  0  0
   46.9680   31.8890   49.9200 H   0  0  0  0  0  0  0  0  0  0  0  0
   47.4550   30.0690   49.8960 H   0  0  0  0  0  0  0  0  0  0  0  0
   49.1550   32.5090   48.8140 H   0  0  0  0  0  0  0  0  0  0  0  0
   50.0070   30.5030   48.8490 C   0  0  0  0  0  0  0  0  0  0  0  0
   50.8150   30.8410   48.1690 H   0  0  0  0  0  0  0  0  0  0  0  0
   49.6210   29.4910   48.6290 H   0  0  0  0  0  0  0  0  0  0  0  0
   51.2930   33.0140   50.0550 Cl  0  0  0  0  0  0  0  0  0  0  0  0
   51.1130   31.5050   50.9230 C   0  0  0  0  0  0  0  0  0  0  0  0
   50.5180   30.4490   50.2680 C   0  0  0  0  0  0  0  0  0  0  0  0
   50.4080   29.2760   51.0220 C   0  0  0  0  0  0  0  0  0  0  0  0
   49.9370   28.4250   50.5170 H   0  0  0  0  0  0  0  0  0  0  0  0
   50.8200   29.0840   52.3020 C   0  0  0  0  0  0  0  0  0  0  0  0
   50.6840   28.1280   52.7870 H   0  0  0  0  0  0  0  0  0  0  0  0
   51.4100   30.1700   52.9130 C   0  0  0  0  0  0  0  0  0  0  0  0
   51.5530   31.3700   52.2240 C   0  0  0  0  0  0  0  0  0  0  0  0
  1  7  1  0  0  0  0
  1  6  1  0  0  0  0
  2  8  1  6  0  0  0
  2  1  1  0  0  0  0
  3  2  1  0  0  0  0
  3 10  1  0  0  0  0
  3  4  1  0  0  0  0
  4  5  1  0  0  0  0
  5 12  1  0  0  0  0
  5  6  1  0  0  0  0
  5 13  1  0  0  0  0
  6 31  1  0  0  0  0
  6 14  1  1  0  0  0
  9  3  1  0  0  0  0
 11  4  1  0  0  0  0
 15 26  1  0  0  0  0
 15 19  2  0  0  0  0
 16 17  2  0  0  0  0
 16 15  1  0  0  0  0
 17 18  1  0  0  0  0
 18 19  1  0  0  0  0
 18  2  1  0  0  0  0
 20 16  1  0  0  0  0
 21 17  1  0  0  0  0
 22 28  1  0  0  0  0
 23 29  1  0  0  0  0
 23 22  2  0  0  0  0
 24 23  1  0  0  0  0
 25 24  2  0  0  0  0
 25 26  1  0  0  0  0
 26 27  2  0  0  0  0
 27 22  1  0  0  0  0
 30 24  1  0  0  0  0
 31 34  1  6  0  0  0
 31 33  1  0  0  0  0
 31 32  1  0  0  0  0
 32 36  1  0  0  0  0
 32 35  1  0  0  0  0
 33 37  1  1  0  0  0
 33 38  1  0  0  0  0
 33 32  1  0  0  0  0
 38 43  1  0  0  0  0
 39 38  1  0  0  0  0
 40 38  1  0  0  0  0
 41 42  1  0  0  0  0
 42 49  1  0  0  0  0
 43 42  2  0  0  0  0
 43 44  1  0  0  0  0
 44 46  2  0  0  0  0
 45 44  1  0  0  0  0
 46 47  1  0  0  0  0
 46 48  1  0  0  0  0
 49 48  2  0  0  0  0
M  END
>  <minimizedAffinity>
-5.90171003

>  <minimizedRMSD>
2.39884543

$$$$
