
 OpenBabel03252508073D

 44 47  0  0  0  0  0  0  0  0999 V2000
   45.1840   35.5170   43.3250 C   0  0  0  0  0  0  0  0  0  0  0  0
   45.5520   34.1730   43.3910 C   0  0  0  0  0  0  0  0  0  0  0  0
   45.4380   33.4990   44.5870 C   0  0  0  0  0  0  0  0  0  0  0  0
   44.9570   34.2020   45.6740 N   0  0  0  0  0  0  0  0  0  0  0  0
   44.6120   35.4850   45.5930 C   0  0  0  0  0  0  0  0  0  0  0  0
   44.7290   36.1330   44.4160 N   0  0  0  0  0  0  0  0  0  0  0  0
   45.2610   36.0780   42.4050 H   0  0  0  0  0  0  0  0  0  0  0  0
   44.2350   36.0490   46.4320 H   0  0  0  0  0  0  0  0  0  0  0  0
   45.7710   32.1450   44.8080 C   0  0  0  0  0  0  0  0  0  0  0  0
   45.3870   31.0930   43.9710 C   0  0  0  0  0  0  0  0  0  0  0  0
   45.6510   29.7680   44.2290 C   0  0  0  0  0  0  0  0  0  0  0  0
   46.3370   29.4140   45.3810 C   0  0  0  0  0  0  0  0  0  0  0  0
   46.7380   30.4770   46.2460 C   0  0  0  0  0  0  0  0  0  0  0  0
   47.4130   30.1350   47.3800 C   0  0  0  0  0  0  0  0  0  0  0  0
   47.8360   31.1160   48.2640 C   0  0  0  0  0  0  0  0  0  0  0  0
   47.5610   32.4550   47.9760 C   0  0  0  0  0  0  0  0  0  0  0  0
   46.8600   32.7550   46.7910 C   0  0  0  0  0  0  0  0  0  0  0  0
   46.4510   31.7670   45.9380 C   0  0  0  0  0  0  0  0  0  0  0  0
   44.8520   31.3150   43.0640 H   0  0  0  0  0  0  0  0  0  0  0  0
   45.3440   28.9780   43.5670 H   0  0  0  0  0  0  0  0  0  0  0  0
   46.5860   28.4080   45.6650 H   0  0  0  0  0  0  0  0  0  0  0  0
   47.6340   29.0910   47.6140 H   0  0  0  0  0  0  0  0  0  0  0  0
   48.3680   30.7880   49.1520 H   0  0  0  0  0  0  0  0  0  0  0  0
   47.9290   33.1190   48.7150 H   0  0  0  0  0  0  0  0  0  0  0  0
   46.7730   33.8190   46.7470 H   0  0  0  0  0  0  0  0  0  0  0  0
   46.0010   33.6080   42.2500 O   0  0  0  0  0  0  0  0  0  0  0  0
   48.1200   32.0770   42.0960 O   0  0  0  0  0  0  0  0  0  0  0  0
   47.6510   33.4580   41.8190 P   0  0  1  0  0  0  0  0  0  0  0  0
   47.8630   33.7540   40.1850 O   0  0  0  0  0  0  0  0  0  0  0  0
   47.1930   33.6780   37.0790 Cl  0  0  0  0  0  0  0  0  0  0  0  0
   48.4750   32.8140   37.8700 C   0  0  0  0  0  0  0  0  0  0  0  0
   48.5100   33.0510   39.2230 C   0  0  0  0  0  0  0  0  0  0  0  0
   49.5340   32.3720   39.9110 C   0  0  0  0  0  0  0  0  0  0  0  0
   49.8260   32.3480   40.9770 H   0  0  0  0  0  0  0  0  0  0  0  0
   50.4400   31.5230   39.2540 C   0  0  0  0  0  0  0  0  0  0  0  0
   51.2580   30.9540   39.6690 H   0  0  0  0  0  0  0  0  0  0  0  0
   50.3330   31.3410   37.8910 C   0  0  0  0  0  3  0  0  0  0  0  0
   49.3420   31.9940   37.1940 C   0  0  0  0  0  3  0  0  0  0  0  0
   48.5090   34.5900   42.7120 O   0  0  0  0  0  0  0  0  0  0  0  0
   49.6840   35.2160   42.3260 C   0  0  0  0  0  0  0  0  0  0  0  0
   49.3130   36.2630   41.7630 O   0  0  0  0  0  0  0  0  0  0  0  0
   50.8320   34.4360   42.7140 N   0  0  0  0  0  0  0  0  0  0  0  0
   51.5430   33.9330   42.1370 H   0  0  0  0  0  0  0  0  0  0  0  0
   51.0090   34.3410   43.7420 H   0  0  0  0  0  0  0  0  0  0  0  0
  1  2  2  0  0  0  0
  1  6  1  0  0  0  0
  2  3  1  0  0  0  0
  3  9  1  0  0  0  0
  3  4  2  0  0  0  0
  5  4  1  0  0  0  0
  5  8  1  0  0  0  0
  6  5  2  0  0  0  0
  7  1  1  0  0  0  0
  9 18  1  0  0  0  0
 10 11  1  0  0  0  0
 10  9  2  0  0  0  0
 11 12  2  0  0  0  0
 12 21  1  0  0  0  0
 12 13  1  0  0  0  0
 13 14  1  0  0  0  0
 14 22  1  0  0  0  0
 14 15  2  0  0  0  0
 15 23  1  0  0  0  0
 16 15  1  0  0  0  0
 16 24  1  0  0  0  0
 17 16  2  0  0  0  0
 18 13  2  0  0  0  0
 18 17  1  0  0  0  0
 19 10  1  0  0  0  0
 20 11  1  0  0  0  0
 25 17  1  0  0  0  0
 26  2  1  0  0  0  0
 28 27  2  1  0  0  0
 28 26  1  0  0  0  0
 28 39  1  0  0  0  0
 29 28  1  0  0  0  0
 30 31  1  0  0  0  0
 31 32  1  0  0  0  0
 32 33  2  0  0  0  0
 32 29  1  0  0  0  0
 33 34  1  0  0  0  0
 35 36  1  0  0  0  0
 35 33  1  0  0  0  0
 37 35  2  0  0  0  0
 38 31  2  0  0  0  0
 38 37  1  0  0  0  0
 40 39  1  0  0  0  0
 40 42  1  0  0  0  0
 41 40  2  0  0  0  0
 42 44  1  0  0  0  0
 43 42  1  0  0  0  0
M  END
>  <minimizedAffinity>
-6.18130159

>  <minimizedRMSD>
1.22888541

$$$$
