
 OpenBabel03242514213D

 49 51  0  0  0  0  0  0  0  0999 V2000
   40.4750   27.8490   42.9460 C   0  0  0  0  0  0  0  0  0  0  0  0
   41.3260   28.4960   42.0830 C   0  0  0  0  0  0  0  0  0  0  0  0
   42.6570   28.4830   42.4030 C   0  0  0  0  0  0  0  0  0  0  0  0
   43.0760   27.8520   43.5230 N   0  0  0  0  0  0  0  0  0  0  0  0
   42.2510   27.2280   44.3530 C   0  0  0  0  0  0  0  0  0  0  0  0
   40.9670   27.2410   44.0450 N   0  0  0  0  0  0  0  0  0  0  0  0
   43.4790   28.9290   41.8620 H   0  0  0  0  0  0  0  0  0  0  0  0
   42.5710   26.7160   45.2560 H   0  0  0  0  0  0  0  0  0  0  0  0
   39.0560   27.8040   42.5700 C   0  0  0  0  0  0  0  0  0  0  0  0
   38.2420   28.7680   43.3840 C   0  0  0  0  0  0  0  0  0  0  0  0
   37.2560   28.1000   44.2320 C   0  0  0  0  0  0  0  0  0  0  0  0
   36.3440   27.1930   43.4330 C   0  0  0  0  0  0  0  0  0  0  0  0
   37.0570   26.3640   42.4360 C   0  0  0  0  0  0  0  0  0  0  0  0
   38.5560   26.4050   42.6360 C   0  0  0  0  0  0  0  0  0  0  0  0
   38.9540   28.2080   41.5450 H   0  0  0  0  0  0  0  0  0  0  0  0
   37.7320   29.5290   42.7660 H   0  0  0  0  0  0  0  0  0  0  0  0
   38.9420   29.3430   44.0240 H   0  0  0  0  0  0  0  0  0  0  0  0
   36.6090   28.8180   44.7690 H   0  0  0  0  0  0  0  0  0  0  0  0
   37.8020   27.4950   44.9990 H   0  0  0  0  0  0  0  0  0  0  0  0
   35.8660   26.5180   44.1990 H   0  0  0  0  0  0  0  0  0  0  0  0
   35.5000   27.8010   43.0260 H   0  0  0  0  0  0  0  0  0  0  0  0
   36.7460   25.2940   42.4790 H   0  0  0  0  0  0  0  0  0  0  0  0
   36.8630   26.7580   41.4170 H   0  0  0  0  0  0  0  0  0  0  0  0
   39.0170   25.7560   41.8610 H   0  0  0  0  0  0  0  0  0  0  0  0
   38.7430   26.0080   43.6570 H   0  0  0  0  0  0  0  0  0  0  0  0
   41.1070   29.1630   40.9500 O   0  0  0  0  0  0  0  0  0  0  0  0
   40.1360   30.0330   40.5340 C   0  0  0  0  0  0  0  0  0  0  0  0
   39.1240   29.9240   40.9200 H   0  0  0  0  0  0  0  0  0  0  0  0
   40.0570   29.9340   39.4100 H   0  0  0  0  0  0  0  0  0  0  0  0
   40.4930   31.4900   40.7710 C   0  0  0  0  0  0  0  0  0  0  0  0
   41.4420   31.5780   41.3560 H   0  0  0  0  0  0  0  0  0  0  0  0
   40.6430   31.9560   39.7860 H   0  0  0  0  0  0  0  0  0  0  0  0
   39.4900   32.1850   41.5550 N   0  0  0  0  0  0  0  0  0  0  0  0
   39.8870   32.6860   42.3790 H   0  0  0  0  0  0  0  0  0  0  0  0
   38.8280   33.4370   40.5400 S   0  0  0  0  0  0  0  0  0  0  0  0
   39.7340   33.7190   39.3820 O   0  0  0  0  0  0  0  0  0  0  0  0
   40.5930   34.1630   39.4700 H   0  0  0  0  0  0  0  0  0  0  0  0
   38.6700   34.6610   41.3960 O   0  0  0  0  0  0  0  0  0  0  0  0
   37.9090   34.7700   42.0360 H   0  0  0  0  0  0  0  0  0  0  0  0
   37.3060   33.0170   39.9850 O   0  0  0  0  0  0  0  0  0  0  0  0
   37.7540   31.8780   37.3490 Cl  0  0  0  0  0  0  0  0  0  0  0  0
   37.0420   31.0240   38.7090 C   0  0  0  0  0  0  0  0  0  0  0  0
   36.8950   31.7040   39.9000 C   0  0  0  0  0  0  0  0  0  0  0  0
   36.3300   31.0320   40.9790 C   0  0  0  0  0  0  0  0  0  0  0  0
   36.1980   31.5280   41.9270 H   0  0  0  0  0  0  0  0  0  0  0  0
   35.9340   29.7230   40.8490 C   0  0  0  0  0  0  0  0  0  0  0  0
   35.4890   29.1400   41.6470 H   0  0  0  0  0  0  0  0  0  0  0  0
   36.0980   29.0620   39.6270 C   0  0  0  0  0  3  0  0  0  0  0  0
   36.6540   29.7090   38.5470 C   0  0  0  0  0  3  0  0  0  0  0  0
  1  6  1  0  0  0  0
  2  3  1  0  0  0  0
  2  1  2  0  0  0  0
  3  4  2  0  0  0  0
  4  5  1  0  0  0  0
  5  8  1  0  0  0  0
  6  5  2  0  0  0  0
  7  3  1  0  0  0  0
  9 14  1  0  0  0  0
  9  1  1  0  0  0  0
  9 10  1  0  0  0  0
 10 17  1  0  0  0  0
 10 11  1  0  0  0  0
 11 18  1  0  0  0  0
 11 19  1  0  0  0  0
 12 20  1  0  0  0  0
 12 11  1  0  0  0  0
 13 22  1  0  0  0  0
 13 14  1  0  0  0  0
 13 12  1  0  0  0  0
 14 25  1  0  0  0  0
 15  9  1  0  0  0  0
 16 10  1  0  0  0  0
 21 12  1  0  0  0  0
 23 13  1  0  0  0  0
 24 14  1  0  0  0  0
 26  2  1  0  0  0  0
 27 30  1  0  0  0  0
 27 28  1  0  0  0  0
 27 26  1  0  0  0  0
 29 27  1  0  0  0  0
 30 31  1  0  0  0  0
 30 33  1  0  0  0  0
 32 30  1  0  0  0  0
 33 34  1  0  0  0  0
 35 38  1  0  0  0  0
 35 33  1  0  0  0  0
 36 37  1  0  0  0  0
 36 35  1  0  0  0  0
 38 39  1  0  0  0  0
 40 35  1  0  0  0  0
 41 42  1  0  0  0  0
 42 43  1  0  0  0  0
 43 40  1  0  0  0  0
 43 44  2  0  0  0  0
 44 45  1  0  0  0  0
 46 44  1  0  0  0  0
 46 47  1  0  0  0  0
 48 46  2  0  0  0  0
 49 42  2  0  0  0  0
 49 48  1  0  0  0  0
M  END
>  <minimizedAffinity>
-6.43087292

$$$$

 OpenBabel03242514213D

 49 51  0  0  0  0  0  0  0  0999 V2000
   40.2990   28.4990   42.6740 C   0  0  0  0  0  0  0  0  0  0  0  0
   40.9340   29.4880   41.9620 C   0  0  0  0  0  0  0  0  0  0  0  0
   42.2800   29.6300   42.1690 C   0  0  0  0  0  0  0  0  0  0  0  0
   42.9190   28.8160   43.0380 N   0  0  0  0  0  0  0  0  0  0  0  0
   42.3020   27.8620   43.7230 C   0  0  0  0  0  0  0  0  0  0  0  0
   41.0040   27.7250   43.5250 N   0  0  0  0  0  0  0  0  0  0  0  0
   42.9560   30.3390   41.7130 H   0  0  0  0  0  0  0  0  0  0  0  0
   42.7990   27.1990   44.4250 H   0  0  0  0  0  0  0  0  0  0  0  0
   38.8690   28.3020   42.4040 C   0  0  0  0  0  0  0  0  0  0  0  0
   38.0170   29.0320   43.4020 C   0  0  0  0  0  0  0  0  0  0  0  0
   37.2100   28.1300   44.2230 C   0  0  0  0  0  0  0  0  0  0  0  0
   36.3520   27.2110   43.3790 C   0  0  0  0  0  0  0  0  0  0  0  0
   37.0700   26.6230   42.2260 C   0  0  0  0  0  0  0  0  0  0  0  0
   38.5630   26.8500   42.3150 C   0  0  0  0  0  0  0  0  0  0  0  0
   38.6190   28.8140   41.4550 H   0  0  0  0  0  0  0  0  0  0  0  0
   37.3560   29.7850   42.9360 H   0  0  0  0  0  0  0  0  0  0  0  0
   38.6940   29.6150   44.0610 H   0  0  0  0  0  0  0  0  0  0  0  0
   36.5280   28.6760   44.9020 H   0  0  0  0  0  0  0  0  0  0  0  0
   37.9000   27.5160   44.8560 H   0  0  0  0  0  0  0  0  0  0  0  0
   36.0410   26.3840   44.0790 H   0  0  0  0  0  0  0  0  0  0  0  0
   35.4020   27.7400   43.1250 H   0  0  0  0  0  0  0  0  0  0  0  0
   36.9060   25.5220   42.1460 H   0  0  0  0  0  0  0  0  0  0  0  0
   36.7320   27.1110   41.2890 H   0  0  0  0  0  0  0  0  0  0  0  0
   39.0300   26.3750   41.4250 H   0  0  0  0  0  0  0  0  0  0  0  0
   38.8950   26.3580   43.2550 H   0  0  0  0  0  0  0  0  0  0  0  0
   40.4850   30.3760   41.0750 O   0  0  0  0  0  0  0  0  0  0  0  0
   40.3620   31.7400   41.0770 C   0  0  0  0  0  0  0  0  0  0  0  0
   40.8490   32.3160   41.8600 H   0  0  0  0  0  0  0  0  0  0  0  0
   39.2590   31.9760   41.1510 H   0  0  0  0  0  0  0  0  0  0  0  0
   40.8110   32.3840   39.7760 C   0  0  0  0  0  0  0  0  0  0  0  0
   41.5440   33.2060   39.9710 H   0  0  0  0  0  0  0  0  0  0  0  0
   41.3060   31.6060   39.1780 H   0  0  0  0  0  0  0  0  0  0  0  0
   39.7130   33.0050   39.0600 N   0  0  0  0  0  0  0  0  0  0  0  0
   40.0030   33.8440   38.5130 H   0  0  0  0  0  0  0  0  0  0  0  0
   39.1660   31.8550   37.8710 S   0  0  0  0  0  0  0  0  0  0  0  0
   39.7370   30.4970   38.1410 O   0  0  0  0  0  0  0  0  0  0  0  0
   40.6730   30.2750   38.0110 H   0  0  0  0  0  0  0  0  0  0  0  0
   39.6170   32.3590   36.5300 O   0  0  0  0  0  0  0  0  0  0  0  0
   39.1390   33.0930   36.0470 H   0  0  0  0  0  0  0  0  0  0  0  0
   37.4950   31.7760   37.8380 O   0  0  0  0  0  0  0  0  0  0  0  0
   36.2440   29.5310   36.4800 Cl  0  0  0  0  0  0  0  0  0  0  0  0
   36.1310   29.8580   38.2030 C   0  0  0  0  0  0  0  0  0  0  0  0
   36.7840   30.9680   38.6980 C   0  0  0  0  0  0  0  0  0  0  0  0
   36.6950   31.2310   40.0610 C   0  0  0  0  0  0  0  0  0  0  0  0
   37.1900   32.0880   40.4880 H   0  0  0  0  0  0  0  0  0  0  0  0
   35.9750   30.3990   40.8820 C   0  0  0  0  0  0  0  0  0  0  0  0
   35.8660   30.5430   41.9520 H   0  0  0  0  0  0  0  0  0  0  0  0
   35.3260   29.2810   40.3470 C   0  0  0  0  0  3  0  0  0  0  0  0
   35.4000   29.0030   39.0010 C   0  0  0  0  0  3  0  0  0  0  0  0
  1  6  1  0  0  0  0
  2  3  1  0  0  0  0
  2  1  2  0  0  0  0
  3  4  2  0  0  0  0
  4  5  1  0  0  0  0
  5  8  1  0  0  0  0
  6  5  2  0  0  0  0
  7  3  1  0  0  0  0
  9  1  1  0  0  0  0
  9 10  1  0  0  0  0
 10 17  1  0  0  0  0
 10 11  1  0  0  0  0
 11 19  1  0  0  0  0
 11 18  1  0  0  0  0
 12 20  1  0  0  0  0
 12 11  1  0  0  0  0
 13 14  1  0  0  0  0
 13 12  1  0  0  0  0
 14  9  1  0  0  0  0
 14 25  1  0  0  0  0
 15  9  1  0  0  0  0
 16 10  1  0  0  0  0
 21 12  1  0  0  0  0
 22 13  1  0  0  0  0
 23 13  1  0  0  0  0
 24 14  1  0  0  0  0
 26 27  1  0  0  0  0
 26  2  1  0  0  0  0
 27 29  1  0  0  0  0
 27 28  1  0  0  0  0
 30 31  1  0  0  0  0
 30 27  1  0  0  0  0
 32 30  1  0  0  0  0
 33 30  1  0  0  0  0
 34 33  1  0  0  0  0
 35 36  1  0  0  0  0
 35 33  1  0  0  0  0
 37 36  1  0  0  0  0
 38 35  1  0  0  0  0
 39 38  1  0  0  0  0
 40 35  1  0  0  0  0
 40 43  1  0  0  0  0
 41 42  1  0  0  0  0
 42 43  2  0  0  0  0
 42 49  1  0  0  0  0
 43 44  1  0  0  0  0
 44 45  1  0  0  0  0
 44 46  2  0  0  0  0
 46 47  1  0  0  0  0
 48 46  1  0  0  0  0
 49 48  2  0  0  0  0
M  END
>  <minimizedAffinity>
-6.17457819

$$$$

 OpenBabel03242514213D

 49 51  0  0  0  0  0  0  0  0999 V2000
   36.9360   26.6690   40.0940 C   0  0  0  0  0  0  0  0  0  0  0  0
   36.1700   27.7850   39.8560 C   0  0  0  0  0  0  0  0  0  0  0  0
   35.4810   27.8210   38.6730 C   0  0  0  0  0  0  0  0  0  0  0  0
   35.5740   26.7890   37.8060 N   0  0  0  0  0  0  0  0  0  0  0  0
   36.3140   25.7120   38.0400 C   0  0  0  0  0  0  0  0  0  0  0  0
   36.9790   25.6770   39.1800 N   0  0  0  0  0  0  0  0  0  0  0  0
   34.8310   28.6000   38.3010 H   0  0  0  0  0  0  0  0  0  0  0  0
   36.3990   24.8740   37.3550 H   0  0  0  0  0  0  0  0  0  0  0  0
   37.6210   26.5990   41.3910 C   0  0  0  0  0  0  0  0  0  0  0  0
   36.6540   26.3290   42.5070 C   0  0  0  0  0  0  0  0  0  0  0  0
   36.5760   27.4320   43.4640 C   0  0  0  0  0  0  0  0  0  0  0  0
   37.9350   27.7910   44.0270 C   0  0  0  0  0  0  0  0  0  0  0  0
   39.0030   27.8530   43.0040 C   0  0  0  0  0  0  0  0  0  0  0  0
   38.4410   27.8210   41.6000 C   0  0  0  0  0  0  0  0  0  0  0  0
   38.2580   25.6930   41.4000 H   0  0  0  0  0  0  0  0  0  0  0  0
   36.8750   25.3930   43.0510 H   0  0  0  0  0  0  0  0  0  0  0  0
   35.6540   26.1680   42.0550 H   0  0  0  0  0  0  0  0  0  0  0  0
   35.9220   27.1950   44.3250 H   0  0  0  0  0  0  0  0  0  0  0  0
   36.1430   28.3230   42.9430 H   0  0  0  0  0  0  0  0  0  0  0  0
   37.7980   28.8160   44.4790 H   0  0  0  0  0  0  0  0  0  0  0  0
   38.1510   27.1250   44.8960 H   0  0  0  0  0  0  0  0  0  0  0  0
   39.6180   28.7790   43.0940 H   0  0  0  0  0  0  0  0  0  0  0  0
   39.6620   26.9670   43.1010 H   0  0  0  0  0  0  0  0  0  0  0  0
   39.2970   27.8800   40.8930 H   0  0  0  0  0  0  0  0  0  0  0  0
   37.7830   28.7110   41.5090 H   0  0  0  0  0  0  0  0  0  0  0  0
   35.9540   28.8870   40.5750 O   0  0  0  0  0  0  0  0  0  0  0  0
   35.7790   30.2070   40.2570 C   0  0  0  0  0  0  0  0  0  0  0  0
   34.9610   30.7600   40.7150 H   0  0  0  0  0  0  0  0  0  0  0  0
   35.6110   30.2630   39.1400 H   0  0  0  0  0  0  0  0  0  0  0  0
   37.0150   31.0540   40.5080 C   0  0  0  0  0  0  0  0  0  0  0  0
   37.4630   30.8210   41.5050 H   0  0  0  0  0  0  0  0  0  0  0  0
   37.7480   30.8030   39.7270 H   0  0  0  0  0  0  0  0  0  0  0  0
   36.7160   32.4730   40.5380 N   0  0  0  0  0  0  0  0  0  0  0  0
   36.8860   32.9080   41.4700 H   0  0  0  0  0  0  0  0  0  0  0  0
   37.8420   33.2540   39.4620 S   0  0  0  0  0  0  0  0  0  0  0  0
   37.6860   34.7420   39.5170 O   0  0  0  0  0  0  0  0  0  0  0  0
   36.9200   35.2140   39.1530 H   0  0  0  0  0  0  0  0  0  0  0  0
   37.5550   32.7450   38.0780 O   0  0  0  0  0  0  0  0  0  0  0  0
   37.8680   31.8490   37.7640 H   0  0  0  0  0  0  0  0  0  0  0  0
   39.4180   32.8300   39.8320 O   0  0  0  0  0  0  0  0  0  0  0  0
   40.1870   30.6690   38.0480 Cl  0  0  0  0  0  0  0  0  0  0  0  0
   40.9590   32.2450   38.1140 C   0  0  0  0  0  0  0  0  0  0  0  0
   40.4770   33.1690   39.0180 C   0  0  0  0  0  0  0  0  0  0  0  0
   41.0860   34.4180   39.0740 C   0  0  0  0  0  0  0  0  0  0  0  0
   40.7400   35.1670   39.7670 H   0  0  0  0  0  0  0  0  0  0  0  0
   42.1400   34.7120   38.2440 C   0  0  0  0  0  0  0  0  0  0  0  0
   42.6600   35.6640   38.2340 H   0  0  0  0  0  0  0  0  0  0  0  0
   42.6040   33.7530   37.3380 C   0  0  0  0  0  3  0  0  0  0  0  0
   42.0150   32.5110   37.2660 C   0  0  0  0  0  3  0  0  0  0  0  0
  1  9  1  0  0  0  0
  2  1  1  0  0  0  0
  2 26  1  0  0  0  0
  3  2  2  0  0  0  0
  4  5  2  0  0  0  0
  4  3  1  0  0  0  0
  5  6  1  0  0  0  0
  6  1  2  0  0  0  0
  7  3  1  0  0  0  0
  8  5  1  0  0  0  0
  9 15  1  0  0  0  0
  9 14  1  0  0  0  0
  9 10  1  0  0  0  0
 10 16  1  0  0  0  0
 10 11  1  0  0  0  0
 11 12  1  0  0  0  0
 11 18  1  0  0  0  0
 12 20  1  0  0  0  0
 12 21  1  0  0  0  0
 13 22  1  0  0  0  0
 13 23  1  0  0  0  0
 13 12  1  0  0  0  0
 14 13  1  0  0  0  0
 17 10  1  0  0  0  0
 19 11  1  0  0  0  0
 24 14  1  0  0  0  0
 25 14  1  0  0  0  0
 27 30  1  0  0  0  0
 27 26  1  0  0  0  0
 27 28  1  0  0  0  0
 29 27  1  0  0  0  0
 30 33  1  0  0  0  0
 30 31  1  0  0  0  0
 32 30  1  0  0  0  0
 33 34  1  0  0  0  0
 35 36  1  0  0  0  0
 35 40  1  0  0  0  0
 35 33  1  0  0  0  0
 37 36  1  0  0  0  0
 38 35  1  0  0  0  0
 39 38  1  0  0  0  0
 41 42  1  0  0  0  0
 42 43  1  0  0  0  0
 43 44  2  0  0  0  0
 43 40  1  0  0  0  0
 44 45  1  0  0  0  0
 46 44  1  0  0  0  0
 47 46  1  0  0  0  0
 48 46  2  0  0  0  0
 49 48  1  0  0  0  0
 49 42  2  0  0  0  0
M  END
>  <minimizedAffinity>
-5.93738508

$$$$

 OpenBabel03242514213D

 49 51  0  0  0  0  0  0  0  0999 V2000
   37.8020   27.1730   41.7370 C   0  0  0  0  0  0  0  0  0  0  0  0
   38.6170   28.2720   41.8660 C   0  0  0  0  0  0  0  0  0  0  0  0
   38.4380   29.0460   42.9810 C   0  0  0  0  0  0  0  0  0  0  0  0
   37.4950   28.7130   43.8890 N   0  0  0  0  0  0  0  0  0  0  0  0
   36.7100   27.6510   43.7610 C   0  0  0  0  0  0  0  0  0  0  0  0
   36.8820   26.9040   42.6860 N   0  0  0  0  0  0  0  0  0  0  0  0
   38.9700   29.9430   43.2650 H   0  0  0  0  0  0  0  0  0  0  0  0
   35.9480   27.3680   44.4820 H   0  0  0  0  0  0  0  0  0  0  0  0
   38.0380   26.3050   40.5760 C   0  0  0  0  0  0  0  0  0  0  0  0
   36.7460   25.8230   39.9810 C   0  0  0  0  0  0  0  0  0  0  0  0
   36.5870   24.3730   40.0780 C   0  0  0  0  0  0  0  0  0  0  0  0
   37.7540   23.6320   39.4600 C   0  0  0  0  0  0  0  0  0  0  0  0
   39.0730   24.1970   39.8220 C   0  0  0  0  0  0  0  0  0  0  0  0
   38.9660   25.2040   40.9450 C   0  0  0  0  0  0  0  0  0  0  0  0
   38.4640   26.9200   39.7600 H   0  0  0  0  0  0  0  0  0  0  0  0
   36.6160   26.1320   38.9280 H   0  0  0  0  0  0  0  0  0  0  0  0
   35.9180   26.3170   40.5280 H   0  0  0  0  0  0  0  0  0  0  0  0
   35.6710   24.0160   39.5690 H   0  0  0  0  0  0  0  0  0  0  0  0
   36.5030   24.0970   41.1590 H   0  0  0  0  0  0  0  0  0  0  0  0
   37.6780   22.5830   39.8680 H   0  0  0  0  0  0  0  0  0  0  0  0
   37.5700   23.5240   38.3640 H   0  0  0  0  0  0  0  0  0  0  0  0
   39.7920   23.4090   40.1500 H   0  0  0  0  0  0  0  0  0  0  0  0
   39.4970   24.7370   38.9510 H   0  0  0  0  0  0  0  0  0  0  0  0
   39.9920   25.5740   41.1640 H   0  0  0  0  0  0  0  0  0  0  0  0
   38.5420   24.6560   41.8130 H   0  0  0  0  0  0  0  0  0  0  0  0
   39.5870   28.7570   41.0910 O   0  0  0  0  0  0  0  0  0  0  0  0
   40.2500   29.9540   41.0380 C   0  0  0  0  0  0  0  0  0  0  0  0
   41.1580   30.0860   41.6230 H   0  0  0  0  0  0  0  0  0  0  0  0
   39.5290   30.7510   41.3920 H   0  0  0  0  0  0  0  0  0  0  0  0
   40.6270   30.3700   39.6270 C   0  0  0  0  0  0  0  0  0  0  0  0
   41.7310   30.5280   39.5390 H   0  0  0  0  0  0  0  0  0  0  0  0
   40.3360   29.5500   38.9550 H   0  0  0  0  0  0  0  0  0  0  0  0
   40.0220   31.6300   39.2420 N   0  0  0  0  0  0  0  0  0  0  0  0
   40.7220   32.3820   39.0570 H   0  0  0  0  0  0  0  0  0  0  0  0
   39.2260   31.3670   37.7140 S   0  0  0  0  0  0  0  0  0  0  0  0
   39.4780   29.9780   37.2150 O   0  0  0  0  0  0  0  0  0  0  0  0
   40.3390   29.6760   36.8840 H   0  0  0  0  0  0  0  0  0  0  0  0
   39.7740   32.3810   36.7510 O   0  0  0  0  0  0  0  0  0  0  0  0
   39.4710   33.3340   36.7500 H   0  0  0  0  0  0  0  0  0  0  0  0
   37.5800   31.6390   37.8420 O   0  0  0  0  0  0  0  0  0  0  0  0
   36.2100   29.5920   36.2990 Cl  0  0  0  0  0  0  0  0  0  0  0  0
   36.0470   29.8270   38.0330 C   0  0  0  0  0  0  0  0  0  0  0  0
   36.7660   30.8470   38.6210 C   0  0  0  0  0  0  0  0  0  0  0  0
   36.6380   31.0370   39.9930 C   0  0  0  0  0  0  0  0  0  0  0  0
   37.1830   31.8220   40.4920 H   0  0  0  0  0  0  0  0  0  0  0  0
   35.8150   30.2230   40.7320 C   0  0  0  0  0  0  0  0  0  0  0  0
   35.6690   30.3140   41.8030 H   0  0  0  0  0  0  0  0  0  0  0  0
   35.1000   29.1980   40.1030 C   0  0  0  0  0  3  0  0  0  0  0  0
   35.2110   28.9930   38.7470 C   0  0  0  0  0  3  0  0  0  0  0  0
  1  2  2  0  0  0  0
  1  6  1  0  0  0  0
  2  3  1  0  0  0  0
  3  7  1  0  0  0  0
  3  4  2  0  0  0  0
  5  4  1  0  0  0  0
  5  8  1  0  0  0  0
  6  5  2  0  0  0  0
  9 14  1  0  0  0  0
  9  1  1  0  0  0  0
 10 11  1  0  0  0  0
 10 17  1  0  0  0  0
 10  9  1  0  0  0  0
 11 19  1  0  0  0  0
 12 13  1  0  0  0  0
 12 20  1  0  0  0  0
 12 11  1  0  0  0  0
 13 22  1  0  0  0  0
 13 14  1  0  0  0  0
 14 24  1  0  0  0  0
 14 25  1  0  0  0  0
 15  9  1  0  0  0  0
 16 10  1  0  0  0  0
 18 11  1  0  0  0  0
 21 12  1  0  0  0  0
 23 13  1  0  0  0  0
 26  2  1  0  0  0  0
 27 26  1  0  0  0  0
 27 29  1  0  0  0  0
 27 28  1  0  0  0  0
 30 27  1  0  0  0  0
 31 30  1  0  0  0  0
 32 30  1  0  0  0  0
 33 30  1  0  0  0  0
 34 33  1  0  0  0  0
 35 40  1  0  0  0  0
 35 33  1  0  0  0  0
 36 35  1  0  0  0  0
 37 36  1  0  0  0  0
 38 35  1  0  0  0  0
 39 38  1  0  0  0  0
 40 43  1  0  0  0  0
 41 42  1  0  0  0  0
 42 43  2  0  0  0  0
 42 49  1  0  0  0  0
 43 44  1  0  0  0  0
 44 45  1  0  0  0  0
 44 46  2  0  0  0  0
 46 47  1  0  0  0  0
 48 46  1  0  0  0  0
 49 48  2  0  0  0  0
M  END
>  <minimizedAffinity>
-5.78036213

$$$$

 OpenBabel03242514213D

 49 51  0  0  0  0  0  0  0  0999 V2000
   39.3410   27.6270   40.2470 C   0  0  0  0  0  0  0  0  0  0  0  0
   39.9490   28.5520   39.4340 C   0  0  0  0  0  0  0  0  0  0  0  0
   40.6970   28.0650   38.3950 C   0  0  0  0  0  0  0  0  0  0  0  0
   40.8060   26.7310   38.2100 N   0  0  0  0  0  0  0  0  0  0  0  0
   40.2160   25.8400   38.9980 C   0  0  0  0  0  0  0  0  0  0  0  0
   39.4960   26.3100   40.0000 N   0  0  0  0  0  0  0  0  0  0  0  0
   41.2500   28.6200   37.6510 H   0  0  0  0  0  0  0  0  0  0  0  0
   40.2920   24.7650   38.8630 H   0  0  0  0  0  0  0  0  0  0  0  0
   38.4850   28.1480   41.3210 C   0  0  0  0  0  0  0  0  0  0  0  0
   39.2740   28.4180   42.5690 C   0  0  0  0  0  0  0  0  0  0  0  0
   38.8660   27.5710   43.6890 C   0  0  0  0  0  0  0  0  0  0  0  0
   37.3840   27.6850   43.9750 C   0  0  0  0  0  0  0  0  0  0  0  0
   36.5420   27.6570   42.7580 C   0  0  0  0  0  0  0  0  0  0  0  0
   37.3290   27.2390   41.5370 C   0  0  0  0  0  0  0  0  0  0  0  0
   38.1390   29.1590   41.0320 H   0  0  0  0  0  0  0  0  0  0  0  0
   39.2350   29.4770   42.8830 H   0  0  0  0  0  0  0  0  0  0  0  0
   40.3430   28.2270   42.3400 H   0  0  0  0  0  0  0  0  0  0  0  0
   39.3970   27.8280   44.6250 H   0  0  0  0  0  0  0  0  0  0  0  0
   39.1150   26.5090   43.4380 H   0  0  0  0  0  0  0  0  0  0  0  0
   37.1430   26.7860   44.6110 H   0  0  0  0  0  0  0  0  0  0  0  0
   37.2150   28.5610   44.6470 H   0  0  0  0  0  0  0  0  0  0  0  0
   35.6830   26.9510   42.8580 H   0  0  0  0  0  0  0  0  0  0  0  0
   36.1530   28.6750   42.5510 H   0  0  0  0  0  0  0  0  0  0  0  0
   36.6300   27.2330   40.6720 H   0  0  0  0  0  0  0  0  0  0  0  0
   37.7130   26.2180   41.7500 H   0  0  0  0  0  0  0  0  0  0  0  0
   39.9610   29.8850   39.4540 O   0  0  0  0  0  0  0  0  0  0  0  0
   40.9030   30.8300   39.1460 C   0  0  0  0  0  0  0  0  0  0  0  0
   40.8700   31.3160   38.1730 H   0  0  0  0  0  0  0  0  0  0  0  0
   41.9140   30.3300   39.2150 H   0  0  0  0  0  0  0  0  0  0  0  0
   40.9620   31.9680   40.1510 C   0  0  0  0  0  0  0  0  0  0  0  0
   41.7780   31.7980   40.8970 H   0  0  0  0  0  0  0  0  0  0  0  0
   41.1840   32.8880   39.5920 H   0  0  0  0  0  0  0  0  0  0  0  0
   39.7430   32.0830   40.9280 N   0  0  0  0  0  0  0  0  0  0  0  0
   39.9170   32.2680   41.9400 H   0  0  0  0  0  0  0  0  0  0  0  0
   38.9010   33.4930   40.3480 S   0  0  0  0  0  0  0  0  0  0  0  0
   39.7060   34.2020   39.3030 O   0  0  0  0  0  0  0  0  0  0  0  0
   40.5200   34.6950   39.4970 H   0  0  0  0  0  0  0  0  0  0  0  0
   38.6710   34.3880   41.5320 O   0  0  0  0  0  0  0  0  0  0  0  0
   37.9410   34.2190   42.1950 H   0  0  0  0  0  0  0  0  0  0  0  0
   37.4000   33.0840   39.7330 O   0  0  0  0  0  0  0  0  0  0  0  0
   36.1240   30.9420   41.2260 Cl  0  0  0  0  0  0  0  0  0  0  0  0
   36.6090   30.8470   39.5400 C   0  0  0  0  0  0  0  0  0  0  0  0
   37.2050   31.9530   38.9710 C   0  0  0  0  0  0  0  0  0  0  0  0
   37.5920   31.8810   37.6370 C   0  0  0  0  0  0  0  0  0  0  0  0
   38.0610   32.7230   37.1550 H   0  0  0  0  0  0  0  0  0  0  0  0
   37.3780   30.7320   36.9150 C   0  0  0  0  0  0  0  0  0  0  0  0
   37.6530   30.6080   35.8730 H   0  0  0  0  0  0  0  0  0  0  0  0
   36.7710   29.6290   37.5220 C   0  0  0  0  0  3  0  0  0  0  0  0
   36.3810   29.6780   38.8420 C   0  0  0  0  0  3  0  0  0  0  0  0
  1  9  1  0  0  0  0
  2 26  1  0  0  0  0
  2  1  2  0  0  0  0
  3  2  1  0  0  0  0
  4  3  2  0  0  0  0
  4  5  1  0  0  0  0
  5  6  2  0  0  0  0
  6  1  1  0  0  0  0
  7  3  1  0  0  0  0
  8  5  1  0  0  0  0
  9 14  1  0  0  0  0
  9 10  1  0  0  0  0
 10 16  1  0  0  0  0
 10 11  1  0  0  0  0
 11 12  1  0  0  0  0
 11 18  1  0  0  0  0
 12 20  1  0  0  0  0
 12 21  1  0  0  0  0
 13 22  1  0  0  0  0
 13 12  1  0  0  0  0
 14 25  1  0  0  0  0
 14 13  1  0  0  0  0
 15  9  1  0  0  0  0
 17 10  1  0  0  0  0
 19 11  1  0  0  0  0
 23 13  1  0  0  0  0
 24 14  1  0  0  0  0
 27 29  1  0  0  0  0
 27 26  1  0  0  0  0
 27 30  1  0  0  0  0
 28 27  1  0  0  0  0
 30 31  1  0  0  0  0
 30 33  1  0  0  0  0
 32 30  1  0  0  0  0
 33 34  1  0  0  0  0
 35 33  1  0  0  0  0
 35 38  1  0  0  0  0
 36 37  1  0  0  0  0
 36 35  1  0  0  0  0
 38 39  1  0  0  0  0
 40 35  1  0  0  0  0
 42 41  1  0  0  0  0
 43 42  1  0  0  0  0
 43 40  1  0  0  0  0
 44 43  2  0  0  0  0
 45 44  1  0  0  0  0
 46 48  2  0  0  0  0
 46 44  1  0  0  0  0
 47 46  1  0  0  0  0
 48 49  1  0  0  0  0
 49 42  2  0  0  0  0
M  END
>  <minimizedAffinity>
-5.72677755

$$$$

 OpenBabel03242514213D

 49 51  0  0  0  0  0  0  0  0999 V2000
   38.7760   26.2680   40.2750 C   0  0  0  0  0  0  0  0  0  0  0  0
   39.2430   26.7730   39.0850 C   0  0  0  0  0  0  0  0  0  0  0  0
   39.8830   25.8960   38.2510 C   0  0  0  0  0  0  0  0  0  0  0  0
   40.0290   24.6020   38.6150 N   0  0  0  0  0  0  0  0  0  0  0  0
   39.5760   24.1190   39.7650 C   0  0  0  0  0  0  0  0  0  0  0  0
   38.9590   24.9640   40.5700 N   0  0  0  0  0  0  0  0  0  0  0  0
   40.3200   26.0920   37.2820 H   0  0  0  0  0  0  0  0  0  0  0  0
   39.6830   23.0830   40.0720 H   0  0  0  0  0  0  0  0  0  0  0  0
   38.0310   27.1910   41.1410 C   0  0  0  0  0  0  0  0  0  0  0  0
   38.9500   28.1530   41.8360 C   0  0  0  0  0  0  0  0  0  0  0  0
   38.9440   27.9890   43.2890 C   0  0  0  0  0  0  0  0  0  0  0  0
   37.5480   28.0930   43.8650 C   0  0  0  0  0  0  0  0  0  0  0  0
   36.5300   27.3470   43.0920 C   0  0  0  0  0  0  0  0  0  0  0  0
   37.1610   26.4260   42.0720 C   0  0  0  0  0  0  0  0  0  0  0  0
   37.4250   27.8590   40.4990 H   0  0  0  0  0  0  0  0  0  0  0  0
   38.7340   29.2090   41.5910 H   0  0  0  0  0  0  0  0  0  0  0  0
   39.9760   27.9750   41.4540 H   0  0  0  0  0  0  0  0  0  0  0  0
   39.5630   28.7510   43.8010 H   0  0  0  0  0  0  0  0  0  0  0  0
   39.3720   26.9840   43.5330 H   0  0  0  0  0  0  0  0  0  0  0  0
   37.6280   27.6460   44.8970 H   0  0  0  0  0  0  0  0  0  0  0  0
   37.3120   29.1710   44.0410 H   0  0  0  0  0  0  0  0  0  0  0  0
   35.8800   26.7200   43.7480 H   0  0  0  0  0  0  0  0  0  0  0  0
   35.8970   28.0600   42.5260 H   0  0  0  0  0  0  0  0  0  0  0  0
   36.3390   25.8970   41.5420 H   0  0  0  0  0  0  0  0  0  0  0  0
   37.7930   25.7140   42.6450 H   0  0  0  0  0  0  0  0  0  0  0  0
   39.1980   27.9960   38.5580 O   0  0  0  0  0  0  0  0  0  0  0  0
   39.7080   28.5570   37.4170 C   0  0  0  0  0  0  0  0  0  0  0  0
   39.0340   28.8040   36.5990 H   0  0  0  0  0  0  0  0  0  0  0  0
   40.4630   27.8280   36.9950 H   0  0  0  0  0  0  0  0  0  0  0  0
   40.4970   29.8290   37.6750 C   0  0  0  0  0  0  0  0  0  0  0  0
   41.5440   29.5920   37.9870 H   0  0  0  0  0  0  0  0  0  0  0  0
   40.5310   30.3910   36.7300 H   0  0  0  0  0  0  0  0  0  0  0  0
   39.9380   30.6160   38.7570 N   0  0  0  0  0  0  0  0  0  0  0  0
   40.6540   30.9330   39.4460 H   0  0  0  0  0  0  0  0  0  0  0  0
   39.3120   32.0800   38.0500 S   0  0  0  0  0  0  0  0  0  0  0  0
   39.8190   32.2570   36.6520 O   0  0  0  0  0  0  0  0  0  0  0  0
   40.7400   32.4790   36.4410 H   0  0  0  0  0  0  0  0  0  0  0  0
   39.7610   33.2180   38.9210 O   0  0  0  0  0  0  0  0  0  0  0  0
   39.3110   33.4370   39.7870 H   0  0  0  0  0  0  0  0  0  0  0  0
   37.6380   32.0800   38.0550 O   0  0  0  0  0  0  0  0  0  0  0  0
   36.5390   29.8800   36.5050 Cl  0  0  0  0  0  0  0  0  0  0  0  0
   36.3220   30.1030   38.2340 C   0  0  0  0  0  0  0  0  0  0  0  0
   36.9090   31.2020   38.8270 C   0  0  0  0  0  0  0  0  0  0  0  0
   36.7390   31.3820   40.1960 C   0  0  0  0  0  0  0  0  0  0  0  0
   37.1810   32.2280   40.6970 H   0  0  0  0  0  0  0  0  0  0  0  0
   36.0030   30.4820   40.9270 C   0  0  0  0  0  0  0  0  0  0  0  0
   35.8310   30.5610   41.9950 H   0  0  0  0  0  0  0  0  0  0  0  0
   35.4220   29.3780   40.2940 C   0  0  0  0  0  3  0  0  0  0  0  0
   35.5780   29.1810   38.9410 C   0  0  0  0  0  3  0  0  0  0  0  0
  1  6  1  0  0  0  0
  1  9  1  0  0  0  0
  2  1  2  0  0  0  0
  3  4  2  0  0  0  0
  3  2  1  0  0  0  0
  4  5  1  0  0  0  0
  5  8  1  0  0  0  0
  5  6  2  0  0  0  0
  7  3  1  0  0  0  0
  9 10  1  0  0  0  0
  9 14  1  0  0  0  0
 10 11  1  0  0  0  0
 11 19  1  0  0  0  0
 11 18  1  0  0  0  0
 11 12  1  0  0  0  0
 12 21  1  0  0  0  0
 12 20  1  0  0  0  0
 13 22  1  0  0  0  0
 13 12  1  0  0  0  0
 14 25  1  0  0  0  0
 14 13  1  0  0  0  0
 15  9  1  0  0  0  0
 16 10  1  0  0  0  0
 17 10  1  0  0  0  0
 23 13  1  0  0  0  0
 24 14  1  0  0  0  0
 26  2  1  0  0  0  0
 27 30  1  0  0  0  0
 27 26  1  0  0  0  0
 28 27  1  0  0  0  0
 29 27  1  0  0  0  0
 30 31  1  0  0  0  0
 30 33  1  0  0  0  0
 32 30  1  0  0  0  0
 33 34  1  0  0  0  0
 35 40  1  0  0  0  0
 35 33  1  0  0  0  0
 35 38  1  0  0  0  0
 36 35  1  0  0  0  0
 37 36  1  0  0  0  0
 38 39  1  0  0  0  0
 40 43  1  0  0  0  0
 41 42  1  0  0  0  0
 42 43  2  0  0  0  0
 42 49  1  0  0  0  0
 43 44  1  0  0  0  0
 44 45  1  0  0  0  0
 44 46  2  0  0  0  0
 46 47  1  0  0  0  0
 48 46  1  0  0  0  0
 49 48  2  0  0  0  0
M  END
>  <minimizedAffinity>
-5.71716928

$$$$

 OpenBabel03242514213D

 49 51  0  0  0  0  0  0  0  0999 V2000
   38.2340   25.6610   42.2230 C   0  0  0  0  0  0  0  0  0  0  0  0
   38.4760   26.7890   42.9690 C   0  0  0  0  0  0  0  0  0  0  0  0
   39.5860   26.7720   43.7710 C   0  0  0  0  0  0  0  0  0  0  0  0
   40.3820   25.6800   43.7990 N   0  0  0  0  0  0  0  0  0  0  0  0
   40.1450   24.5940   43.0750 C   0  0  0  0  0  0  0  0  0  0  0  0
   39.0740   24.6090   42.3030 N   0  0  0  0  0  0  0  0  0  0  0  0
   39.9480   27.5490   44.4290 H   0  0  0  0  0  0  0  0  0  0  0  0
   40.7740   23.7080   43.0850 H   0  0  0  0  0  0  0  0  0  0  0  0
   37.0820   25.7030   41.3130 C   0  0  0  0  0  0  0  0  0  0  0  0
   36.5060   24.3340   41.0940 C   0  0  0  0  0  0  0  0  0  0  0  0
   36.6230   23.8870   39.7060 C   0  0  0  0  0  0  0  0  0  0  0  0
   36.0030   24.8740   38.7400 C   0  0  0  0  0  0  0  0  0  0  0  0
   36.3440   26.2840   39.0320 C   0  0  0  0  0  0  0  0  0  0  0  0
   37.4550   26.3960   40.0510 C   0  0  0  0  0  0  0  0  0  0  0  0
   36.2540   26.2340   41.8210 H   0  0  0  0  0  0  0  0  0  0  0  0
   35.4510   24.2550   41.4120 H   0  0  0  0  0  0  0  0  0  0  0  0
   37.0560   23.6280   41.7500 H   0  0  0  0  0  0  0  0  0  0  0  0
   36.1280   22.9120   39.5360 H   0  0  0  0  0  0  0  0  0  0  0  0
   37.7090   23.7640   39.4650 H   0  0  0  0  0  0  0  0  0  0  0  0
   36.4240   24.5940   37.7320 H   0  0  0  0  0  0  0  0  0  0  0  0
   34.9100   24.6580   38.6590 H   0  0  0  0  0  0  0  0  0  0  0  0
   36.6740   26.8340   38.1190 H   0  0  0  0  0  0  0  0  0  0  0  0
   35.4620   26.7970   39.4670 H   0  0  0  0  0  0  0  0  0  0  0  0
   37.6590   27.4780   40.2100 H   0  0  0  0  0  0  0  0  0  0  0  0
   38.3350   25.8810   39.6090 H   0  0  0  0  0  0  0  0  0  0  0  0
   37.8200   27.9450   43.0760 O   0  0  0  0  0  0  0  0  0  0  0  0
   38.2130   29.2470   43.2310 C   0  0  0  0  0  0  0  0  0  0  0  0
   38.9950   29.4850   43.9490 H   0  0  0  0  0  0  0  0  0  0  0  0
   37.3020   29.8350   43.5510 H   0  0  0  0  0  0  0  0  0  0  0  0
   38.6590   29.8980   41.9320 C   0  0  0  0  0  0  0  0  0  0  0  0
   39.4030   30.7090   42.1280 H   0  0  0  0  0  0  0  0  0  0  0  0
   39.1400   29.1190   41.3240 H   0  0  0  0  0  0  0  0  0  0  0  0
   37.5630   30.5380   41.2300 N   0  0  0  0  0  0  0  0  0  0  0  0
   36.7770   30.8110   41.8580 H   0  0  0  0  0  0  0  0  0  0  0  0
   38.1750   32.0390   40.5920 S   0  0  0  0  0  0  0  0  0  0  0  0
   39.1920   32.6350   41.5150 O   0  0  0  0  0  0  0  0  0  0  0  0
   38.9710   33.0230   42.3770 H   0  0  0  0  0  0  0  0  0  0  0  0
   37.0010   32.9630   40.4360 O   0  0  0  0  0  0  0  0  0  0  0  0
   36.3640   32.8910   39.6680 H   0  0  0  0  0  0  0  0  0  0  0  0
   38.8410   31.8180   39.0730 O   0  0  0  0  0  0  0  0  0  0  0  0
   40.8040   29.6810   38.9120 Cl  0  0  0  0  0  0  0  0  0  0  0  0
   39.2680   29.7050   38.0600 C   0  0  0  0  0  0  0  0  0  0  0  0
   38.4410   30.7950   38.2410 C   0  0  0  0  0  0  0  0  0  0  0  0
   37.2240   30.8180   37.5670 C   0  0  0  0  0  0  0  0  0  0  0  0
   36.5500   31.6510   37.6810 H   0  0  0  0  0  0  0  0  0  0  0  0
   36.8660   29.7760   36.7470 C   0  0  0  0  0  0  0  0  0  0  0  0
   35.9350   29.7290   36.1940 H   0  0  0  0  0  0  0  0  0  0  0  0
   37.7280   28.6860   36.5870 C   0  0  0  0  0  3  0  0  0  0  0  0
   38.9370   28.6430   37.2440 C   0  0  0  0  0  3  0  0  0  0  0  0
  1  6  2  0  0  0  0
  1  2  1  0  0  0  0
  2 26  1  0  0  0  0
  2  3  2  0  0  0  0
  3  4  1  0  0  0  0
  3  7  1  0  0  0  0
  5  8  1  0  0  0  0
  5  4  2  0  0  0  0
  6  5  1  0  0  0  0
  9 15  1  0  0  0  0
  9  1  1  0  0  0  0
 10  9  1  0  0  0  0
 10 16  1  0  0  0  0
 10 17  1  0  0  0  0
 11 10  1  0  0  0  0
 12 13  1  0  0  0  0
 12 11  1  0  0  0  0
 13 23  1  0  0  0  0
 13 14  1  0  0  0  0
 14 24  1  0  0  0  0
 14  9  1  0  0  0  0
 18 11  1  0  0  0  0
 19 11  1  0  0  0  0
 20 12  1  0  0  0  0
 21 12  1  0  0  0  0
 22 13  1  0  0  0  0
 25 14  1  0  0  0  0
 26 27  1  0  0  0  0
 27 29  1  0  0  0  0
 27 28  1  0  0  0  0
 30 31  1  0  0  0  0
 30 27  1  0  0  0  0
 32 30  1  0  0  0  0
 33 34  1  0  0  0  0
 33 30  1  0  0  0  0
 35 33  1  0  0  0  0
 35 36  1  0  0  0  0
 36 37  1  0  0  0  0
 38 35  1  0  0  0  0
 39 38  1  0  0  0  0
 40 35  1  0  0  0  0
 42 43  1  0  0  0  0
 42 41  1  0  0  0  0
 43 40  1  0  0  0  0
 44 45  1  0  0  0  0
 44 43  2  0  0  0  0
 46 44  1  0  0  0  0
 47 46  1  0  0  0  0
 48 46  2  0  0  0  0
 48 49  1  0  0  0  0
 49 42  2  0  0  0  0
M  END
>  <minimizedAffinity>
-5.69899511

$$$$

 OpenBabel03242514213D

 49 51  0  0  0  0  0  0  0  0999 V2000
   38.9820   25.2240   41.6970 C   0  0  0  0  0  0  0  0  0  0  0  0
   37.7030   25.4370   42.1510 C   0  0  0  0  0  0  0  0  0  0  0  0
   36.7310   24.5990   41.6730 C   0  0  0  0  0  0  0  0  0  0  0  0
   37.0530   23.6200   40.7990 N   0  0  0  0  0  0  0  0  0  0  0  0
   38.2910   23.4170   40.3640 C   0  0  0  0  0  0  0  0  0  0  0  0
   39.2280   24.2250   40.8240 N   0  0  0  0  0  0  0  0  0  0  0  0
   35.6750   24.6000   41.9020 H   0  0  0  0  0  0  0  0  0  0  0  0
   38.5670   22.6350   39.6630 H   0  0  0  0  0  0  0  0  0  0  0  0
   40.0360   26.0780   42.2600 C   0  0  0  0  0  0  0  0  0  0  0  0
   41.3090   25.9690   41.4700 C   0  0  0  0  0  0  0  0  0  0  0  0
   42.4080   25.3990   42.2480 C   0  0  0  0  0  0  0  0  0  0  0  0
   42.6540   26.1680   43.5290 C   0  0  0  0  0  0  0  0  0  0  0  0
   41.4140   26.5160   44.2580 C   0  0  0  0  0  0  0  0  0  0  0  0
   40.2110   25.7840   43.7070 C   0  0  0  0  0  0  0  0  0  0  0  0
   39.7480   27.1350   42.1070 H   0  0  0  0  0  0  0  0  0  0  0  0
   41.6320   26.9340   41.0410 H   0  0  0  0  0  0  0  0  0  0  0  0
   41.1080   25.3190   40.5940 H   0  0  0  0  0  0  0  0  0  0  0  0
   43.3620   25.3940   41.6860 H   0  0  0  0  0  0  0  0  0  0  0  0
   42.1540   24.3380   42.4950 H   0  0  0  0  0  0  0  0  0  0  0  0
   43.2740   25.4740   44.1670 H   0  0  0  0  0  0  0  0  0  0  0  0
   43.3300   27.0290   43.3080 H   0  0  0  0  0  0  0  0  0  0  0  0
   41.4820   26.2700   45.3450 H   0  0  0  0  0  0  0  0  0  0  0  0
   41.2060   27.5990   44.1430 H   0  0  0  0  0  0  0  0  0  0  0  0
   39.3260   26.0890   44.3080 H   0  0  0  0  0  0  0  0  0  0  0  0
   40.4250   24.7000   43.8270 H   0  0  0  0  0  0  0  0  0  0  0  0
   37.1950   26.3330   42.9960 O   0  0  0  0  0  0  0  0  0  0  0  0
   36.5440   27.5270   42.8350 C   0  0  0  0  0  0  0  0  0  0  0  0
   35.8660   27.8720   43.6130 H   0  0  0  0  0  0  0  0  0  0  0  0
   35.9260   27.4460   41.8920 H   0  0  0  0  0  0  0  0  0  0  0  0
   37.4830   28.6950   42.5860 C   0  0  0  0  0  0  0  0  0  0  0  0
   38.2720   28.7480   43.3770 H   0  0  0  0  0  0  0  0  0  0  0  0
   37.9710   28.5220   41.6160 H   0  0  0  0  0  0  0  0  0  0  0  0
   36.8000   29.9730   42.6330 N   0  0  0  0  0  0  0  0  0  0  0  0
   37.4080   30.7510   42.9680 H   0  0  0  0  0  0  0  0  0  0  0  0
   36.3920   30.3920   40.9920 S   0  0  0  0  0  0  0  0  0  0  0  0
   36.4980   31.8700   40.7770 O   0  0  0  0  0  0  0  0  0  0  0  0
   35.8780   32.5120   41.1580 H   0  0  0  0  0  0  0  0  0  0  0  0
   34.9840   29.9250   40.7540 O   0  0  0  0  0  0  0  0  0  0  0  0
   34.7640   28.9670   40.5690 H   0  0  0  0  0  0  0  0  0  0  0  0
   37.3750   29.5850   39.9040 O   0  0  0  0  0  0  0  0  0  0  0  0
   37.1560   30.9100   37.3270 Cl  0  0  0  0  0  0  0  0  0  0  0  0
   36.6970   29.2440   37.6470 C   0  0  0  0  0  0  0  0  0  0  0  0
   36.8620   28.7590   38.9280 C   0  0  0  0  0  0  0  0  0  0  0  0
   36.4990   27.4410   39.1860 C   0  0  0  0  0  0  0  0  0  0  0  0
   36.6120   27.0240   40.1730 H   0  0  0  0  0  0  0  0  0  0  0  0
   35.9910   26.6540   38.1820 C   0  0  0  0  0  0  0  0  0  0  0  0
   35.6900   25.6200   38.3120 H   0  0  0  0  0  0  0  0  0  0  0  0
   35.8380   27.1770   36.8940 C   0  0  0  0  0  3  0  0  0  0  0  0
   36.1900   28.4790   36.6170 C   0  0  0  0  0  3  0  0  0  0  0  0
  1  2  1  0  0  0  0
  1  9  1  0  0  0  0
  2 26  1  0  0  0  0
  3  7  1  0  0  0  0
  3  2  2  0  0  0  0
  4  3  1  0  0  0  0
  5  4  2  0  0  0  0
  5  6  1  0  0  0  0
  6  1  2  0  0  0  0
  8  5  1  0  0  0  0
  9 14  1  0  0  0  0
 10 11  1  0  0  0  0
 10  9  1  0  0  0  0
 11 19  1  0  0  0  0
 11 12  1  0  0  0  0
 12 20  1  0  0  0  0
 12 13  1  0  0  0  0
 13 22  1  0  0  0  0
 14 25  1  0  0  0  0
 14 13  1  0  0  0  0
 14 24  1  0  0  0  0
 15  9  1  0  0  0  0
 16 10  1  0  0  0  0
 17 10  1  0  0  0  0
 18 11  1  0  0  0  0
 21 12  1  0  0  0  0
 23 13  1  0  0  0  0
 27 26  1  0  0  0  0
 27 28  1  0  0  0  0
 29 27  1  0  0  0  0
 30 33  1  0  0  0  0
 30 27  1  0  0  0  0
 30 31  1  0  0  0  0
 32 30  1  0  0  0  0
 33 34  1  0  0  0  0
 35 33  1  0  0  0  0
 36 35  1  0  0  0  0
 36 37  1  0  0  0  0
 38 35  1  0  0  0  0
 39 38  1  0  0  0  0
 40 35  1  0  0  0  0
 41 42  1  0  0  0  0
 42 43  1  0  0  0  0
 43 44  2  0  0  0  0
 43 40  1  0  0  0  0
 44 45  1  0  0  0  0
 46 47  1  0  0  0  0
 46 44  1  0  0  0  0
 48 46  2  0  0  0  0
 49 48  1  0  0  0  0
 49 42  2  0  0  0  0
M  END
>  <minimizedAffinity>
-5.62675381

$$$$

 OpenBabel03242514213D

 49 51  0  0  0  0  0  0  0  0999 V2000
   37.1100   27.2510   40.0410 C   0  0  0  0  0  0  0  0  0  0  0  0
   36.9150   28.0730   38.9570 C   0  0  0  0  0  0  0  0  0  0  0  0
   36.3230   27.5140   37.8570 C   0  0  0  0  0  0  0  0  0  0  0  0
   35.9590   26.2130   37.8740 N   0  0  0  0  0  0  0  0  0  0  0  0
   36.1480   25.4230   38.9230 C   0  0  0  0  0  0  0  0  0  0  0  0
   36.7200   25.9610   39.9840 N   0  0  0  0  0  0  0  0  0  0  0  0
   36.0850   27.9850   36.9130 H   0  0  0  0  0  0  0  0  0  0  0  0
   35.8620   24.3750   38.9540 H   0  0  0  0  0  0  0  0  0  0  0  0
   37.6830   27.8660   41.2450 C   0  0  0  0  0  0  0  0  0  0  0  0
   39.0520   27.3240   41.5380 C   0  0  0  0  0  0  0  0  0  0  0  0
   39.1110   26.5940   42.8040 C   0  0  0  0  0  0  0  0  0  0  0  0
   38.6240   27.4340   43.9650 C   0  0  0  0  0  0  0  0  0  0  0  0
   37.3850   28.1890   43.6720 C   0  0  0  0  0  0  0  0  0  0  0  0
   36.7370   27.7320   42.3850 C   0  0  0  0  0  0  0  0  0  0  0  0
   37.8880   28.9320   41.0300 H   0  0  0  0  0  0  0  0  0  0  0  0
   39.8340   28.1040   41.5340 H   0  0  0  0  0  0  0  0  0  0  0  0
   39.3280   26.6380   40.7100 H   0  0  0  0  0  0  0  0  0  0  0  0
   40.1390   26.2640   43.0510 H   0  0  0  0  0  0  0  0  0  0  0  0
   38.4730   25.6780   42.7150 H   0  0  0  0  0  0  0  0  0  0  0  0
   38.4180   26.6930   44.7910 H   0  0  0  0  0  0  0  0  0  0  0  0
   39.4750   28.0500   44.3440 H   0  0  0  0  0  0  0  0  0  0  0  0
   36.6260   28.0800   44.4830 H   0  0  0  0  0  0  0  0  0  0  0  0
   37.6270   29.2630   43.5420 H   0  0  0  0  0  0  0  0  0  0  0  0
   35.8150   28.3340   42.2390 H   0  0  0  0  0  0  0  0  0  0  0  0
   36.4970   26.6560   42.5230 H   0  0  0  0  0  0  0  0  0  0  0  0
   37.2000   29.3590   38.7520 O   0  0  0  0  0  0  0  0  0  0  0  0
   37.9410   30.0290   37.8150 C   0  0  0  0  0  0  0  0  0  0  0  0
   38.0340   29.6120   36.8140 H   0  0  0  0  0  0  0  0  0  0  0  0
   38.9930   30.1140   38.2200 H   0  0  0  0  0  0  0  0  0  0  0  0
   37.4880   31.4630   37.6040 C   0  0  0  0  0  0  0  0  0  0  0  0
   37.4740   31.7210   36.5170 H   0  0  0  0  0  0  0  0  0  0  0  0
   36.4640   31.5440   37.9970 H   0  0  0  0  0  0  0  0  0  0  0  0
   38.3850   32.4220   38.2200 N   0  0  0  0  0  0  0  0  0  0  0  0
   38.5740   33.2520   37.6180 H   0  0  0  0  0  0  0  0  0  0  0  0
   37.5670   33.0570   39.6220 S   0  0  0  0  0  0  0  0  0  0  0  0
   36.5810   32.0660   40.1580 O   0  0  0  0  0  0  0  0  0  0  0  0
   35.7530   31.8370   39.7060 H   0  0  0  0  0  0  0  0  0  0  0  0
   36.8690   34.3160   39.1930 O   0  0  0  0  0  0  0  0  0  0  0  0
   37.3540   35.1820   39.0770 H   0  0  0  0  0  0  0  0  0  0  0  0
   38.6620   33.4770   40.8160 O   0  0  0  0  0  0  0  0  0  0  0  0
   39.7630   30.9420   41.7150 Cl  0  0  0  0  0  0  0  0  0  0  0  0
   40.6940   32.2480   40.9990 C   0  0  0  0  0  0  0  0  0  0  0  0
   40.0240   33.3930   40.6210 C   0  0  0  0  0  0  0  0  0  0  0  0
   40.7570   34.4310   40.0550 C   0  0  0  0  0  0  0  0  0  0  0  0
   40.2710   35.3420   39.7470 H   0  0  0  0  0  0  0  0  0  0  0  0
   42.1130   34.3050   39.8800 C   0  0  0  0  0  0  0  0  0  0  0  0
   42.7450   35.0720   39.4450 H   0  0  0  0  0  0  0  0  0  0  0  0
   42.7620   33.1300   40.2730 C   0  0  0  0  0  3  0  0  0  0  0  0
   42.0550   32.0910   40.8360 C   0  0  0  0  0  3  0  0  0  0  0  0
  1  9  1  0  0  0  0
  2  1  2  0  0  0  0
  3  4  2  0  0  0  0
  3  2  1  0  0  0  0
  4  5  1  0  0  0  0
  5  8  1  0  0  0  0
  5  6  2  0  0  0  0
  6  1  1  0  0  0  0
  7  3  1  0  0  0  0
  9 10  1  0  0  0  0
  9 14  1  0  0  0  0
 10 11  1  0  0  0  0
 11 18  1  0  0  0  0
 11 12  1  0  0  0  0
 12 21  1  0  0  0  0
 12 20  1  0  0  0  0
 13 12  1  0  0  0  0
 13 22  1  0  0  0  0
 14 25  1  0  0  0  0
 14 13  1  0  0  0  0
 15  9  1  0  0  0  0
 16 10  1  0  0  0  0
 17 10  1  0  0  0  0
 19 11  1  0  0  0  0
 23 13  1  0  0  0  0
 24 14  1  0  0  0  0
 26  2  1  0  0  0  0
 27 29  1  0  0  0  0
 27 26  1  0  0  0  0
 28 27  1  0  0  0  0
 30 27  1  0  0  0  0
 30 32  1  0  0  0  0
 30 33  1  0  0  0  0
 31 30  1  0  0  0  0
 33 35  1  0  0  0  0
 34 33  1  0  0  0  0
 35 36  1  0  0  0  0
 35 40  1  0  0  0  0
 37 36  1  0  0  0  0
 38 35  1  0  0  0  0
 39 38  1  0  0  0  0
 42 41  1  0  0  0  0
 43 40  1  0  0  0  0
 43 42  2  0  0  0  0
 44 43  1  0  0  0  0
 45 44  1  0  0  0  0
 46 44  2  0  0  0  0
 46 48  1  0  0  0  0
 47 46  1  0  0  0  0
 48 49  2  0  0  0  0
 49 42  1  0  0  0  0
M  END
>  <minimizedAffinity>
-5.60866117

$$$$
