REMARK  Name = 
REMARK  3 active torsions:
REMARK  status: ('A' for Active; 'I' for Inactive)
REMARK    1  A    between atoms: C_2  and  N_12
REMARK    2  A    between atoms: C_11  and  S_13
REMARK    3  A    between atoms: S_13  and  C_27
REMARK                            x       y       z     vdW  Elec       q    Type
REMARK                         _______ _______ _______ _____ _____    ______ ____
ROOT
ATOM      1  C   UNL     1      44.475  35.747  45.011  0.00  0.00    +0.000 A 
ATOM      2  C   UNL     1      45.123  35.711  43.748  0.00  0.00    +0.000 A 
ATOM      3  C   UNL     1      46.018  34.721  43.485  0.00  0.00    +0.000 A 
ATOM      4  N   UNL     1      46.234  33.813  44.476  0.00  0.00    +0.000 NA
ATOM      5  C   UNL     1      45.630  33.846  45.652  0.00  0.00    +0.000 A 
ATOM      6  N   UNL     1      44.742  34.811  45.944  0.00  0.00    +0.000 NA
ATOM      7  N   UNL     1      45.934  32.847  46.604  0.00  0.00    +0.000 N 
ATOM      8  C   UNL     1      45.166  32.569  47.815  0.00  0.00    +0.000 C 
ATOM      9  C   UNL     1      46.252  32.240  48.813  0.00  0.00    +0.000 C 
ATOM     10  C   UNL     1      47.531  32.062  48.031  0.00  0.00    +0.000 C 
ATOM     11  C   UNL     1      47.014  31.903  46.621  0.00  0.00    +0.000 C 
ATOM     12  H   UNL     1      43.753  36.498  45.300  0.00  0.00    +0.000 HD
ATOM     13  H   UNL     1      46.510  34.693  42.523  0.00  0.00    +0.000 HD
ATOM     14  H   UNL     1      44.437  31.757  47.679  0.00  0.00    +0.000 HD
ATOM     15  H   UNL     1      44.705  33.540  48.126  0.00  0.00    +0.000 HD
ATOM     16  H   UNL     1      46.006  31.373  49.455  0.00  0.00    +0.000 HD
ATOM     17  H   UNL     1      46.436  33.105  49.514  0.00  0.00    +0.000 HD
ATOM     18  H   UNL     1      47.979  31.105  48.372  0.00  0.00    +0.000 HD
ATOM     19  H   UNL     1      48.217  32.931  48.145  0.00  0.00    +0.000 HD
ATOM     20  H   UNL     1      47.819  32.204  45.903  0.00  0.00    +0.000 HD
ENDROOT
BRANCH   2  21
ATOM     21  N   UNL     1      44.770  36.754  42.827  0.00  0.00    +0.000 N 
ATOM     22  H   UNL     1      45.592  37.214  42.359  0.00  0.00    +0.000 HD
ATOM     23  H   UNL     1      43.813  37.093  42.582  0.00  0.00    +0.000 HD
ENDBRANCH   2  21
BRANCH  11  24
ATOM     24  S   UNL     1      46.492  30.201  46.382  0.00  0.00    +0.000 S 
BRANCH  24  27
ATOM     25 CL   UNL     1      48.004  31.413  43.981  0.00  0.00    +0.000 Cl
ATOM     26  C   UNL     1      46.541  30.472  43.729  0.00  0.00    +0.000 A 
ATOM     27  C   UNL     1      45.831  29.909  44.766  0.00  0.00    +0.000 A 
ATOM     28  C   UNL     1      44.698  29.192  44.447  0.00  0.00    +0.000 A 
ATOM     29  H   UNL     1      44.171  28.766  45.288  0.00  0.00    +0.000 HD
ATOM     30  C   UNL     1      44.249  29.017  43.157  0.00  0.00    +0.000 A 
ATOM     31  H   UNL     1      43.361  28.453  42.934  0.00  0.00    +0.000 HD
ATOM     32  C   UNL     1      45.002  29.605  42.164  0.00  0.00    +0.000 A 
ATOM     33  C   UNL     1      46.160  30.346  42.393  0.00  0.00    +0.000 A 
ENDBRANCH  24  27
ENDBRANCH  11  24
TORSDOF 3
