
 OpenBabel03252504193D

 38 40  0  0  0  0  0  0  0  0999 V2000
   33.4860   28.9020   39.0440 F   0  0  0  0  0  0  0  0  0  0  0  0
   34.2430   29.0270   37.8930 C   0  0  0  0  0  0  0  0  0  0  0  0
   35.5970   29.1860   37.9920 C   0  0  0  0  0  0  0  0  0  0  0  0
   36.2740   29.3040   36.7900 C   0  0  0  0  0  0  0  0  0  0  0  0
   35.6200   29.2640   35.5860 C   0  0  0  0  0  0  0  0  0  0  0  0
   34.2530   29.1030   35.5480 C   0  0  0  0  0  0  0  0  0  0  0  0
   33.5220   28.9780   36.7290 C   0  0  0  0  0  0  0  0  0  0  0  0
   37.3630   29.4320   36.8440 H   0  0  0  0  0  0  0  0  0  0  0  0
   36.1870   29.3600   34.6670 H   0  0  0  0  0  0  0  0  0  0  0  0
   33.7010   29.0660   34.6170 H   0  0  0  0  0  0  0  0  0  0  0  0
   37.4340   28.0320   40.9300 C   0  0  0  0  0  0  0  0  0  0  0  0
   37.5820   29.1910   41.7020 C   0  0  0  0  0  0  0  0  0  0  0  0
   37.0350   30.3830   41.1940 C   0  0  0  0  0  0  0  0  0  0  0  0
   36.4010   30.3690   40.0030 N   0  0  0  0  0  0  0  0  0  0  0  0
   36.2810   29.2260   39.2860 C   0  0  0  0  0  0  0  0  0  0  0  0
   36.7970   28.0720   39.7570 N   0  0  0  0  0  0  0  0  0  0  0  0
   37.1510   31.2740   41.7920 H   0  0  0  0  0  0  0  0  0  0  0  0
   38.2860   29.1260   42.9920 C   0  0  0  0  0  0  0  0  0  0  0  0
   38.8370   30.3710   43.2880 F   0  0  0  0  0  0  0  0  0  0  0  0
   37.3420   28.8610   43.9890 F   0  0  0  0  0  0  0  0  0  0  0  0
   39.2630   28.2010   43.0750 F   0  0  0  0  0  0  0  0  0  0  0  0
   37.9600   26.8930   41.4240 O   0  0  0  0  0  0  0  0  0  0  0  0
   37.2470   25.8010   41.9620 C   0  0  0  0  0  0  0  0  0  0  0  0
   36.4150   26.3000   42.9650 F   0  0  0  0  0  0  0  0  0  0  0  0
   36.5530   25.1530   40.9660 F   0  0  0  0  0  0  0  0  0  0  0  0
   38.1160   24.9460   42.6170 F   0  0  0  0  0  0  0  0  0  0  0  0
   32.0300   28.8000   36.7310 C   0  0  0  0  0  0  0  0  0  0  0  0
   31.8340   28.2020   35.7950 H   0  0  0  0  0  0  0  0  0  0  0  0
   31.6610   28.2540   37.6010 H   0  0  0  0  0  0  0  0  0  0  0  0
   30.3860   29.9090   39.0680 Cl  0  0  0  0  0  0  0  0  0  0  0  0
   30.5730   30.7110   37.5210 C   0  0  0  0  0  0  0  0  0  0  0  0
   31.3470   30.0810   36.5680 C   0  0  0  0  0  0  0  0  0  0  0  0
   31.4940   30.7260   35.3340 C   0  0  0  0  0  0  0  0  0  0  0  0
   32.0950   30.2880   34.5260 H   0  0  0  0  0  0  0  0  0  0  0  0
   30.8980   31.9450   35.0540 C   0  0  0  0  0  0  0  0  0  0  0  0
   31.0350   32.4160   34.0830 H   0  0  0  0  0  0  0  0  0  0  0  0
   30.1300   32.5490   36.0280 C   0  0  0  0  0  3  0  0  0  0  0  0
   29.9550   31.9420   37.2750 C   0  0  0  0  0  3  0  0  0  0  0  0
  2  3  1  0  0  0  0
  2  1  1  0  0  0  0
  3 15  1  0  0  0  0
  4  8  1  0  0  0  0
  4  3  2  0  0  0  0
  5  4  1  0  0  0  0
  6  5  2  0  0  0  0
  6  7  1  0  0  0  0
  7 27  1  0  0  0  0
  7  2  2  0  0  0  0
  9  5  1  0  0  0  0
 10  6  1  0  0  0  0
 11 22  1  0  0  0  0
 11 12  1  0  0  0  0
 12 18  1  0  0  0  0
 13 12  2  0  0  0  0
 13 17  1  0  0  0  0
 14 13  1  0  0  0  0
 15 16  1  0  0  0  0
 15 14  2  0  0  0  0
 16 11  2  0  0  0  0
 18 21  1  0  0  0  0
 18 19  1  0  0  0  0
 18 20  1  0  0  0  0
 22 23  1  0  0  0  0
 23 26  1  0  0  0  0
 23 24  1  0  0  0  0
 25 23  1  0  0  0  0
 27 29  1  0  0  0  0
 28 27  1  0  0  0  0
 31 30  1  0  0  0  0
 32 27  1  0  0  0  0
 32 31  2  0  0  0  0
 33 32  1  0  0  0  0
 34 33  1  0  0  0  0
 35 33  2  0  0  0  0
 35 37  1  0  0  0  0
 36 35  1  0  0  0  0
 37 38  2  0  0  0  0
 38 31  1  0  0  0  0
M  END
>  <minimizedAffinity>
-7.23265409

$$$$

 OpenBabel03252504193D

 38 40  0  0  0  0  0  0  0  0999 V2000
   33.5260   28.9250   38.6010 F   0  0  0  0  0  0  0  0  0  0  0  0
   34.1870   29.0440   37.3910 C   0  0  0  0  0  0  0  0  0  0  0  0
   35.5470   29.1760   37.3780 C   0  0  0  0  0  0  0  0  0  0  0  0
   36.1240   29.2890   36.1240 C   0  0  0  0  0  0  0  0  0  0  0  0
   35.3700   29.2690   34.9790 C   0  0  0  0  0  0  0  0  0  0  0  0
   34.0020   29.1340   35.0550 C   0  0  0  0  0  0  0  0  0  0  0  0
   33.3700   29.0150   36.2920 C   0  0  0  0  0  0  0  0  0  0  0  0
   37.2150   29.3960   36.0870 H   0  0  0  0  0  0  0  0  0  0  0  0
   35.8600   29.3610   34.0160 H   0  0  0  0  0  0  0  0  0  0  0  0
   33.3730   29.1140   34.1730 H   0  0  0  0  0  0  0  0  0  0  0  0
   37.2620   30.4850   40.3240 C   0  0  0  0  0  0  0  0  0  0  0  0
   37.8060   29.3430   40.9230 C   0  0  0  0  0  0  0  0  0  0  0  0
   37.5740   28.1060   40.2930 C   0  0  0  0  0  0  0  0  0  0  0  0
   36.8470   28.0660   39.1560 N   0  0  0  0  0  0  0  0  0  0  0  0
   36.3370   29.1950   38.6100 C   0  0  0  0  0  0  0  0  0  0  0  0
   36.5500   30.3910   39.1990 N   0  0  0  0  0  0  0  0  0  0  0  0
   37.9950   27.2280   40.7580 H   0  0  0  0  0  0  0  0  0  0  0  0
   38.5880   29.4670   42.1630 C   0  0  0  0  0  0  0  0  0  0  0  0
   37.7290   29.6610   43.2420 F   0  0  0  0  0  0  0  0  0  0  0  0
   39.2420   28.2520   42.3870 F   0  0  0  0  0  0  0  0  0  0  0  0
   39.5080   30.4530   42.1730 F   0  0  0  0  0  0  0  0  0  0  0  0
   37.4900   31.6660   40.9330 O   0  0  0  0  0  0  0  0  0  0  0  0
   38.0900   32.8070   40.3600 C   0  0  0  0  0  0  0  0  0  0  0  0
   37.0900   33.5140   39.6930 F   0  0  0  0  0  0  0  0  0  0  0  0
   38.7130   33.5520   41.3350 F   0  0  0  0  0  0  0  0  0  0  0  0
   38.9750   32.4260   39.3670 F   0  0  0  0  0  0  0  0  0  0  0  0
   31.8800   28.8660   36.4170 C   0  0  0  0  0  0  0  0  0  0  0  0
   31.5880   28.3200   35.4750 H   0  0  0  0  0  0  0  0  0  0  0  0
   31.5760   28.2850   37.2900 H   0  0  0  0  0  0  0  0  0  0  0  0
   30.4800   29.8920   38.9440 Cl  0  0  0  0  0  0  0  0  0  0  0  0
   30.5450   30.7640   37.4260 C   0  0  0  0  0  0  0  0  0  0  0  0
   31.2160   30.1670   36.3780 C   0  0  0  0  0  0  0  0  0  0  0  0
   31.2650   30.8670   35.1660 C   0  0  0  0  0  0  0  0  0  0  0  0
   31.7800   30.4580   34.2880 H   0  0  0  0  0  0  0  0  0  0  0  0
   30.6750   32.1100   35.0000 C   0  0  0  0  0  0  0  0  0  0  0  0
   30.7350   32.6240   34.0430 H   0  0  0  0  0  0  0  0  0  0  0  0
   30.0120   32.6800   36.0670 C   0  0  0  0  0  3  0  0  0  0  0  0
   29.9380   32.0170   37.2950 C   0  0  0  0  0  3  0  0  0  0  0  0
  2  1  1  0  0  0  0
  3  2  1  0  0  0  0
  3 15  1  0  0  0  0
  4  3  2  0  0  0  0
  5  6  2  0  0  0  0
  5  4  1  0  0  0  0
  6  7  1  0  0  0  0
  7 27  1  0  0  0  0
  7  2  2  0  0  0  0
  8  4  1  0  0  0  0
  9  5  1  0  0  0  0
 10  6  1  0  0  0  0
 11 12  1  0  0  0  0
 11 22  1  0  0  0  0
 12 18  1  0  0  0  0
 13 17  1  0  0  0  0
 13 12  2  0  0  0  0
 14 13  1  0  0  0  0
 15 14  2  0  0  0  0
 15 16  1  0  0  0  0
 16 11  2  0  0  0  0
 18 21  1  0  0  0  0
 18 20  1  0  0  0  0
 18 19  1  0  0  0  0
 23 22  1  0  0  0  0
 23 25  1  0  0  0  0
 24 23  1  0  0  0  0
 26 23  1  0  0  0  0
 27 29  1  0  0  0  0
 28 27  1  0  0  0  0
 31 30  1  0  0  0  0
 32 27  1  0  0  0  0
 32 31  2  0  0  0  0
 33 32  1  0  0  0  0
 34 33  1  0  0  0  0
 35 33  2  0  0  0  0
 35 37  1  0  0  0  0
 36 35  1  0  0  0  0
 37 38  2  0  0  0  0
 38 31  1  0  0  0  0
M  END
>  <minimizedAffinity>
-6.77059937

$$$$

 OpenBabel03252504193D

 38 40  0  0  0  0  0  0  0  0999 V2000
   37.8980   28.8090   41.4870 F   0  0  0  0  0  0  0  0  0  0  0  0
   38.8510   28.2240   42.3040 C   0  0  0  0  0  0  0  0  0  0  0  0
   40.0510   28.8500   42.4920 C   0  0  0  0  0  0  0  0  0  0  0  0
   40.9420   28.1930   43.3240 C   0  0  0  0  0  0  0  0  0  0  0  0
   40.6310   26.9940   43.9120 C   0  0  0  0  0  0  0  0  0  0  0  0
   39.4060   26.4110   43.6840 C   0  0  0  0  0  0  0  0  0  0  0  0
   38.4700   27.0300   42.8560 C   0  0  0  0  0  0  0  0  0  0  0  0
   41.9130   28.6770   43.4910 H   0  0  0  0  0  0  0  0  0  0  0  0
   41.3580   26.5120   44.5560 H   0  0  0  0  0  0  0  0  0  0  0  0
   39.1240   25.4650   44.1300 H   0  0  0  0  0  0  0  0  0  0  0  0
   39.5540   32.1570   41.0250 C   0  0  0  0  0  0  0  0  0  0  0  0
   40.8480   32.5560   40.6680 C   0  0  0  0  0  0  0  0  0  0  0  0
   41.9010   31.6640   40.9400 C   0  0  0  0  0  0  0  0  0  0  0  0
   41.6320   30.4780   41.5260 N   0  0  0  0  0  0  0  0  0  0  0  0
   40.3660   30.1300   41.8570 C   0  0  0  0  0  0  0  0  0  0  0  0
   39.3430   30.9720   41.6020 N   0  0  0  0  0  0  0  0  0  0  0  0
   42.8970   31.9750   40.6640 H   0  0  0  0  0  0  0  0  0  0  0  0
   41.0620   33.8650   40.0320 C   0  0  0  0  0  0  0  0  0  0  0  0
   42.4230   34.1570   40.0040 F   0  0  0  0  0  0  0  0  0  0  0  0
   40.6460   33.7730   38.7000 F   0  0  0  0  0  0  0  0  0  0  0  0
   40.4180   34.9020   40.6060 F   0  0  0  0  0  0  0  0  0  0  0  0
   38.5510   33.0170   40.7600 O   0  0  0  0  0  0  0  0  0  0  0  0
   37.5120   32.8350   39.8230 C   0  0  0  0  0  0  0  0  0  0  0  0
   38.0870   32.3360   38.6540 F   0  0  0  0  0  0  0  0  0  0  0  0
   36.5480   32.0020   40.3430 F   0  0  0  0  0  0  0  0  0  0  0  0
   36.9840   34.0620   39.4600 F   0  0  0  0  0  0  0  0  0  0  0  0
   37.1220   26.4260   42.5830 C   0  0  0  0  0  0  0  0  0  0  0  0
   36.8710   25.8910   43.5430 H   0  0  0  0  0  0  0  0  0  0  0  0
   36.3530   27.1680   42.3610 H   0  0  0  0  0  0  0  0  0  0  0  0
   36.2430   27.1480   39.7360 Cl  0  0  0  0  0  0  0  0  0  0  0  0
   36.8480   25.5750   40.2150 C   0  0  0  0  0  0  0  0  0  0  0  0
   37.2040   25.4070   41.5380 C   0  0  0  0  0  0  0  0  0  0  0  0
   37.6870   24.1480   41.9170 C   0  0  0  0  0  0  0  0  0  0  0  0
   37.9900   23.9370   42.9510 H   0  0  0  0  0  0  0  0  0  0  0  0
   37.8130   23.0980   41.0220 C   0  0  0  0  0  0  0  0  0  0  0  0
   38.1930   22.1340   41.3530 H   0  0  0  0  0  0  0  0  0  0  0  0
   37.4490   23.2980   39.7060 C   0  0  0  0  0  3  0  0  0  0  0  0
   36.9620   24.5380   39.2830 C   0  0  0  0  0  3  0  0  0  0  0  0
  1  2  1  0  0  0  0
  2  3  2  0  0  0  0
  2  7  1  0  0  0  0
  3  4  1  0  0  0  0
  4  8  1  0  0  0  0
  4  5  2  0  0  0  0
  5  9  1  0  0  0  0
  6  5  1  0  0  0  0
  6 10  1  0  0  0  0
  7  6  2  0  0  0  0
 11 16  1  0  0  0  0
 12 13  1  0  0  0  0
 12 11  2  0  0  0  0
 13 14  2  0  0  0  0
 14 15  1  0  0  0  0
 15  3  1  0  0  0  0
 16 15  2  0  0  0  0
 17 13  1  0  0  0  0
 18 21  1  0  0  0  0
 18 12  1  0  0  0  0
 19 18  1  0  0  0  0
 20 18  1  0  0  0  0
 22 11  1  0  0  0  0
 23 25  1  0  0  0  0
 23 22  1  0  0  0  0
 24 23  1  0  0  0  0
 26 23  1  0  0  0  0
 27  7  1  0  0  0  0
 27 28  1  0  0  0  0
 29 27  1  0  0  0  0
 30 31  1  0  0  0  0
 31 32  1  0  0  0  0
 32 33  2  0  0  0  0
 32 27  1  0  0  0  0
 33 34  1  0  0  0  0
 35 36  1  0  0  0  0
 35 33  1  0  0  0  0
 37 35  2  0  0  0  0
 38 37  1  0  0  0  0
 38 31  2  0  0  0  0
M  END
>  <minimizedAffinity>
-6.67069387

$$$$

 OpenBabel03252504193D

 38 40  0  0  0  0  0  0  0  0999 V2000
   41.4940   31.6180   40.5360 F   0  0  0  0  0  0  0  0  0  0  0  0
   40.5960   32.6690   40.4620 C   0  0  0  0  0  0  0  0  0  0  0  0
   39.3150   32.4920   40.9040 C   0  0  0  0  0  0  0  0  0  0  0  0
   38.4870   33.5960   40.7920 C   0  0  0  0  0  0  0  0  0  0  0  0
   38.9330   34.7820   40.2690 C   0  0  0  0  0  0  0  0  0  0  0  0
   40.2350   34.9010   39.8380 C   0  0  0  0  0  0  0  0  0  0  0  0
   41.1120   33.8200   39.9290 C   0  0  0  0  0  0  0  0  0  0  0  0
   37.4530   33.4780   41.1410 H   0  0  0  0  0  0  0  0  0  0  0  0
   38.2530   35.6240   40.1970 H   0  0  0  0  0  0  0  0  0  0  0  0
   40.6240   35.8210   39.4190 H   0  0  0  0  0  0  0  0  0  0  0  0
   37.1340   29.6430   41.5850 C   0  0  0  0  0  0  0  0  0  0  0  0
   37.8950   28.8450   42.4480 C   0  0  0  0  0  0  0  0  0  0  0  0
   39.1770   29.3060   42.7970 C   0  0  0  0  0  0  0  0  0  0  0  0
   39.6220   30.4770   42.2950 N   0  0  0  0  0  0  0  0  0  0  0  0
   38.8550   31.2180   41.4600 C   0  0  0  0  0  0  0  0  0  0  0  0
   37.6210   30.7940   41.1160 N   0  0  0  0  0  0  0  0  0  0  0  0
   39.7600   28.6880   43.4630 H   0  0  0  0  0  0  0  0  0  0  0  0
   37.3410   27.5800   42.9550 C   0  0  0  0  0  0  0  0  0  0  0  0
   37.0550   26.7320   41.8880 F   0  0  0  0  0  0  0  0  0  0  0  0
   38.3300   26.9460   43.7140 F   0  0  0  0  0  0  0  0  0  0  0  0
   36.2320   27.6930   43.7140 F   0  0  0  0  0  0  0  0  0  0  0  0
   35.9060   29.1950   41.2560 O   0  0  0  0  0  0  0  0  0  0  0  0
   35.3940   29.0230   39.9520 C   0  0  0  0  0  0  0  0  0  0  0  0
   35.8630   30.0840   39.1770 F   0  0  0  0  0  0  0  0  0  0  0  0
   35.7670   27.7940   39.4580 F   0  0  0  0  0  0  0  0  0  0  0  0
   34.0190   29.1720   39.9620 F   0  0  0  0  0  0  0  0  0  0  0  0
   42.5400   33.9100   39.4710 C   0  0  0  0  0  0  0  0  0  0  0  0
   42.7000   32.9450   38.9100 H   0  0  0  0  0  0  0  0  0  0  0  0
   42.7290   34.7570   38.8100 H   0  0  0  0  0  0  0  0  0  0  0  0
   44.8590   31.9040   39.4810 Cl  0  0  0  0  0  0  0  0  0  0  0  0
   44.5450   33.0600   40.7600 C   0  0  0  0  0  0  0  0  0  0  0  0
   43.4590   33.8970   40.6080 C   0  0  0  0  0  0  0  0  0  0  0  0
   43.2120   34.8200   41.6320 C   0  0  0  0  0  0  0  0  0  0  0  0
   42.3680   35.5190   41.5830 H   0  0  0  0  0  0  0  0  0  0  0  0
   44.0100   34.9090   42.7620 C   0  0  0  0  0  0  0  0  0  0  0  0
   43.7870   35.6390   43.5370 H   0  0  0  0  0  0  0  0  0  0  0  0
   45.0890   34.0580   42.8840 C   0  0  0  0  0  3  0  0  0  0  0  0
   45.3730   33.1210   41.8870 C   0  0  0  0  0  3  0  0  0  0  0  0
  2  1  1  0  0  0  0
  2  3  1  0  0  0  0
  3 15  1  0  0  0  0
  4  3  2  0  0  0  0
  4  8  1  0  0  0  0
  5  4  1  0  0  0  0
  6  7  1  0  0  0  0
  6  5  2  0  0  0  0
  7  2  2  0  0  0  0
  9  5  1  0  0  0  0
 10  6  1  0  0  0  0
 11 12  1  0  0  0  0
 12 13  2  0  0  0  0
 12 18  1  0  0  0  0
 13 17  1  0  0  0  0
 14 13  1  0  0  0  0
 15 14  2  0  0  0  0
 16 15  1  0  0  0  0
 16 11  2  0  0  0  0
 18 21  1  0  0  0  0
 18 20  1  0  0  0  0
 19 18  1  0  0  0  0
 22 11  1  0  0  0  0
 23 26  1  0  0  0  0
 23 22  1  0  0  0  0
 24 23  1  0  0  0  0
 25 23  1  0  0  0  0
 27  7  1  0  0  0  0
 27 32  1  0  0  0  0
 28 27  1  0  0  0  0
 29 27  1  0  0  0  0
 30 31  1  0  0  0  0
 31 38  1  0  0  0  0
 32 31  2  0  0  0  0
 32 33  1  0  0  0  0
 33 35  2  0  0  0  0
 34 33  1  0  0  0  0
 35 37  1  0  0  0  0
 35 36  1  0  0  0  0
 38 37  2  0  0  0  0
M  END
>  <minimizedAffinity>
-6.61417389

$$$$

 OpenBabel03252504193D

 38 40  0  0  0  0  0  0  0  0999 V2000
   38.8480   29.3190   42.3540 F   0  0  0  0  0  0  0  0  0  0  0  0
   37.7280   29.4430   41.5500 C   0  0  0  0  0  0  0  0  0  0  0  0
   37.6900   30.4230   40.5980 C   0  0  0  0  0  0  0  0  0  0  0  0
   36.5320   30.4740   39.8400 C   0  0  0  0  0  0  0  0  0  0  0  0
   35.4980   29.5950   40.0420 C   0  0  0  0  0  0  0  0  0  0  0  0
   35.5940   28.6290   41.0180 C   0  0  0  0  0  0  0  0  0  0  0  0
   36.7380   28.5330   41.8090 C   0  0  0  0  0  0  0  0  0  0  0  0
   36.4780   31.2520   39.0680 H   0  0  0  0  0  0  0  0  0  0  0  0
   34.6080   29.6690   39.4280 H   0  0  0  0  0  0  0  0  0  0  0  0
   34.7990   27.9190   41.2070 H   0  0  0  0  0  0  0  0  0  0  0  0
   40.8460   31.7600   39.3370 C   0  0  0  0  0  0  0  0  0  0  0  0
   40.9360   33.0180   39.9460 C   0  0  0  0  0  0  0  0  0  0  0  0
   39.8890   33.4010   40.8030 C   0  0  0  0  0  0  0  0  0  0  0  0
   38.8530   32.5600   41.0040 N   0  0  0  0  0  0  0  0  0  0  0  0
   38.8020   31.3520   40.3950 C   0  0  0  0  0  0  0  0  0  0  0  0
   39.7980   30.9660   39.5700 N   0  0  0  0  0  0  0  0  0  0  0  0
   39.9620   34.3720   41.2700 H   0  0  0  0  0  0  0  0  0  0  0  0
   42.0980   33.8800   39.6770 C   0  0  0  0  0  0  0  0  0  0  0  0
   41.9550   34.4860   38.4320 F   0  0  0  0  0  0  0  0  0  0  0  0
   42.1020   34.9100   40.6240 F   0  0  0  0  0  0  0  0  0  0  0  0
   43.2980   33.2650   39.7140 F   0  0  0  0  0  0  0  0  0  0  0  0
   41.8530   31.4000   38.5180 O   0  0  0  0  0  0  0  0  0  0  0  0
   41.8450   31.4380   37.1070 C   0  0  0  0  0  0  0  0  0  0  0  0
   41.7650   30.1200   36.6560 F   0  0  0  0  0  0  0  0  0  0  0  0
   40.8040   32.2200   36.6630 F   0  0  0  0  0  0  0  0  0  0  0  0
   43.0640   31.8980   36.6400 F   0  0  0  0  0  0  0  0  0  0  0  0
   36.8810   27.4930   42.8840 C   0  0  0  0  0  0  0  0  0  0  0  0
   37.5670   27.9800   43.6340 H   0  0  0  0  0  0  0  0  0  0  0  0
   35.9350   27.2330   43.3620 H   0  0  0  0  0  0  0  0  0  0  0  0
   39.6200   26.7680   44.0550 Cl  0  0  0  0  0  0  0  0  0  0  0  0
   38.8050   25.8510   42.8030 C   0  0  0  0  0  0  0  0  0  0  0  0
   37.5740   26.3080   42.3810 C   0  0  0  0  0  0  0  0  0  0  0  0
   36.9260   25.5730   41.3800 C   0  0  0  0  0  0  0  0  0  0  0  0
   35.9440   25.8720   40.9930 H   0  0  0  0  0  0  0  0  0  0  0  0
   37.4760   24.4300   40.8210 C   0  0  0  0  0  0  0  0  0  0  0  0
   36.9430   23.8850   40.0460 H   0  0  0  0  0  0  0  0  0  0  0  0
   38.7090   23.9990   41.2660 C   0  0  0  0  0  3  0  0  0  0  0  0
   39.3920   24.7020   42.2620 C   0  0  0  0  0  3  0  0  0  0  0  0
  2  7  1  0  0  0  0
  2  1  1  0  0  0  0
  3  2  2  0  0  0  0
  4  5  2  0  0  0  0
  4  3  1  0  0  0  0
  5  6  1  0  0  0  0
  6 10  1  0  0  0  0
  6  7  2  0  0  0  0
  7 27  1  0  0  0  0
  8  4  1  0  0  0  0
  9  5  1  0  0  0  0
 11 16  2  0  0  0  0
 11 12  1  0  0  0  0
 12 13  2  0  0  0  0
 13 14  1  0  0  0  0
 13 17  1  0  0  0  0
 15  3  1  0  0  0  0
 15 14  2  0  0  0  0
 16 15  1  0  0  0  0
 18 21  1  0  0  0  0
 18 12  1  0  0  0  0
 18 20  1  0  0  0  0
 19 18  1  0  0  0  0
 22 11  1  0  0  0  0
 23 22  1  0  0  0  0
 24 23  1  0  0  0  0
 25 23  1  0  0  0  0
 26 23  1  0  0  0  0
 27 29  1  0  0  0  0
 27 28  1  0  0  0  0
 31 30  1  0  0  0  0
 32 31  1  0  0  0  0
 32 27  1  0  0  0  0
 33 32  2  0  0  0  0
 34 33  1  0  0  0  0
 35 37  2  0  0  0  0
 35 33  1  0  0  0  0
 36 35  1  0  0  0  0
 37 38  1  0  0  0  0
 38 31  2  0  0  0  0
M  END
>  <minimizedAffinity>
-6.48319435

$$$$

 OpenBabel03252504193D

 38 40  0  0  0  0  0  0  0  0999 V2000
   37.0740   28.2180   40.8050 F   0  0  0  0  0  0  0  0  0  0  0  0
   36.9390   26.8420   40.8840 C   0  0  0  0  0  0  0  0  0  0  0  0
   36.5840   26.1360   39.7690 C   0  0  0  0  0  0  0  0  0  0  0  0
   36.4720   24.7670   39.9410 C   0  0  0  0  0  0  0  0  0  0  0  0
   36.7030   24.1700   41.1540 C   0  0  0  0  0  0  0  0  0  0  0  0
   37.0560   24.9340   42.2430 C   0  0  0  0  0  0  0  0  0  0  0  0
   37.1840   26.3180   42.1260 C   0  0  0  0  0  0  0  0  0  0  0  0
   36.1890   24.1770   39.0590 H   0  0  0  0  0  0  0  0  0  0  0  0
   36.6030   23.0940   41.2470 H   0  0  0  0  0  0  0  0  0  0  0  0
   37.2450   24.4990   43.2170 H   0  0  0  0  0  0  0  0  0  0  0  0
   36.9190   28.5230   37.0260 C   0  0  0  0  0  0  0  0  0  0  0  0
   35.9700   28.0880   36.0930 C   0  0  0  0  0  0  0  0  0  0  0  0
   35.2060   26.9530   36.4250 C   0  0  0  0  0  0  0  0  0  0  0  0
   35.4130   26.3360   37.6070 N   0  0  0  0  0  0  0  0  0  0  0  0
   36.3430   26.7880   38.4810 C   0  0  0  0  0  0  0  0  0  0  0  0
   37.0840   27.8760   38.1810 N   0  0  0  0  0  0  0  0  0  0  0  0
   34.4760   26.6210   35.7030 H   0  0  0  0  0  0  0  0  0  0  0  0
   35.8020   28.8140   34.8250 C   0  0  0  0  0  0  0  0  0  0  0  0
   37.0270   28.9010   34.1690 F   0  0  0  0  0  0  0  0  0  0  0  0
   34.9610   28.0590   34.0000 F   0  0  0  0  0  0  0  0  0  0  0  0
   35.2890   30.0570   34.9300 F   0  0  0  0  0  0  0  0  0  0  0  0
   37.6460   29.6110   36.7000 O   0  0  0  0  0  0  0  0  0  0  0  0
   37.6410   30.8560   37.3640 C   0  0  0  0  0  0  0  0  0  0  0  0
   36.4410   30.9470   38.0700 F   0  0  0  0  0  0  0  0  0  0  0  0
   38.7470   30.9620   38.1750 F   0  0  0  0  0  0  0  0  0  0  0  0
   37.5860   31.8830   36.4400 F   0  0  0  0  0  0  0  0  0  0  0  0
   37.5680   27.1860   43.2890 C   0  0  0  0  0  0  0  0  0  0  0  0
   37.1310   28.1910   43.0260 H   0  0  0  0  0  0  0  0  0  0  0  0
   37.1560   26.8420   44.2400 H   0  0  0  0  0  0  0  0  0  0  0  0
   38.7850   29.8720   42.4500 Cl  0  0  0  0  0  0  0  0  0  0  0  0
   39.7140   28.5000   43.0210 C   0  0  0  0  0  0  0  0  0  0  0  0
   39.0180   27.3590   43.3620 C   0  0  0  0  0  0  0  0  0  0  0  0
   39.7640   26.2650   43.8180 C   0  0  0  0  0  0  0  0  0  0  0  0
   39.2820   25.3230   44.1080 H   0  0  0  0  0  0  0  0  0  0  0  0
   41.1440   26.3010   43.9330 C   0  0  0  0  0  0  0  0  0  0  0  0
   41.6910   25.4320   44.2910 H   0  0  0  0  0  0  0  0  0  0  0  0
   41.8110   27.4580   43.5840 C   0  0  0  0  0  3  0  0  0  0  0  0
   41.1070   28.5740   43.1240 C   0  0  0  0  0  3  0  0  0  0  0  0
  1  2  1  0  0  0  0
  2  7  1  0  0  0  0
  3  4  1  0  0  0  0
  3  2  2  0  0  0  0
  4  5  2  0  0  0  0
  5  9  1  0  0  0  0
  5  6  1  0  0  0  0
  6 10  1  0  0  0  0
  7  6  2  0  0  0  0
  7 27  1  0  0  0  0
  8  4  1  0  0  0  0
 11 16  1  0  0  0  0
 12 13  1  0  0  0  0
 12 11  2  0  0  0  0
 13 14  2  0  0  0  0
 14 15  1  0  0  0  0
 15  3  1  0  0  0  0
 16 15  2  0  0  0  0
 17 13  1  0  0  0  0
 18 21  1  0  0  0  0
 18 12  1  0  0  0  0
 19 18  1  0  0  0  0
 20 18  1  0  0  0  0
 22 11  1  0  0  0  0
 22 23  1  0  0  0  0
 23 24  1  0  0  0  0
 23 25  1  0  0  0  0
 26 23  1  0  0  0  0
 27 32  1  0  0  0  0
 27 29  1  0  0  0  0
 28 27  1  0  0  0  0
 30 31  1  0  0  0  0
 31 38  2  0  0  0  0
 31 32  1  0  0  0  0
 32 33  2  0  0  0  0
 33 35  1  0  0  0  0
 33 34  1  0  0  0  0
 35 36  1  0  0  0  0
 37 35  2  0  0  0  0
 38 37  1  0  0  0  0
M  END
>  <minimizedAffinity>
-6.32628584

$$$$

 OpenBabel03252504193D

 38 40  0  0  0  0  0  0  0  0999 V2000
   38.6660   29.9970   42.4740 F   0  0  0  0  0  0  0  0  0  0  0  0
   39.4220   28.9150   42.8880 C   0  0  0  0  0  0  0  0  0  0  0  0
   40.7830   29.0290   42.9490 C   0  0  0  0  0  0  0  0  0  0  0  0
   41.4590   27.8980   43.3730 C   0  0  0  0  0  0  0  0  0  0  0  0
   40.7960   26.7440   43.7070 C   0  0  0  0  0  0  0  0  0  0  0  0
   39.4230   26.6880   43.6240 C   0  0  0  0  0  0  0  0  0  0  0  0
   38.6930   27.7990   43.2040 C   0  0  0  0  0  0  0  0  0  0  0  0
   42.5530   27.9650   43.4310 H   0  0  0  0  0  0  0  0  0  0  0  0
   41.3630   25.8790   44.0340 H   0  0  0  0  0  0  0  0  0  0  0  0
   38.8650   25.7950   43.8790 H   0  0  0  0  0  0  0  0  0  0  0  0
   41.6950   32.0140   41.0530 C   0  0  0  0  0  0  0  0  0  0  0  0
   42.7080   32.5970   41.8240 C   0  0  0  0  0  0  0  0  0  0  0  0
   43.0760   31.9430   43.0140 C   0  0  0  0  0  0  0  0  0  0  0  0
   42.4510   30.7990   43.3630 N   0  0  0  0  0  0  0  0  0  0  0  0
   41.4740   30.2680   42.5900 C   0  0  0  0  0  0  0  0  0  0  0  0
   41.1080   30.8810   41.4440 N   0  0  0  0  0  0  0  0  0  0  0  0
   43.8570   32.3950   43.6050 H   0  0  0  0  0  0  0  0  0  0  0  0
   43.3430   33.8460   41.3760 C   0  0  0  0  0  0  0  0  0  0  0  0
   42.4600   34.9100   41.5490 F   0  0  0  0  0  0  0  0  0  0  0  0
   44.4390   34.0980   42.2070 F   0  0  0  0  0  0  0  0  0  0  0  0
   43.7690   33.8550   40.0960 F   0  0  0  0  0  0  0  0  0  0  0  0
   41.3480   32.6470   39.9140 O   0  0  0  0  0  0  0  0  0  0  0  0
   40.1920   33.4280   39.7040 C   0  0  0  0  0  0  0  0  0  0  0  0
   39.5680   33.5890   40.9410 F   0  0  0  0  0  0  0  0  0  0  0  0
   40.5330   34.6250   39.1170 F   0  0  0  0  0  0  0  0  0  0  0  0
   39.2800   32.7250   38.9370 F   0  0  0  0  0  0  0  0  0  0  0  0
   37.1950   27.7780   43.1020 C   0  0  0  0  0  0  0  0  0  0  0  0
   36.9090   26.8030   43.5900 H   0  0  0  0  0  0  0  0  0  0  0  0
   36.7140   28.6080   43.6240 H   0  0  0  0  0  0  0  0  0  0  0  0
   37.4630   25.1080   41.6190 Cl  0  0  0  0  0  0  0  0  0  0  0  0
   36.8190   26.5740   40.9080 C   0  0  0  0  0  0  0  0  0  0  0  0
   36.7630   27.6980   41.7080 C   0  0  0  0  0  0  0  0  0  0  0  0
   36.2480   28.8670   41.1350 C   0  0  0  0  0  0  0  0  0  0  0  0
   36.1710   29.8010   41.7080 H   0  0  0  0  0  0  0  0  0  0  0  0
   35.8040   28.9220   39.8240 C   0  0  0  0  0  0  0  0  0  0  0  0
   35.4100   29.8490   39.4140 H   0  0  0  0  0  0  0  0  0  0  0  0
   35.8730   27.7810   39.0500 C   0  0  0  0  0  3  0  0  0  0  0  0
   36.3800   26.5920   39.5790 C   0  0  0  0  0  3  0  0  0  0  0  0
  1  2  1  0  0  0  0
  2  3  2  0  0  0  0
  2  7  1  0  0  0  0
  3  4  1  0  0  0  0
  4  8  1  0  0  0  0
  4  5  2  0  0  0  0
  5  9  1  0  0  0  0
  6  5  1  0  0  0  0
  6 10  1  0  0  0  0
  7  6  2  0  0  0  0
 11 16  2  0  0  0  0
 11 12  1  0  0  0  0
 12 13  2  0  0  0  0
 13 14  1  0  0  0  0
 13 17  1  0  0  0  0
 15  3  1  0  0  0  0
 15 14  2  0  0  0  0
 16 15  1  0  0  0  0
 18 19  1  0  0  0  0
 18 12  1  0  0  0  0
 18 20  1  0  0  0  0
 21 18  1  0  0  0  0
 22 11  1  0  0  0  0
 23 22  1  0  0  0  0
 23 24  1  0  0  0  0
 25 23  1  0  0  0  0
 26 23  1  0  0  0  0
 27  7  1  0  0  0  0
 27 28  1  0  0  0  0
 27 29  1  0  0  0  0
 31 30  1  0  0  0  0
 31 32  1  0  0  0  0
 32 27  1  0  0  0  0
 33 32  2  0  0  0  0
 33 34  1  0  0  0  0
 35 33  1  0  0  0  0
 36 35  1  0  0  0  0
 37 38  1  0  0  0  0
 37 35  2  0  0  0  0
 38 31  2  0  0  0  0
M  END
>  <minimizedAffinity>
-6.25832129

$$$$

 OpenBabel03252504193D

 38 40  0  0  0  0  0  0  0  0999 V2000
   33.1650   27.6840   37.6830 F   0  0  0  0  0  0  0  0  0  0  0  0
   34.0820   28.3370   36.8780 C   0  0  0  0  0  0  0  0  0  0  0  0
   35.4030   28.3400   37.2300 C   0  0  0  0  0  0  0  0  0  0  0  0
   36.2490   29.0170   36.3670 C   0  0  0  0  0  0  0  0  0  0  0  0
   35.7810   29.6400   35.2390 C   0  0  0  0  0  0  0  0  0  0  0  0
   34.4390   29.6030   34.9360 C   0  0  0  0  0  0  0  0  0  0  0  0
   33.5430   28.9340   35.7700 C   0  0  0  0  0  0  0  0  0  0  0  0
   37.3150   29.0340   36.6290 H   0  0  0  0  0  0  0  0  0  0  0  0
   36.4760   30.1600   34.5890 H   0  0  0  0  0  0  0  0  0  0  0  0
   34.0320   30.0830   34.0540 H   0  0  0  0  0  0  0  0  0  0  0  0
   36.4850   27.8790   40.6870 C   0  0  0  0  0  0  0  0  0  0  0  0
   36.7870   26.5130   40.7580 C   0  0  0  0  0  0  0  0  0  0  0  0
   36.6140   25.7490   39.5900 C   0  0  0  0  0  0  0  0  0  0  0  0
   36.1690   26.3470   38.4650 N   0  0  0  0  0  0  0  0  0  0  0  0
   35.8860   27.6700   38.4380 C   0  0  0  0  0  0  0  0  0  0  0  0
   36.0480   28.4210   39.5490 N   0  0  0  0  0  0  0  0  0  0  0  0
   36.8480   24.6970   39.6480 H   0  0  0  0  0  0  0  0  0  0  0  0
   37.2680   25.9340   42.0220 C   0  0  0  0  0  0  0  0  0  0  0  0
   37.2670   24.5440   41.9310 F   0  0  0  0  0  0  0  0  0  0  0  0
   38.6010   26.3210   42.1970 F   0  0  0  0  0  0  0  0  0  0  0  0
   36.5750   26.2870   43.1240 F   0  0  0  0  0  0  0  0  0  0  0  0
   36.6540   28.6050   41.8110 O   0  0  0  0  0  0  0  0  0  0  0  0
   37.6950   29.5200   42.0720 C   0  0  0  0  0  0  0  0  0  0  0  0
   37.2660   30.7750   41.6370 F   0  0  0  0  0  0  0  0  0  0  0  0
   38.0170   29.4990   43.4090 F   0  0  0  0  0  0  0  0  0  0  0  0
   38.7910   29.2280   41.2790 F   0  0  0  0  0  0  0  0  0  0  0  0
   32.0720   28.8710   35.4740 C   0  0  0  0  0  0  0  0  0  0  0  0
   32.0160   29.0550   34.3630 H   0  0  0  0  0  0  0  0  0  0  0  0
   31.6250   27.9030   35.7100 H   0  0  0  0  0  0  0  0  0  0  0  0
   31.5990   31.4650   33.9090 Cl  0  0  0  0  0  0  0  0  0  0  0  0
   31.0660   31.1910   35.5560 C   0  0  0  0  0  0  0  0  0  0  0  0
   31.3560   29.9670   36.1230 C   0  0  0  0  0  0  0  0  0  0  0  0
   30.9280   29.7530   37.4400 C   0  0  0  0  0  0  0  0  0  0  0  0
   31.1210   28.8050   37.9580 H   0  0  0  0  0  0  0  0  0  0  0  0
   30.2400   30.7130   38.1650 C   0  0  0  0  0  0  0  0  0  0  0  0
   29.9230   30.5100   39.1850 H   0  0  0  0  0  0  0  0  0  0  0  0
   29.9650   31.9270   37.5690 C   0  0  0  0  0  3  0  0  0  0  0  0
   30.3730   32.1840   36.2580 C   0  0  0  0  0  3  0  0  0  0  0  0
  2  3  1  0  0  0  0
  2  1  1  0  0  0  0
  3 15  1  0  0  0  0
  4  8  1  0  0  0  0
  4  3  2  0  0  0  0
  5  4  1  0  0  0  0
  6  5  2  0  0  0  0
  6  7  1  0  0  0  0
  7  2  2  0  0  0  0
  9  5  1  0  0  0  0
 10  6  1  0  0  0  0
 11 12  1  0  0  0  0
 11 22  1  0  0  0  0
 12 18  1  0  0  0  0
 13 17  1  0  0  0  0
 13 12  2  0  0  0  0
 14 13  1  0  0  0  0
 15 14  2  0  0  0  0
 15 16  1  0  0  0  0
 16 11  2  0  0  0  0
 18 20  1  0  0  0  0
 18 21  1  0  0  0  0
 19 18  1  0  0  0  0
 22 23  1  0  0  0  0
 23 25  1  0  0  0  0
 24 23  1  0  0  0  0
 26 23  1  0  0  0  0
 27 29  1  0  0  0  0
 27  7  1  0  0  0  0
 27 32  1  0  0  0  0
 28 27  1  0  0  0  0
 30 31  1  0  0  0  0
 31 32  2  0  0  0  0
 31 38  1  0  0  0  0
 32 33  1  0  0  0  0
 33 34  1  0  0  0  0
 33 35  2  0  0  0  0
 35 36  1  0  0  0  0
 37 35  1  0  0  0  0
 38 37  2  0  0  0  0
M  END
>  <minimizedAffinity>
-6.22015524

$$$$

 OpenBabel03252504193D

 38 40  0  0  0  0  0  0  0  0999 V2000
   34.9370   29.8740   37.2080 F   0  0  0  0  0  0  0  0  0  0  0  0
   34.6050   28.5300   37.1800 C   0  0  0  0  0  0  0  0  0  0  0  0
   35.2900   27.6520   37.9720 C   0  0  0  0  0  0  0  0  0  0  0  0
   34.8900   26.3290   37.8800 C   0  0  0  0  0  0  0  0  0  0  0  0
   33.8740   25.9390   37.0460 C   0  0  0  0  0  0  0  0  0  0  0  0
   33.2210   26.8700   36.2710 C   0  0  0  0  0  0  0  0  0  0  0  0
   33.5820   28.2160   36.3250 C   0  0  0  0  0  0  0  0  0  0  0  0
   35.4260   25.6040   38.5060 H   0  0  0  0  0  0  0  0  0  0  0  0
   33.5920   24.8920   37.0020 H   0  0  0  0  0  0  0  0  0  0  0  0
   32.4140   26.5990   35.6000 H   0  0  0  0  0  0  0  0  0  0  0  0
   37.0650   28.4850   41.0520 C   0  0  0  0  0  0  0  0  0  0  0  0
   38.3310   28.8830   40.6050 C   0  0  0  0  0  0  0  0  0  0  0  0
   38.5660   28.8610   39.2180 C   0  0  0  0  0  0  0  0  0  0  0  0
   37.5820   28.4640   38.3840 N   0  0  0  0  0  0  0  0  0  0  0  0
   36.3720   28.0860   38.8570 C   0  0  0  0  0  0  0  0  0  0  0  0
   36.1270   28.1010   40.1840 N   0  0  0  0  0  0  0  0  0  0  0  0
   39.5430   29.1690   38.8780 H   0  0  0  0  0  0  0  0  0  0  0  0
   39.3520   29.3030   41.5770 C   0  0  0  0  0  0  0  0  0  0  0  0
   40.4020   29.9330   40.9130 F   0  0  0  0  0  0  0  0  0  0  0  0
   38.7810   30.2630   42.4190 F   0  0  0  0  0  0  0  0  0  0  0  0
   39.8660   28.3190   42.3430 F   0  0  0  0  0  0  0  0  0  0  0  0
   36.8470   28.5090   42.3830 O   0  0  0  0  0  0  0  0  0  0  0  0
   36.8650   27.4030   43.2580 C   0  0  0  0  0  0  0  0  0  0  0  0
   37.9210   27.5930   44.1490 F   0  0  0  0  0  0  0  0  0  0  0  0
   35.6480   27.2810   43.8890 F   0  0  0  0  0  0  0  0  0  0  0  0
   37.1940   26.2540   42.5600 F   0  0  0  0  0  0  0  0  0  0  0  0
   32.8930   29.2620   35.4960 C   0  0  0  0  0  0  0  0  0  0  0  0
   33.7130   30.0000   35.2660 H   0  0  0  0  0  0  0  0  0  0  0  0
   32.4760   28.8710   34.5670 H   0  0  0  0  0  0  0  0  0  0  0  0
   31.5290   31.7190   34.2710 Cl  0  0  0  0  0  0  0  0  0  0  0  0
   31.1870   31.0930   35.8720 C   0  0  0  0  0  0  0  0  0  0  0  0
   31.8870   29.9760   36.2800 C   0  0  0  0  0  0  0  0  0  0  0  0
   31.6110   29.4790   37.5600 C   0  0  0  0  0  0  0  0  0  0  0  0
   32.1260   28.5950   37.9560 H   0  0  0  0  0  0  0  0  0  0  0  0
   30.6790   30.0650   38.4010 C   0  0  0  0  0  0  0  0  0  0  0  0
   30.4910   29.6510   39.3890 H   0  0  0  0  0  0  0  0  0  0  0  0
   29.9960   31.1810   37.9630 C   0  0  0  0  0  3  0  0  0  0  0  0
   30.2390   31.7110   36.6940 C   0  0  0  0  0  3  0  0  0  0  0  0
  2  1  1  0  0  0  0
  2  3  1  0  0  0  0
  3 15  1  0  0  0  0
  4  3  2  0  0  0  0
  4  8  1  0  0  0  0
  5  4  1  0  0  0  0
  6  7  1  0  0  0  0
  6  5  2  0  0  0  0
  7  2  2  0  0  0  0
  9  5  1  0  0  0  0
 10  6  1  0  0  0  0
 11 22  1  0  0  0  0
 12 11  1  0  0  0  0
 12 18  1  0  0  0  0
 13 12  2  0  0  0  0
 14 15  2  0  0  0  0
 14 13  1  0  0  0  0
 15 16  1  0  0  0  0
 16 11  2  0  0  0  0
 17 13  1  0  0  0  0
 18 21  1  0  0  0  0
 18 20  1  0  0  0  0
 19 18  1  0  0  0  0
 22 23  1  0  0  0  0
 23 25  1  0  0  0  0
 23 24  1  0  0  0  0
 26 23  1  0  0  0  0
 27 32  1  0  0  0  0
 27  7  1  0  0  0  0
 28 27  1  0  0  0  0
 29 27  1  0  0  0  0
 30 31  1  0  0  0  0
 31 32  2  0  0  0  0
 31 38  1  0  0  0  0
 32 33  1  0  0  0  0
 33 34  1  0  0  0  0
 33 35  2  0  0  0  0
 35 36  1  0  0  0  0
 37 35  1  0  0  0  0
 38 37  2  0  0  0  0
M  END
>  <minimizedAffinity>
-6.21286535

$$$$
