REMARK  Name = 
REMARK  2 active torsions:
REMARK  status: ('A' for Active; 'I' for Inactive)
REMARK    1  A    between atoms: C_3  and  C_7
REMARK    2  A    between atoms: C_7  and  C_15
REMARK                            x       y       z     vdW  Elec       q    Type
REMARK                         _______ _______ _______ _____ _____    ______ ____
ROOT
ATOM      1  C   UNL     1      46.964  34.773  41.922  0.00  0.00    +0.000 C 
ATOM      2  H   UNL     1      48.014  34.420  42.076  0.00  0.00    +0.000 HD
ATOM      3  H   UNL     1      47.088  35.788  41.488  0.00  0.00    +0.000 HD
ENDROOT
BRANCH   1   6
ATOM      4  C   UNL     1      44.557  36.012  44.499  0.00  0.00    +0.000 A 
ATOM      5  C   UNL     1      45.300  35.925  43.303  0.00  0.00    +0.000 A 
ATOM      6  C   UNL     1      46.200  34.855  43.167  0.00  0.00    +0.000 A 
ATOM      7  N   UNL     1      46.304  33.961  44.198  0.00  0.00    +0.000 NA
ATOM      8  C   UNL     1      45.571  34.087  45.324  0.00  0.00    +0.000 A 
ATOM      9  N   UNL     1      44.706  35.103  45.469  0.00  0.00    +0.000 NA
ATOM     10  H   UNL     1      43.887  36.885  44.495  0.00  0.00    +0.000 HD
ATOM     11  H   UNL     1      45.205  36.641  42.500  0.00  0.00    +0.000 HD
ATOM     12  H   UNL     1      45.631  33.397  46.154  0.00  0.00    +0.000 HD
ENDBRANCH   1   6
BRANCH   1  15
ATOM     13 CL   UNL     1      48.545  34.721  39.359  0.00  0.00    +0.000 Cl
ATOM     14  C   UNL     1      47.026  33.891  39.698  0.00  0.00    +0.000 A 
ATOM     15  C   UNL     1      46.298  33.922  40.891  0.00  0.00    +0.000 A 
ATOM     16  C   UNL     1      45.124  33.204  40.963  0.00  0.00    +0.000 A 
ATOM     17  H   UNL     1      44.647  33.300  41.926  0.00  0.00    +0.000 HD
ATOM     18  C   UNL     1      44.669  32.475  39.905  0.00  0.00    +0.000 A 
ATOM     19  H   UNL     1      43.723  31.937  40.060  0.00  0.00    +0.000 HD
ATOM     20  C   UNL     1      45.373  32.422  38.695  0.00  0.00    +0.000 A 
ATOM     21  C   UNL     1      46.548  33.138  38.619  0.00  0.00    +0.000 A 
ENDBRANCH   1  15
TORSDOF 2
