
 OpenBabel03252501343D

 25 26  0  0  0  0  0  0  0  0999 V2000
   42.7820   35.3230   41.2600 C   0  0  0  0  0  0  0  0  0  0  0  0
   43.6350   34.8300   40.4680 O   0  0  0  0  0  0  0  0  0  0  0  0
   43.1940   35.2450   42.6290 N   0  0  0  0  0  0  0  0  0  0  0  0
   42.6090   35.6090   43.3910 H   0  0  0  0  0  0  0  0  0  0  0  0
   44.5000   34.5990   42.6810 C   0  0  0  0  0  0  0  0  0  0  0  0
   44.6830   33.2390   42.7280 C   0  0  0  0  0  0  0  0  0  0  0  0
   46.0100   32.8120   42.7700 C   0  0  0  0  0  0  0  0  0  0  0  0
   46.9880   33.7290   42.7620 N   0  0  0  0  0  0  0  0  0  0  0  0
   46.7510   35.0610   42.7150 C   0  0  0  0  0  0  0  0  0  0  0  0
   45.4830   35.5200   42.6730 N   0  0  0  0  0  0  0  0  0  0  0  0
   46.1650   31.7410   42.8060 H   0  0  0  0  0  0  0  0  0  0  0  0
   47.6180   35.7180   42.7120 H   0  0  0  0  0  0  0  0  0  0  0  0
   43.5450   32.4170   42.7290 N   0  0  0  0  0  0  0  0  0  0  0  0
   43.3140   32.4100   43.7520 H   0  0  0  0  0  0  0  0  0  0  0  0
   43.0270   31.9250   41.9620 H   0  0  0  0  0  0  0  0  0  0  0  0
   41.5490   35.8970   40.9070 O   0  0  0  0  0  0  0  0  0  0  0  0
   39.7310   33.7170   41.8910 Cl  0  0  0  0  0  0  0  0  0  0  0  0
   39.9030   34.2570   40.2430 C   0  0  0  0  0  0  0  0  0  0  0  0
   40.7810   35.2740   39.9260 C   0  0  0  0  0  0  0  0  0  0  0  0
   40.9820   35.7660   38.6510 C   0  0  0  0  0  0  0  0  0  0  0  0
   41.6770   36.5650   38.4320 H   0  0  0  0  0  0  0  0  0  0  0  0
   40.2580   35.2080   37.5980 C   0  0  0  0  0  0  0  0  0  0  0  0
   40.3800   35.5560   36.5880 H   0  0  0  0  0  0  0  0  0  0  0  0
   39.3800   34.1940   37.8960 C   0  0  0  0  0  0  0  0  0  0  0  0
   39.1830   33.7030   39.1830 C   0  0  0  0  0  0  0  0  0  0  0  0
  1  3  1  0  0  0  0
  2  1  2  0  0  0  0
  3  5  1  0  0  0  0
  3  4  1  0  0  0  0
  5  6  1  0  0  0  0
  6 13  1  0  0  0  0
  6  7  2  0  0  0  0
  7 11  1  0  0  0  0
  8  7  1  0  0  0  0
  9  8  2  0  0  0  0
 10  5  2  0  0  0  0
 10  9  1  0  0  0  0
 12  9  1  0  0  0  0
 13 14  1  0  0  0  0
 15 13  1  0  0  0  0
 16  1  1  0  0  0  0
 18 17  1  0  0  0  0
 19 18  1  0  0  0  0
 19 16  1  0  0  0  0
 20 19  2  0  0  0  0
 21 20  1  0  0  0  0
 22 24  2  0  0  0  0
 22 20  1  0  0  0  0
 23 22  1  0  0  0  0
 24 25  1  0  0  0  0
 25 18  2  0  0  0  0
M  END
>  <minimizedAffinity>
-5.59681797

>  <minimizedRMSD>
2.52928281

$$$$
