
 OpenBabel03252509293D

 21 22  0  0  0  0  0  0  0  0999 V2000
   46.5860   34.9590   41.9890 C   0  0  0  0  0  0  0  0  0  0  0  0
   47.6640   34.6630   42.0150 H   0  0  0  0  0  0  0  0  0  0  0  0
   46.6080   36.0000   41.6000 H   0  0  0  0  0  0  0  0  0  0  0  0
   44.4610   35.9690   44.8930 C   0  0  0  0  0  0  0  0  0  0  0  0
   45.0760   35.9840   43.6230 C   0  0  0  0  0  0  0  0  0  0  0  0
   45.9550   34.9350   43.3080 C   0  0  0  0  0  0  0  0  0  0  0  0
   46.1630   33.9600   44.2470 N   0  0  0  0  0  0  0  0  0  0  0  0
   45.5500   33.9900   45.4490 C   0  0  0  0  0  0  0  0  0  0  0  0
   44.7070   34.9850   45.7650 N   0  0  0  0  0  0  0  0  0  0  0  0
   43.7960   36.8350   45.0290 H   0  0  0  0  0  0  0  0  0  0  0  0
   44.9000   36.7630   42.8960 H   0  0  0  0  0  0  0  0  0  0  0  0
   45.6940   33.2350   46.2090 H   0  0  0  0  0  0  0  0  0  0  0  0
   48.2850   34.4540   39.5550 Cl  0  0  0  0  0  0  0  0  0  0  0  0
   46.6450   33.8790   39.8530 C   0  0  0  0  0  0  0  0  0  0  0  0
   45.8620   34.1210   40.9870 C   0  0  0  0  0  0  0  0  0  0  0  0
   44.5940   33.5850   41.0360 C   0  0  0  0  0  0  0  0  0  0  0  0
   44.0820   33.8340   41.9520 H   0  0  0  0  0  0  0  0  0  0  0  0
   44.0990   32.8340   40.0120 C   0  0  0  0  0  0  0  0  0  0  0  0
   43.0770   32.4510   40.1460 H   0  0  0  0  0  0  0  0  0  0  0  0
   44.8540   32.5730   38.8620 C   0  0  0  0  0  3  0  0  0  0  0  0
   46.1240   33.1060   38.8090 C   0  0  0  0  0  3  0  0  0  0  0  0
  1  2  1  0  0  0  0
  1  6  1  0  0  0  0
  3  1  1  0  0  0  0
  4 10  1  0  0  0  0
  4  9  1  0  0  0  0
  5  4  2  0  0  0  0
  6  5  1  0  0  0  0
  6  7  2  0  0  0  0
  7  8  1  0  0  0  0
  8  9  2  0  0  0  0
  8 12  1  0  0  0  0
 11  5  1  0  0  0  0
 13 14  1  0  0  0  0
 14 15  1  0  0  0  0
 15 16  2  0  0  0  0
 15  1  1  0  0  0  0
 16 17  1  0  0  0  0
 18 19  1  0  0  0  0
 18 16  1  0  0  0  0
 20 18  2  0  0  0  0
 21 20  1  0  0  0  0
 21 14  2  0  0  0  0
M  END
>  <minimizedAffinity>
-4.16388845

>  <minimizedRMSD>
0.705712676

$$$$
