
 OpenBabel03252502373D

 24 25  0  0  1  0  0  0  0  0999 V2000
   36.0270   29.1100   41.1120 C   0  0  2  0  0  0  0  0  0  0  0  0
   35.4360   29.2400   42.0450 H   0  0  0  0  0  0  0  0  0  0  0  0
   36.7580   31.3600   40.3330 C   0  0  0  0  0  0  0  0  0  0  0  0
   37.0070   30.1950   41.0560 C   0  0  0  0  0  0  0  0  0  0  0  0
   38.2440   30.0970   41.7460 C   0  0  0  0  0  0  0  0  0  0  0  0
   39.1140   31.1520   41.6550 N   0  0  0  0  0  0  0  0  0  0  0  0
   38.8070   32.2420   40.9410 C   0  0  0  0  0  0  0  0  0  0  0  0
   37.6360   32.3570   40.2780 N   0  0  0  0  0  0  0  0  0  0  0  0
   35.8520   31.5210   39.7750 H   0  0  0  0  0  0  0  0  0  0  0  0
   38.4920   29.2060   42.3280 H   0  0  0  0  0  0  0  0  0  0  0  0
   39.6260   32.9470   41.0040 H   0  0  0  0  0  0  0  0  0  0  0  0
   36.4440   27.4240   43.6790 Cl  0  0  0  0  0  0  0  0  0  0  0  0
   36.8450   26.8750   42.0680 C   0  0  0  0  0  0  0  0  0  0  0  0
   36.5970   27.7430   41.0060 C   0  0  0  0  0  0  0  0  0  0  0  0
   36.9500   27.2030   39.7670 C   0  0  0  0  0  0  0  0  0  0  0  0
   36.8080   27.7780   38.8460 H   0  0  0  0  0  0  0  0  0  0  0  0
   37.4910   25.9520   39.5510 C   0  0  0  0  0  0  0  0  0  0  0  0
   37.7410   25.5960   38.5640 H   0  0  0  0  0  0  0  0  0  0  0  0
   37.7060   25.1550   40.6540 C   0  0  0  0  0  3  0  0  0  0  0  0
   37.3830   25.6170   41.9130 C   0  0  0  0  0  3  0  0  0  0  0  0
   35.0410   29.2810   39.9750 C   0  0  0  0  0  0  0  0  0  0  0  0
   34.4640   30.2230   40.1840 H   0  0  0  0  0  0  0  0  0  0  0  0
   35.5230   29.3700   38.9870 H   0  0  0  0  0  0  0  0  0  0  0  0
   34.3240   28.4510   39.9780 H   0  0  0  0  0  0  0  0  0  0  0  0
  1  2  1  1  0  0  0
  3  4  1  0  0  0  0
  4  1  1  0  0  0  0
  4  5  2  0  0  0  0
  5 10  1  0  0  0  0
  6  5  1  0  0  0  0
  7 11  1  0  0  0  0
  7  6  2  0  0  0  0
  8  3  2  0  0  0  0
  8  7  1  0  0  0  0
  9  3  1  0  0  0  0
 13 12  1  0  0  0  0
 14  1  1  0  0  0  0
 14 13  2  0  0  0  0
 15 14  1  0  0  0  0
 16 15  1  0  0  0  0
 17 15  2  0  0  0  0
 17 19  1  0  0  0  0
 18 17  1  0  0  0  0
 19 20  2  0  0  0  0
 20 13  1  0  0  0  0
 21 24  1  0  0  0  0
 21 22  1  0  0  0  0
 21  1  1  0  0  0  0
 23 21  1  0  0  0  0
M  END
>  <minimizedAffinity>
-4.60434103

$$$$

 OpenBabel03252502373D

 24 25  0  0  1  0  0  0  0  0999 V2000
   37.6560   27.6400   43.3130 C   0  0  2  0  0  0  0  0  0  0  0  0
   38.1890   27.8060   44.2740 H   0  0  0  0  0  0  0  0  0  0  0  0
   36.7320   29.3340   41.7370 C   0  0  0  0  0  0  0  0  0  0  0  0
   37.7830   28.8650   42.5220 C   0  0  0  0  0  0  0  0  0  0  0  0
   38.9850   29.6210   42.5350 C   0  0  0  0  0  0  0  0  0  0  0  0
   39.0340   30.7610   41.7760 N   0  0  0  0  0  0  0  0  0  0  0  0
   37.9830   31.1500   41.0440 C   0  0  0  0  0  0  0  0  0  0  0  0
   36.8300   30.4470   41.0170 N   0  0  0  0  0  0  0  0  0  0  0  0
   35.7860   28.8250   41.6590 H   0  0  0  0  0  0  0  0  0  0  0  0
   39.8420   29.3000   43.1330 H   0  0  0  0  0  0  0  0  0  0  0  0
   38.2340   32.0680   40.5270 H   0  0  0  0  0  0  0  0  0  0  0  0
   40.5840   26.6940   43.6790 Cl  0  0  0  0  0  0  0  0  0  0  0  0
   39.3980   25.8610   42.7000 C   0  0  0  0  0  0  0  0  0  0  0  0
   38.1170   26.4040   42.6330 C   0  0  0  0  0  0  0  0  0  0  0  0
   37.2510   25.6580   41.8280 C   0  0  0  0  0  0  0  0  0  0  0  0
   36.2110   25.9700   41.6880 H   0  0  0  0  0  0  0  0  0  0  0  0
   37.5700   24.5010   41.1470 C   0  0  0  0  0  0  0  0  0  0  0  0
   36.8500   23.9730   40.5420 H   0  0  0  0  0  0  0  0  0  0  0  0
   38.8590   24.0310   41.2660 C   0  0  0  0  0  3  0  0  0  0  0  0
   39.7740   24.7110   42.0420 C   0  0  0  0  0  3  0  0  0  0  0  0
   36.2000   27.4430   43.6790 C   0  0  0  0  0  0  0  0  0  0  0  0
   35.9230   28.2840   44.3740 H   0  0  0  0  0  0  0  0  0  0  0  0
   35.5220   27.4600   42.8100 H   0  0  0  0  0  0  0  0  0  0  0  0
   36.0830   26.5060   44.2380 H   0  0  0  0  0  0  0  0  0  0  0  0
  1 21  1  0  0  0  0
  1  2  1  1  0  0  0
  3  4  1  0  0  0  0
  4  5  2  0  0  0  0
  4  1  1  0  0  0  0
  5 10  1  0  0  0  0
  6  5  1  0  0  0  0
  7  6  2  0  0  0  0
  8  7  1  0  0  0  0
  8  3  2  0  0  0  0
  9  3  1  0  0  0  0
 11  7  1  0  0  0  0
 13 12  1  0  0  0  0
 14 13  1  0  0  0  0
 14  1  1  0  0  0  0
 15 14  2  0  0  0  0
 16 15  1  0  0  0  0
 17 19  2  0  0  0  0
 17 15  1  0  0  0  0
 18 17  1  0  0  0  0
 19 20  1  0  0  0  0
 20 13  2  0  0  0  0
 21 24  1  0  0  0  0
 21 22  1  0  0  0  0
 23 21  1  0  0  0  0
M  END
>  <minimizedAffinity>
-4.58964252

$$$$

 OpenBabel03252502373D

 24 25  0  0  1  0  0  0  0  0999 V2000
   36.5630   27.7570   42.2000 C   0  0  2  0  0  0  0  0  0  0  0  0
   35.4680   27.5760   42.1370 H   0  0  0  0  0  0  0  0  0  0  0  0
   38.2190   25.8970   42.2580 C   0  0  0  0  0  0  0  0  0  0  0  0
   37.2350   26.6150   41.5810 C   0  0  0  0  0  0  0  0  0  0  0  0
   36.9000   26.1970   40.2660 C   0  0  0  0  0  0  0  0  0  0  0  0
   37.5650   25.1160   39.7480 N   0  0  0  0  0  0  0  0  0  0  0  0
   38.5000   24.4740   40.4580 C   0  0  0  0  0  0  0  0  0  0  0  0
   38.8350   24.8530   41.7110 N   0  0  0  0  0  0  0  0  0  0  0  0
   38.5420   26.1440   43.2550 H   0  0  0  0  0  0  0  0  0  0  0  0
   36.1370   26.7230   39.6880 H   0  0  0  0  0  0  0  0  0  0  0  0
   38.8950   23.6570   39.8660 H   0  0  0  0  0  0  0  0  0  0  0  0
   34.6420   29.1880   40.2340 Cl  0  0  0  0  0  0  0  0  0  0  0  0
   36.1810   29.8380   40.7520 C   0  0  0  0  0  0  0  0  0  0  0  0
   36.9370   29.0820   41.6450 C   0  0  0  0  0  0  0  0  0  0  0  0
   38.1430   29.6970   41.9940 C   0  0  0  0  0  0  0  0  0  0  0  0
   38.8350   29.2130   42.6910 H   0  0  0  0  0  0  0  0  0  0  0  0
   38.5930   30.9180   41.5370 C   0  0  0  0  0  0  0  0  0  0  0  0
   39.5370   31.3360   41.8490 H   0  0  0  0  0  0  0  0  0  0  0  0
   37.7860   31.6020   40.6560 C   0  0  0  0  0  3  0  0  0  0  0  0
   36.5790   31.0620   40.2630 C   0  0  0  0  0  3  0  0  0  0  0  0
   36.8910   27.7740   43.6800 C   0  0  0  0  0  0  0  0  0  0  0  0
   36.4130   26.8610   44.1290 H   0  0  0  0  0  0  0  0  0  0  0  0
   37.9730   27.7530   43.8900 H   0  0  0  0  0  0  0  0  0  0  0  0
   36.4270   28.6500   44.1510 H   0  0  0  0  0  0  0  0  0  0  0  0
  1  2  1  6  0  0  0
  1 21  1  0  0  0  0
  3  9  1  0  0  0  0
  4  1  1  0  0  0  0
  4  3  2  0  0  0  0
  5  4  1  0  0  0  0
  6  5  2  0  0  0  0
  6  7  1  0  0  0  0
  7  8  2  0  0  0  0
  8  3  1  0  0  0  0
 10  5  1  0  0  0  0
 11  7  1  0  0  0  0
 12 13  1  0  0  0  0
 13 14  1  0  0  0  0
 14 15  2  0  0  0  0
 14  1  1  0  0  0  0
 15 16  1  0  0  0  0
 17 18  1  0  0  0  0
 17 15  1  0  0  0  0
 19 17  2  0  0  0  0
 20 19  1  0  0  0  0
 20 13  2  0  0  0  0
 21 23  1  0  0  0  0
 21 22  1  0  0  0  0
 21 24  1  0  0  0  0
M  END
>  <minimizedAffinity>
-4.46819735

$$$$

 OpenBabel03252502373D

 24 25  0  0  1  0  0  0  0  0999 V2000
   37.8600   26.9670   43.2190 C   0  0  2  0  0  0  0  0  0  0  0  0
   38.2840   26.4590   44.1130 H   0  0  0  0  0  0  0  0  0  0  0  0
   40.0050   27.7860   42.2520 C   0  0  0  0  0  0  0  0  0  0  0  0
   38.7750   28.0490   42.8520 C   0  0  0  0  0  0  0  0  0  0  0  0
   38.4320   29.4060   43.0910 C   0  0  0  0  0  0  0  0  0  0  0  0
   39.3330   30.3690   42.7170 N   0  0  0  0  0  0  0  0  0  0  0  0
   40.4980   30.0420   42.1450 C   0  0  0  0  0  0  0  0  0  0  0  0
   40.8440   28.7580   41.9070 N   0  0  0  0  0  0  0  0  0  0  0  0
   40.3510   26.7900   42.0380 H   0  0  0  0  0  0  0  0  0  0  0  0
   37.4810   29.6700   43.5580 H   0  0  0  0  0  0  0  0  0  0  0  0
   41.0530   30.9470   41.9310 H   0  0  0  0  0  0  0  0  0  0  0  0
   36.4500   27.9680   40.6480 Cl  0  0  0  0  0  0  0  0  0  0  0  0
   36.9230   26.3080   40.9260 C   0  0  0  0  0  0  0  0  0  0  0  0
   37.5550   26.0060   42.1310 C   0  0  0  0  0  0  0  0  0  0  0  0
   37.8920   24.6550   42.2450 C   0  0  0  0  0  0  0  0  0  0  0  0
   38.3950   24.2790   43.1420 H   0  0  0  0  0  0  0  0  0  0  0  0
   37.6530   23.6760   41.3030 C   0  0  0  0  0  0  0  0  0  0  0  0
   37.9420   22.6480   41.4570 H   0  0  0  0  0  0  0  0  0  0  0  0
   37.0240   24.0560   40.1390 C   0  0  0  0  0  3  0  0  0  0  0  0
   36.6590   25.3730   39.9500 C   0  0  0  0  0  3  0  0  0  0  0  0
   36.5470   27.5710   43.6760 C   0  0  0  0  0  0  0  0  0  0  0  0
   36.7600   28.1270   44.6300 H   0  0  0  0  0  0  0  0  0  0  0  0
   36.1080   28.2690   42.9450 H   0  0  0  0  0  0  0  0  0  0  0  0
   35.8360   26.7710   43.9160 H   0  0  0  0  0  0  0  0  0  0  0  0
  1 21  1  0  0  0  0
  1  2  1  1  0  0  0
  3  4  1  0  0  0  0
  4  5  2  0  0  0  0
  4  1  1  0  0  0  0
  5 10  1  0  0  0  0
  6  5  1  0  0  0  0
  7  6  2  0  0  0  0
  8  7  1  0  0  0  0
  8  3  2  0  0  0  0
  9  3  1  0  0  0  0
 11  7  1  0  0  0  0
 12 13  1  0  0  0  0
 13 14  1  0  0  0  0
 14 15  2  0  0  0  0
 14  1  1  0  0  0  0
 15 16  1  0  0  0  0
 17 18  1  0  0  0  0
 17 15  1  0  0  0  0
 19 17  2  0  0  0  0
 20 19  1  0  0  0  0
 20 13  2  0  0  0  0
 21 24  1  0  0  0  0
 21 22  1  0  0  0  0
 23 21  1  0  0  0  0
M  END
>  <minimizedAffinity>
-4.46535063

$$$$

 OpenBabel03252502373D

 24 25  0  0  1  0  0  0  0  0999 V2000
   36.9050   27.1680   42.2120 C   0  0  2  0  0  0  0  0  0  0  0  0
   36.1650   26.3990   41.8980 H   0  0  0  0  0  0  0  0  0  0  0  0
   38.8160   26.3650   40.8300 C   0  0  0  0  0  0  0  0  0  0  0  0
   38.2370   26.5770   42.0800 C   0  0  0  0  0  0  0  0  0  0  0  0
   38.9880   26.2060   43.2270 C   0  0  0  0  0  0  0  0  0  0  0  0
   40.2310   25.6630   43.0310 N   0  0  0  0  0  0  0  0  0  0  0  0
   40.7230   25.4880   41.7980 C   0  0  0  0  0  0  0  0  0  0  0  0
   40.0280   25.8350   40.6930 N   0  0  0  0  0  0  0  0  0  0  0  0
   38.3210   26.6100   39.9060 H   0  0  0  0  0  0  0  0  0  0  0  0
   38.5830   26.3490   44.2310 H   0  0  0  0  0  0  0  0  0  0  0  0
   41.7110   25.0500   41.8720 H   0  0  0  0  0  0  0  0  0  0  0  0
   38.5790   29.6470   43.0190 Cl  0  0  0  0  0  0  0  0  0  0  0  0
   37.3850   29.6420   41.7410 C   0  0  0  0  0  0  0  0  0  0  0  0
   36.7120   28.4490   41.4880 C   0  0  0  0  0  0  0  0  0  0  0  0
   35.7860   28.5560   40.4460 C   0  0  0  0  0  0  0  0  0  0  0  0
   35.1870   27.6920   40.1410 H   0  0  0  0  0  0  0  0  0  0  0  0
   35.5200   29.6930   39.7110 C   0  0  0  0  0  0  0  0  0  0  0  0
   34.7900   29.7060   38.9170 H   0  0  0  0  0  0  0  0  0  0  0  0
   36.2280   30.8310   40.0250 C   0  0  0  0  0  3  0  0  0  0  0  0
   37.1610   30.8060   41.0400 C   0  0  0  0  0  3  0  0  0  0  0  0
   36.6290   27.4270   43.6790 C   0  0  0  0  0  0  0  0  0  0  0  0
   36.5670   26.4230   44.1810 H   0  0  0  0  0  0  0  0  0  0  0  0
   37.4110   28.0270   44.1730 H   0  0  0  0  0  0  0  0  0  0  0  0
   35.6490   27.9090   43.7910 H   0  0  0  0  0  0  0  0  0  0  0  0
  1  2  1  6  0  0  0
  1 21  1  0  0  0  0
  3  4  1  0  0  0  0
  4  1  1  0  0  0  0
  4  5  2  0  0  0  0
  5 10  1  0  0  0  0
  6  5  1  0  0  0  0
  7 11  1  0  0  0  0
  7  6  2  0  0  0  0
  8  3  2  0  0  0  0
  8  7  1  0  0  0  0
  9  3  1  0  0  0  0
 13 12  1  0  0  0  0
 14 13  1  0  0  0  0
 14  1  1  0  0  0  0
 15 14  2  0  0  0  0
 16 15  1  0  0  0  0
 17 19  2  0  0  0  0
 17 15  1  0  0  0  0
 18 17  1  0  0  0  0
 19 20  1  0  0  0  0
 20 13  2  0  0  0  0
 21 24  1  0  0  0  0
 21 23  1  0  0  0  0
 21 22  1  0  0  0  0
M  END
>  <minimizedAffinity>
-4.45792532

$$$$

 OpenBabel03252502373D

 24 25  0  0  1  0  0  0  0  0999 V2000
   39.3600   30.0200   41.3760 C   0  0  2  0  0  0  0  0  0  0  0  0
   40.1080   29.6400   40.6470 H   0  0  0  0  0  0  0  0  0  0  0  0
   37.6000   30.9280   39.8650 C   0  0  0  0  0  0  0  0  0  0  0  0
   38.6590   31.1390   40.7460 C   0  0  0  0  0  0  0  0  0  0  0  0
   39.0340   32.4810   41.0190 C   0  0  0  0  0  0  0  0  0  0  0  0
   38.3310   33.4810   40.3980 N   0  0  0  0  0  0  0  0  0  0  0  0
   37.3240   33.2030   39.5620 C   0  0  0  0  0  0  0  0  0  0  0  0
   36.9500   31.9350   39.2880 N   0  0  0  0  0  0  0  0  0  0  0  0
   37.2500   29.9470   39.5930 H   0  0  0  0  0  0  0  0  0  0  0  0
   39.8560   32.7050   41.7020 H   0  0  0  0  0  0  0  0  0  0  0  0
   36.9110   34.1310   39.1870 H   0  0  0  0  0  0  0  0  0  0  0  0
   38.9620   27.4580   39.6800 Cl  0  0  0  0  0  0  0  0  0  0  0  0
   38.2060   27.7350   41.2330 C   0  0  0  0  0  0  0  0  0  0  0  0
   38.4830   28.9350   41.8830 C   0  0  0  0  0  0  0  0  0  0  0  0
   37.8320   29.0500   43.1150 C   0  0  0  0  0  0  0  0  0  0  0  0
   37.9610   29.9440   43.7330 H   0  0  0  0  0  0  0  0  0  0  0  0
   36.9930   28.1120   43.6800 C   0  0  0  0  0  0  0  0  0  0  0  0
   36.5220   28.2650   44.6380 H   0  0  0  0  0  0  0  0  0  0  0  0
   36.7710   26.9510   42.9720 C   0  0  0  0  0  3  0  0  0  0  0  0
   37.3780   26.7630   41.7470 C   0  0  0  0  0  3  0  0  0  0  0  0
   40.1610   30.5440   42.5500 C   0  0  0  0  0  0  0  0  0  0  0  0
   40.9660   31.2060   42.1260 H   0  0  0  0  0  0  0  0  0  0  0  0
   39.5600   31.1270   43.2670 H   0  0  0  0  0  0  0  0  0  0  0  0
   40.6600   29.7100   43.0590 H   0  0  0  0  0  0  0  0  0  0  0  0
  1  2  1  6  0  0  0
  1 14  1  0  0  0  0
  1 21  1  0  0  0  0
  3  4  1  0  0  0  0
  4  5  2  0  0  0  0
  4  1  1  0  0  0  0
  5 10  1  0  0  0  0
  6  5  1  0  0  0  0
  7  6  2  0  0  0  0
  8  7  1  0  0  0  0
  8  3  2  0  0  0  0
  9  3  1  0  0  0  0
 11  7  1  0  0  0  0
 12 13  1  0  0  0  0
 13 20  2  0  0  0  0
 13 14  1  0  0  0  0
 14 15  2  0  0  0  0
 15 17  1  0  0  0  0
 15 16  1  0  0  0  0
 17 18  1  0  0  0  0
 19 17  2  0  0  0  0
 20 19  1  0  0  0  0
 21 24  1  0  0  0  0
 21 23  1  0  0  0  0
 22 21  1  0  0  0  0
M  END
>  <minimizedAffinity>
-4.43525648

$$$$

 OpenBabel03252502373D

 24 25  0  0  1  0  0  0  0  0999 V2000
   38.3960   29.5390   39.9500 C   0  0  2  0  0  0  0  0  0  0  0  0
   37.7850   29.1500   39.1060 H   0  0  0  0  0  0  0  0  0  0  0  0
   38.9500   31.7890   40.8650 C   0  0  0  0  0  0  0  0  0  0  0  0
   38.2050   30.9880   40.0010 C   0  0  0  0  0  0  0  0  0  0  0  0
   37.2530   31.6280   39.1640 C   0  0  0  0  0  0  0  0  0  0  0  0
   37.1280   32.9900   39.2600 N   0  0  0  0  0  0  0  0  0  0  0  0
   37.8800   33.6950   40.1140 C   0  0  0  0  0  0  0  0  0  0  0  0
   38.7920   33.1080   40.9190 N   0  0  0  0  0  0  0  0  0  0  0  0
   39.6900   31.3920   41.5390 H   0  0  0  0  0  0  0  0  0  0  0  0
   36.6410   31.0500   38.4680 H   0  0  0  0  0  0  0  0  0  0  0  0
   37.6230   34.7430   40.0270 H   0  0  0  0  0  0  0  0  0  0  0  0
   35.4700   28.8010   40.6550 Cl  0  0  0  0  0  0  0  0  0  0  0  0
   36.8480   28.4320   41.6680 C   0  0  0  0  0  0  0  0  0  0  0  0
   38.1070   28.8220   41.2170 C   0  0  0  0  0  0  0  0  0  0  0  0
   39.1330   28.4740   42.0990 C   0  0  0  0  0  0  0  0  0  0  0  0
   40.1750   28.7200   41.8690 H   0  0  0  0  0  0  0  0  0  0  0  0
   38.9810   27.8150   43.3020 C   0  0  0  0  0  0  0  0  0  0  0  0
   39.8200   27.5760   43.9370 H   0  0  0  0  0  0  0  0  0  0  0  0
   37.7030   27.4640   43.6750 C   0  0  0  0  0  3  0  0  0  0  0  0
   36.6350   27.7720   42.8580 C   0  0  0  0  0  3  0  0  0  0  0  0
   39.8370   29.2480   39.5810 C   0  0  0  0  0  0  0  0  0  0  0  0
   39.9820   29.6120   38.5260 H   0  0  0  0  0  0  0  0  0  0  0  0
   40.5670   29.7510   40.2360 H   0  0  0  0  0  0  0  0  0  0  0  0
   40.0070   28.1640   39.5790 H   0  0  0  0  0  0  0  0  0  0  0  0
  1  2  1  6  0  0  0
  1  4  1  0  0  0  0
  1 14  1  0  0  0  0
  3  8  1  0  0  0  0
  3  9  1  0  0  0  0
  4  3  2  0  0  0  0
  5  6  2  0  0  0  0
  5  4  1  0  0  0  0
  6  7  1  0  0  0  0
  7  8  2  0  0  0  0
 10  5  1  0  0  0  0
 11  7  1  0  0  0  0
 12 13  1  0  0  0  0
 13 20  1  0  0  0  0
 14 13  2  0  0  0  0
 14 15  1  0  0  0  0
 15 17  2  0  0  0  0
 16 15  1  0  0  0  0
 17 19  1  0  0  0  0
 17 18  1  0  0  0  0
 20 19  2  0  0  0  0
 21  1  1  0  0  0  0
 21 23  1  0  0  0  0
 22 21  1  0  0  0  0
 24 21  1  0  0  0  0
M  END
>  <minimizedAffinity>
-4.42245817

$$$$

 OpenBabel03252502373D

 24 25  0  0  1  0  0  0  0  0999 V2000
   36.5690   27.8110   42.1990 C   0  0  2  0  0  0  0  0  0  0  0  0
   35.4630   27.7250   42.1190 H   0  0  0  0  0  0  0  0  0  0  0  0
   37.6280   25.5570   42.2610 C   0  0  0  0  0  0  0  0  0  0  0  0
   37.1500   26.6450   41.5330 C   0  0  0  0  0  0  0  0  0  0  0  0
   37.2410   26.5830   40.1170 C   0  0  0  0  0  0  0  0  0  0  0  0
   37.7920   25.4590   39.5590 N   0  0  0  0  0  0  0  0  0  0  0  0
   38.2310   24.4510   40.3230 C   0  0  0  0  0  0  0  0  0  0  0  0
   38.1540   24.4880   41.6710 N   0  0  0  0  0  0  0  0  0  0  0  0
   37.6060   25.5170   43.3370 H   0  0  0  0  0  0  0  0  0  0  0  0
   36.8830   27.4070   39.4960 H   0  0  0  0  0  0  0  0  0  0  0  0
   38.6240   23.6700   39.6840 H   0  0  0  0  0  0  0  0  0  0  0  0
   39.5280   28.6070   42.6550 Cl  0  0  0  0  0  0  0  0  0  0  0  0
   38.3530   29.6170   41.8430 C   0  0  0  0  0  0  0  0  0  0  0  0
   37.0580   29.1230   41.7070 C   0  0  0  0  0  0  0  0  0  0  0  0
   36.2050   30.0070   41.0410 C   0  0  0  0  0  0  0  0  0  0  0  0
   35.1570   29.7450   40.8640 H   0  0  0  0  0  0  0  0  0  0  0  0
   36.5480   31.2490   40.5480 C   0  0  0  0  0  0  0  0  0  0  0  0
   35.8370   31.8830   40.0410 H   0  0  0  0  0  0  0  0  0  0  0  0
   37.8490   31.6640   40.7240 C   0  0  0  0  0  3  0  0  0  0  0  0
   38.7530   30.8470   41.3720 C   0  0  0  0  0  3  0  0  0  0  0  0
   36.8790   27.7340   43.6800 C   0  0  0  0  0  0  0  0  0  0  0  0
   36.3220   26.8440   44.0830 H   0  0  0  0  0  0  0  0  0  0  0  0
   37.9530   27.6120   43.8970 H   0  0  0  0  0  0  0  0  0  0  0  0
   36.4850   28.6240   44.1870 H   0  0  0  0  0  0  0  0  0  0  0  0
  1  2  1  6  0  0  0
  1 21  1  0  0  0  0
  3  9  1  0  0  0  0
  4  1  1  0  0  0  0
  4  3  2  0  0  0  0
  5  4  1  0  0  0  0
  6  5  2  0  0  0  0
  6  7  1  0  0  0  0
  7  8  2  0  0  0  0
  8  3  1  0  0  0  0
 10  5  1  0  0  0  0
 11  7  1  0  0  0  0
 13 12  1  0  0  0  0
 14 13  1  0  0  0  0
 14  1  1  0  0  0  0
 15 14  2  0  0  0  0
 16 15  1  0  0  0  0
 17 19  2  0  0  0  0
 17 15  1  0  0  0  0
 18 17  1  0  0  0  0
 19 20  1  0  0  0  0
 20 13  2  0  0  0  0
 21 23  1  0  0  0  0
 21 22  1  0  0  0  0
 21 24  1  0  0  0  0
M  END
>  <minimizedAffinity>
-4.41409636

$$$$

 OpenBabel03252502373D

 24 25  0  0  1  0  0  0  0  0999 V2000
   35.9230   29.4220   40.4570 C   0  0  2  0  0  0  0  0  0  0  0  0
   35.6110   30.1240   41.2610 H   0  0  0  0  0  0  0  0  0  0  0  0
   38.2000   30.3500   40.0600 C   0  0  0  0  0  0  0  0  0  0  0  0
   36.8990   30.1170   39.6180 C   0  0  0  0  0  0  0  0  0  0  0  0
   36.5510   30.5730   38.3190 C   0  0  0  0  0  0  0  0  0  0  0  0
   37.5160   31.2120   37.5840 N   0  0  0  0  0  0  0  0  0  0  0  0
   38.7460   31.4010   38.0750 C   0  0  0  0  0  0  0  0  0  0  0  0
   39.1000   30.9760   39.3070 N   0  0  0  0  0  0  0  0  0  0  0  0
   38.5520   30.0470   41.0310 H   0  0  0  0  0  0  0  0  0  0  0  0
   35.5460   30.4170   37.9210 H   0  0  0  0  0  0  0  0  0  0  0  0
   39.3450   31.9210   37.3360 H   0  0  0  0  0  0  0  0  0  0  0  0
   36.5400   27.0780   38.5260 Cl  0  0  0  0  0  0  0  0  0  0  0  0
   36.6890   26.9830   40.2660 C   0  0  0  0  0  0  0  0  0  0  0  0
   36.3810   28.1220   41.0070 C   0  0  0  0  0  0  0  0  0  0  0  0
   36.5380   27.9360   42.3830 C   0  0  0  0  0  0  0  0  0  0  0  0
   36.3310   28.7510   43.0840 H   0  0  0  0  0  0  0  0  0  0  0  0
   36.9510   26.7740   43.0030 C   0  0  0  0  0  0  0  0  0  0  0  0
   37.0520   26.6990   44.0740 H   0  0  0  0  0  0  0  0  0  0  0  0
   37.2360   25.6930   42.1990 C   0  0  0  0  0  3  0  0  0  0  0  0
   37.1050   25.7970   40.8300 C   0  0  0  0  0  3  0  0  0  0  0  0
   34.6750   29.1560   39.6380 C   0  0  0  0  0  0  0  0  0  0  0  0
   34.2190   30.1580   39.4070 H   0  0  0  0  0  0  0  0  0  0  0  0
   34.8760   28.6280   38.6920 H   0  0  0  0  0  0  0  0  0  0  0  0
   33.9490   28.5980   40.2420 H   0  0  0  0  0  0  0  0  0  0  0  0
  1 14  1  0  0  0  0
  1  2  1  1  0  0  0
  3  9  1  0  0  0  0
  4  3  1  0  0  0  0
  4  1  1  0  0  0  0
  5  4  2  0  0  0  0
  6  7  2  0  0  0  0
  6  5  1  0  0  0  0
  7  8  1  0  0  0  0
  8  3  2  0  0  0  0
 10  5  1  0  0  0  0
 11  7  1  0  0  0  0
 12 13  1  0  0  0  0
 13 20  2  0  0  0  0
 13 14  1  0  0  0  0
 14 15  2  0  0  0  0
 15 17  1  0  0  0  0
 15 16  1  0  0  0  0
 17 18  1  0  0  0  0
 19 17  2  0  0  0  0
 20 19  1  0  0  0  0
 21 24  1  0  0  0  0
 21  1  1  0  0  0  0
 22 21  1  0  0  0  0
 23 21  1  0  0  0  0
M  END
>  <minimizedAffinity>
-4.41398144

$$$$
