
 OpenBabel03242519553D

 40 42  0  0  1  0  0  0  0  0999 V2000
   37.9570   30.1910   41.1220 C   0  0  2  0  0  0  0  0  0  0  0  0
   38.6940   29.2040   40.3040 C   0  0  0  0  0  0  0  0  0  0  0  0
   37.7930   28.3930   39.4310 C   0  0  0  0  0  0  0  0  0  0  0  0
   36.6950   27.6960   40.1930 C   0  0  0  0  0  0  0  0  0  0  0  0
   36.1260   28.5050   41.3180 C   0  0  2  0  0  0  0  0  0  0  0  0
   36.4830   29.9700   41.1910 C   0  0  0  0  0  0  0  0  0  0  0  0
   38.3760   30.0960   42.1740 H   0  0  0  0  0  0  0  0  0  0  0  0
   39.3800   29.7620   39.6260 H   0  0  0  0  0  0  0  0  0  0  0  0
   39.2990   28.5070   40.9150 H   0  0  0  0  0  0  0  0  0  0  0  0
   38.4180   27.6200   38.9130 H   0  0  0  0  0  0  0  0  0  0  0  0
   37.3700   29.0710   38.6540 H   0  0  0  0  0  0  0  0  0  0  0  0
   37.1430   26.7250   40.5430 H   0  0  0  0  0  0  0  0  0  0  0  0
   35.9200   27.3760   39.4380 H   0  0  0  0  0  0  0  0  0  0  0  0
   35.0040   28.4530   41.1940 H   0  0  0  0  0  0  0  0  0  0  0  0
   35.8560   30.3740   40.4190 H   0  0  0  0  0  0  0  0  0  0  0  0
   36.1430   30.4430   42.1530 H   0  0  0  0  0  0  0  0  0  0  0  0
   38.2200   31.5890   40.7440 C   0  0  0  0  0  0  0  0  0  0  0  0
   37.2090   32.1700   39.9820 C   0  0  0  0  0  0  0  0  0  0  0  0
   37.3220   33.4980   39.5720 C   0  0  0  0  0  0  0  0  0  0  0  0
   38.4730   34.1610   39.9650 N   0  0  0  0  0  0  0  0  0  0  0  0
   39.4290   33.5630   40.7000 C   0  0  0  0  0  0  0  0  0  0  0  0
   39.2920   32.2900   41.0790 N   0  0  0  0  0  0  0  0  0  0  0  0
   36.2640   31.8650   39.5580 H   0  0  0  0  0  0  0  0  0  0  0  0
   36.6960   34.1360   39.0030 H   0  0  0  0  0  0  0  0  0  0  0  0
   40.3140   34.1160   40.9850 H   0  0  0  0  0  0  0  0  0  0  0  0
   36.5520   27.8920   42.5930 C   0  0  0  0  0  0  0  0  0  0  0  0
   37.4070   28.5020   42.9770 H   0  0  0  0  0  0  0  0  0  0  0  0
   35.7510   28.0240   43.3470 H   0  0  0  0  0  0  0  0  0  0  0  0
   36.9850   26.4710   42.5440 C   0  0  0  0  0  0  0  0  0  0  0  0
   36.6910   26.0700   41.5530 H   0  0  0  0  0  0  0  0  0  0  0  0
   36.4000   25.8820   43.2790 H   0  0  0  0  0  0  0  0  0  0  0  0
   38.1290   23.7400   41.7520 Cl  0  0  0  0  0  0  0  0  0  0  0  0
   39.0350   25.0580   42.5110 C   0  0  0  0  0  0  0  0  0  0  0  0
   38.4050   26.2440   42.8210 C   0  0  0  0  0  0  0  0  0  0  0  0
   39.2190   27.1930   43.4100 C   0  0  0  0  0  0  0  0  0  0  0  0
   38.8180   28.1590   43.6910 H   0  0  0  0  0  0  0  0  0  0  0  0
   40.5370   27.0140   43.6800 C   0  0  0  0  0  0  0  0  0  0  0  0
   41.1890   27.7440   44.1400 H   0  0  0  0  0  0  0  0  0  0  0  0
   41.1380   25.7980   43.3510 C   0  0  0  0  0  3  0  0  0  0  0  0
   40.3770   24.7880   42.7520 C   0  0  0  0  0  3  0  0  0  0  0  0
  1  6  1  0  0  0  0
  1  7  1  1  0  0  0
  2  9  1  0  0  0  0
  2  1  1  0  0  0  0
  3  4  1  0  0  0  0
  3  2  1  0  0  0  0
  4 12  1  0  0  0  0
  4  5  1  0  0  0  0
  5 14  1  6  0  0  0
  5 26  1  0  0  0  0
  6  5  1  0  0  0  0
  6 16  1  0  0  0  0
  8  2  1  0  0  0  0
 10  3  1  0  0  0  0
 11  3  1  0  0  0  0
 13  4  1  0  0  0  0
 15  6  1  0  0  0  0
 17 22  1  0  0  0  0
 17  1  1  0  0  0  0
 18 17  2  0  0  0  0
 19 20  2  0  0  0  0
 19 18  1  0  0  0  0
 20 21  1  0  0  0  0
 21 25  1  0  0  0  0
 21 22  2  0  0  0  0
 23 18  1  0  0  0  0
 24 19  1  0  0  0  0
 26 27  1  0  0  0  0
 26 28  1  0  0  0  0
 29 26  1  0  0  0  0
 29 34  1  0  0  0  0
 29 31  1  0  0  0  0
 30 29  1  0  0  0  0
 32 33  1  0  0  0  0
 33 40  2  0  0  0  0
 33 34  1  0  0  0  0
 34 35  2  0  0  0  0
 35 37  1  0  0  0  0
 35 36  1  0  0  0  0
 37 38  1  0  0  0  0
 39 37  2  0  0  0  0
 40 39  1  0  0  0  0
M  END
>  <minimizedAffinity>
-5.84122801

$$$$

 OpenBabel03242519553D

 40 42  0  0  1  0  0  0  0  0999 V2000
   37.8840   30.5200   39.6770 C   0  0  2  0  0  0  0  0  0  0  0  0
   37.9110   30.0310   38.2820 C   0  0  0  0  0  0  0  0  0  0  0  0
   36.5760   30.1160   37.6170 C   0  0  0  0  0  0  0  0  0  0  0  0
   35.4850   29.4070   38.3780 C   0  0  0  0  0  0  0  0  0  0  0  0
   35.5950   29.5390   39.8660 C   0  0  2  0  0  0  0  0  0  0  0  0
   36.5190   30.6720   40.2600 C   0  0  0  0  0  0  0  0  0  0  0  0
   38.4430   29.7420   40.2890 H   0  0  0  0  0  0  0  0  0  0  0  0
   38.6000   30.6850   37.7000 H   0  0  0  0  0  0  0  0  0  0  0  0
   38.2690   28.9870   38.2000 H   0  0  0  0  0  0  0  0  0  0  0  0
   36.6650   29.6510   36.6010 H   0  0  0  0  0  0  0  0  0  0  0  0
   36.3310   31.1950   37.4810 H   0  0  0  0  0  0  0  0  0  0  0  0
   35.5280   28.3360   38.0360 H   0  0  0  0  0  0  0  0  0  0  0  0
   34.5010   29.7780   37.9690 H   0  0  0  0  0  0  0  0  0  0  0  0
   34.5680   29.8470   40.2220 H   0  0  0  0  0  0  0  0  0  0  0  0
   35.9770   31.5840   40.0940 H   0  0  0  0  0  0  0  0  0  0  0  0
   36.6450   30.5780   41.3740 H   0  0  0  0  0  0  0  0  0  0  0  0
   38.6410   31.7650   39.8830 C   0  0  0  0  0  0  0  0  0  0  0  0
   37.8420   32.9000   40.0030 C   0  0  0  0  0  0  0  0  0  0  0  0
   38.4300   34.1460   40.2210 C   0  0  0  0  0  0  0  0  0  0  0  0
   39.8130   34.1610   40.3010 N   0  0  0  0  0  0  0  0  0  0  0  0
   40.5500   33.0420   40.1760 C   0  0  0  0  0  0  0  0  0  0  0  0
   39.9580   31.8630   39.9700 N   0  0  0  0  0  0  0  0  0  0  0  0
   36.7880   33.1330   39.9660 H   0  0  0  0  0  0  0  0  0  0  0  0
   38.0350   35.1220   40.3440 H   0  0  0  0  0  0  0  0  0  0  0  0
   41.6280   33.0970   40.2430 H   0  0  0  0  0  0  0  0  0  0  0  0
   35.9840   28.2270   40.4230 C   0  0  0  0  0  0  0  0  0  0  0  0
   35.1710   27.5080   40.1570 H   0  0  0  0  0  0  0  0  0  0  0  0
   36.8780   27.8540   39.8850 H   0  0  0  0  0  0  0  0  0  0  0  0
   36.1990   28.1580   41.8910 C   0  0  0  0  0  0  0  0  0  0  0  0
   35.2540   27.7980   42.3480 H   0  0  0  0  0  0  0  0  0  0  0  0
   36.3410   29.1820   42.2920 H   0  0  0  0  0  0  0  0  0  0  0  0
   38.5650   29.6610   43.1330 Cl  0  0  0  0  0  0  0  0  0  0  0  0
   38.4690   27.9100   42.8850 C   0  0  0  0  0  0  0  0  0  0  0  0
   37.3460   27.3510   42.3140 C   0  0  0  0  0  0  0  0  0  0  0  0
   37.3940   25.9770   42.1740 C   0  0  0  0  0  0  0  0  0  0  0  0
   36.5600   25.4430   41.7360 H   0  0  0  0  0  0  0  0  0  0  0  0
   38.4410   25.2020   42.5550 C   0  0  0  0  0  0  0  0  0  0  0  0
   38.4950   24.1260   42.4530 H   0  0  0  0  0  0  0  0  0  0  0  0
   39.5590   25.8070   43.1290 C   0  0  0  0  0  3  0  0  0  0  0  0
   39.5850   27.1950   43.3040 C   0  0  0  0  0  3  0  0  0  0  0  0
  1 17  1  0  0  0  0
  1  6  1  0  0  0  0
  1  7  1  1  0  0  0
  2  1  1  0  0  0  0
  3  2  1  0  0  0  0
  3  4  1  0  0  0  0
  4  5  1  0  0  0  0
  5 14  1  1  0  0  0
  5  6  1  0  0  0  0
  5 26  1  0  0  0  0
  6 16  1  0  0  0  0
  8  2  1  0  0  0  0
  9  2  1  0  0  0  0
 10  3  1  0  0  0  0
 11  3  1  0  0  0  0
 12  4  1  0  0  0  0
 13  4  1  0  0  0  0
 15  6  1  0  0  0  0
 17 22  2  0  0  0  0
 17 18  1  0  0  0  0
 18 19  2  0  0  0  0
 19 20  1  0  0  0  0
 19 24  1  0  0  0  0
 21 25  1  0  0  0  0
 21 20  2  0  0  0  0
 22 21  1  0  0  0  0
 23 18  1  0  0  0  0
 26 29  1  0  0  0  0
 27 26  1  0  0  0  0
 28 26  1  0  0  0  0
 29 31  1  0  0  0  0
 29 34  1  0  0  0  0
 29 30  1  0  0  0  0
 33 32  1  0  0  0  0
 33 40  1  0  0  0  0
 34 33  2  0  0  0  0
 35 34  1  0  0  0  0
 35 37  2  0  0  0  0
 36 35  1  0  0  0  0
 37 39  1  0  0  0  0
 38 37  1  0  0  0  0
 39 40  2  0  0  0  0
M  END
>  <minimizedAffinity>
-5.73774481

$$$$

 OpenBabel03242519553D

 40 42  0  0  1  0  0  0  0  0999 V2000
   37.5260   27.1510   41.1090 C   0  0  2  0  0  0  0  0  0  0  0  0
   38.8460   27.0530   41.7690 C   0  0  0  0  0  0  0  0  0  0  0  0
   38.7720   27.3000   43.2400 C   0  0  0  0  0  0  0  0  0  0  0  0
   38.1290   28.6170   43.5920 C   0  0  0  0  0  0  0  0  0  0  0  0
   36.9790   28.9900   42.7060 C   0  0  2  0  0  0  0  0  0  0  0  0
   36.4620   27.7980   41.9310 C   0  0  0  0  0  0  0  0  0  0  0  0
   37.6910   27.7870   40.1810 H   0  0  0  0  0  0  0  0  0  0  0  0
   39.2210   26.0120   41.6380 H   0  0  0  0  0  0  0  0  0  0  0  0
   39.5920   27.7490   41.3410 H   0  0  0  0  0  0  0  0  0  0  0  0
   39.8170   27.2910   43.6460 H   0  0  0  0  0  0  0  0  0  0  0  0
   38.2160   26.4510   43.7020 H   0  0  0  0  0  0  0  0  0  0  0  0
   38.9610   29.3750   43.5590 H   0  0  0  0  0  0  0  0  0  0  0  0
   37.8530   28.5700   44.6850 H   0  0  0  0  0  0  0  0  0  0  0  0
   36.1410   29.2850   43.4040 H   0  0  0  0  0  0  0  0  0  0  0  0
   35.8980   27.2010   42.6220 H   0  0  0  0  0  0  0  0  0  0  0  0
   35.7190   28.2200   41.1990 H   0  0  0  0  0  0  0  0  0  0  0  0
   37.0260   25.8670   40.5920 C   0  0  0  0  0  0  0  0  0  0  0  0
   36.5010   25.9410   39.3040 C   0  0  0  0  0  0  0  0  0  0  0  0
   36.0100   24.7910   38.6850 C   0  0  0  0  0  0  0  0  0  0  0  0
   36.0810   23.6230   39.4260 N   0  0  0  0  0  0  0  0  0  0  0  0
   36.5940   23.5930   40.6690 C   0  0  0  0  0  0  0  0  0  0  0  0
   37.0580   24.7100   41.2350 N   0  0  0  0  0  0  0  0  0  0  0  0
   36.3320   26.7060   38.5610 H   0  0  0  0  0  0  0  0  0  0  0  0
   35.5770   24.6090   37.7350 H   0  0  0  0  0  0  0  0  0  0  0  0
   36.6310   22.6610   41.2150 H   0  0  0  0  0  0  0  0  0  0  0  0
   37.3950   30.1250   41.8570 C   0  0  0  0  0  0  0  0  0  0  0  0
   37.7910   30.9150   42.5410 H   0  0  0  0  0  0  0  0  0  0  0  0
   38.2660   29.8200   41.2430 H   0  0  0  0  0  0  0  0  0  0  0  0
   36.3490   30.7400   40.9990 C   0  0  0  0  0  0  0  0  0  0  0  0
   36.1700   31.7660   41.3790 H   0  0  0  0  0  0  0  0  0  0  0  0
   35.3880   30.2060   41.1490 H   0  0  0  0  0  0  0  0  0  0  0  0
   37.7090   33.2390   39.8600 Cl  0  0  0  0  0  0  0  0  0  0  0  0
   37.2500   31.8010   38.9340 C   0  0  0  0  0  0  0  0  0  0  0  0
   36.6410   30.7370   39.5640 C   0  0  0  0  0  0  0  0  0  0  0  0
   36.3310   29.6750   38.7340 C   0  0  0  0  0  0  0  0  0  0  0  0
   35.8500   28.7920   39.1340 H   0  0  0  0  0  0  0  0  0  0  0  0
   36.5880   29.6420   37.4020 C   0  0  0  0  0  0  0  0  0  0  0  0
   36.3530   28.8210   36.7380 H   0  0  0  0  0  0  0  0  0  0  0  0
   37.2060   30.7400   36.8020 C   0  0  0  0  0  3  0  0  0  0  0  0
   37.5500   31.8520   37.5780 C   0  0  0  0  0  3  0  0  0  0  0  0
  1  7  1  6  0  0  0
  1  2  1  0  0  0  0
  1  6  1  0  0  0  0
  2  3  1  0  0  0  0
  3  4  1  0  0  0  0
  3 10  1  0  0  0  0
  3 11  1  0  0  0  0
  4 13  1  0  0  0  0
  5 14  1  1  0  0  0
  5  4  1  0  0  0  0
  6 15  1  0  0  0  0
  6  5  1  0  0  0  0
  8  2  1  0  0  0  0
  9  2  1  0  0  0  0
 12  4  1  0  0  0  0
 16  6  1  0  0  0  0
 17  1  1  0  0  0  0
 17 22  1  0  0  0  0
 18 17  2  0  0  0  0
 19 18  1  0  0  0  0
 19 20  2  0  0  0  0
 20 21  1  0  0  0  0
 21 25  1  0  0  0  0
 21 22  2  0  0  0  0
 23 18  1  0  0  0  0
 24 19  1  0  0  0  0
 26 27  1  0  0  0  0
 26  5  1  0  0  0  0
 28 26  1  0  0  0  0
 29 31  1  0  0  0  0
 29 30  1  0  0  0  0
 29 26  1  0  0  0  0
 33 34  1  0  0  0  0
 33 32  1  0  0  0  0
 34 29  1  0  0  0  0
 35 36  1  0  0  0  0
 35 34  2  0  0  0  0
 37 35  1  0  0  0  0
 38 37  1  0  0  0  0
 39 37  2  0  0  0  0
 39 40  1  0  0  0  0
 40 33  2  0  0  0  0
M  END
>  <minimizedAffinity>
-5.46911621

$$$$

 OpenBabel03242519553D

 40 42  0  0  1  0  0  0  0  0999 V2000
   39.1350   30.4830   41.0130 C   0  0  2  0  0  0  0  0  0  0  0  0
   37.8750   29.9750   40.4290 C   0  0  0  0  0  0  0  0  0  0  0  0
   36.7750   29.8720   41.4350 C   0  0  0  0  0  0  0  0  0  0  0  0
   37.1450   29.0420   42.6390 C   0  0  0  0  0  0  0  0  0  0  0  0
   38.5640   29.2170   43.0870 C   0  0  2  0  0  0  0  0  0  0  0  0
   39.1850   30.4680   42.5040 C   0  0  0  0  0  0  0  0  0  0  0  0
   39.9540   29.7970   40.6260 H   0  0  0  0  0  0  0  0  0  0  0  0
   37.5340   30.7010   39.6570 H   0  0  0  0  0  0  0  0  0  0  0  0
   37.9930   28.9850   39.9490 H   0  0  0  0  0  0  0  0  0  0  0  0
   35.8900   29.4030   40.9340 H   0  0  0  0  0  0  0  0  0  0  0  0
   36.4920   30.9070   41.7380 H   0  0  0  0  0  0  0  0  0  0  0  0
   36.9110   27.9790   42.3530 H   0  0  0  0  0  0  0  0  0  0  0  0
   36.3910   29.2740   43.4450 H   0  0  0  0  0  0  0  0  0  0  0  0
   38.5110   29.3950   44.2020 H   0  0  0  0  0  0  0  0  0  0  0  0
   38.7790   31.2980   43.0500 H   0  0  0  0  0  0  0  0  0  0  0  0
   40.2740   30.4130   42.7770 H   0  0  0  0  0  0  0  0  0  0  0  0
   39.5140   31.8210   40.5280 C   0  0  0  0  0  0  0  0  0  0  0  0
   40.6180   31.8230   39.6790 C   0  0  0  0  0  0  0  0  0  0  0  0
   41.0720   33.0230   39.1310 C   0  0  0  0  0  0  0  0  0  0  0  0
   40.3680   34.1610   39.4890 N   0  0  0  0  0  0  0  0  0  0  0  0
   39.3070   34.1170   40.3150 C   0  0  0  0  0  0  0  0  0  0  0  0
   38.8940   32.9530   40.8230 N   0  0  0  0  0  0  0  0  0  0  0  0
   41.3100   31.0970   39.2790 H   0  0  0  0  0  0  0  0  0  0  0  0
   41.8690   33.2640   38.4760 H   0  0  0  0  0  0  0  0  0  0  0  0
   38.7850   35.0280   40.5710 H   0  0  0  0  0  0  0  0  0  0  0  0
   39.3060   27.9780   42.7780 C   0  0  0  0  0  0  0  0  0  0  0  0
   39.2040   27.8050   41.6780 H   0  0  0  0  0  0  0  0  0  0  0  0
   40.3890   28.1530   42.9370 H   0  0  0  0  0  0  0  0  0  0  0  0
   38.8740   26.7420   43.4810 C   0  0  0  0  0  0  0  0  0  0  0  0
   38.0720   27.0290   44.1920 H   0  0  0  0  0  0  0  0  0  0  0  0
   39.7030   26.3710   44.1160 H   0  0  0  0  0  0  0  0  0  0  0  0
   41.0920   24.9520   42.3520 Cl  0  0  0  0  0  0  0  0  0  0  0  0
   39.3580   24.7710   42.0390 C   0  0  0  0  0  0  0  0  0  0  0  0
   38.4560   25.6440   42.6080 C   0  0  0  0  0  0  0  0  0  0  0  0
   37.1340   25.3980   42.2870 C   0  0  0  0  0  0  0  0  0  0  0  0
   36.3490   26.0280   42.6840 H   0  0  0  0  0  0  0  0  0  0  0  0
   36.7140   24.3890   41.4810 C   0  0  0  0  0  0  0  0  0  0  0  0
   35.6850   24.1820   41.2190 H   0  0  0  0  0  0  0  0  0  0  0  0
   37.6600   23.5270   40.9250 C   0  0  0  0  0  3  0  0  0  0  0  0
   39.0180   23.7130   41.2030 C   0  0  0  0  0  3  0  0  0  0  0  0
  1  7  1  6  0  0  0
  1  6  1  0  0  0  0
  2  1  1  0  0  0  0
  2  3  1  0  0  0  0
  3 11  1  0  0  0  0
  3  4  1  0  0  0  0
  4  5  1  0  0  0  0
  4 13  1  0  0  0  0
  5 14  1  1  0  0  0
  6 16  1  0  0  0  0
  6 15  1  0  0  0  0
  6  5  1  0  0  0  0
  8  2  1  0  0  0  0
  9  2  1  0  0  0  0
 10  3  1  0  0  0  0
 12  4  1  0  0  0  0
 17 22  1  0  0  0  0
 17  1  1  0  0  0  0
 18 17  2  0  0  0  0
 19 20  2  0  0  0  0
 19 18  1  0  0  0  0
 20 21  1  0  0  0  0
 21 25  1  0  0  0  0
 21 22  2  0  0  0  0
 23 18  1  0  0  0  0
 24 19  1  0  0  0  0
 26 28  1  0  0  0  0
 26  5  1  0  0  0  0
 26 29  1  0  0  0  0
 27 26  1  0  0  0  0
 29 31  1  0  0  0  0
 29 30  1  0  0  0  0
 33 32  1  0  0  0  0
 33 34  1  0  0  0  0
 34 29  1  0  0  0  0
 35 34  2  0  0  0  0
 35 36  1  0  0  0  0
 37 35  1  0  0  0  0
 38 37  1  0  0  0  0
 39 40  1  0  0  0  0
 39 37  2  0  0  0  0
 40 33  2  0  0  0  0
M  END
>  <minimizedAffinity>
-5.43521309

$$$$

 OpenBabel03242519553D

 40 42  0  0  1  0  0  0  0  0999 V2000
   39.0480   28.0540   42.7390 C   0  0  2  0  0  0  0  0  0  0  0  0
   37.9300   27.8240   43.6790 C   0  0  0  0  0  0  0  0  0  0  0  0
   36.7400   27.2080   43.0190 C   0  0  0  0  0  0  0  0  0  0  0  0
   36.2450   27.9930   41.8310 C   0  0  0  0  0  0  0  0  0  0  0  0
   37.3370   28.5990   41.0030 C   0  0  2  0  0  0  0  0  0  0  0  0
   38.6790   27.9630   41.2960 C   0  0  0  0  0  0  0  0  0  0  0  0
   39.4110   29.1110   42.9440 H   0  0  0  0  0  0  0  0  0  0  0  0
   38.2740   27.1020   44.4550 H   0  0  0  0  0  0  0  0  0  0  0  0
   37.5990   28.7500   44.1870 H   0  0  0  0  0  0  0  0  0  0  0  0
   35.9160   27.1460   43.7770 H   0  0  0  0  0  0  0  0  0  0  0  0
   37.0140   26.1680   42.7230 H   0  0  0  0  0  0  0  0  0  0  0  0
   35.5450   28.7660   42.2530 H   0  0  0  0  0  0  0  0  0  0  0  0
   35.5660   27.3100   41.2420 H   0  0  0  0  0  0  0  0  0  0  0  0
   37.0970   28.3240   39.9340 H   0  0  0  0  0  0  0  0  0  0  0  0
   38.6770   27.0030   40.8150 H   0  0  0  0  0  0  0  0  0  0  0  0
   39.4310   28.5910   40.7440 H   0  0  0  0  0  0  0  0  0  0  0  0
   40.2210   27.2030   42.9940 C   0  0  0  0  0  0  0  0  0  0  0  0
   40.0430   25.8700   42.6330 C   0  0  0  0  0  0  0  0  0  0  0  0
   41.0840   24.9570   42.8040 C   0  0  0  0  0  0  0  0  0  0  0  0
   42.2560   25.4630   43.3410 N   0  0  0  0  0  0  0  0  0  0  0  0
   42.3870   26.7590   43.6800 C   0  0  0  0  0  0  0  0  0  0  0  0
   41.3730   27.6100   43.5030 N   0  0  0  0  0  0  0  0  0  0  0  0
   39.2510   25.2600   42.2240 H   0  0  0  0  0  0  0  0  0  0  0  0
   41.1780   23.9200   42.6050 H   0  0  0  0  0  0  0  0  0  0  0  0
   43.3190   27.1150   44.0980 H   0  0  0  0  0  0  0  0  0  0  0  0
   37.3110   30.0630   41.1990 C   0  0  0  0  0  0  0  0  0  0  0  0
   36.9930   30.2440   42.2550 H   0  0  0  0  0  0  0  0  0  0  0  0
   38.3460   30.4560   41.1440 H   0  0  0  0  0  0  0  0  0  0  0  0
   36.4160   30.8440   40.3070 C   0  0  0  0  0  0  0  0  0  0  0  0
   36.7240   31.9070   40.3760 H   0  0  0  0  0  0  0  0  0  0  0  0
   35.3820   30.8170   40.7070 H   0  0  0  0  0  0  0  0  0  0  0  0
   34.0170   29.1100   39.5080 Cl  0  0  0  0  0  0  0  0  0  0  0  0
   35.3410   29.5990   38.4370 C   0  0  0  0  0  0  0  0  0  0  0  0
   36.3670   30.3840   38.9180 C   0  0  0  0  0  0  0  0  0  0  0  0
   37.3380   30.6970   37.9850 C   0  0  0  0  0  0  0  0  0  0  0  0
   38.1860   31.3090   38.2640 H   0  0  0  0  0  0  0  0  0  0  0  0
   37.3220   30.2860   36.6920 C   0  0  0  0  0  0  0  0  0  0  0  0
   38.0730   30.5220   35.9490 H   0  0  0  0  0  0  0  0  0  0  0  0
   36.2650   29.4920   36.2450 C   0  0  0  0  0  3  0  0  0  0  0  0
   35.2430   29.1340   37.1310 C   0  0  0  0  0  3  0  0  0  0  0  0
  1  7  1  1  0  0  0
  1 17  1  0  0  0  0
  1  2  1  0  0  0  0
  2  9  1  0  0  0  0
  2  8  1  0  0  0  0
  3  2  1  0  0  0  0
  3 10  1  0  0  0  0
  4 12  1  0  0  0  0
  4  3  1  0  0  0  0
  5 14  1  6  0  0  0
  5 26  1  0  0  0  0
  5  6  1  0  0  0  0
  5  4  1  0  0  0  0
  6  1  1  0  0  0  0
 11  3  1  0  0  0  0
 13  4  1  0  0  0  0
 15  6  1  0  0  0  0
 16  6  1  0  0  0  0
 17 22  1  0  0  0  0
 18 19  1  0  0  0  0
 18 17  2  0  0  0  0
 19 20  2  0  0  0  0
 20 21  1  0  0  0  0
 21 25  1  0  0  0  0
 22 21  2  0  0  0  0
 23 18  1  0  0  0  0
 24 19  1  0  0  0  0
 26 27  1  0  0  0  0
 28 26  1  0  0  0  0
 29 30  1  0  0  0  0
 29 31  1  0  0  0  0
 29 26  1  0  0  0  0
 33 34  1  0  0  0  0
 33 32  1  0  0  0  0
 34 29  1  0  0  0  0
 35 36  1  0  0  0  0
 35 34  2  0  0  0  0
 37 35  1  0  0  0  0
 38 37  1  0  0  0  0
 39 37  2  0  0  0  0
 39 40  1  0  0  0  0
 40 33  2  0  0  0  0
M  END
>  <minimizedAffinity>
-5.40265274

$$$$

 OpenBabel03242519553D

 40 42  0  0  1  0  0  0  0  0999 V2000
   38.6330   29.8780   39.6200 C   0  0  2  0  0  0  0  0  0  0  0  0
   37.4560   30.4270   38.9130 C   0  0  0  0  0  0  0  0  0  0  0  0
   36.6400   31.3360   39.7730 C   0  0  0  0  0  0  0  0  0  0  0  0
   36.1990   30.6960   41.0640 C   0  0  0  0  0  0  0  0  0  0  0  0
   37.2250   29.7940   41.6800 C   0  0  2  0  0  0  0  0  0  0  0  0
   38.6020   30.0390   41.1030 C   0  0  0  0  0  0  0  0  0  0  0  0
   38.6430   28.7660   39.3860 H   0  0  0  0  0  0  0  0  0  0  0  0
   37.8230   31.0410   38.0580 H   0  0  0  0  0  0  0  0  0  0  0  0
   36.7880   29.6400   38.5160 H   0  0  0  0  0  0  0  0  0  0  0  0
   35.7310   31.6390   39.1930 H   0  0  0  0  0  0  0  0  0  0  0  0
   37.2440   32.2530   39.9700 H   0  0  0  0  0  0  0  0  0  0  0  0
   35.2420   30.1560   40.8190 H   0  0  0  0  0  0  0  0  0  0  0  0
   35.8670   31.5280   41.7510 H   0  0  0  0  0  0  0  0  0  0  0  0
   37.2900   30.1040   42.7650 H   0  0  0  0  0  0  0  0  0  0  0  0
   38.9620   30.9520   41.5390 H   0  0  0  0  0  0  0  0  0  0  0  0
   39.2480   29.2160   41.5170 H   0  0  0  0  0  0  0  0  0  0  0  0
   39.9190   30.3750   39.1040 C   0  0  0  0  0  0  0  0  0  0  0  0
   40.6720   31.0770   40.0430 C   0  0  0  0  0  0  0  0  0  0  0  0
   41.9220   31.5870   39.6920 C   0  0  0  0  0  0  0  0  0  0  0  0
   42.3320   31.3510   38.3900 N   0  0  0  0  0  0  0  0  0  0  0  0
   41.5740   30.6690   37.5130 C   0  0  0  0  0  0  0  0  0  0  0  0
   40.3810   30.1920   37.8780 N   0  0  0  0  0  0  0  0  0  0  0  0
   40.5630   31.3880   41.0710 H   0  0  0  0  0  0  0  0  0  0  0  0
   42.6550   32.1370   40.2240 H   0  0  0  0  0  0  0  0  0  0  0  0
   41.9300   30.5070   36.5040 H   0  0  0  0  0  0  0  0  0  0  0  0
   36.7580   28.3990   41.5480 C   0  0  0  0  0  0  0  0  0  0  0  0
   35.7030   28.4430   41.1820 H   0  0  0  0  0  0  0  0  0  0  0  0
   37.3200   27.9030   40.7320 H   0  0  0  0  0  0  0  0  0  0  0  0
   36.7860   27.5630   42.7760 C   0  0  0  0  0  0  0  0  0  0  0  0
   35.8590   26.9530   42.7830 H   0  0  0  0  0  0  0  0  0  0  0  0
   36.7070   28.2160   43.6690 H   0  0  0  0  0  0  0  0  0  0  0  0
   36.6150   24.6800   41.7480 Cl  0  0  0  0  0  0  0  0  0  0  0  0
   38.0290   25.4210   42.5140 C   0  0  0  0  0  0  0  0  0  0  0  0
   37.9810   26.7330   42.9360 C   0  0  0  0  0  0  0  0  0  0  0  0
   39.1480   27.1940   43.5170 C   0  0  0  0  0  0  0  0  0  0  0  0
   39.2110   28.2110   43.8810 H   0  0  0  0  0  0  0  0  0  0  0  0
   40.2710   26.4500   43.6800 C   0  0  0  0  0  0  0  0  0  0  0  0
   41.1920   26.7950   44.1320 H   0  0  0  0  0  0  0  0  0  0  0  0
   40.2780   25.1260   43.2390 C   0  0  0  0  0  3  0  0  0  0  0  0
   39.1350   24.5870   42.6400 C   0  0  0  0  0  3  0  0  0  0  0  0
  1  7  1  6  0  0  0
  1  6  1  0  0  0  0
  2  1  1  0  0  0  0
  2  3  1  0  0  0  0
  3 11  1  0  0  0  0
  3  4  1  0  0  0  0
  4  5  1  0  0  0  0
  4 13  1  0  0  0  0
  5 14  1  1  0  0  0
  6 16  1  0  0  0  0
  6 15  1  0  0  0  0
  6  5  1  0  0  0  0
  8  2  1  0  0  0  0
  9  2  1  0  0  0  0
 10  3  1  0  0  0  0
 12  4  1  0  0  0  0
 17  1  1  0  0  0  0
 17 18  1  0  0  0  0
 18 23  1  0  0  0  0
 19 18  2  0  0  0  0
 19 24  1  0  0  0  0
 20 19  1  0  0  0  0
 21 22  1  0  0  0  0
 21 20  2  0  0  0  0
 22 17  2  0  0  0  0
 25 21  1  0  0  0  0
 26  5  1  0  0  0  0
 26 29  1  0  0  0  0
 27 26  1  0  0  0  0
 28 26  1  0  0  0  0
 29 30  1  0  0  0  0
 29 34  1  0  0  0  0
 29 31  1  0  0  0  0
 32 33  1  0  0  0  0
 33 40  2  0  0  0  0
 33 34  1  0  0  0  0
 34 35  2  0  0  0  0
 35 37  1  0  0  0  0
 35 36  1  0  0  0  0
 37 38  1  0  0  0  0
 39 37  2  0  0  0  0
 40 39  1  0  0  0  0
M  END
>  <minimizedAffinity>
-5.37991667

$$$$

 OpenBabel03242519553D

 40 42  0  0  1  0  0  0  0  0999 V2000
   35.4830   29.5870   38.5260 C   0  0  2  0  0  0  0  0  0  0  0  0
   35.4860   28.3960   39.4030 C   0  0  0  0  0  0  0  0  0  0  0  0
   35.9140   27.1560   38.6870 C   0  0  0  0  0  0  0  0  0  0  0  0
   35.1000   26.8710   37.4510 C   0  0  0  0  0  0  0  0  0  0  0  0
   34.7170   28.0950   36.6760 C   0  0  2  0  0  0  0  0  0  0  0  0
   35.5610   29.2890   37.0660 C   0  0  0  0  0  0  0  0  0  0  0  0
   34.4970   30.1150   38.7260 H   0  0  0  0  0  0  0  0  0  0  0  0
   36.2280   28.5670   40.2160 H   0  0  0  0  0  0  0  0  0  0  0  0
   34.5000   28.2000   39.8660 H   0  0  0  0  0  0  0  0  0  0  0  0
   35.8080   26.2930   39.3940 H   0  0  0  0  0  0  0  0  0  0  0  0
   36.9950   27.2640   38.4340 H   0  0  0  0  0  0  0  0  0  0  0  0
   34.2040   26.2910   37.8100 H   0  0  0  0  0  0  0  0  0  0  0  0
   35.6770   26.1190   36.8390 H   0  0  0  0  0  0  0  0  0  0  0  0
   34.9850   27.8710   35.6020 H   0  0  0  0  0  0  0  0  0  0  0  0
   36.5230   29.1500   36.6110 H   0  0  0  0  0  0  0  0  0  0  0  0
   35.0900   30.1680   36.5460 H   0  0  0  0  0  0  0  0  0  0  0  0
   36.5110   30.5810   38.8750 C   0  0  0  0  0  0  0  0  0  0  0  0
   37.4400   30.8130   37.8630 C   0  0  0  0  0  0  0  0  0  0  0  0
   38.4580   31.7470   38.0530 C   0  0  0  0  0  0  0  0  0  0  0  0
   38.4710   32.3930   39.2790 N   0  0  0  0  0  0  0  0  0  0  0  0
   37.5560   32.1380   40.2320 C   0  0  0  0  0  0  0  0  0  0  0  0
   36.5910   31.2390   40.0200 N   0  0  0  0  0  0  0  0  0  0  0  0
   37.6360   30.4400   36.8690 H   0  0  0  0  0  0  0  0  0  0  0  0
   39.2560   32.0840   37.4420 H   0  0  0  0  0  0  0  0  0  0  0  0
   37.6010   32.6630   41.1760 H   0  0  0  0  0  0  0  0  0  0  0  0
   33.2640   28.3100   36.8330 C   0  0  0  0  0  0  0  0  0  0  0  0
   32.7680   27.3260   36.6450 H   0  0  0  0  0  0  0  0  0  0  0  0
   33.0420   28.5400   37.8940 H   0  0  0  0  0  0  0  0  0  0  0  0
   32.6350   29.3210   35.9440 C   0  0  0  0  0  0  0  0  0  0  0  0
   32.2670   28.7870   35.0440 H   0  0  0  0  0  0  0  0  0  0  0  0
   33.4130   30.0160   35.5680 H   0  0  0  0  0  0  0  0  0  0  0  0
   31.5630   31.6880   34.3180 Cl  0  0  0  0  0  0  0  0  0  0  0  0
   31.0180   31.2140   35.9360 C   0  0  0  0  0  0  0  0  0  0  0  0
   31.5820   30.1250   36.5650 C   0  0  0  0  0  0  0  0  0  0  0  0
   31.0720   29.8580   37.8220 C   0  0  0  0  0  0  0  0  0  0  0  0
   31.4490   29.0230   38.3980 H   0  0  0  0  0  0  0  0  0  0  0  0
   30.0960   30.5840   38.4250 C   0  0  0  0  0  0  0  0  0  0  0  0
   29.6860   30.3900   39.4070 H   0  0  0  0  0  0  0  0  0  0  0  0
   29.5530   31.6800   37.7540 C   0  0  0  0  0  3  0  0  0  0  0  0
   30.0170   32.0130   36.4770 C   0  0  0  0  0  3  0  0  0  0  0  0
  1  7  1  1  0  0  0
  1 17  1  0  0  0  0
  1  2  1  0  0  0  0
  2  9  1  0  0  0  0
  2  8  1  0  0  0  0
  3 10  1  0  0  0  0
  3  2  1  0  0  0  0
  4 12  1  0  0  0  0
  4  3  1  0  0  0  0
  5 14  1  6  0  0  0
  5 26  1  0  0  0  0
  5  6  1  0  0  0  0
  5  4  1  0  0  0  0
  6  1  1  0  0  0  0
 11  3  1  0  0  0  0
 13  4  1  0  0  0  0
 15  6  1  0  0  0  0
 16  6  1  0  0  0  0
 17 22  1  0  0  0  0
 18 19  1  0  0  0  0
 18 17  2  0  0  0  0
 19 20  2  0  0  0  0
 20 21  1  0  0  0  0
 21 25  1  0  0  0  0
 22 21  2  0  0  0  0
 23 18  1  0  0  0  0
 24 19  1  0  0  0  0
 26 28  1  0  0  0  0
 27 26  1  0  0  0  0
 29 34  1  0  0  0  0
 29 26  1  0  0  0  0
 30 29  1  0  0  0  0
 31 29  1  0  0  0  0
 32 33  1  0  0  0  0
 33 40  2  0  0  0  0
 33 34  1  0  0  0  0
 34 35  2  0  0  0  0
 35 36  1  0  0  0  0
 35 37  1  0  0  0  0
 37 38  1  0  0  0  0
 39 37  2  0  0  0  0
 40 39  1  0  0  0  0
M  END
>  <minimizedAffinity>
-5.33352423

$$$$

 OpenBabel03242519553D

 40 42  0  0  1  0  0  0  0  0999 V2000
   38.3230   26.7450   41.1780 C   0  0  2  0  0  0  0  0  0  0  0  0
   39.3820   27.1330   42.1350 C   0  0  0  0  0  0  0  0  0  0  0  0
   38.8790   27.2410   43.5370 C   0  0  0  0  0  0  0  0  0  0  0  0
   37.7050   28.1760   43.6790 C   0  0  0  0  0  0  0  0  0  0  0  0
   36.7400   28.1210   42.5340 C   0  0  2  0  0  0  0  0  0  0  0  0
   36.9310   26.8710   41.7020 C   0  0  0  0  0  0  0  0  0  0  0  0
   38.4320   27.4500   40.2940 H   0  0  0  0  0  0  0  0  0  0  0  0
   40.1580   26.3340   42.1340 H   0  0  0  0  0  0  0  0  0  0  0  0
   39.8690   28.0920   41.8710 H   0  0  0  0  0  0  0  0  0  0  0  0
   39.7180   27.6180   44.1780 H   0  0  0  0  0  0  0  0  0  0  0  0
   38.6150   26.2150   43.8850 H   0  0  0  0  0  0  0  0  0  0  0  0
   38.1520   29.2000   43.8160 H   0  0  0  0  0  0  0  0  0  0  0  0
   37.2260   27.9580   44.6770 H   0  0  0  0  0  0  0  0  0  0  0  0
   35.7170   28.0200   43.0030 H   0  0  0  0  0  0  0  0  0  0  0  0
   36.5070   26.0600   42.2610 H   0  0  0  0  0  0  0  0  0  0  0  0
   36.2730   27.0110   40.8010 H   0  0  0  0  0  0  0  0  0  0  0  0
   38.5060   25.4020   40.6050 C   0  0  0  0  0  0  0  0  0  0  0  0
   37.6560   24.4380   41.1400 C   0  0  0  0  0  0  0  0  0  0  0  0
   37.7100   23.1250   40.6720 C   0  0  0  0  0  0  0  0  0  0  0  0
   38.6410   22.8710   39.6780 N   0  0  0  0  0  0  0  0  0  0  0  0
   39.4470   23.8310   39.1890 C   0  0  0  0  0  0  0  0  0  0  0  0
   39.3700   25.0800   39.6550 N   0  0  0  0  0  0  0  0  0  0  0  0
   36.8890   24.3920   41.8990 H   0  0  0  0  0  0  0  0  0  0  0  0
   37.1750   22.2450   40.9200 H   0  0  0  0  0  0  0  0  0  0  0  0
   40.1610   23.5910   38.4130 H   0  0  0  0  0  0  0  0  0  0  0  0
   36.8560   29.3770   41.7660 C   0  0  0  0  0  0  0  0  0  0  0  0
   36.8170   30.2140   42.5050 H   0  0  0  0  0  0  0  0  0  0  0  0
   37.8700   29.4400   41.3220 H   0  0  0  0  0  0  0  0  0  0  0  0
   35.8220   29.6280   40.7290 C   0  0  0  0  0  0  0  0  0  0  0  0
   35.1100   30.3700   41.1440 H   0  0  0  0  0  0  0  0  0  0  0  0
   35.2230   28.7080   40.5760 H   0  0  0  0  0  0  0  0  0  0  0  0
   35.4900   27.6470   38.4130 Cl  0  0  0  0  0  0  0  0  0  0  0  0
   36.2500   29.2440   38.3060 C   0  0  0  0  0  0  0  0  0  0  0  0
   36.3390   30.0450   39.4240 C   0  0  0  0  0  0  0  0  0  0  0  0
   36.9530   31.2650   39.2110 C   0  0  0  0  0  0  0  0  0  0  0  0
   37.0720   31.9670   40.0270 H   0  0  0  0  0  0  0  0  0  0  0  0
   37.4430   31.6810   38.0150 C   0  0  0  0  0  0  0  0  0  0  0  0
   37.9260   32.6310   37.8310 H   0  0  0  0  0  0  0  0  0  0  0  0
   37.3330   30.8390   36.9080 C   0  0  0  0  0  3  0  0  0  0  0  0
   36.7230   29.5870   37.0450 C   0  0  0  0  0  3  0  0  0  0  0  0
  1  7  1  6  0  0  0
  1  6  1  0  0  0  0
  1  2  1  0  0  0  0
  2  3  1  0  0  0  0
  3  4  1  0  0  0  0
  3 11  1  0  0  0  0
  3 10  1  0  0  0  0
  4 12  1  0  0  0  0
  4 13  1  0  0  0  0
  5 14  1  1  0  0  0
  5  4  1  0  0  0  0
  6 15  1  0  0  0  0
  6  5  1  0  0  0  0
  8  2  1  0  0  0  0
  9  2  1  0  0  0  0
 16  6  1  0  0  0  0
 17 18  1  0  0  0  0
 17  1  1  0  0  0  0
 18 23  1  0  0  0  0
 19 24  1  0  0  0  0
 19 18  2  0  0  0  0
 20 19  1  0  0  0  0
 21 22  1  0  0  0  0
 21 20  2  0  0  0  0
 22 17  2  0  0  0  0
 25 21  1  0  0  0  0
 26 27  1  0  0  0  0
 26  5  1  0  0  0  0
 28 26  1  0  0  0  0
 29 30  1  0  0  0  0
 29 26  1  0  0  0  0
 31 29  1  0  0  0  0
 33 32  1  0  0  0  0
 33 34  1  0  0  0  0
 34 29  1  0  0  0  0
 35 34  2  0  0  0  0
 35 36  1  0  0  0  0
 37 35  1  0  0  0  0
 38 37  1  0  0  0  0
 39 40  1  0  0  0  0
 39 37  2  0  0  0  0
 40 33  2  0  0  0  0
M  END
>  <minimizedAffinity>
-5.3329258

$$$$

 OpenBabel03242519553D

 40 42  0  0  1  0  0  0  0  0999 V2000
   38.0680   29.1950   40.9530 C   0  0  2  0  0  0  0  0  0  0  0  0
   37.1020   28.0790   40.8590 C   0  0  0  0  0  0  0  0  0  0  0  0
   36.2660   27.9370   42.0890 C   0  0  0  0  0  0  0  0  0  0  0  0
   37.0810   27.7930   43.3490 C   0  0  0  0  0  0  0  0  0  0  0  0
   38.3200   28.6340   43.3730 C   0  0  2  0  0  0  0  0  0  0  0  0
   38.2720   29.7300   42.3310 C   0  0  0  0  0  0  0  0  0  0  0  0
   39.0590   28.7770   40.5870 H   0  0  0  0  0  0  0  0  0  0  0  0
   36.4020   28.2990   40.0210 H   0  0  0  0  0  0  0  0  0  0  0  0
   37.5890   27.1050   40.6610 H   0  0  0  0  0  0  0  0  0  0  0  0
   35.6260   27.0250   41.9690 H   0  0  0  0  0  0  0  0  0  0  0  0
   35.5940   28.8240   42.1490 H   0  0  0  0  0  0  0  0  0  0  0  0
   37.3040   26.6930   43.4380 H   0  0  0  0  0  0  0  0  0  0  0  0
   36.3880   27.9950   44.2160 H   0  0  0  0  0  0  0  0  0  0  0  0
   38.3090   29.1630   44.3720 H   0  0  0  0  0  0  0  0  0  0  0  0
   37.6040   30.4830   42.7050 H   0  0  0  0  0  0  0  0  0  0  0  0
   39.2990   30.1890   42.3360 H   0  0  0  0  0  0  0  0  0  0  0  0
   37.7760   30.3100   40.0380 C   0  0  0  0  0  0  0  0  0  0  0  0
   37.5720   31.5300   40.6780 C   0  0  0  0  0  0  0  0  0  0  0  0
   37.3060   32.6750   39.9280 C   0  0  0  0  0  0  0  0  0  0  0  0
   37.2600   32.5050   38.5530 N   0  0  0  0  0  0  0  0  0  0  0  0
   37.4610   31.3070   37.9730 C   0  0  0  0  0  0  0  0  0  0  0  0
   37.7150   30.2290   38.7180 N   0  0  0  0  0  0  0  0  0  0  0  0
   37.5460   31.8950   41.6940 H   0  0  0  0  0  0  0  0  0  0  0  0
   37.1240   33.6860   40.1880 H   0  0  0  0  0  0  0  0  0  0  0  0
   37.4150   31.2160   36.8960 H   0  0  0  0  0  0  0  0  0  0  0  0
   39.4910   27.7410   43.2520 C   0  0  0  0  0  0  0  0  0  0  0  0
   40.0050   28.0070   42.2960 H   0  0  0  0  0  0  0  0  0  0  0  0
   40.2240   27.9920   44.0450 H   0  0  0  0  0  0  0  0  0  0  0  0
   39.2230   26.2800   43.2410 C   0  0  0  0  0  0  0  0  0  0  0  0
   38.1720   26.1330   43.5640 H   0  0  0  0  0  0  0  0  0  0  0  0
   39.8360   25.7870   44.0230 H   0  0  0  0  0  0  0  0  0  0  0  0
   37.0490   24.4020   42.1720 Cl  0  0  0  0  0  0  0  0  0  0  0  0
   38.6000   24.7400   41.3860 C   0  0  0  0  0  0  0  0  0  0  0  0
   39.4980   25.6070   41.9700 C   0  0  0  0  0  0  0  0  0  0  0  0
   40.6700   25.7870   41.2600 C   0  0  0  0  0  0  0  0  0  0  0  0
   41.4400   26.4500   41.6350 H   0  0  0  0  0  0  0  0  0  0  0  0
   40.9550   25.1790   40.0810 C   0  0  0  0  0  0  0  0  0  0  0  0
   41.8660   25.3080   39.5120 H   0  0  0  0  0  0  0  0  0  0  0  0
   40.0190   24.3070   39.5230 C   0  0  0  0  0  3  0  0  0  0  0  0
   38.8080   24.0740   40.1840 C   0  0  0  0  0  3  0  0  0  0  0  0
  1  7  1  6  0  0  0
  1  6  1  0  0  0  0
  2  1  1  0  0  0  0
  2  3  1  0  0  0  0
  3 11  1  0  0  0  0
  3  4  1  0  0  0  0
  4  5  1  0  0  0  0
  4 12  1  0  0  0  0
  4 13  1  0  0  0  0
  5 14  1  1  0  0  0
  6 16  1  0  0  0  0
  6 15  1  0  0  0  0
  6  5  1  0  0  0  0
  8  2  1  0  0  0  0
  9  2  1  0  0  0  0
 10  3  1  0  0  0  0
 17 18  1  0  0  0  0
 17  1  1  0  0  0  0
 18 23  1  0  0  0  0
 19 24  1  0  0  0  0
 19 18  2  0  0  0  0
 20 19  1  0  0  0  0
 21 20  2  0  0  0  0
 21 22  1  0  0  0  0
 22 17  2  0  0  0  0
 25 21  1  0  0  0  0
 26  5  1  0  0  0  0
 26 28  1  0  0  0  0
 27 26  1  0  0  0  0
 29 26  1  0  0  0  0
 29 30  1  0  0  0  0
 29 31  1  0  0  0  0
 33 34  1  0  0  0  0
 33 32  1  0  0  0  0
 34 29  1  0  0  0  0
 35 36  1  0  0  0  0
 35 34  2  0  0  0  0
 37 35  1  0  0  0  0
 38 37  1  0  0  0  0
 39 37  2  0  0  0  0
 39 40  1  0  0  0  0
 40 33  2  0  0  0  0
M  END
>  <minimizedAffinity>
-5.3325758

$$$$
