
 OpenBabel03252508563D

 24 25  0  0  0  0  0  0  0  0999 V2000
   43.6770   34.1060   39.9440 C   0  0  0  0  0  0  0  0  0  0  0  0
   43.7800   34.2890   38.8480 H   0  0  0  0  0  0  0  0  0  0  0  0
   43.7340   35.0070   40.5500 H   0  0  0  0  0  0  0  0  0  0  0  0
   40.2800   33.2770   41.3250 C   0  0  0  0  0  0  0  0  0  0  0  0
   41.5320   33.8860   41.1600 C   0  0  0  0  0  0  0  0  0  0  0  0
   42.3550   33.4590   40.1180 C   0  0  0  0  0  0  0  0  0  0  0  0
   41.8920   32.4700   39.3160 N   0  0  0  0  0  0  0  0  0  0  0  0
   40.6780   31.8960   39.4950 C   0  0  0  0  0  0  0  0  0  0  0  0
   39.8820   32.2940   40.4860 N   0  0  0  0  0  0  0  0  0  0  0  0
   39.7500   33.7020   42.1690 H   0  0  0  0  0  0  0  0  0  0  0  0
   41.9060   34.6840   41.8040 H   0  0  0  0  0  0  0  0  0  0  0  0
   40.3690   31.1060   38.8140 H   0  0  0  0  0  0  0  0  0  0  0  0
   44.7570   33.1060   40.2880 C   0  0  0  0  0  0  0  0  0  0  0  0
   44.3970   32.4220   41.0820 H   0  0  0  0  0  0  0  0  0  0  0  0
   45.0910   32.5300   39.4110 H   0  0  0  0  0  0  0  0  0  0  0  0
   46.8960   33.1350   38.2260 Cl  0  0  0  0  0  0  0  0  0  0  0  0
   46.9550   33.9090   39.8100 C   0  0  0  0  0  0  0  0  0  0  0  0
   45.9330   33.8820   40.7630 C   0  0  0  0  0  0  0  0  0  0  0  0
   46.1170   34.5340   41.9640 C   0  0  0  0  0  0  0  0  0  0  0  0
   45.2660   34.4490   42.6250 H   0  0  0  0  0  0  0  0  0  0  0  0
   47.2990   35.2000   42.2060 C   0  0  0  0  0  0  0  0  0  0  0  0
   47.3840   35.6920   43.1670 H   0  0  0  0  0  0  0  0  0  0  0  0
   48.3080   35.2210   41.2530 C   0  0  0  0  0  3  0  0  0  0  0  0
   48.1400   34.5720   40.0450 C   0  0  0  0  0  3  0  0  0  0  0  0
  1  6  1  0  0  0  0
  1 13  1  0  0  0  0
  1  3  1  0  0  0  0
  2  1  1  0  0  0  0
  4 10  1  0  0  0  0
  5  4  1  0  0  0  0
  5 11  1  0  0  0  0
  6  5  2  0  0  0  0
  7  8  2  0  0  0  0
  7  6  1  0  0  0  0
  8  9  1  0  0  0  0
  9  4  2  0  0  0  0
 12  8  1  0  0  0  0
 13 18  1  0  0  0  0
 13 14  1  0  0  0  0
 15 13  1  0  0  0  0
 16 17  1  0  0  0  0
 17 24  2  0  0  0  0
 17 18  1  0  0  0  0
 18 19  2  0  0  0  0
 19 21  1  0  0  0  0
 19 20  1  0  0  0  0
 21 22  1  0  0  0  0
 23 21  2  0  0  0  0
 24 23  1  0  0  0  0
M  END
>  <minimizedAffinity>
-3.81390548

>  <minimizedRMSD>
4.90629959

$$$$
