
 OpenBabel03242521163D

 34 36  0  0  0  0  0  0  0  0999 V2000
   36.2000   30.9030   41.0200 C   0  0  0  0  0  0  0  0  0  0  0  0
   37.2410   31.5770   40.3350 C   0  0  0  0  0  0  0  0  0  0  0  0
   38.1690   30.8030   39.6610 C   0  0  0  0  0  0  0  0  0  0  0  0
   38.0310   29.4270   39.6920 N   0  0  0  0  0  0  0  0  0  0  0  0
   37.0300   28.8390   40.3520 C   0  0  0  0  0  0  0  0  0  0  0  0
   36.0990   29.5660   41.0270 N   0  0  0  0  0  0  0  0  0  0  0  0
   35.4330   31.4400   41.5720 H   0  0  0  0  0  0  0  0  0  0  0  0
   37.2770   32.6580   40.3610 H   0  0  0  0  0  0  0  0  0  0  0  0
   39.2110   31.4530   38.9750 N   0  0  0  0  0  0  0  0  0  0  0  0
   40.3300   31.7670   39.6350 C   0  0  0  0  0  0  0  0  0  0  0  0
   41.3670   32.4080   38.9610 C   0  0  0  0  0  0  0  0  0  0  0  0
   41.1890   32.6910   37.6330 C   0  0  0  0  0  0  0  0  0  0  0  0
   42.1360   33.2740   37.0210 O   0  0  0  0  0  0  0  0  0  0  0  0
   40.0710   32.3880   36.9340 N   0  0  0  0  0  0  0  0  0  0  0  0
   39.1170   31.7700   37.6560 C   0  0  0  0  0  0  0  0  0  0  0  0
   38.0330   31.4410   37.1120 O   0  0  0  0  0  0  0  0  0  0  0  0
   40.4410   31.5310   40.6820 H   0  0  0  0  0  0  0  0  0  0  0  0
   42.2740   32.6630   39.4950 H   0  0  0  0  0  0  0  0  0  0  0  0
   39.9240   32.5990   35.9230 H   0  0  0  0  0  0  0  0  0  0  0  0
   37.1190   27.3540   40.2220 C   0  0  0  0  0  0  0  0  0  0  0  0
   38.0560   27.0020   39.7870 H   0  0  0  0  0  0  0  0  0  0  0  0
   36.2710   27.0520   39.5470 H   0  0  0  0  0  0  0  0  0  0  0  0
   36.8380   26.6800   41.5540 C   0  0  0  0  0  0  0  0  0  0  0  0
   36.1840   27.3740   42.1550 H   0  0  0  0  0  0  0  0  0  0  0  0
   36.3010   25.7360   41.3550 H   0  0  0  0  0  0  0  0  0  0  0  0
   37.6240   28.4890   43.8890 Cl  0  0  0  0  0  0  0  0  0  0  0  0
   38.5120   27.0990   43.3690 C   0  0  0  0  0  0  0  0  0  0  0  0
   38.0720   26.3430   42.2990 C   0  0  0  0  0  0  0  0  0  0  0  0
   38.8400   25.2370   41.9380 C   0  0  0  0  0  0  0  0  0  0  0  0
   38.4750   24.6480   41.0840 H   0  0  0  0  0  0  0  0  0  0  0  0
   39.9920   24.8430   42.5610 C   0  0  0  0  0  0  0  0  0  0  0  0
   40.5150   23.9760   42.2100 H   0  0  0  0  0  0  0  0  0  0  0  0
   40.4330   25.5930   43.6270 C   0  0  0  0  0  3  0  0  0  0  0  0
   39.6790   26.6930   43.9940 C   0  0  0  0  0  3  0  0  0  0  0  0
  1  6  1  0  0  0  0
  1  7  1  0  0  0  0
  2  8  1  0  0  0  0
  2  1  2  0  0  0  0
  3  4  2  0  0  0  0
  3  2  1  0  0  0  0
  4  5  1  0  0  0  0
  5  6  2  0  0  0  0
  9 10  1  0  0  0  0
  9  3  1  0  0  0  0
 10 17  1  0  0  0  0
 11 18  1  0  0  0  0
 11 10  2  0  0  0  0
 12 11  1  0  0  0  0
 13 12  2  0  0  0  0
 14 12  1  0  0  0  0
 14 15  1  0  0  0  0
 15  9  1  0  0  0  0
 16 15  2  0  0  0  0
 19 14  1  0  0  0  0
 20  5  1  0  0  0  0
 20 23  1  0  0  0  0
 21 20  1  0  0  0  0
 22 20  1  0  0  0  0
 23 24  1  0  0  0  0
 23 28  1  0  0  0  0
 25 23  1  0  0  0  0
 27 26  1  0  0  0  0
 27 34  1  0  0  0  0
 28 27  2  0  0  0  0
 29 28  1  0  0  0  0
 29 31  2  0  0  0  0
 30 29  1  0  0  0  0
 31 33  1  0  0  0  0
 32 31  1  0  0  0  0
 33 34  2  0  0  0  0
M  END
>  <minimizedAffinity>
-6.33074141

$$$$

 OpenBabel03242521163D

 34 36  0  0  0  0  0  0  0  0999 V2000
   35.8620   29.9780   39.9640 C   0  0  0  0  0  0  0  0  0  0  0  0
   36.7720   31.0070   39.6150 C   0  0  0  0  0  0  0  0  0  0  0  0
   37.8380   31.2340   40.4680 C   0  0  0  0  0  0  0  0  0  0  0  0
   37.9570   30.4520   41.6030 N   0  0  0  0  0  0  0  0  0  0  0  0
   37.0710   29.4930   41.8870 C   0  0  0  0  0  0  0  0  0  0  0  0
   36.0100   29.2400   41.0740 N   0  0  0  0  0  0  0  0  0  0  0  0
   35.0000   29.7390   39.3460 H   0  0  0  0  0  0  0  0  0  0  0  0
   36.6070   31.5730   38.7090 H   0  0  0  0  0  0  0  0  0  0  0  0
   38.7530   32.2500   40.1390 N   0  0  0  0  0  0  0  0  0  0  0  0
   38.4760   33.5130   40.4820 C   0  0  0  0  0  0  0  0  0  0  0  0
   39.3790   34.5240   40.1620 C   0  0  0  0  0  0  0  0  0  0  0  0
   40.5260   34.1730   39.5020 C   0  0  0  0  0  0  0  0  0  0  0  0
   41.3480   35.0970   39.2130 O   0  0  0  0  0  0  0  0  0  0  0  0
   40.8390   32.9080   39.1400 N   0  0  0  0  0  0  0  0  0  0  0  0
   39.9160   31.9890   39.4840 C   0  0  0  0  0  0  0  0  0  0  0  0
   40.0990   30.7790   39.1990 O   0  0  0  0  0  0  0  0  0  0  0  0
   37.5630   33.7580   41.0020 H   0  0  0  0  0  0  0  0  0  0  0  0
   39.1550   35.5470   40.4400 H   0  0  0  0  0  0  0  0  0  0  0  0
   41.7080   32.6280   38.6370 H   0  0  0  0  0  0  0  0  0  0  0  0
   37.4360   28.8070   43.1630 C   0  0  0  0  0  0  0  0  0  0  0  0
   37.0240   29.2810   44.0540 H   0  0  0  0  0  0  0  0  0  0  0  0
   38.5590   28.8410   43.2210 H   0  0  0  0  0  0  0  0  0  0  0  0
   37.0770   27.3320   43.1010 C   0  0  0  0  0  0  0  0  0  0  0  0
   36.4430   27.0990   44.0030 H   0  0  0  0  0  0  0  0  0  0  0  0
   36.4970   27.1570   42.1780 H   0  0  0  0  0  0  0  0  0  0  0  0
   36.8630   24.7370   41.5000 Cl  0  0  0  0  0  0  0  0  0  0  0  0
   38.2700   25.2590   42.3590 C   0  0  0  0  0  0  0  0  0  0  0  0
   38.2670   26.4530   43.0540 C   0  0  0  0  0  0  0  0  0  0  0  0
   39.4380   26.8080   43.7220 C   0  0  0  0  0  0  0  0  0  0  0  0
   39.4170   27.7610   44.2710 H   0  0  0  0  0  0  0  0  0  0  0  0
   40.5870   26.0670   43.7400 C   0  0  0  0  0  0  0  0  0  0  0  0
   41.4400   26.4230   44.2830 H   0  0  0  0  0  0  0  0  0  0  0  0
   40.5950   24.8780   43.0490 C   0  0  0  0  0  3  0  0  0  0  0  0
   39.4370   24.5150   42.3830 C   0  0  0  0  0  3  0  0  0  0  0  0
  1  6  1  0  0  0  0
  2  1  2  0  0  0  0
  2  3  1  0  0  0  0
  3  4  2  0  0  0  0
  4  5  1  0  0  0  0
  5 20  1  0  0  0  0
  6  5  2  0  0  0  0
  7  1  1  0  0  0  0
  8  2  1  0  0  0  0
  9  3  1  0  0  0  0
  9 10  1  0  0  0  0
 10 17  1  0  0  0  0
 11 18  1  0  0  0  0
 11 10  2  0  0  0  0
 12 11  1  0  0  0  0
 13 12  2  0  0  0  0
 14 15  1  0  0  0  0
 14 12  1  0  0  0  0
 15  9  1  0  0  0  0
 16 15  2  0  0  0  0
 19 14  1  0  0  0  0
 20 22  1  0  0  0  0
 20 21  1  0  0  0  0
 23 20  1  0  0  0  0
 23 24  1  0  0  0  0
 25 23  1  0  0  0  0
 26 27  1  0  0  0  0
 27 34  2  0  0  0  0
 27 28  1  0  0  0  0
 28 23  1  0  0  0  0
 28 29  2  0  0  0  0
 29 31  1  0  0  0  0
 29 30  1  0  0  0  0
 31 32  1  0  0  0  0
 33 31  2  0  0  0  0
 34 33  1  0  0  0  0
M  END
>  <minimizedAffinity>
-6.30608797

$$$$

 OpenBabel03242521163D

 34 36  0  0  0  0  0  0  0  0999 V2000
   36.5710   31.2580   40.4560 C   0  0  0  0  0  0  0  0  0  0  0  0
   37.5230   32.0290   39.7430 C   0  0  0  0  0  0  0  0  0  0  0  0
   38.8570   31.8550   40.0650 C   0  0  0  0  0  0  0  0  0  0  0  0
   39.1870   30.9460   41.0540 N   0  0  0  0  0  0  0  0  0  0  0  0
   38.2520   30.2420   41.6970 C   0  0  0  0  0  0  0  0  0  0  0  0
   36.9300   30.3860   41.4100 N   0  0  0  0  0  0  0  0  0  0  0  0
   35.5050   31.3360   40.2610 H   0  0  0  0  0  0  0  0  0  0  0  0
   37.1800   32.7170   38.9830 H   0  0  0  0  0  0  0  0  0  0  0  0
   39.8170   32.6110   39.3670 N   0  0  0  0  0  0  0  0  0  0  0  0
   40.3580   33.6820   39.9590 C   0  0  0  0  0  0  0  0  0  0  0  0
   41.3110   34.4330   39.2760 C   0  0  0  0  0  0  0  0  0  0  0  0
   41.6560   34.0340   38.0120 C   0  0  0  0  0  0  0  0  0  0  0  0
   42.5270   34.7210   37.3930 O   0  0  0  0  0  0  0  0  0  0  0  0
   41.1310   32.9580   37.3840 N   0  0  0  0  0  0  0  0  0  0  0  0
   40.2170   32.2850   38.1100 C   0  0  0  0  0  0  0  0  0  0  0  0
   39.6610   31.2660   37.6290 O   0  0  0  0  0  0  0  0  0  0  0  0
   40.0650   33.9720   40.9560 H   0  0  0  0  0  0  0  0  0  0  0  0
   41.7490   35.3010   39.7530 H   0  0  0  0  0  0  0  0  0  0  0  0
   41.3850   32.6440   36.4220 H   0  0  0  0  0  0  0  0  0  0  0  0
   38.8800   29.3420   42.7100 C   0  0  0  0  0  0  0  0  0  0  0  0
   39.4060   29.8700   43.5070 H   0  0  0  0  0  0  0  0  0  0  0  0
   39.6200   28.7100   42.1440 H   0  0  0  0  0  0  0  0  0  0  0  0
   37.8590   28.3680   43.2700 C   0  0  0  0  0  0  0  0  0  0  0  0
   38.0240   28.3030   44.3830 H   0  0  0  0  0  0  0  0  0  0  0  0
   36.8510   28.7690   43.0630 H   0  0  0  0  0  0  0  0  0  0  0  0
   40.1000   26.5080   44.2000 Cl  0  0  0  0  0  0  0  0  0  0  0  0
   38.9190   26.1140   42.9990 C   0  0  0  0  0  0  0  0  0  0  0  0
   37.9420   27.0270   42.6480 C   0  0  0  0  0  0  0  0  0  0  0  0
   37.0250   26.6390   41.6720 C   0  0  0  0  0  0  0  0  0  0  0  0
   36.2560   27.3780   41.4050 H   0  0  0  0  0  0  0  0  0  0  0  0
   37.0180   25.4270   41.0390 C   0  0  0  0  0  0  0  0  0  0  0  0
   36.2700   25.2190   40.2990 H   0  0  0  0  0  0  0  0  0  0  0  0
   37.9880   24.5160   41.3860 C   0  0  0  0  0  3  0  0  0  0  0  0
   38.9040   24.8910   42.3530 C   0  0  0  0  0  3  0  0  0  0  0  0
  1  6  1  0  0  0  0
  2  3  1  0  0  0  0
  2  1  2  0  0  0  0
  3  4  2  0  0  0  0
  4  5  1  0  0  0  0
  5 20  1  0  0  0  0
  6  5  2  0  0  0  0
  7  1  1  0  0  0  0
  8  2  1  0  0  0  0
  9 10  1  0  0  0  0
  9  3  1  0  0  0  0
 10 17  1  0  0  0  0
 11 18  1  0  0  0  0
 11 10  2  0  0  0  0
 12 11  1  0  0  0  0
 13 12  2  0  0  0  0
 14 12  1  0  0  0  0
 14 15  1  0  0  0  0
 15  9  1  0  0  0  0
 16 15  2  0  0  0  0
 19 14  1  0  0  0  0
 20 23  1  0  0  0  0
 20 21  1  0  0  0  0
 22 20  1  0  0  0  0
 23 24  1  0  0  0  0
 25 23  1  0  0  0  0
 27 26  1  0  0  0  0
 28 27  1  0  0  0  0
 28 23  1  0  0  0  0
 29 28  2  0  0  0  0
 30 29  1  0  0  0  0
 31 33  2  0  0  0  0
 31 29  1  0  0  0  0
 32 31  1  0  0  0  0
 33 34  1  0  0  0  0
 34 27  2  0  0  0  0
M  END
>  <minimizedAffinity>
-6.21657705

$$$$

 OpenBabel03242521163D

 34 36  0  0  0  0  0  0  0  0999 V2000
   35.9700   30.1690   40.2550 C   0  0  0  0  0  0  0  0  0  0  0  0
   36.9440   30.8930   39.5240 C   0  0  0  0  0  0  0  0  0  0  0  0
   38.2160   30.9790   40.0630 C   0  0  0  0  0  0  0  0  0  0  0  0
   38.4650   30.3590   41.2740 N   0  0  0  0  0  0  0  0  0  0  0  0
   37.5110   29.6870   41.9250 C   0  0  0  0  0  0  0  0  0  0  0  0
   36.2490   29.5810   41.4280 N   0  0  0  0  0  0  0  0  0  0  0  0
   34.9490   30.0560   39.8980 H   0  0  0  0  0  0  0  0  0  0  0  0
   36.6670   31.3480   38.5830 H   0  0  0  0  0  0  0  0  0  0  0  0
   39.1970   31.6930   39.3520 N   0  0  0  0  0  0  0  0  0  0  0  0
   39.8990   31.0650   38.4030 C   0  0  0  0  0  0  0  0  0  0  0  0
   40.8700   31.7670   37.6920 C   0  0  0  0  0  0  0  0  0  0  0  0
   41.0630   33.0870   38.0030 C   0  0  0  0  0  0  0  0  0  0  0  0
   41.9480   33.7240   37.3520 O   0  0  0  0  0  0  0  0  0  0  0  0
   40.3720   33.7530   38.9550 N   0  0  0  0  0  0  0  0  0  0  0  0
   39.4530   33.0060   39.5970 C   0  0  0  0  0  0  0  0  0  0  0  0
   38.7500   33.5180   40.5030 O   0  0  0  0  0  0  0  0  0  0  0  0
   39.7250   30.0240   38.1800 H   0  0  0  0  0  0  0  0  0  0  0  0
   41.4400   31.2590   36.9230 H   0  0  0  0  0  0  0  0  0  0  0  0
   40.5100   34.7560   39.2020 H   0  0  0  0  0  0  0  0  0  0  0  0
   38.0480   29.1210   43.1990 C   0  0  0  0  0  0  0  0  0  0  0  0
   37.8290   29.7260   44.0800 H   0  0  0  0  0  0  0  0  0  0  0  0
   39.1640   29.0670   43.0660 H   0  0  0  0  0  0  0  0  0  0  0  0
   37.5900   27.6850   43.3840 C   0  0  0  0  0  0  0  0  0  0  0  0
   37.1320   27.6030   44.4100 H   0  0  0  0  0  0  0  0  0  0  0  0
   36.8300   27.4640   42.6140 H   0  0  0  0  0  0  0  0  0  0  0  0
   36.9490   25.0520   41.9680 Cl  0  0  0  0  0  0  0  0  0  0  0  0
   38.5010   25.4880   42.5950 C   0  0  0  0  0  0  0  0  0  0  0  0
   38.6900   26.7070   43.2200 C   0  0  0  0  0  0  0  0  0  0  0  0
   39.9670   26.9880   43.7000 C   0  0  0  0  0  0  0  0  0  0  0  0
   40.0990   27.9610   44.1950 H   0  0  0  0  0  0  0  0  0  0  0  0
   41.0460   26.1540   43.5990 C   0  0  0  0  0  0  0  0  0  0  0  0
   41.9930   26.4580   43.9990 H   0  0  0  0  0  0  0  0  0  0  0  0
   40.8620   24.9410   42.9770 C   0  0  0  0  0  3  0  0  0  0  0  0
   39.5970   24.6500   42.4970 C   0  0  0  0  0  3  0  0  0  0  0  0
  1  6  1  0  0  0  0
  2  3  1  0  0  0  0
  2  1  2  0  0  0  0
  3  4  2  0  0  0  0
  4  5  1  0  0  0  0
  5 20  1  0  0  0  0
  6  5  2  0  0  0  0
  7  1  1  0  0  0  0
  8  2  1  0  0  0  0
  9 15  1  0  0  0  0
  9  3  1  0  0  0  0
 10  9  1  0  0  0  0
 11 12  1  0  0  0  0
 11 10  2  0  0  0  0
 12 14  1  0  0  0  0
 13 12  2  0  0  0  0
 14 19  1  0  0  0  0
 14 15  1  0  0  0  0
 15 16  2  0  0  0  0
 17 10  1  0  0  0  0
 18 11  1  0  0  0  0
 20 23  1  0  0  0  0
 20 21  1  0  0  0  0
 22 20  1  0  0  0  0
 23 24  1  0  0  0  0
 25 23  1  0  0  0  0
 26 27  1  0  0  0  0
 27 28  1  0  0  0  0
 28 23  1  0  0  0  0
 28 29  2  0  0  0  0
 29 30  1  0  0  0  0
 31 29  1  0  0  0  0
 31 32  1  0  0  0  0
 33 31  2  0  0  0  0
 34 27  2  0  0  0  0
 34 33  1  0  0  0  0
M  END
>  <minimizedAffinity>
-6.16656351

$$$$

 OpenBabel03242521163D

 34 36  0  0  0  0  0  0  0  0999 V2000
   36.5960   29.5700   36.5650 C   0  0  0  0  0  0  0  0  0  0  0  0
   36.9520   29.3400   37.9170 C   0  0  0  0  0  0  0  0  0  0  0  0
   35.9770   28.8330   38.7590 C   0  0  0  0  0  0  0  0  0  0  0  0
   34.7200   28.5810   38.2390 N   0  0  0  0  0  0  0  0  0  0  0  0
   34.4340   28.8150   36.9550 C   0  0  0  0  0  0  0  0  0  0  0  0
   35.3660   29.3120   36.0980 N   0  0  0  0  0  0  0  0  0  0  0  0
   37.3050   29.9660   35.8430 H   0  0  0  0  0  0  0  0  0  0  0  0
   37.9590   29.5640   38.2430 H   0  0  0  0  0  0  0  0  0  0  0  0
   36.3120   28.5970   40.1040 N   0  0  0  0  0  0  0  0  0  0  0  0
   36.6970   27.3710   40.4740 C   0  0  0  0  0  0  0  0  0  0  0  0
   37.0330   27.1310   41.8050 C   0  0  0  0  0  0  0  0  0  0  0  0
   36.9520   28.1770   42.6850 C   0  0  0  0  0  0  0  0  0  0  0  0
   37.2600   27.9550   43.8970 O   0  0  0  0  0  0  0  0  0  0  0  0
   36.5660   29.4280   42.3460 N   0  0  0  0  0  0  0  0  0  0  0  0
   36.2580   29.5790   41.0430 C   0  0  0  0  0  0  0  0  0  0  0  0
   35.8870   30.6990   40.6120 O   0  0  0  0  0  0  0  0  0  0  0  0
   36.7510   26.5670   39.7570 H   0  0  0  0  0  0  0  0  0  0  0  0
   37.3450   26.1380   42.1060 H   0  0  0  0  0  0  0  0  0  0  0  0
   36.5000   30.2320   43.0070 H   0  0  0  0  0  0  0  0  0  0  0  0
   33.0140   28.4570   36.6630 C   0  0  0  0  0  0  0  0  0  0  0  0
   32.4130   28.2640   37.5530 H   0  0  0  0  0  0  0  0  0  0  0  0
   33.0540   27.5190   36.0430 H   0  0  0  0  0  0  0  0  0  0  0  0
   32.3680   29.5050   35.7740 C   0  0  0  0  0  0  0  0  0  0  0  0
   33.1900   30.1550   35.3620 H   0  0  0  0  0  0  0  0  0  0  0  0
   31.8510   28.9840   34.9480 H   0  0  0  0  0  0  0  0  0  0  0  0
   31.3900   32.0610   34.4120 Cl  0  0  0  0  0  0  0  0  0  0  0  0
   30.8560   31.4940   35.9560 C   0  0  0  0  0  0  0  0  0  0  0  0
   31.3600   30.3220   36.4870 C   0  0  0  0  0  0  0  0  0  0  0  0
   30.8830   29.9280   37.7370 C   0  0  0  0  0  0  0  0  0  0  0  0
   31.2950   28.9930   38.1440 H   0  0  0  0  0  0  0  0  0  0  0  0
   29.9550   30.6100   38.4740 C   0  0  0  0  0  0  0  0  0  0  0  0
   29.6480   30.2280   39.4270 H   0  0  0  0  0  0  0  0  0  0  0  0
   29.4510   31.7770   37.9490 C   0  0  0  0  0  3  0  0  0  0  0  0
   29.9180   32.1780   36.7090 C   0  0  0  0  0  3  0  0  0  0  0  0
  1  2  1  0  0  0  0
  2  8  1  0  0  0  0
  2  3  2  0  0  0  0
  3  9  1  0  0  0  0
  4  3  1  0  0  0  0
  5  4  2  0  0  0  0
  6  1  2  0  0  0  0
  6  5  1  0  0  0  0
  7  1  1  0  0  0  0
  9 10  1  0  0  0  0
  9 15  1  0  0  0  0
 10 11  2  0  0  0  0
 11 18  1  0  0  0  0
 11 12  1  0  0  0  0
 12 13  2  0  0  0  0
 14 12  1  0  0  0  0
 14 19  1  0  0  0  0
 15 14  1  0  0  0  0
 16 15  2  0  0  0  0
 17 10  1  0  0  0  0
 20  5  1  0  0  0  0
 20 21  1  0  0  0  0
 22 20  1  0  0  0  0
 23 28  1  0  0  0  0
 23 20  1  0  0  0  0
 24 23  1  0  0  0  0
 25 23  1  0  0  0  0
 26 27  1  0  0  0  0
 27 28  2  0  0  0  0
 27 34  1  0  0  0  0
 28 29  1  0  0  0  0
 29 30  1  0  0  0  0
 29 31  2  0  0  0  0
 31 32  1  0  0  0  0
 33 31  1  0  0  0  0
 34 33  2  0  0  0  0
M  END
>  <minimizedAffinity>
-6.05516529

$$$$

 OpenBabel03242521163D

 34 36  0  0  0  0  0  0  0  0999 V2000
   34.7840   27.5920   37.7390 C   0  0  0  0  0  0  0  0  0  0  0  0
   35.1960   28.9180   38.0220 C   0  0  0  0  0  0  0  0  0  0  0  0
   36.3440   29.0850   38.7750 C   0  0  0  0  0  0  0  0  0  0  0  0
   37.0220   27.9590   39.2070 N   0  0  0  0  0  0  0  0  0  0  0  0
   36.5930   26.7290   38.9130 C   0  0  0  0  0  0  0  0  0  0  0  0
   35.4690   26.5240   38.1750 N   0  0  0  0  0  0  0  0  0  0  0  0
   33.8940   27.3790   37.1530 H   0  0  0  0  0  0  0  0  0  0  0  0
   34.6080   29.7440   37.6450 H   0  0  0  0  0  0  0  0  0  0  0  0
   36.7690   30.3940   39.0660 N   0  0  0  0  0  0  0  0  0  0  0  0
   37.5870   31.0180   38.2120 C   0  0  0  0  0  0  0  0  0  0  0  0
   38.0090   32.3160   38.4920 C   0  0  0  0  0  0  0  0  0  0  0  0
   37.5610   32.9000   39.6460 C   0  0  0  0  0  0  0  0  0  0  0  0
   37.9460   34.0840   39.8980 O   0  0  0  0  0  0  0  0  0  0  0  0
   36.7350   32.2990   40.5320 N   0  0  0  0  0  0  0  0  0  0  0  0
   36.3720   31.0470   40.1900 C   0  0  0  0  0  0  0  0  0  0  0  0
   35.6060   30.3900   40.9380 O   0  0  0  0  0  0  0  0  0  0  0  0
   37.9240   30.5310   37.3100 H   0  0  0  0  0  0  0  0  0  0  0  0
   38.6710   32.8220   37.8000 H   0  0  0  0  0  0  0  0  0  0  0  0
   36.3870   32.7330   41.4140 H   0  0  0  0  0  0  0  0  0  0  0  0
   37.5060   25.7030   39.5000 C   0  0  0  0  0  0  0  0  0  0  0  0
   38.5580   25.9910   39.4970 H   0  0  0  0  0  0  0  0  0  0  0  0
   37.3820   24.7800   38.8680 H   0  0  0  0  0  0  0  0  0  0  0  0
   37.0430   25.3060   40.8910 C   0  0  0  0  0  0  0  0  0  0  0  0
   36.0750   25.8450   41.0950 H   0  0  0  0  0  0  0  0  0  0  0  0
   36.8740   24.2150   40.9000 H   0  0  0  0  0  0  0  0  0  0  0  0
   36.5980   27.8010   42.6000 Cl  0  0  0  0  0  0  0  0  0  0  0  0
   37.9330   26.7150   42.7620 C   0  0  0  0  0  0  0  0  0  0  0  0
   38.0450   25.6100   41.9390 C   0  0  0  0  0  0  0  0  0  0  0  0
   39.1480   24.7790   42.1280 C   0  0  0  0  0  0  0  0  0  0  0  0
   39.2210   23.9060   41.4640 H   0  0  0  0  0  0  0  0  0  0  0  0
   40.1260   24.9730   43.0650 C   0  0  0  0  0  0  0  0  0  0  0  0
   40.9390   24.2780   43.1360 H   0  0  0  0  0  0  0  0  0  0  0  0
   40.0180   26.0710   43.8860 C   0  0  0  0  0  3  0  0  0  0  0  0
   38.9270   26.9030   43.7070 C   0  0  0  0  0  3  0  0  0  0  0  0
  1  2  2  0  0  0  0
  1  6  1  0  0  0  0
  2  3  1  0  0  0  0
  3  9  1  0  0  0  0
  3  4  2  0  0  0  0
  5  4  1  0  0  0  0
  5 20  1  0  0  0  0
  6  5  2  0  0  0  0
  7  1  1  0  0  0  0
  8  2  1  0  0  0  0
  9 15  1  0  0  0  0
 10 11  2  0  0  0  0
 10  9  1  0  0  0  0
 11 12  1  0  0  0  0
 12 13  2  0  0  0  0
 12 14  1  0  0  0  0
 14 19  1  0  0  0  0
 15 14  1  0  0  0  0
 15 16  2  0  0  0  0
 17 10  1  0  0  0  0
 18 11  1  0  0  0  0
 20 23  1  0  0  0  0
 21 20  1  0  0  0  0
 22 20  1  0  0  0  0
 23 25  1  0  0  0  0
 23 24  1  0  0  0  0
 23 28  1  0  0  0  0
 26 27  1  0  0  0  0
 27 34  1  0  0  0  0
 28 29  1  0  0  0  0
 28 27  2  0  0  0  0
 29 31  2  0  0  0  0
 30 29  1  0  0  0  0
 31 32  1  0  0  0  0
 31 33  1  0  0  0  0
 34 33  2  0  0  0  0
M  END
>  <minimizedAffinity>
-6.05092907

$$$$

 OpenBabel03242521163D

 34 36  0  0  0  0  0  0  0  0999 V2000
   37.6290   31.1190   37.5240 C   0  0  0  0  0  0  0  0  0  0  0  0
   38.6850   31.9110   38.0390 C   0  0  0  0  0  0  0  0  0  0  0  0
   38.7400   32.0910   39.4100 C   0  0  0  0  0  0  0  0  0  0  0  0
   37.7720   31.4930   40.1960 N   0  0  0  0  0  0  0  0  0  0  0  0
   36.7960   30.7540   39.6620 C   0  0  0  0  0  0  0  0  0  0  0  0
   36.7070   30.5540   38.3190 N   0  0  0  0  0  0  0  0  0  0  0  0
   37.5170   30.9300   36.4600 H   0  0  0  0  0  0  0  0  0  0  0  0
   39.4020   32.3430   37.3540 H   0  0  0  0  0  0  0  0  0  0  0  0
   39.7820   32.8740   39.9400 N   0  0  0  0  0  0  0  0  0  0  0  0
   40.9940   32.3300   40.0890 C   0  0  0  0  0  0  0  0  0  0  0  0
   42.0310   33.1000   40.6100 C   0  0  0  0  0  0  0  0  0  0  0  0
   41.7570   34.3980   40.9500 C   0  0  0  0  0  0  0  0  0  0  0  0
   42.7050   35.0980   41.4230 O   0  0  0  0  0  0  0  0  0  0  0  0
   40.5440   34.9800   40.8120 N   0  0  0  0  0  0  0  0  0  0  0  0
   39.5960   34.1710   40.3020 C   0  0  0  0  0  0  0  0  0  0  0  0
   38.4290   34.6030   40.1290 O   0  0  0  0  0  0  0  0  0  0  0  0
   41.1800   31.3030   39.8130 H   0  0  0  0  0  0  0  0  0  0  0  0
   43.0140   32.6600   40.7330 H   0  0  0  0  0  0  0  0  0  0  0  0
   40.3230   35.9670   41.0670 H   0  0  0  0  0  0  0  0  0  0  0  0
   35.8930   30.2310   40.7310 C   0  0  0  0  0  0  0  0  0  0  0  0
   34.8710   30.6060   40.6700 H   0  0  0  0  0  0  0  0  0  0  0  0
   36.3440   30.5650   41.7060 H   0  0  0  0  0  0  0  0  0  0  0  0
   35.9260   28.7130   40.7680 C   0  0  0  0  0  0  0  0  0  0  0  0
   34.8930   28.3570   41.0430 H   0  0  0  0  0  0  0  0  0  0  0  0
   36.1920   28.3500   39.7590 H   0  0  0  0  0  0  0  0  0  0  0  0
   38.6090   27.8020   39.6190 Cl  0  0  0  0  0  0  0  0  0  0  0  0
   38.1770   27.7460   41.2930 C   0  0  0  0  0  0  0  0  0  0  0  0
   36.9350   28.1830   41.7130 C   0  0  0  0  0  0  0  0  0  0  0  0
   36.6580   28.1080   43.0770 C   0  0  0  0  0  0  0  0  0  0  0  0
   35.6650   28.4600   43.3930 H   0  0  0  0  0  0  0  0  0  0  0  0
   37.5190   27.6360   44.0290 C   0  0  0  0  0  0  0  0  0  0  0  0
   37.2160   27.6160   45.0570 H   0  0  0  0  0  0  0  0  0  0  0  0
   38.7560   27.1990   43.6140 C   0  0  0  0  0  3  0  0  0  0  0  0
   39.0420   27.2690   42.2620 C   0  0  0  0  0  3  0  0  0  0  0  0
  1  2  2  0  0  0  0
  1  6  1  0  0  0  0
  2  3  1  0  0  0  0
  3  9  1  0  0  0  0
  3  4  2  0  0  0  0
  5  4  1  0  0  0  0
  5 20  1  0  0  0  0
  6  5  2  0  0  0  0
  7  1  1  0  0  0  0
  8  2  1  0  0  0  0
  9 10  1  0  0  0  0
  9 15  1  0  0  0  0
 10 11  2  0  0  0  0
 11 18  1  0  0  0  0
 11 12  1  0  0  0  0
 12 13  2  0  0  0  0
 14 12  1  0  0  0  0
 14 19  1  0  0  0  0
 15 14  1  0  0  0  0
 16 15  2  0  0  0  0
 17 10  1  0  0  0  0
 20 23  1  0  0  0  0
 20 22  1  0  0  0  0
 21 20  1  0  0  0  0
 23 24  1  0  0  0  0
 23 28  1  0  0  0  0
 25 23  1  0  0  0  0
 26 27  1  0  0  0  0
 27 28  2  0  0  0  0
 27 34  1  0  0  0  0
 28 29  1  0  0  0  0
 29 30  1  0  0  0  0
 29 31  2  0  0  0  0
 31 32  1  0  0  0  0
 33 31  1  0  0  0  0
 34 33  2  0  0  0  0
M  END
>  <minimizedAffinity>
-5.93113279

$$$$

 OpenBabel03242521163D

 34 36  0  0  0  0  0  0  0  0999 V2000
   39.1960   34.7110   40.3160 C   0  0  0  0  0  0  0  0  0  0  0  0
   40.4080   34.6990   39.5820 C   0  0  0  0  0  0  0  0  0  0  0  0
   41.1820   33.5530   39.6430 C   0  0  0  0  0  0  0  0  0  0  0  0
   40.7350   32.4920   40.4100 N   0  0  0  0  0  0  0  0  0  0  0  0
   39.5830   32.5530   41.0840 C   0  0  0  0  0  0  0  0  0  0  0  0
   38.7950   33.6610   41.0480 N   0  0  0  0  0  0  0  0  0  0  0  0
   38.5330   35.5720   40.3180 H   0  0  0  0  0  0  0  0  0  0  0  0
   40.6850   35.5720   39.0060 H   0  0  0  0  0  0  0  0  0  0  0  0
   42.3890   33.5220   38.9210 N   0  0  0  0  0  0  0  0  0  0  0  0
   43.5040   33.9880   39.4940 C   0  0  0  0  0  0  0  0  0  0  0  0
   44.7020   33.9570   38.7850 C   0  0  0  0  0  0  0  0  0  0  0  0
   44.6840   33.4430   37.5160 C   0  0  0  0  0  0  0  0  0  0  0  0
   45.7790   33.4150   36.8740 O   0  0  0  0  0  0  0  0  0  0  0  0
   43.5760   32.9640   36.9060 N   0  0  0  0  0  0  0  0  0  0  0  0
   42.4590   33.0290   37.6560 C   0  0  0  0  0  0  0  0  0  0  0  0
   41.3680   32.6120   37.1930 O   0  0  0  0  0  0  0  0  0  0  0  0
   43.4870   34.3870   40.4960 H   0  0  0  0  0  0  0  0  0  0  0  0
   45.6060   34.3340   39.2490 H   0  0  0  0  0  0  0  0  0  0  0  0
   43.5490   32.5710   35.9410 H   0  0  0  0  0  0  0  0  0  0  0  0
   39.3440   31.2770   41.8240 C   0  0  0  0  0  0  0  0  0  0  0  0
   38.8020   31.4040   42.7620 H   0  0  0  0  0  0  0  0  0  0  0  0
   40.3630   30.8560   42.0490 H   0  0  0  0  0  0  0  0  0  0  0  0
   38.6710   30.2540   40.9270 C   0  0  0  0  0  0  0  0  0  0  0  0
   37.9380   30.8050   40.2720 H   0  0  0  0  0  0  0  0  0  0  0  0
   39.4480   29.7780   40.3030 H   0  0  0  0  0  0  0  0  0  0  0  0
   37.3080   28.0270   39.3360 Cl  0  0  0  0  0  0  0  0  0  0  0  0
   37.3460   28.1320   41.0620 C   0  0  0  0  0  0  0  0  0  0  0  0
   37.9910   29.1810   41.6880 C   0  0  0  0  0  0  0  0  0  0  0  0
   37.9790   29.1990   43.0820 C   0  0  0  0  0  0  0  0  0  0  0  0
   38.4960   30.0420   43.5640 H   0  0  0  0  0  0  0  0  0  0  0  0
   37.3810   28.2590   43.8750 C   0  0  0  0  0  0  0  0  0  0  0  0
   37.4250   28.3570   44.9410 H   0  0  0  0  0  0  0  0  0  0  0  0
   36.7380   27.2120   43.2550 C   0  0  0  0  0  3  0  0  0  0  0  0
   36.7430   27.1850   41.8710 C   0  0  0  0  0  3  0  0  0  0  0  0
  1  7  1  0  0  0  0
  1  6  1  0  0  0  0
  2  3  1  0  0  0  0
  2  1  2  0  0  0  0
  3  4  2  0  0  0  0
  4  5  1  0  0  0  0
  5 20  1  0  0  0  0
  6  5  2  0  0  0  0
  8  2  1  0  0  0  0
  9 10  1  0  0  0  0
  9  3  1  0  0  0  0
 10 17  1  0  0  0  0
 11 18  1  0  0  0  0
 11 10  2  0  0  0  0
 12 11  1  0  0  0  0
 13 12  2  0  0  0  0
 14 12  1  0  0  0  0
 14 15  1  0  0  0  0
 15  9  1  0  0  0  0
 16 15  2  0  0  0  0
 19 14  1  0  0  0  0
 20 22  1  0  0  0  0
 20 21  1  0  0  0  0
 23 28  1  0  0  0  0
 23 20  1  0  0  0  0
 24 23  1  0  0  0  0
 25 23  1  0  0  0  0
 26 27  1  0  0  0  0
 27 28  2  0  0  0  0
 27 34  1  0  0  0  0
 28 29  1  0  0  0  0
 29 30  1  0  0  0  0
 29 31  2  0  0  0  0
 31 32  1  0  0  0  0
 33 31  1  0  0  0  0
 34 33  2  0  0  0  0
M  END
>  <minimizedAffinity>
-5.90155649

$$$$

 OpenBabel03242521163D

 34 36  0  0  0  0  0  0  0  0999 V2000
   37.6410   27.7020   43.7140 C   0  0  0  0  0  0  0  0  0  0  0  0
   37.7610   29.0300   43.2330 C   0  0  0  0  0  0  0  0  0  0  0  0
   37.7350   29.2190   41.8630 C   0  0  0  0  0  0  0  0  0  0  0  0
   37.5940   28.1120   41.0450 N   0  0  0  0  0  0  0  0  0  0  0  0
   37.4830   26.8800   41.5480 C   0  0  0  0  0  0  0  0  0  0  0  0
   37.5050   26.6540   42.8890 N   0  0  0  0  0  0  0  0  0  0  0  0
   37.6520   27.4720   44.7770 H   0  0  0  0  0  0  0  0  0  0  0  0
   37.8680   29.8400   43.9420 H   0  0  0  0  0  0  0  0  0  0  0  0
   37.8520   30.5290   41.3660 N   0  0  0  0  0  0  0  0  0  0  0  0
   39.0490   31.1260   41.3780 C   0  0  0  0  0  0  0  0  0  0  0  0
   39.1730   32.4230   40.8850 C   0  0  0  0  0  0  0  0  0  0  0  0
   38.0470   33.0350   40.4020 C   0  0  0  0  0  0  0  0  0  0  0  0
   38.1640   34.2170   39.9510 O   0  0  0  0  0  0  0  0  0  0  0  0
   36.8230   32.4620   40.3740 N   0  0  0  0  0  0  0  0  0  0  0  0
   36.7850   31.2090   40.8680 C   0  0  0  0  0  0  0  0  0  0  0  0
   35.7000   30.5770   40.8930 O   0  0  0  0  0  0  0  0  0  0  0  0
   39.9180   30.6180   41.7660 H   0  0  0  0  0  0  0  0  0  0  0  0
   40.1420   32.9070   40.8950 H   0  0  0  0  0  0  0  0  0  0  0  0
   35.9580   32.9180   40.0090 H   0  0  0  0  0  0  0  0  0  0  0  0
   37.3440   25.8780   40.4480 C   0  0  0  0  0  0  0  0  0  0  0  0
   38.2870   25.6110   39.9700 H   0  0  0  0  0  0  0  0  0  0  0  0
   36.6710   26.3530   39.6820 H   0  0  0  0  0  0  0  0  0  0  0  0
   36.6000   24.6470   40.9350 C   0  0  0  0  0  0  0  0  0  0  0  0
   36.8360   24.5170   42.0290 H   0  0  0  0  0  0  0  0  0  0  0  0
   35.5180   24.8240   40.8040 H   0  0  0  0  0  0  0  0  0  0  0  0
   34.9180   23.9830   38.4700 Cl  0  0  0  0  0  0  0  0  0  0  0  0
   36.2490   23.0400   39.0460 C   0  0  0  0  0  0  0  0  0  0  0  0
   36.9480   23.4260   40.1740 C   0  0  0  0  0  0  0  0  0  0  0  0
   38.0080   22.6160   40.5780 C   0  0  0  0  0  0  0  0  0  0  0  0
   38.5530   22.9380   41.4770 H   0  0  0  0  0  0  0  0  0  0  0  0
   38.4080   21.4720   39.9450 C   0  0  0  0  0  0  0  0  0  0  0  0
   39.2380   20.9130   40.3310 H   0  0  0  0  0  0  0  0  0  0  0  0
   37.7150   21.0840   38.8210 C   0  0  0  0  0  3  0  0  0  0  0  0
   36.6600   21.8810   38.4110 C   0  0  0  0  0  3  0  0  0  0  0  0
  1  7  1  0  0  0  0
  2  1  1  0  0  0  0
  2  8  1  0  0  0  0
  3  2  2  0  0  0  0
  4  5  2  0  0  0  0
  4  3  1  0  0  0  0
  5  6  1  0  0  0  0
  6  1  2  0  0  0  0
  9 10  1  0  0  0  0
  9  3  1  0  0  0  0
 10 17  1  0  0  0  0
 11 18  1  0  0  0  0
 11 10  2  0  0  0  0
 12 11  1  0  0  0  0
 13 12  2  0  0  0  0
 14 12  1  0  0  0  0
 14 15  1  0  0  0  0
 15 16  2  0  0  0  0
 15  9  1  0  0  0  0
 19 14  1  0  0  0  0
 20 23  1  0  0  0  0
 20  5  1  0  0  0  0
 21 20  1  0  0  0  0
 22 20  1  0  0  0  0
 23 24  1  0  0  0  0
 25 23  1  0  0  0  0
 26 27  1  0  0  0  0
 27 28  1  0  0  0  0
 28 29  2  0  0  0  0
 28 23  1  0  0  0  0
 29 30  1  0  0  0  0
 31 32  1  0  0  0  0
 31 29  1  0  0  0  0
 33 31  2  0  0  0  0
 34 33  1  0  0  0  0
 34 27  2  0  0  0  0
M  END
>  <minimizedAffinity>
-5.89766359

$$$$
