
 OpenBabel03252509293D

 21 22  0  0  0  0  0  0  0  0999 V2000
   46.6850   34.9130   41.9760 C   0  0  0  0  0  0  0  0  0  0  0  0
   47.6910   34.4250   42.0060 H   0  0  0  0  0  0  0  0  0  0  0  0
   46.9070   35.9550   41.6610 H   0  0  0  0  0  0  0  0  0  0  0  0
   44.5130   36.0170   44.8090 C   0  0  0  0  0  0  0  0  0  0  0  0
   45.1660   36.0020   43.5600 C   0  0  0  0  0  0  0  0  0  0  0  0
   46.0140   34.9190   43.2750 C   0  0  0  0  0  0  0  0  0  0  0  0
   46.1560   33.9420   44.2230 N   0  0  0  0  0  0  0  0  0  0  0  0
   45.5090   34.0000   45.4060 C   0  0  0  0  0  0  0  0  0  0  0  0
   44.6950   35.0280   45.6920 N   0  0  0  0  0  0  0  0  0  0  0  0
   43.8770   36.9080   44.9220 H   0  0  0  0  0  0  0  0  0  0  0  0
   45.0430   36.7830   42.8240 H   0  0  0  0  0  0  0  0  0  0  0  0
   45.6010   33.2440   46.1730 H   0  0  0  0  0  0  0  0  0  0  0  0
   48.4170   33.6340   39.8690 Cl  0  0  0  0  0  0  0  0  0  0  0  0
   46.6550   33.6870   39.9190 C   0  0  0  0  0  0  0  0  0  0  0  0
   45.8590   34.2850   40.9020 C   0  0  0  0  0  0  0  0  0  0  0  0
   44.4890   34.2230   40.7650 C   0  0  0  0  0  0  0  0  0  0  0  0
   43.9770   34.7150   41.5760 H   0  0  0  0  0  0  0  0  0  0  0  0
   43.9070   33.5980   39.7030 C   0  0  0  0  0  0  0  0  0  0  0  0
   42.8080   33.6020   39.6820 H   0  0  0  0  0  0  0  0  0  0  0  0
   44.6740   32.9890   38.7010 C   0  0  0  0  0  3  0  0  0  0  0  0
   46.0450   33.0480   38.8340 C   0  0  0  0  0  3  0  0  0  0  0  0
  1  2  1  0  0  0  0
  1  6  1  0  0  0  0
  3  1  1  0  0  0  0
  4 10  1  0  0  0  0
  4  9  1  0  0  0  0
  5  4  2  0  0  0  0
  6  5  1  0  0  0  0
  6  7  2  0  0  0  0
  7  8  1  0  0  0  0
  8  9  2  0  0  0  0
  8 12  1  0  0  0  0
 11  5  1  0  0  0  0
 13 14  1  0  0  0  0
 14 15  1  0  0  0  0
 15  1  1  0  0  0  0
 16 15  2  0  0  0  0
 16 17  1  0  0  0  0
 18 16  1  0  0  0  0
 19 18  1  0  0  0  0
 20 21  1  0  0  0  0
 20 18  2  0  0  0  0
 21 14  2  0  0  0  0
M  END
>  <minimizedAffinity>
-4.27788973

>  <minimizedRMSD>
0.604564607

$$$$
