
     RDKit          3D

 23 24  0  0  0  0  0  0  0  0999 V2000
   44.5567   36.0121   44.4986 C   0  0  0  0  0  0  0  0  0  0  0  0
   45.3003   35.9250   43.3031 C   0  0  0  0  0  0  0  0  0  0  0  0
   46.2001   34.8549   43.1672 C   0  0  0  0  0  0  0  0  0  0  0  0
   46.3044   33.9609   44.1981 N   0  0  0  0  0  0  0  0  0  0  0  0
   45.5705   34.0865   45.3241 C   0  0  0  0  0  0  0  0  0  0  0  0
   44.7065   35.1030   45.4695 N   0  0  0  0  0  0  0  0  0  0  0  0
   46.9635   34.7726   41.9224 C   0  0  0  0  0  0  0  0  0  0  0  0
   43.8874   36.8848   44.4955 H   0  0  0  0  0  0  0  0  0  0  0  0
   45.2047   36.6413   42.4999 H   0  0  0  0  0  0  0  0  0  0  0  0
   45.6306   33.3974   46.1543 H   0  0  0  0  0  0  0  0  0  0  0  0
   48.0143   34.4200   42.0756 H   0  0  0  0  0  0  0  0  0  0  0  0
   47.0879   35.7883   41.4876 H   0  0  0  0  0  0  0  0  0  0  0  0
   48.5447   34.7209   39.3592 Cl  0  0  0  0  0  0  0  0  0  0  0  0
   47.0264   33.8906   39.6977 C   0  0  0  0  0  0  0  0  0  0  0  0
   46.2979   33.9223   40.8914 C   0  0  0  0  0  0  0  0  0  0  0  0
   45.1240   33.2043   40.9632 C   0  0  0  0  0  0  0  0  0  0  0  0
   44.6473   33.3000   41.9261 H   0  0  0  0  0  0  0  0  0  0  0  0
   44.6693   32.4753   39.9050 C   0  0  0  0  0  0  0  0  0  0  0  0
   43.7234   31.9374   40.0605 H   0  0  0  0  0  0  0  0  0  0  0  0
   45.3730   32.4217   38.6952 C   0  0  0  0  0  0  0  0  0  0  0  0
   46.5483   33.1383   38.6187 C   0  0  0  0  0  0  0  0  0  0  0  0
   44.9492   31.8206   37.8979 H   0  0  0  0  0  0  0  0  0  0  0  0
   47.0666   33.0719   37.6622 H   0  0  0  0  0  0  0  0  0  0  0  0
  1  6  2  0
  2  1  1  0
  3  2  2  0
  3  4  1  0
  4  5  2  0
  5  6  1  0
  7  3  1  0
  1  8  1  0
  2  9  1  0
  5 10  1  0
  7 11  1  0
  7 12  1  0
 13 14  1  0
 14 15  2  0
 15 16  1  0
 16 17  1  0
 16 18  2  0
 18 19  1  0
 18 20  1  0
 20 21  2  0
 21 14  1  0
 20 22  1  0
 21 23  1  0
  7 15  1  0
M  ISO  7   8  14   9  14  10  14  11   8  12   8  17  15  19  16
M  END
>  <DihAtoms>  (1) 
2,6,14,13

>  <DihDeg>  (1) 
-76.74659286798168

$$$$
