
 OpenBabel03242516283D

 46 50  0  0  0  0  0  0  0  0999 V2000
   49.8270   30.2130   49.5580 C   0  0  0  0  0  0  0  0  0  0  0  0
   50.0540   31.4370   50.1380 N   0  0  0  0  0  0  0  0  0  0  0  0
   50.7400   31.6020   51.2660 C   0  0  0  0  0  0  0  0  0  0  0  0
   51.2300   30.5010   51.8570 N   0  0  0  0  0  0  0  0  0  0  0  0
   51.0520   29.2780   51.3560 C   0  0  0  0  0  0  0  0  0  0  0  0
   51.5680   28.1420   51.9580 C   0  0  0  0  0  0  0  0  0  0  0  0
   51.3820   26.9040   51.4200 C   0  0  0  0  0  0  0  0  0  0  0  0
   50.6760   26.7510   50.2650 C   0  0  0  0  0  0  0  0  0  0  0  0
   50.1320   27.8680   49.6190 C   0  0  0  0  0  0  0  0  0  0  0  0
   50.3300   29.1110   50.1720 C   0  0  0  0  0  0  0  0  0  0  0  0
   50.9070   32.5580   51.7040 H   0  0  0  0  0  0  0  0  0  0  0  0
   52.1140   28.3370   52.8700 H   0  0  0  0  0  0  0  0  0  0  0  0
   51.8340   26.1220   51.9870 H   0  0  0  0  0  0  0  0  0  0  0  0
   50.6130   25.7190   49.9700 H   0  0  0  0  0  0  0  0  0  0  0  0
   49.3570   27.5870   48.3930 C   0  0  0  0  0  0  0  0  0  0  0  0
   49.9920   27.3790   47.5060 H   0  0  0  0  0  0  0  0  0  0  0  0
   48.4570   28.1770   48.2470 H   0  0  0  0  0  0  0  0  0  0  0  0
   46.5440   27.5360   47.5340 Cl  0  0  0  0  0  0  0  0  0  0  0  0
   47.3620   26.0830   48.1330 C   0  0  0  0  0  0  0  0  0  0  0  0
   48.6780   26.2290   48.5120 C   0  0  0  0  0  0  0  0  0  0  0  0
   49.2880   25.0550   48.9820 C   0  0  0  0  0  0  0  0  0  0  0  0
   50.3260   25.1800   49.2770 H   0  0  0  0  0  0  0  0  0  0  0  0
   48.5550   23.8900   49.0260 C   0  0  0  0  0  0  0  0  0  0  0  0
   49.1270   23.0270   49.4090 H   0  0  0  0  0  0  0  0  0  0  0  0
   47.2390   23.8170   48.6290 C   0  0  0  0  0  0  0  0  0  0  0  0
   46.5870   24.9470   48.1570 C   0  0  0  0  0  0  0  0  0  0  0  0
   48.9670   30.0710   48.0750 S   0  0  0  0  0  0  0  0  0  0  0  0
   46.1360   32.6480   46.9280 C   0  0  0  0  0  0  0  0  0  0  0  0
   47.2700   31.8680   46.9820 C   0  0  0  0  0  0  0  0  0  0  0  0
   47.4940   31.0210   48.0380 C   0  0  0  0  0  0  0  0  0  0  0  0
   46.5830   30.9340   49.0710 C   0  0  0  0  0  0  0  0  0  0  0  0
   45.4470   31.6880   49.0580 C   0  0  0  0  0  0  0  0  0  0  0  0
   45.2420   32.5340   47.9850 C   0  0  0  0  0  0  0  0  0  0  0  0
   47.9850   31.9390   46.1690 H   0  0  0  0  0  0  0  0  0  0  0  0
   46.8040   30.2520   49.8820 H   0  0  0  0  0  0  0  0  0  0  0  0
   44.7260   31.6340   49.8550 H   0  0  0  0  0  0  0  0  0  0  0  0
   44.3500   33.1590   47.9260 H   0  0  0  0  0  0  0  0  0  0  0  0
   44.6900   35.3570   44.9450 C   0  0  0  0  0  0  0  0  0  0  0  0
   45.4140   35.2910   43.7280 C   0  0  0  0  0  0  0  0  0  0  0  0
   46.3930   34.3190   43.5950 C   0  0  0  0  0  0  0  0  0  0  0  0
   46.6480   33.4460   44.6260 N   0  0  0  0  0  0  0  0  0  0  0  0
   45.9140   33.5510   45.7930 C   0  0  0  0  0  0  0  0  0  0  0  0
   44.9450   34.4980   45.9450 N   0  0  0  0  0  0  0  0  0  0  0  0
   43.9350   36.1300   45.0070 H   0  0  0  0  0  0  0  0  0  0  0  0
   45.2310   35.9710   42.8980 H   0  0  0  0  0  0  0  0  0  0  0  0
   46.9950   34.1760   42.7310 H   0  0  0  0  0  0  0  0  0  0  0  0
  1  2  2  0  0  0  0
  1 10  1  0  0  0  0
  2  3  1  0  0  0  0
  3 11  1  0  0  0  0
  3  4  2  0  0  0  0
  5  4  1  0  0  0  0
  5  6  1  0  0  0  0
  6 12  1  0  0  0  0
  7  6  2  0  0  0  0
  7 13  1  0  0  0  0
  8  7  1  0  0  0  0
  9 10  1  0  0  0  0
  9  8  2  0  0  0  0
 10  5  2  0  0  0  0
 14  8  1  0  0  0  0
 15 20  1  0  0  0  0
 15  9  1  0  0  0  0
 16 15  1  0  0  0  0
 17 15  1  0  0  0  0
 18 19  1  0  0  0  0
 19 26  2  0  0  0  0
 19 20  1  0  0  0  0
 20 21  2  0  0  0  0
 21 23  1  0  0  0  0
 21 22  1  0  0  0  0
 23 24  1  0  0  0  0
 25 23  2  0  0  0  0
 26 25  1  0  0  0  0
 27  1  1  0  0  0  0
 28 29  2  0  0  0  0
 28 33  1  0  0  0  0
 29 30  1  0  0  0  0
 30 27  1  0  0  0  0
 30 31  2  0  0  0  0
 31 35  1  0  0  0  0
 32 31  1  0  0  0  0
 32 36  1  0  0  0  0
 33 32  2  0  0  0  0
 34 29  1  0  0  0  0
 37 33  1  0  0  0  0
 38 44  1  0  0  0  0
 38 43  1  0  0  0  0
 39 38  2  0  0  0  0
 40 39  1  0  0  0  0
 40 41  2  0  0  0  0
 41 42  1  0  0  0  0
 42 43  2  0  0  0  0
 42 28  1  0  0  0  0
 45 39  1  0  0  0  0
 46 40  1  0  0  0  0
M  END
>  <minimizedAffinity>
-6.82356834

>  <minimizedRMSD>
0.848012507

$$$$
