
 OpenBabel03252508463D

 45 47  0  0  0  0  0  0  0  0999 V2000
   42.6890   31.4270   42.5990 N   0  0  0  0  0  0  0  0  0  0  0  0
   42.9810   31.6580   43.5760 H   0  0  0  0  0  0  0  0  0  0  0  0
   42.9940   32.4610   41.6660 C   0  0  0  0  0  0  0  0  0  0  0  0
   42.0300   32.9260   41.3020 H   0  0  0  0  0  0  0  0  0  0  0  0
   43.4620   32.0740   40.7190 H   0  0  0  0  0  0  0  0  0  0  0  0
   43.6130   34.8780   41.8640 C   0  0  0  0  0  0  0  0  0  0  0  0
   43.8630   33.5530   42.1880 C   0  0  0  0  0  0  0  0  0  0  0  0
   44.9330   33.2720   43.0030 C   0  0  0  0  0  0  0  0  0  0  0  0
   45.7220   34.2780   43.4760 C   0  0  0  0  0  0  0  0  0  0  0  0
   45.4950   35.6020   43.1680 C   0  0  0  0  0  0  0  0  0  0  0  0
   44.4080   35.8460   42.3450 C   0  0  0  0  0  0  0  0  0  0  0  0
   45.0960   32.2200   43.2330 H   0  0  0  0  0  0  0  0  0  0  0  0
   46.5530   33.9790   44.1170 H   0  0  0  0  0  0  0  0  0  0  0  0
   46.1400   36.3780   43.5580 H   0  0  0  0  0  0  0  0  0  0  0  0
   44.2040   36.8810   42.0840 H   0  0  0  0  0  0  0  0  0  0  0  0
   40.1560   35.6810   40.5410 C   0  0  0  0  0  0  0  0  0  0  0  0
   41.1950   35.4750   41.4700 C   0  0  0  0  0  0  0  0  0  0  0  0
   42.4580   35.1190   40.9950 C   0  0  0  0  0  0  0  0  0  0  0  0
   42.6070   34.9900   39.6530 N   0  0  0  0  0  0  0  0  0  0  0  0
   41.5860   35.1940   38.7760 C   0  0  0  0  0  0  0  0  0  0  0  0
   40.3770   35.5370   39.2390 N   0  0  0  0  0  0  0  0  0  0  0  0
   39.2070   35.9530   40.9550 H   0  0  0  0  0  0  0  0  0  0  0  0
   41.0740   35.5800   42.5510 H   0  0  0  0  0  0  0  0  0  0  0  0
   41.8580   35.0540   37.7380 H   0  0  0  0  0  0  0  0  0  0  0  0
   41.0090   31.0430   42.6400 S   0  0  0  0  0  0  0  0  0  0  0  0
   40.1620   32.2800   42.4930 O   0  0  0  0  0  0  0  0  0  0  0  0
   39.4070   32.3970   41.8580 H   0  0  0  0  0  0  0  0  0  0  0  0
   40.6490   30.3140   43.8790 O   0  0  0  0  0  0  0  0  0  0  0  0
   39.9040   30.5560   44.4510 H   0  0  0  0  0  0  0  0  0  0  0  0
   40.7080   30.0480   41.3120 O   0  0  0  0  0  0  0  0  0  0  0  0
   40.0870   28.8990   41.7940 C   0  0  0  0  0  0  0  0  0  0  0  0
   40.4000   28.5780   42.7840 H   0  0  0  0  0  0  0  0  0  0  0  0
   38.9910   29.1270   41.8600 H   0  0  0  0  0  0  0  0  0  0  0  0
   40.2130   27.7900   40.7620 C   0  0  0  0  0  0  0  0  0  0  0  0
   41.3110   27.5960   40.6450 H   0  0  0  0  0  0  0  0  0  0  0  0
   39.7440   28.0660   39.8050 H   0  0  0  0  0  0  0  0  0  0  0  0
   37.2980   27.2910   39.8510 Cl  0  0  0  0  0  0  0  0  0  0  0  0
   38.2210   26.2900   40.9460 C   0  0  0  0  0  0  0  0  0  0  0  0
   39.5300   26.5950   41.3050 C   0  0  0  0  0  0  0  0  0  0  0  0
   40.1460   25.7290   42.1860 C   0  0  0  0  0  0  0  0  0  0  0  0
   41.1800   25.9080   42.5120 H   0  0  0  0  0  0  0  0  0  0  0  0
   39.4880   24.6210   42.6770 C   0  0  0  0  0  0  0  0  0  0  0  0
   39.9350   23.9010   43.3800 H   0  0  0  0  0  0  0  0  0  0  0  0
   38.1910   24.3120   42.3250 C   0  0  0  0  0  3  0  0  0  0  0  0
   37.5670   25.1590   41.4550 C   0  0  0  0  0  3  0  0  0  0  0  0
  1 25  1  0  0  0  0
  1  2  1  0  0  0  0
  3  7  1  0  0  0  0
  3  1  1  0  0  0  0
  4  3  1  0  0  0  0
  5  3  1  0  0  0  0
  6  7  2  0  0  0  0
  6 11  1  0  0  0  0
  7  8  1  0  0  0  0
  8 12  1  0  0  0  0
  8  9  2  0  0  0  0
  9 13  1  0  0  0  0
 10  9  1  0  0  0  0
 10 14  1  0  0  0  0
 11 10  2  0  0  0  0
 15 11  1  0  0  0  0
 16 22  1  0  0  0  0
 16 17  1  0  0  0  0
 17 23  1  0  0  0  0
 18 17  2  0  0  0  0
 18  6  1  0  0  0  0
 19 18  1  0  0  0  0
 20 21  1  0  0  0  0
 20 19  2  0  0  0  0
 21 16  2  0  0  0  0
 24 20  1  0  0  0  0
 25 28  1  0  0  0  0
 26 25  1  0  0  0  0
 27 26  1  0  0  0  0
 28 29  1  0  0  0  0
 30 31  1  0  0  0  0
 30 25  1  0  0  0  0
 31 33  1  0  0  0  0
 31 32  1  0  0  0  0
 34 39  1  0  0  0  0
 34 31  1  0  0  0  0
 35 34  1  0  0  0  0
 36 34  1  0  0  0  0
 37 38  1  0  0  0  0
 38 39  2  0  0  0  0
 38 45  1  0  0  0  0
 39 40  1  0  0  0  0
 40 41  1  0  0  0  0
 40 42  2  0  0  0  0
 42 43  1  0  0  0  0
 44 42  1  0  0  0  0
 45 44  2  0  0  0  0
M  END
>  <minimizedAffinity>
-5.12397432

>  <minimizedRMSD>
0.586189687

$$$$
