
 OpenBabel03252503203D

 39 42  0  0  0  0  0  0  0  0999 V2000
   38.0420   31.1270   41.0940 C   0  0  0  0  0  0  0  0  0  0  0  0
   38.3500   30.1590   42.0000 C   0  0  0  0  0  0  0  0  0  0  0  0
   37.2860   29.3540   42.0840 N   0  0  0  0  0  0  0  0  0  0  0  0
   36.3390   29.8190   41.2430 C   0  0  0  0  0  0  0  0  0  0  0  0
   36.8060   30.9260   40.6210 N   0  0  0  0  0  0  0  0  0  0  0  0
   35.0340   29.3390   40.9570 N   0  0  0  0  0  0  0  0  0  0  0  0
   39.2740   30.0630   42.5490 H   0  0  0  0  0  0  0  0  0  0  0  0
   34.5980   28.8230   40.1640 H   0  0  0  0  0  0  0  0  0  0  0  0
   34.3240   29.5280   41.6910 H   0  0  0  0  0  0  0  0  0  0  0  0
   37.0570   28.1800   42.9000 C   0  0  0  0  0  0  0  0  0  0  0  0
   36.0180   27.8540   42.8810 H   0  0  0  0  0  0  0  0  0  0  0  0
   37.2310   28.5320   43.9550 H   0  0  0  0  0  0  0  0  0  0  0  0
   36.9070   26.3280   40.4140 Cl  0  0  0  0  0  0  0  0  0  0  0  0
   38.1300   26.1630   41.6630 C   0  0  0  0  0  0  0  0  0  0  0  0
   38.0250   27.0920   42.6660 C   0  0  0  0  0  0  0  0  0  0  0  0
   38.9920   27.0020   43.6760 C   0  0  0  0  0  0  0  0  0  0  0  0
   39.0550   27.6620   44.5480 H   0  0  0  0  0  0  0  0  0  0  0  0
   39.9780   26.0400   43.6500 C   0  0  0  0  0  0  0  0  0  0  0  0
   40.7580   25.8980   44.3830 H   0  0  0  0  0  0  0  0  0  0  0  0
   40.0560   25.1220   42.6320 C   0  0  0  0  0  3  0  0  0  0  0  0
   39.1010   25.1870   41.6070 C   0  0  0  0  0  3  0  0  0  0  0  0
   38.9170   32.2640   40.6570 C   0  0  0  0  0  0  0  0  0  0  0  0
   38.6210   33.4830   40.7520 O   0  0  0  0  0  0  0  0  0  0  0  0
   41.3640   32.3510   40.7630 C   0  0  0  0  0  0  0  0  0  0  0  0
   40.2010   31.9900   40.0810 C   0  0  0  0  0  0  0  0  0  0  0  0
   40.4120   31.3750   38.8600 C   0  0  0  0  0  0  0  0  0  0  0  0
   41.6220   31.1390   38.3610 N   0  0  0  0  0  0  0  0  0  0  0  0
   42.7330   31.5140   39.0720 C   0  0  0  0  0  0  0  0  0  0  0  0
   42.5920   32.1100   40.2540 N   0  0  0  0  0  0  0  0  0  0  0  0
   41.2270   32.8400   41.7340 H   0  0  0  0  0  0  0  0  0  0  0  0
   43.6930   31.3160   38.6530 H   0  0  0  0  0  0  0  0  0  0  0  0
   39.2750   30.9800   38.1020 C   0  0  0  0  0  0  0  0  0  0  0  0
   38.3260   31.6240   37.3800 C   0  0  0  0  0  0  0  0  0  0  0  0
   37.3510   31.0010   36.7540 C   0  0  0  0  0  0  0  0  0  0  0  0
   37.3470   29.6500   36.8740 C   0  0  0  0  0  0  0  0  0  0  0  0
   38.7880   29.2800   37.9160 S   0  0  0  0  0  0  0  0  0  0  0  0
   38.4480   32.7270   37.3650 H   0  0  0  0  0  0  0  0  0  0  0  0
   36.5630   31.4500   36.1610 H   0  0  0  0  0  0  0  0  0  0  0  0
   36.6580   28.8860   36.4620 H   0  0  0  0  0  0  0  0  0  0  0  0
  1  2  2  0  0  0  0
  2  3  1  0  0  0  0
  2  7  1  0  0  0  0
  3 10  1  0  0  0  0
  4  3  1  0  0  0  0
  5  1  1  0  0  0  0
  5  4  2  0  0  0  0
  6  4  1  0  0  0  0
  6  9  1  0  0  0  0
  8  6  1  0  0  0  0
 10 12  1  0  0  0  0
 11 10  1  0  0  0  0
 13 14  1  0  0  0  0
 14 15  1  0  0  0  0
 15 10  1  0  0  0  0
 15 16  2  0  0  0  0
 16 17  1  0  0  0  0
 18 16  1  0  0  0  0
 18 19  1  0  0  0  0
 20 18  2  0  0  0  0
 21 14  2  0  0  0  0
 21 20  1  0  0  0  0
 22 23  2  0  0  0  0
 22  1  1  0  0  0  0
 24 30  1  0  0  0  0
 25 22  1  0  0  0  0
 25 24  2  0  0  0  0
 26 25  1  0  0  0  0
 27 26  2  0  0  0  0
 27 28  1  0  0  0  0
 28 29  2  0  0  0  0
 29 24  1  0  0  0  0
 31 28  1  0  0  0  0
 32 26  1  0  0  0  0
 33 32  2  0  0  0  0
 34 35  2  0  0  0  0
 34 33  1  0  0  0  0
 35 36  1  0  0  0  0
 36 32  1  0  0  0  0
 37 33  1  0  0  0  0
 38 34  1  0  0  0  0
 39 35  1  0  0  0  0
M  END
>  <minimizedAffinity>
-5.97247839

$$$$

 OpenBabel03252503203D

 39 42  0  0  0  0  0  0  0  0999 V2000
   36.9190   30.5640   37.9920 C   0  0  0  0  0  0  0  0  0  0  0  0
   36.5910   29.8320   39.0900 C   0  0  0  0  0  0  0  0  0  0  0  0
   36.6510   30.6580   40.1400 N   0  0  0  0  0  0  0  0  0  0  0  0
   37.0090   31.8800   39.6930 C   0  0  0  0  0  0  0  0  0  0  0  0
   37.1780   31.8270   38.3520 N   0  0  0  0  0  0  0  0  0  0  0  0
   37.2150   33.0990   40.3900 N   0  0  0  0  0  0  0  0  0  0  0  0
   36.3360   28.7830   39.1120 H   0  0  0  0  0  0  0  0  0  0  0  0
   36.6760   33.9850   40.4970 H   0  0  0  0  0  0  0  0  0  0  0  0
   38.0990   33.1540   40.9300 H   0  0  0  0  0  0  0  0  0  0  0  0
   36.4150   30.4110   41.5470 C   0  0  0  0  0  0  0  0  0  0  0  0
   35.3580   30.3120   41.7820 H   0  0  0  0  0  0  0  0  0  0  0  0
   36.7390   31.3610   42.0570 H   0  0  0  0  0  0  0  0  0  0  0  0
   39.3840   30.8570   42.3320 Cl  0  0  0  0  0  0  0  0  0  0  0  0
   38.5670   29.3130   42.5050 C   0  0  0  0  0  0  0  0  0  0  0  0
   37.2530   29.3360   42.1130 C   0  0  0  0  0  0  0  0  0  0  0  0
   36.5610   28.1250   42.2490 C   0  0  0  0  0  0  0  0  0  0  0  0
   35.5090   27.9680   41.9850 H   0  0  0  0  0  0  0  0  0  0  0  0
   37.1720   26.9950   42.7460 C   0  0  0  0  0  0  0  0  0  0  0  0
   36.7160   26.0250   42.8830 H   0  0  0  0  0  0  0  0  0  0  0  0
   38.4900   27.0030   43.1290 C   0  0  0  0  0  3  0  0  0  0  0  0
   39.2080   28.2010   43.0040 C   0  0  0  0  0  3  0  0  0  0  0  0
   36.9940   30.0800   36.5740 C   0  0  0  0  0  0  0  0  0  0  0  0
   36.9920   30.8180   35.5560 O   0  0  0  0  0  0  0  0  0  0  0  0
   38.3160   28.0280   36.3470 C   0  0  0  0  0  0  0  0  0  0  0  0
   37.0790   28.6730   36.3100 C   0  0  0  0  0  0  0  0  0  0  0  0
   36.0060   27.8540   36.0070 C   0  0  0  0  0  0  0  0  0  0  0  0
   36.1280   26.5510   35.7670 N   0  0  0  0  0  0  0  0  0  0  0  0
   37.3670   25.9660   35.8160 C   0  0  0  0  0  0  0  0  0  0  0  0
   38.4370   26.7050   36.1030 N   0  0  0  0  0  0  0  0  0  0  0  0
   39.1840   28.6530   36.5860 H   0  0  0  0  0  0  0  0  0  0  0  0
   37.4420   24.9200   35.6200 H   0  0  0  0  0  0  0  0  0  0  0  0
   34.7110   28.4380   35.9460 C   0  0  0  0  0  0  0  0  0  0  0  0
   33.9720   29.0470   34.9870 C   0  0  0  0  0  0  0  0  0  0  0  0
   32.7600   29.5120   35.1990 C   0  0  0  0  0  0  0  0  0  0  0  0
   32.2800   29.3450   36.4560 C   0  0  0  0  0  0  0  0  0  0  0  0
   33.6170   28.4970   37.3460 S   0  0  0  0  0  0  0  0  0  0  0  0
   34.4840   29.1180   34.0050 H   0  0  0  0  0  0  0  0  0  0  0  0
   32.1150   30.0060   34.4820 H   0  0  0  0  0  0  0  0  0  0  0  0
   31.3100   29.6330   36.9070 H   0  0  0  0  0  0  0  0  0  0  0  0
  1  5  1  0  0  0  0
  1  2  2  0  0  0  0
  2  7  1  0  0  0  0
  2  3  1  0  0  0  0
  3 10  1  0  0  0  0
  4  3  1  0  0  0  0
  4  6  1  0  0  0  0
  5  4  2  0  0  0  0
  6  8  1  0  0  0  0
  6  9  1  0  0  0  0
 10 11  1  0  0  0  0
 10 12  1  0  0  0  0
 10 15  1  0  0  0  0
 13 14  1  0  0  0  0
 14 21  1  0  0  0  0
 15 16  1  0  0  0  0
 15 14  2  0  0  0  0
 16 18  2  0  0  0  0
 17 16  1  0  0  0  0
 18 19  1  0  0  0  0
 18 20  1  0  0  0  0
 21 20  2  0  0  0  0
 22  1  1  0  0  0  0
 23 22  2  0  0  0  0
 24 30  1  0  0  0  0
 25 24  1  0  0  0  0
 25 22  1  0  0  0  0
 26 25  2  0  0  0  0
 27 28  2  0  0  0  0
 27 26  1  0  0  0  0
 28 29  1  0  0  0  0
 29 24  2  0  0  0  0
 31 28  1  0  0  0  0
 32 26  1  0  0  0  0
 32 36  1  0  0  0  0
 33 34  1  0  0  0  0
 33 32  2  0  0  0  0
 34 35  2  0  0  0  0
 35 39  1  0  0  0  0
 35 36  1  0  0  0  0
 37 33  1  0  0  0  0
 38 34  1  0  0  0  0
M  END
>  <minimizedAffinity>
-5.95338392

$$$$

 OpenBabel03252503203D

 39 42  0  0  0  0  0  0  0  0999 V2000
   38.7690   31.5700   40.9400 C   0  0  0  0  0  0  0  0  0  0  0  0
   38.9030   30.5560   41.8360 C   0  0  0  0  0  0  0  0  0  0  0  0
   37.6900   30.0130   41.9900 N   0  0  0  0  0  0  0  0  0  0  0  0
   36.8260   30.6820   41.2000 C   0  0  0  0  0  0  0  0  0  0  0  0
   37.4950   31.6560   40.5410 N   0  0  0  0  0  0  0  0  0  0  0  0
   35.4320   30.5100   40.9950 N   0  0  0  0  0  0  0  0  0  0  0  0
   39.8110   30.2510   42.3320 H   0  0  0  0  0  0  0  0  0  0  0  0
   34.8450   30.1090   40.2330 H   0  0  0  0  0  0  0  0  0  0  0  0
   34.8270   30.8530   41.7660 H   0  0  0  0  0  0  0  0  0  0  0  0
   37.2500   28.9190   42.8300 C   0  0  0  0  0  0  0  0  0  0  0  0
   36.1680   28.8030   42.8320 H   0  0  0  0  0  0  0  0  0  0  0  0
   37.5090   29.2450   43.8760 H   0  0  0  0  0  0  0  0  0  0  0  0
   36.7010   27.1010   40.3750 Cl  0  0  0  0  0  0  0  0  0  0  0  0
   37.8860   26.7130   41.6110 C   0  0  0  0  0  0  0  0  0  0  0  0
   37.9810   27.6570   42.6010 C   0  0  0  0  0  0  0  0  0  0  0  0
   38.9260   27.3910   43.6010 C   0  0  0  0  0  0  0  0  0  0  0  0
   39.1310   28.0370   44.4610 H   0  0  0  0  0  0  0  0  0  0  0  0
   39.7020   26.2530   43.5770 C   0  0  0  0  0  0  0  0  0  0  0  0
   40.4510   25.9700   44.3030 H   0  0  0  0  0  0  0  0  0  0  0  0
   39.5830   25.3250   42.5730 C   0  0  0  0  0  3  0  0  0  0  0  0
   38.6440   25.5640   41.5590 C   0  0  0  0  0  3  0  0  0  0  0  0
   39.8520   32.4810   40.4410 C   0  0  0  0  0  0  0  0  0  0  0  0
   40.0470   33.6590   40.8400 O   0  0  0  0  0  0  0  0  0  0  0  0
   40.4300   32.1490   38.0830 C   0  0  0  0  0  0  0  0  0  0  0  0
   40.7600   32.0180   39.4330 C   0  0  0  0  0  0  0  0  0  0  0  0
   41.9850   31.4250   39.6770 C   0  0  0  0  0  0  0  0  0  0  0  0
   42.7980   31.0070   38.7100 N   0  0  0  0  0  0  0  0  0  0  0  0
   42.4280   31.1600   37.3990 C   0  0  0  0  0  0  0  0  0  0  0  0
   41.2590   31.7240   37.1040 N   0  0  0  0  0  0  0  0  0  0  0  0
   39.4640   32.6170   37.8610 H   0  0  0  0  0  0  0  0  0  0  0  0
   43.0950   30.8180   36.6410 H   0  0  0  0  0  0  0  0  0  0  0  0
   42.3910   31.2510   41.0290 C   0  0  0  0  0  0  0  0  0  0  0  0
   42.2830   30.2630   41.9490 C   0  0  0  0  0  0  0  0  0  0  0  0
   42.7620   30.3590   43.1700 C   0  0  0  0  0  0  0  0  0  0  0  0
   43.3840   31.5280   43.4640 C   0  0  0  0  0  0  0  0  0  0  0  0
   43.2680   32.5030   41.9360 S   0  0  0  0  0  0  0  0  0  0  0  0
   41.7510   29.3620   41.5770 H   0  0  0  0  0  0  0  0  0  0  0  0
   42.7120   29.6120   43.9530 H   0  0  0  0  0  0  0  0  0  0  0  0
   43.8710   31.8770   44.3960 H   0  0  0  0  0  0  0  0  0  0  0  0
  1  2  2  0  0  0  0
  2  3  1  0  0  0  0
  2  7  1  0  0  0  0
  3 10  1  0  0  0  0
  4  3  1  0  0  0  0
  5  1  1  0  0  0  0
  5  4  2  0  0  0  0
  6  4  1  0  0  0  0
  6  9  1  0  0  0  0
  8  6  1  0  0  0  0
 10 11  1  0  0  0  0
 10 12  1  0  0  0  0
 13 14  1  0  0  0  0
 14 15  1  0  0  0  0
 15 10  1  0  0  0  0
 15 16  2  0  0  0  0
 16 17  1  0  0  0  0
 18 16  1  0  0  0  0
 18 19  1  0  0  0  0
 20 18  2  0  0  0  0
 21 14  2  0  0  0  0
 21 20  1  0  0  0  0
 22 23  2  0  0  0  0
 22  1  1  0  0  0  0
 24 25  1  0  0  0  0
 25 26  2  0  0  0  0
 25 22  1  0  0  0  0
 26 32  1  0  0  0  0
 27 26  1  0  0  0  0
 28 27  2  0  0  0  0
 29 28  1  0  0  0  0
 29 24  2  0  0  0  0
 30 24  1  0  0  0  0
 31 28  1  0  0  0  0
 32 36  1  0  0  0  0
 32 33  2  0  0  0  0
 33 34  1  0  0  0  0
 34 35  2  0  0  0  0
 34 38  1  0  0  0  0
 35 39  1  0  0  0  0
 36 35  1  0  0  0  0
 37 33  1  0  0  0  0
M  END
>  <minimizedAffinity>
-5.86396503

$$$$

 OpenBabel03252503203D

 39 42  0  0  0  0  0  0  0  0999 V2000
   36.9600   28.8460   41.5200 C   0  0  0  0  0  0  0  0  0  0  0  0
   36.6610   28.6920   40.2020 C   0  0  0  0  0  0  0  0  0  0  0  0
   36.5800   29.9190   39.6770 N   0  0  0  0  0  0  0  0  0  0  0  0
   36.8270   30.8130   40.6570 C   0  0  0  0  0  0  0  0  0  0  0  0
   37.0660   30.1480   41.8110 N   0  0  0  0  0  0  0  0  0  0  0  0
   36.8620   32.2320   40.6320 N   0  0  0  0  0  0  0  0  0  0  0  0
   36.5120   27.7590   39.6800 H   0  0  0  0  0  0  0  0  0  0  0  0
   37.6180   32.9490   40.6450 H   0  0  0  0  0  0  0  0  0  0  0  0
   35.9340   32.6950   40.5900 H   0  0  0  0  0  0  0  0  0  0  0  0
   36.2760   30.3470   38.3280 C   0  0  0  0  0  0  0  0  0  0  0  0
   36.8870   31.1890   38.0080 H   0  0  0  0  0  0  0  0  0  0  0  0
   35.2280   30.7560   38.3920 H   0  0  0  0  0  0  0  0  0  0  0  0
   33.6870   28.7250   37.7850 Cl  0  0  0  0  0  0  0  0  0  0  0  0
   35.2100   28.4030   36.9730 C   0  0  0  0  0  0  0  0  0  0  0  0
   36.2250   29.2450   37.3480 C   0  0  0  0  0  0  0  0  0  0  0  0
   37.4540   29.0300   36.7110 C   0  0  0  0  0  0  0  0  0  0  0  0
   38.3660   29.6100   36.8910 H   0  0  0  0  0  0  0  0  0  0  0  0
   37.6180   28.0360   35.7720 C   0  0  0  0  0  0  0  0  0  0  0  0
   38.5260   27.8010   35.2360 H   0  0  0  0  0  0  0  0  0  0  0  0
   36.5820   27.2070   35.4190 C   0  0  0  0  0  3  0  0  0  0  0  0
   35.3400   27.3980   36.0390 C   0  0  0  0  0  3  0  0  0  0  0  0
   37.1530   27.7570   42.5330 C   0  0  0  0  0  0  0  0  0  0  0  0
   36.2580   27.3130   43.2980 O   0  0  0  0  0  0  0  0  0  0  0  0
   39.4270   27.7610   43.4480 C   0  0  0  0  0  0  0  0  0  0  0  0
   38.4410   27.1430   42.6770 C   0  0  0  0  0  0  0  0  0  0  0  0
   38.8200   25.9440   42.1020 C   0  0  0  0  0  0  0  0  0  0  0  0
   40.0280   25.4090   42.2600 N   0  0  0  0  0  0  0  0  0  0  0  0
   40.9610   26.0570   43.0270 C   0  0  0  0  0  0  0  0  0  0  0  0
   40.6520   27.2150   43.6070 N   0  0  0  0  0  0  0  0  0  0  0  0
   39.1530   28.7130   43.9160 H   0  0  0  0  0  0  0  0  0  0  0  0
   41.9230   25.6100   43.1410 H   0  0  0  0  0  0  0  0  0  0  0  0
   37.8710   25.2540   41.2990 C   0  0  0  0  0  0  0  0  0  0  0  0
   36.8480   24.3970   41.5350 C   0  0  0  0  0  0  0  0  0  0  0  0
   36.1000   23.8870   40.5810 C   0  0  0  0  0  0  0  0  0  0  0  0
   36.4140   24.2750   39.3200 C   0  0  0  0  0  0  0  0  0  0  0  0
   37.8250   25.4010   39.5280 S   0  0  0  0  0  0  0  0  0  0  0  0
   36.7000   24.1640   42.6110 H   0  0  0  0  0  0  0  0  0  0  0  0
   35.2700   23.2010   40.6980 H   0  0  0  0  0  0  0  0  0  0  0  0
   35.9620   24.0090   38.3440 H   0  0  0  0  0  0  0  0  0  0  0  0
  1  5  1  0  0  0  0
  1 22  1  0  0  0  0
  2  1  2  0  0  0  0
  3  2  1  0  0  0  0
  3  4  1  0  0  0  0
  4  5  2  0  0  0  0
  6  8  1  0  0  0  0
  6  4  1  0  0  0  0
  7  2  1  0  0  0  0
  9  6  1  0  0  0  0
 10 12  1  0  0  0  0
 10  3  1  0  0  0  0
 11 10  1  0  0  0  0
 14 15  1  0  0  0  0
 14 13  1  0  0  0  0
 15 10  1  0  0  0  0
 16 17  1  0  0  0  0
 16 15  2  0  0  0  0
 18 16  1  0  0  0  0
 19 18  1  0  0  0  0
 20 18  2  0  0  0  0
 20 21  1  0  0  0  0
 21 14  2  0  0  0  0
 22 25  1  0  0  0  0
 22 23  2  0  0  0  0
 24 29  1  0  0  0  0
 24 30  1  0  0  0  0
 25 24  2  0  0  0  0
 26 27  2  0  0  0  0
 26 25  1  0  0  0  0
 27 28  1  0  0  0  0
 28 31  1  0  0  0  0
 28 29  2  0  0  0  0
 32 33  2  0  0  0  0
 32 26  1  0  0  0  0
 33 37  1  0  0  0  0
 34 38  1  0  0  0  0
 34 33  1  0  0  0  0
 35 36  1  0  0  0  0
 35 34  2  0  0  0  0
 36 32  1  0  0  0  0
 39 35  1  0  0  0  0
M  END
>  <minimizedAffinity>
-5.85233402

$$$$

 OpenBabel03252503203D

 39 42  0  0  0  0  0  0  0  0999 V2000
   37.5460   26.2890   41.4740 C   0  0  0  0  0  0  0  0  0  0  0  0
   36.7470   26.9640   40.6040 C   0  0  0  0  0  0  0  0  0  0  0  0
   36.3760   28.0940   41.2160 N   0  0  0  0  0  0  0  0  0  0  0  0
   36.9390   28.1120   42.4420 C   0  0  0  0  0  0  0  0  0  0  0  0
   37.6720   26.9870   42.6080 N   0  0  0  0  0  0  0  0  0  0  0  0
   36.8630   29.0740   43.4840 N   0  0  0  0  0  0  0  0  0  0  0  0
   36.4630   26.6470   39.6130 H   0  0  0  0  0  0  0  0  0  0  0  0
   37.5080   29.8000   43.8620 H   0  0  0  0  0  0  0  0  0  0  0  0
   35.9690   29.0830   44.0110 H   0  0  0  0  0  0  0  0  0  0  0  0
   35.5190   29.1700   40.7650 C   0  0  0  0  0  0  0  0  0  0  0  0
   34.9160   29.5890   41.5690 H   0  0  0  0  0  0  0  0  0  0  0  0
   34.7800   28.6720   40.0770 H   0  0  0  0  0  0  0  0  0  0  0  0
   35.9190   28.8610   37.7040 Cl  0  0  0  0  0  0  0  0  0  0  0  0
   36.5090   30.2400   38.6150 C   0  0  0  0  0  0  0  0  0  0  0  0
   36.2140   30.1870   39.9530 C   0  0  0  0  0  0  0  0  0  0  0  0
   36.6560   31.2780   40.7130 C   0  0  0  0  0  0  0  0  0  0  0  0
   36.5050   31.3960   41.7910 H   0  0  0  0  0  0  0  0  0  0  0  0
   37.3410   32.3270   40.1410 C   0  0  0  0  0  0  0  0  0  0  0  0
   37.7170   33.2030   40.6500 H   0  0  0  0  0  0  0  0  0  0  0  0
   37.6230   32.3510   38.7980 C   0  0  0  0  0  3  0  0  0  0  0  0
   37.1930   31.2730   38.0120 C   0  0  0  0  0  3  0  0  0  0  0  0
   38.2090   24.9630   41.2450 C   0  0  0  0  0  0  0  0  0  0  0  0
   38.0030   23.9230   41.9230 O   0  0  0  0  0  0  0  0  0  0  0  0
   38.7550   24.3110   38.9460 C   0  0  0  0  0  0  0  0  0  0  0  0
   39.1600   24.8210   40.1810 C   0  0  0  0  0  0  0  0  0  0  0  0
   40.5000   25.1520   40.2600 C   0  0  0  0  0  0  0  0  0  0  0  0
   41.3500   25.0030   39.2480 N   0  0  0  0  0  0  0  0  0  0  0  0
   40.9010   24.4980   38.0550 C   0  0  0  0  0  0  0  0  0  0  0  0
   39.6210   24.1610   37.9200 N   0  0  0  0  0  0  0  0  0  0  0  0
   37.6970   24.0400   38.8550 H   0  0  0  0  0  0  0  0  0  0  0  0
   41.6000   24.3870   37.2570 H   0  0  0  0  0  0  0  0  0  0  0  0
   40.9910   25.6750   41.4890 C   0  0  0  0  0  0  0  0  0  0  0  0
   41.3910   25.1470   42.6700 C   0  0  0  0  0  0  0  0  0  0  0  0
   41.8160   25.8770   43.6790 C   0  0  0  0  0  0  0  0  0  0  0  0
   41.8330   27.2160   43.4670 C   0  0  0  0  0  0  0  0  0  0  0  0
   41.2180   27.4160   41.7690 S   0  0  0  0  0  0  0  0  0  0  0  0
   41.3270   24.0390   42.7100 H   0  0  0  0  0  0  0  0  0  0  0  0
   42.1510   25.5220   44.6470 H   0  0  0  0  0  0  0  0  0  0  0  0
   42.1360   28.0520   44.1270 H   0  0  0  0  0  0  0  0  0  0  0  0
  1  5  1  0  0  0  0
  2  3  1  0  0  0  0
  2  1  2  0  0  0  0
  3  4  1  0  0  0  0
  4  5  2  0  0  0  0
  4  6  1  0  0  0  0
  6  8  1  0  0  0  0
  6  9  1  0  0  0  0
  7  2  1  0  0  0  0
 10  3  1  0  0  0  0
 10 11  1  0  0  0  0
 12 10  1  0  0  0  0
 13 14  1  0  0  0  0
 14 15  1  0  0  0  0
 15 16  2  0  0  0  0
 15 10  1  0  0  0  0
 16 17  1  0  0  0  0
 18 19  1  0  0  0  0
 18 16  1  0  0  0  0
 20 18  2  0  0  0  0
 21 14  2  0  0  0  0
 21 20  1  0  0  0  0
 22  1  1  0  0  0  0
 22 23  2  0  0  0  0
 24 25  1  0  0  0  0
 25 26  2  0  0  0  0
 25 22  1  0  0  0  0
 26 32  1  0  0  0  0
 27 26  1  0  0  0  0
 28 27  2  0  0  0  0
 29 28  1  0  0  0  0
 29 24  2  0  0  0  0
 30 24  1  0  0  0  0
 31 28  1  0  0  0  0
 32 36  1  0  0  0  0
 32 33  2  0  0  0  0
 33 37  1  0  0  0  0
 33 34  1  0  0  0  0
 34 38  1  0  0  0  0
 35 34  2  0  0  0  0
 35 39  1  0  0  0  0
 36 35  1  0  0  0  0
M  END
>  <minimizedAffinity>
-5.8050766

$$$$

 OpenBabel03252503203D

 39 42  0  0  0  0  0  0  0  0999 V2000
   38.9400   31.2650   39.9490 C   0  0  0  0  0  0  0  0  0  0  0  0
   39.3320   30.4970   41.0020 C   0  0  0  0  0  0  0  0  0  0  0  0
   38.2290   30.2020   41.6980 N   0  0  0  0  0  0  0  0  0  0  0  0
   37.1760   30.7790   41.0830 C   0  0  0  0  0  0  0  0  0  0  0  0
   37.6140   31.4440   39.9890 N   0  0  0  0  0  0  0  0  0  0  0  0
   35.7950   30.7780   41.4110 N   0  0  0  0  0  0  0  0  0  0  0  0
   40.3400   30.1890   41.2330 H   0  0  0  0  0  0  0  0  0  0  0  0
   34.9510   30.2950   41.0370 H   0  0  0  0  0  0  0  0  0  0  0  0
   35.5300   31.3910   42.2060 H   0  0  0  0  0  0  0  0  0  0  0  0
   38.0620   29.4330   42.9130 C   0  0  0  0  0  0  0  0  0  0  0  0
   37.1450   29.6840   43.4440 H   0  0  0  0  0  0  0  0  0  0  0  0
   38.8930   29.7860   43.5870 H   0  0  0  0  0  0  0  0  0  0  0  0
   40.8310   28.0870   43.2980 Cl  0  0  0  0  0  0  0  0  0  0  0  0
   39.3880   27.2000   42.8370 C   0  0  0  0  0  0  0  0  0  0  0  0
   38.2670   27.9820   42.7360 C   0  0  0  0  0  0  0  0  0  0  0  0
   37.0900   27.3090   42.3830 C   0  0  0  0  0  0  0  0  0  0  0  0
   36.1080   27.7790   42.2600 H   0  0  0  0  0  0  0  0  0  0  0  0
   37.0750   25.9500   42.1570 C   0  0  0  0  0  0  0  0  0  0  0  0
   36.2170   25.3530   41.8830 H   0  0  0  0  0  0  0  0  0  0  0  0
   38.2150   25.1930   42.2650 C   0  0  0  0  0  3  0  0  0  0  0  0
   39.4080   25.8400   42.6160 C   0  0  0  0  0  3  0  0  0  0  0  0
   39.8170   31.8450   38.8800 C   0  0  0  0  0  0  0  0  0  0  0  0
   39.5260   31.9060   37.6580 O   0  0  0  0  0  0  0  0  0  0  0  0
   41.1810   33.6180   39.8820 C   0  0  0  0  0  0  0  0  0  0  0  0
   41.0980   32.3860   39.2310 C   0  0  0  0  0  0  0  0  0  0  0  0
   42.3150   31.7800   38.9770 C   0  0  0  0  0  0  0  0  0  0  0  0
   43.4830   32.3180   39.3190 N   0  0  0  0  0  0  0  0  0  0  0  0
   43.5100   33.5310   39.9570 C   0  0  0  0  0  0  0  0  0  0  0  0
   42.3690   34.1610   40.2280 N   0  0  0  0  0  0  0  0  0  0  0  0
   40.2310   34.1200   40.0960 H   0  0  0  0  0  0  0  0  0  0  0  0
   44.4570   33.9440   40.2220 H   0  0  0  0  0  0  0  0  0  0  0  0
   42.3140   30.5230   38.3130 C   0  0  0  0  0  0  0  0  0  0  0  0
   42.1530   29.2320   38.6920 C   0  0  0  0  0  0  0  0  0  0  0  0
   42.1990   28.2220   37.8500 C   0  0  0  0  0  0  0  0  0  0  0  0
   42.4190   28.5510   36.5530 C   0  0  0  0  0  0  0  0  0  0  0  0
   42.5640   30.3620   36.5600 S   0  0  0  0  0  0  0  0  0  0  0  0
   41.9800   29.1040   39.7820 H   0  0  0  0  0  0  0  0  0  0  0  0
   42.0780   27.1710   38.0830 H   0  0  0  0  0  0  0  0  0  0  0  0
   42.5040   27.9190   35.6480 H   0  0  0  0  0  0  0  0  0  0  0  0
  1  5  1  0  0  0  0
  1  2  2  0  0  0  0
  2  7  1  0  0  0  0
  2  3  1  0  0  0  0
  3 10  1  0  0  0  0
  4  6  1  0  0  0  0
  4  3  1  0  0  0  0
  5  4  2  0  0  0  0
  6  9  1  0  0  0  0
  8  6  1  0  0  0  0
 10 11  1  0  0  0  0
 10 12  1  0  0  0  0
 14 13  1  0  0  0  0
 15 14  1  0  0  0  0
 15 10  1  0  0  0  0
 16 15  2  0  0  0  0
 17 16  1  0  0  0  0
 18 20  2  0  0  0  0
 18 16  1  0  0  0  0
 19 18  1  0  0  0  0
 20 21  1  0  0  0  0
 21 14  2  0  0  0  0
 22 25  1  0  0  0  0
 22  1  1  0  0  0  0
 23 22  2  0  0  0  0
 24 30  1  0  0  0  0
 24 29  1  0  0  0  0
 25 24  2  0  0  0  0
 26 25  1  0  0  0  0
 26 27  2  0  0  0  0
 27 28  1  0  0  0  0
 28 31  1  0  0  0  0
 28 29  2  0  0  0  0
 32 33  2  0  0  0  0
 32 26  1  0  0  0  0
 33 37  1  0  0  0  0
 34 38  1  0  0  0  0
 34 33  1  0  0  0  0
 35 36  1  0  0  0  0
 35 34  2  0  0  0  0
 36 32  1  0  0  0  0
 39 35  1  0  0  0  0
M  END
>  <minimizedAffinity>
-5.78359127

$$$$

 OpenBabel03252503203D

 39 42  0  0  0  0  0  0  0  0999 V2000
   40.0930   29.3570   39.9940 C   0  0  0  0  0  0  0  0  0  0  0  0
   39.2810   28.6430   40.8200 C   0  0  0  0  0  0  0  0  0  0  0  0
   40.0760   27.9020   41.5990 N   0  0  0  0  0  0  0  0  0  0  0  0
   41.3560   28.1560   41.2580 C   0  0  0  0  0  0  0  0  0  0  0  0
   41.3730   29.0650   40.2560 N   0  0  0  0  0  0  0  0  0  0  0  0
   42.5740   27.6360   41.7690 N   0  0  0  0  0  0  0  0  0  0  0  0
   38.2030   28.6670   40.8400 H   0  0  0  0  0  0  0  0  0  0  0  0
   43.3250   28.0010   42.3930 H   0  0  0  0  0  0  0  0  0  0  0  0
   42.7990   26.6670   41.4710 H   0  0  0  0  0  0  0  0  0  0  0  0
   39.7500   26.9500   42.6400 C   0  0  0  0  0  0  0  0  0  0  0  0
   39.4520   27.4320   43.5690 H   0  0  0  0  0  0  0  0  0  0  0  0
   40.7290   26.4450   42.8760 H   0  0  0  0  0  0  0  0  0  0  0  0
   36.6880   27.0920   43.1210 Cl  0  0  0  0  0  0  0  0  0  0  0  0
   37.4740   25.7350   42.3320 C   0  0  0  0  0  0  0  0  0  0  0  0
   38.8320   25.8800   42.2060 C   0  0  0  0  0  0  0  0  0  0  0  0
   39.4960   24.8230   41.5690 C   0  0  0  0  0  0  0  0  0  0  0  0
   40.5750   24.7760   41.3860 H   0  0  0  0  0  0  0  0  0  0  0  0
   38.8160   23.7190   41.1020 C   0  0  0  0  0  0  0  0  0  0  0  0
   39.2460   22.8630   40.6020 H   0  0  0  0  0  0  0  0  0  0  0  0
   37.4560   23.6030   41.2440 C   0  0  0  0  0  3  0  0  0  0  0  0
   36.7650   24.6440   41.8790 C   0  0  0  0  0  3  0  0  0  0  0  0
   39.6700   30.3340   38.9380 C   0  0  0  0  0  0  0  0  0  0  0  0
   39.7070   30.1200   37.6980 O   0  0  0  0  0  0  0  0  0  0  0  0
   40.0670   32.6790   39.5290 C   0  0  0  0  0  0  0  0  0  0  0  0
   39.1770   31.6240   39.3220 C   0  0  0  0  0  0  0  0  0  0  0  0
   37.8450   31.9410   39.5170 C   0  0  0  0  0  0  0  0  0  0  0  0
   37.4280   33.1530   39.8750 N   0  0  0  0  0  0  0  0  0  0  0  0
   38.3440   34.1550   40.0660 C   0  0  0  0  0  0  0  0  0  0  0  0
   39.6410   33.9090   39.8920 N   0  0  0  0  0  0  0  0  0  0  0  0
   41.1290   32.4550   39.3800 H   0  0  0  0  0  0  0  0  0  0  0  0
   37.9890   35.1190   40.3530 H   0  0  0  0  0  0  0  0  0  0  0  0
   36.8760   30.9180   39.3290 C   0  0  0  0  0  0  0  0  0  0  0  0
   36.3690   30.2540   38.2620 C   0  0  0  0  0  0  0  0  0  0  0  0
   35.4490   29.3190   38.3660 C   0  0  0  0  0  0  0  0  0  0  0  0
   35.0270   29.0490   39.6260 C   0  0  0  0  0  0  0  0  0  0  0  0
   35.9860   30.1780   40.6790 S   0  0  0  0  0  0  0  0  0  0  0  0
   36.8010   30.5720   37.2910 H   0  0  0  0  0  0  0  0  0  0  0  0
   35.0020   28.7490   37.5600 H   0  0  0  0  0  0  0  0  0  0  0  0
   34.2780   28.3260   40.0030 H   0  0  0  0  0  0  0  0  0  0  0  0
  1  5  1  0  0  0  0
  1  2  2  0  0  0  0
  2  7  1  0  0  0  0
  2  3  1  0  0  0  0
  3 10  1  0  0  0  0
  4  3  1  0  0  0  0
  4  6  1  0  0  0  0
  5  4  2  0  0  0  0
  6  8  1  0  0  0  0
  9  6  1  0  0  0  0
 10 12  1  0  0  0  0
 10 11  1  0  0  0  0
 14 13  1  0  0  0  0
 15 14  1  0  0  0  0
 15 10  1  0  0  0  0
 16 15  2  0  0  0  0
 17 16  1  0  0  0  0
 18 20  2  0  0  0  0
 18 16  1  0  0  0  0
 19 18  1  0  0  0  0
 20 21  1  0  0  0  0
 21 14  2  0  0  0  0
 22 25  1  0  0  0  0
 22  1  1  0  0  0  0
 23 22  2  0  0  0  0
 24 29  1  0  0  0  0
 25 26  1  0  0  0  0
 25 24  2  0  0  0  0
 26 27  2  0  0  0  0
 27 28  1  0  0  0  0
 28 31  1  0  0  0  0
 29 28  2  0  0  0  0
 30 24  1  0  0  0  0
 32 26  1  0  0  0  0
 32 36  1  0  0  0  0
 33 34  1  0  0  0  0
 33 32  2  0  0  0  0
 34 35  2  0  0  0  0
 35 39  1  0  0  0  0
 35 36  1  0  0  0  0
 37 33  1  0  0  0  0
 38 34  1  0  0  0  0
M  END
>  <minimizedAffinity>
-5.77991438

$$$$

 OpenBabel03252503203D

 39 42  0  0  0  0  0  0  0  0999 V2000
   39.2230   30.3150   41.2550 C   0  0  0  0  0  0  0  0  0  0  0  0
   38.8060   29.0780   41.6390 C   0  0  0  0  0  0  0  0  0  0  0  0
   37.4710   29.1210   41.7040 N   0  0  0  0  0  0  0  0  0  0  0  0
   37.0730   30.3650   41.3650 C   0  0  0  0  0  0  0  0  0  0  0  0
   38.1630   31.1150   41.0830 N   0  0  0  0  0  0  0  0  0  0  0  0
   35.7750   30.9320   41.2780 N   0  0  0  0  0  0  0  0  0  0  0  0
   39.4330   28.2260   41.8540 H   0  0  0  0  0  0  0  0  0  0  0  0
   35.1370   31.1910   40.4970 H   0  0  0  0  0  0  0  0  0  0  0  0
   35.3290   31.1530   42.1890 H   0  0  0  0  0  0  0  0  0  0  0  0
   36.5140   28.0990   42.0730 C   0  0  0  0  0  0  0  0  0  0  0  0
   35.4840   28.4340   41.9690 H   0  0  0  0  0  0  0  0  0  0  0  0
   36.6640   27.9610   43.1810 H   0  0  0  0  0  0  0  0  0  0  0  0
   36.2710   27.6160   39.0180 Cl  0  0  0  0  0  0  0  0  0  0  0  0
   36.7110   26.3560   40.1570 C   0  0  0  0  0  0  0  0  0  0  0  0
   36.7760   26.7840   41.4580 C   0  0  0  0  0  0  0  0  0  0  0  0
   37.1390   25.8090   42.3970 C   0  0  0  0  0  0  0  0  0  0  0  0
   37.2380   25.9800   43.4750 H   0  0  0  0  0  0  0  0  0  0  0  0
   37.4100   24.5110   42.0240 C   0  0  0  0  0  0  0  0  0  0  0  0
   37.6940   23.7000   42.6790 H   0  0  0  0  0  0  0  0  0  0  0  0
   37.3350   24.1120   40.7130 C   0  0  0  0  0  3  0  0  0  0  0  0
   36.9740   25.0660   39.7510 C   0  0  0  0  0  3  0  0  0  0  0  0
   40.6380   30.7650   41.0430 C   0  0  0  0  0  0  0  0  0  0  0  0
   41.6470   30.2660   41.6040 O   0  0  0  0  0  0  0  0  0  0  0  0
   41.1810   33.1190   40.6340 C   0  0  0  0  0  0  0  0  0  0  0  0
   40.9100   31.8430   40.1380 C   0  0  0  0  0  0  0  0  0  0  0  0
   40.9320   31.7390   38.7590 C   0  0  0  0  0  0  0  0  0  0  0  0
   41.1890   32.7670   37.9540 N   0  0  0  0  0  0  0  0  0  0  0  0
   41.4480   34.0010   38.4920 C   0  0  0  0  0  0  0  0  0  0  0  0
   41.4410   34.1610   39.8140 N   0  0  0  0  0  0  0  0  0  0  0  0
   41.1700   33.2300   41.7240 H   0  0  0  0  0  0  0  0  0  0  0  0
   41.6520   34.8110   37.8290 H   0  0  0  0  0  0  0  0  0  0  0  0
   40.6620   30.4710   38.1760 C   0  0  0  0  0  0  0  0  0  0  0  0
   39.5550   29.8310   37.7270 C   0  0  0  0  0  0  0  0  0  0  0  0
   39.5800   28.6200   37.2150 C   0  0  0  0  0  0  0  0  0  0  0  0
   40.8010   28.0330   37.1590 C   0  0  0  0  0  0  0  0  0  0  0  0
   41.9330   29.2670   37.8660 S   0  0  0  0  0  0  0  0  0  0  0  0
   38.6220   30.4250   37.8320 H   0  0  0  0  0  0  0  0  0  0  0  0
   38.7380   28.0520   36.8380 H   0  0  0  0  0  0  0  0  0  0  0  0
   41.1130   27.0380   36.7850 H   0  0  0  0  0  0  0  0  0  0  0  0
  1  2  2  0  0  0  0
  2  3  1  0  0  0  0
  2  7  1  0  0  0  0
  3 10  1  0  0  0  0
  4  3  1  0  0  0  0
  5  1  1  0  0  0  0
  5  4  2  0  0  0  0
  6  4  1  0  0  0  0
  6  9  1  0  0  0  0
  8  6  1  0  0  0  0
 10 12  1  0  0  0  0
 11 10  1  0  0  0  0
 13 14  1  0  0  0  0
 14 15  1  0  0  0  0
 15 10  1  0  0  0  0
 15 16  2  0  0  0  0
 16 17  1  0  0  0  0
 18 16  1  0  0  0  0
 18 19  1  0  0  0  0
 20 18  2  0  0  0  0
 21 14  2  0  0  0  0
 21 20  1  0  0  0  0
 22  1  1  0  0  0  0
 22 23  2  0  0  0  0
 24 30  1  0  0  0  0
 25 24  1  0  0  0  0
 25 22  1  0  0  0  0
 26 25  2  0  0  0  0
 27 28  2  0  0  0  0
 27 26  1  0  0  0  0
 28 29  1  0  0  0  0
 29 24  2  0  0  0  0
 31 28  1  0  0  0  0
 32 26  1  0  0  0  0
 33 37  1  0  0  0  0
 33 32  2  0  0  0  0
 34 33  1  0  0  0  0
 35 34  2  0  0  0  0
 35 36  1  0  0  0  0
 36 32  1  0  0  0  0
 38 34  1  0  0  0  0
 39 35  1  0  0  0  0
M  END
>  <minimizedAffinity>
-5.73929167

$$$$

 OpenBabel03252503203D

 39 42  0  0  0  0  0  0  0  0999 V2000
   38.1750   28.4070   40.8880 C   0  0  0  0  0  0  0  0  0  0  0  0
   38.1110   27.0510   40.8030 C   0  0  0  0  0  0  0  0  0  0  0  0
   37.3490   26.6340   41.8210 N   0  0  0  0  0  0  0  0  0  0  0  0
   36.9520   27.7180   42.5190 C   0  0  0  0  0  0  0  0  0  0  0  0
   37.4640   28.8280   41.9400 N   0  0  0  0  0  0  0  0  0  0  0  0
   36.1400   27.8280   43.6790 N   0  0  0  0  0  0  0  0  0  0  0  0
   38.5870   26.4290   40.0610 H   0  0  0  0  0  0  0  0  0  0  0  0
   35.1590   28.1240   43.8640 H   0  0  0  0  0  0  0  0  0  0  0  0
   36.6030   27.5570   44.5680 H   0  0  0  0  0  0  0  0  0  0  0  0
   36.9620   25.2980   42.2210 C   0  0  0  0  0  0  0  0  0  0  0  0
   35.9280   25.2450   42.5550 H   0  0  0  0  0  0  0  0  0  0  0  0
   37.5760   25.0910   43.1420 H   0  0  0  0  0  0  0  0  0  0  0  0
   39.7890   24.0220   42.1240 Cl  0  0  0  0  0  0  0  0  0  0  0  0
   38.4980   23.5800   41.0200 C   0  0  0  0  0  0  0  0  0  0  0  0
   37.3240   24.2530   41.2440 C   0  0  0  0  0  0  0  0  0  0  0  0
   36.2640   23.9180   40.3920 C   0  0  0  0  0  0  0  0  0  0  0  0
   35.2610   24.3570   40.4320 H   0  0  0  0  0  0  0  0  0  0  0  0
   36.4050   22.9720   39.4000 C   0  0  0  0  0  0  0  0  0  0  0  0
   35.6440   22.6550   38.7010 H   0  0  0  0  0  0  0  0  0  0  0  0
   37.5940   22.3160   39.2000 C   0  0  0  0  0  3  0  0  0  0  0  0
   38.6730   22.6310   40.0370 C   0  0  0  0  0  3  0  0  0  0  0  0
   38.9140   29.3330   39.9690 C   0  0  0  0  0  0  0  0  0  0  0  0
   39.8540   28.9960   39.2030 O   0  0  0  0  0  0  0  0  0  0  0  0
   39.2930   31.6560   40.6530 C   0  0  0  0  0  0  0  0  0  0  0  0
   38.5560   30.7210   39.9230 C   0  0  0  0  0  0  0  0  0  0  0  0
   37.5060   31.2500   39.1960 C   0  0  0  0  0  0  0  0  0  0  0  0
   37.2060   32.5460   39.1830 N   0  0  0  0  0  0  0  0  0  0  0  0
   37.9610   33.4230   39.9170 C   0  0  0  0  0  0  0  0  0  0  0  0
   38.9870   32.9720   40.6370 N   0  0  0  0  0  0  0  0  0  0  0  0
   40.1320   31.2650   41.2390 H   0  0  0  0  0  0  0  0  0  0  0  0
   37.7040   34.4580   39.8920 H   0  0  0  0  0  0  0  0  0  0  0  0
   36.7050   30.3590   38.4290 C   0  0  0  0  0  0  0  0  0  0  0  0
   35.5600   29.6650   38.6410 C   0  0  0  0  0  0  0  0  0  0  0  0
   35.0110   28.8870   37.7340 C   0  0  0  0  0  0  0  0  0  0  0  0
   35.6660   28.8160   36.5490 C   0  0  0  0  0  0  0  0  0  0  0  0
   37.1080   29.9010   36.7600 S   0  0  0  0  0  0  0  0  0  0  0  0
   35.1290   29.8130   39.6530 H   0  0  0  0  0  0  0  0  0  0  0  0
   34.1020   28.3070   37.8350 H   0  0  0  0  0  0  0  0  0  0  0  0
   35.4370   28.2510   35.6240 H   0  0  0  0  0  0  0  0  0  0  0  0
  1  5  1  0  0  0  0
  2  1  2  0  0  0  0
  2  3  1  0  0  0  0
  3 10  1  0  0  0  0
  3  4  1  0  0  0  0
  4  6  1  0  0  0  0
  5  4  2  0  0  0  0
  6  8  1  0  0  0  0
  6  9  1  0  0  0  0
  7  2  1  0  0  0  0
 10 11  1  0  0  0  0
 10 12  1  0  0  0  0
 14 15  1  0  0  0  0
 14 13  1  0  0  0  0
 15 10  1  0  0  0  0
 16 17  1  0  0  0  0
 16 15  2  0  0  0  0
 18 16  1  0  0  0  0
 19 18  1  0  0  0  0
 20 18  2  0  0  0  0
 20 21  1  0  0  0  0
 21 14  2  0  0  0  0
 22  1  1  0  0  0  0
 23 22  2  0  0  0  0
 24 30  1  0  0  0  0
 25 22  1  0  0  0  0
 25 24  2  0  0  0  0
 26 25  1  0  0  0  0
 27 26  2  0  0  0  0
 27 28  1  0  0  0  0
 28 29  2  0  0  0  0
 29 24  1  0  0  0  0
 31 28  1  0  0  0  0
 32 33  2  0  0  0  0
 32 26  1  0  0  0  0
 33 37  1  0  0  0  0
 34 38  1  0  0  0  0
 34 33  1  0  0  0  0
 35 36  1  0  0  0  0
 35 34  2  0  0  0  0
 36 32  1  0  0  0  0
 39 35  1  0  0  0  0
M  END
>  <minimizedAffinity>
-5.7136817

$$$$
