
 OpenBabel03242515143D

 27 28  0  0  0  0  0  0  0  0999 V2000
   38.7920   29.0100   42.7210 C   0  0  0  0  0  0  0  0  0  0  0  0
   39.5080   28.4790   42.0550 H   0  0  0  0  0  0  0  0  0  0  0  0
   39.2950   29.7310   43.3900 H   0  0  0  0  0  0  0  0  0  0  0  0
   35.9510   30.2530   40.6140 C   0  0  0  0  0  0  0  0  0  0  0  0
   36.4980   31.4820   40.1750 C   0  0  0  0  0  0  0  0  0  0  0  0
   37.7810   31.8050   40.6210 C   0  0  0  0  0  0  0  0  0  0  0  0
   38.4140   30.9260   41.4380 N   0  0  0  0  0  0  0  0  0  0  0  0
   37.8640   29.7650   41.8360 C   0  0  0  0  0  0  0  0  0  0  0  0
   36.6290   29.4260   41.4240 N   0  0  0  0  0  0  0  0  0  0  0  0
   34.9580   29.9680   40.2900 H   0  0  0  0  0  0  0  0  0  0  0  0
   35.8750   32.0780   39.5260 H   0  0  0  0  0  0  0  0  0  0  0  0
   38.3160   33.0730   40.1530 C   0  0  0  0  0  0  0  0  0  0  0  0
   38.9670   33.7210   41.2050 F   0  0  0  0  0  0  0  0  0  0  0  0
   37.2270   33.8700   39.8410 F   0  0  0  0  0  0  0  0  0  0  0  0
   39.2000   32.9540   39.1170 F   0  0  0  0  0  0  0  0  0  0  0  0
   38.1050   27.9670   43.5330 C   0  0  0  0  0  0  0  0  0  0  0  0
   37.0150   28.2200   43.6490 H   0  0  0  0  0  0  0  0  0  0  0  0
   38.5210   27.9600   44.5570 H   0  0  0  0  0  0  0  0  0  0  0  0
   40.7870   26.4940   43.6700 Cl  0  0  0  0  0  0  0  0  0  0  0  0
   39.3310   25.8250   42.9580 C   0  0  0  0  0  0  0  0  0  0  0  0
   38.1960   26.6100   42.9690 C   0  0  0  0  0  0  0  0  0  0  0  0
   37.0750   26.0290   42.3920 C   0  0  0  0  0  0  0  0  0  0  0  0
   36.1510   26.6200   42.3810 H   0  0  0  0  0  0  0  0  0  0  0  0
   37.0280   24.7710   41.8330 C   0  0  0  0  0  0  0  0  0  0  0  0
   36.0840   24.4190   41.4060 H   0  0  0  0  0  0  0  0  0  0  0  0
   38.1820   24.0320   41.8460 C   0  0  0  0  0  3  0  0  0  0  0  0
   39.3430   24.5510   42.4080 C   0  0  0  0  0  3  0  0  0  0  0  0
  1  3  1  0  0  0  0
  1 16  1  0  0  0  0
  2  1  1  0  0  0  0
  4  9  1  0  0  0  0
  5  4  2  0  0  0  0
  5  6  1  0  0  0  0
  6  7  2  0  0  0  0
  7  8  1  0  0  0  0
  8  1  1  0  0  0  0
  9  8  2  0  0  0  0
 10  4  1  0  0  0  0
 11  5  1  0  0  0  0
 12  6  1  0  0  0  0
 12 13  1  0  0  0  0
 14 12  1  0  0  0  0
 15 12  1  0  0  0  0
 16 17  1  0  0  0  0
 16 18  1  0  0  0  0
 20 21  1  0  0  0  0
 20 19  1  0  0  0  0
 21 16  1  0  0  0  0
 22 21  2  0  0  0  0
 23 22  1  0  0  0  0
 24 26  2  0  0  0  0
 24 22  1  0  0  0  0
 25 24  1  0  0  0  0
 26 27  1  0  0  0  0
 27 20  2  0  0  0  0
M  END
>  <minimizedAffinity>
-5.58474398

$$$$

 OpenBabel03242515143D

 27 28  0  0  0  0  0  0  0  0999 V2000
   37.5930   28.9260   43.1070 C   0  0  0  0  0  0  0  0  0  0  0  0
   38.7030   28.9790   43.0530 H   0  0  0  0  0  0  0  0  0  0  0  0
   37.1850   29.4980   43.9590 H   0  0  0  0  0  0  0  0  0  0  0  0
   35.7850   29.7720   39.9340 C   0  0  0  0  0  0  0  0  0  0  0  0
   36.4400   30.9810   39.6000 C   0  0  0  0  0  0  0  0  0  0  0  0
   37.4420   31.4250   40.4660 C   0  0  0  0  0  0  0  0  0  0  0  0
   37.7180   30.6740   41.5610 N   0  0  0  0  0  0  0  0  0  0  0  0
   37.0740   29.5290   41.8500 C   0  0  0  0  0  0  0  0  0  0  0  0
   36.1040   29.0760   41.0350 N   0  0  0  0  0  0  0  0  0  0  0  0
   35.0020   29.3970   39.2870 H   0  0  0  0  0  0  0  0  0  0  0  0
   36.1120   31.4690   38.6950 H   0  0  0  0  0  0  0  0  0  0  0  0
   38.0970   32.6680   40.0950 C   0  0  0  0  0  0  0  0  0  0  0  0
   38.7140   33.2220   41.2190 F   0  0  0  0  0  0  0  0  0  0  0  0
   37.0930   33.5560   39.7460 F   0  0  0  0  0  0  0  0  0  0  0  0
   39.0430   32.5270   39.1190 F   0  0  0  0  0  0  0  0  0  0  0  0
   37.2390   27.4860   43.2530 C   0  0  0  0  0  0  0  0  0  0  0  0
   36.4770   27.1930   42.4800 H   0  0  0  0  0  0  0  0  0  0  0  0
   36.7510   27.3210   44.2320 H   0  0  0  0  0  0  0  0  0  0  0  0
   36.8490   24.8290   41.7780 Cl  0  0  0  0  0  0  0  0  0  0  0  0
   38.3640   25.3450   42.4960 C   0  0  0  0  0  0  0  0  0  0  0  0
   38.3850   26.5700   43.1300 C   0  0  0  0  0  0  0  0  0  0  0  0
   39.6100   26.9250   43.6780 C   0  0  0  0  0  0  0  0  0  0  0  0
   39.6700   27.8930   44.1920 H   0  0  0  0  0  0  0  0  0  0  0  0
   40.7560   26.1620   43.6310 C   0  0  0  0  0  0  0  0  0  0  0  0
   41.6650   26.5480   44.1020 H   0  0  0  0  0  0  0  0  0  0  0  0
   40.6820   24.9530   42.9900 C   0  0  0  0  0  3  0  0  0  0  0  0
   39.4870   24.5330   42.4170 C   0  0  0  0  0  3  0  0  0  0  0  0
  1 16  1  0  0  0  0
  1  3  1  0  0  0  0
  2  1  1  0  0  0  0
  4  9  1  0  0  0  0
  5  4  2  0  0  0  0
  5  6  1  0  0  0  0
  6  7  2  0  0  0  0
  7  8  1  0  0  0  0
  8  1  1  0  0  0  0
  9  8  2  0  0  0  0
 10  4  1  0  0  0  0
 11  5  1  0  0  0  0
 12  6  1  0  0  0  0
 12 13  1  0  0  0  0
 14 12  1  0  0  0  0
 15 12  1  0  0  0  0
 16 18  1  0  0  0  0
 17 16  1  0  0  0  0
 19 20  1  0  0  0  0
 20 21  1  0  0  0  0
 21 16  1  0  0  0  0
 21 22  2  0  0  0  0
 22 23  1  0  0  0  0
 24 22  1  0  0  0  0
 24 25  1  0  0  0  0
 26 24  2  0  0  0  0
 27 20  2  0  0  0  0
 27 26  1  0  0  0  0
M  END
>  <minimizedAffinity>
-5.48399687

$$$$

 OpenBabel03242515143D

 27 28  0  0  0  0  0  0  0  0999 V2000
   37.4000   28.8060   43.1280 C   0  0  0  0  0  0  0  0  0  0  0  0
   38.4880   28.8480   43.3600 H   0  0  0  0  0  0  0  0  0  0  0  0
   36.7830   29.2720   43.9160 H   0  0  0  0  0  0  0  0  0  0  0  0
   37.4910   31.2360   40.2750 C   0  0  0  0  0  0  0  0  0  0  0  0
   36.5040   30.6620   39.4390 C   0  0  0  0  0  0  0  0  0  0  0  0
   35.8800   29.4990   39.8950 C   0  0  0  0  0  0  0  0  0  0  0  0
   36.2580   29.0000   41.0980 N   0  0  0  0  0  0  0  0  0  0  0  0
   37.2020   29.5710   41.8680 C   0  0  0  0  0  0  0  0  0  0  0  0
   37.8220   30.6930   41.4560 N   0  0  0  0  0  0  0  0  0  0  0  0
   37.9980   32.1380   39.9550 H   0  0  0  0  0  0  0  0  0  0  0  0
   36.3100   31.1730   38.5090 H   0  0  0  0  0  0  0  0  0  0  0  0
   34.8700   28.9340   39.0150 C   0  0  0  0  0  0  0  0  0  0  0  0
   34.8590   29.6360   37.8070 F   0  0  0  0  0  0  0  0  0  0  0  0
   33.6430   29.1910   39.6060 F   0  0  0  0  0  0  0  0  0  0  0  0
   35.0570   27.6100   38.7340 F   0  0  0  0  0  0  0  0  0  0  0  0
   37.0440   27.3640   42.9980 C   0  0  0  0  0  0  0  0  0  0  0  0
   36.4650   27.1920   42.0500 H   0  0  0  0  0  0  0  0  0  0  0  0
   36.3660   27.0750   43.8210 H   0  0  0  0  0  0  0  0  0  0  0  0
   36.7820   24.6490   41.6060 Cl  0  0  0  0  0  0  0  0  0  0  0  0
   38.2380   25.2090   42.4070 C   0  0  0  0  0  0  0  0  0  0  0  0
   38.2040   26.4580   42.9910 C   0  0  0  0  0  0  0  0  0  0  0  0
   39.3840   26.8480   43.6100 C   0  0  0  0  0  0  0  0  0  0  0  0
   39.4000   27.8350   44.0880 H   0  0  0  0  0  0  0  0  0  0  0  0
   40.5370   26.0960   43.6730 C   0  0  0  0  0  0  0  0  0  0  0  0
   41.4080   26.5110   44.1910 H   0  0  0  0  0  0  0  0  0  0  0  0
   40.5190   24.8630   43.0770 C   0  0  0  0  0  3  0  0  0  0  0  0
   39.3710   24.4080   42.4390 C   0  0  0  0  0  3  0  0  0  0  0  0
  1  2  1  0  0  0  0
  1  3  1  0  0  0  0
  4  9  1  0  0  0  0
  5  6  1  0  0  0  0
  5  4  2  0  0  0  0
  6  7  2  0  0  0  0
  7  8  1  0  0  0  0
  8  1  1  0  0  0  0
  9  8  2  0  0  0  0
 10  4  1  0  0  0  0
 11  5  1  0  0  0  0
 12 14  1  0  0  0  0
 12  6  1  0  0  0  0
 13 12  1  0  0  0  0
 15 12  1  0  0  0  0
 16  1  1  0  0  0  0
 16 18  1  0  0  0  0
 17 16  1  0  0  0  0
 19 20  1  0  0  0  0
 20 27  2  0  0  0  0
 20 21  1  0  0  0  0
 21 16  1  0  0  0  0
 21 22  2  0  0  0  0
 22 24  1  0  0  0  0
 22 23  1  0  0  0  0
 24 25  1  0  0  0  0
 26 24  2  0  0  0  0
 27 26  1  0  0  0  0
M  END
>  <minimizedAffinity>
-5.43042707

$$$$

 OpenBabel03242515143D

 27 28  0  0  0  0  0  0  0  0999 V2000
   40.0150   30.2080   42.4890 C   0  0  0  0  0  0  0  0  0  0  0  0
   40.5050   29.3580   41.9630 H   0  0  0  0  0  0  0  0  0  0  0  0
   40.5600   30.5080   43.4020 H   0  0  0  0  0  0  0  0  0  0  0  0
   40.8110   33.2090   40.3880 C   0  0  0  0  0  0  0  0  0  0  0  0
   39.5800   33.3570   39.7060 C   0  0  0  0  0  0  0  0  0  0  0  0
   38.5720   32.4370   40.0000 C   0  0  0  0  0  0  0  0  0  0  0  0
   38.8370   31.4690   40.9130 N   0  0  0  0  0  0  0  0  0  0  0  0
   40.0200   31.3560   41.5440 C   0  0  0  0  0  0  0  0  0  0  0  0
   41.0110   32.2280   41.2810 N   0  0  0  0  0  0  0  0  0  0  0  0
   41.6170   33.9020   40.1850 H   0  0  0  0  0  0  0  0  0  0  0  0
   39.5170   34.1760   39.0060 H   0  0  0  0  0  0  0  0  0  0  0  0
   37.3200   32.6160   39.2850 C   0  0  0  0  0  0  0  0  0  0  0  0
   36.3610   31.7380   39.7970 F   0  0  0  0  0  0  0  0  0  0  0  0
   37.5460   32.2020   37.9830 F   0  0  0  0  0  0  0  0  0  0  0  0
   36.8150   33.8840   39.3580 F   0  0  0  0  0  0  0  0  0  0  0  0
   38.6420   29.7540   42.8500 C   0  0  0  0  0  0  0  0  0  0  0  0
   37.8780   30.2940   42.2260 H   0  0  0  0  0  0  0  0  0  0  0  0
   38.4230   30.0330   43.8980 H   0  0  0  0  0  0  0  0  0  0  0  0
   36.1740   28.8060   41.3030 Cl  0  0  0  0  0  0  0  0  0  0  0  0
   37.3640   27.7320   42.0140 C   0  0  0  0  0  0  0  0  0  0  0  0
   38.4240   28.3080   42.6840 C   0  0  0  0  0  0  0  0  0  0  0  0
   39.3330   27.4090   43.2260 C   0  0  0  0  0  0  0  0  0  0  0  0
   40.1910   27.8270   43.7670 H   0  0  0  0  0  0  0  0  0  0  0  0
   39.2450   26.0370   43.1400 C   0  0  0  0  0  0  0  0  0  0  0  0
   40.0250   25.4300   43.6090 H   0  0  0  0  0  0  0  0  0  0  0  0
   38.1740   25.5160   42.4650 C   0  0  0  0  0  3  0  0  0  0  0  0
   37.2240   26.3560   41.8960 C   0  0  0  0  0  3  0  0  0  0  0  0
  1 16  1  0  0  0  0
  1  3  1  0  0  0  0
  2  1  1  0  0  0  0
  4  9  1  0  0  0  0
  5  6  1  0  0  0  0
  5  4  2  0  0  0  0
  6  7  2  0  0  0  0
  7  8  1  0  0  0  0
  8  1  1  0  0  0  0
  9  8  2  0  0  0  0
 10  4  1  0  0  0  0
 11  5  1  0  0  0  0
 12 15  1  0  0  0  0
 12 13  1  0  0  0  0
 12  6  1  0  0  0  0
 14 12  1  0  0  0  0
 16 18  1  0  0  0  0
 17 16  1  0  0  0  0
 19 20  1  0  0  0  0
 20 21  1  0  0  0  0
 21 16  1  0  0  0  0
 21 22  2  0  0  0  0
 22 23  1  0  0  0  0
 24 22  1  0  0  0  0
 24 25  1  0  0  0  0
 26 24  2  0  0  0  0
 27 20  2  0  0  0  0
 27 26  1  0  0  0  0
M  END
>  <minimizedAffinity>
-5.25335264

$$$$

 OpenBabel03242515143D

 27 28  0  0  0  0  0  0  0  0999 V2000
   35.9660   28.2260   41.2980 C   0  0  0  0  0  0  0  0  0  0  0  0
   34.8870   28.3160   41.5540 H   0  0  0  0  0  0  0  0  0  0  0  0
   36.1600   27.4130   40.5750 H   0  0  0  0  0  0  0  0  0  0  0  0
   36.9140   31.7640   40.5000 C   0  0  0  0  0  0  0  0  0  0  0  0
   37.1000   31.6530   39.1020 C   0  0  0  0  0  0  0  0  0  0  0  0
   36.8940   30.3960   38.5280 C   0  0  0  0  0  0  0  0  0  0  0  0
   36.5330   29.3740   39.3430 N   0  0  0  0  0  0  0  0  0  0  0  0
   36.3660   29.5140   40.6700 C   0  0  0  0  0  0  0  0  0  0  0  0
   36.5570   30.7120   41.2520 N   0  0  0  0  0  0  0  0  0  0  0  0
   37.0650   32.7220   40.9810 H   0  0  0  0  0  0  0  0  0  0  0  0
   37.3880   32.5550   38.5850 H   0  0  0  0  0  0  0  0  0  0  0  0
   37.0910   30.3150   37.0910 C   0  0  0  0  0  0  0  0  0  0  0  0
   38.1810   29.4840   36.8170 F   0  0  0  0  0  0  0  0  0  0  0  0
   37.4720   31.5790   36.6710 F   0  0  0  0  0  0  0  0  0  0  0  0
   36.0100   29.8330   36.4090 F   0  0  0  0  0  0  0  0  0  0  0  0
   36.6880   27.9480   42.5710 C   0  0  0  0  0  0  0  0  0  0  0  0
   35.9540   27.8240   43.4140 H   0  0  0  0  0  0  0  0  0  0  0  0
   37.3120   28.8190   42.8420 H   0  0  0  0  0  0  0  0  0  0  0  0
   39.6780   28.2360   43.1720 Cl  0  0  0  0  0  0  0  0  0  0  0  0
   38.8940   26.7180   42.7780 C   0  0  0  0  0  0  0  0  0  0  0  0
   37.5370   26.7460   42.5300 C   0  0  0  0  0  0  0  0  0  0  0  0
   36.9720   25.5150   42.2230 C   0  0  0  0  0  0  0  0  0  0  0  0
   35.8940   25.4940   42.0190 H   0  0  0  0  0  0  0  0  0  0  0  0
   37.6530   24.3200   42.1530 C   0  0  0  0  0  0  0  0  0  0  0  0
   37.0980   23.4120   41.9010 H   0  0  0  0  0  0  0  0  0  0  0  0
   38.9990   24.3460   42.4080 C   0  0  0  0  0  3  0  0  0  0  0  0
   39.6320   25.5430   42.7220 C   0  0  0  0  0  3  0  0  0  0  0  0
  1  2  1  0  0  0  0
  1 16  1  0  0  0  0
  3  1  1  0  0  0  0
  4 10  1  0  0  0  0
  4  9  1  0  0  0  0
  5  4  2  0  0  0  0
  6  5  1  0  0  0  0
  6  7  2  0  0  0  0
  7  8  1  0  0  0  0
  8  9  2  0  0  0  0
  8  1  1  0  0  0  0
 11  5  1  0  0  0  0
 12  6  1  0  0  0  0
 13 12  1  0  0  0  0
 14 12  1  0  0  0  0
 15 12  1  0  0  0  0
 16 18  1  0  0  0  0
 16 17  1  0  0  0  0
 20 19  1  0  0  0  0
 21 16  1  0  0  0  0
 21 20  2  0  0  0  0
 22 21  1  0  0  0  0
 23 22  1  0  0  0  0
 24 22  2  0  0  0  0
 24 26  1  0  0  0  0
 25 24  1  0  0  0  0
 26 27  2  0  0  0  0
 27 20  1  0  0  0  0
M  END
>  <minimizedAffinity>
-5.22631311

$$$$

 OpenBabel03242515143D

 27 28  0  0  0  0  0  0  0  0999 V2000
   35.5120   28.7870   39.7520 C   0  0  0  0  0  0  0  0  0  0  0  0
   35.4070   29.2970   40.7350 H   0  0  0  0  0  0  0  0  0  0  0  0
   34.5360   28.5710   39.2830 H   0  0  0  0  0  0  0  0  0  0  0  0
   37.2950   30.5240   36.9480 C   0  0  0  0  0  0  0  0  0  0  0  0
   37.6640   31.7220   37.6050 C   0  0  0  0  0  0  0  0  0  0  0  0
   37.2860   31.8600   38.9430 C   0  0  0  0  0  0  0  0  0  0  0  0
   36.5950   30.8440   39.5190 N   0  0  0  0  0  0  0  0  0  0  0  0
   36.2590   29.7180   38.8650 C   0  0  0  0  0  0  0  0  0  0  0  0
   36.6090   29.5560   37.5750 N   0  0  0  0  0  0  0  0  0  0  0  0
   37.5690   30.3820   35.9110 H   0  0  0  0  0  0  0  0  0  0  0  0
   38.2130   32.4410   37.0160 H   0  0  0  0  0  0  0  0  0  0  0  0
   37.6800   33.1000   39.5900 C   0  0  0  0  0  0  0  0  0  0  0  0
   38.9770   33.4390   39.1950 F   0  0  0  0  0  0  0  0  0  0  0  0
   37.7630   32.8290   40.9460 F   0  0  0  0  0  0  0  0  0  0  0  0
   36.8620   34.1570   39.3080 F   0  0  0  0  0  0  0  0  0  0  0  0
   36.2400   27.5110   40.0050 C   0  0  0  0  0  0  0  0  0  0  0  0
   36.9170   27.2720   39.1400 H   0  0  0  0  0  0  0  0  0  0  0  0
   35.5170   26.6770   40.0600 H   0  0  0  0  0  0  0  0  0  0  0  0
   39.2720   27.1530   39.7560 Cl  0  0  0  0  0  0  0  0  0  0  0  0
   38.4270   27.3710   41.2770 C   0  0  0  0  0  0  0  0  0  0  0  0
   37.0560   27.5190   41.2300 C   0  0  0  0  0  0  0  0  0  0  0  0
   36.4420   27.6880   42.4640 C   0  0  0  0  0  0  0  0  0  0  0  0
   35.3510   27.8090   42.4710 H   0  0  0  0  0  0  0  0  0  0  0  0
   37.0890   27.7150   43.6800 C   0  0  0  0  0  0  0  0  0  0  0  0
   36.4960   27.8540   44.5890 H   0  0  0  0  0  0  0  0  0  0  0  0
   38.4500   27.5630   43.6720 C   0  0  0  0  0  3  0  0  0  0  0  0
   39.1320   27.3900   42.4730 C   0  0  0  0  0  3  0  0  0  0  0  0
  1 16  1  0  0  0  0
  1  2  1  0  0  0  0
  3  1  1  0  0  0  0
  4  9  2  0  0  0  0
  4  5  1  0  0  0  0
  5  6  2  0  0  0  0
  6  7  1  0  0  0  0
  6 12  1  0  0  0  0
  8  7  2  0  0  0  0
  8  1  1  0  0  0  0
  9  8  1  0  0  0  0
 10  4  1  0  0  0  0
 11  5  1  0  0  0  0
 12 14  1  0  0  0  0
 13 12  1  0  0  0  0
 15 12  1  0  0  0  0
 16 18  1  0  0  0  0
 16 21  1  0  0  0  0
 17 16  1  0  0  0  0
 19 20  1  0  0  0  0
 20 27  1  0  0  0  0
 21 20  2  0  0  0  0
 21 22  1  0  0  0  0
 22 23  1  0  0  0  0
 22 24  2  0  0  0  0
 24 25  1  0  0  0  0
 26 24  1  0  0  0  0
 27 26  2  0  0  0  0
M  END
>  <minimizedAffinity>
-5.21732378

$$$$

 OpenBabel03242515143D

 27 28  0  0  0  0  0  0  0  0999 V2000
   36.6280   28.3920   42.2630 C   0  0  0  0  0  0  0  0  0  0  0  0
   35.7300   28.8770   42.7070 H   0  0  0  0  0  0  0  0  0  0  0  0
   36.4240   27.9590   41.2680 H   0  0  0  0  0  0  0  0  0  0  0  0
   39.5690   30.7010   42.5350 C   0  0  0  0  0  0  0  0  0  0  0  0
   39.2860   31.5770   41.4600 C   0  0  0  0  0  0  0  0  0  0  0  0
   38.1280   31.3270   40.7210 C   0  0  0  0  0  0  0  0  0  0  0  0
   37.3570   30.2700   41.0790 N   0  0  0  0  0  0  0  0  0  0  0  0
   37.6560   29.4560   42.1070 C   0  0  0  0  0  0  0  0  0  0  0  0
   38.7660   29.6700   42.8380 N   0  0  0  0  0  0  0  0  0  0  0  0
   40.4590   30.8620   43.1300 H   0  0  0  0  0  0  0  0  0  0  0  0
   39.9930   32.3750   41.2950 H   0  0  0  0  0  0  0  0  0  0  0  0
   37.8630   32.2450   39.6250 C   0  0  0  0  0  0  0  0  0  0  0  0
   37.3870   31.5290   38.5240 F   0  0  0  0  0  0  0  0  0  0  0  0
   39.0900   32.7570   39.2340 F   0  0  0  0  0  0  0  0  0  0  0  0
   36.9520   33.2180   39.9250 F   0  0  0  0  0  0  0  0  0  0  0  0
   37.0430   27.3130   43.2040 C   0  0  0  0  0  0  0  0  0  0  0  0
   36.1630   26.9720   43.8160 H   0  0  0  0  0  0  0  0  0  0  0  0
   37.7750   27.7140   43.9290 H   0  0  0  0  0  0  0  0  0  0  0  0
   39.9970   26.6590   43.6790 Cl  0  0  0  0  0  0  0  0  0  0  0  0
   38.9290   25.7100   42.6630 C   0  0  0  0  0  0  0  0  0  0  0  0
   37.6210   26.1300   42.5450 C   0  0  0  0  0  0  0  0  0  0  0  0
   36.8230   25.3400   41.7280 C   0  0  0  0  0  0  0  0  0  0  0  0
   35.7750   25.6400   41.6070 H   0  0  0  0  0  0  0  0  0  0  0  0
   37.2400   24.2120   41.0570 C   0  0  0  0  0  0  0  0  0  0  0  0
   36.5170   23.6690   40.4400 H   0  0  0  0  0  0  0  0  0  0  0  0
   38.5490   23.8370   41.2080 C   0  0  0  0  0  3  0  0  0  0  0  0
   39.4050   24.5810   42.0110 C   0  0  0  0  0  3  0  0  0  0  0  0
  1  2  1  0  0  0  0
  1 16  1  0  0  0  0
  3  1  1  0  0  0  0
  4  9  1  0  0  0  0
  4 10  1  0  0  0  0
  5  4  2  0  0  0  0
  6  7  2  0  0  0  0
  6  5  1  0  0  0  0
  7  8  1  0  0  0  0
  8  1  1  0  0  0  0
  8  9  2  0  0  0  0
 11  5  1  0  0  0  0
 12 15  1  0  0  0  0
 12  6  1  0  0  0  0
 13 12  1  0  0  0  0
 14 12  1  0  0  0  0
 16 17  1  0  0  0  0
 16 18  1  0  0  0  0
 20 19  1  0  0  0  0
 21 20  1  0  0  0  0
 21 16  1  0  0  0  0
 22 21  2  0  0  0  0
 23 22  1  0  0  0  0
 24 26  2  0  0  0  0
 24 22  1  0  0  0  0
 25 24  1  0  0  0  0
 26 27  1  0  0  0  0
 27 20  2  0  0  0  0
M  END
>  <minimizedAffinity>
-5.20268583

$$$$

 OpenBabel03242515143D

 27 28  0  0  0  0  0  0  0  0999 V2000
   35.8000   29.8010   40.4660 C   0  0  0  0  0  0  0  0  0  0  0  0
   34.9890   29.1180   40.1260 H   0  0  0  0  0  0  0  0  0  0  0  0
   35.4070   30.7060   40.9610 H   0  0  0  0  0  0  0  0  0  0  0  0
   37.9990   28.6520   43.2770 C   0  0  0  0  0  0  0  0  0  0  0  0
   37.9850   27.2570   43.0370 C   0  0  0  0  0  0  0  0  0  0  0  0
   37.2360   26.8040   41.9490 C   0  0  0  0  0  0  0  0  0  0  0  0
   36.5780   27.7230   41.2000 N   0  0  0  0  0  0  0  0  0  0  0  0
   36.6110   29.0430   41.4560 C   0  0  0  0  0  0  0  0  0  0  0  0
   37.3230   29.5100   42.4980 N   0  0  0  0  0  0  0  0  0  0  0  0
   38.5670   29.0410   44.1120 H   0  0  0  0  0  0  0  0  0  0  0  0
   38.5580   26.6490   43.7200 H   0  0  0  0  0  0  0  0  0  0  0  0
   37.2430   25.3680   41.7280 C   0  0  0  0  0  0  0  0  0  0  0  0
   36.3630   24.7550   42.6230 F   0  0  0  0  0  0  0  0  0  0  0  0
   38.5050   24.9190   42.0810 F   0  0  0  0  0  0  0  0  0  0  0  0
   36.8830   24.9990   40.4620 F   0  0  0  0  0  0  0  0  0  0  0  0
   36.5730   30.1880   39.2520 C   0  0  0  0  0  0  0  0  0  0  0  0
   35.8710   30.4860   38.4240 H   0  0  0  0  0  0  0  0  0  0  0  0
   37.1300   29.3120   38.8720 H   0  0  0  0  0  0  0  0  0  0  0  0
   39.5660   29.5650   39.4260 Cl  0  0  0  0  0  0  0  0  0  0  0  0
   38.8850   31.1740   39.5670 C   0  0  0  0  0  0  0  0  0  0  0  0
   37.5150   31.2980   39.4680 C   0  0  0  0  0  0  0  0  0  0  0  0
   37.0330   32.5950   39.5870 C   0  0  0  0  0  0  0  0  0  0  0  0
   35.9480   32.7370   39.5140 H   0  0  0  0  0  0  0  0  0  0  0  0
   37.8060   33.7170   39.7890 C   0  0  0  0  0  0  0  0  0  0  0  0
   37.3120   34.6900   39.8680 H   0  0  0  0  0  0  0  0  0  0  0  0
   39.1620   33.5400   39.8810 C   0  0  0  0  0  3  0  0  0  0  0  0
   39.7140   32.2690   39.7710 C   0  0  0  0  0  3  0  0  0  0  0  0
  1  3  1  0  0  0  0
  1  8  1  0  0  0  0
  2  1  1  0  0  0  0
  4 10  1  0  0  0  0
  5  4  1  0  0  0  0
  5 11  1  0  0  0  0
  6  5  2  0  0  0  0
  7  8  2  0  0  0  0
  7  6  1  0  0  0  0
  8  9  1  0  0  0  0
  9  4  2  0  0  0  0
 12  6  1  0  0  0  0
 12 14  1  0  0  0  0
 12 13  1  0  0  0  0
 15 12  1  0  0  0  0
 16 21  1  0  0  0  0
 16  1  1  0  0  0  0
 17 16  1  0  0  0  0
 18 16  1  0  0  0  0
 19 20  1  0  0  0  0
 20 27  1  0  0  0  0
 21 20  2  0  0  0  0
 21 22  1  0  0  0  0
 22 24  2  0  0  0  0
 23 22  1  0  0  0  0
 24 25  1  0  0  0  0
 24 26  1  0  0  0  0
 27 26  2  0  0  0  0
M  END
>  <minimizedAffinity>
-5.17582989

$$$$

 OpenBabel03242515143D

 27 28  0  0  0  0  0  0  0  0999 V2000
   37.7180   29.0210   43.2540 C   0  0  0  0  0  0  0  0  0  0  0  0
   38.4700   28.6750   43.9990 H   0  0  0  0  0  0  0  0  0  0  0  0
   36.8670   29.5430   43.7270 H   0  0  0  0  0  0  0  0  0  0  0  0
   40.0830   31.3900   41.5660 C   0  0  0  0  0  0  0  0  0  0  0  0
   39.3060   31.7400   40.4370 C   0  0  0  0  0  0  0  0  0  0  0  0
   38.0440   31.1530   40.3240 C   0  0  0  0  0  0  0  0  0  0  0  0
   37.6490   30.2940   41.2960 N   0  0  0  0  0  0  0  0  0  0  0  0
   38.4140   29.9820   42.3570 C   0  0  0  0  0  0  0  0  0  0  0  0
   39.6360   30.5300   42.4940 N   0  0  0  0  0  0  0  0  0  0  0  0
   41.0680   31.8230   41.6880 H   0  0  0  0  0  0  0  0  0  0  0  0
   39.7540   32.4380   39.7470 H   0  0  0  0  0  0  0  0  0  0  0  0
   37.2700   31.5340   39.1540 C   0  0  0  0  0  0  0  0  0  0  0  0
   38.1340   31.7880   38.0860 F   0  0  0  0  0  0  0  0  0  0  0  0
   36.6770   32.7500   39.4510 F   0  0  0  0  0  0  0  0  0  0  0  0
   36.3680   30.5880   38.7530 F   0  0  0  0  0  0  0  0  0  0  0  0
   37.2290   27.8060   42.5430 C   0  0  0  0  0  0  0  0  0  0  0  0
   37.0500   28.0380   41.4570 H   0  0  0  0  0  0  0  0  0  0  0  0
   36.2460   27.5080   42.9510 H   0  0  0  0  0  0  0  0  0  0  0  0
   36.7460   25.4170   40.6880 Cl  0  0  0  0  0  0  0  0  0  0  0  0
   38.0580   25.5150   41.8470 C   0  0  0  0  0  0  0  0  0  0  0  0
   38.1460   26.6570   42.6150 C   0  0  0  0  0  0  0  0  0  0  0  0
   39.2040   26.6790   43.5140 C   0  0  0  0  0  0  0  0  0  0  0  0
   39.3100   27.5700   44.1460 H   0  0  0  0  0  0  0  0  0  0  0  0
   40.1310   25.6730   43.6800 C   0  0  0  0  0  0  0  0  0  0  0  0
   40.9230   25.8030   44.4230 H   0  0  0  0  0  0  0  0  0  0  0  0
   39.9990   24.5600   42.8920 C   0  0  0  0  0  3  0  0  0  0  0  0
   38.9630   24.4700   41.9700 C   0  0  0  0  0  3  0  0  0  0  0  0
  1  3  1  0  0  0  0
  1  2  1  0  0  0  0
  4 10  1  0  0  0  0
  4  9  1  0  0  0  0
  5  4  2  0  0  0  0
  6  5  1  0  0  0  0
  6  7  2  0  0  0  0
  7  8  1  0  0  0  0
  8  9  2  0  0  0  0
  8  1  1  0  0  0  0
 11  5  1  0  0  0  0
 12 14  1  0  0  0  0
 12  6  1  0  0  0  0
 13 12  1  0  0  0  0
 15 12  1  0  0  0  0
 16 21  1  0  0  0  0
 16 18  1  0  0  0  0
 16  1  1  0  0  0  0
 17 16  1  0  0  0  0
 19 20  1  0  0  0  0
 20 27  2  0  0  0  0
 20 21  1  0  0  0  0
 21 22  2  0  0  0  0
 22 24  1  0  0  0  0
 22 23  1  0  0  0  0
 24 25  1  0  0  0  0
 26 24  2  0  0  0  0
 27 26  1  0  0  0  0
M  END
>  <minimizedAffinity>
-5.14028168

$$$$
