
 OpenBabel03252502233D

 34 36  0  0  1  0  0  0  0  0999 V2000
   46.7860   34.5460   42.2810 N   0  0  0  0  0  0  0  0  0  0  0  0
   48.2440   34.6260   42.3120 C   0  0  0  0  0  0  0  0  0  0  0  0
   48.5840   35.3850   41.0130 C   0  0  0  0  0  0  0  0  0  0  0  0
   48.2040   34.5780   39.8130 C   0  0  0  0  0  0  0  0  0  0  0  0
   46.9180   33.8420   39.9470 C   0  0  0  0  0  0  0  0  0  0  0  0
   46.0260   34.2650   41.0830 C   0  0  1  0  0  0  0  0  0  0  0  0
   48.5990   35.2120   43.1580 H   0  0  0  0  0  0  0  0  0  0  0  0
   48.6260   33.6070   42.2210 H   0  0  0  0  0  0  0  0  0  0  0  0
   49.7110   35.4150   41.0190 H   0  0  0  0  0  0  0  0  0  0  0  0
   48.1860   36.3980   41.0380 H   0  0  0  0  0  0  0  0  0  0  0  0
   48.9930   33.8070   39.5960 H   0  0  0  0  0  0  0  0  0  0  0  0
   48.2450   35.2670   38.9400 H   0  0  0  0  0  0  0  0  0  0  0  0
   47.0350   32.7370   39.9530 H   0  0  0  0  0  0  0  0  0  0  0  0
   46.3380   34.0630   39.0170 H   0  0  0  0  0  0  0  0  0  0  0  0
   45.4850   35.1910   40.8190 H   0  0  0  0  0  0  0  0  0  0  0  0
   44.4560   35.9560   44.8520 C   0  0  0  0  0  0  0  0  0  0  0  0
   45.1420   35.8520   43.6250 C   0  0  0  0  0  0  0  0  0  0  0  0
   46.0320   34.7510   43.4900 C   0  0  0  0  0  0  0  0  0  0  0  0
   46.1560   33.8940   44.5320 N   0  0  0  0  0  0  0  0  0  0  0  0
   45.4760   34.0320   45.6920 C   0  0  0  0  0  0  0  0  0  0  0  0
   44.6220   35.0740   45.8450 N   0  0  0  0  0  0  0  0  0  0  0  0
   43.7700   36.7930   44.9700 H   0  0  0  0  0  0  0  0  0  0  0  0
   45.0370   36.5340   42.8090 H   0  0  0  0  0  0  0  0  0  0  0  0
   45.7050   33.2510   46.4060 H   0  0  0  0  0  0  0  0  0  0  0  0
   45.1460   33.2450   41.3410 O   0  0  0  0  0  0  0  0  0  0  0  0
   43.0700   35.3470   40.2440 Cl  0  0  0  0  0  0  0  0  0  0  0  0
   42.7050   33.7990   40.9640 C   0  0  0  0  0  0  0  0  0  0  0  0
   43.8200   33.0960   41.3500 C   0  0  0  0  0  0  0  0  0  0  0  0
   43.5450   31.8450   41.9320 C   0  0  0  0  0  0  0  0  0  0  0  0
   44.2360   31.0790   42.3290 H   0  0  0  0  0  0  0  0  0  0  0  0
   42.2400   31.3590   42.1030 C   0  0  0  0  0  0  0  0  0  0  0  0
   41.9350   30.4350   42.5290 H   0  0  0  0  0  0  0  0  0  0  0  0
   41.2040   32.1630   41.6720 C   0  0  0  0  0  0  0  0  0  0  0  0
   41.3970   33.3970   41.0950 C   0  0  0  0  0  0  0  0  0  0  0  0
  1  2  1  0  0  0  0
  1 18  1  0  0  0  0
  2  7  1  0  0  0  0
  3  9  1  0  0  0  0
  3 10  1  0  0  0  0
  3  2  1  0  0  0  0
  4  5  1  0  0  0  0
  4  3  1  0  0  0  0
  5 13  1  0  0  0  0
  5  6  1  0  0  0  0
  6 15  1  6  0  0  0
  6 25  1  0  0  0  0
  6  1  1  0  0  0  0
  8  2  1  0  0  0  0
 11  4  1  0  0  0  0
 12  4  1  0  0  0  0
 14  5  1  0  0  0  0
 16 22  1  0  0  0  0
 16 21  1  0  0  0  0
 17 16  2  0  0  0  0
 18 17  1  0  0  0  0
 18 19  2  0  0  0  0
 19 20  1  0  0  0  0
 20 21  2  0  0  0  0
 20 24  1  0  0  0  0
 23 17  1  0  0  0  0
 25 28  1  0  0  0  0
 26 27  1  0  0  0  0
 27 34  2  0  0  0  0
 27 28  1  0  0  0  0
 28 29  2  0  0  0  0
 29 31  1  0  0  0  0
 29 30  1  0  0  0  0
 31 32  1  0  0  0  0
 33 31  2  0  0  0  0
 34 33  1  0  0  0  0
M  END
>  <minimizedAffinity>
-5.79344797

>  <minimizedRMSD>
0.585378587

$$$$
