
 OpenBabel03252508463D

 45 47  0  0  0  0  0  0  0  0999 V2000
   42.6930   31.3560   42.6260 N   0  0  0  0  0  0  0  0  0  0  0  0
   42.9980   31.5680   43.6040 H   0  0  0  0  0  0  0  0  0  0  0  0
   42.9880   32.4070   41.7090 C   0  0  0  0  0  0  0  0  0  0  0  0
   42.0210   32.8870   41.3750 H   0  0  0  0  0  0  0  0  0  0  0  0
   43.4330   32.0370   40.7440 H   0  0  0  0  0  0  0  0  0  0  0  0
   43.6560   34.8100   41.9130 C   0  0  0  0  0  0  0  0  0  0  0  0
   43.8770   33.4800   42.2360 C   0  0  0  0  0  0  0  0  0  0  0  0
   44.9380   33.1760   43.0550 C   0  0  0  0  0  0  0  0  0  0  0  0
   45.7450   34.1650   43.5330 C   0  0  0  0  0  0  0  0  0  0  0  0
   45.5460   35.4930   43.2260 C   0  0  0  0  0  0  0  0  0  0  0  0
   44.4680   35.7610   42.3970 C   0  0  0  0  0  0  0  0  0  0  0  0
   45.0770   32.1210   43.2850 H   0  0  0  0  0  0  0  0  0  0  0  0
   46.5670   33.8490   44.1770 H   0  0  0  0  0  0  0  0  0  0  0  0
   46.2050   36.2560   43.6200 H   0  0  0  0  0  0  0  0  0  0  0  0
   44.2870   36.8010   42.1370 H   0  0  0  0  0  0  0  0  0  0  0  0
   40.2110   35.6410   40.5760 C   0  0  0  0  0  0  0  0  0  0  0  0
   41.2390   35.4080   41.5100 C   0  0  0  0  0  0  0  0  0  0  0  0
   42.5100   35.0760   41.0380 C   0  0  0  0  0  0  0  0  0  0  0  0
   42.6760   34.9950   39.6940 N   0  0  0  0  0  0  0  0  0  0  0  0
   41.6640   35.2250   38.8130 C   0  0  0  0  0  0  0  0  0  0  0  0
   40.4480   35.5450   39.2730 N   0  0  0  0  0  0  0  0  0  0  0  0
   39.2550   35.8930   40.9890 H   0  0  0  0  0  0  0  0  0  0  0  0
   41.1050   35.4740   42.5930 H   0  0  0  0  0  0  0  0  0  0  0  0
   41.9500   35.1240   37.7740 H   0  0  0  0  0  0  0  0  0  0  0  0
   41.0130   30.9730   42.6800 S   0  0  0  0  0  0  0  0  0  0  0  0
   40.1650   32.1990   42.4640 O   0  0  0  0  0  0  0  0  0  0  0  0
   39.4140   32.2810   41.8190 H   0  0  0  0  0  0  0  0  0  0  0  0
   40.6480   30.3110   43.9550 O   0  0  0  0  0  0  0  0  0  0  0  0
   39.9000   30.5830   44.5100 H   0  0  0  0  0  0  0  0  0  0  0  0
   40.7180   29.9070   41.4060 O   0  0  0  0  0  0  0  0  0  0  0  0
   40.1260   28.7720   41.9520 C   0  0  0  0  0  0  0  0  0  0  0  0
   40.2670   28.6380   43.0210 H   0  0  0  0  0  0  0  0  0  0  0  0
   39.0220   28.8690   41.7820 H   0  0  0  0  0  0  0  0  0  0  0  0
   40.5570   27.5500   41.1560 C   0  0  0  0  0  0  0  0  0  0  0  0
   41.6770   27.5320   41.1940 H   0  0  0  0  0  0  0  0  0  0  0  0
   40.1850   27.5840   40.1200 H   0  0  0  0  0  0  0  0  0  0  0  0
   37.8280   26.5070   40.1390 Cl  0  0  0  0  0  0  0  0  0  0  0  0
   38.7760   25.8180   41.4350 C   0  0  0  0  0  0  0  0  0  0  0  0
   39.9950   26.3580   41.8290 C   0  0  0  0  0  0  0  0  0  0  0  0
   40.6420   25.7260   42.8720 C   0  0  0  0  0  0  0  0  0  0  0  0
   41.6100   26.0980   43.2350 H   0  0  0  0  0  0  0  0  0  0  0  0
   40.0970   24.6140   43.4820 C   0  0  0  0  0  0  0  0  0  0  0  0
   40.5740   24.0760   44.3160 H   0  0  0  0  0  0  0  0  0  0  0  0
   38.8890   24.0730   43.0960 C   0  0  0  0  0  3  0  0  0  0  0  0
   38.2370   24.6880   42.0660 C   0  0  0  0  0  3  0  0  0  0  0  0
  1 25  1  0  0  0  0
  1  2  1  0  0  0  0
  3  7  1  0  0  0  0
  3  1  1  0  0  0  0
  4  3  1  0  0  0  0
  5  3  1  0  0  0  0
  6  7  2  0  0  0  0
  6 11  1  0  0  0  0
  7  8  1  0  0  0  0
  8 12  1  0  0  0  0
  8  9  2  0  0  0  0
  9 13  1  0  0  0  0
 10  9  1  0  0  0  0
 10 14  1  0  0  0  0
 11 10  2  0  0  0  0
 15 11  1  0  0  0  0
 16 22  1  0  0  0  0
 16 17  1  0  0  0  0
 17 23  1  0  0  0  0
 18 17  2  0  0  0  0
 18  6  1  0  0  0  0
 19 18  1  0  0  0  0
 20 21  1  0  0  0  0
 20 19  2  0  0  0  0
 21 16  2  0  0  0  0
 24 20  1  0  0  0  0
 25 28  1  0  0  0  0
 26 25  1  0  0  0  0
 27 26  1  0  0  0  0
 28 29  1  0  0  0  0
 30 31  1  0  0  0  0
 30 25  1  0  0  0  0
 31 32  1  0  0  0  0
 33 31  1  0  0  0  0
 34 35  1  0  0  0  0
 34 39  1  0  0  0  0
 34 31  1  0  0  0  0
 36 34  1  0  0  0  0
 37 38  1  0  0  0  0
 38 39  2  0  0  0  0
 38 45  1  0  0  0  0
 39 40  1  0  0  0  0
 40 41  1  0  0  0  0
 40 42  2  0  0  0  0
 42 43  1  0  0  0  0
 44 42  1  0  0  0  0
 45 44  2  0  0  0  0
M  END
>  <minimizedAffinity>
-5.0788579

>  <minimizedRMSD>
0.523497343

$$$$
