
 OpenBabel03252508463D

 45 47  0  0  0  0  0  0  0  0999 V2000
   42.7010   31.3560   42.6260 N   0  0  0  0  0  0  0  0  0  0  0  0
   43.0330   31.5480   43.6000 H   0  0  0  0  0  0  0  0  0  0  0  0
   43.0000   32.4140   41.7180 C   0  0  0  0  0  0  0  0  0  0  0  0
   42.0360   32.9010   41.3880 H   0  0  0  0  0  0  0  0  0  0  0  0
   43.4420   32.0480   40.7490 H   0  0  0  0  0  0  0  0  0  0  0  0
   43.6870   34.8110   41.9310 C   0  0  0  0  0  0  0  0  0  0  0  0
   43.8960   33.4780   42.2520 C   0  0  0  0  0  0  0  0  0  0  0  0
   44.9500   33.1630   43.0750 C   0  0  0  0  0  0  0  0  0  0  0  0
   45.7630   34.1440   43.5590 C   0  0  0  0  0  0  0  0  0  0  0  0
   45.5770   35.4750   43.2550 C   0  0  0  0  0  0  0  0  0  0  0  0
   44.5050   35.7530   42.4220 C   0  0  0  0  0  0  0  0  0  0  0  0
   45.0800   32.1060   43.3030 H   0  0  0  0  0  0  0  0  0  0  0  0
   46.5790   33.8190   44.2070 H   0  0  0  0  0  0  0  0  0  0  0  0
   46.2400   36.2310   43.6540 H   0  0  0  0  0  0  0  0  0  0  0  0
   44.3330   36.7950   42.1640 H   0  0  0  0  0  0  0  0  0  0  0  0
   40.2610   35.6950   40.5800 C   0  0  0  0  0  0  0  0  0  0  0  0
   41.2840   35.4530   41.5180 C   0  0  0  0  0  0  0  0  0  0  0  0
   42.5480   35.0880   41.0520 C   0  0  0  0  0  0  0  0  0  0  0  0
   42.7120   34.9860   39.7090 N   0  0  0  0  0  0  0  0  0  0  0  0
   41.7060   35.2240   38.8240 C   0  0  0  0  0  0  0  0  0  0  0  0
   40.4970   35.5750   39.2780 N   0  0  0  0  0  0  0  0  0  0  0  0
   39.3100   35.9720   40.9880 H   0  0  0  0  0  0  0  0  0  0  0  0
   41.1500   35.5360   42.5990 H   0  0  0  0  0  0  0  0  0  0  0  0
   41.9910   35.1030   37.7870 H   0  0  0  0  0  0  0  0  0  0  0  0
   41.0140   31.0130   42.7150 S   0  0  0  0  0  0  0  0  0  0  0  0
   40.1930   32.1800   42.2310 O   0  0  0  0  0  0  0  0  0  0  0  0
   39.4570   32.1380   41.5650 H   0  0  0  0  0  0  0  0  0  0  0  0
   40.6090   30.6300   44.0880 O   0  0  0  0  0  0  0  0  0  0  0  0
   39.8540   31.0190   44.5570 H   0  0  0  0  0  0  0  0  0  0  0  0
   40.7300   29.7140   41.6770 O   0  0  0  0  0  0  0  0  0  0  0  0
   40.2780   28.6570   42.4620 C   0  0  0  0  0  0  0  0  0  0  0  0
   39.8320   28.9360   43.4120 H   0  0  0  0  0  0  0  0  0  0  0  0
   39.4810   28.1340   41.8720 H   0  0  0  0  0  0  0  0  0  0  0  0
   41.3980   27.6410   42.6260 C   0  0  0  0  0  0  0  0  0  0  0  0
   42.3340   28.2330   42.7970 H   0  0  0  0  0  0  0  0  0  0  0  0
   41.4870   26.9840   41.7470 H   0  0  0  0  0  0  0  0  0  0  0  0
   40.6110   24.6910   42.1260 Cl  0  0  0  0  0  0  0  0  0  0  0  0
   40.7220   25.4790   43.6820 C   0  0  0  0  0  0  0  0  0  0  0  0
   41.0810   26.8150   43.8130 C   0  0  0  0  0  0  0  0  0  0  0  0
   41.1240   27.3210   45.0960 C   0  0  0  0  0  0  0  0  0  0  0  0
   41.4010   28.3690   45.2740 H   0  0  0  0  0  0  0  0  0  0  0  0
   40.8260   26.5290   46.1860 C   0  0  0  0  0  0  0  0  0  0  0  0
   40.8450   26.8860   47.2290 H   0  0  0  0  0  0  0  0  0  0  0  0
   40.4690   25.2030   46.0640 C   0  0  0  0  0  3  0  0  0  0  0  0
   40.4220   24.6890   44.8000 C   0  0  0  0  0  3  0  0  0  0  0  0
  1 25  1  0  0  0  0
  1  2  1  0  0  0  0
  3  7  1  0  0  0  0
  3  1  1  0  0  0  0
  4  3  1  0  0  0  0
  5  3  1  0  0  0  0
  6  7  2  0  0  0  0
  6 11  1  0  0  0  0
  7  8  1  0  0  0  0
  8 12  1  0  0  0  0
  8  9  2  0  0  0  0
  9 13  1  0  0  0  0
 10  9  1  0  0  0  0
 10 14  1  0  0  0  0
 11 10  2  0  0  0  0
 15 11  1  0  0  0  0
 16 22  1  0  0  0  0
 16 17  1  0  0  0  0
 17 23  1  0  0  0  0
 18 17  2  0  0  0  0
 18  6  1  0  0  0  0
 19 18  1  0  0  0  0
 20 21  1  0  0  0  0
 20 19  2  0  0  0  0
 21 16  2  0  0  0  0
 24 20  1  0  0  0  0
 25 28  1  0  0  0  0
 26 25  1  0  0  0  0
 27 26  1  0  0  0  0
 28 29  1  0  0  0  0
 30 31  1  0  0  0  0
 30 25  1  0  0  0  0
 31 34  1  0  0  0  0
 31 32  1  0  0  0  0
 33 31  1  0  0  0  0
 34 35  1  0  0  0  0
 34 39  1  0  0  0  0
 36 34  1  0  0  0  0
 37 38  1  0  0  0  0
 38 39  2  0  0  0  0
 38 45  1  0  0  0  0
 39 40  1  0  0  0  0
 40 41  1  0  0  0  0
 40 42  2  0  0  0  0
 42 43  1  0  0  0  0
 44 42  1  0  0  0  0
 45 44  2  0  0  0  0
M  END
>  <minimizedAffinity>
-5.44115496

>  <minimizedRMSD>
1.66705358

$$$$
