
 OpenBabel03252508113D

 47 50  0  0  0  0  0  0  0  0999 V2000
   37.4160   29.9060   37.8890 C   0  0  0  0  0  0  0  0  0  0  0  0
   37.6120   29.1980   39.0660 C   0  0  0  0  0  0  0  0  0  0  0  0
   36.6020   28.4400   39.5910 C   0  0  0  0  0  0  0  0  0  0  0  0
   35.4110   28.4240   38.8930 N   0  0  0  0  0  0  0  0  0  0  0  0
   35.2270   29.0980   37.7760 C   0  0  0  0  0  0  0  0  0  0  0  0
   36.2370   29.8400   37.2780 N   0  0  0  0  0  0  0  0  0  0  0  0
   38.2240   30.5180   37.4740 H   0  0  0  0  0  0  0  0  0  0  0  0
   34.2640   29.0630   37.2410 H   0  0  0  0  0  0  0  0  0  0  0  0
   36.6380   27.6640   40.7820 C   0  0  0  0  0  0  0  0  0  0  0  0
   36.4030   28.1960   42.0490 C   0  0  0  0  0  0  0  0  0  0  0  0
   36.4980   27.4810   43.2100 C   0  0  0  0  0  0  0  0  0  0  0  0
   36.8450   26.1420   43.1590 C   0  0  0  0  0  0  0  0  0  0  0  0
   37.0890   25.5780   41.8710 C   0  0  0  0  0  0  0  0  0  0  0  0
   37.4370   24.2580   41.8110 C   0  0  0  0  0  0  0  0  0  0  0  0
   37.6860   23.6550   40.5970 C   0  0  0  0  0  0  0  0  0  0  0  0
   37.5720   24.4240   39.4170 C   0  0  0  0  0  0  0  0  0  0  0  0
   37.2100   25.7790   39.5400 C   0  0  0  0  0  0  0  0  0  0  0  0
   36.9770   26.3410   40.7540 C   0  0  0  0  0  0  0  0  0  0  0  0
   36.1480   29.2440   42.0520 H   0  0  0  0  0  0  0  0  0  0  0  0
   36.3220   27.8940   44.1870 H   0  0  0  0  0  0  0  0  0  0  0  0
   36.9460   25.4780   44.0120 H   0  0  0  0  0  0  0  0  0  0  0  0
   37.5300   23.6420   42.7070 H   0  0  0  0  0  0  0  0  0  0  0  0
   37.9610   22.5980   40.5660 H   0  0  0  0  0  0  0  0  0  0  0  0
   37.7830   23.8720   38.5150 H   0  0  0  0  0  0  0  0  0  0  0  0
   37.1620   26.1550   38.5410 H   0  0  0  0  0  0  0  0  0  0  0  0
   38.8430   29.3010   39.6470 O   0  0  0  0  0  0  0  0  0  0  0  0
   38.5450   30.5540   41.9410 O   0  0  0  0  0  0  0  0  0  0  0  0
   39.3310   30.5320   40.6710 P   0  0  1  0  0  0  0  0  0  0  0  0
   40.9510   30.3710   41.0890 O   0  0  0  0  0  0  0  0  0  0  0  0
   41.0000   29.7310   42.3120 C   0  0  0  0  0  0  0  0  0  0  0  0
   40.0500   29.9480   42.8580 H   0  0  0  0  0  0  0  0  0  0  0  0
   41.8260   30.1580   42.9590 H   0  0  0  0  0  0  0  0  0  0  0  0
   42.3340   28.1470   39.9530 Cl  0  0  0  0  0  0  0  0  0  0  0  0
   41.5130   27.3090   41.2590 C   0  0  0  0  0  0  0  0  0  0  0  0
   41.1370   28.2860   42.1570 C   0  0  0  0  0  0  0  0  0  0  0  0
   40.5170   27.7460   43.3150 C   0  0  0  0  0  0  0  0  0  0  0  0
   40.1040   28.2590   44.2080 H   0  0  0  0  0  0  0  0  0  0  0  0
   40.2920   26.3970   43.5560 C   0  0  0  0  0  0  0  0  0  0  0  0
   39.8400   25.9030   44.3790 H   0  0  0  0  0  0  0  0  0  0  0  0
   40.7120   25.5000   42.5710 C   0  0  0  0  0  3  0  0  0  0  0  0
   41.3150   25.9620   41.4410 C   0  0  0  0  0  3  0  0  0  0  0  0
   39.1210   32.0030   39.8590 O   0  0  0  0  0  0  0  0  0  0  0  0
   38.2350   33.0080   40.1830 C   0  0  0  0  0  0  0  0  0  0  0  0
   38.8760   34.0490   40.1260 O   0  0  0  0  0  0  0  0  0  0  0  0
   36.9090   32.4930   40.4590 N   0  0  0  0  0  0  0  0  0  0  0  0
   36.2140   32.0060   39.8480 H   0  0  0  0  0  0  0  0  0  0  0  0
   36.2020   32.4210   41.2570 H   0  0  0  0  0  0  0  0  0  0  0  0
  1  2  1  0  0  0  0
  2  3  2  0  0  0  0
  2 26  1  0  0  0  0
  3  9  1  0  0  0  0
  4  3  1  0  0  0  0
  5  4  2  0  0  0  0
  6  5  1  0  0  0  0
  6  1  2  0  0  0  0
  7  1  1  0  0  0  0
  8  5  1  0  0  0  0
  9 10  1  0  0  0  0
 10 19  1  0  0  0  0
 10 11  2  0  0  0  0
 11 20  1  0  0  0  0
 12 11  1  0  0  0  0
 12 21  1  0  0  0  0
 13 12  2  0  0  0  0
 14 13  1  0  0  0  0
 14 22  1  0  0  0  0
 15 14  2  0  0  0  0
 16 17  2  0  0  0  0
 16 15  1  0  0  0  0
 17 18  1  0  0  0  0
 18  9  2  0  0  0  0
 18 13  1  0  0  0  0
 23 15  1  0  0  0  0
 24 16  1  0  0  0  0
 25 17  1  0  0  0  0
 26 28  1  0  0  0  0
 28 29  1  0  0  0  0
 28 27  2  1  0  0  0
 29 30  1  0  0  0  0
 30 31  1  0  0  0  0
 30 32  1  0  0  0  0
 33 34  1  0  0  0  0
 34 41  2  0  0  0  0
 34 35  1  0  0  0  0
 35 30  1  0  0  0  0
 35 36  2  0  0  0  0
 36 38  1  0  0  0  0
 36 37  1  0  0  0  0
 38 39  1  0  0  0  0
 40 38  2  0  0  0  0
 41 40  1  0  0  0  0
 42 43  1  0  0  0  0
 42 28  1  0  0  0  0
 43 45  1  0  0  0  0
 44 43  2  0  0  0  0
 45 47  1  0  0  0  0
 46 45  1  0  0  0  0
M  END
>  <minimizedAffinity>
-6.02998924

$$$$

 OpenBabel03252508113D

 47 50  0  0  0  0  0  0  0  0999 V2000
   37.2570   29.7910   37.5890 C   0  0  0  0  0  0  0  0  0  0  0  0
   37.5280   29.1830   38.8080 C   0  0  0  0  0  0  0  0  0  0  0  0
   36.5460   28.4960   39.4680 C   0  0  0  0  0  0  0  0  0  0  0  0
   35.3080   28.4460   38.8610 N   0  0  0  0  0  0  0  0  0  0  0  0
   35.0530   29.0240   37.7040 C   0  0  0  0  0  0  0  0  0  0  0  0
   36.0360   29.6980   37.0720 N   0  0  0  0  0  0  0  0  0  0  0  0
   38.0430   30.3460   37.0660 H   0  0  0  0  0  0  0  0  0  0  0  0
   34.0540   28.9640   37.2440 H   0  0  0  0  0  0  0  0  0  0  0  0
   36.6570   27.8270   40.7180 C   0  0  0  0  0  0  0  0  0  0  0  0
   36.6290   28.4870   41.9450 C   0  0  0  0  0  0  0  0  0  0  0  0
   36.7990   27.8690   43.1510 C   0  0  0  0  0  0  0  0  0  0  0  0
   37.0130   26.5020   43.1930 C   0  0  0  0  0  0  0  0  0  0  0  0
   37.0440   25.8070   41.9470 C   0  0  0  0  0  0  0  0  0  0  0  0
   37.2600   24.4580   41.9770 C   0  0  0  0  0  0  0  0  0  0  0  0
   37.3020   23.7300   40.8080 C   0  0  0  0  0  0  0  0  0  0  0  0
   37.1160   24.4020   39.5780 C   0  0  0  0  0  0  0  0  0  0  0  0
   36.8970   25.7920   39.6090 C   0  0  0  0  0  0  0  0  0  0  0  0
   36.8670   26.4780   40.7800 C   0  0  0  0  0  0  0  0  0  0  0  0
   36.4730   29.5520   41.8740 H   0  0  0  0  0  0  0  0  0  0  0  0
   36.7820   28.3800   44.0970 H   0  0  0  0  0  0  0  0  0  0  0  0
   37.1570   25.9070   44.0890 H   0  0  0  0  0  0  0  0  0  0  0  0
   37.4050   23.9150   42.9130 H   0  0  0  0  0  0  0  0  0  0  0  0
   37.4730   22.6520   40.8490 H   0  0  0  0  0  0  0  0  0  0  0  0
   37.1630   23.7550   38.7170 H   0  0  0  0  0  0  0  0  0  0  0  0
   36.7620   26.0840   38.5900 H   0  0  0  0  0  0  0  0  0  0  0  0
   38.7990   29.3090   39.2880 O   0  0  0  0  0  0  0  0  0  0  0  0
   40.0020   30.1310   41.4800 O   0  0  0  0  0  0  0  0  0  0  0  0
   39.3640   30.5880   40.2090 P   0  0  1  0  0  0  0  0  0  0  0  0
   40.5110   31.4850   39.3680 O   0  0  0  0  0  0  0  0  0  0  0  0
   41.7210   30.8320   39.4990 C   0  0  0  0  0  0  0  0  0  0  0  0
   41.5490   29.8890   40.0720 H   0  0  0  0  0  0  0  0  0  0  0  0
   42.4420   31.4410   40.1240 H   0  0  0  0  0  0  0  0  0  0  0  0
   42.8930   32.7770   37.3310 Cl  0  0  0  0  0  0  0  0  0  0  0  0
   42.7450   31.0550   37.0210 C   0  0  0  0  0  0  0  0  0  0  0  0
   42.2930   30.4970   38.1980 C   0  0  0  0  0  0  0  0  0  0  0  0
   42.1920   29.0820   38.1220 C   0  0  0  0  0  0  0  0  0  0  0  0
   41.8610   28.3490   38.8870 H   0  0  0  0  0  0  0  0  0  0  0  0
   42.4990   28.3090   37.0100 C   0  0  0  0  0  0  0  0  0  0  0  0
   42.4540   27.2600   36.8580 H   0  0  0  0  0  0  0  0  0  0  0  0
   42.9430   28.9870   35.8720 C   0  0  0  0  0  3  0  0  0  0  0  0
   43.0620   30.3430   35.8890 C   0  0  0  0  0  3  0  0  0  0  0  0
   38.0490   31.5910   40.5740 O   0  0  0  0  0  0  0  0  0  0  0  0
   37.9390   32.9400   40.3110 C   0  0  0  0  0  0  0  0  0  0  0  0
   37.1120   33.0380   39.4150 O   0  0  0  0  0  0  0  0  0  0  0  0
   38.8040   33.7300   41.1640 N   0  0  0  0  0  0  0  0  0  0  0  0
   38.8100   33.8790   42.1980 H   0  0  0  0  0  0  0  0  0  0  0  0
   39.6430   34.3890   41.1020 H   0  0  0  0  0  0  0  0  0  0  0  0
  1  2  1  0  0  0  0
  2 26  1  0  0  0  0
  2  3  2  0  0  0  0
  3  9  1  0  0  0  0
  4  3  1  0  0  0  0
  5  4  2  0  0  0  0
  6  1  2  0  0  0  0
  6  5  1  0  0  0  0
  7  1  1  0  0  0  0
  8  5  1  0  0  0  0
  9 18  2  0  0  0  0
  9 10  1  0  0  0  0
 10 11  2  0  0  0  0
 11 12  1  0  0  0  0
 11 20  1  0  0  0  0
 12 21  1  0  0  0  0
 13 14  1  0  0  0  0
 13 12  2  0  0  0  0
 14 22  1  0  0  0  0
 15 23  1  0  0  0  0
 15 14  2  0  0  0  0
 16 17  2  0  0  0  0
 16 15  1  0  0  0  0
 17 18  1  0  0  0  0
 18 13  1  0  0  0  0
 19 10  1  0  0  0  0
 24 16  1  0  0  0  0
 25 17  1  0  0  0  0
 26 28  1  0  0  0  0
 28 42  1  0  0  0  0
 28 27  2  1  0  0  0
 29 30  1  0  0  0  0
 29 28  1  0  0  0  0
 30 31  1  0  0  0  0
 30 32  1  0  0  0  0
 34 33  1  0  0  0  0
 34 35  1  0  0  0  0
 35 30  1  0  0  0  0
 36 35  2  0  0  0  0
 36 37  1  0  0  0  0
 38 36  1  0  0  0  0
 39 38  1  0  0  0  0
 40 41  1  0  0  0  0
 40 38  2  0  0  0  0
 41 34  2  0  0  0  0
 43 42  1  0  0  0  0
 43 45  1  0  0  0  0
 44 43  2  0  0  0  0
 45 46  1  0  0  0  0
 47 45  1  0  0  0  0
M  END
>  <minimizedAffinity>
-6.01098537

$$$$

 OpenBabel03252508113D

 47 50  0  0  0  0  0  0  0  0999 V2000
   41.4820   29.4380   39.7640 C   0  0  0  0  0  0  0  0  0  0  0  0
   40.2350   28.9890   40.1770 C   0  0  0  0  0  0  0  0  0  0  0  0
   40.0720   28.4620   41.4290 C   0  0  0  0  0  0  0  0  0  0  0  0
   41.1950   28.4100   42.2310 N   0  0  0  0  0  0  0  0  0  0  0  0
   42.3770   28.8370   41.8360 C   0  0  0  0  0  0  0  0  0  0  0  0
   42.5140   29.3510   40.5960 N   0  0  0  0  0  0  0  0  0  0  0  0
   41.6110   29.8530   38.7580 H   0  0  0  0  0  0  0  0  0  0  0  0
   43.2540   28.7840   42.5010 H   0  0  0  0  0  0  0  0  0  0  0  0
   38.8730   27.9560   42.0000 C   0  0  0  0  0  0  0  0  0  0  0  0
   38.0200   28.7220   42.7930 C   0  0  0  0  0  0  0  0  0  0  0  0
   36.8980   28.2370   43.4030 C   0  0  0  0  0  0  0  0  0  0  0  0
   36.5580   26.9040   43.2430 C   0  0  0  0  0  0  0  0  0  0  0  0
   37.4180   26.1030   42.4340 C   0  0  0  0  0  0  0  0  0  0  0  0
   37.0930   24.7850   42.2740 C   0  0  0  0  0  0  0  0  0  0  0  0
   37.8840   23.9580   41.5060 C   0  0  0  0  0  0  0  0  0  0  0  0
   39.0330   24.4970   40.8850 C   0  0  0  0  0  0  0  0  0  0  0  0
   39.3180   25.8610   41.0840 C   0  0  0  0  0  0  0  0  0  0  0  0
   38.5180   26.6440   41.8530 C   0  0  0  0  0  0  0  0  0  0  0  0
   38.3230   29.7520   42.9050 H   0  0  0  0  0  0  0  0  0  0  0  0
   36.2440   28.8270   44.0190 H   0  0  0  0  0  0  0  0  0  0  0  0
   35.6930   26.4120   43.6750 H   0  0  0  0  0  0  0  0  0  0  0  0
   36.2100   24.3440   42.7420 H   0  0  0  0  0  0  0  0  0  0  0  0
   37.6090   22.9070   41.3860 H   0  0  0  0  0  0  0  0  0  0  0  0
   39.5910   23.7800   40.3030 H   0  0  0  0  0  0  0  0  0  0  0  0
   40.2010   26.0560   40.5160 H   0  0  0  0  0  0  0  0  0  0  0  0
   39.2120   29.1060   39.2810 O   0  0  0  0  0  0  0  0  0  0  0  0
   38.8980   31.3210   37.8960 O   0  0  0  0  0  0  0  0  0  0  0  0
   38.3240   30.4980   39.0010 P   0  0  1  0  0  0  0  0  0  0  0  0
   36.7370   30.1350   38.5820 O   0  0  0  0  0  0  0  0  0  0  0  0
   36.3320   29.0810   39.3780 C   0  0  0  0  0  0  0  0  0  0  0  0
   35.5510   29.4560   40.0840 H   0  0  0  0  0  0  0  0  0  0  0  0
   37.1820   28.7170   40.0300 H   0  0  0  0  0  0  0  0  0  0  0  0
   33.9460   29.2000   37.3410 Cl  0  0  0  0  0  0  0  0  0  0  0  0
   34.7130   27.6760   37.7510 C   0  0  0  0  0  0  0  0  0  0  0  0
   35.7660   27.9950   38.5820 C   0  0  0  0  0  0  0  0  0  0  0  0
   36.5330   26.8550   38.9440 C   0  0  0  0  0  0  0  0  0  0  0  0
   37.4300   26.7760   39.5950 H   0  0  0  0  0  0  0  0  0  0  0  0
   36.2860   25.5520   38.5350 C   0  0  0  0  0  0  0  0  0  0  0  0
   36.7950   24.6460   38.7520 H   0  0  0  0  0  0  0  0  0  0  0  0
   35.1870   25.3500   37.6970 C   0  0  0  0  0  3  0  0  0  0  0  0
   34.4180   26.4070   37.3150 C   0  0  0  0  0  3  0  0  0  0  0  0
   38.3150   31.4090   40.4290 O   0  0  0  0  0  0  0  0  0  0  0  0
   38.0740   32.7620   40.5460 C   0  0  0  0  0  0  0  0  0  0  0  0
   38.9900   33.2060   41.2260 O   0  0  0  0  0  0  0  0  0  0  0  0
   36.8720   33.1600   39.8420 N   0  0  0  0  0  0  0  0  0  0  0  0
   36.6290   33.1520   38.8260 H   0  0  0  0  0  0  0  0  0  0  0  0
   35.9050   33.5720   40.0320 H   0  0  0  0  0  0  0  0  0  0  0  0
  1  2  2  0  0  0  0
  1  6  1  0  0  0  0
  2  3  1  0  0  0  0
  3  9  1  0  0  0  0
  3  4  2  0  0  0  0
  5  4  1  0  0  0  0
  5  8  1  0  0  0  0
  6  5  2  0  0  0  0
  7  1  1  0  0  0  0
  9 10  1  0  0  0  0
 10 19  1  0  0  0  0
 10 11  2  0  0  0  0
 11 20  1  0  0  0  0
 12 11  1  0  0  0  0
 12 21  1  0  0  0  0
 13 12  2  0  0  0  0
 14 13  1  0  0  0  0
 14 22  1  0  0  0  0
 15 14  2  0  0  0  0
 16 17  2  0  0  0  0
 16 15  1  0  0  0  0
 17 18  1  0  0  0  0
 18  9  2  0  0  0  0
 18 13  1  0  0  0  0
 23 15  1  0  0  0  0
 24 16  1  0  0  0  0
 25 17  1  0  0  0  0
 26  2  1  0  0  0  0
 28 27  2  6  0  0  0
 28 26  1  0  0  0  0
 28 42  1  0  0  0  0
 29 28  1  0  0  0  0
 29 30  1  0  0  0  0
 30 32  1  0  0  0  0
 30 31  1  0  0  0  0
 33 34  1  0  0  0  0
 34 35  1  0  0  0  0
 35 36  2  0  0  0  0
 35 30  1  0  0  0  0
 36 37  1  0  0  0  0
 38 39  1  0  0  0  0
 38 36  1  0  0  0  0
 40 38  2  0  0  0  0
 41 40  1  0  0  0  0
 41 34  2  0  0  0  0
 42 43  1  0  0  0  0
 43 44  2  0  0  0  0
 45 47  1  0  0  0  0
 45 43  1  0  0  0  0
 46 45  1  0  0  0  0
M  END
>  <minimizedAffinity>
-5.97072411

$$$$

 OpenBabel03252508113D

 47 50  0  0  0  0  0  0  0  0999 V2000
   37.0210   29.6840   37.1410 C   0  0  0  0  0  0  0  0  0  0  0  0
   37.4750   29.2660   38.3840 C   0  0  0  0  0  0  0  0  0  0  0  0
   36.5880   28.8350   39.3330 C   0  0  0  0  0  0  0  0  0  0  0  0
   35.2530   28.8410   38.9820 N   0  0  0  0  0  0  0  0  0  0  0  0
   34.8250   29.2380   37.8000 C   0  0  0  0  0  0  0  0  0  0  0  0
   35.7180   29.6610   36.8810 N   0  0  0  0  0  0  0  0  0  0  0  0
   37.7330   30.0350   36.3860 H   0  0  0  0  0  0  0  0  0  0  0  0
   33.7520   29.2290   37.5490 H   0  0  0  0  0  0  0  0  0  0  0  0
   36.8860   28.3820   40.6470 C   0  0  0  0  0  0  0  0  0  0  0  0
   37.2340   29.2380   41.6910 C   0  0  0  0  0  0  0  0  0  0  0  0
   37.5860   28.8180   42.9420 C   0  0  0  0  0  0  0  0  0  0  0  0
   37.6090   27.4630   43.2230 C   0  0  0  0  0  0  0  0  0  0  0  0
   37.2560   26.5690   42.1680 C   0  0  0  0  0  0  0  0  0  0  0  0
   37.2800   25.2290   42.4360 C   0  0  0  0  0  0  0  0  0  0  0  0
   36.9490   24.3150   41.4590 C   0  0  0  0  0  0  0  0  0  0  0  0
   36.5830   24.7880   40.1780 C   0  0  0  0  0  0  0  0  0  0  0  0
   36.5760   26.1780   39.9610 C   0  0  0  0  0  0  0  0  0  0  0  0
   36.9130   27.0490   40.9460 C   0  0  0  0  0  0  0  0  0  0  0  0
   37.2170   30.2850   41.4320 H   0  0  0  0  0  0  0  0  0  0  0  0
   37.8600   29.4780   43.7450 H   0  0  0  0  0  0  0  0  0  0  0  0
   37.8690   27.0150   44.1780 H   0  0  0  0  0  0  0  0  0  0  0  0
   37.5580   24.8390   43.4170 H   0  0  0  0  0  0  0  0  0  0  0  0
   36.9720   23.2470   41.6890 H   0  0  0  0  0  0  0  0  0  0  0  0
   36.3400   24.0040   39.4780 H   0  0  0  0  0  0  0  0  0  0  0  0
   36.2540   26.3090   38.9500 H   0  0  0  0  0  0  0  0  0  0  0  0
   38.8230   29.3080   38.5920 O   0  0  0  0  0  0  0  0  0  0  0  0
   38.7580   31.7280   39.6240 O   0  0  0  0  0  0  0  0  0  0  0  0
   39.6590   30.5920   39.2670 P   0  0  1  0  0  0  0  0  0  0  0  0
   40.4580   30.1280   40.6720 O   0  0  0  0  0  0  0  0  0  0  0  0
   41.3360   29.1180   40.3320 C   0  0  0  0  0  0  0  0  0  0  0  0
   42.3750   29.4720   40.5410 H   0  0  0  0  0  0  0  0  0  0  0  0
   41.3030   28.9110   39.2200 H   0  0  0  0  0  0  0  0  0  0  0  0
   41.7190   28.6690   43.4150 Cl  0  0  0  0  0  0  0  0  0  0  0  0
   41.2570   27.3470   42.3570 C   0  0  0  0  0  0  0  0  0  0  0  0
   41.0860   27.9060   41.1070 C   0  0  0  0  0  0  0  0  0  0  0  0
   40.6370   26.9590   40.1490 C   0  0  0  0  0  0  0  0  0  0  0  0
   40.4120   27.0890   39.0690 H   0  0  0  0  0  0  0  0  0  0  0  0
   40.3890   25.6150   40.3950 C   0  0  0  0  0  0  0  0  0  0  0  0
   40.0580   24.8390   39.7520 H   0  0  0  0  0  0  0  0  0  0  0  0
   40.6030   25.1610   41.6990 C   0  0  0  0  0  3  0  0  0  0  0  0
   41.0310   26.0260   42.6600 C   0  0  0  0  0  3  0  0  0  0  0  0
   40.8050   31.1220   38.1390 O   0  0  0  0  0  0  0  0  0  0  0  0
   40.7010   32.2150   37.3050 C   0  0  0  0  0  0  0  0  0  0  0  0
   41.7800   32.7890   37.3720 O   0  0  0  0  0  0  0  0  0  0  0  0
   39.4030   32.2860   36.6650 N   0  0  0  0  0  0  0  0  0  0  0  0
   38.9330   31.6530   35.9790 H   0  0  0  0  0  0  0  0  0  0  0  0
   38.5400   32.9140   36.6200 H   0  0  0  0  0  0  0  0  0  0  0  0
  1  2  1  0  0  0  0
  2 26  1  0  0  0  0
  2  3  2  0  0  0  0
  3  9  1  0  0  0  0
  4  3  1  0  0  0  0
  5  4  2  0  0  0  0
  6  1  2  0  0  0  0
  6  5  1  0  0  0  0
  7  1  1  0  0  0  0
  8  5  1  0  0  0  0
  9 18  2  0  0  0  0
  9 10  1  0  0  0  0
 10 11  2  0  0  0  0
 11 12  1  0  0  0  0
 11 20  1  0  0  0  0
 12 21  1  0  0  0  0
 13 14  1  0  0  0  0
 13 12  2  0  0  0  0
 14 22  1  0  0  0  0
 15 23  1  0  0  0  0
 15 14  2  0  0  0  0
 16 15  1  0  0  0  0
 17 16  2  0  0  0  0
 17 18  1  0  0  0  0
 18 13  1  0  0  0  0
 19 10  1  0  0  0  0
 24 16  1  0  0  0  0
 25 17  1  0  0  0  0
 26 28  1  0  0  0  0
 28 27  2  1  0  0  0
 28 29  1  0  0  0  0
 30 31  1  0  0  0  0
 30 29  1  0  0  0  0
 30 35  1  0  0  0  0
 32 30  1  0  0  0  0
 34 41  1  0  0  0  0
 34 33  1  0  0  0  0
 35 34  2  0  0  0  0
 36 38  2  0  0  0  0
 36 35  1  0  0  0  0
 37 36  1  0  0  0  0
 38 40  1  0  0  0  0
 39 38  1  0  0  0  0
 40 41  2  0  0  0  0
 42 28  1  0  0  0  0
 43 44  2  0  0  0  0
 43 42  1  0  0  0  0
 45 43  1  0  0  0  0
 46 45  1  0  0  0  0
 47 45  1  0  0  0  0
M  END
>  <minimizedAffinity>
-5.89562798

$$$$

 OpenBabel03252508113D

 47 50  0  0  0  0  0  0  0  0999 V2000
   36.2310   29.5770   37.0390 C   0  0  0  0  0  0  0  0  0  0  0  0
   37.0450   29.0340   38.0240 C   0  0  0  0  0  0  0  0  0  0  0  0
   37.8550   27.9700   37.7390 C   0  0  0  0  0  0  0  0  0  0  0  0
   37.8150   27.4880   36.4460 N   0  0  0  0  0  0  0  0  0  0  0  0
   37.0410   28.0060   35.5120 C   0  0  0  0  0  0  0  0  0  0  0  0
   36.2490   29.0540   35.8180 N   0  0  0  0  0  0  0  0  0  0  0  0
   35.5780   30.4260   37.2720 H   0  0  0  0  0  0  0  0  0  0  0  0
   37.0330   27.6000   34.4880 H   0  0  0  0  0  0  0  0  0  0  0  0
   38.7380   27.2970   38.6280 C   0  0  0  0  0  0  0  0  0  0  0  0
   40.0950   27.5960   38.7300 C   0  0  0  0  0  0  0  0  0  0  0  0
   40.9710   26.9180   39.5300 C   0  0  0  0  0  0  0  0  0  0  0  0
   40.5130   25.8640   40.3020 C   0  0  0  0  0  0  0  0  0  0  0  0
   39.1250   25.5430   40.2130 C   0  0  0  0  0  0  0  0  0  0  0  0
   38.6640   24.5010   40.9680 C   0  0  0  0  0  0  0  0  0  0  0  0
   37.3350   24.1410   40.9250 C   0  0  0  0  0  0  0  0  0  0  0  0
   36.4570   24.8690   40.0900 C   0  0  0  0  0  0  0  0  0  0  0  0
   36.9880   25.9330   39.3360 C   0  0  0  0  0  0  0  0  0  0  0  0
   38.3050   26.2560   39.4000 C   0  0  0  0  0  0  0  0  0  0  0  0
   40.4190   28.4140   38.1060 H   0  0  0  0  0  0  0  0  0  0  0  0
   42.0190   27.1460   39.6040 H   0  0  0  0  0  0  0  0  0  0  0  0
   41.1130   25.2600   40.9750 H   0  0  0  0  0  0  0  0  0  0  0  0
   39.3210   23.9240   41.6220 H   0  0  0  0  0  0  0  0  0  0  0  0
   36.9820   23.3070   41.5370 H   0  0  0  0  0  0  0  0  0  0  0  0
   35.4370   24.5200   40.1210 H   0  0  0  0  0  0  0  0  0  0  0  0
   36.1600   26.3490   38.8050 H   0  0  0  0  0  0  0  0  0  0  0  0
   36.9870   29.6150   39.2580 O   0  0  0  0  0  0  0  0  0  0  0  0
   37.1100   32.2150   39.6440 O   0  0  0  0  0  0  0  0  0  0  0  0
   37.8830   30.9420   39.7470 P   0  0  1  0  0  0  0  0  0  0  0  0
   38.3800   30.7860   41.3450 O   0  0  0  0  0  0  0  0  0  0  0  0
   37.6040   29.8010   41.9240 C   0  0  0  0  0  0  0  0  0  0  0  0
   36.9320   29.3790   41.1380 H   0  0  0  0  0  0  0  0  0  0  0  0
   36.9160   30.2380   42.7090 H   0  0  0  0  0  0  0  0  0  0  0  0
   36.6630   27.0540   43.1170 Cl  0  0  0  0  0  0  0  0  0  0  0  0
   38.3530   27.5290   43.1550 C   0  0  0  0  0  0  0  0  0  0  0  0
   38.4240   28.7250   42.4720 C   0  0  0  0  0  0  0  0  0  0  0  0
   39.7570   29.2030   42.3570 C   0  0  0  0  0  0  0  0  0  0  0  0
   40.1450   30.1250   41.8760 H   0  0  0  0  0  0  0  0  0  0  0  0
   40.8880   28.5730   42.8610 C   0  0  0  0  0  0  0  0  0  0  0  0
   41.9110   28.8490   42.8280 H   0  0  0  0  0  0  0  0  0  0  0  0
   40.6900   27.3680   43.5400 C   0  0  0  0  0  3  0  0  0  0  0  0
   39.4340   26.8610   43.6780 C   0  0  0  0  0  3  0  0  0  0  0  0
   39.2540   31.0410   38.7570 O   0  0  0  0  0  0  0  0  0  0  0  0
   39.8150   32.1860   38.2320 C   0  0  0  0  0  0  0  0  0  0  0  0
   40.3510   32.7560   39.1730 O   0  0  0  0  0  0  0  0  0  0  0  0
   39.5850   32.2950   36.8060 N   0  0  0  0  0  0  0  0  0  0  0  0
   39.9080   31.7080   36.0040 H   0  0  0  0  0  0  0  0  0  0  0  0
   39.0900   32.9230   36.0980 H   0  0  0  0  0  0  0  0  0  0  0  0
  1  7  1  0  0  0  0
  1  2  1  0  0  0  0
  2 26  1  0  0  0  0
  3  2  2  0  0  0  0
  3  9  1  0  0  0  0
  4  3  1  0  0  0  0
  5  6  1  0  0  0  0
  5  4  2  0  0  0  0
  6  1  2  0  0  0  0
  8  5  1  0  0  0  0
  9 10  2  0  0  0  0
  9 18  1  0  0  0  0
 10 11  1  0  0  0  0
 11 20  1  0  0  0  0
 11 12  2  0  0  0  0
 12 21  1  0  0  0  0
 13 12  1  0  0  0  0
 13 14  1  0  0  0  0
 14 22  1  0  0  0  0
 15 14  2  0  0  0  0
 15 23  1  0  0  0  0
 16 24  1  0  0  0  0
 16 15  1  0  0  0  0
 17 18  1  0  0  0  0
 17 16  2  0  0  0  0
 18 13  2  0  0  0  0
 19 10  1  0  0  0  0
 25 17  1  0  0  0  0
 26 28  1  0  0  0  0
 28 27  2  6  0  0  0
 28 29  1  0  0  0  0
 29 30  1  0  0  0  0
 30 35  1  0  0  0  0
 30 32  1  0  0  0  0
 31 30  1  0  0  0  0
 33 34  1  0  0  0  0
 34 41  1  0  0  0  0
 35 34  2  0  0  0  0
 36 35  1  0  0  0  0
 36 38  2  0  0  0  0
 37 36  1  0  0  0  0
 38 40  1  0  0  0  0
 39 38  1  0  0  0  0
 40 41  2  0  0  0  0
 42 28  1  0  0  0  0
 43 42  1  0  0  0  0
 43 44  2  0  0  0  0
 45 43  1  0  0  0  0
 46 45  1  0  0  0  0
 47 45  1  0  0  0  0
M  END
>  <minimizedAffinity>
-5.86167812

$$$$

 OpenBabel03252508113D

 47 50  0  0  0  0  0  0  0  0999 V2000
   42.4150   28.8440   40.9740 C   0  0  0  0  0  0  0  0  0  0  0  0
   41.0540   28.6220   41.1260 C   0  0  0  0  0  0  0  0  0  0  0  0
   40.5650   28.1060   42.2950 C   0  0  0  0  0  0  0  0  0  0  0  0
   41.4870   27.8320   43.2850 N   0  0  0  0  0  0  0  0  0  0  0  0
   42.7800   28.0440   43.1390 C   0  0  0  0  0  0  0  0  0  0  0  0
   43.2390   28.5510   41.9760 N   0  0  0  0  0  0  0  0  0  0  0  0
   42.8050   29.2510   40.0340 H   0  0  0  0  0  0  0  0  0  0  0  0
   43.4900   27.8160   43.9490 H   0  0  0  0  0  0  0  0  0  0  0  0
   39.2090   27.8160   42.6070 C   0  0  0  0  0  0  0  0  0  0  0  0
   38.3820   28.6890   43.3120 C   0  0  0  0  0  0  0  0  0  0  0  0
   37.0980   28.4010   43.6770 C   0  0  0  0  0  0  0  0  0  0  0  0
   36.5520   27.1740   43.3400 C   0  0  0  0  0  0  0  0  0  0  0  0
   37.3820   26.2660   42.6160 C   0  0  0  0  0  0  0  0  0  0  0  0
   36.8530   25.0510   42.2820 C   0  0  0  0  0  0  0  0  0  0  0  0
   37.6040   24.1300   41.5840 C   0  0  0  0  0  0  0  0  0  0  0  0
   38.9270   24.4650   41.2180 C   0  0  0  0  0  0  0  0  0  0  0  0
   39.4180   25.7310   41.5880 C   0  0  0  0  0  0  0  0  0  0  0  0
   38.6510   26.6120   42.2810 C   0  0  0  0  0  0  0  0  0  0  0  0
   38.8440   29.6290   43.5690 H   0  0  0  0  0  0  0  0  0  0  0  0
   36.4630   29.0730   44.2270 H   0  0  0  0  0  0  0  0  0  0  0  0
   35.5460   26.8390   43.5730 H   0  0  0  0  0  0  0  0  0  0  0  0
   35.8340   24.7680   42.5520 H   0  0  0  0  0  0  0  0  0  0  0  0
   37.1660   23.1640   41.3230 H   0  0  0  0  0  0  0  0  0  0  0  0
   39.4390   23.6870   40.6740 H   0  0  0  0  0  0  0  0  0  0  0  0
   40.4110   25.7800   41.1970 H   0  0  0  0  0  0  0  0  0  0  0  0
   40.2570   28.9450   40.0660 O   0  0  0  0  0  0  0  0  0  0  0  0
   40.8930   31.4960   39.9500 O   0  0  0  0  0  0  0  0  0  0  0  0
   40.3790   30.3430   39.1520 P   0  0  1  0  0  0  0  0  0  0  0  0
   41.4230   30.1310   37.8510 O   0  0  0  0  0  0  0  0  0  0  0  0
   41.6240   31.3720   37.2780 C   0  0  0  0  0  0  0  0  0  0  0  0
   41.3480   32.1520   38.0290 H   0  0  0  0  0  0  0  0  0  0  0  0
   40.9240   31.5310   36.4030 H   0  0  0  0  0  0  0  0  0  0  0  0
   43.3140   29.7090   35.2200 Cl  0  0  0  0  0  0  0  0  0  0  0  0
   44.0470   30.9870   36.1740 C   0  0  0  0  0  0  0  0  0  0  0  0
   43.0180   31.5630   36.8890 C   0  0  0  0  0  0  0  0  0  0  0  0
   43.4520   32.6720   37.6630 C   0  0  0  0  0  0  0  0  0  0  0  0
   42.8780   33.3370   38.3400 H   0  0  0  0  0  0  0  0  0  0  0  0
   44.7530   33.1540   37.7260 C   0  0  0  0  0  0  0  0  0  0  0  0
   45.1700   33.9640   38.2700 H   0  0  0  0  0  0  0  0  0  0  0  0
   45.7130   32.4850   36.9610 C   0  0  0  0  0  3  0  0  0  0  0  0
   45.3520   31.4170   36.1980 C   0  0  0  0  0  3  0  0  0  0  0  0
   38.8380   30.7170   38.5590 O   0  0  0  0  0  0  0  0  0  0  0  0
   37.7700   31.2080   39.2800 C   0  0  0  0  0  0  0  0  0  0  0  0
   36.9710   31.6220   38.4510 O   0  0  0  0  0  0  0  0  0  0  0  0
   37.9660   31.0580   40.7070 N   0  0  0  0  0  0  0  0  0  0  0  0
   38.0480   30.2080   41.3100 H   0  0  0  0  0  0  0  0  0  0  0  0
   38.0730   31.6490   41.5910 H   0  0  0  0  0  0  0  0  0  0  0  0
  1  2  2  0  0  0  0
  1  6  1  0  0  0  0
  2  3  1  0  0  0  0
  3  9  1  0  0  0  0
  3  4  2  0  0  0  0
  5  4  1  0  0  0  0
  5  8  1  0  0  0  0
  6  5  2  0  0  0  0
  7  1  1  0  0  0  0
  9 10  1  0  0  0  0
 10 19  1  0  0  0  0
 10 11  2  0  0  0  0
 11 20  1  0  0  0  0
 12 21  1  0  0  0  0
 12 11  1  0  0  0  0
 13 12  2  0  0  0  0
 14 22  1  0  0  0  0
 14 13  1  0  0  0  0
 15 14  2  0  0  0  0
 16 15  1  0  0  0  0
 16 17  2  0  0  0  0
 17 18  1  0  0  0  0
 18  9  2  0  0  0  0
 18 13  1  0  0  0  0
 23 15  1  0  0  0  0
 24 16  1  0  0  0  0
 25 17  1  0  0  0  0
 26  2  1  0  0  0  0
 28 27  2  1  0  0  0
 28 26  1  0  0  0  0
 29 28  1  0  0  0  0
 30 29  1  0  0  0  0
 30 31  1  0  0  0  0
 32 30  1  0  0  0  0
 33 34  1  0  0  0  0
 34 41  2  0  0  0  0
 34 35  1  0  0  0  0
 35 30  1  0  0  0  0
 35 36  2  0  0  0  0
 36 38  1  0  0  0  0
 36 37  1  0  0  0  0
 38 39  1  0  0  0  0
 40 38  2  0  0  0  0
 41 40  1  0  0  0  0
 42 28  1  0  0  0  0
 42 43  1  0  0  0  0
 43 45  1  0  0  0  0
 44 43  2  0  0  0  0
 45 46  1  0  0  0  0
 45 47  1  0  0  0  0
M  END
>  <minimizedAffinity>
-5.82716656

$$$$

 OpenBabel03252508113D

 47 50  0  0  0  0  0  0  0  0999 V2000
   40.3540   32.5600   39.0920 C   0  0  0  0  0  0  0  0  0  0  0  0
   39.4750   31.4880   39.1730 C   0  0  0  0  0  0  0  0  0  0  0  0
   38.3750   31.5590   39.9830 C   0  0  0  0  0  0  0  0  0  0  0  0
   38.1990   32.7310   40.6900 N   0  0  0  0  0  0  0  0  0  0  0  0
   39.0350   33.7480   40.6110 C   0  0  0  0  0  0  0  0  0  0  0  0
   40.1140   33.6540   39.8070 N   0  0  0  0  0  0  0  0  0  0  0  0
   41.2380   32.4980   38.4480 H   0  0  0  0  0  0  0  0  0  0  0  0
   38.8660   34.6710   41.1870 H   0  0  0  0  0  0  0  0  0  0  0  0
   37.3880   30.5550   40.1820 C   0  0  0  0  0  0  0  0  0  0  0  0
   36.2840   30.3910   39.3470 C   0  0  0  0  0  0  0  0  0  0  0  0
   35.2920   29.4760   39.5590 C   0  0  0  0  0  0  0  0  0  0  0  0
   35.3580   28.6440   40.6630 C   0  0  0  0  0  0  0  0  0  0  0  0
   36.4800   28.7960   41.5310 C   0  0  0  0  0  0  0  0  0  0  0  0
   36.5520   27.9820   42.6260 C   0  0  0  0  0  0  0  0  0  0  0  0
   37.6100   28.0800   43.5030 C   0  0  0  0  0  0  0  0  0  0  0  0
   38.6210   29.0340   43.2480 C   0  0  0  0  0  0  0  0  0  0  0  0
   38.4960   29.8440   42.1040 C   0  0  0  0  0  0  0  0  0  0  0  0
   37.4350   29.7230   41.2650 C   0  0  0  0  0  0  0  0  0  0  0  0
   36.2600   31.0640   38.5040 H   0  0  0  0  0  0  0  0  0  0  0  0
   34.4380   29.3540   38.9170 H   0  0  0  0  0  0  0  0  0  0  0  0
   34.6330   27.8810   40.9290 H   0  0  0  0  0  0  0  0  0  0  0  0
   35.7840   27.2360   42.8450 H   0  0  0  0  0  0  0  0  0  0  0  0
   37.6530   27.4200   44.3730 H   0  0  0  0  0  0  0  0  0  0  0  0
   39.4100   29.0400   43.9830 H   0  0  0  0  0  0  0  0  0  0  0  0
   39.3650   30.4650   42.0950 H   0  0  0  0  0  0  0  0  0  0  0  0
   39.7700   30.3930   38.4130 O   0  0  0  0  0  0  0  0  0  0  0  0
   41.9910   29.7180   39.6530 O   0  0  0  0  0  0  0  0  0  0  0  0
   40.8640   29.1950   38.8250 P   0  0  1  0  0  0  0  0  0  0  0  0
   40.1220   27.9700   39.7080 O   0  0  0  0  0  0  0  0  0  0  0  0
   39.1020   27.4610   38.9290 C   0  0  0  0  0  0  0  0  0  0  0  0
   39.5480   27.0550   37.9890 H   0  0  0  0  0  0  0  0  0  0  0  0
   38.3960   28.2830   38.6010 H   0  0  0  0  0  0  0  0  0  0  0  0
   36.3390   26.1730   38.1790 Cl  0  0  0  0  0  0  0  0  0  0  0  0
   37.1860   25.7130   39.6460 C   0  0  0  0  0  0  0  0  0  0  0  0
   38.3890   26.3870   39.6150 C   0  0  0  0  0  0  0  0  0  0  0  0
   39.2230   26.0550   40.7160 C   0  0  0  0  0  0  0  0  0  0  0  0
   40.2370   26.4230   40.9780 H   0  0  0  0  0  0  0  0  0  0  0  0
   38.9040   25.1640   41.7320 C   0  0  0  0  0  0  0  0  0  0  0  0
   39.4530   24.8570   42.5860 H   0  0  0  0  0  0  0  0  0  0  0  0
   37.6540   24.5440   41.6600 C   0  0  0  0  0  3  0  0  0  0  0  0
   36.8140   24.8220   40.6240 C   0  0  0  0  0  3  0  0  0  0  0  0
   41.4830   28.5360   37.3930 O   0  0  0  0  0  0  0  0  0  0  0  0
   42.2510   29.1820   36.4490 C   0  0  0  0  0  0  0  0  0  0  0  0
   42.8590   28.3020   35.8550 O   0  0  0  0  0  0  0  0  0  0  0  0
   42.0660   30.6180   36.4920 N   0  0  0  0  0  0  0  0  0  0  0  0
   41.2300   31.2160   36.2960 H   0  0  0  0  0  0  0  0  0  0  0  0
   42.6130   31.5140   36.6900 H   0  0  0  0  0  0  0  0  0  0  0  0
  1  2  2  0  0  0  0
  1  6  1  0  0  0  0
  2  3  1  0  0  0  0
  3  9  1  0  0  0  0
  3  4  2  0  0  0  0
  5  4  1  0  0  0  0
  5  8  1  0  0  0  0
  6  5  2  0  0  0  0
  7  1  1  0  0  0  0
  9 18  1  0  0  0  0
 10 11  1  0  0  0  0
 10  9  2  0  0  0  0
 11 12  2  0  0  0  0
 12 21  1  0  0  0  0
 12 13  1  0  0  0  0
 13 14  1  0  0  0  0
 14 22  1  0  0  0  0
 14 15  2  0  0  0  0
 15 23  1  0  0  0  0
 16 15  1  0  0  0  0
 16 24  1  0  0  0  0
 17 16  2  0  0  0  0
 18 13  2  0  0  0  0
 18 17  1  0  0  0  0
 19 10  1  0  0  0  0
 20 11  1  0  0  0  0
 25 17  1  0  0  0  0
 26 28  1  0  0  0  0
 26  2  1  0  0  0  0
 28 27  2  1  0  0  0
 28 29  1  0  0  0  0
 30 35  1  0  0  0  0
 30 29  1  0  0  0  0
 31 30  1  0  0  0  0
 32 30  1  0  0  0  0
 33 34  1  0  0  0  0
 34 41  1  0  0  0  0
 35 34  2  0  0  0  0
 35 36  1  0  0  0  0
 36 37  1  0  0  0  0
 36 38  2  0  0  0  0
 38 39  1  0  0  0  0
 40 38  1  0  0  0  0
 41 40  2  0  0  0  0
 42 28  1  0  0  0  0
 43 45  1  0  0  0  0
 43 42  1  0  0  0  0
 44 43  2  0  0  0  0
 45 47  1  0  0  0  0
 46 45  1  0  0  0  0
M  END
>  <minimizedAffinity>
-5.82436943

$$$$

 OpenBabel03252508113D

 47 50  0  0  0  0  0  0  0  0999 V2000
   37.6830   31.5500   38.0970 C   0  0  0  0  0  0  0  0  0  0  0  0
   38.3480   30.6350   38.9030 C   0  0  0  0  0  0  0  0  0  0  0  0
   38.5460   30.9020   40.2300 C   0  0  0  0  0  0  0  0  0  0  0  0
   38.0530   32.1020   40.7020 N   0  0  0  0  0  0  0  0  0  0  0  0
   37.4220   32.9690   39.9350 C   0  0  0  0  0  0  0  0  0  0  0  0
   37.2400   32.6850   38.6280 N   0  0  0  0  0  0  0  0  0  0  0  0
   37.5320   31.3370   37.0330 H   0  0  0  0  0  0  0  0  0  0  0  0
   37.0380   33.9180   40.3420 H   0  0  0  0  0  0  0  0  0  0  0  0
   39.2070   30.0810   41.1830 C   0  0  0  0  0  0  0  0  0  0  0  0
   40.5890   30.0760   41.3620 C   0  0  0  0  0  0  0  0  0  0  0  0
   41.2480   29.2480   42.2250 C   0  0  0  0  0  0  0  0  0  0  0  0
   40.5260   28.3450   42.9870 C   0  0  0  0  0  0  0  0  0  0  0  0
   39.1090   28.3340   42.8200 C   0  0  0  0  0  0  0  0  0  0  0  0
   38.3880   27.4430   43.5640 C   0  0  0  0  0  0  0  0  0  0  0  0
   37.0160   27.3830   43.4480 C   0  0  0  0  0  0  0  0  0  0  0  0
   36.3690   28.2600   42.5480 C   0  0  0  0  0  0  0  0  0  0  0  0
   37.1620   29.1560   41.8080 C   0  0  0  0  0  0  0  0  0  0  0  0
   38.5130   29.1840   41.9460 C   0  0  0  0  0  0  0  0  0  0  0  0
   41.1200   30.7830   40.7430 H   0  0  0  0  0  0  0  0  0  0  0  0
   42.3150   29.2410   42.3580 H   0  0  0  0  0  0  0  0  0  0  0  0
   40.9400   27.6440   43.7050 H   0  0  0  0  0  0  0  0  0  0  0  0
   38.8640   26.7560   44.2670 H   0  0  0  0  0  0  0  0  0  0  0  0
   36.4550   26.6660   44.0510 H   0  0  0  0  0  0  0  0  0  0  0  0
   35.2960   28.1440   42.5230 H   0  0  0  0  0  0  0  0  0  0  0  0
   36.4770   29.7280   41.2200 H   0  0  0  0  0  0  0  0  0  0  0  0
   38.7760   29.4860   38.3040 O   0  0  0  0  0  0  0  0  0  0  0  0
   38.5080   27.2940   36.8740 O   0  0  0  0  0  0  0  0  0  0  0  0
   37.7870   28.2450   37.7710 P   0  0  1  0  0  0  0  0  0  0  0  0
   37.1800   27.3530   39.0610 O   0  0  0  0  0  0  0  0  0  0  0  0
   37.6280   26.0550   38.9110 C   0  0  0  0  0  0  0  0  0  0  0  0
   38.2750   26.0110   38.0010 H   0  0  0  0  0  0  0  0  0  0  0  0
   36.7650   25.3520   38.7050 H   0  0  0  0  0  0  0  0  0  0  0  0
   40.6280   26.6900   39.5810 Cl  0  0  0  0  0  0  0  0  0  0  0  0
   39.6870   25.5960   40.5800 C   0  0  0  0  0  0  0  0  0  0  0  0
   38.4080   25.6200   40.0660 C   0  0  0  0  0  0  0  0  0  0  0  0
   37.5050   24.8280   40.8240 C   0  0  0  0  0  0  0  0  0  0  0  0
   36.4220   24.6380   40.6720 H   0  0  0  0  0  0  0  0  0  0  0  0
   37.8300   24.0930   41.9570 C   0  0  0  0  0  0  0  0  0  0  0  0
   37.2340   23.4770   42.5810 H   0  0  0  0  0  0  0  0  0  0  0  0
   39.1600   24.1410   42.3810 C   0  0  0  0  0  3  0  0  0  0  0  0
   40.0690   24.8880   41.6940 C   0  0  0  0  0  3  0  0  0  0  0  0
   36.4900   28.9340   36.9270 O   0  0  0  0  0  0  0  0  0  0  0  0
   36.2160   28.8050   35.5820 C   0  0  0  0  0  0  0  0  0  0  0  0
   35.0000   28.7000   35.4990 O   0  0  0  0  0  0  0  0  0  0  0  0
   37.4210   28.8460   34.7780 N   0  0  0  0  0  0  0  0  0  0  0  0
   38.1200   29.6060   34.6150 H   0  0  0  0  0  0  0  0  0  0  0  0
   37.9910   28.2310   34.1160 H   0  0  0  0  0  0  0  0  0  0  0  0
  1  6  2  0  0  0  0
  1  2  1  0  0  0  0
  2  3  2  0  0  0  0
  3  4  1  0  0  0  0
  3  9  1  0  0  0  0
  5  8  1  0  0  0  0
  5  4  2  0  0  0  0
  6  5  1  0  0  0  0
  7  1  1  0  0  0  0
  9 10  2  0  0  0  0
  9 18  1  0  0  0  0
 10 11  1  0  0  0  0
 11 20  1  0  0  0  0
 11 12  2  0  0  0  0
 12 21  1  0  0  0  0
 13 12  1  0  0  0  0
 13 14  1  0  0  0  0
 14 22  1  0  0  0  0
 15 14  2  0  0  0  0
 15 23  1  0  0  0  0
 16 15  1  0  0  0  0
 17 18  1  0  0  0  0
 17 16  2  0  0  0  0
 18 13  2  0  0  0  0
 19 10  1  0  0  0  0
 24 16  1  0  0  0  0
 25 17  1  0  0  0  0
 26  2  1  0  0  0  0
 28 27  2  6  0  0  0
 28 26  1  0  0  0  0
 28 29  1  0  0  0  0
 30 29  1  0  0  0  0
 30 35  1  0  0  0  0
 31 30  1  0  0  0  0
 32 30  1  0  0  0  0
 33 34  1  0  0  0  0
 34 41  1  0  0  0  0
 35 34  2  0  0  0  0
 35 36  1  0  0  0  0
 36 38  2  0  0  0  0
 37 36  1  0  0  0  0
 38 40  1  0  0  0  0
 38 39  1  0  0  0  0
 41 40  2  0  0  0  0
 42 28  1  0  0  0  0
 43 42  1  0  0  0  0
 44 43  2  0  0  0  0
 45 43  1  0  0  0  0
 46 45  1  0  0  0  0
 47 45  1  0  0  0  0
M  END
>  <minimizedAffinity>
-5.79503727

$$$$

 OpenBabel03252508113D

 47 50  0  0  0  0  0  0  0  0999 V2000
   42.8860   28.0550   40.6220 C   0  0  0  0  0  0  0  0  0  0  0  0
   41.5240   28.1610   40.8690 C   0  0  0  0  0  0  0  0  0  0  0  0
   40.9770   27.5800   41.9800 C   0  0  0  0  0  0  0  0  0  0  0  0
   41.8430   26.9040   42.8170 N   0  0  0  0  0  0  0  0  0  0  0  0
   43.1360   26.8050   42.5800 C   0  0  0  0  0  0  0  0  0  0  0  0
   43.6520   27.3840   41.4760 N   0  0  0  0  0  0  0  0  0  0  0  0
   43.3200   28.5150   39.7280 H   0  0  0  0  0  0  0  0  0  0  0  0
   43.8020   26.2600   43.2680 H   0  0  0  0  0  0  0  0  0  0  0  0
   39.6110   27.5910   42.3730 C   0  0  0  0  0  0  0  0  0  0  0  0
   39.0180   28.6540   43.0520 C   0  0  0  0  0  0  0  0  0  0  0  0
   37.7260   28.6560   43.4940 C   0  0  0  0  0  0  0  0  0  0  0  0
   36.9270   27.5480   43.2690 C   0  0  0  0  0  0  0  0  0  0  0  0
   37.5150   26.4490   42.5740 C   0  0  0  0  0  0  0  0  0  0  0  0
   36.7360   25.3480   42.3510 C   0  0  0  0  0  0  0  0  0  0  0  0
   37.2450   24.2540   41.6860 C   0  0  0  0  0  0  0  0  0  0  0  0
   38.5850   24.2910   41.2380 C   0  0  0  0  0  0  0  0  0  0  0  0
   39.3390   25.4500   41.4950 C   0  0  0  0  0  0  0  0  0  0  0  0
   38.8060   26.5080   42.1580 C   0  0  0  0  0  0  0  0  0  0  0  0
   39.6730   29.4950   43.2210 H   0  0  0  0  0  0  0  0  0  0  0  0
   37.2710   29.4750   44.0230 H   0  0  0  0  0  0  0  0  0  0  0  0
   35.8900   27.4390   43.5700 H   0  0  0  0  0  0  0  0  0  0  0  0
   35.6980   25.2960   42.6860 H   0  0  0  0  0  0  0  0  0  0  0  0
   36.6080   23.3830   41.5140 H   0  0  0  0  0  0  0  0  0  0  0  0
   38.8980   23.3930   40.7270 H   0  0  0  0  0  0  0  0  0  0  0  0
   40.2980   25.2730   41.0570 H   0  0  0  0  0  0  0  0  0  0  0  0
   40.7880   28.8640   39.9590 O   0  0  0  0  0  0  0  0  0  0  0  0
   42.0630   30.5340   38.3750 O   0  0  0  0  0  0  0  0  0  0  0  0
   41.0780   30.4460   39.4930 P   0  0  1  0  0  0  0  0  0  0  0  0
   39.6660   31.1980   38.9760 O   0  0  0  0  0  0  0  0  0  0  0  0
   38.9080   30.2460   38.3220 C   0  0  0  0  0  0  0  0  0  0  0  0
   39.4810   29.2860   38.3180 H   0  0  0  0  0  0  0  0  0  0  0  0
   38.7670   30.5200   37.2330 H   0  0  0  0  0  0  0  0  0  0  0  0
   36.9820   32.3840   39.5760 Cl  0  0  0  0  0  0  0  0  0  0  0  0
   36.6510   30.6670   39.7250 C   0  0  0  0  0  0  0  0  0  0  0  0
   37.6280   30.0290   38.9890 C   0  0  0  0  0  0  0  0  0  0  0  0
   37.4470   28.6200   38.9570 C   0  0  0  0  0  0  0  0  0  0  0  0
   38.0540   27.8340   38.4610 H   0  0  0  0  0  0  0  0  0  0  0  0
   36.4210   27.9230   39.5820 C   0  0  0  0  0  0  0  0  0  0  0  0
   36.2060   26.8850   39.6170 H   0  0  0  0  0  0  0  0  0  0  0  0
   35.4930   28.6770   40.3040 C   0  0  0  0  0  3  0  0  0  0  0  0
   35.6150   30.0320   40.3660 C   0  0  0  0  0  3  0  0  0  0  0  0
   41.6820   31.2850   40.8350 O   0  0  0  0  0  0  0  0  0  0  0  0
   41.0200   31.5400   42.0180 C   0  0  0  0  0  0  0  0  0  0  0  0
   41.7390   31.0970   42.9030 O   0  0  0  0  0  0  0  0  0  0  0  0
   39.7620   32.2230   41.7970 N   0  0  0  0  0  0  0  0  0  0  0  0
   39.5450   33.1700   41.4120 H   0  0  0  0  0  0  0  0  0  0  0  0
   38.7120   32.0780   41.9290 H   0  0  0  0  0  0  0  0  0  0  0  0
  1  2  2  0  0  0  0
  1  6  1  0  0  0  0
  2  3  1  0  0  0  0
  3  9  1  0  0  0  0
  3  4  2  0  0  0  0
  5  4  1  0  0  0  0
  5  8  1  0  0  0  0
  6  5  2  0  0  0  0
  7  1  1  0  0  0  0
  9 10  1  0  0  0  0
 10 19  1  0  0  0  0
 10 11  2  0  0  0  0
 11 20  1  0  0  0  0
 12 11  1  0  0  0  0
 12 21  1  0  0  0  0
 13 12  2  0  0  0  0
 14 13  1  0  0  0  0
 14 22  1  0  0  0  0
 15 14  2  0  0  0  0
 16 17  2  0  0  0  0
 16 15  1  0  0  0  0
 17 18  1  0  0  0  0
 18  9  2  0  0  0  0
 18 13  1  0  0  0  0
 23 15  1  0  0  0  0
 24 16  1  0  0  0  0
 25 17  1  0  0  0  0
 26  2  1  0  0  0  0
 28 27  2  6  0  0  0
 28 26  1  0  0  0  0
 28 42  1  0  0  0  0
 29 28  1  0  0  0  0
 30 29  1  0  0  0  0
 30 35  1  0  0  0  0
 31 30  1  0  0  0  0
 32 30  1  0  0  0  0
 33 34  1  0  0  0  0
 34 41  1  0  0  0  0
 35 34  2  0  0  0  0
 36 35  1  0  0  0  0
 36 38  2  0  0  0  0
 37 36  1  0  0  0  0
 38 39  1  0  0  0  0
 38 40  1  0  0  0  0
 40 41  2  0  0  0  0
 42 43  1  0  0  0  0
 43 44  2  0  0  0  0
 45 47  1  0  0  0  0
 45 43  1  0  0  0  0
 46 45  1  0  0  0  0
M  END
>  <minimizedAffinity>
-5.77555132

$$$$
