
 OpenBabel03242522333D

 21 22  0  0  0  0  0  0  0  0999 V2000
   46.0310   31.2530   45.6480 C   0  0  0  0  0  0  0  0  0  0  0  0
   45.8510   30.3240   45.1150 H   0  0  0  0  0  0  0  0  0  0  0  0
   45.0760   31.5550   46.1530 H   0  0  0  0  0  0  0  0  0  0  0  0
   45.9250   34.4990   43.8330 C   0  0  0  0  0  0  0  0  0  0  0  0
   47.1170   34.4740   43.1110 C   0  0  0  0  0  0  0  0  0  0  0  0
   47.9430   33.3470   43.2530 C   0  0  0  0  0  0  0  0  0  0  0  0
   47.5490   32.3390   44.0810 N   0  0  0  0  0  0  0  0  0  0  0  0
   46.3780   32.4080   44.7640 C   0  0  0  0  0  0  0  0  0  0  0  0
   45.5940   33.4850   44.6250 N   0  0  0  0  0  0  0  0  0  0  0  0
   45.3040   35.3900   43.7010 H   0  0  0  0  0  0  0  0  0  0  0  0
   47.4730   35.2470   42.4430 H   0  0  0  0  0  0  0  0  0  0  0  0
   48.8910   33.1960   42.7540 H   0  0  0  0  0  0  0  0  0  0  0  0
   47.7210   28.6950   45.6570 Cl  0  0  0  0  0  0  0  0  0  0  0  0
   47.8660   29.9810   46.8210 C   0  0  0  0  0  0  0  0  0  0  0  0
   47.0580   31.0940   46.7320 C   0  0  0  0  0  0  0  0  0  0  0  0
   47.1680   32.1160   47.6530 C   0  0  0  0  0  0  0  0  0  0  0  0
   46.5200   32.9930   47.5690 H   0  0  0  0  0  0  0  0  0  0  0  0
   48.0690   32.0950   48.6960 C   0  0  0  0  0  0  0  0  0  0  0  0
   48.1050   32.9260   49.3830 H   0  0  0  0  0  0  0  0  0  0  0  0
   48.8910   30.9670   48.7920 C   0  0  0  0  0  0  0  0  0  0  0  0
   48.7820   29.9400   47.8680 C   0  0  0  0  0  0  0  0  0  0  0  0
  1  3  1  0  0  0  0
  1 15  1  0  0  0  0
  2  1  1  0  0  0  0
  4  9  1  0  0  0  0
  5  6  1  0  0  0  0
  5  4  2  0  0  0  0
  6  7  2  0  0  0  0
  7  8  1  0  0  0  0
  8  1  1  0  0  0  0
  9  8  2  0  0  0  0
 10  4  1  0  0  0  0
 11  5  1  0  0  0  0
 12  6  1  0  0  0  0
 13 14  1  0  0  0  0
 14 21  1  0  0  0  0
 15 14  2  0  0  0  0
 15 16  1  0  0  0  0
 16 18  2  0  0  0  0
 17 16  1  0  0  0  0
 18 20  1  0  0  0  0
 18 19  1  0  0  0  0
 21 20  2  0  0  0  0
M  END
>  <minimizedAffinity>
-3.46022224

>  <minimizedRMSD>
2.62460637

$$$$
