
 OpenBabel03252506323D

 32 34  0  0  1  0  0  0  0  0999 V2000
   37.6770   32.9190   39.6620 C   0  0  0  0  0  0  0  0  0  0  0  0
   38.4410   32.8790   40.8270 C   0  0  0  0  0  0  0  0  0  0  0  0
   38.7730   31.6420   41.3770 C   0  0  0  0  0  0  0  0  0  0  0  0
   38.3190   30.5420   40.7220 N   0  0  0  0  0  0  0  0  0  0  0  0
   37.5900   30.6040   39.6100 C   0  0  0  0  0  0  0  0  0  0  0  0
   37.2620   31.7780   39.0690 N   0  0  0  0  0  0  0  0  0  0  0  0
   37.1790   29.3810   39.0190 N   0  0  0  0  0  0  0  0  0  0  0  0
   36.6310   29.2650   37.6570 C   0  0  0  0  0  0  0  0  0  0  0  0
   35.5910   28.1940   37.8440 C   0  0  0  0  0  0  0  0  0  0  0  0
   35.8230   27.5800   39.1970 C   0  0  0  0  0  0  0  0  0  0  0  0
   37.1950   28.0560   39.5490 C   0  0  2  0  0  0  0  0  0  0  0  0
   37.3530   33.8130   39.1370 H   0  0  0  0  0  0  0  0  0  0  0  0
   39.3550   31.6640   42.2630 H   0  0  0  0  0  0  0  0  0  0  0  0
   37.4310   28.9480   36.9500 H   0  0  0  0  0  0  0  0  0  0  0  0
   36.1450   30.2110   37.4140 H   0  0  0  0  0  0  0  0  0  0  0  0
   34.5600   28.5630   37.6850 H   0  0  0  0  0  0  0  0  0  0  0  0
   35.7900   27.4070   37.0750 H   0  0  0  0  0  0  0  0  0  0  0  0
   35.1170   28.0880   39.9150 H   0  0  0  0  0  0  0  0  0  0  0  0
   35.7140   26.4790   39.2190 H   0  0  0  0  0  0  0  0  0  0  0  0
   37.9120   27.4830   38.8880 H   0  0  0  0  0  0  0  0  0  0  0  0
   40.0900   27.4130   40.1820 Cl  0  0  0  0  0  0  0  0  0  0  0  0
   38.8160   27.5740   41.3960 C   0  0  0  0  0  0  0  0  0  0  0  0
   37.5230   27.8890   40.9610 C   0  0  0  0  0  0  0  0  0  0  0  0
   36.6480   27.9800   42.0170 C   0  0  0  0  0  0  0  0  0  0  0  0
   35.5970   28.2090   41.7990 H   0  0  0  0  0  0  0  0  0  0  0  0
   36.9470   27.7950   43.3430 C   0  0  0  0  0  0  0  0  0  0  0  0
   36.2010   27.8830   44.1200 H   0  0  0  0  0  0  0  0  0  0  0  0
   38.2430   27.4880   43.6800 C   0  0  0  0  0  3  0  0  0  0  0  0
   39.1850   27.3770   42.6960 C   0  0  0  0  0  3  0  0  0  0  0  0
   38.8270   34.1610   41.3600 N   0  0  0  0  0  0  0  0  0  0  0  0
   39.8380   34.4260   41.5190 H   0  0  0  0  0  0  0  0  0  0  0  0
   38.1290   34.9030   41.6210 H   0  0  0  0  0  0  0  0  0  0  0  0
  1  2  1  0  0  0  0
  2 30  1  0  0  0  0
  2  3  2  0  0  0  0
  3 13  1  0  0  0  0
  4  3  1  0  0  0  0
  5  4  2  0  0  0  0
  6  5  1  0  0  0  0
  6  1  2  0  0  0  0
  7 11  1  0  0  0  0
  7  5  1  0  0  0  0
  8  9  1  0  0  0  0
  8  7  1  0  0  0  0
  9 10  1  0  0  0  0
 10 19  1  0  0  0  0
 10 11  1  0  0  0  0
 10 18  1  0  0  0  0
 11 20  1  6  0  0  0
 11 23  1  0  0  0  0
 12  1  1  0  0  0  0
 14  8  1  0  0  0  0
 15  8  1  0  0  0  0
 16  9  1  0  0  0  0
 17  9  1  0  0  0  0
 21 22  1  0  0  0  0
 22 29  1  0  0  0  0
 23 22  2  0  0  0  0
 23 24  1  0  0  0  0
 24 26  2  0  0  0  0
 25 24  1  0  0  0  0
 26 28  1  0  0  0  0
 26 27  1  0  0  0  0
 29 28  2  0  0  0  0
 30 31  1  0  0  0  0
 30 32  1  0  0  0  0
M  END
>  <minimizedAffinity>
-5.60923147

$$$$

 OpenBabel03252506323D

 32 34  0  0  1  0  0  0  0  0999 V2000
   37.3250   31.9610   38.3670 C   0  0  0  0  0  0  0  0  0  0  0  0
   37.3490   32.3750   39.6980 C   0  0  0  0  0  0  0  0  0  0  0  0
   37.7450   31.4710   40.6810 C   0  0  0  0  0  0  0  0  0  0  0  0
   38.0870   30.2250   40.2610 N   0  0  0  0  0  0  0  0  0  0  0  0
   38.0570   29.8510   38.9840 C   0  0  0  0  0  0  0  0  0  0  0  0
   37.6800   30.7020   38.0290 N   0  0  0  0  0  0  0  0  0  0  0  0
   38.4420   28.5210   38.6750 N   0  0  0  0  0  0  0  0  0  0  0  0
   38.7420   28.0430   37.3150 C   0  0  0  0  0  0  0  0  0  0  0  0
   38.1820   26.6480   37.3580 C   0  0  0  0  0  0  0  0  0  0  0  0
   37.8800   26.3340   38.7970 C   0  0  0  0  0  0  0  0  0  0  0  0
   38.6280   27.3970   39.5340 C   0  0  2  0  0  0  0  0  0  0  0  0
   37.0370   32.5660   37.5120 H   0  0  0  0  0  0  0  0  0  0  0  0
   37.7460   31.8330   41.6780 H   0  0  0  0  0  0  0  0  0  0  0  0
   39.8430   28.0440   37.1450 H   0  0  0  0  0  0  0  0  0  0  0  0
   38.1650   28.6500   36.6160 H   0  0  0  0  0  0  0  0  0  0  0  0
   37.3220   26.5090   36.6750 H   0  0  0  0  0  0  0  0  0  0  0  0
   38.9940   25.9570   37.0230 H   0  0  0  0  0  0  0  0  0  0  0  0
   36.7830   26.5470   38.9580 H   0  0  0  0  0  0  0  0  0  0  0  0
   38.1500   25.3050   39.1020 H   0  0  0  0  0  0  0  0  0  0  0  0
   39.7250   27.1360   39.4460 H   0  0  0  0  0  0  0  0  0  0  0  0
   40.8300   28.0670   41.5090 Cl  0  0  0  0  0  0  0  0  0  0  0  0
   39.1370   27.8200   41.9490 C   0  0  0  0  0  0  0  0  0  0  0  0
   38.2220   27.5300   40.9300 C   0  0  0  0  0  0  0  0  0  0  0  0
   36.9530   27.3660   41.4290 C   0  0  0  0  0  0  0  0  0  0  0  0
   36.1480   27.1200   40.7240 H   0  0  0  0  0  0  0  0  0  0  0  0
   36.5730   27.4620   42.7440 C   0  0  0  0  0  0  0  0  0  0  0  0
   35.5490   27.3190   43.0600 H   0  0  0  0  0  0  0  0  0  0  0  0
   37.5380   27.7500   43.6780 C   0  0  0  0  0  3  0  0  0  0  0  0
   38.8310   27.9310   43.2760 C   0  0  0  0  0  3  0  0  0  0  0  0
   36.9540   33.7410   39.9290 N   0  0  0  0  0  0  0  0  0  0  0  0
   37.5840   34.4380   40.4120 H   0  0  0  0  0  0  0  0  0  0  0  0
   36.0200   34.1220   39.6320 H   0  0  0  0  0  0  0  0  0  0  0  0
  1  2  1  0  0  0  0
  2 30  1  0  0  0  0
  2  3  2  0  0  0  0
  3 13  1  0  0  0  0
  4  3  1  0  0  0  0
  5  4  2  0  0  0  0
  6  1  2  0  0  0  0
  6  5  1  0  0  0  0
  7  5  1  0  0  0  0
  7 11  1  0  0  0  0
  8  9  1  0  0  0  0
  8  7  1  0  0  0  0
  9 10  1  0  0  0  0
 10 18  1  0  0  0  0
 10 19  1  0  0  0  0
 10 11  1  0  0  0  0
 11 20  1  6  0  0  0
 11 23  1  0  0  0  0
 12  1  1  0  0  0  0
 14  8  1  0  0  0  0
 15  8  1  0  0  0  0
 16  9  1  0  0  0  0
 17  9  1  0  0  0  0
 21 22  1  0  0  0  0
 22 29  1  0  0  0  0
 23 24  1  0  0  0  0
 23 22  2  0  0  0  0
 24 26  2  0  0  0  0
 25 24  1  0  0  0  0
 26 27  1  0  0  0  0
 26 28  1  0  0  0  0
 29 28  2  0  0  0  0
 30 31  1  0  0  0  0
 32 30  1  0  0  0  0
M  END
>  <minimizedAffinity>
-5.26690245

$$$$

 OpenBabel03252506323D

 32 34  0  0  1  0  0  0  0  0999 V2000
   39.9410   31.6540   39.2110 C   0  0  0  0  0  0  0  0  0  0  0  0
   39.3670   31.4900   37.9510 C   0  0  0  0  0  0  0  0  0  0  0  0
   38.3100   30.5950   37.8000 C   0  0  0  0  0  0  0  0  0  0  0  0
   37.9070   29.9330   38.9160 N   0  0  0  0  0  0  0  0  0  0  0  0
   38.4700   30.1050   40.1100 C   0  0  0  0  0  0  0  0  0  0  0  0
   39.4830   30.9580   40.2740 N   0  0  0  0  0  0  0  0  0  0  0  0
   37.9540   29.3570   41.2000 N   0  0  0  0  0  0  0  0  0  0  0  0
   38.2600   29.6370   42.6120 C   0  0  0  0  0  0  0  0  0  0  0  0
   38.3310   28.2480   43.1840 C   0  0  0  0  0  0  0  0  0  0  0  0
   37.7790   27.3100   42.1460 C   0  0  0  0  0  0  0  0  0  0  0  0
   37.0750   28.2320   41.2050 C   0  0  2  0  0  0  0  0  0  0  0  0
   40.7650   32.3170   39.4600 H   0  0  0  0  0  0  0  0  0  0  0  0
   37.9070   30.5050   36.8230 H   0  0  0  0  0  0  0  0  0  0  0  0
   37.4360   30.2320   43.0690 H   0  0  0  0  0  0  0  0  0  0  0  0
   39.2450   30.1030   42.6530 H   0  0  0  0  0  0  0  0  0  0  0  0
   39.3440   27.9810   43.5410 H   0  0  0  0  0  0  0  0  0  0  0  0
   37.6450   28.2200   44.0660 H   0  0  0  0  0  0  0  0  0  0  0  0
   38.6590   26.8890   41.5800 H   0  0  0  0  0  0  0  0  0  0  0  0
   37.1310   26.5120   42.5570 H   0  0  0  0  0  0  0  0  0  0  0  0
   36.1440   28.5880   41.7410 H   0  0  0  0  0  0  0  0  0  0  0  0
   34.5400   29.2100   39.8570 Cl  0  0  0  0  0  0  0  0  0  0  0  0
   35.6000   27.9580   39.2000 C   0  0  0  0  0  0  0  0  0  0  0  0
   36.7480   27.6150   39.9230 C   0  0  0  0  0  0  0  0  0  0  0  0
   37.4660   26.6320   39.2860 C   0  0  0  0  0  0  0  0  0  0  0  0
   38.3840   26.2680   39.7660 H   0  0  0  0  0  0  0  0  0  0  0  0
   37.1470   26.0290   38.0950 C   0  0  0  0  0  0  0  0  0  0  0  0
   37.7650   25.2590   37.6560 H   0  0  0  0  0  0  0  0  0  0  0  0
   36.0000   26.4280   37.4530 C   0  0  0  0  0  3  0  0  0  0  0  0
   35.2210   27.4020   38.0110 C   0  0  0  0  0  3  0  0  0  0  0  0
   39.9390   32.2920   36.9000 N   0  0  0  0  0  0  0  0  0  0  0  0
   39.3620   32.9640   36.3240 H   0  0  0  0  0  0  0  0  0  0  0  0
   40.9580   32.2550   36.6460 H   0  0  0  0  0  0  0  0  0  0  0  0
  1 12  1  0  0  0  0
  1  6  1  0  0  0  0
  2  1  2  0  0  0  0
  3  2  1  0  0  0  0
  3  4  2  0  0  0  0
  4  5  1  0  0  0  0
  5  6  2  0  0  0  0
  5  7  1  0  0  0  0
  7 11  1  0  0  0  0
  7  8  1  0  0  0  0
  8 15  1  0  0  0  0
  8 14  1  0  0  0  0
  8  9  1  0  0  0  0
  9 16  1  0  0  0  0
  9 17  1  0  0  0  0
 10 19  1  0  0  0  0
 10  9  1  0  0  0  0
 11 20  1  1  0  0  0
 11 10  1  0  0  0  0
 13  3  1  0  0  0  0
 18 10  1  0  0  0  0
 22 21  1  0  0  0  0
 22 23  1  0  0  0  0
 23 11  1  0  0  0  0
 24 25  1  0  0  0  0
 24 23  2  0  0  0  0
 26 24  1  0  0  0  0
 27 26  1  0  0  0  0
 28 29  1  0  0  0  0
 28 26  2  0  0  0  0
 29 22  2  0  0  0  0
 30  2  1  0  0  0  0
 31 30  1  0  0  0  0
 32 30  1  0  0  0  0
M  END
>  <minimizedAffinity>
-5.23046732

$$$$

 OpenBabel03252506323D

 32 34  0  0  1  0  0  0  0  0999 V2000
   42.0840   26.8280   43.6800 C   0  0  0  0  0  0  0  0  0  0  0  0
   42.2160   25.5540   43.1280 C   0  0  0  0  0  0  0  0  0  0  0  0
   41.2810   25.1230   42.1880 C   0  0  0  0  0  0  0  0  0  0  0  0
   40.2900   25.9950   41.8700 N   0  0  0  0  0  0  0  0  0  0  0  0
   40.1840   27.2070   42.4100 C   0  0  0  0  0  0  0  0  0  0  0  0
   41.0680   27.6370   43.3110 N   0  0  0  0  0  0  0  0  0  0  0  0
   39.1030   28.0260   41.9890 N   0  0  0  0  0  0  0  0  0  0  0  0
   39.0080   29.4700   42.2590 C   0  0  0  0  0  0  0  0  0  0  0  0
   37.5320   29.6330   42.5000 C   0  0  0  0  0  0  0  0  0  0  0  0
   36.8670   28.3560   42.0650 C   0  0  0  0  0  0  0  0  0  0  0  0
   37.9280   27.6870   41.2530 C   0  0  2  0  0  0  0  0  0  0  0  0
   42.7420   27.2790   44.4170 H   0  0  0  0  0  0  0  0  0  0  0  0
   41.4240   24.1470   41.7990 H   0  0  0  0  0  0  0  0  0  0  0  0
   39.3500   30.0470   41.3690 H   0  0  0  0  0  0  0  0  0  0  0  0
   39.5550   29.6730   43.1810 H   0  0  0  0  0  0  0  0  0  0  0  0
   37.2970   29.9350   43.5380 H   0  0  0  0  0  0  0  0  0  0  0  0
   37.1770   30.4480   41.8230 H   0  0  0  0  0  0  0  0  0  0  0  0
   36.7290   27.7250   42.9900 H   0  0  0  0  0  0  0  0  0  0  0  0
   35.9150   28.5050   41.5200 H   0  0  0  0  0  0  0  0  0  0  0  0
   38.0070   28.2700   40.2870 H   0  0  0  0  0  0  0  0  0  0  0  0
   38.7270   26.6390   38.5220 Cl  0  0  0  0  0  0  0  0  0  0  0  0
   37.9650   25.6620   39.7820 C   0  0  0  0  0  0  0  0  0  0  0  0
   37.6630   26.2730   41.0040 C   0  0  0  0  0  0  0  0  0  0  0  0
   37.0770   25.3880   41.8760 C   0  0  0  0  0  0  0  0  0  0  0  0
   36.7810   25.7570   42.8660 H   0  0  0  0  0  0  0  0  0  0  0  0
   36.8000   24.0660   41.6340 C   0  0  0  0  0  0  0  0  0  0  0  0
   36.3350   23.4300   42.3740 H   0  0  0  0  0  0  0  0  0  0  0  0
   37.1310   23.5480   40.4050 C   0  0  0  0  0  3  0  0  0  0  0  0
   37.7190   24.3540   39.4720 C   0  0  0  0  0  3  0  0  0  0  0  0
   43.3430   24.7890   43.5980 N   0  0  0  0  0  0  0  0  0  0  0  0
   44.0780   24.4050   42.9430 H   0  0  0  0  0  0  0  0  0  0  0  0
   43.4980   24.5690   44.6140 H   0  0  0  0  0  0  0  0  0  0  0  0
  1 12  1  0  0  0  0
  2 30  1  0  0  0  0
  2  1  2  0  0  0  0
  3  2  1  0  0  0  0
  4  3  2  0  0  0  0
  4  5  1  0  0  0  0
  5  6  2  0  0  0  0
  6  1  1  0  0  0  0
  7  8  1  0  0  0  0
  7  5  1  0  0  0  0
  8  9  1  0  0  0  0
  8 15  1  0  0  0  0
  9 16  1  0  0  0  0
 10  9  1  0  0  0  0
 10 18  1  0  0  0  0
 11 20  1  6  0  0  0
 11  7  1  0  0  0  0
 11 10  1  0  0  0  0
 13  3  1  0  0  0  0
 14  8  1  0  0  0  0
 17  9  1  0  0  0  0
 19 10  1  0  0  0  0
 21 22  1  0  0  0  0
 22 23  1  0  0  0  0
 23 11  1  0  0  0  0
 23 24  2  0  0  0  0
 24 25  1  0  0  0  0
 26 24  1  0  0  0  0
 26 27  1  0  0  0  0
 28 26  2  0  0  0  0
 29 22  2  0  0  0  0
 29 28  1  0  0  0  0
 30 32  1  0  0  0  0
 31 30  1  0  0  0  0
M  END
>  <minimizedAffinity>
-5.21606445

$$$$

 OpenBabel03252506323D

 32 34  0  0  1  0  0  0  0  0999 V2000
   35.0740   26.8050   37.6830 C   0  0  0  0  0  0  0  0  0  0  0  0
   35.1480   28.1300   38.1120 C   0  0  0  0  0  0  0  0  0  0  0  0
   36.0080   28.4560   39.1580 C   0  0  0  0  0  0  0  0  0  0  0  0
   36.7280   27.4370   39.6950 N   0  0  0  0  0  0  0  0  0  0  0  0
   36.6420   26.1790   39.2690 C   0  0  0  0  0  0  0  0  0  0  0  0
   35.8240   25.8470   38.2690 N   0  0  0  0  0  0  0  0  0  0  0  0
   37.4520   25.2050   39.9110 N   0  0  0  0  0  0  0  0  0  0  0  0
   37.6920   23.8530   39.3830 C   0  0  0  0  0  0  0  0  0  0  0  0
   37.7210   23.0380   40.6470 C   0  0  0  0  0  0  0  0  0  0  0  0
   37.7920   24.0050   41.7980 C   0  0  0  0  0  0  0  0  0  0  0  0
   38.1840   25.2850   41.1340 C   0  0  2  0  0  0  0  0  0  0  0  0
   34.4470   26.4240   36.8820 H   0  0  0  0  0  0  0  0  0  0  0  0
   36.0280   29.4760   39.4480 H   0  0  0  0  0  0  0  0  0  0  0  0
   38.6690   23.8210   38.8470 H   0  0  0  0  0  0  0  0  0  0  0  0
   36.8250   23.5710   38.7840 H   0  0  0  0  0  0  0  0  0  0  0  0
   36.8830   22.3180   40.7130 H   0  0  0  0  0  0  0  0  0  0  0  0
   38.6710   22.4510   40.6380 H   0  0  0  0  0  0  0  0  0  0  0  0
   36.7370   24.1510   42.1710 H   0  0  0  0  0  0  0  0  0  0  0  0
   38.4790   23.6930   42.6080 H   0  0  0  0  0  0  0  0  0  0  0  0
   39.2700   25.1710   40.8350 H   0  0  0  0  0  0  0  0  0  0  0  0
   40.2730   27.4700   40.8980 Cl  0  0  0  0  0  0  0  0  0  0  0  0
   38.8780   27.5370   41.9800 C   0  0  0  0  0  0  0  0  0  0  0  0
   37.9840   26.4600   41.9750 C   0  0  0  0  0  0  0  0  0  0  0  0
   36.9570   26.6590   42.8660 C   0  0  0  0  0  0  0  0  0  0  0  0
   36.1960   25.8730   42.9620 H   0  0  0  0  0  0  0  0  0  0  0  0
   36.7810   27.7500   43.6800 C   0  0  0  0  0  0  0  0  0  0  0  0
   35.9430   27.8340   44.3580 H   0  0  0  0  0  0  0  0  0  0  0  0
   37.7090   28.7610   43.6190 C   0  0  0  0  0  3  0  0  0  0  0  0
   38.7660   28.6520   42.7610 C   0  0  0  0  0  3  0  0  0  0  0  0
   34.3030   29.0580   37.4040 N   0  0  0  0  0  0  0  0  0  0  0  0
   34.6890   29.9110   36.9120 H   0  0  0  0  0  0  0  0  0  0  0  0
   33.2610   28.9420   37.3360 H   0  0  0  0  0  0  0  0  0  0  0  0
  1  2  2  0  0  0  0
  1  6  1  0  0  0  0
  2  3  1  0  0  0  0
  3 13  1  0  0  0  0
  3  4  2  0  0  0  0
  5  4  1  0  0  0  0
  5  7  1  0  0  0  0
  6  5  2  0  0  0  0
  7 11  1  0  0  0  0
  8  7  1  0  0  0  0
  8  9  1  0  0  0  0
  9 16  1  0  0  0  0
  9 10  1  0  0  0  0
 10 18  1  0  0  0  0
 10 19  1  0  0  0  0
 11 20  1  6  0  0  0
 11 10  1  0  0  0  0
 11 23  1  0  0  0  0
 12  1  1  0  0  0  0
 14  8  1  0  0  0  0
 15  8  1  0  0  0  0
 17  9  1  0  0  0  0
 21 22  1  0  0  0  0
 22 29  1  0  0  0  0
 23 22  2  0  0  0  0
 23 24  1  0  0  0  0
 24 25  1  0  0  0  0
 24 26  2  0  0  0  0
 26 27  1  0  0  0  0
 28 26  1  0  0  0  0
 29 28  2  0  0  0  0
 30  2  1  0  0  0  0
 31 30  1  0  0  0  0
 32 30  1  0  0  0  0
M  END
>  <minimizedAffinity>
-5.1121583

$$$$

 OpenBabel03252506323D

 32 34  0  0  1  0  0  0  0  0999 V2000
   40.0550   28.2630   37.3200 C   0  0  0  0  0  0  0  0  0  0  0  0
   40.0580   27.0940   38.0810 C   0  0  0  0  0  0  0  0  0  0  0  0
   39.2020   26.9970   39.1770 C   0  0  0  0  0  0  0  0  0  0  0  0
   38.4100   28.0720   39.4280 N   0  0  0  0  0  0  0  0  0  0  0  0
   38.4240   29.1780   38.6880 C   0  0  0  0  0  0  0  0  0  0  0  0
   39.2360   29.2900   37.6360 N   0  0  0  0  0  0  0  0  0  0  0  0
   37.5440   30.2300   39.0530 N   0  0  0  0  0  0  0  0  0  0  0  0
   37.2280   31.3800   38.1890 C   0  0  0  0  0  0  0  0  0  0  0  0
   37.1270   32.4920   39.1970 C   0  0  0  0  0  0  0  0  0  0  0  0
   37.0970   31.8570   40.5600 C   0  0  0  0  0  0  0  0  0  0  0  0
   36.7970   30.4260   40.2540 C   0  0  2  0  0  0  0  0  0  0  0  0
   40.6700   28.4620   36.4480 H   0  0  0  0  0  0  0  0  0  0  0  0
   39.2410   26.0900   39.7230 H   0  0  0  0  0  0  0  0  0  0  0  0
   36.2610   31.2060   37.6640 H   0  0  0  0  0  0  0  0  0  0  0  0
   38.0860   31.5510   37.5370 H   0  0  0  0  0  0  0  0  0  0  0  0
   37.9170   33.2580   39.0720 H   0  0  0  0  0  0  0  0  0  0  0  0
   36.1420   32.9940   39.0340 H   0  0  0  0  0  0  0  0  0  0  0  0
   38.1530   31.8820   40.9580 H   0  0  0  0  0  0  0  0  0  0  0  0
   36.3790   32.3240   41.2600 H   0  0  0  0  0  0  0  0  0  0  0  0
   35.7120   30.3870   39.9360 H   0  0  0  0  0  0  0  0  0  0  0  0
   39.2990   30.9930   41.8710 Cl  0  0  0  0  0  0  0  0  0  0  0  0
   38.1830   29.6610   42.1940 C   0  0  0  0  0  0  0  0  0  0  0  0
   37.0570   29.5260   41.3740 C   0  0  0  0  0  0  0  0  0  0  0  0
   36.2910   28.4490   41.7480 C   0  0  0  0  0  0  0  0  0  0  0  0
   35.3840   28.2320   41.1680 H   0  0  0  0  0  0  0  0  0  0  0  0
   36.5470   27.5840   42.7820 C   0  0  0  0  0  0  0  0  0  0  0  0
   35.8940   26.7560   43.0160 H   0  0  0  0  0  0  0  0  0  0  0  0
   37.6770   27.7920   43.5360 C   0  0  0  0  0  3  0  0  0  0  0  0
   38.5010   28.8400   43.2380 C   0  0  0  0  0  3  0  0  0  0  0  0
   40.9710   26.0700   37.6400 N   0  0  0  0  0  0  0  0  0  0  0  0
   40.6480   25.0950   37.3900 H   0  0  0  0  0  0  0  0  0  0  0  0
   42.0050   26.2320   37.5440 H   0  0  0  0  0  0  0  0  0  0  0  0
  1  6  2  0  0  0  0
  1  2  1  0  0  0  0
  2  3  2  0  0  0  0
  3  4  1  0  0  0  0
  3 13  1  0  0  0  0
  5  7  1  0  0  0  0
  5  4  2  0  0  0  0
  6  5  1  0  0  0  0
  7 11  1  0  0  0  0
  8  7  1  0  0  0  0
  8  9  1  0  0  0  0
  9 10  1  0  0  0  0
 10 18  1  0  0  0  0
 10 19  1  0  0  0  0
 11 20  1  6  0  0  0
 11 10  1  0  0  0  0
 11 23  1  0  0  0  0
 12  1  1  0  0  0  0
 14  8  1  0  0  0  0
 15  8  1  0  0  0  0
 16  9  1  0  0  0  0
 17  9  1  0  0  0  0
 21 22  1  0  0  0  0
 22 29  1  0  0  0  0
 23 24  1  0  0  0  0
 23 22  2  0  0  0  0
 24 26  2  0  0  0  0
 25 24  1  0  0  0  0
 26 27  1  0  0  0  0
 26 28  1  0  0  0  0
 29 28  2  0  0  0  0
 30  2  1  0  0  0  0
 31 30  1  0  0  0  0
 32 30  1  0  0  0  0
M  END
>  <minimizedAffinity>
-5.07998228

$$$$

 OpenBabel03252506323D

 32 34  0  0  1  0  0  0  0  0999 V2000
   36.8260   30.3080   38.4640 C   0  0  0  0  0  0  0  0  0  0  0  0
   36.0000   29.2060   38.2440 C   0  0  0  0  0  0  0  0  0  0  0  0
   36.0280   28.1480   39.1500 C   0  0  0  0  0  0  0  0  0  0  0  0
   36.8750   28.2710   40.2050 N   0  0  0  0  0  0  0  0  0  0  0  0
   37.6550   29.3330   40.3950 C   0  0  0  0  0  0  0  0  0  0  0  0
   37.6420   30.3550   39.5390 N   0  0  0  0  0  0  0  0  0  0  0  0
   38.4940   29.3410   41.5400 N   0  0  0  0  0  0  0  0  0  0  0  0
   39.1860   30.5380   42.0470 C   0  0  0  0  0  0  0  0  0  0  0  0
   40.4890   29.9520   42.5170 C   0  0  0  0  0  0  0  0  0  0  0  0
   40.3300   28.4560   42.5190 C   0  0  0  0  0  0  0  0  0  0  0  0
   38.8500   28.2780   42.4230 C   0  0  2  0  0  0  0  0  0  0  0  0
   36.8970   31.1920   37.8370 H   0  0  0  0  0  0  0  0  0  0  0  0
   35.3830   27.3330   38.9390 H   0  0  0  0  0  0  0  0  0  0  0  0
   38.6060   30.9860   42.8860 H   0  0  0  0  0  0  0  0  0  0  0  0
   39.3660   31.2010   41.2000 H   0  0  0  0  0  0  0  0  0  0  0  0
   41.3580   30.3140   41.9350 H   0  0  0  0  0  0  0  0  0  0  0  0
   40.6330   30.2800   43.5760 H   0  0  0  0  0  0  0  0  0  0  0  0
   40.7600   28.0780   41.5470 H   0  0  0  0  0  0  0  0  0  0  0  0
   40.7850   27.9550   43.3950 H   0  0  0  0  0  0  0  0  0  0  0  0
   38.4260   28.5770   43.4290 H   0  0  0  0  0  0  0  0  0  0  0  0
   36.2670   27.2680   43.6490 Cl  0  0  0  0  0  0  0  0  0  0  0  0
   37.2910   26.3240   42.5620 C   0  0  0  0  0  0  0  0  0  0  0  0
   38.4510   26.9230   42.0570 C   0  0  0  0  0  0  0  0  0  0  0  0
   39.1380   26.0670   41.2300 C   0  0  0  0  0  0  0  0  0  0  0  0
   40.0760   26.4210   40.7830 H   0  0  0  0  0  0  0  0  0  0  0  0
   38.7800   24.7820   40.9070 C   0  0  0  0  0  0  0  0  0  0  0  0
   39.3760   24.1670   40.2460 H   0  0  0  0  0  0  0  0  0  0  0  0
   37.6250   24.2740   41.4490 C   0  0  0  0  0  3  0  0  0  0  0  0
   36.8750   25.0530   42.2830 C   0  0  0  0  0  3  0  0  0  0  0  0
   35.1720   29.2780   37.0670 N   0  0  0  0  0  0  0  0  0  0  0  0
   34.1190   29.1980   37.1120 H   0  0  0  0  0  0  0  0  0  0  0  0
   35.5640   29.4110   36.1010 H   0  0  0  0  0  0  0  0  0  0  0  0
  1  6  1  0  0  0  0
  2  1  2  0  0  0  0
  2  3  1  0  0  0  0
  3  4  2  0  0  0  0
  4  5  1  0  0  0  0
  5  7  1  0  0  0  0
  6  5  2  0  0  0  0
  7  8  1  0  0  0  0
  7 11  1  0  0  0  0
  8  9  1  0  0  0  0
  8 14  1  0  0  0  0
  9 10  1  0  0  0  0
  9 17  1  0  0  0  0
 10 19  1  0  0  0  0
 11 10  1  0  0  0  0
 11 20  1  1  0  0  0
 12  1  1  0  0  0  0
 13  3  1  0  0  0  0
 15  8  1  0  0  0  0
 16  9  1  0  0  0  0
 18 10  1  0  0  0  0
 22 21  1  0  0  0  0
 23 11  1  0  0  0  0
 23 22  2  0  0  0  0
 24 23  1  0  0  0  0
 25 24  1  0  0  0  0
 26 24  2  0  0  0  0
 26 28  1  0  0  0  0
 27 26  1  0  0  0  0
 28 29  2  0  0  0  0
 29 22  1  0  0  0  0
 30 31  1  0  0  0  0
 30  2  1  0  0  0  0
 32 30  1  0  0  0  0
M  END
>  <minimizedAffinity>
-5.05912256

$$$$

 OpenBabel03252506323D

 32 34  0  0  1  0  0  0  0  0999 V2000
   37.3230   30.5700   37.8090 C   0  0  0  0  0  0  0  0  0  0  0  0
   36.3080   29.6380   38.0180 C   0  0  0  0  0  0  0  0  0  0  0  0
   36.1450   29.0880   39.2880 C   0  0  0  0  0  0  0  0  0  0  0  0
   37.0060   29.5110   40.2500 N   0  0  0  0  0  0  0  0  0  0  0  0
   37.9690   30.4030   40.0280 C   0  0  0  0  0  0  0  0  0  0  0  0
   38.1400   30.9400   38.8190 N   0  0  0  0  0  0  0  0  0  0  0  0
   38.8010   30.7650   41.1190 N   0  0  0  0  0  0  0  0  0  0  0  0
   39.7030   31.9280   41.1190 C   0  0  0  0  0  0  0  0  0  0  0  0
   40.8790   31.3940   41.8910 C   0  0  0  0  0  0  0  0  0  0  0  0
   40.4470   30.0970   42.5180 C   0  0  0  0  0  0  0  0  0  0  0  0
   38.9590   30.1460   42.3960 C   0  0  2  0  0  0  0  0  0  0  0  0
   37.5530   31.0700   36.8720 H   0  0  0  0  0  0  0  0  0  0  0  0
   35.3600   28.3830   39.3970 H   0  0  0  0  0  0  0  0  0  0  0  0
   39.2190   32.7860   41.6400 H   0  0  0  0  0  0  0  0  0  0  0  0
   39.9970   32.1190   40.0860 H   0  0  0  0  0  0  0  0  0  0  0  0
   41.7960   31.3170   41.2770 H   0  0  0  0  0  0  0  0  0  0  0  0
   41.0850   32.1180   42.7170 H   0  0  0  0  0  0  0  0  0  0  0  0
   40.7950   29.2690   41.8350 H   0  0  0  0  0  0  0  0  0  0  0  0
   40.8060   29.9550   43.5560 H   0  0  0  0  0  0  0  0  0  0  0  0
   38.6020   30.9170   43.1440 H   0  0  0  0  0  0  0  0  0  0  0  0
   40.2090   27.7750   40.9780 Cl  0  0  0  0  0  0  0  0  0  0  0  0
   38.7760   27.6790   42.0080 C   0  0  0  0  0  0  0  0  0  0  0  0
   38.3160   28.8540   42.6130 C   0  0  0  0  0  0  0  0  0  0  0  0
   37.2000   28.6180   43.3790 C   0  0  0  0  0  0  0  0  0  0  0  0
   36.7370   29.4700   43.8950 H   0  0  0  0  0  0  0  0  0  0  0  0
   36.5750   27.4100   43.5630 C   0  0  0  0  0  0  0  0  0  0  0  0
   35.6970   27.3040   44.1830 H   0  0  0  0  0  0  0  0  0  0  0  0
   37.0970   26.3080   42.9290 C   0  0  0  0  0  3  0  0  0  0  0  0
   38.2070   26.4460   42.1450 C   0  0  0  0  0  3  0  0  0  0  0  0
   35.5010   29.3310   36.8650 N   0  0  0  0  0  0  0  0  0  0  0  0
   34.4520   29.4560   36.8600 H   0  0  0  0  0  0  0  0  0  0  0  0
   35.9070   28.9650   35.9660 H   0  0  0  0  0  0  0  0  0  0  0  0
  1  2  2  0  0  0  0
  1  6  1  0  0  0  0
  2  3  1  0  0  0  0
  3 13  1  0  0  0  0
  3  4  2  0  0  0  0
  5  4  1  0  0  0  0
  5  7  1  0  0  0  0
  6  5  2  0  0  0  0
  7 11  1  0  0  0  0
  8  7  1  0  0  0  0
  8 14  1  0  0  0  0
  8  9  1  0  0  0  0
  9 10  1  0  0  0  0
  9 17  1  0  0  0  0
 10 19  1  0  0  0  0
 11 10  1  0  0  0  0
 11 23  1  0  0  0  0
 11 20  1  1  0  0  0
 12  1  1  0  0  0  0
 15  8  1  0  0  0  0
 16  9  1  0  0  0  0
 18 10  1  0  0  0  0
 21 22  1  0  0  0  0
 22 29  2  0  0  0  0
 22 23  1  0  0  0  0
 23 24  2  0  0  0  0
 24 26  1  0  0  0  0
 24 25  1  0  0  0  0
 26 27  1  0  0  0  0
 28 26  2  0  0  0  0
 29 28  1  0  0  0  0
 30  2  1  0  0  0  0
 31 30  1  0  0  0  0
 32 30  1  0  0  0  0
M  END
>  <minimizedAffinity>
-5.02829266

$$$$

 OpenBabel03252506323D

 32 34  0  0  1  0  0  0  0  0999 V2000
   38.0450   29.4780   37.9630 C   0  0  0  0  0  0  0  0  0  0  0  0
   37.9280   28.3080   37.2130 C   0  0  0  0  0  0  0  0  0  0  0  0
   37.6380   27.1120   37.8670 C   0  0  0  0  0  0  0  0  0  0  0  0
   37.4860   27.1750   39.2150 N   0  0  0  0  0  0  0  0  0  0  0  0
   37.6030   28.3040   39.9110 C   0  0  0  0  0  0  0  0  0  0  0  0
   37.8800   29.4580   39.3030 N   0  0  0  0  0  0  0  0  0  0  0  0
   37.4170   28.2380   41.3160 N   0  0  0  0  0  0  0  0  0  0  0  0
   37.2240   29.4140   42.1800 C   0  0  0  0  0  0  0  0  0  0  0  0
   37.9740   29.0030   43.4170 C   0  0  0  0  0  0  0  0  0  0  0  0
   38.2800   27.5370   43.2860 C   0  0  0  0  0  0  0  0  0  0  0  0
   37.3700   27.1040   42.1820 C   0  0  2  0  0  0  0  0  0  0  0  0
   38.2660   30.4680   37.5760 H   0  0  0  0  0  0  0  0  0  0  0  0
   37.5590   26.2500   37.2540 H   0  0  0  0  0  0  0  0  0  0  0  0
   36.1380   29.5640   42.3830 H   0  0  0  0  0  0  0  0  0  0  0  0
   37.7270   30.2590   41.7080 H   0  0  0  0  0  0  0  0  0  0  0  0
   38.8620   29.6350   43.6110 H   0  0  0  0  0  0  0  0  0  0  0  0
   37.2760   29.1290   44.2810 H   0  0  0  0  0  0  0  0  0  0  0  0
   39.3300   27.4540   42.8820 H   0  0  0  0  0  0  0  0  0  0  0  0
   38.1490   26.9620   44.2230 H   0  0  0  0  0  0  0  0  0  0  0  0
   36.3230   27.1040   42.6120 H   0  0  0  0  0  0  0  0  0  0  0  0
   40.2960   26.6700   41.5180 Cl  0  0  0  0  0  0  0  0  0  0  0  0
   39.0250   25.4710   41.2540 C   0  0  0  0  0  0  0  0  0  0  0  0
   37.7160   25.8020   41.6220 C   0  0  0  0  0  0  0  0  0  0  0  0
   36.8460   24.7720   41.3550 C   0  0  0  0  0  0  0  0  0  0  0  0
   35.7830   24.9190   41.5890 H   0  0  0  0  0  0  0  0  0  0  0  0
   37.1630   23.5570   40.8020 C   0  0  0  0  0  0  0  0  0  0  0  0
   36.4190   22.7940   40.6210 H   0  0  0  0  0  0  0  0  0  0  0  0
   38.4750   23.3180   40.4700 C   0  0  0  0  0  3  0  0  0  0  0  0
   39.4130   24.2850   40.6990 C   0  0  0  0  0  3  0  0  0  0  0  0
   38.1200   28.4600   35.7940 N   0  0  0  0  0  0  0  0  0  0  0  0
   37.3840   28.1740   35.0900 H   0  0  0  0  0  0  0  0  0  0  0  0
   38.9980   28.8600   35.3770 H   0  0  0  0  0  0  0  0  0  0  0  0
  1  6  1  0  0  0  0
  2  3  1  0  0  0  0
  2  1  2  0  0  0  0
  3  4  2  0  0  0  0
  4  5  1  0  0  0  0
  5  7  1  0  0  0  0
  6  5  2  0  0  0  0
  7  8  1  0  0  0  0
  7 11  1  0  0  0  0
  8 14  1  0  0  0  0
  8  9  1  0  0  0  0
  9 16  1  0  0  0  0
  9 17  1  0  0  0  0
 10  9  1  0  0  0  0
 10 19  1  0  0  0  0
 11 20  1  1  0  0  0
 11 10  1  0  0  0  0
 12  1  1  0  0  0  0
 13  3  1  0  0  0  0
 15  8  1  0  0  0  0
 18 10  1  0  0  0  0
 22 21  1  0  0  0  0
 22 23  1  0  0  0  0
 23 11  1  0  0  0  0
 24 25  1  0  0  0  0
 24 23  2  0  0  0  0
 26 24  1  0  0  0  0
 27 26  1  0  0  0  0
 28 29  1  0  0  0  0
 28 26  2  0  0  0  0
 29 22  2  0  0  0  0
 30  2  1  0  0  0  0
 31 30  1  0  0  0  0
 32 30  1  0  0  0  0
M  END
>  <minimizedAffinity>
-5.02784109

$$$$
