
 OpenBabel03252507223D

 47 50  0  0  1  0  0  0  0  0999 V2000
   46.1360   32.7370   42.8230 C   0  0  0  0  0  0  0  0  0  0  0  0
   47.3860   32.5040   42.8170 O   0  0  0  0  0  0  0  0  0  0  0  0
   45.2340   32.1440   41.9000 N   0  0  0  0  0  0  0  0  0  0  0  0
   43.9100   31.5420   42.1200 C   0  0  0  0  0  0  0  0  0  0  0  0
   42.9180   32.1640   41.1420 C   0  0  0  0  0  0  0  0  0  0  0  0
   43.2840   31.8140   39.7380 C   0  0  0  0  0  0  0  0  0  0  0  0
   44.6960   31.2640   39.7000 C   0  0  0  0  0  0  0  0  0  0  0  0
   45.6320   32.0920   40.5160 C   0  0  2  0  0  0  0  0  0  0  0  0
   43.9910   30.4430   42.0020 H   0  0  0  0  0  0  0  0  0  0  0  0
   43.5530   31.7270   43.1600 H   0  0  0  0  0  0  0  0  0  0  0  0
   41.8870   31.9720   41.4160 H   0  0  0  0  0  0  0  0  0  0  0  0
   43.0780   33.2760   41.2640 H   0  0  0  0  0  0  0  0  0  0  0  0
   42.6200   30.9890   39.3720 H   0  0  0  0  0  0  0  0  0  0  0  0
   43.1870   32.6520   39.0250 H   0  0  0  0  0  0  0  0  0  0  0  0
   45.0160   31.4030   38.6250 H   0  0  0  0  0  0  0  0  0  0  0  0
   44.7330   30.1830   39.8950 H   0  0  0  0  0  0  0  0  0  0  0  0
   45.5530   33.1400   40.0950 H   0  0  0  0  0  0  0  0  0  0  0  0
   45.1390   34.8970   43.3690 C   0  0  0  0  0  0  0  0  0  0  0  0
   45.6210   33.6460   43.8140 C   0  0  0  0  0  0  0  0  0  0  0  0
   45.5880   33.3180   45.1630 C   0  0  0  0  0  0  0  0  0  0  0  0
   45.0820   34.2370   46.0170 N   0  0  0  0  0  0  0  0  0  0  0  0
   44.6120   35.4530   45.6050 C   0  0  0  0  0  0  0  0  0  0  0  0
   44.6520   35.7560   44.2870 N   0  0  0  0  0  0  0  0  0  0  0  0
   45.1510   35.1760   42.3440 H   0  0  0  0  0  0  0  0  0  0  0  0
   44.2490   36.0530   46.4060 H   0  0  0  0  0  0  0  0  0  0  0  0
   46.0940   32.0370   45.5770 C   0  0  0  0  0  0  0  0  0  0  0  0
   45.4100   30.9010   45.3070 C   0  0  0  0  0  0  0  0  0  0  0  0
   45.9210   29.6850   45.7150 C   0  0  0  0  0  0  0  0  0  0  0  0
   47.1270   29.5700   46.4030 C   0  0  0  0  0  0  0  0  0  0  0  0
   47.7950   30.7710   46.6590 C   0  0  0  0  0  0  0  0  0  0  0  0
   47.2650   31.9250   46.2460 N   0  0  0  0  0  0  0  0  0  0  0  0
   44.4710   30.8260   44.7910 H   0  0  0  0  0  0  0  0  0  0  0  0
   45.4430   28.7300   45.5420 H   0  0  0  0  0  0  0  0  0  0  0  0
   47.5740   28.6680   46.7450 H   0  0  0  0  0  0  0  0  0  0  0  0
   48.7440   30.8290   47.1860 H   0  0  0  0  0  0  0  0  0  0  0  0
   47.0420   31.6580   40.2950 C   0  0  0  0  0  0  0  0  0  0  0  0
   47.1720   30.6220   39.9920 H   0  0  0  0  0  0  0  0  0  0  0  0
   47.7300   31.8770   41.1670 H   0  0  0  0  0  0  0  0  0  0  0  0
   47.3480   30.6060   37.4170 Cl  0  0  0  0  0  0  0  0  0  0  0  0
   47.7670   32.2260   37.9350 C   0  0  0  0  0  0  0  0  0  0  0  0
   47.5910   32.6060   39.2480 C   0  0  0  0  0  0  0  0  0  0  0  0
   47.9110   33.8810   39.6840 C   0  0  0  0  0  0  0  0  0  0  0  0
   47.7620   34.1480   40.7150 H   0  0  0  0  0  0  0  0  0  0  0  0
   48.4210   34.8320   38.8240 C   0  0  0  0  0  0  0  0  0  0  0  0
   48.6510   35.8100   39.2250 H   0  0  0  0  0  0  0  0  0  0  0  0
   48.6030   34.4670   37.5040 C   0  0  0  0  0  3  0  0  0  0  0  0
   48.2810   33.1890   37.0760 C   0  0  0  0  0  3  0  0  0  0  0  0
  1 19  1  0  0  0  0
  2  1  2  0  0  0  0
  3  4  1  0  0  0  0
  3  1  1  0  0  0  0
  4 10  1  0  0  0  0
  5 12  1  0  0  0  0
  5 11  1  0  0  0  0
  5  4  1  0  0  0  0
  6  5  1  0  0  0  0
  7  6  1  0  0  0  0
  7 16  1  0  0  0  0
  7  8  1  0  0  0  0
  8 17  1  6  0  0  0
  8  3  1  0  0  0  0
  9  4  1  0  0  0  0
 13  6  1  0  0  0  0
 14  6  1  0  0  0  0
 15  7  1  0  0  0  0
 18 19  2  0  0  0  0
 18 23  1  0  0  0  0
 19 20  1  0  0  0  0
 20 26  1  0  0  0  0
 20 21  2  0  0  0  0
 22 21  1  0  0  0  0
 22 25  1  0  0  0  0
 23 22  2  0  0  0  0
 24 18  1  0  0  0  0
 26 31  1  0  0  0  0
 27 26  2  0  0  0  0
 27 28  1  0  0  0  0
 28 29  2  0  0  0  0
 29 30  1  0  0  0  0
 29 34  1  0  0  0  0
 30 35  1  0  0  0  0
 31 30  2  0  0  0  0
 32 27  1  0  0  0  0
 33 28  1  0  0  0  0
 36  8  1  0  0  0  0
 36 38  1  0  0  0  0
 37 36  1  0  0  0  0
 39 40  1  0  0  0  0
 40 41  1  0  0  0  0
 41 42  2  0  0  0  0
 41 36  1  0  0  0  0
 42 43  1  0  0  0  0
 44 45  1  0  0  0  0
 44 42  1  0  0  0  0
 46 44  2  0  0  0  0
 47 46  1  0  0  0  0
 47 40  2  0  0  0  0
M  END
>  <minimizedAffinity>
-4.63518

>  <minimizedRMSD>
2.45909405

$$$$
