
     RDKit          3D

 33 35  0  0  0  0  0  0  0  0999 V2000
   44.9075   35.0349   43.5604 C   0  0  0  0  0  0  0  0  0  0  0  0
   45.2839   34.9235   42.2069 C   0  0  0  0  0  0  0  0  0  0  0  0
   46.3890   34.1393   41.8649 C   0  0  0  0  0  0  0  0  0  0  0  0
   47.0384   33.5235   42.8950 N   0  0  0  0  0  0  0  0  0  0  0  0
   46.6587   33.6472   44.1702 C   0  0  0  0  0  0  0  0  0  0  0  0
   45.5867   34.4079   44.5023 N   0  0  0  0  0  0  0  0  0  0  0  0
   43.7826   35.8389   43.8631 N   0  0  0  0  0  0  0  0  0  0  0  0
   47.9701   34.6369   40.0999 C   0  0  0  0  0  0  0  0  0  0  0  0
   46.8198   33.9913   40.4786 C   0  0  0  0  0  0  0  0  0  0  0  0
   46.1630   33.2571   39.5276 C   0  0  0  0  0  0  0  0  0  0  0  0
   46.5963   33.1371   38.2255 C   0  0  0  0  0  0  0  0  0  0  0  0
   47.7617   33.8020   37.8765 C   0  0  0  0  0  0  0  0  0  0  0  0
   48.4481   34.5494   38.8068 C   0  0  0  0  0  0  0  0  0  0  0  0
   49.3177   36.0858   41.8103 N   0  0  0  0  0  0  0  0  0  0  0  0
   48.7124   35.4270   41.0481 C   0  0  0  0  0  0  0  0  0  0  0  0
   44.7371   35.4304   41.4321 H   0  0  0  0  0  0  0  0  0  0  0  0
   47.2566   33.1082   44.8964 H   0  0  0  0  0  0  0  0  0  0  0  0
   43.7188   36.8800   44.0456 H   0  0  0  0  0  0  0  0  0  0  0  0
   43.0499   35.0935   43.8494 H   0  0  0  0  0  0  0  0  0  0  0  0
   45.2542   32.7605   39.8697 H   0  0  0  0  0  0  0  0  0  0  0  0
   46.0335   32.5423   37.5199 H   0  0  0  0  0  0  0  0  0  0  0  0
   48.1170   33.7201   36.8611 H   0  0  0  0  0  0  0  0  0  0  0  0
   50.5377   33.0885   37.1793 Cl  0  0  0  0  0  0  0  0  0  0  0  0
   50.7377   34.7533   37.7330 C   0  0  0  0  0  0  0  0  0  0  0  0
   49.6893   35.2664   38.4632 C   0  0  0  0  0  0  0  0  0  0  0  0
   49.7139   36.5651   38.9614 C   0  0  0  0  0  0  0  0  0  0  0  0
   48.9117   37.0115   39.5412 H   0  0  0  0  0  0  0  0  0  0  0  0
   50.8167   37.3837   38.7275 C   0  0  0  0  0  0  0  0  0  0  0  0
   50.8631   38.4014   39.1043 H   0  0  0  0  0  0  0  0  0  0  0  0
   51.8473   36.8401   37.9943 C   0  0  0  0  0  0  0  0  0  0  0  0
   51.8334   35.5441   37.4917 C   0  0  0  0  0  0  0  0  0  0  0  0
   52.7273   37.4621   37.7954 H   0  0  0  0  0  0  0  0  0  0  0  0
   52.6255   35.1013   36.9184 H   0  0  0  0  0  0  0  0  0  0  0  0
  1  7  1  0
  1  6  2  0
  2  1  1  0
  3  2  2  0
  3  4  1  0
  4  5  2  0
  5  6  1  0
  8  9  2  0
  8 15  1  0
  9  3  1  0
 10  9  1  0
 11 10  2  0
 12 11  1  0
 12 13  2  0
 13  8  1  0
 15 14  3  0
  2 16  1  0
  5 17  1  0
  7 18  1  0
  7 19  1  0
 10 20  1  0
 11 21  1  0
 12 22  1  0
 23 24  1  0
 24 25  2  0
 25 26  1  0
 26 27  1  0
 26 28  2  0
 28 29  1  0
 28 30  1  0
 30 31  2  0
 31 24  1  0
 30 32  1  0
 31 33  1  0
 13 25  1  0
M  ISO  7  16  14  17  14  20  14  21  14  22  14  27  15  29  16
M  END
>  <DihAtoms>  (1) 
11,12,24,23

>  <DihDeg>  (1) 
89.99937100461212

$$$$
