
 OpenBabel03252502413D

 24 25  0  0  0  0  0  0  0  0999 V2000
   45.4320   34.4540   41.4230 C   0  0  0  0  0  0  0  0  0  0  0  0
   44.5080   33.9410   41.0610 H   0  0  0  0  0  0  0  0  0  0  0  0
   45.6130   35.4180   40.9540 H   0  0  0  0  0  0  0  0  0  0  0  0
   44.4710   35.9570   44.7330 C   0  0  0  0  0  0  0  0  0  0  0  0
   44.6490   35.7940   43.3510 C   0  0  0  0  0  0  0  0  0  0  0  0
   45.2470   34.6240   42.8840 C   0  0  0  0  0  0  0  0  0  0  0  0
   45.6260   33.7010   43.8010 N   0  0  0  0  0  0  0  0  0  0  0  0
   45.4450   33.8800   45.1320 C   0  0  0  0  0  0  0  0  0  0  0  0
   44.8750   34.9930   45.5920 N   0  0  0  0  0  0  0  0  0  0  0  0
   43.9990   36.9060   44.9540 H   0  0  0  0  0  0  0  0  0  0  0  0
   44.3420   36.5350   42.6100 H   0  0  0  0  0  0  0  0  0  0  0  0
   45.7730   33.0990   45.8130 H   0  0  0  0  0  0  0  0  0  0  0  0
   46.5560   33.4720   41.1860 C   0  0  0  0  0  0  0  0  0  0  0  0
   47.3980   33.6910   41.8720 H   0  0  0  0  0  0  0  0  0  0  0  0
   46.2310   32.4260   41.3020 H   0  0  0  0  0  0  0  0  0  0  0  0
   48.8250   35.3780   40.9830 Cl  0  0  0  0  0  0  0  0  0  0  0  0
   48.0490   34.5260   39.6480 C   0  0  0  0  0  0  0  0  0  0  0  0
   46.9820   33.6320   39.7710 C   0  0  0  0  0  0  0  0  0  0  0  0
   46.4730   33.0340   38.6360 C   0  0  0  0  0  0  0  0  0  0  0  0
   45.6530   32.3620   38.8450 H   0  0  0  0  0  0  0  0  0  0  0  0
   47.0200   33.3270   37.4060 C   0  0  0  0  0  0  0  0  0  0  0  0
   46.5770   32.8270   36.5530 H   0  0  0  0  0  0  0  0  0  0  0  0
   48.0790   34.2170   37.2960 C   0  0  0  0  0  0  0  0  0  0  0  0
   48.6020   34.8240   38.4200 C   0  0  0  0  0  0  0  0  0  0  0  0
  1  6  1  0  0  0  0
  2  1  1  0  0  0  0
  3  1  1  0  0  0  0
  4 10  1  0  0  0  0
  4  9  1  0  0  0  0
  5  4  2  0  0  0  0
  6  5  1  0  0  0  0
  6  7  2  0  0  0  0
  7  8  1  0  0  0  0
  8  9  2  0  0  0  0
  8 12  1  0  0  0  0
 11  5  1  0  0  0  0
 13 15  1  0  0  0  0
 13  1  1  0  0  0  0
 13 14  1  0  0  0  0
 17 18  1  0  0  0  0
 17 16  1  0  0  0  0
 18 13  1  0  0  0  0
 19 20  1  0  0  0  0
 19 18  2  0  0  0  0
 21 19  1  0  0  0  0
 22 21  1  0  0  0  0
 23 21  2  0  0  0  0
 23 24  1  0  0  0  0
 24 17  2  0  0  0  0
M  END
>  <minimizedAffinity>
-4.55412674

>  <minimizedRMSD>
1.95788455

$$$$
