
 OpenBabel03252508363D

 31 33  0  0  0  0  0  0  0  0999 V2000
   45.2830   33.8990   40.5650 C   0  0  0  0  0  0  0  0  0  0  0  0
   44.2030   33.6200   39.7660 C   0  0  0  0  0  0  0  0  0  0  0  0
   44.4530   33.1630   38.5000 C   0  0  0  0  0  0  0  0  0  0  0  0
   45.7220   32.9710   37.9960 C   0  0  0  0  0  0  0  0  0  0  0  0
   46.7900   33.2620   38.8310 C   0  0  0  0  0  0  0  0  0  0  0  0
   46.5760   33.7240   40.1100 C   0  0  0  0  0  0  0  0  0  0  0  0
   43.5680   32.9540   37.8980 H   0  0  0  0  0  0  0  0  0  0  0  0
   45.8540   32.6070   36.9870 H   0  0  0  0  0  0  0  0  0  0  0  0
   47.7910   33.1180   38.4540 H   0  0  0  0  0  0  0  0  0  0  0  0
   40.9350   35.2190   40.7690 C   0  0  0  0  0  0  0  0  0  0  0  0
   42.2180   35.0610   40.2070 C   0  0  0  0  0  0  0  0  0  0  0  0
   42.8740   33.8340   40.3300 C   0  0  0  0  0  0  0  0  0  0  0  0
   42.2060   32.8520   41.0020 N   0  0  0  0  0  0  0  0  0  0  0  0
   40.9900   33.0290   41.5250 C   0  0  0  0  0  0  0  0  0  0  0  0
   40.3530   34.2200   41.4070 N   0  0  0  0  0  0  0  0  0  0  0  0
   40.3060   36.4770   40.6230 N   0  0  0  0  0  0  0  0  0  0  0  0
   42.7010   35.8680   39.6860 H   0  0  0  0  0  0  0  0  0  0  0  0
   40.5650   32.1730   42.0360 H   0  0  0  0  0  0  0  0  0  0  0  0
   40.3730   37.3470   41.2240 H   0  0  0  0  0  0  0  0  0  0  0  0
   39.7640   36.2800   39.7510 H   0  0  0  0  0  0  0  0  0  0  0  0
   47.5380   31.5680   42.0010 Cl  0  0  0  0  0  0  0  0  0  0  0  0
   48.2510   33.1810   41.9360 C   0  0  0  0  0  0  0  0  0  0  0  0
   47.6930   34.0410   41.0170 C   0  0  0  0  0  0  0  0  0  0  0  0
   48.1580   35.3430   40.8610 C   0  0  0  0  0  0  0  0  0  0  0  0
   47.7490   36.0550   40.1510 H   0  0  0  0  0  0  0  0  0  0  0  0
   49.2140   35.8080   41.6430 C   0  0  0  0  0  0  0  0  0  0  0  0
   49.5960   36.8190   41.5420 H   0  0  0  0  0  0  0  0  0  0  0  0
   49.7480   34.9230   42.5510 C   0  0  0  0  0  0  0  0  0  0  0  0
   49.2920   33.6210   42.7160 C   0  0  0  0  0  0  0  0  0  0  0  0
   44.9520   34.7930   43.0010 N   0  0  0  0  0  0  0  0  0  0  0  0
   45.0950   34.3830   41.9080 C   0  0  0  0  0  0  0  0  0  0  0  0
  1 31  1  0  0  0  0
  2 12  1  0  0  0  0
  2  1  2  0  0  0  0
  3  2  1  0  0  0  0
  4  3  2  0  0  0  0
  4  5  1  0  0  0  0
  5  6  2  0  0  0  0
  6  1  1  0  0  0  0
  6 23  1  0  0  0  0
  7  3  1  0  0  0  0
  8  4  1  0  0  0  0
  9  5  1  0  0  0  0
 10 15  1  0  0  0  0
 11 12  1  0  0  0  0
 11 10  2  0  0  0  0
 12 13  2  0  0  0  0
 13 14  1  0  0  0  0
 14 18  1  0  0  0  0
 15 14  2  0  0  0  0
 16 10  1  0  0  0  0
 16 19  1  0  0  0  0
 17 11  1  0  0  0  0
 20 16  1  0  0  0  0
 22 21  1  0  0  0  0
 22 29  1  0  0  0  0
 23 22  2  0  0  0  0
 24 23  1  0  0  0  0
 24 26  2  0  0  0  0
 25 24  1  0  0  0  0
 26 28  1  0  0  0  0
 27 26  1  0  0  0  0
 28 29  2  0  0  0  0
 31 30  3  0  0  0  0
M  END
>  <minimizedAffinity>
-5.81965542

>  <minimizedRMSD>
4.28730583

$$$$
