
 OpenBabel03242511483D

 44 46  0  0  0  0  0  0  0  0999 V2000
   35.8570   28.9730   39.0890 C   0  0  0  0  0  0  0  0  0  0  0  0
   36.1150   28.4750   40.3990 C   0  0  0  0  0  0  0  0  0  0  0  0
   36.7760   29.3120   41.2730 C   0  0  0  0  0  0  0  0  0  0  0  0
   37.1490   30.5370   40.8760 N   0  0  0  0  0  0  0  0  0  0  0  0
   36.8750   30.9560   39.6150 C   0  0  0  0  0  0  0  0  0  0  0  0
   36.2550   30.2170   38.7410 N   0  0  0  0  0  0  0  0  0  0  0  0
   35.3440   28.4010   38.3170 H   0  0  0  0  0  0  0  0  0  0  0  0
   35.7390   27.4690   40.5260 H   0  0  0  0  0  0  0  0  0  0  0  0
   37.3270   32.3260   39.2670 C   0  0  0  0  0  0  0  0  0  0  0  0
   36.5430   32.9000   38.7170 H   0  0  0  0  0  0  0  0  0  0  0  0
   38.2010   32.2260   38.5820 H   0  0  0  0  0  0  0  0  0  0  0  0
   37.7740   33.0200   40.5270 C   0  0  0  0  0  0  0  0  0  0  0  0
   36.9820   33.7720   40.8040 H   0  0  0  0  0  0  0  0  0  0  0  0
   37.8200   32.3250   41.4000 H   0  0  0  0  0  0  0  0  0  0  0  0
   39.0600   33.6620   40.3760 C   0  0  0  0  0  0  0  0  0  0  0  0
   39.3330   34.9580   39.9840 C   0  0  0  0  0  0  0  0  0  0  0  0
   40.5900   35.4710   39.8730 C   0  0  0  0  0  0  0  0  0  0  0  0
   41.6490   34.6600   40.1650 C   0  0  0  0  0  0  0  0  0  0  0  0
   41.3930   33.3630   40.5580 C   0  0  0  0  0  0  0  0  0  0  0  0
   40.1120   32.8590   40.6650 C   0  0  0  0  0  0  0  0  0  0  0  0
   38.4370   35.5600   39.7630 H   0  0  0  0  0  0  0  0  0  0  0  0
   40.6260   36.5090   39.5510 H   0  0  0  0  0  0  0  0  0  0  0  0
   42.6310   35.1280   40.0570 H   0  0  0  0  0  0  0  0  0  0  0  0
   42.3540   32.8530   40.7530 H   0  0  0  0  0  0  0  0  0  0  0  0
   40.5400   30.5610   40.0300 C   0  0  0  0  0  0  0  0  0  0  0  0
   40.7460   30.5780   38.7490 O   0  0  0  0  0  0  0  0  0  0  0  0
   40.2330   31.4890   41.0840 N   0  0  0  0  0  0  0  0  0  0  0  0
   40.6720   29.4750   40.1930 H   0  0  0  0  0  0  0  0  0  0  0  0
   40.1470   31.0080   41.9900 H   0  0  0  0  0  0  0  0  0  0  0  0
   37.0100   28.7310   42.6070 C   0  0  0  0  0  0  0  0  0  0  0  0
   38.1160   28.7840   42.8090 H   0  0  0  0  0  0  0  0  0  0  0  0
   36.5210   29.2690   43.4200 H   0  0  0  0  0  0  0  0  0  0  0  0
   36.6510   27.2610   42.6670 C   0  0  0  0  0  0  0  0  0  0  0  0
   36.0220   27.1410   43.5710 H   0  0  0  0  0  0  0  0  0  0  0  0
   36.2000   26.8930   41.7450 H   0  0  0  0  0  0  0  0  0  0  0  0
   36.7940   24.4650   41.4050 Cl  0  0  0  0  0  0  0  0  0  0  0  0
   38.0490   25.2570   42.3290 C   0  0  0  0  0  0  0  0  0  0  0  0
   37.9430   26.5240   42.8890 C   0  0  0  0  0  0  0  0  0  0  0  0
   38.9630   27.1040   43.6130 C   0  0  0  0  0  0  0  0  0  0  0  0
   38.8530   28.0910   44.0370 H   0  0  0  0  0  0  0  0  0  0  0  0
   40.1380   26.4030   43.7920 C   0  0  0  0  0  0  0  0  0  0  0  0
   40.9270   26.8910   44.3720 H   0  0  0  0  0  0  0  0  0  0  0  0
   40.3160   25.1400   43.2660 C   0  0  0  0  0  3  0  0  0  0  0  0
   39.2530   24.6170   42.5500 C   0  0  0  0  0  3  0  0  0  0  0  0
  1  2  1  0  0  0  0
  2  8  1  0  0  0  0
  2  3  2  0  0  0  0
  3 30  1  0  0  0  0
  4  3  1  0  0  0  0
  5  4  2  0  0  0  0
  6  1  2  0  0  0  0
  6  5  1  0  0  0  0
  7  1  1  0  0  0  0
  9  5  1  0  0  0  0
  9 12  1  0  0  0  0
 10  9  1  0  0  0  0
 11  9  1  0  0  0  0
 12 13  1  0  0  0  0
 12 14  1  0  0  0  0
 15 12  1  0  0  0  0
 15 20  1  0  0  0  0
 16 15  2  0  0  0  0
 17 16  1  0  0  0  0
 17 18  2  0  0  0  0
 18 19  1  0  0  0  0
 19 20  2  0  0  0  0
 19 24  1  0  0  0  0
 20 27  1  0  0  0  0
 21 16  1  0  0  0  0
 22 17  1  0  0  0  0
 23 18  1  0  0  0  0
 25 28  1  0  0  0  0
 25 27  1  0  0  0  0
 26 25  2  0  0  0  0
 27 29  1  0  0  0  0
 30 33  1  0  0  0  0
 30 31  1  0  0  0  0
 30 32  1  0  0  0  0
 33 38  1  0  0  0  0
 33 34  1  0  0  0  0
 35 33  1  0  0  0  0
 36 37  1  0  0  0  0
 37 44  2  0  0  0  0
 37 38  1  0  0  0  0
 38 39  2  0  0  0  0
 39 41  1  0  0  0  0
 39 40  1  0  0  0  0
 41 42  1  0  0  0  0
 43 41  2  0  0  0  0
 44 43  1  0  0  0  0
M  END
>  <minimizedAffinity>
-6.09599352

$$$$

 OpenBabel03242511483D

 44 46  0  0  0  0  0  0  0  0999 V2000
   35.6400   28.7720   40.7940 C   0  0  0  0  0  0  0  0  0  0  0  0
   35.7900   30.0450   40.1710 C   0  0  0  0  0  0  0  0  0  0  0  0
   36.7710   30.8780   40.6660 C   0  0  0  0  0  0  0  0  0  0  0  0
   37.5370   30.4780   41.6900 N   0  0  0  0  0  0  0  0  0  0  0  0
   37.3470   29.2530   42.2420 C   0  0  0  0  0  0  0  0  0  0  0  0
   36.4400   28.4190   41.8240 N   0  0  0  0  0  0  0  0  0  0  0  0
   34.8990   28.0340   40.4880 H   0  0  0  0  0  0  0  0  0  0  0  0
   35.0810   30.1820   39.3650 H   0  0  0  0  0  0  0  0  0  0  0  0
   38.2420   28.8980   43.3730 C   0  0  0  0  0  0  0  0  0  0  0  0
   38.0170   29.4930   44.2900 H   0  0  0  0  0  0  0  0  0  0  0  0
   39.2840   29.1510   43.0650 H   0  0  0  0  0  0  0  0  0  0  0  0
   38.1520   27.4130   43.6100 C   0  0  0  0  0  0  0  0  0  0  0  0
   37.8730   27.2540   44.6900 H   0  0  0  0  0  0  0  0  0  0  0  0
   37.3200   26.9410   43.0320 H   0  0  0  0  0  0  0  0  0  0  0  0
   39.3840   26.7290   43.2920 C   0  0  0  0  0  0  0  0  0  0  0  0
   40.5160   26.5910   44.0720 C   0  0  0  0  0  0  0  0  0  0  0  0
   41.6350   25.9200   43.6780 C   0  0  0  0  0  0  0  0  0  0  0  0
   41.6440   25.3470   42.4390 C   0  0  0  0  0  0  0  0  0  0  0  0
   40.5210   25.4750   41.6490 C   0  0  0  0  0  0  0  0  0  0  0  0
   39.3960   26.1590   42.0640 C   0  0  0  0  0  0  0  0  0  0  0  0
   40.4450   27.0750   45.0590 H   0  0  0  0  0  0  0  0  0  0  0  0
   42.4350   25.9080   44.4140 H   0  0  0  0  0  0  0  0  0  0  0  0
   42.5680   24.8230   42.1820 H   0  0  0  0  0  0  0  0  0  0  0  0
   40.6980   24.9550   40.6890 H   0  0  0  0  0  0  0  0  0  0  0  0
   37.4720   25.0400   41.1050 C   0  0  0  0  0  0  0  0  0  0  0  0
   37.1780   24.0760   41.9210 O   0  0  0  0  0  0  0  0  0  0  0  0
   38.4440   26.0930   40.9880 N   0  0  0  0  0  0  0  0  0  0  0  0
   36.6710   24.8640   40.3630 H   0  0  0  0  0  0  0  0  0  0  0  0
   38.2960   26.6430   40.1300 H   0  0  0  0  0  0  0  0  0  0  0  0
   36.8670   32.1770   39.9750 C   0  0  0  0  0  0  0  0  0  0  0  0
   35.9560   32.2790   39.3210 H   0  0  0  0  0  0  0  0  0  0  0  0
   36.8660   33.0380   40.6440 H   0  0  0  0  0  0  0  0  0  0  0  0
   38.0560   32.2480   39.0400 C   0  0  0  0  0  0  0  0  0  0  0  0
   38.5450   31.2560   39.0970 H   0  0  0  0  0  0  0  0  0  0  0  0
   37.7880   32.5670   38.0320 H   0  0  0  0  0  0  0  0  0  0  0  0
   40.9450   31.2930   39.4540 Cl  0  0  0  0  0  0  0  0  0  0  0  0
   40.3080   32.8770   39.8250 C   0  0  0  0  0  0  0  0  0  0  0  0
   38.9890   33.2690   39.6280 C   0  0  0  0  0  0  0  0  0  0  0  0
   38.5350   34.5330   39.9410 C   0  0  0  0  0  0  0  0  0  0  0  0
   37.5050   34.8110   39.7760 H   0  0  0  0  0  0  0  0  0  0  0  0
   39.4210   35.4480   40.4720 C   0  0  0  0  0  0  0  0  0  0  0  0
   39.0290   36.4420   40.7100 H   0  0  0  0  0  0  0  0  0  0  0  0
   40.7440   35.1310   40.6970 C   0  0  0  0  0  3  0  0  0  0  0  0
   41.1340   33.8460   40.3610 C   0  0  0  0  0  3  0  0  0  0  0  0
  1  6  1  0  0  0  0
  2  3  1  0  0  0  0
  2  1  2  0  0  0  0
  3  4  2  0  0  0  0
  4  5  1  0  0  0  0
  5  9  1  0  0  0  0
  6  5  2  0  0  0  0
  7  1  1  0  0  0  0
  8  2  1  0  0  0  0
  9 12  1  0  0  0  0
  9 10  1  0  0  0  0
 11  9  1  0  0  0  0
 12 13  1  0  0  0  0
 14 12  1  0  0  0  0
 15 12  1  0  0  0  0
 15 16  1  0  0  0  0
 16 21  1  0  0  0  0
 17 16  2  0  0  0  0
 17 22  1  0  0  0  0
 18 17  1  0  0  0  0
 19 20  1  0  0  0  0
 19 18  2  0  0  0  0
 20 15  2  0  0  0  0
 23 18  1  0  0  0  0
 24 19  1  0  0  0  0
 25 26  2  0  0  0  0
 27 25  1  0  0  0  0
 27 20  1  0  0  0  0
 28 25  1  0  0  0  0
 29 27  1  0  0  0  0
 30 32  1  0  0  0  0
 30  3  1  0  0  0  0
 31 30  1  0  0  0  0
 33 34  1  0  0  0  0
 33 38  1  0  0  0  0
 33 30  1  0  0  0  0
 35 33  1  0  0  0  0
 36 37  1  0  0  0  0
 37 44  1  0  0  0  0
 38 37  2  0  0  0  0
 38 39  1  0  0  0  0
 39 41  2  0  0  0  0
 40 39  1  0  0  0  0
 41 43  1  0  0  0  0
 41 42  1  0  0  0  0
 44 43  2  0  0  0  0
M  END
>  <minimizedAffinity>
-6.06142473

$$$$

 OpenBabel03242511483D

 44 46  0  0  0  0  0  0  0  0999 V2000
   36.2720   29.0840   36.4270 C   0  0  0  0  0  0  0  0  0  0  0  0
   34.9310   28.9410   35.9670 C   0  0  0  0  0  0  0  0  0  0  0  0
   33.9820   28.5670   36.8950 C   0  0  0  0  0  0  0  0  0  0  0  0
   34.3390   28.3540   38.1700 N   0  0  0  0  0  0  0  0  0  0  0  0
   35.6320   28.5060   38.5480 C   0  0  0  0  0  0  0  0  0  0  0  0
   36.5760   28.8570   37.7240 N   0  0  0  0  0  0  0  0  0  0  0  0
   37.1030   29.3750   35.7840 H   0  0  0  0  0  0  0  0  0  0  0  0
   34.8450   29.1560   34.9110 H   0  0  0  0  0  0  0  0  0  0  0  0
   35.9310   28.2480   39.9800 C   0  0  0  0  0  0  0  0  0  0  0  0
   36.8680   27.6560   40.1130 H   0  0  0  0  0  0  0  0  0  0  0  0
   35.0940   27.6350   40.3900 H   0  0  0  0  0  0  0  0  0  0  0  0
   35.9710   29.5660   40.7080 C   0  0  0  0  0  0  0  0  0  0  0  0
   35.5540   30.3530   40.0180 H   0  0  0  0  0  0  0  0  0  0  0  0
   35.2910   29.5810   41.5940 H   0  0  0  0  0  0  0  0  0  0  0  0
   37.3040   29.9170   41.1400 C   0  0  0  0  0  0  0  0  0  0  0  0
   38.3070   30.5330   40.4170 C   0  0  0  0  0  0  0  0  0  0  0  0
   39.5390   30.8240   40.9190 C   0  0  0  0  0  0  0  0  0  0  0  0
   39.8060   30.4890   42.2160 C   0  0  0  0  0  0  0  0  0  0  0  0
   38.8150   29.8740   42.9510 C   0  0  0  0  0  0  0  0  0  0  0  0
   37.5710   29.5860   42.4260 C   0  0  0  0  0  0  0  0  0  0  0  0
   38.0290   30.7780   39.3790 H   0  0  0  0  0  0  0  0  0  0  0  0
   40.2100   31.3100   40.2140 H   0  0  0  0  0  0  0  0  0  0  0  0
   40.8110   30.7480   42.5610 H   0  0  0  0  0  0  0  0  0  0  0  0
   39.1970   29.6740   43.9690 H   0  0  0  0  0  0  0  0  0  0  0  0
   36.9010   27.5080   43.4760 C   0  0  0  0  0  0  0  0  0  0  0  0
   37.4760   26.5640   42.7960 O   0  0  0  0  0  0  0  0  0  0  0  0
   36.8140   28.9430   43.4650 N   0  0  0  0  0  0  0  0  0  0  0  0
   36.3820   26.8710   44.2160 H   0  0  0  0  0  0  0  0  0  0  0  0
   36.2080   29.2850   44.2240 H   0  0  0  0  0  0  0  0  0  0  0  0
   32.6200   28.4370   36.3490 C   0  0  0  0  0  0  0  0  0  0  0  0
   32.6300   27.5820   35.6170 H   0  0  0  0  0  0  0  0  0  0  0  0
   31.8610   28.1970   37.0950 H   0  0  0  0  0  0  0  0  0  0  0  0
   32.1980   29.6550   35.5530 C   0  0  0  0  0  0  0  0  0  0  0  0
   33.1140   30.2640   35.4250 H   0  0  0  0  0  0  0  0  0  0  0  0
   31.6840   29.4010   34.6250 H   0  0  0  0  0  0  0  0  0  0  0  0
   31.2970   32.3760   34.4510 Cl  0  0  0  0  0  0  0  0  0  0  0  0
   30.8070   31.6500   35.9640 C   0  0  0  0  0  0  0  0  0  0  0  0
   31.2420   30.4160   36.4300 C   0  0  0  0  0  0  0  0  0  0  0  0
   30.8270   29.8880   37.6350 C   0  0  0  0  0  0  0  0  0  0  0  0
   31.1810   28.9260   37.9730 H   0  0  0  0  0  0  0  0  0  0  0  0
   29.9440   30.6110   38.4110 C   0  0  0  0  0  0  0  0  0  0  0  0
   29.6350   30.1640   39.3610 H   0  0  0  0  0  0  0  0  0  0  0  0
   29.4690   31.8430   38.0140 C   0  0  0  0  0  3  0  0  0  0  0  0
   29.9260   32.3140   36.7940 C   0  0  0  0  0  3  0  0  0  0  0  0
  1  6  1  0  0  0  0
  2  1  2  0  0  0  0
  2  3  1  0  0  0  0
  3  4  2  0  0  0  0
  4  5  1  0  0  0  0
  5  9  1  0  0  0  0
  6  5  2  0  0  0  0
  7  1  1  0  0  0  0
  8  2  1  0  0  0  0
  9 10  1  0  0  0  0
  9 11  1  0  0  0  0
  9 12  1  0  0  0  0
 12 15  1  0  0  0  0
 12 14  1  0  0  0  0
 13 12  1  0  0  0  0
 15 20  1  0  0  0  0
 16 17  1  0  0  0  0
 16 15  2  0  0  0  0
 17 18  2  0  0  0  0
 18 23  1  0  0  0  0
 18 19  1  0  0  0  0
 19 24  1  0  0  0  0
 20 19  2  0  0  0  0
 20 27  1  0  0  0  0
 21 16  1  0  0  0  0
 22 17  1  0  0  0  0
 25 28  1  0  0  0  0
 26 25  2  0  0  0  0
 27 25  1  0  0  0  0
 27 29  1  0  0  0  0
 30  3  1  0  0  0  0
 30 32  1  0  0  0  0
 31 30  1  0  0  0  0
 33 30  1  0  0  0  0
 33 38  1  0  0  0  0
 34 33  1  0  0  0  0
 35 33  1  0  0  0  0
 36 37  1  0  0  0  0
 37 38  2  0  0  0  0
 37 44  1  0  0  0  0
 38 39  1  0  0  0  0
 39 40  1  0  0  0  0
 39 41  2  0  0  0  0
 41 42  1  0  0  0  0
 43 41  1  0  0  0  0
 44 43  2  0  0  0  0
M  END
>  <minimizedAffinity>
-6.04573298

$$$$

 OpenBabel03242511483D

 44 46  0  0  0  0  0  0  0  0999 V2000
   36.9140   31.6910   40.2580 C   0  0  0  0  0  0  0  0  0  0  0  0
   36.5770   30.5640   41.0630 C   0  0  0  0  0  0  0  0  0  0  0  0
   37.5710   30.0380   41.8600 C   0  0  0  0  0  0  0  0  0  0  0  0
   38.7940   30.5870   41.8560 N   0  0  0  0  0  0  0  0  0  0  0  0
   39.0550   31.6600   41.0680 C   0  0  0  0  0  0  0  0  0  0  0  0
   38.1630   32.2050   40.2930 N   0  0  0  0  0  0  0  0  0  0  0  0
   36.2100   32.1890   39.5910 H   0  0  0  0  0  0  0  0  0  0  0  0
   35.5450   30.2700   40.9270 H   0  0  0  0  0  0  0  0  0  0  0  0
   40.4380   32.1970   41.1310 C   0  0  0  0  0  0  0  0  0  0  0  0
   41.1920   31.4650   40.7530 H   0  0  0  0  0  0  0  0  0  0  0  0
   40.6740   32.3880   42.2040 H   0  0  0  0  0  0  0  0  0  0  0  0
   40.4790   33.5060   40.3850 C   0  0  0  0  0  0  0  0  0  0  0  0
   39.5110   33.6080   39.8180 H   0  0  0  0  0  0  0  0  0  0  0  0
   40.4970   34.3850   41.0730 H   0  0  0  0  0  0  0  0  0  0  0  0
   41.6090   33.5940   39.4890 C   0  0  0  0  0  0  0  0  0  0  0  0
   42.8970   34.0100   39.7680 C   0  0  0  0  0  0  0  0  0  0  0  0
   43.8980   34.0560   38.8460 C   0  0  0  0  0  0  0  0  0  0  0  0
   43.6200   33.6680   37.5670 C   0  0  0  0  0  0  0  0  0  0  0  0
   42.3390   33.2500   37.2730 C   0  0  0  0  0  0  0  0  0  0  0  0
   41.3360   33.2100   38.2190 C   0  0  0  0  0  0  0  0  0  0  0  0
   43.0560   34.3090   40.8160 H   0  0  0  0  0  0  0  0  0  0  0  0
   44.8520   34.4080   39.2340 H   0  0  0  0  0  0  0  0  0  0  0  0
   44.4640   33.7270   36.8740 H   0  0  0  0  0  0  0  0  0  0  0  0
   42.2900   32.9750   36.2030 H   0  0  0  0  0  0  0  0  0  0  0  0
   40.0150   31.3090   37.5040 C   0  0  0  0  0  0  0  0  0  0  0  0
   40.6710   30.2560   37.8860 O   0  0  0  0  0  0  0  0  0  0  0  0
   40.1500   32.7390   37.5560 N   0  0  0  0  0  0  0  0  0  0  0  0
   39.1570   30.7940   37.0350 H   0  0  0  0  0  0  0  0  0  0  0  0
   39.3550   33.2050   37.0960 H   0  0  0  0  0  0  0  0  0  0  0  0
   37.1510   28.8750   42.6610 C   0  0  0  0  0  0  0  0  0  0  0  0
   36.5010   29.2570   43.4970 H   0  0  0  0  0  0  0  0  0  0  0  0
   36.5530   28.1470   42.1120 H   0  0  0  0  0  0  0  0  0  0  0  0
   38.3200   28.1840   43.3320 C   0  0  0  0  0  0  0  0  0  0  0  0
   39.2310   28.6460   42.9030 H   0  0  0  0  0  0  0  0  0  0  0  0
   38.2640   28.2100   44.4210 H   0  0  0  0  0  0  0  0  0  0  0  0
   40.7780   26.4960   44.0710 Cl  0  0  0  0  0  0  0  0  0  0  0  0
   39.3570   25.9490   43.2100 C   0  0  0  0  0  0  0  0  0  0  0  0
   38.2660   26.7470   42.8900 C   0  0  0  0  0  0  0  0  0  0  0  0
   37.1700   26.2670   42.2050 C   0  0  0  0  0  0  0  0  0  0  0  0
   36.3350   26.9110   41.9710 H   0  0  0  0  0  0  0  0  0  0  0  0
   37.1500   24.9430   41.8210 C   0  0  0  0  0  0  0  0  0  0  0  0
   36.2660   24.5930   41.2790 H   0  0  0  0  0  0  0  0  0  0  0  0
   38.1970   24.0900   42.1030 C   0  0  0  0  0  3  0  0  0  0  0  0
   39.2660   24.6360   42.7920 C   0  0  0  0  0  3  0  0  0  0  0  0
  1  6  2  0  0  0  0
  1  2  1  0  0  0  0
  2  3  2  0  0  0  0
  3 30  1  0  0  0  0
  4  3  1  0  0  0  0
  5  9  1  0  0  0  0
  5  4  2  0  0  0  0
  6  5  1  0  0  0  0
  7  1  1  0  0  0  0
  8  2  1  0  0  0  0
  9 11  1  0  0  0  0
 10  9  1  0  0  0  0
 12 14  1  0  0  0  0
 12  9  1  0  0  0  0
 13 12  1  0  0  0  0
 15 16  1  0  0  0  0
 15 12  1  0  0  0  0
 16 21  1  0  0  0  0
 17 22  1  0  0  0  0
 17 16  2  0  0  0  0
 18 17  1  0  0  0  0
 19 18  2  0  0  0  0
 19 20  1  0  0  0  0
 20 15  2  0  0  0  0
 23 18  1  0  0  0  0
 24 19  1  0  0  0  0
 25 27  1  0  0  0  0
 25 26  2  0  0  0  0
 27 20  1  0  0  0  0
 28 25  1  0  0  0  0
 29 27  1  0  0  0  0
 30 33  1  0  0  0  0
 30 31  1  0  0  0  0
 32 30  1  0  0  0  0
 33 35  1  0  0  0  0
 34 33  1  0  0  0  0
 37 36  1  0  0  0  0
 38 37  1  0  0  0  0
 38 33  1  0  0  0  0
 39 38  2  0  0  0  0
 40 39  1  0  0  0  0
 41 43  2  0  0  0  0
 41 39  1  0  0  0  0
 42 41  1  0  0  0  0
 43 44  1  0  0  0  0
 44 37  2  0  0  0  0
M  END
>  <minimizedAffinity>
-6.01738214

$$$$

 OpenBabel03242511483D

 44 46  0  0  0  0  0  0  0  0999 V2000
   39.5280   31.2660   41.7650 C   0  0  0  0  0  0  0  0  0  0  0  0
   39.1680   30.3460   42.7920 C   0  0  0  0  0  0  0  0  0  0  0  0
   38.0270   29.5970   42.5950 C   0  0  0  0  0  0  0  0  0  0  0  0
   37.3090   29.7510   41.4750 N   0  0  0  0  0  0  0  0  0  0  0  0
   37.7020   30.6440   40.5320 C   0  0  0  0  0  0  0  0  0  0  0  0
   38.7670   31.3820   40.6540 N   0  0  0  0  0  0  0  0  0  0  0  0
   40.4070   31.9090   41.8120 H   0  0  0  0  0  0  0  0  0  0  0  0
   39.8710   30.3680   43.6130 H   0  0  0  0  0  0  0  0  0  0  0  0
   36.8420   30.7450   39.3260 C   0  0  0  0  0  0  0  0  0  0  0  0
   37.2070   31.5250   38.6140 H   0  0  0  0  0  0  0  0  0  0  0  0
   35.8270   31.0600   39.6650 H   0  0  0  0  0  0  0  0  0  0  0  0
   36.7420   29.3830   38.6900 C   0  0  0  0  0  0  0  0  0  0  0  0
   37.6780   29.2170   38.0850 H   0  0  0  0  0  0  0  0  0  0  0  0
   36.7470   28.5610   39.4470 H   0  0  0  0  0  0  0  0  0  0  0  0
   35.5650   29.2460   37.8640 C   0  0  0  0  0  0  0  0  0  0  0  0
   34.2510   29.0840   38.2580 C   0  0  0  0  0  0  0  0  0  0  0  0
   33.2060   28.9640   37.3930 C   0  0  0  0  0  0  0  0  0  0  0  0
   33.4650   29.0060   36.0540 C   0  0  0  0  0  0  0  0  0  0  0  0
   34.7720   29.1670   35.6440 C   0  0  0  0  0  0  0  0  0  0  0  0
   35.8200   29.2860   36.5340 C   0  0  0  0  0  0  0  0  0  0  0  0
   34.1090   29.0590   39.3500 H   0  0  0  0  0  0  0  0  0  0  0  0
   32.2370   28.8440   37.8720 H   0  0  0  0  0  0  0  0  0  0  0  0
   32.5860   28.9040   35.4110 H   0  0  0  0  0  0  0  0  0  0  0  0
   34.8010   29.1780   34.5380 H   0  0  0  0  0  0  0  0  0  0  0  0
   37.7470   28.2040   35.5410 C   0  0  0  0  0  0  0  0  0  0  0  0
   37.6530   26.9490   35.8580 O   0  0  0  0  0  0  0  0  0  0  0  0
   37.0200   29.4260   35.7540 N   0  0  0  0  0  0  0  0  0  0  0  0
   38.6840   28.1460   34.9570 H   0  0  0  0  0  0  0  0  0  0  0  0
   37.4910   30.2220   35.3020 H   0  0  0  0  0  0  0  0  0  0  0  0
   37.7160   28.6690   43.6970 C   0  0  0  0  0  0  0  0  0  0  0  0
   38.6790   28.4510   44.2370 H   0  0  0  0  0  0  0  0  0  0  0  0
   37.0290   29.0750   44.4410 H   0  0  0  0  0  0  0  0  0  0  0  0
   37.2100   27.3310   43.2010 C   0  0  0  0  0  0  0  0  0  0  0  0
   36.5500   26.9420   44.0000 H   0  0  0  0  0  0  0  0  0  0  0  0
   36.7490   27.3880   42.2140 H   0  0  0  0  0  0  0  0  0  0  0  0
   36.9150   24.9280   41.3110 Cl  0  0  0  0  0  0  0  0  0  0  0  0
   38.3250   25.3420   42.2590 C   0  0  0  0  0  0  0  0  0  0  0  0
   38.4170   26.4370   43.1080 C   0  0  0  0  0  0  0  0  0  0  0  0
   39.5530   26.7190   43.8380 C   0  0  0  0  0  0  0  0  0  0  0  0
   39.5970   27.5780   44.4900 H   0  0  0  0  0  0  0  0  0  0  0  0
   40.6430   25.8820   43.7240 C   0  0  0  0  0  0  0  0  0  0  0  0
   41.5290   26.1320   44.3160 H   0  0  0  0  0  0  0  0  0  0  0  0
   40.6260   24.7750   42.9010 C   0  0  0  0  0  3  0  0  0  0  0  0
   39.4550   24.5500   42.1970 C   0  0  0  0  0  3  0  0  0  0  0  0
  1  7  1  0  0  0  0
  1  2  1  0  0  0  0
  2  8  1  0  0  0  0
  3  2  2  0  0  0  0
  3 30  1  0  0  0  0
  4  3  1  0  0  0  0
  5  6  1  0  0  0  0
  5  4  2  0  0  0  0
  6  1  2  0  0  0  0
  9 11  1  0  0  0  0
  9  5  1  0  0  0  0
 10  9  1  0  0  0  0
 12  9  1  0  0  0  0
 12 14  1  0  0  0  0
 13 12  1  0  0  0  0
 15 16  1  0  0  0  0
 15 12  1  0  0  0  0
 16 21  1  0  0  0  0
 17 22  1  0  0  0  0
 17 16  2  0  0  0  0
 18 17  1  0  0  0  0
 19 18  2  0  0  0  0
 19 20  1  0  0  0  0
 20 15  2  0  0  0  0
 23 18  1  0  0  0  0
 24 19  1  0  0  0  0
 25 27  1  0  0  0  0
 25 26  2  0  0  0  0
 27 20  1  0  0  0  0
 28 25  1  0  0  0  0
 29 27  1  0  0  0  0
 30 31  1  0  0  0  0
 30 32  1  0  0  0  0
 33 30  1  0  0  0  0
 33 34  1  0  0  0  0
 35 33  1  0  0  0  0
 36 37  1  0  0  0  0
 37 38  1  0  0  0  0
 38 33  1  0  0  0  0
 38 39  2  0  0  0  0
 39 40  1  0  0  0  0
 41 39  1  0  0  0  0
 41 42  1  0  0  0  0
 43 41  2  0  0  0  0
 44 37  2  0  0  0  0
 44 43  1  0  0  0  0
M  END
>  <minimizedAffinity>
-5.96528816

$$$$

 OpenBabel03242511483D

 44 46  0  0  0  0  0  0  0  0999 V2000
   41.8120   28.1560   42.9420 C   0  0  0  0  0  0  0  0  0  0  0  0
   40.7200   27.2580   43.1200 C   0  0  0  0  0  0  0  0  0  0  0  0
   39.4520   27.7990   43.1130 C   0  0  0  0  0  0  0  0  0  0  0  0
   39.2860   29.1180   42.9440 N   0  0  0  0  0  0  0  0  0  0  0  0
   40.3650   29.9230   42.7790 C   0  0  0  0  0  0  0  0  0  0  0  0
   41.5880   29.4780   42.7760 N   0  0  0  0  0  0  0  0  0  0  0  0
   42.8560   27.8420   42.9310 H   0  0  0  0  0  0  0  0  0  0  0  0
   41.0570   26.2380   43.2410 H   0  0  0  0  0  0  0  0  0  0  0  0
   40.0830   31.3700   42.5990 C   0  0  0  0  0  0  0  0  0  0  0  0
   40.5620   31.9940   43.3920 H   0  0  0  0  0  0  0  0  0  0  0  0
   38.9800   31.5090   42.6940 H   0  0  0  0  0  0  0  0  0  0  0  0
   40.5060   31.7740   41.2110 C   0  0  0  0  0  0  0  0  0  0  0  0
   41.0170   32.7750   41.2860 H   0  0  0  0  0  0  0  0  0  0  0  0
   41.2830   31.0910   40.7890 H   0  0  0  0  0  0  0  0  0  0  0  0
   39.3930   31.8340   40.2920 C   0  0  0  0  0  0  0  0  0  0  0  0
   39.0160   30.9120   39.3350 C   0  0  0  0  0  0  0  0  0  0  0  0
   37.9410   31.0630   38.5130 C   0  0  0  0  0  0  0  0  0  0  0  0
   37.1850   32.1930   38.6360 C   0  0  0  0  0  0  0  0  0  0  0  0
   37.5480   33.1240   39.5860 C   0  0  0  0  0  0  0  0  0  0  0  0
   38.6410   32.9550   40.4110 C   0  0  0  0  0  0  0  0  0  0  0  0
   39.6650   30.0230   39.2870 H   0  0  0  0  0  0  0  0  0  0  0  0
   37.7870   30.2410   37.8170 H   0  0  0  0  0  0  0  0  0  0  0  0
   36.3370   32.2570   37.9480 H   0  0  0  0  0  0  0  0  0  0  0  0
   36.8350   33.9680   39.5500 H   0  0  0  0  0  0  0  0  0  0  0  0
   39.4890   35.2040   40.7190 C   0  0  0  0  0  0  0  0  0  0  0  0
   40.1840   35.4710   39.6560 O   0  0  0  0  0  0  0  0  0  0  0  0
   38.7150   34.1170   41.2550 N   0  0  0  0  0  0  0  0  0  0  0  0
   39.6340   36.1660   41.2440 H   0  0  0  0  0  0  0  0  0  0  0  0
   38.3300   34.3560   42.1800 H   0  0  0  0  0  0  0  0  0  0  0  0
   38.3730   26.8130   43.3040 C   0  0  0  0  0  0  0  0  0  0  0  0
   38.5370   25.9840   42.5600 H   0  0  0  0  0  0  0  0  0  0  0  0
   38.3650   26.3470   44.2900 H   0  0  0  0  0  0  0  0  0  0  0  0
   37.0060   27.3840   42.9890 C   0  0  0  0  0  0  0  0  0  0  0  0
   36.2820   26.7590   43.5480 H   0  0  0  0  0  0  0  0  0  0  0  0
   36.9340   28.4540   43.1870 H   0  0  0  0  0  0  0  0  0  0  0  0
   36.1760   29.8740   41.3940 Cl  0  0  0  0  0  0  0  0  0  0  0  0
   36.4170   28.2630   40.7610 C   0  0  0  0  0  0  0  0  0  0  0  0
   36.7890   27.1590   41.5180 C   0  0  0  0  0  0  0  0  0  0  0  0
   36.9640   25.9060   40.9690 C   0  0  0  0  0  0  0  0  0  0  0  0
   37.2540   25.0650   41.5820 H   0  0  0  0  0  0  0  0  0  0  0  0
   36.7630   25.7360   39.6150 C   0  0  0  0  0  0  0  0  0  0  0  0
   36.9090   24.7300   39.2110 H   0  0  0  0  0  0  0  0  0  0  0  0
   36.3930   26.7860   38.7990 C   0  0  0  0  0  3  0  0  0  0  0  0
   36.2340   28.0160   39.4140 C   0  0  0  0  0  3  0  0  0  0  0  0
  1  2  1  0  0  0  0
  2  8  1  0  0  0  0
  3  2  2  0  0  0  0
  3 30  1  0  0  0  0
  4  3  1  0  0  0  0
  5  4  2  0  0  0  0
  6  5  1  0  0  0  0
  6  1  2  0  0  0  0
  7  1  1  0  0  0  0
  9 11  1  0  0  0  0
  9  5  1  0  0  0  0
  9 10  1  0  0  0  0
 12 13  1  0  0  0  0
 12  9  1  0  0  0  0
 14 12  1  0  0  0  0
 15 20  1  0  0  0  0
 15 12  1  0  0  0  0
 16 15  2  0  0  0  0
 17 18  2  0  0  0  0
 17 16  1  0  0  0  0
 18 19  1  0  0  0  0
 19 20  2  0  0  0  0
 20 27  1  0  0  0  0
 21 16  1  0  0  0  0
 22 17  1  0  0  0  0
 23 18  1  0  0  0  0
 24 19  1  0  0  0  0
 25 28  1  0  0  0  0
 25 27  1  0  0  0  0
 26 25  2  0  0  0  0
 27 29  1  0  0  0  0
 30 32  1  0  0  0  0
 31 30  1  0  0  0  0
 33 35  1  0  0  0  0
 33 30  1  0  0  0  0
 33 34  1  0  0  0  0
 37 36  1  0  0  0  0
 37 38  1  0  0  0  0
 38 33  1  0  0  0  0
 39 38  2  0  0  0  0
 39 40  1  0  0  0  0
 41 39  1  0  0  0  0
 42 41  1  0  0  0  0
 43 44  1  0  0  0  0
 43 41  2  0  0  0  0
 44 37  2  0  0  0  0
M  END
>  <minimizedAffinity>
-5.96430922

$$$$

 OpenBabel03242511483D

 44 46  0  0  0  0  0  0  0  0999 V2000
   39.8580   32.6170   39.8310 C   0  0  0  0  0  0  0  0  0  0  0  0
   39.4750   31.7890   40.9260 C   0  0  0  0  0  0  0  0  0  0  0  0
   38.5070   30.8370   40.6880 C   0  0  0  0  0  0  0  0  0  0  0  0
   37.9660   30.7210   39.4670 N   0  0  0  0  0  0  0  0  0  0  0  0
   38.3720   31.5390   38.4640 C   0  0  0  0  0  0  0  0  0  0  0  0
   39.2810   32.4570   38.6200 N   0  0  0  0  0  0  0  0  0  0  0  0
   40.6120   33.4010   39.9020 H   0  0  0  0  0  0  0  0  0  0  0  0
   40.0230   32.0360   41.8250 H   0  0  0  0  0  0  0  0  0  0  0  0
   37.7160   31.3360   37.1470 C   0  0  0  0  0  0  0  0  0  0  0  0
   38.2430   31.8800   36.3270 H   0  0  0  0  0  0  0  0  0  0  0  0
   36.6880   31.7620   37.2170 H   0  0  0  0  0  0  0  0  0  0  0  0
   37.6120   29.8560   36.8850 C   0  0  0  0  0  0  0  0  0  0  0  0
   38.2760   29.6150   36.0070 H   0  0  0  0  0  0  0  0  0  0  0  0
   38.0240   29.2460   37.7250 H   0  0  0  0  0  0  0  0  0  0  0  0
   36.2530   29.4360   36.6300 C   0  0  0  0  0  0  0  0  0  0  0  0
   35.2140   29.2930   37.5290 C   0  0  0  0  0  0  0  0  0  0  0  0
   33.9600   28.8890   37.1850 C   0  0  0  0  0  0  0  0  0  0  0  0
   33.7070   28.6070   35.8740 C   0  0  0  0  0  0  0  0  0  0  0  0
   34.7330   28.7460   34.9630 C   0  0  0  0  0  0  0  0  0  0  0  0
   35.9990   29.1560   35.3290 C   0  0  0  0  0  0  0  0  0  0  0  0
   35.4830   29.5360   38.5690 H   0  0  0  0  0  0  0  0  0  0  0  0
   33.2610   28.8300   38.0170 H   0  0  0  0  0  0  0  0  0  0  0  0
   32.6820   28.2890   35.6610 H   0  0  0  0  0  0  0  0  0  0  0  0
   34.3570   28.4790   33.9580 H   0  0  0  0  0  0  0  0  0  0  0  0
   36.5960   30.3190   33.2890 C   0  0  0  0  0  0  0  0  0  0  0  0
   35.8720   31.3960   33.2690 O   0  0  0  0  0  0  0  0  0  0  0  0
   36.7980   29.1730   34.1330 N   0  0  0  0  0  0  0  0  0  0  0  0
   37.1390   30.4810   32.3400 H   0  0  0  0  0  0  0  0  0  0  0  0
   37.4990   28.5340   33.7320 H   0  0  0  0  0  0  0  0  0  0  0  0
   38.1600   30.0200   41.8650 C   0  0  0  0  0  0  0  0  0  0  0  0
   38.8160   29.1050   41.8460 H   0  0  0  0  0  0  0  0  0  0  0  0
   38.3440   30.5130   42.8200 H   0  0  0  0  0  0  0  0  0  0  0  0
   36.7360   29.5060   41.8120 C   0  0  0  0  0  0  0  0  0  0  0  0
   36.3090   29.6970   42.8160 H   0  0  0  0  0  0  0  0  0  0  0  0
   36.1620   29.9230   40.9840 H   0  0  0  0  0  0  0  0  0  0  0  0
   36.9390   27.8590   44.3970 Cl  0  0  0  0  0  0  0  0  0  0  0  0
   36.9240   27.2380   42.7630 C   0  0  0  0  0  0  0  0  0  0  0  0
   36.8360   28.0180   41.6170 C   0  0  0  0  0  0  0  0  0  0  0  0
   36.8310   27.4780   40.3480 C   0  0  0  0  0  0  0  0  0  0  0  0
   36.7610   28.1090   39.4750 H   0  0  0  0  0  0  0  0  0  0  0  0
   36.9180   26.1080   40.2060 C   0  0  0  0  0  0  0  0  0  0  0  0
   36.9120   25.7110   39.1860 H   0  0  0  0  0  0  0  0  0  0  0  0
   37.0080   25.2700   41.2970 C   0  0  0  0  0  3  0  0  0  0  0  0
   37.0070   25.8770   42.5410 C   0  0  0  0  0  3  0  0  0  0  0  0
  1  7  1  0  0  0  0
  1  2  1  0  0  0  0
  2  8  1  0  0  0  0
  3  2  2  0  0  0  0
  3 30  1  0  0  0  0
  4  3  1  0  0  0  0
  5  6  1  0  0  0  0
  5  4  2  0  0  0  0
  6  1  2  0  0  0  0
  9 11  1  0  0  0  0
  9  5  1  0  0  0  0
 10  9  1  0  0  0  0
 12  9  1  0  0  0  0
 12 14  1  0  0  0  0
 13 12  1  0  0  0  0
 15 12  1  0  0  0  0
 15 16  1  0  0  0  0
 16 21  1  0  0  0  0
 17 16  2  0  0  0  0
 17 22  1  0  0  0  0
 18 17  1  0  0  0  0
 19 20  1  0  0  0  0
 19 18  2  0  0  0  0
 20 15  2  0  0  0  0
 23 18  1  0  0  0  0
 24 19  1  0  0  0  0
 25 27  1  0  0  0  0
 26 25  2  0  0  0  0
 27 20  1  0  0  0  0
 28 25  1  0  0  0  0
 29 27  1  0  0  0  0
 30 32  1  0  0  0  0
 31 30  1  0  0  0  0
 33 30  1  0  0  0  0
 33 34  1  0  0  0  0
 35 33  1  0  0  0  0
 37 36  1  0  0  0  0
 38 33  1  0  0  0  0
 38 37  2  0  0  0  0
 39 38  1  0  0  0  0
 40 39  1  0  0  0  0
 41 39  2  0  0  0  0
 41 43  1  0  0  0  0
 42 41  1  0  0  0  0
 43 44  2  0  0  0  0
 44 37  1  0  0  0  0
M  END
>  <minimizedAffinity>
-5.84280443

$$$$

 OpenBabel03242511483D

 44 46  0  0  0  0  0  0  0  0999 V2000
   35.5210   28.9830   40.3160 C   0  0  0  0  0  0  0  0  0  0  0  0
   36.2110   28.5080   41.4690 C   0  0  0  0  0  0  0  0  0  0  0  0
   37.1450   29.3490   42.0360 C   0  0  0  0  0  0  0  0  0  0  0  0
   37.3730   30.5570   41.5000 N   0  0  0  0  0  0  0  0  0  0  0  0
   36.6840   30.9540   40.4010 C   0  0  0  0  0  0  0  0  0  0  0  0
   35.7890   30.2100   39.8170 N   0  0  0  0  0  0  0  0  0  0  0  0
   34.7630   28.4060   39.7870 H   0  0  0  0  0  0  0  0  0  0  0  0
   35.8890   27.5140   41.7470 H   0  0  0  0  0  0  0  0  0  0  0  0
   37.0040   32.3060   39.8790 C   0  0  0  0  0  0  0  0  0  0  0  0
   37.6750   32.8750   40.5680 H   0  0  0  0  0  0  0  0  0  0  0  0
   36.0460   32.8740   39.8120 H   0  0  0  0  0  0  0  0  0  0  0  0
   37.5830   32.1640   38.4950 C   0  0  0  0  0  0  0  0  0  0  0  0
   37.0970   31.2700   38.0100 H   0  0  0  0  0  0  0  0  0  0  0  0
   37.3160   33.0230   37.8340 H   0  0  0  0  0  0  0  0  0  0  0  0
   39.0200   32.0190   38.5110 C   0  0  0  0  0  0  0  0  0  0  0  0
   39.9600   32.8360   39.1090 C   0  0  0  0  0  0  0  0  0  0  0  0
   41.3030   32.6100   39.0670 C   0  0  0  0  0  0  0  0  0  0  0  0
   41.7540   31.5100   38.3950 C   0  0  0  0  0  0  0  0  0  0  0  0
   40.8280   30.6840   37.7940 C   0  0  0  0  0  0  0  0  0  0  0  0
   39.4710   30.9280   37.8450 C   0  0  0  0  0  0  0  0  0  0  0  0
   39.5320   33.7050   39.6350 H   0  0  0  0  0  0  0  0  0  0  0  0
   41.9010   33.3530   39.5900 H   0  0  0  0  0  0  0  0  0  0  0  0
   42.8400   31.3830   38.3970 H   0  0  0  0  0  0  0  0  0  0  0  0
   41.3610   29.8510   37.2990 H   0  0  0  0  0  0  0  0  0  0  0  0
   38.5690   28.6800   37.8610 C   0  0  0  0  0  0  0  0  0  0  0  0
   38.7560   28.2300   39.0640 O   0  0  0  0  0  0  0  0  0  0  0  0
   38.8260   29.8770   37.1070 N   0  0  0  0  0  0  0  0  0  0  0  0
   38.0740   27.7870   37.4380 H   0  0  0  0  0  0  0  0  0  0  0  0
   38.4970   29.7820   36.1360 H   0  0  0  0  0  0  0  0  0  0  0  0
   37.8200   28.7930   43.2220 C   0  0  0  0  0  0  0  0  0  0  0  0
   38.9200   28.7400   42.9900 H   0  0  0  0  0  0  0  0  0  0  0  0
   37.7210   29.4040   44.1190 H   0  0  0  0  0  0  0  0  0  0  0  0
   37.3920   27.3690   43.5140 C   0  0  0  0  0  0  0  0  0  0  0  0
   37.1320   27.3480   44.5910 H   0  0  0  0  0  0  0  0  0  0  0  0
   36.6060   27.0140   42.8470 H   0  0  0  0  0  0  0  0  0  0  0  0
   36.9480   24.8490   41.8170 Cl  0  0  0  0  0  0  0  0  0  0  0  0
   38.4540   25.3680   42.5380 C   0  0  0  0  0  0  0  0  0  0  0  0
   38.6120   26.5150   43.3060 C   0  0  0  0  0  0  0  0  0  0  0  0
   39.8230   26.8800   43.8560 C   0  0  0  0  0  0  0  0  0  0  0  0
   39.9180   27.7780   44.4480 H   0  0  0  0  0  0  0  0  0  0  0  0
   40.9240   26.0770   43.6380 C   0  0  0  0  0  0  0  0  0  0  0  0
   41.8700   26.3940   44.0890 H   0  0  0  0  0  0  0  0  0  0  0  0
   40.8430   24.9230   42.8870 C   0  0  0  0  0  3  0  0  0  0  0  0
   39.5990   24.6150   42.3640 C   0  0  0  0  0  3  0  0  0  0  0  0
  1  2  1  0  0  0  0
  2  8  1  0  0  0  0
  2  3  2  0  0  0  0
  3 30  1  0  0  0  0
  4  3  1  0  0  0  0
  5  4  2  0  0  0  0
  6  1  2  0  0  0  0
  6  5  1  0  0  0  0
  7  1  1  0  0  0  0
  9  5  1  0  0  0  0
  9 10  1  0  0  0  0
 11  9  1  0  0  0  0
 12 15  1  0  0  0  0
 12  9  1  0  0  0  0
 13 12  1  0  0  0  0
 14 12  1  0  0  0  0
 15 16  1  0  0  0  0
 16 21  1  0  0  0  0
 17 16  2  0  0  0  0
 17 22  1  0  0  0  0
 18 23  1  0  0  0  0
 18 17  1  0  0  0  0
 19 20  1  0  0  0  0
 19 18  2  0  0  0  0
 20 15  2  0  0  0  0
 24 19  1  0  0  0  0
 25 26  2  0  0  0  0
 27 20  1  0  0  0  0
 27 25  1  0  0  0  0
 28 25  1  0  0  0  0
 29 27  1  0  0  0  0
 30 33  1  0  0  0  0
 30 32  1  0  0  0  0
 31 30  1  0  0  0  0
 33 34  1  0  0  0  0
 35 33  1  0  0  0  0
 36 37  1  0  0  0  0
 37 38  1  0  0  0  0
 38 33  1  0  0  0  0
 38 39  2  0  0  0  0
 39 40  1  0  0  0  0
 41 39  1  0  0  0  0
 41 42  1  0  0  0  0
 43 41  2  0  0  0  0
 44 37  2  0  0  0  0
 44 43  1  0  0  0  0
M  END
>  <minimizedAffinity>
-5.84078264

$$$$

 OpenBabel03242511483D

 44 46  0  0  0  0  0  0  0  0999 V2000
   37.2450   30.3540   37.2620 C   0  0  0  0  0  0  0  0  0  0  0  0
   36.6050   29.4510   38.1600 C   0  0  0  0  0  0  0  0  0  0  0  0
   36.2340   29.9450   39.3930 C   0  0  0  0  0  0  0  0  0  0  0  0
   36.4800   31.2250   39.7040 N   0  0  0  0  0  0  0  0  0  0  0  0
   37.0940   32.0370   38.8070 C   0  0  0  0  0  0  0  0  0  0  0  0
   37.4690   31.6350   37.6270 N   0  0  0  0  0  0  0  0  0  0  0  0
   37.5810   30.0750   36.2630 H   0  0  0  0  0  0  0  0  0  0  0  0
   36.4960   28.4660   37.7270 H   0  0  0  0  0  0  0  0  0  0  0  0
   37.3240   33.4380   39.2410 C   0  0  0  0  0  0  0  0  0  0  0  0
   36.3740   34.0210   39.3030 H   0  0  0  0  0  0  0  0  0  0  0  0
   37.9590   33.9280   38.4650 H   0  0  0  0  0  0  0  0  0  0  0  0
   38.0790   33.4190   40.5450 C   0  0  0  0  0  0  0  0  0  0  0  0
   37.5270   34.0830   41.2700 H   0  0  0  0  0  0  0  0  0  0  0  0
   38.0700   32.4110   41.0250 H   0  0  0  0  0  0  0  0  0  0  0  0
   39.4490   33.8520   40.3950 C   0  0  0  0  0  0  0  0  0  0  0  0
   39.9220   35.0650   39.9340 C   0  0  0  0  0  0  0  0  0  0  0  0
   41.2440   35.3770   39.8310 C   0  0  0  0  0  0  0  0  0  0  0  0
   42.1620   34.4380   40.2040 C   0  0  0  0  0  0  0  0  0  0  0  0
   41.7060   33.2220   40.6670 C   0  0  0  0  0  0  0  0  0  0  0  0
   40.3620   32.9220   40.7640 C   0  0  0  0  0  0  0  0  0  0  0  0
   39.1310   35.7780   39.6500 H   0  0  0  0  0  0  0  0  0  0  0  0
   41.4420   36.3760   39.4490 H   0  0  0  0  0  0  0  0  0  0  0  0
   43.2060   34.7480   40.0980 H   0  0  0  0  0  0  0  0  0  0  0  0
   42.5750   32.5880   40.9220 H   0  0  0  0  0  0  0  0  0  0  0  0
   40.2700   30.5540   40.2600 C   0  0  0  0  0  0  0  0  0  0  0  0
   40.3280   30.4630   38.9670 O   0  0  0  0  0  0  0  0  0  0  0  0
   40.2670   31.5790   41.2690 N   0  0  0  0  0  0  0  0  0  0  0  0
   40.2100   29.4740   40.4890 H   0  0  0  0  0  0  0  0  0  0  0  0
   40.1950   31.1720   42.2120 H   0  0  0  0  0  0  0  0  0  0  0  0
   35.5800   28.9560   40.2680 C   0  0  0  0  0  0  0  0  0  0  0  0
   35.6950   29.3160   41.3290 H   0  0  0  0  0  0  0  0  0  0  0  0
   34.5090   28.8450   40.0930 H   0  0  0  0  0  0  0  0  0  0  0  0
   36.2580   27.6020   40.2170 C   0  0  0  0  0  0  0  0  0  0  0  0
   35.4460   26.8550   40.3160 H   0  0  0  0  0  0  0  0  0  0  0  0
   36.8920   27.4750   39.3400 H   0  0  0  0  0  0  0  0  0  0  0  0
   39.2410   27.1080   39.6790 Cl  0  0  0  0  0  0  0  0  0  0  0  0
   38.4820   27.3060   41.2420 C   0  0  0  0  0  0  0  0  0  0  0  0
   37.1250   27.5230   41.4440 C   0  0  0  0  0  0  0  0  0  0  0  0
   36.5740   27.6700   42.7000 C   0  0  0  0  0  0  0  0  0  0  0  0
   35.5150   27.8390   42.8270 H   0  0  0  0  0  0  0  0  0  0  0  0
   37.4000   27.5990   43.8030 C   0  0  0  0  0  0  0  0  0  0  0  0
   36.9320   27.7190   44.7850 H   0  0  0  0  0  0  0  0  0  0  0  0
   38.7570   27.3850   43.6810 C   0  0  0  0  0  3  0  0  0  0  0  0
   39.2440   27.2460   42.3920 C   0  0  0  0  0  3  0  0  0  0  0  0
  1  6  2  0  0  0  0
  1  2  1  0  0  0  0
  2  3  2  0  0  0  0
  3  4  1  0  0  0  0
  3 30  1  0  0  0  0
  5  9  1  0  0  0  0
  5  4  2  0  0  0  0
  6  5  1  0  0  0  0
  7  1  1  0  0  0  0
  8  2  1  0  0  0  0
  9 10  1  0  0  0  0
  9 12  1  0  0  0  0
 11  9  1  0  0  0  0
 12 14  1  0  0  0  0
 12 13  1  0  0  0  0
 15 12  1  0  0  0  0
 15 20  1  0  0  0  0
 16 15  2  0  0  0  0
 17 16  1  0  0  0  0
 17 18  2  0  0  0  0
 18 19  1  0  0  0  0
 19 20  2  0  0  0  0
 19 24  1  0  0  0  0
 20 27  1  0  0  0  0
 21 16  1  0  0  0  0
 22 17  1  0  0  0  0
 23 18  1  0  0  0  0
 25 28  1  0  0  0  0
 25 27  1  0  0  0  0
 26 25  2  0  0  0  0
 27 29  1  0  0  0  0
 30 31  1  0  0  0  0
 32 30  1  0  0  0  0
 33 30  1  0  0  0  0
 33 34  1  0  0  0  0
 33 38  1  0  0  0  0
 35 33  1  0  0  0  0
 36 37  1  0  0  0  0
 37 38  2  0  0  0  0
 37 44  1  0  0  0  0
 38 39  1  0  0  0  0
 39 40  1  0  0  0  0
 39 41  2  0  0  0  0
 41 42  1  0  0  0  0
 43 41  1  0  0  0  0
 44 43  2  0  0  0  0
M  END
>  <minimizedAffinity>
-5.82577658

$$$$
