
 OpenBabel03252506593D

 24 25  0  0  0  0  0  0  0  0999 V2000
   45.5900   32.8580   44.6620 C   0  0  0  0  0  0  0  0  0  0  0  0
   44.6710   32.5470   44.1110 H   0  0  0  0  0  0  0  0  0  0  0  0
   45.2580   33.4750   45.5030 H   0  0  0  0  0  0  0  0  0  0  0  0
   46.5230   33.5590   43.7850 C   0  0  0  0  0  0  0  0  0  0  0  0
   47.8480   33.1710   43.6600 C   0  0  0  0  0  0  0  0  0  0  0  0
   48.7220   33.8610   42.8110 C   0  0  0  0  0  0  0  0  0  0  0  0
   48.1850   34.9110   42.1400 N   0  0  0  0  0  0  0  0  0  0  0  0
   46.8890   35.2830   42.2700 C   0  0  0  0  0  0  0  0  0  0  0  0
   46.0590   34.6150   43.0850 N   0  0  0  0  0  0  0  0  0  0  0  0
   48.2480   32.3280   44.2090 H   0  0  0  0  0  0  0  0  0  0  0  0
   49.7350   33.5440   42.7320 H   0  0  0  0  0  0  0  0  0  0  0  0
   46.4730   36.1260   41.7250 H   0  0  0  0  0  0  0  0  0  0  0  0
   46.2730   31.6540   45.2570 C   0  0  0  0  0  0  0  0  0  0  0  0
   45.9780   30.7420   44.6860 H   0  0  0  0  0  0  0  0  0  0  0  0
   47.3610   31.7450   45.1500 H   0  0  0  0  0  0  0  0  0  0  0  0
   45.0230   29.0430   46.0010 Cl  0  0  0  0  0  0  0  0  0  0  0  0
   45.3770   30.2990   47.1630 C   0  0  0  0  0  0  0  0  0  0  0  0
   45.9550   31.4610   46.6990 C   0  0  0  0  0  0  0  0  0  0  0  0
   46.2380   32.4600   47.6150 C   0  0  0  0  0  0  0  0  0  0  0  0
   46.6870   33.3900   47.3320 H   0  0  0  0  0  0  0  0  0  0  0  0
   45.9460   32.2920   48.9640 C   0  0  0  0  0  0  0  0  0  0  0  0
   46.1550   33.0590   49.7170 H   0  0  0  0  0  0  0  0  0  0  0  0
   45.3590   31.1090   49.4270 C   0  0  0  0  0  3  0  0  0  0  0  0
   45.0860   30.1270   48.4990 C   0  0  0  0  0  3  0  0  0  0  0  0
  1 13  1  0  0  0  0
  1  3  1  0  0  0  0
  2  1  1  0  0  0  0
  4  1  1  0  0  0  0
  5  4  1  0  0  0  0
  5 10  1  0  0  0  0
  6  5  2  0  0  0  0
  7  8  2  0  0  0  0
  7  6  1  0  0  0  0
  8  9  1  0  0  0  0
  9  4  2  0  0  0  0
 11  6  1  0  0  0  0
 12  8  1  0  0  0  0
 13 18  1  0  0  0  0
 14 13  1  0  0  0  0
 15 13  1  0  0  0  0
 16 17  1  0  0  0  0
 17 24  1  0  0  0  0
 18 17  2  0  0  0  0
 18 19  1  0  0  0  0
 19 21  2  0  0  0  0
 20 19  1  0  0  0  0
 21 23  1  0  0  0  0
 21 22  1  0  0  0  0
 24 23  2  0  0  0  0
M  END
>  <minimizedAffinity>
-4.16745472

>  <minimizedRMSD>
6.78763914

$$$$
