
 OpenBabel03242518173D

 23 24  0  0  0  0  0  0  0  0999 V2000
   46.8680   32.6970   46.5820 C   0  0  0  0  0  0  0  0  0  0  0  0
   47.9030   32.4420   46.2380 H   0  0  0  0  0  0  0  0  0  0  0  0
   46.8970   33.1250   47.5850 H   0  0  0  0  0  0  0  0  0  0  0  0
   45.6410   31.8040   49.2180 Cl  0  0  0  0  0  0  0  0  0  0  0  0
   45.4760   30.9190   47.7120 C   0  0  0  0  0  0  0  0  0  0  0  0
   46.0780   31.4220   46.5790 C   0  0  0  0  0  0  0  0  0  0  0  0
   45.9160   30.6790   45.4050 C   0  0  0  0  0  0  0  0  0  0  0  0
   46.4020   31.1000   44.5270 H   0  0  0  0  0  0  0  0  0  0  0  0
   45.2090   29.5110   45.3400 C   0  0  0  0  0  0  0  0  0  0  0  0
   45.1260   28.9900   44.3950 H   0  0  0  0  0  0  0  0  0  0  0  0
   44.6150   29.0280   46.4960 C   0  0  0  0  0  0  0  0  0  0  0  0
   44.7510   29.7390   47.6880 C   0  0  0  0  0  0  0  0  0  0  0  0
   44.6210   35.1870   45.1270 C   0  0  0  0  0  0  0  0  0  0  0  0
   45.1060   35.3380   43.8100 C   0  0  0  0  0  0  0  0  0  0  0  0
   46.2030   34.5750   43.4480 C   0  0  0  0  0  0  0  0  0  0  0  0
   46.7450   33.7440   44.3460 N   0  0  0  0  0  0  0  0  0  0  0  0
   46.2590   33.6230   45.5920 C   0  0  0  0  0  0  0  0  0  0  0  0
   45.1860   34.3430   46.0070 N   0  0  0  0  0  0  0  0  0  0  0  0
   43.7640   35.7500   45.4870 H   0  0  0  0  0  0  0  0  0  0  0  0
   46.5110   34.7440   42.4410 H   0  0  0  0  0  0  0  0  0  0  0  0
   44.3890   36.2750   43.0070 N   0  0  0  0  0  0  0  0  0  0  0  0
   44.4560   37.3120   42.8890 H   0  0  0  0  0  0  0  0  0  0  0  0
   43.7570   35.5740   42.5600 H   0  0  0  0  0  0  0  0  0  0  0  0
  1  3  1  0  0  0  0
  2  1  1  0  0  0  0
  5  4  1  0  0  0  0
  6  1  1  0  0  0  0
  6  5  2  0  0  0  0
  7  6  1  0  0  0  0
  8  7  1  0  0  0  0
  9  7  2  0  0  0  0
  9 11  1  0  0  0  0
 10  9  1  0  0  0  0
 11 12  2  0  0  0  0
 12  5  1  0  0  0  0
 13 19  1  0  0  0  0
 13 18  1  0  0  0  0
 14 13  2  0  0  0  0
 15 14  1  0  0  0  0
 15 16  2  0  0  0  0
 16 17  1  0  0  0  0
 17 18  2  0  0  0  0
 17  1  1  0  0  0  0
 20 15  1  0  0  0  0
 21 14  1  0  0  0  0
 22 21  1  0  0  0  0
 23 21  1  0  0  0  0
M  END
>  <minimizedAffinity>
-4.74167156

>  <minimizedRMSD>
1.40555871

$$$$
