
 OpenBabel03242515383D

 36 39  0  0  0  0  0  0  0  0999 V2000
   43.9820   34.7750   40.9630 C   0  0  0  0  0  0  0  0  0  0  0  0
   43.9490   33.8710   39.9360 C   0  0  0  0  0  0  0  0  0  0  0  0
   45.1370   33.2490   39.5600 C   0  0  0  0  0  0  0  0  0  0  0  0
   46.2610   33.5850   40.2480 N   0  0  0  0  0  0  0  0  0  0  0  0
   46.2650   34.4730   41.2530 C   0  0  0  0  0  0  0  0  0  0  0  0
   45.1190   35.0390   41.5750 N   0  0  0  0  0  0  0  0  0  0  0  0
   43.0560   33.6390   39.4470 H   0  0  0  0  0  0  0  0  0  0  0  0
   47.1030   33.7030   37.1250 Cl  0  0  0  0  0  0  0  0  0  0  0  0
   46.1220   32.2940   37.4150 C   0  0  0  0  0  0  0  0  0  0  0  0
   45.3270   32.2650   38.5290 C   0  0  0  0  0  0  0  0  0  0  0  0
   44.6430   31.0710   38.6250 C   0  0  0  0  0  0  0  0  0  0  0  0
   43.9460   30.8350   39.4470 H   0  0  0  0  0  0  0  0  0  0  0  0
   44.7410   30.0380   37.7220 C   0  0  0  0  0  0  0  0  0  0  0  0
   44.1910   29.1190   37.8280 H   0  0  0  0  0  0  0  0  0  0  0  0
   45.5600   30.1380   36.6240 C   0  0  0  0  0  0  0  0  0  0  0  0
   46.2710   31.3080   36.4740 C   0  0  0  0  0  0  0  0  0  0  0  0
   42.4050   35.5450   41.3970 S   0  0  0  0  0  0  0  0  0  0  0  0
   40.0400   34.9370   40.2690 C   0  0  0  0  0  0  0  0  0  0  0  0
   41.0520   34.4400   41.0750 C   0  0  0  0  0  0  0  0  0  0  0  0
   40.9790   33.1560   41.5800 C   0  0  0  0  0  0  0  0  0  0  0  0
   39.9110   32.3170   41.3110 C   0  0  0  0  0  0  0  0  0  0  0  0
   38.8950   32.8250   40.4980 C   0  0  0  0  0  0  0  0  0  0  0  0
   38.9370   34.1210   39.9690 C   0  0  0  0  0  0  0  0  0  0  0  0
   37.9130   31.8210   40.3490 O   0  0  0  0  0  0  0  0  0  0  0  0
   38.2010   30.8700   41.3510 C   0  0  0  0  0  0  0  0  0  0  0  0
   39.5700   31.0230   41.6620 O   0  0  0  0  0  0  0  0  0  0  0  0
   40.0020   35.9220   39.8270 H   0  0  0  0  0  0  0  0  0  0  0  0
   41.7920   32.8040   42.2060 H   0  0  0  0  0  0  0  0  0  0  0  0
   38.1310   34.4810   39.3430 H   0  0  0  0  0  0  0  0  0  0  0  0
   37.5340   30.9000   42.2200 H   0  0  0  0  0  0  0  0  0  0  0  0
   38.1120   29.8690   40.8550 H   0  0  0  0  0  0  0  0  0  0  0  0
   47.3800   34.8340   41.9670 O   0  0  0  0  0  0  0  0  0  0  0  0
   48.5720   35.1270   41.3030 C   0  0  0  0  0  0  0  0  0  0  0  0
   49.5530   34.2150   41.5280 F   0  0  0  0  0  0  0  0  0  0  0  0
   48.2160   35.2430   39.9470 F   0  0  0  0  0  0  0  0  0  0  0  0
   49.0180   36.3530   41.7870 F   0  0  0  0  0  0  0  0  0  0  0  0
  1 17  1  0  0  0  0
  1  6  1  0  0  0  0
  2  1  2  0  0  0  0
  3  2  1  0  0  0  0
  3  4  2  0  0  0  0
  4  5  1  0  0  0  0
  5  6  2  0  0  0  0
  5 32  1  0  0  0  0
  7  2  1  0  0  0  0
  8  9  1  0  0  0  0
  9 10  1  0  0  0  0
 10 11  2  0  0  0  0
 10  3  1  0  0  0  0
 11 12  1  0  0  0  0
 13 14  1  0  0  0  0
 13 11  1  0  0  0  0
 15 13  2  0  0  0  0
 16 15  1  0  0  0  0
 16  9  2  0  0  0  0
 18 19  1  0  0  0  0
 19 17  1  0  0  0  0
 19 20  2  0  0  0  0
 20 28  1  0  0  0  0
 21 20  1  0  0  0  0
 21 26  1  0  0  0  0
 22 21  2  0  0  0  0
 23 18  2  0  0  0  0
 23 22  1  0  0  0  0
 24 22  1  0  0  0  0
 24 25  1  0  0  0  0
 25 26  1  0  0  0  0
 25 30  1  0  0  0  0
 27 18  1  0  0  0  0
 29 23  1  0  0  0  0
 31 25  1  0  0  0  0
 33 34  1  0  0  0  0
 33 36  1  0  0  0  0
 33 32  1  0  0  0  0
 35 33  1  0  0  0  0
M  END
>  <minimizedAffinity>
-6.1219058

>  <minimizedRMSD>
0.194585606

$$$$
