
 OpenBabel03252506313D

 32 34  0  0  1  0  0  0  0  0999 V2000
   44.7470   35.7020   44.0670 C   0  0  0  0  0  0  0  0  0  0  0  0
   44.2930   35.3220   42.8050 C   0  0  0  0  0  0  0  0  0  0  0  0
   44.3430   33.9770   42.4440 C   0  0  0  0  0  0  0  0  0  0  0  0
   44.8400   33.1160   43.3690 N   0  0  0  0  0  0  0  0  0  0  0  0
   45.2680   33.5010   44.5690 C   0  0  0  0  0  0  0  0  0  0  0  0
   45.2290   34.7830   44.9330 N   0  0  0  0  0  0  0  0  0  0  0  0
   45.7620   32.5010   45.4480 N   0  0  0  0  0  0  0  0  0  0  0  0
   45.9950   32.7090   46.8870 C   0  0  0  0  0  0  0  0  0  0  0  0
   47.2370   31.8900   47.1100 C   0  0  0  0  0  0  0  0  0  0  0  0
   47.4450   31.0540   45.8770 C   0  0  0  0  0  0  0  0  0  0  0  0
   46.1250   31.1470   45.1840 C   0  0  2  0  0  0  0  0  0  0  0  0
   44.7620   36.7120   44.4670 H   0  0  0  0  0  0  0  0  0  0  0  0
   43.9870   33.7380   41.4740 H   0  0  0  0  0  0  0  0  0  0  0  0
   45.1300   32.3200   47.4730 H   0  0  0  0  0  0  0  0  0  0  0  0
   46.2190   33.7660   47.0370 H   0  0  0  0  0  0  0  0  0  0  0  0
   48.1120   32.5060   47.3920 H   0  0  0  0  0  0  0  0  0  0  0  0
   47.0240   31.1960   47.9590 H   0  0  0  0  0  0  0  0  0  0  0  0
   48.1850   31.6040   45.2270 H   0  0  0  0  0  0  0  0  0  0  0  0
   47.7690   30.0160   46.0850 H   0  0  0  0  0  0  0  0  0  0  0  0
   45.4010   30.5230   45.7900 H   0  0  0  0  0  0  0  0  0  0  0  0
   48.3800   32.2750   43.5020 Cl  0  0  0  0  0  0  0  0  0  0  0  0
   47.1440   31.1670   42.8970 C   0  0  0  0  0  0  0  0  0  0  0  0
   46.1690   30.7100   43.7920 C   0  0  0  0  0  0  0  0  0  0  0  0
   45.2830   29.8600   43.1750 C   0  0  0  0  0  0  0  0  0  0  0  0
   44.4620   29.4480   43.7740 H   0  0  0  0  0  0  0  0  0  0  0  0
   45.3040   29.4730   41.8600 C   0  0  0  0  0  0  0  0  0  0  0  0
   44.5680   28.7960   41.4450 H   0  0  0  0  0  0  0  0  0  0  0  0
   46.2990   29.9700   41.0530 C   0  0  0  0  0  3  0  0  0  0  0  0
   47.2270   30.8240   41.5780 C   0  0  0  0  0  3  0  0  0  0  0  0
   43.7990   36.3920   41.9760 N   0  0  0  0  0  0  0  0  0  0  0  0
   42.8200   36.3920   41.5780 H   0  0  0  0  0  0  0  0  0  0  0  0
   44.3800   37.2300   41.7200 H   0  0  0  0  0  0  0  0  0  0  0  0
  1 12  1  0  0  0  0
  1  6  1  0  0  0  0
  2  1  2  0  0  0  0
  3  2  1  0  0  0  0
  3  4  2  0  0  0  0
  4  5  1  0  0  0  0
  5  6  2  0  0  0  0
  5  7  1  0  0  0  0
  7  8  1  0  0  0  0
  8 15  1  0  0  0  0
  8  9  1  0  0  0  0
  8 14  1  0  0  0  0
  9 16  1  0  0  0  0
  9 17  1  0  0  0  0
 10 19  1  0  0  0  0
 10  9  1  0  0  0  0
 11  7  1  0  0  0  0
 11 20  1  1  0  0  0
 11 10  1  0  0  0  0
 13  3  1  0  0  0  0
 18 10  1  0  0  0  0
 22 21  1  0  0  0  0
 22 23  1  0  0  0  0
 23 11  1  0  0  0  0
 24 25  1  0  0  0  0
 24 23  2  0  0  0  0
 26 24  1  0  0  0  0
 27 26  1  0  0  0  0
 28 29  1  0  0  0  0
 28 26  2  0  0  0  0
 29 22  2  0  0  0  0
 30  2  1  0  0  0  0
 31 30  1  0  0  0  0
 32 30  1  0  0  0  0
M  END
>  <minimizedAffinity>
-3.88927364

>  <minimizedRMSD>
2.8536706

$$$$
