
     RDKit          3D

 29 30  0  0  0  0  0  0  0  0999 V2000
   44.5135   35.6168   44.7872 C   0  0  0  0  0  0  0  0  0  0  0  0
   44.9185   35.8177   43.4533 C   0  0  0  0  0  0  0  0  0  0  0  0
   45.9776   35.0179   42.9811 C   0  0  0  0  0  0  0  0  0  0  0  0
   46.5348   34.1098   43.8409 N   0  0  0  0  0  0  0  0  0  0  0  0
   46.1005   33.9647   45.1103 C   0  0  0  0  0  0  0  0  0  0  0  0
   45.0940   34.7162   45.5791 N   0  0  0  0  0  0  0  0  0  0  0  0
   46.6648   33.0477   45.9744 O   0  0  0  0  0  0  0  0  0  0  0  0
   46.9927   32.2862   48.4337 O   0  0  0  0  0  0  0  0  0  0  0  0
   45.9037   32.4059   47.3549 P   0  0  1  0  0  0  0  0  0  0  0  0
   44.6238   33.3601   47.8552 O   0  0  0  0  0  0  0  0  0  0  0  0
   45.3318   30.8348   47.0757 O   0  0  0  0  0  0  0  0  0  0  0  0
   45.1224   30.2512   48.3111 C   0  0  0  0  0  0  0  0  0  0  0  0
   43.7001   36.2292   45.1560 H   0  0  0  0  0  0  0  0  0  0  0  0
   44.4906   36.5213   42.7793 H   0  0  0  0  0  0  0  0  0  0  0  0
   46.3840   35.0730   41.9764 H   0  0  0  0  0  0  0  0  0  0  0  0
   44.6940   33.4872   48.8341 H   0  0  0  0  0  0  0  0  0  0  0  0
   46.0301   30.2989   48.9372 H   0  0  0  0  0  0  0  0  0  0  0  0
   44.3398   30.8440   48.8210 H   0  0  0  0  0  0  0  0  0  0  0  0
   43.0060   30.0748   46.1497 Cl  0  0  0  0  0  0  0  0  0  0  0  0
   43.6460   28.7437   47.0962 C   0  0  0  0  0  0  0  0  0  0  0  0
   44.6264   28.8693   48.0890 C   0  0  0  0  0  0  0  0  0  0  0  0
   45.0505   27.7462   48.7665 C   0  0  0  0  0  0  0  0  0  0  0  0
   45.8083   27.9016   49.5214 H   0  0  0  0  0  0  0  0  0  0  0  0
   44.5395   26.4931   48.4996 C   0  0  0  0  0  0  0  0  0  0  0  0
   44.8712   25.6169   49.0305 H   0  0  0  0  0  0  0  0  0  0  0  0
   43.5625   26.3114   47.5225 C   0  0  0  0  0  0  0  0  0  0  0  0
   43.1727   27.4662   46.8739 C   0  0  0  0  0  0  0  0  0  0  0  0
   43.1108   25.3675   47.2518 H   0  0  0  0  0  0  0  0  0  0  0  0
   42.4024   27.3485   46.0978 H   0  0  0  0  0  0  0  0  0  0  0  0
  1  6  2  0
  2  1  1  0
  3  2  2  0
  3  4  1  0
  4  5  2  0
  5  6  1  0
  5  7  1  0
  9  7  1  6
  9 10  1  0
  9  8  2  0
 11  9  1  0
 11 12  1  0
  1 13  1  0
  2 14  1  0
  3 15  1  0
 10 16  1  0
 12 17  1  0
 12 18  1  0
 19 20  1  0
 20 21  2  0
 21 22  1  0
 22 23  1  0
 22 24  2  0
 24 25  1  0
 24 26  1  0
 26 27  2  0
 27 20  1  0
 26 28  1  0
 27 29  1  0
 12 21  1  0
M  ISO  8  13  14  14  14  15  14  16   3  17   8  18   8  23  15  25  16
M  END
>  <DihAtoms>  (1) 
10,11,20,19

>  <DihDeg>  (1) 
76.0901109356461

$$$$
