
 OpenBabel03252506593D

 24 25  0  0  0  0  0  0  0  0999 V2000
   48.1490   35.2800   41.8830 C   0  0  0  0  0  0  0  0  0  0  0  0
   48.2480   36.0510   41.0830 H   0  0  0  0  0  0  0  0  0  0  0  0
   48.3050   35.7930   42.8360 H   0  0  0  0  0  0  0  0  0  0  0  0
   49.0880   34.1800   41.6790 C   0  0  0  0  0  0  0  0  0  0  0  0
   48.8650   33.1890   40.7360 C   0  0  0  0  0  0  0  0  0  0  0  0
   49.7830   32.1450   40.5600 C   0  0  0  0  0  0  0  0  0  0  0  0
   50.8760   32.1800   41.3640 N   0  0  0  0  0  0  0  0  0  0  0  0
   51.0830   33.1530   42.2830 C   0  0  0  0  0  0  0  0  0  0  0  0
   50.1980   34.1490   42.4430 N   0  0  0  0  0  0  0  0  0  0  0  0
   47.9830   33.1880   40.1090 H   0  0  0  0  0  0  0  0  0  0  0  0
   49.5900   31.3950   39.8300 H   0  0  0  0  0  0  0  0  0  0  0  0
   51.9640   33.1680   42.9190 H   0  0  0  0  0  0  0  0  0  0  0  0
   46.7440   34.7370   41.9110 C   0  0  0  0  0  0  0  0  0  0  0  0
   46.0740   35.4160   41.3340 H   0  0  0  0  0  0  0  0  0  0  0  0
   46.7040   33.7630   41.4080 H   0  0  0  0  0  0  0  0  0  0  0  0
   44.6300   36.6720   42.7560 Cl  0  0  0  0  0  0  0  0  0  0  0  0
   45.2360   35.4080   43.7960 C   0  0  0  0  0  0  0  0  0  0  0  0
   46.2140   34.5750   43.2930 C   0  0  0  0  0  0  0  0  0  0  0  0
   46.6990   33.5710   44.1140 C   0  0  0  0  0  0  0  0  0  0  0  0
   47.4580   32.8840   43.7960 H   0  0  0  0  0  0  0  0  0  0  0  0
   46.2120   33.4090   45.4060 C   0  0  0  0  0  0  0  0  0  0  0  0
   46.5710   32.6260   46.0820 H   0  0  0  0  0  0  0  0  0  0  0  0
   45.2210   34.2590   45.9080 C   0  0  0  0  0  0  0  0  0  0  0  0
   44.7510   35.2520   45.0760 C   0  0  0  0  0  0  0  0  0  0  0  0
  1 13  1  0  0  0  0
  1  3  1  0  0  0  0
  2  1  1  0  0  0  0
  4  1  1  0  0  0  0
  4  9  1  0  0  0  0
  5  4  2  0  0  0  0
  6  5  1  0  0  0  0
  6  7  2  0  0  0  0
  7  8  1  0  0  0  0
  8  9  2  0  0  0  0
  8 12  1  0  0  0  0
 10  5  1  0  0  0  0
 11  6  1  0  0  0  0
 13 18  1  0  0  0  0
 14 13  1  0  0  0  0
 15 13  1  0  0  0  0
 16 17  1  0  0  0  0
 17 24  1  0  0  0  0
 18 17  2  0  0  0  0
 18 19  1  0  0  0  0
 19 21  2  0  0  0  0
 20 19  1  0  0  0  0
 21 23  1  0  0  0  0
 21 22  1  0  0  0  0
 24 23  2  0  0  0  0
M  END
>  <minimizedAffinity>
-4.59113789

>  <minimizedRMSD>
6.09352827

$$$$
