
 OpenBabel03252507223D

 47 50  0  0  1  0  0  0  0  0999 V2000
   45.2710   31.6360   43.1460 C   0  0  0  0  0  0  0  0  0  0  0  0
   44.3670   30.7420   43.1610 O   0  0  0  0  0  0  0  0  0  0  0  0
   44.9860   33.0240   43.0590 N   0  0  0  0  0  0  0  0  0  0  0  0
   45.5520   34.1590   43.8040 C   0  0  0  0  0  0  0  0  0  0  0  0
   46.0140   35.2190   42.8090 C   0  0  0  0  0  0  0  0  0  0  0  0
   44.8460   35.7770   42.0660 C   0  0  0  0  0  0  0  0  0  0  0  0
   43.6380   34.8850   42.2680 C   0  0  0  0  0  0  0  0  0  0  0  0
   43.9850   33.4420   42.1090 C   0  0  2  0  0  0  0  0  0  0  0  0
   44.7890   34.5410   44.5100 H   0  0  0  0  0  0  0  0  0  0  0  0
   46.4260   33.8390   44.4190 H   0  0  0  0  0  0  0  0  0  0  0  0
   46.6720   35.9530   43.2590 H   0  0  0  0  0  0  0  0  0  0  0  0
   46.6390   34.6410   42.0670 H   0  0  0  0  0  0  0  0  0  0  0  0
   44.5690   36.7750   42.4950 H   0  0  0  0  0  0  0  0  0  0  0  0
   45.0280   35.9250   40.9860 H   0  0  0  0  0  0  0  0  0  0  0  0
   42.9600   35.1370   41.4000 H   0  0  0  0  0  0  0  0  0  0  0  0
   43.0760   35.1350   43.1800 H   0  0  0  0  0  0  0  0  0  0  0  0
   44.4340   33.3530   41.0740 H   0  0  0  0  0  0  0  0  0  0  0  0
   47.3800   31.1510   42.0180 C   0  0  0  0  0  0  0  0  0  0  0  0
   46.6450   31.2100   43.2230 C   0  0  0  0  0  0  0  0  0  0  0  0
   47.2420   30.8720   44.4300 C   0  0  0  0  0  0  0  0  0  0  0  0
   48.5380   30.4880   44.4000 N   0  0  0  0  0  0  0  0  0  0  0  0
   49.2660   30.4230   43.2440 C   0  0  0  0  0  0  0  0  0  0  0  0
   48.6680   30.7560   42.0770 N   0  0  0  0  0  0  0  0  0  0  0  0
   46.9510   31.4020   41.0800 H   0  0  0  0  0  0  0  0  0  0  0  0
   50.2690   30.1030   43.4000 H   0  0  0  0  0  0  0  0  0  0  0  0
   46.4570   30.9400   45.6340 C   0  0  0  0  0  0  0  0  0  0  0  0
   46.4240   32.0710   46.3770 C   0  0  0  0  0  0  0  0  0  0  0  0
   45.6600   32.1080   47.5260 C   0  0  0  0  0  0  0  0  0  0  0  0
   44.9110   31.0180   47.9660 C   0  0  0  0  0  0  0  0  0  0  0  0
   44.9790   29.8740   47.1660 C   0  0  0  0  0  0  0  0  0  0  0  0
   45.7300   29.8820   46.0610 N   0  0  0  0  0  0  0  0  0  0  0  0
   46.9460   32.9860   46.1730 H   0  0  0  0  0  0  0  0  0  0  0  0
   45.5760   32.9670   48.1780 H   0  0  0  0  0  0  0  0  0  0  0  0
   44.3050   30.9810   48.8390 H   0  0  0  0  0  0  0  0  0  0  0  0
   44.4470   28.9530   47.3890 H   0  0  0  0  0  0  0  0  0  0  0  0
   42.7510   32.6040   42.1040 C   0  0  0  0  0  0  0  0  0  0  0  0
   42.0180   32.8440   42.8690 H   0  0  0  0  0  0  0  0  0  0  0  0
   42.9540   31.4900   42.1230 H   0  0  0  0  0  0  0  0  0  0  0  0
   39.9120   33.7670   41.8660 Cl  0  0  0  0  0  0  0  0  0  0  0  0
   40.9010   33.2750   40.5080 C   0  0  0  0  0  0  0  0  0  0  0  0
   42.1660   32.7660   40.7160 C   0  0  0  0  0  0  0  0  0  0  0  0
   42.9720   32.3730   39.6610 C   0  0  0  0  0  0  0  0  0  0  0  0
   43.9540   31.9790   39.8540 H   0  0  0  0  0  0  0  0  0  0  0  0
   42.5470   32.4720   38.3510 C   0  0  0  0  0  0  0  0  0  0  0  0
   43.2240   32.1480   37.5710 H   0  0  0  0  0  0  0  0  0  0  0  0
   41.2830   32.9790   38.1260 C   0  0  0  0  0  3  0  0  0  0  0  0
   40.4820   33.3710   39.1870 C   0  0  0  0  0  3  0  0  0  0  0  0
  1  2  2  0  0  0  0
  1 19  1  0  0  0  0
  3  1  1  0  0  0  0
  3  4  1  0  0  0  0
  4 10  1  0  0  0  0
  4  9  1  0  0  0  0
  5 11  1  0  0  0  0
  5  4  1  0  0  0  0
  6  7  1  0  0  0  0
  6 13  1  0  0  0  0
  6  5  1  0  0  0  0
  7 16  1  0  0  0  0
  8 17  1  6  0  0  0
  8  7  1  0  0  0  0
  8  3  1  0  0  0  0
 12  5  1  0  0  0  0
 14  6  1  0  0  0  0
 15  7  1  0  0  0  0
 18 23  2  0  0  0  0
 18 19  1  0  0  0  0
 19 20  2  0  0  0  0
 20 26  1  0  0  0  0
 21 20  1  0  0  0  0
 22 25  1  0  0  0  0
 22 21  2  0  0  0  0
 23 22  1  0  0  0  0
 24 18  1  0  0  0  0
 26 31  2  0  0  0  0
 26 27  1  0  0  0  0
 27 28  2  0  0  0  0
 28 29  1  0  0  0  0
 28 33  1  0  0  0  0
 29 34  1  0  0  0  0
 30 35  1  0  0  0  0
 30 29  2  0  0  0  0
 31 30  1  0  0  0  0
 32 27  1  0  0  0  0
 36  8  1  0  0  0  0
 36 38  1  0  0  0  0
 36 37  1  0  0  0  0
 40 41  1  0  0  0  0
 40 39  1  0  0  0  0
 41 36  1  0  0  0  0
 42 43  1  0  0  0  0
 42 41  2  0  0  0  0
 44 42  1  0  0  0  0
 45 44  1  0  0  0  0
 46 44  2  0  0  0  0
 46 47  1  0  0  0  0
 47 40  2  0  0  0  0
M  END
>  <minimizedAffinity>
-4.95084

>  <minimizedRMSD>
6.09163666

$$$$
