
 OpenBabel03242511463D

 44 46  0  0  0  0  0  0  0  0999 V2000
   44.8900   35.7350   43.7790 C   0  0  0  0  0  0  0  0  0  0  0  0
   44.1090   35.6480   42.5910 C   0  0  0  0  0  0  0  0  0  0  0  0
   43.9250   34.3940   42.0470 C   0  0  0  0  0  0  0  0  0  0  0  0
   44.4740   33.3220   42.6350 N   0  0  0  0  0  0  0  0  0  0  0  0
   45.2090   33.4680   43.7660 C   0  0  0  0  0  0  0  0  0  0  0  0
   45.4200   34.6210   44.3300 N   0  0  0  0  0  0  0  0  0  0  0  0
   45.1010   36.6710   44.2950 H   0  0  0  0  0  0  0  0  0  0  0  0
   43.7550   36.6190   42.2720 H   0  0  0  0  0  0  0  0  0  0  0  0
   45.7760   32.2240   44.3440 C   0  0  0  0  0  0  0  0  0  0  0  0
   46.3840   31.6530   43.6010 H   0  0  0  0  0  0  0  0  0  0  0  0
   44.9200   31.5710   44.6370 H   0  0  0  0  0  0  0  0  0  0  0  0
   46.5590   32.5810   45.5810 C   0  0  0  0  0  0  0  0  0  0  0  0
   47.6370   32.3110   45.3940 H   0  0  0  0  0  0  0  0  0  0  0  0
   46.5730   33.6820   45.7700 H   0  0  0  0  0  0  0  0  0  0  0  0
   46.0610   31.9140   46.7610 C   0  0  0  0  0  0  0  0  0  0  0  0
   45.2910   32.4350   47.7830 C   0  0  0  0  0  0  0  0  0  0  0  0
   44.8680   31.7160   48.8600 C   0  0  0  0  0  0  0  0  0  0  0  0
   45.2230   30.4000   48.9400 C   0  0  0  0  0  0  0  0  0  0  0  0
   45.9910   29.8650   47.9280 C   0  0  0  0  0  0  0  0  0  0  0  0
   46.4110   30.6080   46.8430 C   0  0  0  0  0  0  0  0  0  0  0  0
   45.0390   33.5000   47.6590 H   0  0  0  0  0  0  0  0  0  0  0  0
   44.2710   32.2810   49.5720 H   0  0  0  0  0  0  0  0  0  0  0  0
   44.8540   29.8770   49.8270 H   0  0  0  0  0  0  0  0  0  0  0  0
   46.1830   28.7990   48.1510 H   0  0  0  0  0  0  0  0  0  0  0  0
   48.5280   29.4880   46.4750 C   0  0  0  0  0  0  0  0  0  0  0  0
   49.2930   29.8380   47.4630 O   0  0  0  0  0  0  0  0  0  0  0  0
   47.1890   29.7320   46.0100 N   0  0  0  0  0  0  0  0  0  0  0  0
   49.2460   28.8320   45.9490 H   0  0  0  0  0  0  0  0  0  0  0  0
   47.0020   29.2260   45.1320 H   0  0  0  0  0  0  0  0  0  0  0  0
   43.1090   34.3800   40.8200 C   0  0  0  0  0  0  0  0  0  0  0  0
   43.8000   34.5730   39.9530 H   0  0  0  0  0  0  0  0  0  0  0  0
   42.6200   33.4260   40.6200 H   0  0  0  0  0  0  0  0  0  0  0  0
   42.0910   35.5000   40.7910 C   0  0  0  0  0  0  0  0  0  0  0  0
   41.8810   35.7450   41.8510 H   0  0  0  0  0  0  0  0  0  0  0  0
   42.4040   36.3480   40.1810 H   0  0  0  0  0  0  0  0  0  0  0  0
   41.7460   35.9920   37.7790 Cl  0  0  0  0  0  0  0  0  0  0  0  0
   40.6550   35.1120   38.8240 C   0  0  0  0  0  0  0  0  0  0  0  0
   40.8440   34.9160   40.1860 C   0  0  0  0  0  0  0  0  0  0  0  0
   39.9490   34.2150   40.9670 C   0  0  0  0  0  0  0  0  0  0  0  0
   40.1220   34.0780   42.0240 H   0  0  0  0  0  0  0  0  0  0  0  0
   38.8200   33.6870   40.3780 C   0  0  0  0  0  0  0  0  0  0  0  0
   38.1300   33.1370   41.0260 H   0  0  0  0  0  0  0  0  0  0  0  0
   38.5640   33.8410   39.0310 C   0  0  0  0  0  0  0  0  0  0  0  0
   39.5020   34.5540   38.3050 C   0  0  0  0  0  0  0  0  0  0  0  0
  1  7  1  0  0  0  0
  1  6  1  0  0  0  0
  2  1  2  0  0  0  0
  3  2  1  0  0  0  0
  3  4  2  0  0  0  0
  4  5  1  0  0  0  0
  5  6  2  0  0  0  0
  5  9  1  0  0  0  0
  8  2  1  0  0  0  0
  9 11  1  0  0  0  0
  9 12  1  0  0  0  0
 10  9  1  0  0  0  0
 12 14  1  0  0  0  0
 12 15  1  0  0  0  0
 13 12  1  0  0  0  0
 15 20  2  0  0  0  0
 15 16  1  0  0  0  0
 16 17  2  0  0  0  0
 17 18  1  0  0  0  0
 17 22  1  0  0  0  0
 18 23  1  0  0  0  0
 19 24  1  0  0  0  0
 19 18  2  0  0  0  0
 20 19  1  0  0  0  0
 21 16  1  0  0  0  0
 25 26  2  0  0  0  0
 27 25  1  0  0  0  0
 27 20  1  0  0  0  0
 28 25  1  0  0  0  0
 29 27  1  0  0  0  0
 30  3  1  0  0  0  0
 31 30  1  0  0  0  0
 32 30  1  0  0  0  0
 33 30  1  0  0  0  0
 33 34  1  0  0  0  0
 35 33  1  0  0  0  0
 36 37  1  0  0  0  0
 37 38  1  0  0  0  0
 38 33  1  0  0  0  0
 38 39  2  0  0  0  0
 39 40  1  0  0  0  0
 41 39  1  0  0  0  0
 41 42  1  0  0  0  0
 43 41  2  0  0  0  0
 44 37  2  0  0  0  0
 44 43  1  0  0  0  0
M  END
>  <minimizedAffinity>
-6.36248398

>  <minimizedRMSD>
1.7654593

$$$$
