
 OpenBabel03252505303D

 27 28  0  0  0  0  0  0  0  0999 V2000
   47.0210   32.7670   46.2590 O   0  0  0  0  0  0  0  0  0  0  0  0
   46.6430   31.9070   45.0410 P   0  0  1  0  0  0  0  0  0  0  0  0
   45.1610   32.3420   44.3990 O   0  0  0  0  0  0  0  0  0  0  0  0
   44.6940   32.9190   45.0540 H   0  0  0  0  0  0  0  0  0  0  0  0
   47.9000   32.0980   43.9090 O   0  0  0  0  0  0  0  0  0  0  0  0
   47.2820   35.0970   42.1030 C   0  0  0  0  0  0  0  0  0  0  0  0
   48.5650   35.5580   41.7490 C   0  0  0  0  0  0  0  0  0  0  0  0
   49.6600   34.7780   42.1680 C   0  0  0  0  0  0  0  0  0  0  0  0
   49.4060   33.6370   42.8820 N   0  0  0  0  0  0  0  0  0  0  0  0
   48.1510   33.2490   43.1890 C   0  0  0  0  0  0  0  0  0  0  0  0
   47.0950   33.9760   42.8000 N   0  0  0  0  0  0  0  0  0  0  0  0
   46.4350   35.6920   41.7830 H   0  0  0  0  0  0  0  0  0  0  0  0
   48.7700   36.4420   41.1950 H   0  0  0  0  0  0  0  0  0  0  0  0
   50.6980   35.0210   41.9620 H   0  0  0  0  0  0  0  0  0  0  0  0
   46.5440   30.3090   45.5970 O   0  0  0  0  0  0  0  0  0  0  0  0
   45.2180   29.9280   45.5150 C   0  0  0  0  0  0  0  0  0  0  0  0
   44.5500   30.7130   45.9110 H   0  0  0  0  0  0  0  0  0  0  0  0
   44.9820   29.8070   44.4410 H   0  0  0  0  0  0  0  0  0  0  0  0
   45.0390   30.1770   48.5290 Cl  0  0  0  0  0  0  0  0  0  0  0  0
   44.9830   28.6910   47.5980 C   0  0  0  0  0  0  0  0  0  0  0  0
   45.0700   28.6200   46.2020 C   0  0  0  0  0  0  0  0  0  0  0  0
   45.0140   27.3900   45.5820 C   0  0  0  0  0  0  0  0  0  0  0  0
   45.0860   27.3950   44.5040 H   0  0  0  0  0  0  0  0  0  0  0  0
   44.8740   26.2170   46.2940 C   0  0  0  0  0  0  0  0  0  0  0  0
   44.8310   25.2570   45.8090 H   0  0  0  0  0  0  0  0  0  0  0  0
   44.7820   26.2290   47.6840 C   0  0  0  0  0  3  0  0  0  0  0  0
   44.8430   27.4850   48.2560 C   0  0  0  0  0  3  0  0  0  0  0  0
  2 15  1  0  0  0  0
  2  1  2  1  0  0  0
  3  2  1  0  0  0  0
  3  4  1  0  0  0  0
  5  2  1  0  0  0  0
  6 11  1  0  0  0  0
  7  6  2  0  0  0  0
  7  8  1  0  0  0  0
  8  9  2  0  0  0  0
  9 10  1  0  0  0  0
 10  5  1  0  0  0  0
 11 10  2  0  0  0  0
 12  6  1  0  0  0  0
 13  7  1  0  0  0  0
 14  8  1  0  0  0  0
 16 15  1  0  0  0  0
 16 17  1  0  0  0  0
 16 21  1  0  0  0  0
 18 16  1  0  0  0  0
 20 27  1  0  0  0  0
 20 19  1  0  0  0  0
 21 20  2  0  0  0  0
 22 21  1  0  0  0  0
 22 24  2  0  0  0  0
 23 22  1  0  0  0  0
 24 26  1  0  0  0  0
 25 24  1  0  0  0  0
 26 27  2  0  0  0  0
M  END
>  <minimizedAffinity>
-3.98241806

>  <minimizedRMSD>
2.82403708

$$$$
