
 OpenBabel03252509253D

 27 29  0  0  1  0  0  0  0  0999 V2000
   38.6930   29.3700   42.6270 C   0  0  1  0  0  0  0  0  0  0  0  0
   37.3530   28.8760   43.2380 C   0  0  0  0  0  0  0  0  0  0  0  0
   38.1720   28.1440   42.1370 C   0  0  2  0  0  0  0  0  0  0  0  0
   39.4900   29.4890   43.3850 H   0  0  0  0  0  0  0  0  0  0  0  0
   37.4080   28.4630   44.2470 H   0  0  0  0  0  0  0  0  0  0  0  0
   36.4230   29.3600   42.9650 H   0  0  0  0  0  0  0  0  0  0  0  0
   37.6330   28.1590   41.1570 H   0  0  0  0  0  0  0  0  0  0  0  0
   36.8390   25.7220   40.8400 Cl  0  0  0  0  0  0  0  0  0  0  0  0
   38.1980   25.6370   41.9440 C   0  0  0  0  0  0  0  0  0  0  0  0
   38.7010   26.8000   42.4560 C   0  0  0  0  0  0  0  0  0  0  0  0
   39.7830   26.7720   43.3380 C   0  0  0  0  0  0  0  0  0  0  0  0
   40.2670   27.6170   43.8070 H   0  0  0  0  0  0  0  0  0  0  0  0
   40.3250   25.5480   43.6780 C   0  0  0  0  0  0  0  0  0  0  0  0
   41.1600   25.4430   44.3530 H   0  0  0  0  0  0  0  0  0  0  0  0
   39.7930   24.3770   43.1420 C   0  0  0  0  0  3  0  0  0  0  0  0
   38.7140   24.3940   42.2610 C   0  0  0  0  0  3  0  0  0  0  0  0
   39.2020   32.6940   40.9530 C   0  0  0  0  0  0  0  0  0  0  0  0
   39.4580   31.5660   41.8050 C   0  0  0  0  0  0  0  0  0  0  0  0
   38.4630   30.6240   41.8140 C   0  0  0  0  0  0  0  0  0  0  0  0
   37.3110   30.7610   41.0640 N   0  0  0  0  0  0  0  0  0  0  0  0
   37.1200   31.8410   40.2820 C   0  0  0  0  0  0  0  0  0  0  0  0
   38.0600   32.8070   40.2240 N   0  0  0  0  0  0  0  0  0  0  0  0
   39.9890   33.4410   40.9450 H   0  0  0  0  0  0  0  0  0  0  0  0
   36.2320   31.9780   39.6830 H   0  0  0  0  0  0  0  0  0  0  0  0
   40.6390   31.4550   42.5790 N   0  0  0  0  0  0  0  0  0  0  0  0
   41.1720   30.5940   42.3800 H   0  0  0  0  0  0  0  0  0  0  0  0
   41.0680   32.0730   43.3030 H   0  0  0  0  0  0  0  0  0  0  0  0
  1  2  1  0  0  0  0
  1  4  1  1  0  0  0
  2  5  1  0  0  0  0
  3  7  1  6  0  0  0
  3 10  1  0  0  0  0
  3  1  1  0  0  0  0
  3  2  1  0  0  0  0
  6  2  1  0  0  0  0
  8  9  1  0  0  0  0
  9 16  2  0  0  0  0
  9 10  1  0  0  0  0
 10 11  2  0  0  0  0
 11 13  1  0  0  0  0
 11 12  1  0  0  0  0
 13 14  1  0  0  0  0
 15 13  2  0  0  0  0
 16 15  1  0  0  0  0
 17 18  1  0  0  0  0
 18 19  2  0  0  0  0
 18 25  1  0  0  0  0
 19  1  1  0  0  0  0
 20 19  1  0  0  0  0
 21 20  2  0  0  0  0
 22 21  1  0  0  0  0
 22 17  2  0  0  0  0
 23 17  1  0  0  0  0
 24 21  1  0  0  0  0
 25 27  1  0  0  0  0
 26 25  1  0  0  0  0
M  END
>  <minimizedAffinity>
-5.24871922

$$$$

 OpenBabel03252509253D

 27 29  0  0  1  0  0  0  0  0999 V2000
   36.0610   28.8000   39.4790 C   0  0  1  0  0  0  0  0  0  0  0  0
   36.0220   27.9460   38.1820 C   0  0  0  0  0  0  0  0  0  0  0  0
   36.9830   27.7260   39.3840 C   0  0  2  0  0  0  0  0  0  0  0  0
   35.0980   28.7940   40.0250 H   0  0  0  0  0  0  0  0  0  0  0  0
   35.1840   27.2520   38.0890 H   0  0  0  0  0  0  0  0  0  0  0  0
   36.4200   28.3470   37.2580 H   0  0  0  0  0  0  0  0  0  0  0  0
   38.0400   27.9650   39.1050 H   0  0  0  0  0  0  0  0  0  0  0  0
   37.5940   27.7190   42.3760 Cl  0  0  0  0  0  0  0  0  0  0  0  0
   37.1280   26.3030   41.4530 C   0  0  0  0  0  0  0  0  0  0  0  0
   36.8830   26.4430   40.1160 C   0  0  0  0  0  0  0  0  0  0  0  0
   36.5100   25.3390   39.3480 C   0  0  0  0  0  0  0  0  0  0  0  0
   36.2900   25.3210   38.2890 H   0  0  0  0  0  0  0  0  0  0  0  0
   36.3970   24.1110   39.9700 C   0  0  0  0  0  0  0  0  0  0  0  0
   36.1150   23.2110   39.4460 H   0  0  0  0  0  0  0  0  0  0  0  0
   36.6540   23.9950   41.3350 C   0  0  0  0  0  3  0  0  0  0  0  0
   37.0260   25.0910   42.1100 C   0  0  0  0  0  3  0  0  0  0  0  0
   36.9950   32.4230   39.8150 C   0  0  0  0  0  0  0  0  0  0  0  0
   36.4420   31.1420   40.1550 C   0  0  0  0  0  0  0  0  0  0  0  0
   36.5510   30.1970   39.1690 C   0  0  0  0  0  0  0  0  0  0  0  0
   37.1430   30.4670   37.9510 N   0  0  0  0  0  0  0  0  0  0  0  0
   37.6450   31.6870   37.6820 C   0  0  0  0  0  0  0  0  0  0  0  0
   37.5730   32.6650   38.6080 N   0  0  0  0  0  0  0  0  0  0  0  0
   36.9100   33.1730   40.5940 H   0  0  0  0  0  0  0  0  0  0  0  0
   38.1140   31.9310   36.7400 H   0  0  0  0  0  0  0  0  0  0  0  0
   35.8240   30.8920   41.4040 N   0  0  0  0  0  0  0  0  0  0  0  0
   36.2560   30.1100   41.9190 H   0  0  0  0  0  0  0  0  0  0  0  0
   35.0220   31.3460   41.8980 H   0  0  0  0  0  0  0  0  0  0  0  0
  1  4  1  1  0  0  0
  2  3  1  0  0  0  0
  2  1  1  0  0  0  0
  3  7  1  6  0  0  0
  3  1  1  0  0  0  0
  3 10  1  0  0  0  0
  5  2  1  0  0  0  0
  6  2  1  0  0  0  0
  9 16  1  0  0  0  0
  9  8  1  0  0  0  0
 10  9  2  0  0  0  0
 11 13  2  0  0  0  0
 11 10  1  0  0  0  0
 12 11  1  0  0  0  0
 13 15  1  0  0  0  0
 14 13  1  0  0  0  0
 15 16  2  0  0  0  0
 17 18  1  0  0  0  0
 17 23  1  0  0  0  0
 18 25  1  0  0  0  0
 19  1  1  0  0  0  0
 19 18  2  0  0  0  0
 20 19  1  0  0  0  0
 21 20  2  0  0  0  0
 21 22  1  0  0  0  0
 22 17  2  0  0  0  0
 24 21  1  0  0  0  0
 25 27  1  0  0  0  0
 25 26  1  0  0  0  0
M  END
>  <minimizedAffinity>
-5.23207664

$$$$

 OpenBabel03252509253D

 27 29  0  0  1  0  0  0  0  0999 V2000
   38.2860   31.3540   40.7590 C   0  0  1  0  0  0  0  0  0  0  0  0
   37.0580   30.9480   39.8990 C   0  0  0  0  0  0  0  0  0  0  0  0
   38.1410   29.9770   40.4480 C   0  0  2  0  0  0  0  0  0  0  0  0
   38.0010   31.8480   41.7070 H   0  0  0  0  0  0  0  0  0  0  0  0
   36.0930   30.9480   40.4100 H   0  0  0  0  0  0  0  0  0  0  0  0
   37.0420   31.1710   38.8390 H   0  0  0  0  0  0  0  0  0  0  0  0
   38.7650   29.5580   39.6200 H   0  0  0  0  0  0  0  0  0  0  0  0
   37.2920   27.2720   39.3130 Cl  0  0  0  0  0  0  0  0  0  0  0  0
   37.3000   27.6760   41.0180 C   0  0  0  0  0  0  0  0  0  0  0  0
   37.7030   28.9270   41.3950 C   0  0  0  0  0  0  0  0  0  0  0  0
   37.7230   29.2850   42.7440 C   0  0  0  0  0  0  0  0  0  0  0  0
   38.0190   30.2360   43.1640 H   0  0  0  0  0  0  0  0  0  0  0  0
   37.3270   28.3510   43.6800 C   0  0  0  0  0  0  0  0  0  0  0  0
   37.3130   28.5510   44.7400 H   0  0  0  0  0  0  0  0  0  0  0  0
   36.9190   27.0820   43.2700 C   0  0  0  0  0  3  0  0  0  0  0  0
   36.8960   26.7160   41.9270 C   0  0  0  0  0  3  0  0  0  0  0  0
   40.4710   34.1610   39.5520 C   0  0  0  0  0  0  0  0  0  0  0  0
   39.4910   33.4650   40.3380 C   0  0  0  0  0  0  0  0  0  0  0  0
   39.2500   32.1780   39.9340 C   0  0  0  0  0  0  0  0  0  0  0  0
   39.9000   31.6090   38.8560 N   0  0  0  0  0  0  0  0  0  0  0  0
   40.8100   32.3070   38.1510 C   0  0  0  0  0  0  0  0  0  0  0  0
   41.0980   33.5800   38.4940 N   0  0  0  0  0  0  0  0  0  0  0  0
   40.6640   35.1800   39.8700 H   0  0  0  0  0  0  0  0  0  0  0  0
   41.3360   31.8930   37.3040 H   0  0  0  0  0  0  0  0  0  0  0  0
   38.8240   34.0740   41.4290 N   0  0  0  0  0  0  0  0  0  0  0  0
   38.9430   33.5570   42.3140 H   0  0  0  0  0  0  0  0  0  0  0  0
   38.2420   34.9380   41.5060 H   0  0  0  0  0  0  0  0  0  0  0  0
  1  4  1  1  0  0  0
  2  5  1  0  0  0  0
  2  3  1  0  0  0  0
  2  1  1  0  0  0  0
  3  7  1  6  0  0  0
  3  1  1  0  0  0  0
  3 10  1  0  0  0  0
  6  2  1  0  0  0  0
  8  9  1  0  0  0  0
  9 10  2  0  0  0  0
  9 16  1  0  0  0  0
 10 11  1  0  0  0  0
 11 12  1  0  0  0  0
 11 13  2  0  0  0  0
 13 14  1  0  0  0  0
 15 13  1  0  0  0  0
 16 15  2  0  0  0  0
 17 23  1  0  0  0  0
 17 18  1  0  0  0  0
 18 25  1  0  0  0  0
 19 18  2  0  0  0  0
 19  1  1  0  0  0  0
 20 19  1  0  0  0  0
 21 22  1  0  0  0  0
 21 20  2  0  0  0  0
 22 17  2  0  0  0  0
 24 21  1  0  0  0  0
 25 27  1  0  0  0  0
 25 26  1  0  0  0  0
M  END
>  <minimizedAffinity>
-5.15433502

$$$$

 OpenBabel03252509253D

 27 29  0  0  1  0  0  0  0  0999 V2000
   36.8820   29.1530   41.4850 C   0  0  1  0  0  0  0  0  0  0  0  0
   35.5670   29.0140   40.6690 C   0  0  0  0  0  0  0  0  0  0  0  0
   36.8700   28.1980   40.4370 C   0  0  2  0  0  0  0  0  0  0  0  0
   36.7390   28.9490   42.5640 H   0  0  0  0  0  0  0  0  0  0  0  0
   34.7450   28.4960   41.1670 H   0  0  0  0  0  0  0  0  0  0  0  0
   35.2920   29.7780   39.9520 H   0  0  0  0  0  0  0  0  0  0  0  0
   37.3540   28.4770   39.4680 H   0  0  0  0  0  0  0  0  0  0  0  0
   36.0810   26.4850   38.0350 Cl  0  0  0  0  0  0  0  0  0  0  0  0
   36.4620   25.8530   39.6240 C   0  0  0  0  0  0  0  0  0  0  0  0
   36.8010   26.7300   40.6160 C   0  0  0  0  0  0  0  0  0  0  0  0
   37.1100   26.2640   41.8950 C   0  0  0  0  0  0  0  0  0  0  0  0
   37.3910   26.8530   42.7570 H   0  0  0  0  0  0  0  0  0  0  0  0
   37.0650   24.9040   42.1290 C   0  0  0  0  0  0  0  0  0  0  0  0
   37.2900   24.4660   43.0890 H   0  0  0  0  0  0  0  0  0  0  0  0
   36.7160   24.0300   41.1010 C   0  0  0  0  0  3  0  0  0  0  0  0
   36.4060   24.4860   39.8220 C   0  0  0  0  0  3  0  0  0  0  0  0
   39.3530   31.9790   41.3440 C   0  0  0  0  0  0  0  0  0  0  0  0
   38.7870   30.7060   41.6940 C   0  0  0  0  0  0  0  0  0  0  0  0
   37.5180   30.5000   41.2230 C   0  0  0  0  0  0  0  0  0  0  0  0
   36.8460   31.4480   40.4760 N   0  0  0  0  0  0  0  0  0  0  0  0
   37.4220   32.6270   40.1760 C   0  0  0  0  0  0  0  0  0  0  0  0
   38.6720   32.8960   40.6070 N   0  0  0  0  0  0  0  0  0  0  0  0
   40.3590   32.1430   41.7160 H   0  0  0  0  0  0  0  0  0  0  0  0
   36.9260   33.3890   39.5940 H   0  0  0  0  0  0  0  0  0  0  0  0
   39.4880   29.7560   42.4770 N   0  0  0  0  0  0  0  0  0  0  0  0
   39.5900   28.8430   42.0070 H   0  0  0  0  0  0  0  0  0  0  0  0
   39.9160   29.8050   43.4290 H   0  0  0  0  0  0  0  0  0  0  0  0
  1  4  1  1  0  0  0
  2  5  1  0  0  0  0
  2  1  1  0  0  0  0
  3  7  1  6  0  0  0
  3 10  1  0  0  0  0
  3  2  1  0  0  0  0
  3  1  1  0  0  0  0
  6  2  1  0  0  0  0
  8  9  1  0  0  0  0
  9 16  2  0  0  0  0
  9 10  1  0  0  0  0
 10 11  2  0  0  0  0
 11 13  1  0  0  0  0
 11 12  1  0  0  0  0
 13 14  1  0  0  0  0
 15 13  2  0  0  0  0
 16 15  1  0  0  0  0
 17 18  1  0  0  0  0
 17 23  1  0  0  0  0
 18 25  1  0  0  0  0
 19  1  1  0  0  0  0
 19 18  2  0  0  0  0
 20 19  1  0  0  0  0
 21 20  2  0  0  0  0
 21 22  1  0  0  0  0
 22 17  2  0  0  0  0
 24 21  1  0  0  0  0
 25 27  1  0  0  0  0
 26 25  1  0  0  0  0
M  END
>  <minimizedAffinity>
-5.03305292

$$$$

 OpenBabel03252509253D

 27 29  0  0  1  0  0  0  0  0999 V2000
   36.3040   28.5900   39.8110 C   0  0  1  0  0  0  0  0  0  0  0  0
   35.6620   27.7720   38.6570 C   0  0  0  0  0  0  0  0  0  0  0  0
   37.0220   27.4590   39.3420 C   0  0  2  0  0  0  0  0  0  0  0  0
   35.6620   28.6350   40.7110 H   0  0  0  0  0  0  0  0  0  0  0  0
   34.8170   27.1370   38.9300 H   0  0  0  0  0  0  0  0  0  0  0  0
   35.6620   28.1670   37.6480 H   0  0  0  0  0  0  0  0  0  0  0  0
   37.8770   27.6340   38.6430 H   0  0  0  0  0  0  0  0  0  0  0  0
   37.5790   24.9470   37.6980 Cl  0  0  0  0  0  0  0  0  0  0  0  0
   37.3980   24.9740   39.4420 C   0  0  0  0  0  0  0  0  0  0  0  0
   37.1490   26.1690   40.0570 C   0  0  0  0  0  0  0  0  0  0  0  0
   36.9980   26.2310   41.4430 C   0  0  0  0  0  0  0  0  0  0  0  0
   36.8000   27.1090   42.0420 H   0  0  0  0  0  0  0  0  0  0  0  0
   37.1050   25.0620   42.1700 C   0  0  0  0  0  0  0  0  0  0  0  0
   37.0010   25.0260   43.2440 H   0  0  0  0  0  0  0  0  0  0  0  0
   37.3590   23.8560   41.5190 C   0  0  0  0  0  3  0  0  0  0  0  0
   37.5110   23.7840   40.1360 C   0  0  0  0  0  3  0  0  0  0  0  0
   36.9540   32.2850   39.6250 C   0  0  0  0  0  0  0  0  0  0  0  0
   36.4710   31.0300   40.1300 C   0  0  0  0  0  0  0  0  0  0  0  0
   36.7150   29.9580   39.3130 C   0  0  0  0  0  0  0  0  0  0  0  0
   37.3700   30.0860   38.1040 N   0  0  0  0  0  0  0  0  0  0  0  0
   37.8020   31.2870   37.6760 C   0  0  0  0  0  0  0  0  0  0  0  0
   37.5970   32.3860   38.4310 N   0  0  0  0  0  0  0  0  0  0  0  0
   36.7620   33.1360   40.2710 H   0  0  0  0  0  0  0  0  0  0  0  0
   38.3180   31.4220   36.7370 H   0  0  0  0  0  0  0  0  0  0  0  0
   35.7850   30.9250   41.3650 N   0  0  0  0  0  0  0  0  0  0  0  0
   36.2350   30.2680   42.0210 H   0  0  0  0  0  0  0  0  0  0  0  0
   34.9220   31.3830   41.7330 H   0  0  0  0  0  0  0  0  0  0  0  0
  1  4  1  1  0  0  0
  2  5  1  0  0  0  0
  2  3  1  0  0  0  0
  2  1  1  0  0  0  0
  3  7  1  6  0  0  0
  3  1  1  0  0  0  0
  3 10  1  0  0  0  0
  6  2  1  0  0  0  0
  8  9  1  0  0  0  0
  9 10  2  0  0  0  0
  9 16  1  0  0  0  0
 10 11  1  0  0  0  0
 11 12  1  0  0  0  0
 11 13  2  0  0  0  0
 13 14  1  0  0  0  0
 15 13  1  0  0  0  0
 16 15  2  0  0  0  0
 17 18  1  0  0  0  0
 17 23  1  0  0  0  0
 18 25  1  0  0  0  0
 19  1  1  0  0  0  0
 19 18  2  0  0  0  0
 20 19  1  0  0  0  0
 21 20  2  0  0  0  0
 21 22  1  0  0  0  0
 22 17  2  0  0  0  0
 24 21  1  0  0  0  0
 25 27  1  0  0  0  0
 25 26  1  0  0  0  0
M  END
>  <minimizedAffinity>
-4.9454422

$$$$

 OpenBabel03252509253D

 27 29  0  0  1  0  0  0  0  0999 V2000
   36.6440   30.7080   39.8910 C   0  0  1  0  0  0  0  0  0  0  0  0
   37.0360   31.7350   38.7940 C   0  0  0  0  0  0  0  0  0  0  0  0
   36.9700   30.1930   38.6100 C   0  0  2  0  0  0  0  0  0  0  0  0
   35.6260   30.8780   40.2920 H   0  0  0  0  0  0  0  0  0  0  0  0
   36.2180   32.3170   38.3650 H   0  0  0  0  0  0  0  0  0  0  0  0
   38.0050   32.2180   38.8270 H   0  0  0  0  0  0  0  0  0  0  0  0
   37.9900   29.7580   38.4640 H   0  0  0  0  0  0  0  0  0  0  0  0
   34.2890   29.1580   39.6450 Cl  0  0  0  0  0  0  0  0  0  0  0  0
   34.7660   29.1690   37.9580 C   0  0  0  0  0  0  0  0  0  0  0  0
   35.9980   29.6610   37.6280 C   0  0  0  0  0  0  0  0  0  0  0  0
   36.4140   29.6860   36.2950 C   0  0  0  0  0  0  0  0  0  0  0  0
   37.3570   30.0470   35.9100 H   0  0  0  0  0  0  0  0  0  0  0  0
   35.5540   29.2040   35.3280 C   0  0  0  0  0  0  0  0  0  0  0  0
   35.8010   29.1890   34.2780 H   0  0  0  0  0  0  0  0  0  0  0  0
   34.3030   28.7080   35.6910 C   0  0  0  0  0  3  0  0  0  0  0  0
   33.8800   28.6790   37.0180 C   0  0  0  0  0  3  0  0  0  0  0  0
   38.6410   29.7080   42.9110 C   0  0  0  0  0  0  0  0  0  0  0  0
   37.5620   29.7340   41.9630 C   0  0  0  0  0  0  0  0  0  0  0  0
   37.7010   30.6690   40.9720 C   0  0  0  0  0  0  0  0  0  0  0  0
   38.7920   31.5140   40.9020 N   0  0  0  0  0  0  0  0  0  0  0  0
   39.7760   31.4480   41.8180 C   0  0  0  0  0  0  0  0  0  0  0  0
   39.7050   30.5500   42.8220 N   0  0  0  0  0  0  0  0  0  0  0  0
   38.5330   28.9680   43.6970 H   0  0  0  0  0  0  0  0  0  0  0  0
   40.6420   32.0930   41.7920 H   0  0  0  0  0  0  0  0  0  0  0  0
   36.4440   28.8710   42.0650 N   0  0  0  0  0  0  0  0  0  0  0  0
   36.3020   28.2950   41.2210 H   0  0  0  0  0  0  0  0  0  0  0  0
   35.7460   28.7070   42.8240 H   0  0  0  0  0  0  0  0  0  0  0  0
  1  4  1  1  0  0  0
  1 19  1  0  0  0  0
  2  6  1  0  0  0  0
  2  1  1  0  0  0  0
  3  7  1  6  0  0  0
  3  2  1  0  0  0  0
  3  1  1  0  0  0  0
  5  2  1  0  0  0  0
  9  8  1  0  0  0  0
 10  9  1  0  0  0  0
 10  3  1  0  0  0  0
 11 10  2  0  0  0  0
 12 11  1  0  0  0  0
 13 15  2  0  0  0  0
 13 11  1  0  0  0  0
 14 13  1  0  0  0  0
 15 16  1  0  0  0  0
 16  9  2  0  0  0  0
 17 23  1  0  0  0  0
 18 25  1  0  0  0  0
 18 17  2  0  0  0  0
 19 18  1  0  0  0  0
 20 19  2  0  0  0  0
 20 21  1  0  0  0  0
 21 22  2  0  0  0  0
 22 17  1  0  0  0  0
 24 21  1  0  0  0  0
 25 27  1  0  0  0  0
 26 25  1  0  0  0  0
M  END
>  <minimizedAffinity>
-4.88880968

$$$$

 OpenBabel03252509253D

 27 29  0  0  1  0  0  0  0  0999 V2000
   35.9980   29.5230   39.0380 C   0  0  1  0  0  0  0  0  0  0  0  0
   34.7100   29.1580   39.8250 C   0  0  0  0  0  0  0  0  0  0  0  0
   36.0080   28.3040   39.7640 C   0  0  2  0  0  0  0  0  0  0  0  0
   36.4390   30.4860   39.3620 H   0  0  0  0  0  0  0  0  0  0  0  0
   34.5340   29.7180   40.7450 H   0  0  0  0  0  0  0  0  0  0  0  0
   33.8310   28.8140   39.2940 H   0  0  0  0  0  0  0  0  0  0  0  0
   35.8420   27.3550   39.1970 H   0  0  0  0  0  0  0  0  0  0  0  0
   36.7060   25.4280   40.5160 Cl  0  0  0  0  0  0  0  0  0  0  0  0
   37.1060   26.8330   41.4840 C   0  0  0  0  0  0  0  0  0  0  0  0
   36.7340   28.0690   41.0330 C   0  0  0  0  0  0  0  0  0  0  0  0
   37.0350   29.2110   41.7760 C   0  0  0  0  0  0  0  0  0  0  0  0
   36.7960   30.2360   41.5270 H   0  0  0  0  0  0  0  0  0  0  0  0
   37.7110   29.0610   42.9700 C   0  0  0  0  0  0  0  0  0  0  0  0
   37.9790   29.8940   43.6020 H   0  0  0  0  0  0  0  0  0  0  0  0
   38.0790   27.7900   43.4090 C   0  0  0  0  0  3  0  0  0  0  0  0
   37.7840   26.6450   42.6740 C   0  0  0  0  0  3  0  0  0  0  0  0
   36.4610   29.6480   35.3120 C   0  0  0  0  0  0  0  0  0  0  0  0
   36.7650   29.7920   36.7090 C   0  0  0  0  0  0  0  0  0  0  0  0
   35.7320   29.4710   37.5500 C   0  0  0  0  0  0  0  0  0  0  0  0
   34.5030   29.0480   37.0820 N   0  0  0  0  0  0  0  0  0  0  0  0
   34.2700   28.9320   35.7610 C   0  0  0  0  0  0  0  0  0  0  0  0
   35.2430   29.2300   34.8750 N   0  0  0  0  0  0  0  0  0  0  0  0
   37.2770   29.9020   34.6440 H   0  0  0  0  0  0  0  0  0  0  0  0
   33.3220   28.6040   35.3620 H   0  0  0  0  0  0  0  0  0  0  0  0
   38.0270   30.2440   37.1660 N   0  0  0  0  0  0  0  0  0  0  0  0
   38.4860   29.5790   37.8060 H   0  0  0  0  0  0  0  0  0  0  0  0
   38.5740   31.1140   36.9780 H   0  0  0  0  0  0  0  0  0  0  0  0
  1  4  1  1  0  0  0
  1  3  1  0  0  0  0
  1  2  1  0  0  0  0
  2  5  1  0  0  0  0
  3  7  1  6  0  0  0
  3  2  1  0  0  0  0
  3 10  1  0  0  0  0
  6  2  1  0  0  0  0
  8  9  1  0  0  0  0
  9 16  1  0  0  0  0
 10  9  2  0  0  0  0
 10 11  1  0  0  0  0
 11 13  2  0  0  0  0
 12 11  1  0  0  0  0
 13 15  1  0  0  0  0
 13 14  1  0  0  0  0
 16 15  2  0  0  0  0
 17 18  1  0  0  0  0
 18 25  1  0  0  0  0
 18 19  2  0  0  0  0
 19  1  1  0  0  0  0
 20 19  1  0  0  0  0
 21 20  2  0  0  0  0
 22 17  2  0  0  0  0
 22 21  1  0  0  0  0
 23 17  1  0  0  0  0
 24 21  1  0  0  0  0
 25 26  1  0  0  0  0
 27 25  1  0  0  0  0
M  END
>  <minimizedAffinity>
-4.82244158

$$$$

 OpenBabel03252509253D

 27 29  0  0  1  0  0  0  0  0999 V2000
   38.1480   29.5840   41.9950 C   0  0  1  0  0  0  0  0  0  0  0  0
   38.1510   28.7390   43.2980 C   0  0  0  0  0  0  0  0  0  0  0  0
   39.3040   28.8050   42.2570 C   0  0  2  0  0  0  0  0  0  0  0  0
   38.0270   30.6670   42.1880 H   0  0  0  0  0  0  0  0  0  0  0  0
   38.2980   29.2920   44.2290 H   0  0  0  0  0  0  0  0  0  0  0  0
   37.5510   27.8400   43.3610 H   0  0  0  0  0  0  0  0  0  0  0  0
   39.4130   27.8320   41.7150 H   0  0  0  0  0  0  0  0  0  0  0  0
   41.3180   26.8470   43.4550 Cl  0  0  0  0  0  0  0  0  0  0  0  0
   41.5960   28.5670   43.2630 C   0  0  0  0  0  0  0  0  0  0  0  0
   40.6090   29.3340   42.7110 C   0  0  0  0  0  0  0  0  0  0  0  0
   40.7940   30.7070   42.5420 C   0  0  0  0  0  0  0  0  0  0  0  0
   40.0940   31.4150   42.1210 H   0  0  0  0  0  0  0  0  0  0  0  0
   41.9910   31.2650   42.9450 C   0  0  0  0  0  0  0  0  0  0  0  0
   42.2100   32.3170   42.8490 H   0  0  0  0  0  0  0  0  0  0  0  0
   42.9820   30.4610   43.5050 C   0  0  0  0  0  3  0  0  0  0  0  0
   42.8070   29.0900   43.6780 C   0  0  0  0  0  3  0  0  0  0  0  0
   35.1310   29.2760   39.7770 C   0  0  0  0  0  0  0  0  0  0  0  0
   36.0250   29.8220   40.7610 C   0  0  0  0  0  0  0  0  0  0  0  0
   37.1200   29.0430   41.0260 C   0  0  0  0  0  0  0  0  0  0  0  0
   37.3350   27.8320   40.3950 N   0  0  0  0  0  0  0  0  0  0  0  0
   36.4640   27.3660   39.4800 C   0  0  0  0  0  0  0  0  0  0  0  0
   35.3640   28.0820   39.1690 N   0  0  0  0  0  0  0  0  0  0  0  0
   34.2630   29.8920   39.5650 H   0  0  0  0  0  0  0  0  0  0  0  0
   36.6020   26.4250   38.9690 H   0  0  0  0  0  0  0  0  0  0  0  0
   35.7750   31.0560   41.4080 N   0  0  0  0  0  0  0  0  0  0  0  0
   36.5420   31.7360   41.2890 H   0  0  0  0  0  0  0  0  0  0  0  0
   34.9700   31.4050   41.9750 H   0  0  0  0  0  0  0  0  0  0  0  0
  1  4  1  1  0  0  0
  1  3  1  0  0  0  0
  1  2  1  0  0  0  0
  2  6  1  0  0  0  0
  2  5  1  0  0  0  0
  3  7  1  6  0  0  0
  3 10  1  0  0  0  0
  3  2  1  0  0  0  0
  9  8  1  0  0  0  0
  9 16  1  0  0  0  0
 10  9  2  0  0  0  0
 11 10  1  0  0  0  0
 11 13  2  0  0  0  0
 12 11  1  0  0  0  0
 13 15  1  0  0  0  0
 14 13  1  0  0  0  0
 15 16  2  0  0  0  0
 17 18  1  0  0  0  0
 18 19  2  0  0  0  0
 18 25  1  0  0  0  0
 19  1  1  0  0  0  0
 20 19  1  0  0  0  0
 21 20  2  0  0  0  0
 22 21  1  0  0  0  0
 22 17  2  0  0  0  0
 23 17  1  0  0  0  0
 24 21  1  0  0  0  0
 25 27  1  0  0  0  0
 26 25  1  0  0  0  0
M  END
>  <minimizedAffinity>
-4.82009459

$$$$

 OpenBabel03252509253D

 27 29  0  0  1  0  0  0  0  0999 V2000
   37.8910   29.4290   41.9280 C   0  0  1  0  0  0  0  0  0  0  0  0
   38.9780   29.9640   42.9010 C   0  0  0  0  0  0  0  0  0  0  0  0
   38.9380   30.2040   41.3650 C   0  0  2  0  0  0  0  0  0  0  0  0
   36.8750   29.7850   42.1850 H   0  0  0  0  0  0  0  0  0  0  0  0
   38.6840   30.8010   43.5370 H   0  0  0  0  0  0  0  0  0  0  0  0
   39.7200   29.2870   43.3070 H   0  0  0  0  0  0  0  0  0  0  0  0
   39.7710   29.6640   40.8500 H   0  0  0  0  0  0  0  0  0  0  0  0
   41.3990   32.0060   41.5110 Cl  0  0  0  0  0  0  0  0  0  0  0  0
   39.8340   32.5090   40.9030 C   0  0  0  0  0  0  0  0  0  0  0  0
   38.8110   31.6010   40.8930 C   0  0  0  0  0  0  0  0  0  0  0  0
   37.5510   31.9650   40.4170 C   0  0  0  0  0  0  0  0  0  0  0  0
   36.6690   31.3420   40.3580 H   0  0  0  0  0  0  0  0  0  0  0  0
   37.3650   33.2550   39.9610 C   0  0  0  0  0  0  0  0  0  0  0  0
   36.4220   33.6120   39.5790 H   0  0  0  0  0  0  0  0  0  0  0  0
   38.4240   34.1610   39.9820 C   0  0  0  0  0  3  0  0  0  0  0  0
   39.6850   33.8080   40.4550 C   0  0  0  0  0  3  0  0  0  0  0  0
   37.1850   25.7660   42.3640 C   0  0  0  0  0  0  0  0  0  0  0  0
   37.0930   27.1850   42.5670 C   0  0  0  0  0  0  0  0  0  0  0  0
   37.9770   27.9230   41.8260 C   0  0  0  0  0  0  0  0  0  0  0  0
   38.8810   27.3390   40.9600 N   0  0  0  0  0  0  0  0  0  0  0  0
   38.9270   26.0020   40.8070 C   0  0  0  0  0  0  0  0  0  0  0  0
   38.0840   25.2140   41.5050 N   0  0  0  0  0  0  0  0  0  0  0  0
   36.4850   25.1790   42.9500 H   0  0  0  0  0  0  0  0  0  0  0  0
   39.6210   25.5140   40.1380 H   0  0  0  0  0  0  0  0  0  0  0  0
   36.1700   27.7600   43.4750 N   0  0  0  0  0  0  0  0  0  0  0  0
   35.5410   28.4450   43.0290 H   0  0  0  0  0  0  0  0  0  0  0  0
   36.0080   27.6230   44.4980 H   0  0  0  0  0  0  0  0  0  0  0  0
  1  4  1  1  0  0  0
  1  2  1  0  0  0  0
  2  6  1  0  0  0  0
  2  5  1  0  0  0  0
  3  7  1  6  0  0  0
  3  1  1  0  0  0  0
  3  2  1  0  0  0  0
  9  8  1  0  0  0  0
 10  9  1  0  0  0  0
 10  3  1  0  0  0  0
 11 10  2  0  0  0  0
 12 11  1  0  0  0  0
 13 15  2  0  0  0  0
 13 11  1  0  0  0  0
 14 13  1  0  0  0  0
 15 16  1  0  0  0  0
 16  9  2  0  0  0  0
 17 18  1  0  0  0  0
 17 23  1  0  0  0  0
 18 25  1  0  0  0  0
 19  1  1  0  0  0  0
 19 18  2  0  0  0  0
 20 19  1  0  0  0  0
 21 20  2  0  0  0  0
 21 22  1  0  0  0  0
 22 17  2  0  0  0  0
 24 21  1  0  0  0  0
 25 27  1  0  0  0  0
 26 25  1  0  0  0  0
M  END
>  <minimizedAffinity>
-4.81899595

$$$$
