
 OpenBabel03252507313D

 49 52  0  0  1  0  0  0  0  0999 V2000
   46.9660   32.7530   45.5560 C   0  0  0  0  0  0  0  0  0  0  0  0
   45.8680   33.4170   46.0900 C   0  0  0  0  0  0  0  0  0  0  0  0
   45.1870   34.3780   45.3060 C   0  0  0  0  0  0  0  0  0  0  0  0
   45.6830   34.5970   44.0240 N   0  0  0  0  0  0  0  0  0  0  0  0
   46.7470   33.9250   43.5720 C   0  0  0  0  0  0  0  0  0  0  0  0
   47.3750   33.0210   44.3220 N   0  0  0  0  0  0  0  0  0  0  0  0
   45.3560   33.4330   47.0270 H   0  0  0  0  0  0  0  0  0  0  0  0
   44.3380   34.9720   45.5500 H   0  0  0  0  0  0  0  0  0  0  0  0
   47.6140   31.7580   46.3860 C   0  0  2  0  0  0  0  0  0  0  0  0
   47.3750   30.3160   45.8410 C   0  0  0  0  0  0  0  0  0  0  0  0
   48.1860   29.3480   46.6310 C   0  0  0  0  0  0  0  0  0  0  0  0
   48.1730   29.5340   48.1070 C   0  0  0  0  0  0  0  0  0  0  0  0
   48.1630   30.9090   48.5390 C   0  0  0  0  0  0  0  0  0  0  0  0
   47.1680   31.8010   47.7640 C   0  0  2  0  0  0  0  0  0  0  0  0
   48.7250   31.8410   46.3070 H   0  0  0  0  0  0  0  0  0  0  0  0
   47.7360   30.3660   44.7940 H   0  0  0  0  0  0  0  0  0  0  0  0
   46.3110   30.0890   45.7810 H   0  0  0  0  0  0  0  0  0  0  0  0
   49.1760   29.2920   46.1390 H   0  0  0  0  0  0  0  0  0  0  0  0
   47.7300   28.3320   46.4390 H   0  0  0  0  0  0  0  0  0  0  0  0
   47.8070   28.7140   48.7300 H   0  0  0  0  0  0  0  0  0  0  0  0
   49.2870   29.2810   48.3310 H   0  0  0  0  0  0  0  0  0  0  0  0
   49.1160   31.4910   48.5260 H   0  0  0  0  0  0  0  0  0  0  0  0
   47.7870   30.9690   49.5920 H   0  0  0  0  0  0  0  0  0  0  0  0
   47.2750   32.7460   48.2990 H   0  0  0  0  0  0  0  0  0  0  0  0
   45.8320   31.2110   47.8790 N   0  0  0  0  0  0  0  0  0  0  0  0
   45.1460   30.6630   48.9750 C   0  0  0  0  0  0  0  0  0  0  0  0
   44.5940   31.3820   49.8850 O   0  0  0  0  0  0  0  0  0  0  0  0
   45.0980   29.2360   48.9980 N   0  0  0  0  0  0  0  0  0  0  0  0
   45.1910   31.0660   47.0100 H   0  0  0  0  0  0  0  0  0  0  0  0
   44.6790   28.6550   48.2390 H   0  0  0  0  0  0  0  0  0  0  0  0
   45.3280   28.3540   49.5100 H   0  0  0  0  0  0  0  0  0  0  0  0
   47.2310   34.2210   42.2200 C   0  0  0  0  0  0  0  0  0  0  0  0
   48.2470   35.1250   42.0110 C   0  0  0  0  0  0  0  0  0  0  0  0
   48.7470   35.4470   40.7700 C   0  0  0  0  0  0  0  0  0  0  0  0
   48.1470   34.7850   39.7040 C   0  0  0  0  0  0  0  0  0  0  0  0
   47.1330   33.8820   39.9060 C   0  0  0  0  0  0  0  0  0  0  0  0
   46.6810   33.6060   41.1600 N   0  0  0  0  0  0  0  0  0  0  0  0
   48.6890   35.6220   42.8690 H   0  0  0  0  0  0  0  0  0  0  0  0
   49.5390   36.1520   40.6080 H   0  0  0  0  0  0  0  0  0  0  0  0
   48.5280   35.0260   38.7210 H   0  0  0  0  0  0  0  0  0  0  0  0
   48.2270   34.5000   37.2000 Cl  0  0  0  0  0  0  0  0  0  0  0  0
   46.9030   33.3720   37.4930 C   0  0  0  0  0  0  0  0  0  0  0  0
   46.4970   33.1820   38.7970 C   0  0  0  0  0  0  0  0  0  0  0  0
   45.4580   32.2850   38.9250 C   0  0  0  0  0  0  0  0  0  0  0  0
   45.0720   32.0710   39.9110 H   0  0  0  0  0  0  0  0  0  0  0  0
   44.8770   31.6380   37.8530 C   0  0  0  0  0  0  0  0  0  0  0  0
   44.0660   30.9480   38.0420 H   0  0  0  0  0  0  0  0  0  0  0  0
   45.3310   31.8750   36.5730 C   0  0  0  0  0  0  0  0  0  0  0  0
   46.3680   32.7620   36.3810 C   0  0  0  0  0  0  0  0  0  0  0  0
  1  2  1  0  0  0  0
  1  9  1  0  0  0  0
  2  7  1  0  0  0  0
  3  8  1  0  0  0  0
  3  2  2  0  0  0  0
  4  3  1  0  0  0  0
  5  4  2  0  0  0  0
  5  6  1  0  0  0  0
  6  1  2  0  0  0  0
  9 15  1  6  0  0  0
  9 14  1  0  0  0  0
 10  9  1  0  0  0  0
 10 11  1  0  0  0  0
 11 12  1  0  0  0  0
 12 21  1  0  0  0  0
 12 13  1  0  0  0  0
 12 20  1  0  0  0  0
 13 23  1  0  0  0  0
 14 25  1  0  0  0  0
 14 24  1  1  0  0  0
 14 13  1  0  0  0  0
 16 10  1  0  0  0  0
 17 10  1  0  0  0  0
 18 11  1  0  0  0  0
 19 11  1  0  0  0  0
 22 13  1  0  0  0  0
 25 26  1  0  0  0  0
 26 28  1  0  0  0  0
 26 27  2  0  0  0  0
 28 31  1  0  0  0  0
 29 25  1  0  0  0  0
 30 28  1  0  0  0  0
 32  5  1  0  0  0  0
 33 32  1  0  0  0  0
 33 38  1  0  0  0  0
 34 33  2  0  0  0  0
 35 36  2  0  0  0  0
 35 34  1  0  0  0  0
 36 37  1  0  0  0  0
 37 32  2  0  0  0  0
 39 34  1  0  0  0  0
 40 35  1  0  0  0  0
 41 42  1  0  0  0  0
 42 43  1  0  0  0  0
 43 44  2  0  0  0  0
 43 36  1  0  0  0  0
 44 45  1  0  0  0  0
 46 47  1  0  0  0  0
 46 44  1  0  0  0  0
 48 46  2  0  0  0  0
 49 48  1  0  0  0  0
 49 42  2  0  0  0  0
M  END
>  <minimizedAffinity>
-6.8459487

>  <minimizedRMSD>
0.294984043

$$$$
