
 OpenBabel03252509233D

 27 29  0  0  1  0  0  0  0  0999 V2000
   46.7660   34.9080   41.9650 C   0  0  1  0  0  0  0  0  0  0  0  0
   48.2770   35.2610   42.0390 C   0  0  0  0  0  0  0  0  0  0  0  0
   47.6820   33.9280   41.5040 C   0  0  2  0  0  0  0  0  0  0  0  0
   46.1910   35.6180   41.3400 H   0  0  0  0  0  0  0  0  0  0  0  0
   48.6410   35.9710   41.2940 H   0  0  0  0  0  0  0  0  0  0  0  0
   48.7860   35.2620   42.9950 H   0  0  0  0  0  0  0  0  0  0  0  0
   47.9240   33.0750   42.1860 H   0  0  0  0  0  0  0  0  0  0  0  0
   47.6220   30.9850   40.6930 Cl  0  0  0  0  0  0  0  0  0  0  0  0
   47.9310   32.3130   39.5920 C   0  0  0  0  0  0  0  0  0  0  0  0
   47.9290   33.5880   40.0850 C   0  0  0  0  0  0  0  0  0  0  0  0
   48.1710   34.6720   39.2380 C   0  0  0  0  0  0  0  0  0  0  0  0
   48.1960   35.7190   39.5060 H   0  0  0  0  0  0  0  0  0  0  0  0
   48.4090   34.4230   37.9010 C   0  0  0  0  0  0  0  0  0  0  0  0
   48.6030   35.2050   37.1840 H   0  0  0  0  0  0  0  0  0  0  0  0
   48.4060   33.1130   37.4240 C   0  0  0  0  0  3  0  0  0  0  0  0
   48.1660   32.0260   38.2610 C   0  0  0  0  0  3  0  0  0  0  0  0
   44.6660   35.3830   45.0440 C   0  0  0  0  0  0  0  0  0  0  0  0
   45.2090   35.6310   43.7370 C   0  0  0  0  0  0  0  0  0  0  0  0
   46.1960   34.7600   43.3590 C   0  0  0  0  0  0  0  0  0  0  0  0
   46.6290   33.7350   44.1770 N   0  0  0  0  0  0  0  0  0  0  0  0
   46.0870   33.5470   45.3950 C   0  0  0  0  0  0  0  0  0  0  0  0
   45.1080   34.3670   45.8310 N   0  0  0  0  0  0  0  0  0  0  0  0
   43.8830   36.0710   45.3460 H   0  0  0  0  0  0  0  0  0  0  0  0
   46.4010   32.7550   46.0590 H   0  0  0  0  0  0  0  0  0  0  0  0
   44.7620   36.7000   42.9230 N   0  0  0  0  0  0  0  0  0  0  0  0
   44.4170   36.3880   42.0020 H   0  0  0  0  0  0  0  0  0  0  0  0
   44.7160   37.7320   43.0770 H   0  0  0  0  0  0  0  0  0  0  0  0
  1  4  1  6  0  0  0
  1  2  1  0  0  0  0
  1 19  1  0  0  0  0
  2  6  1  0  0  0  0
  3  1  1  0  0  0  0
  3  2  1  0  0  0  0
  3  7  1  1  0  0  0
  5  2  1  0  0  0  0
  9 10  1  0  0  0  0
  9  8  1  0  0  0  0
 10  3  1  0  0  0  0
 11 12  1  0  0  0  0
 11 10  2  0  0  0  0
 13 11  1  0  0  0  0
 14 13  1  0  0  0  0
 15 13  2  0  0  0  0
 15 16  1  0  0  0  0
 16  9  2  0  0  0  0
 17 23  1  0  0  0  0
 17 22  1  0  0  0  0
 18 17  2  0  0  0  0
 19 18  1  0  0  0  0
 19 20  2  0  0  0  0
 20 21  1  0  0  0  0
 21 22  2  0  0  0  0
 21 24  1  0  0  0  0
 25 27  1  0  0  0  0
 25 18  1  0  0  0  0
 26 25  1  0  0  0  0
M  END
>  <minimizedAffinity>
-5.12005949

>  <minimizedRMSD>
0.333560854

$$$$
