
 OpenBabel03252509233D

 27 29  0  0  1  0  0  0  0  0999 V2000
   46.5420   34.8010   41.9940 C   0  0  1  0  0  0  0  0  0  0  0  0
   48.0170   35.2880   42.0020 C   0  0  0  0  0  0  0  0  0  0  0  0
   47.5380   33.8530   41.6440 C   0  0  2  0  0  0  0  0  0  0  0  0
   45.9060   35.3760   41.2930 H   0  0  0  0  0  0  0  0  0  0  0  0
   48.3170   35.9270   41.1700 H   0  0  0  0  0  0  0  0  0  0  0  0
   48.5280   35.4500   42.9440 H   0  0  0  0  0  0  0  0  0  0  0  0
   47.8540   33.1150   42.4230 H   0  0  0  0  0  0  0  0  0  0  0  0
   50.1520   32.3580   41.1380 Cl  0  0  0  0  0  0  0  0  0  0  0  0
   48.9380   32.6790   39.9150 C   0  0  0  0  0  0  0  0  0  0  0  0
   47.8090   33.3610   40.2750 C   0  0  0  0  0  0  0  0  0  0  0  0
   46.8200   33.6360   39.3280 C   0  0  0  0  0  0  0  0  0  0  0  0
   45.8900   34.1630   39.4880 H   0  0  0  0  0  0  0  0  0  0  0  0
   47.0120   33.2040   38.0310 C   0  0  0  0  0  0  0  0  0  0  0  0
   46.2960   33.3760   37.2440 H   0  0  0  0  0  0  0  0  0  0  0  0
   48.1720   32.5110   37.6900 C   0  0  0  0  0  3  0  0  0  0  0  0
   49.1650   32.2320   38.6270 C   0  0  0  0  0  3  0  0  0  0  0  0
   44.5320   35.6010   45.0650 C   0  0  0  0  0  0  0  0  0  0  0  0
   45.0630   35.7290   43.7360 C   0  0  0  0  0  0  0  0  0  0  0  0
   45.9920   34.7800   43.4030 C   0  0  0  0  0  0  0  0  0  0  0  0
   46.3820   33.7880   44.2810 N   0  0  0  0  0  0  0  0  0  0  0  0
   45.8530   33.7140   45.5180 C   0  0  0  0  0  0  0  0  0  0  0  0
   44.9310   34.6150   45.9120 N   0  0  0  0  0  0  0  0  0  0  0  0
   43.7950   36.3520   45.3310 H   0  0  0  0  0  0  0  0  0  0  0  0
   46.1350   32.9510   46.2280 H   0  0  0  0  0  0  0  0  0  0  0  0
   44.6620   36.7660   42.8580 N   0  0  0  0  0  0  0  0  0  0  0  0
   44.2820   36.4130   41.9660 H   0  0  0  0  0  0  0  0  0  0  0  0
   44.6770   37.8070   42.9420 H   0  0  0  0  0  0  0  0  0  0  0  0
  1  4  1  6  0  0  0
  1  2  1  0  0  0  0
  1 19  1  0  0  0  0
  2  6  1  0  0  0  0
  3  1  1  0  0  0  0
  3  2  1  0  0  0  0
  3  7  1  1  0  0  0
  5  2  1  0  0  0  0
  9 10  1  0  0  0  0
  9  8  1  0  0  0  0
 10  3  1  0  0  0  0
 11 12  1  0  0  0  0
 11 10  2  0  0  0  0
 13 11  1  0  0  0  0
 14 13  1  0  0  0  0
 15 13  2  0  0  0  0
 15 16  1  0  0  0  0
 16  9  2  0  0  0  0
 17 23  1  0  0  0  0
 17 22  1  0  0  0  0
 18 17  2  0  0  0  0
 19 18  1  0  0  0  0
 19 20  2  0  0  0  0
 20 21  1  0  0  0  0
 21 22  2  0  0  0  0
 21 24  1  0  0  0  0
 25 27  1  0  0  0  0
 25 18  1  0  0  0  0
 26 25  1  0  0  0  0
M  END
>  <minimizedAffinity>
-5.03508091

>  <minimizedRMSD>
0.474582076

$$$$
