
 OpenBabel03252509233D

 27 29  0  0  1  0  0  0  0  0999 V2000
   46.8780   34.8200   41.9410 C   0  0  1  0  0  0  0  0  0  0  0  0
   48.2950   35.4510   42.0280 C   0  0  0  0  0  0  0  0  0  0  0  0
   47.9780   33.9850   41.6170 C   0  0  2  0  0  0  0  0  0  0  0  0
   46.2180   35.3460   41.2250 H   0  0  0  0  0  0  0  0  0  0  0  0
   48.5640   36.1390   41.2240 H   0  0  0  0  0  0  0  0  0  0  0  0
   48.7450   35.6400   42.9950 H   0  0  0  0  0  0  0  0  0  0  0  0
   48.3340   33.2630   42.3940 H   0  0  0  0  0  0  0  0  0  0  0  0
   49.5870   31.4090   41.3030 Cl  0  0  0  0  0  0  0  0  0  0  0  0
   49.0750   32.4290   39.9740 C   0  0  0  0  0  0  0  0  0  0  0  0
   48.3570   33.5590   40.2520 C   0  0  0  0  0  0  0  0  0  0  0  0
   47.9320   34.3960   39.2190 C   0  0  0  0  0  0  0  0  0  0  0  0
   47.3630   35.3110   39.3100 H   0  0  0  0  0  0  0  0  0  0  0  0
   48.2530   34.0560   37.9210 C   0  0  0  0  0  0  0  0  0  0  0  0
   47.9610   34.6490   37.0680 H   0  0  0  0  0  0  0  0  0  0  0  0
   48.9850   32.8980   37.6630 C   0  0  0  0  0  3  0  0  0  0  0  0
   49.4140   32.0560   38.6860 C   0  0  0  0  0  3  0  0  0  0  0  0
   44.6920   35.3650   44.9480 C   0  0  0  0  0  0  0  0  0  0  0  0
   45.2680   35.5800   43.6490 C   0  0  0  0  0  0  0  0  0  0  0  0
   46.2720   34.7070   43.3230 C   0  0  0  0  0  0  0  0  0  0  0  0
   46.6900   33.7090   44.1810 N   0  0  0  0  0  0  0  0  0  0  0  0
   46.1170   33.5510   45.3890 C   0  0  0  0  0  0  0  0  0  0  0  0
   45.1210   34.3750   45.7750 N   0  0  0  0  0  0  0  0  0  0  0  0
   43.8970   36.0550   45.2080 H   0  0  0  0  0  0  0  0  0  0  0  0
   46.4190   32.7810   46.0830 H   0  0  0  0  0  0  0  0  0  0  0  0
   44.8360   36.6220   42.7930 N   0  0  0  0  0  0  0  0  0  0  0  0
   44.5180   36.2810   41.8720 H   0  0  0  0  0  0  0  0  0  0  0  0
   44.7780   37.6570   42.9160 H   0  0  0  0  0  0  0  0  0  0  0  0
  1  4  1  6  0  0  0
  1  2  1  0  0  0  0
  1 19  1  0  0  0  0
  2  6  1  0  0  0  0
  3  1  1  0  0  0  0
  3  2  1  0  0  0  0
  3  7  1  1  0  0  0
  5  2  1  0  0  0  0
  9 10  1  0  0  0  0
  9  8  1  0  0  0  0
 10  3  1  0  0  0  0
 11 12  1  0  0  0  0
 11 10  2  0  0  0  0
 13 11  1  0  0  0  0
 14 13  1  0  0  0  0
 15 13  2  0  0  0  0
 15 16  1  0  0  0  0
 16  9  2  0  0  0  0
 17 23  1  0  0  0  0
 17 22  1  0  0  0  0
 18 17  2  0  0  0  0
 19 18  1  0  0  0  0
 19 20  2  0  0  0  0
 20 21  1  0  0  0  0
 21 22  2  0  0  0  0
 21 24  1  0  0  0  0
 25 27  1  0  0  0  0
 25 18  1  0  0  0  0
 26 25  1  0  0  0  0
M  END
>  <minimizedAffinity>
-5.21246815

>  <minimizedRMSD>
0.814084828

$$$$
