
     RDKit          3D

 29 31  0  0  0  0  0  0  0  0999 V2000
   44.6252   35.4695   45.1310 C   0  0  0  0  0  0  0  0  0  0  0  0
   45.1017   35.7177   43.7992 C   0  0  0  0  0  0  0  0  0  0  0  0
   46.0421   34.8250   43.3570 C   0  0  0  0  0  0  0  0  0  0  0  0
   46.4890   33.7772   44.1379 N   0  0  0  0  0  0  0  0  0  0  0  0
   46.0094   33.5885   45.3815 C   0  0  0  0  0  0  0  0  0  0  0  0
   45.0796   34.4297   45.8810 N   0  0  0  0  0  0  0  0  0  0  0  0
   46.5383   34.9751   41.9361 C   0  0  1  0  0  0  0  0  0  0  0  0
   48.0618   35.2765   41.9304 C   0  0  0  0  0  0  0  0  0  0  0  0
   47.3933   33.9721   41.4106 C   0  0  2  0  0  0  0  0  0  0  0  0
   44.6426   36.8096   43.0232 N   0  0  0  0  0  0  0  0  0  0  0  0
   43.8798   36.1749   45.4833 H   0  0  0  0  0  0  0  0  0  0  0  0
   46.3358   32.7803   46.0184 H   0  0  0  0  0  0  0  0  0  0  0  0
   45.9543   35.7131   41.3526 H   0  0  0  0  0  0  0  0  0  0  0  0
   48.4089   35.9839   41.1749 H   0  0  0  0  0  0  0  0  0  0  0  0
   48.6227   35.2453   42.8560 H   0  0  0  0  0  0  0  0  0  0  0  0
   47.6430   33.1014   42.0666 H   0  0  0  0  0  0  0  0  0  0  0  0
   44.2394   36.5198   42.1187 H   0  0  0  0  0  0  0  0  0  0  0  0
   44.6348   37.8407   43.1913 H   0  0  0  0  0  0  0  0  0  0  0  0
   44.8739   33.7245   39.7026 Cl  0  0  0  0  0  0  0  0  0  0  0  0
   46.5068   33.5063   39.1033 C   0  0  0  0  0  0  0  0  0  0  0  0
   47.5501   33.6455   39.9764 C   0  0  0  0  0  0  0  0  0  0  0  0
   48.8642   33.4790   39.5355 C   0  0  0  0  0  0  0  0  0  0  0  0
   49.7674   33.5626   40.1246 H   0  0  0  0  0  0  0  0  0  0  0  0
   49.0801   33.1730   38.2074 C   0  0  0  0  0  0  0  0  0  0  0  0
   50.0647   33.0290   37.7904 H   0  0  0  0  0  0  0  0  0  0  0  0
   47.9991   33.0364   37.3375 C   0  0  0  0  0  0  0  0  0  0  0  0
   46.6844   33.2005   37.7673 C   0  0  0  0  0  0  0  0  0  0  0  0
   48.1669   32.7950   36.2897 H   0  0  0  0  0  0  0  0  0  0  0  0
   45.8567   33.0907   37.0782 H   0  0  0  0  0  0  0  0  0  0  0  0
  1  6  2  0
  2  1  1  0
  3  2  2  0
  3  4  1  0
  4  5  2  0
  5  6  1  0
  7  3  1  0
  8  7  1  0
  9  8  1  0
  9  7  1  0
 10  2  1  0
  1 11  1  0
  5 12  1  0
  7 13  1  6
  8 14  1  0
  8 15  1  0
  9 16  1  1
 10 17  1  0
 10 18  1  0
 19 20  1  0
 20 21  2  0
 21 22  1  0
 22 23  1  0
 22 24  2  0
 24 25  1  0
 24 26  1  0
 26 27  2  0
 27 20  1  0
 26 28  1  0
 27 29  1  0
  9 21  1  0
M  ISO  8  11  14  12  14  13  13  14  13  15  13  16  13  23  15  25  16
M  END
>  <DihAtoms>  (1) 
7,8,20,19

>  <DihDeg>  (1) 
90.00649005785014

$$$$
