
 OpenBabel03242521533D

 36 39  0  0  0  0  0  0  0  0999 V2000
   36.7430   26.8670   39.9210 C   0  0  0  0  0  0  0  0  0  0  0  0
   36.6510   25.4880   39.9210 C   0  0  0  0  0  0  0  0  0  0  0  0
   36.7820   24.7060   41.0750 C   0  0  0  0  0  0  0  0  0  0  0  0
   37.0130   25.3040   42.3020 C   0  0  0  0  0  0  0  0  0  0  0  0
   37.1170   26.7000   42.3330 C   0  0  0  0  0  0  0  0  0  0  0  0
   37.4160   27.2720   43.5390 C   0  0  0  0  0  0  0  0  0  0  0  0
   37.6270   28.6610   43.5790 C   0  0  0  0  0  0  0  0  0  0  0  0
   37.5320   29.3960   42.3650 C   0  0  0  0  0  0  0  0  0  0  0  0
   37.2240   28.7120   41.2260 C   0  0  0  0  0  0  0  0  0  0  0  0
   36.9840   27.3790   41.1450 C   0  0  0  0  0  0  0  0  0  0  0  0
   36.4670   25.0380   38.9360 H   0  0  0  0  0  0  0  0  0  0  0  0
   36.6890   23.6450   40.9170 H   0  0  0  0  0  0  0  0  0  0  0  0
   37.1030   24.7100   43.1740 H   0  0  0  0  0  0  0  0  0  0  0  0
   37.4730   26.6150   44.4050 H   0  0  0  0  0  0  0  0  0  0  0  0
   37.8410   28.9380   44.6360 H   0  0  0  0  0  0  0  0  0  0  0  0
   37.7700   30.3690   42.7750 H   0  0  0  0  0  0  0  0  0  0  0  0
   39.9870   28.6310   39.7120 Cl  0  0  0  0  0  0  0  0  0  0  0  0
   38.8020   29.9590   39.6170 C   0  0  0  0  0  0  0  0  0  0  0  0
   37.6450   29.7900   40.3420 C   0  0  0  0  0  0  0  0  0  0  0  0
   36.7200   30.8660   40.1390 C   0  0  0  0  0  0  0  0  0  0  0  0
   35.7400   30.8570   40.6500 H   0  0  0  0  0  0  0  0  0  0  0  0
   36.8810   31.9750   39.3410 C   0  0  0  0  0  0  0  0  0  0  0  0
   36.1380   32.7350   39.2450 H   0  0  0  0  0  0  0  0  0  0  0  0
   38.0730   32.0560   38.6570 C   0  0  0  0  0  3  0  0  0  0  0  0
   39.0060   31.0550   38.8060 C   0  0  0  0  0  3  0  0  0  0  0  0
   34.9610   29.1740   37.6010 C   0  0  0  0  0  0  0  0  0  0  0  0
   35.9290   29.2980   36.5880 C   0  0  0  0  0  0  0  0  0  0  0  0
   37.1110   28.5640   36.7370 C   0  0  0  0  0  0  0  0  0  0  0  0
   37.1740   27.8260   37.8450 N   0  0  0  0  0  0  0  0  0  0  0  0
   36.2950   27.6820   38.8090 C   0  0  0  0  0  0  0  0  0  0  0  0
   35.1780   28.3830   38.6530 N   0  0  0  0  0  0  0  0  0  0  0  0
   34.0390   29.7330   37.5080 H   0  0  0  0  0  0  0  0  0  0  0  0
   35.8060   29.9240   35.7160 H   0  0  0  0  0  0  0  0  0  0  0  0
   38.1260   28.5200   35.7500 N   0  0  0  0  0  0  0  0  0  0  0  0
   39.0480   28.8300   36.1730 H   0  0  0  0  0  0  0  0  0  0  0  0
   38.0960   28.2470   34.7500 H   0  0  0  0  0  0  0  0  0  0  0  0
  1 10  1  0  0  0  0
  2  1  2  0  0  0  0
  2  3  1  0  0  0  0
  3  4  2  0  0  0  0
  4  5  1  0  0  0  0
  4 13  1  0  0  0  0
  5  6  1  0  0  0  0
  6  7  2  0  0  0  0
  6 14  1  0  0  0  0
  7 15  1  0  0  0  0
  8 16  1  0  0  0  0
  8  7  1  0  0  0  0
  9  8  2  0  0  0  0
 10  9  1  0  0  0  0
 10  5  2  0  0  0  0
 11  2  1  0  0  0  0
 12  3  1  0  0  0  0
 18 17  1  0  0  0  0
 18 19  1  0  0  0  0
 19  9  1  0  0  0  0
 20 19  2  0  0  0  0
 20 21  1  0  0  0  0
 22 20  1  0  0  0  0
 23 22  1  0  0  0  0
 24 25  1  0  0  0  0
 24 22  2  0  0  0  0
 25 18  2  0  0  0  0
 26 31  1  0  0  0  0
 27 28  1  0  0  0  0
 27 26  2  0  0  0  0
 28 29  2  0  0  0  0
 29 30  1  0  0  0  0
 30  1  1  0  0  0  0
 31 30  2  0  0  0  0
 32 26  1  0  0  0  0
 33 27  1  0  0  0  0
 34 35  1  0  0  0  0
 34 28  1  0  0  0  0
 36 34  1  0  0  0  0
M  END
>  <minimizedAffinity>
-6.71383762

$$$$

 OpenBabel03242521533D

 36 39  0  0  0  0  0  0  0  0999 V2000
   36.8000   26.8670   39.8910 C   0  0  0  0  0  0  0  0  0  0  0  0
   36.7230   25.4880   39.8890 C   0  0  0  0  0  0  0  0  0  0  0  0
   36.8270   24.7070   41.0480 C   0  0  0  0  0  0  0  0  0  0  0  0
   37.0160   25.3080   42.2800 C   0  0  0  0  0  0  0  0  0  0  0  0
   37.1060   26.7050   42.3130 C   0  0  0  0  0  0  0  0  0  0  0  0
   37.3640   27.2810   43.5270 C   0  0  0  0  0  0  0  0  0  0  0  0
   37.5610   28.6720   43.5720 C   0  0  0  0  0  0  0  0  0  0  0  0
   37.4930   29.4050   42.3560 C   0  0  0  0  0  0  0  0  0  0  0  0
   37.2260   28.7180   41.2080 C   0  0  0  0  0  0  0  0  0  0  0  0
   37.0010   27.3820   41.1210 C   0  0  0  0  0  0  0  0  0  0  0  0
   36.5720   25.0360   38.9000 H   0  0  0  0  0  0  0  0  0  0  0  0
   36.7490   23.6460   40.8870 H   0  0  0  0  0  0  0  0  0  0  0  0
   37.0870   24.7160   43.1540 H   0  0  0  0  0  0  0  0  0  0  0  0
   37.4020   26.6240   44.3940 H   0  0  0  0  0  0  0  0  0  0  0  0
   37.7410   28.9500   44.6350 H   0  0  0  0  0  0  0  0  0  0  0  0
   37.7100   30.3800   42.7720 H   0  0  0  0  0  0  0  0  0  0  0  0
   40.0780   28.7200   39.8700 Cl  0  0  0  0  0  0  0  0  0  0  0  0
   38.8540   30.0020   39.6820 C   0  0  0  0  0  0  0  0  0  0  0  0
   37.6620   29.7990   40.3370 C   0  0  0  0  0  0  0  0  0  0  0  0
   36.7120   30.8370   40.0610 C   0  0  0  0  0  0  0  0  0  0  0  0
   35.7030   30.7990   40.5100 H   0  0  0  0  0  0  0  0  0  0  0  0
   36.8830   31.9420   39.2580 C   0  0  0  0  0  0  0  0  0  0  0  0
   36.1200   32.6720   39.1060 H   0  0  0  0  0  0  0  0  0  0  0  0
   38.1110   32.0590   38.6490 C   0  0  0  0  0  3  0  0  0  0  0  0
   39.0690   31.0950   38.8690 C   0  0  0  0  0  3  0  0  0  0  0  0
   36.4850   28.7470   36.6900 C   0  0  0  0  0  0  0  0  0  0  0  0
   35.1110   29.0470   36.7170 C   0  0  0  0  0  0  0  0  0  0  0  0
   34.3840   28.6250   37.8350 C   0  0  0  0  0  0  0  0  0  0  0  0
   35.0990   27.9750   38.7530 N   0  0  0  0  0  0  0  0  0  0  0  0
   36.3770   27.6780   38.7660 C   0  0  0  0  0  0  0  0  0  0  0  0
   37.0550   28.0860   37.6990 N   0  0  0  0  0  0  0  0  0  0  0  0
   37.0680   29.0620   35.8340 H   0  0  0  0  0  0  0  0  0  0  0  0
   34.5980   29.5780   35.9280 H   0  0  0  0  0  0  0  0  0  0  0  0
   33.0190   28.9430   38.0380 N   0  0  0  0  0  0  0  0  0  0  0  0
   32.4590   28.0500   38.1650 H   0  0  0  0  0  0  0  0  0  0  0  0
   32.5280   29.8550   38.0780 H   0  0  0  0  0  0  0  0  0  0  0  0
  1 10  1  0  0  0  0
  2  1  2  0  0  0  0
  2  3  1  0  0  0  0
  3  4  2  0  0  0  0
  4  5  1  0  0  0  0
  4 13  1  0  0  0  0
  5  6  1  0  0  0  0
  6  7  2  0  0  0  0
  6 14  1  0  0  0  0
  7 15  1  0  0  0  0
  8 16  1  0  0  0  0
  8  7  1  0  0  0  0
  9  8  2  0  0  0  0
 10  9  1  0  0  0  0
 10  5  2  0  0  0  0
 11  2  1  0  0  0  0
 12  3  1  0  0  0  0
 18 17  1  0  0  0  0
 18 19  1  0  0  0  0
 19  9  1  0  0  0  0
 20 19  2  0  0  0  0
 20 21  1  0  0  0  0
 22 20  1  0  0  0  0
 23 22  1  0  0  0  0
 24 25  1  0  0  0  0
 24 22  2  0  0  0  0
 25 18  2  0  0  0  0
 26 27  2  0  0  0  0
 26 31  1  0  0  0  0
 27 28  1  0  0  0  0
 28 34  1  0  0  0  0
 28 29  2  0  0  0  0
 29 30  1  0  0  0  0
 30  1  1  0  0  0  0
 31 30  2  0  0  0  0
 32 26  1  0  0  0  0
 33 27  1  0  0  0  0
 34 36  1  0  0  0  0
 34 35  1  0  0  0  0
M  END
>  <minimizedAffinity>
-6.60120058

$$$$

 OpenBabel03242521533D

 36 39  0  0  0  0  0  0  0  0999 V2000
   37.5630   31.8060   40.2240 C   0  0  0  0  0  0  0  0  0  0  0  0
   37.3230   33.1320   39.9200 C   0  0  0  0  0  0  0  0  0  0  0  0
   38.3120   34.1240   39.9610 C   0  0  0  0  0  0  0  0  0  0  0  0
   39.6100   33.8020   40.3180 C   0  0  0  0  0  0  0  0  0  0  0  0
   39.8820   32.4660   40.6380 C   0  0  0  0  0  0  0  0  0  0  0  0
   41.1520   32.1760   41.0570 C   0  0  0  0  0  0  0  0  0  0  0  0
   41.4250   30.8650   41.4820 C   0  0  0  0  0  0  0  0  0  0  0  0
   40.3690   29.9140   41.4660 C   0  0  0  0  0  0  0  0  0  0  0  0
   39.1450   30.3230   41.0230 C   0  0  0  0  0  0  0  0  0  0  0  0
   38.8430   31.5690   40.5780 C   0  0  0  0  0  0  0  0  0  0  0  0
   36.2870   33.3610   39.6400 H   0  0  0  0  0  0  0  0  0  0  0  0
   37.9730   35.1120   39.7010 H   0  0  0  0  0  0  0  0  0  0  0  0
   40.3560   34.5530   40.3410 H   0  0  0  0  0  0  0  0  0  0  0  0
   41.8820   32.9830   41.0360 H   0  0  0  0  0  0  0  0  0  0  0  0
   42.5010   30.8220   41.7670 H   0  0  0  0  0  0  0  0  0  0  0  0
   40.9300   29.0790   41.8640 H   0  0  0  0  0  0  0  0  0  0  0  0
   38.7680   27.6580   39.3860 Cl  0  0  0  0  0  0  0  0  0  0  0  0
   38.1550   27.9460   41.0350 C   0  0  0  0  0  0  0  0  0  0  0  0
   38.4440   29.1750   41.5810 C   0  0  0  0  0  0  0  0  0  0  0  0
   37.9850   29.2850   42.9340 C   0  0  0  0  0  0  0  0  0  0  0  0
   38.1600   30.2160   43.5050 H   0  0  0  0  0  0  0  0  0  0  0  0
   37.3220   28.3360   43.6780 C   0  0  0  0  0  0  0  0  0  0  0  0
   37.0130   28.5000   44.6860 H   0  0  0  0  0  0  0  0  0  0  0  0
   37.0750   27.1400   43.0430 C   0  0  0  0  0  3  0  0  0  0  0  0
   37.4920   26.9660   41.7430 C   0  0  0  0  0  3  0  0  0  0  0  0
   34.8230   29.2860   40.0730 C   0  0  0  0  0  0  0  0  0  0  0  0
   34.9540   28.8620   38.7380 C   0  0  0  0  0  0  0  0  0  0  0  0
   35.9860   29.4300   37.9820 C   0  0  0  0  0  0  0  0  0  0  0  0
   36.7290   30.3240   38.6350 N   0  0  0  0  0  0  0  0  0  0  0  0
   36.6410   30.7430   39.8760 C   0  0  0  0  0  0  0  0  0  0  0  0
   35.6580   30.1940   40.5810 N   0  0  0  0  0  0  0  0  0  0  0  0
   34.0310   28.8610   40.6760 H   0  0  0  0  0  0  0  0  0  0  0  0
   34.3060   28.1310   38.2750 H   0  0  0  0  0  0  0  0  0  0  0  0
   36.2920   29.0260   36.6600 N   0  0  0  0  0  0  0  0  0  0  0  0
   36.2520   29.8660   36.0120 H   0  0  0  0  0  0  0  0  0  0  0  0
   36.5320   28.0970   36.2670 H   0  0  0  0  0  0  0  0  0  0  0  0
  1 10  1  0  0  0  0
  2  3  1  0  0  0  0
  2  1  2  0  0  0  0
  3  4  2  0  0  0  0
  4 13  1  0  0  0  0
  4  5  1  0  0  0  0
  5  6  1  0  0  0  0
  6  7  2  0  0  0  0
  7 15  1  0  0  0  0
  8  7  1  0  0  0  0
  8 16  1  0  0  0  0
  9  8  2  0  0  0  0
  9 19  1  0  0  0  0
 10  5  2  0  0  0  0
 10  9  1  0  0  0  0
 11  2  1  0  0  0  0
 12  3  1  0  0  0  0
 14  6  1  0  0  0  0
 17 18  1  0  0  0  0
 18 19  2  0  0  0  0
 18 25  1  0  0  0  0
 19 20  1  0  0  0  0
 20 21  1  0  0  0  0
 20 22  2  0  0  0  0
 22 23  1  0  0  0  0
 24 22  1  0  0  0  0
 25 24  2  0  0  0  0
 26 31  1  0  0  0  0
 26 32  1  0  0  0  0
 27 26  2  0  0  0  0
 28 29  2  0  0  0  0
 28 27  1  0  0  0  0
 29 30  1  0  0  0  0
 30  1  1  0  0  0  0
 30 31  2  0  0  0  0
 33 27  1  0  0  0  0
 34 28  1  0  0  0  0
 35 34  1  0  0  0  0
 36 34  1  0  0  0  0
M  END
>  <minimizedAffinity>
-6.47450256

$$$$

 OpenBabel03242521533D

 36 39  0  0  0  0  0  0  0  0999 V2000
   37.4050   27.2360   38.9020 C   0  0  0  0  0  0  0  0  0  0  0  0
   37.1800   27.3970   37.5480 C   0  0  0  0  0  0  0  0  0  0  0  0
   36.4950   26.4600   36.7640 C   0  0  0  0  0  0  0  0  0  0  0  0
   36.0000   25.3000   37.3330 C   0  0  0  0  0  0  0  0  0  0  0  0
   36.2200   25.1050   38.7030 C   0  0  0  0  0  0  0  0  0  0  0  0
   35.7880   23.9220   39.2370 C   0  0  0  0  0  0  0  0  0  0  0  0
   36.0850   23.6570   40.5850 C   0  0  0  0  0  0  0  0  0  0  0  0
   36.8270   24.6240   41.3170 C   0  0  0  0  0  0  0  0  0  0  0  0
   37.1990   25.7670   40.6740 C   0  0  0  0  0  0  0  0  0  0  0  0
   36.9110   26.0780   39.3850 C   0  0  0  0  0  0  0  0  0  0  0  0
   37.5810   28.3250   37.1210 H   0  0  0  0  0  0  0  0  0  0  0  0
   36.4000   26.7230   35.7240 H   0  0  0  0  0  0  0  0  0  0  0  0
   35.4770   24.5970   36.7380 H   0  0  0  0  0  0  0  0  0  0  0  0
   35.2340   23.2500   38.5840 H   0  0  0  0  0  0  0  0  0  0  0  0
   35.6430   22.6670   40.8370 H   0  0  0  0  0  0  0  0  0  0  0  0
   36.8750   24.0800   42.2520 H   0  0  0  0  0  0  0  0  0  0  0  0
   36.4260   27.4590   43.2170 Cl  0  0  0  0  0  0  0  0  0  0  0  0
   38.0650   26.8750   42.8310 C   0  0  0  0  0  0  0  0  0  0  0  0
   38.1870   26.1340   41.6790 C   0  0  0  0  0  0  0  0  0  0  0  0
   39.5200   25.6390   41.4950 C   0  0  0  0  0  0  0  0  0  0  0  0
   39.7620   25.0150   40.6150 H   0  0  0  0  0  0  0  0  0  0  0  0
   40.6090   25.8320   42.3130 C   0  0  0  0  0  0  0  0  0  0  0  0
   41.5730   25.4260   42.1010 H   0  0  0  0  0  0  0  0  0  0  0  0
   40.3890   26.5900   43.4400 C   0  0  0  0  0  3  0  0  0  0  0  0
   39.1310   27.0950   43.6790 C   0  0  0  0  0  3  0  0  0  0  0  0
   39.2470   29.8370   40.8300 C   0  0  0  0  0  0  0  0  0  0  0  0
   38.1680   30.6210   41.2770 C   0  0  0  0  0  0  0  0  0  0  0  0
   36.8810   30.1990   40.9280 C   0  0  0  0  0  0  0  0  0  0  0  0
   36.8380   29.0850   40.1960 N   0  0  0  0  0  0  0  0  0  0  0  0
   37.8180   28.3270   39.7620 C   0  0  0  0  0  0  0  0  0  0  0  0
   39.0330   28.7390   40.1030 N   0  0  0  0  0  0  0  0  0  0  0  0
   40.2530   30.1450   41.0880 H   0  0  0  0  0  0  0  0  0  0  0  0
   38.2830   31.5180   41.8680 H   0  0  0  0  0  0  0  0  0  0  0  0
   35.7030   30.8350   41.3900 N   0  0  0  0  0  0  0  0  0  0  0  0
   35.1110   31.1350   40.5620 H   0  0  0  0  0  0  0  0  0  0  0  0
   35.3650   31.0330   42.3500 H   0  0  0  0  0  0  0  0  0  0  0  0
  1 10  1  0  0  0  0
  1 30  1  0  0  0  0
  2  1  2  0  0  0  0
  3  4  2  0  0  0  0
  3  2  1  0  0  0  0
  4  5  1  0  0  0  0
  5  6  2  0  0  0  0
  5 10  1  0  0  0  0
  6  7  1  0  0  0  0
  7 15  1  0  0  0  0
  7  8  2  0  0  0  0
  8 16  1  0  0  0  0
  9  8  1  0  0  0  0
  9 19  1  0  0  0  0
 10  9  2  0  0  0  0
 11  2  1  0  0  0  0
 12  3  1  0  0  0  0
 13  4  1  0  0  0  0
 14  6  1  0  0  0  0
 18 17  1  0  0  0  0
 18 25  1  0  0  0  0
 19 18  2  0  0  0  0
 20 19  1  0  0  0  0
 20 22  2  0  0  0  0
 21 20  1  0  0  0  0
 22 24  1  0  0  0  0
 23 22  1  0  0  0  0
 24 25  2  0  0  0  0
 26 32  1  0  0  0  0
 26 27  1  0  0  0  0
 27 33  1  0  0  0  0
 28 27  2  0  0  0  0
 28 34  1  0  0  0  0
 29 28  1  0  0  0  0
 30 31  1  0  0  0  0
 30 29  2  0  0  0  0
 31 26  2  0  0  0  0
 34 36  1  0  0  0  0
 35 34  1  0  0  0  0
M  END
>  <minimizedAffinity>
-6.4738245

$$$$

 OpenBabel03242521533D

 36 39  0  0  0  0  0  0  0  0999 V2000
   40.4820   30.9210   41.4380 C   0  0  0  0  0  0  0  0  0  0  0  0
   41.1080   32.1520   41.3910 C   0  0  0  0  0  0  0  0  0  0  0  0
   42.3510   32.4080   41.9840 C   0  0  0  0  0  0  0  0  0  0  0  0
   43.0220   31.4040   42.6610 C   0  0  0  0  0  0  0  0  0  0  0  0
   42.4090   30.1480   42.7320 C   0  0  0  0  0  0  0  0  0  0  0  0
   43.0490   29.1860   43.4640 C   0  0  0  0  0  0  0  0  0  0  0  0
   42.4070   27.9480   43.6360 C   0  0  0  0  0  0  0  0  0  0  0  0
   41.1240   27.7630   43.0530 C   0  0  0  0  0  0  0  0  0  0  0  0
   40.5890   28.7980   42.3420 C   0  0  0  0  0  0  0  0  0  0  0  0
   41.1830   29.9980   42.1260 C   0  0  0  0  0  0  0  0  0  0  0  0
   40.5560   32.9300   40.8480 H   0  0  0  0  0  0  0  0  0  0  0  0
   42.7100   33.4160   41.8660 H   0  0  0  0  0  0  0  0  0  0  0  0
   43.9650   31.6000   43.1020 H   0  0  0  0  0  0  0  0  0  0  0  0
   44.0260   29.4360   43.8730 H   0  0  0  0  0  0  0  0  0  0  0  0
   43.0830   27.3000   44.2400 H   0  0  0  0  0  0  0  0  0  0  0  0
   40.9560   26.7540   43.4070 H   0  0  0  0  0  0  0  0  0  0  0  0
   39.6720   26.6200   40.2570 Cl  0  0  0  0  0  0  0  0  0  0  0  0
   38.6420   27.3200   41.5330 C   0  0  0  0  0  0  0  0  0  0  0  0
   39.2420   28.2450   42.3540 C   0  0  0  0  0  0  0  0  0  0  0  0
   38.3640   28.6890   43.3970 C   0  0  0  0  0  0  0  0  0  0  0  0
   38.7180   29.4260   44.1420 H   0  0  0  0  0  0  0  0  0  0  0  0
   37.0650   28.2980   43.6270 C   0  0  0  0  0  0  0  0  0  0  0  0
   36.4770   28.6810   44.4310 H   0  0  0  0  0  0  0  0  0  0  0  0
   36.5520   27.3710   42.7490 C   0  0  0  0  0  3  0  0  0  0  0  0
   37.3420   26.9010   41.7250 C   0  0  0  0  0  3  0  0  0  0  0  0
   38.2430   29.5960   38.7710 C   0  0  0  0  0  0  0  0  0  0  0  0
   36.9890   29.9050   39.3280 C   0  0  0  0  0  0  0  0  0  0  0  0
   36.9800   30.5770   40.5560 C   0  0  0  0  0  0  0  0  0  0  0  0
   38.1870   30.8410   41.0560 N   0  0  0  0  0  0  0  0  0  0  0  0
   39.3760   30.5720   40.5680 C   0  0  0  0  0  0  0  0  0  0  0  0
   39.3680   29.9360   39.4020 N   0  0  0  0  0  0  0  0  0  0  0  0
   38.2740   29.0760   37.8230 H   0  0  0  0  0  0  0  0  0  0  0  0
   36.0470   29.6540   38.8620 H   0  0  0  0  0  0  0  0  0  0  0  0
   35.7950   31.0350   41.1820 N   0  0  0  0  0  0  0  0  0  0  0  0
   35.7260   30.6260   42.1580 H   0  0  0  0  0  0  0  0  0  0  0  0
   35.0440   31.6650   40.8450 H   0  0  0  0  0  0  0  0  0  0  0  0
  1 10  1  0  0  0  0
  2  1  2  0  0  0  0
  2  3  1  0  0  0  0
  3  4  2  0  0  0  0
  4  5  1  0  0  0  0
  4 13  1  0  0  0  0
  5  6  1  0  0  0  0
  6  7  2  0  0  0  0
  6 14  1  0  0  0  0
  7 15  1  0  0  0  0
  8 16  1  0  0  0  0
  8  7  1  0  0  0  0
  9 19  1  0  0  0  0
  9  8  2  0  0  0  0
 10  9  1  0  0  0  0
 10  5  2  0  0  0  0
 11  2  1  0  0  0  0
 12  3  1  0  0  0  0
 17 18  1  0  0  0  0
 18 25  2  0  0  0  0
 18 19  1  0  0  0  0
 19 20  2  0  0  0  0
 20 22  1  0  0  0  0
 20 21  1  0  0  0  0
 22 23  1  0  0  0  0
 24 22  2  0  0  0  0
 25 24  1  0  0  0  0
 26 27  2  0  0  0  0
 26 31  1  0  0  0  0
 27 28  1  0  0  0  0
 28 29  2  0  0  0  0
 28 34  1  0  0  0  0
 30 29  1  0  0  0  0
 30  1  1  0  0  0  0
 31 30  2  0  0  0  0
 32 26  1  0  0  0  0
 33 27  1  0  0  0  0
 34 35  1  0  0  0  0
 36 34  1  0  0  0  0
M  END
>  <minimizedAffinity>
-6.31984091

$$$$

 OpenBabel03242521533D

 36 39  0  0  0  0  0  0  0  0999 V2000
   37.8450   29.0430   41.3380 C   0  0  0  0  0  0  0  0  0  0  0  0
   37.9850   29.2980   42.6890 C   0  0  0  0  0  0  0  0  0  0  0  0
   37.8230   28.3210   43.6790 C   0  0  0  0  0  0  0  0  0  0  0  0
   37.5090   27.0190   43.3310 C   0  0  0  0  0  0  0  0  0  0  0  0
   37.3530   26.7310   41.9700 C   0  0  0  0  0  0  0  0  0  0  0  0
   36.9720   25.4570   41.6450 C   0  0  0  0  0  0  0  0  0  0  0  0
   36.7100   25.1690   40.2950 C   0  0  0  0  0  0  0  0  0  0  0  0
   36.8420   26.2150   39.3410 C   0  0  0  0  0  0  0  0  0  0  0  0
   37.2310   27.4430   39.7880 C   0  0  0  0  0  0  0  0  0  0  0  0
   37.5220   27.7610   41.0740 C   0  0  0  0  0  0  0  0  0  0  0  0
   38.2350   30.3380   42.9390 H   0  0  0  0  0  0  0  0  0  0  0  0
   37.9620   28.6710   44.6880 H   0  0  0  0  0  0  0  0  0  0  0  0
   37.3950   26.2810   44.0820 H   0  0  0  0  0  0  0  0  0  0  0  0
   36.8950   24.7360   42.4560 H   0  0  0  0  0  0  0  0  0  0  0  0
   36.4330   24.0930   40.2300 H   0  0  0  0  0  0  0  0  0  0  0  0
   36.5480   25.6440   38.4700 H   0  0  0  0  0  0  0  0  0  0  0  0
   34.6310   29.2210   39.6920 Cl  0  0  0  0  0  0  0  0  0  0  0  0
   35.7240   28.9230   38.3150 C   0  0  0  0  0  0  0  0  0  0  0  0
   36.8180   28.1310   38.5720 C   0  0  0  0  0  0  0  0  0  0  0  0
   37.6800   28.0160   37.4330 C   0  0  0  0  0  0  0  0  0  0  0  0
   38.6070   27.4170   37.4980 H   0  0  0  0  0  0  0  0  0  0  0  0
   37.5140   28.5860   36.1920 C   0  0  0  0  0  0  0  0  0  0  0  0
   38.2080   28.4480   35.3920 H   0  0  0  0  0  0  0  0  0  0  0  0
   36.3870   29.3590   36.0300 C   0  0  0  0  0  3  0  0  0  0  0  0
   35.5180   29.5140   37.0860 C   0  0  0  0  0  3  0  0  0  0  0  0
   39.5660   30.7250   38.4950 C   0  0  0  0  0  0  0  0  0  0  0  0
   38.7540   31.8650   38.3560 C   0  0  0  0  0  0  0  0  0  0  0  0
   37.6940   32.0110   39.2580 C   0  0  0  0  0  0  0  0  0  0  0  0
   37.5830   31.0290   40.1530 N   0  0  0  0  0  0  0  0  0  0  0  0
   38.3190   29.9540   40.3150 C   0  0  0  0  0  0  0  0  0  0  0  0
   39.3220   29.8300   39.4530 N   0  0  0  0  0  0  0  0  0  0  0  0
   40.3910   30.5900   37.8070 H   0  0  0  0  0  0  0  0  0  0  0  0
   38.9050   32.6200   37.5980 H   0  0  0  0  0  0  0  0  0  0  0  0
   36.8590   33.1540   39.2960 N   0  0  0  0  0  0  0  0  0  0  0  0
   35.8460   32.8600   39.1790 H   0  0  0  0  0  0  0  0  0  0  0  0
   37.0810   34.1600   39.4120 H   0  0  0  0  0  0  0  0  0  0  0  0
  1  2  1  0  0  0  0
  2 11  1  0  0  0  0
  2  3  2  0  0  0  0
  3 12  1  0  0  0  0
  4  3  1  0  0  0  0
  4 13  1  0  0  0  0
  5  4  2  0  0  0  0
  6  5  1  0  0  0  0
  6 14  1  0  0  0  0
  7  6  2  0  0  0  0
  8  9  2  0  0  0  0
  8  7  1  0  0  0  0
  9 10  1  0  0  0  0
 10  1  2  0  0  0  0
 10  5  1  0  0  0  0
 15  7  1  0  0  0  0
 16  8  1  0  0  0  0
 18 19  1  0  0  0  0
 18 17  1  0  0  0  0
 19  9  1  0  0  0  0
 20 21  1  0  0  0  0
 20 19  2  0  0  0  0
 22 20  1  0  0  0  0
 23 22  1  0  0  0  0
 24 22  2  0  0  0  0
 24 25  1  0  0  0  0
 25 18  2  0  0  0  0
 26 31  1  0  0  0  0
 27 26  2  0  0  0  0
 27 28  1  0  0  0  0
 28 34  1  0  0  0  0
 28 29  2  0  0  0  0
 29 30  1  0  0  0  0
 30  1  1  0  0  0  0
 31 30  2  0  0  0  0
 32 26  1  0  0  0  0
 33 27  1  0  0  0  0
 34 36  1  0  0  0  0
 35 34  1  0  0  0  0
M  END
>  <minimizedAffinity>
-6.26736403

$$$$

 OpenBabel03242521533D

 36 39  0  0  0  0  0  0  0  0999 V2000
   37.4810   30.6990   40.1410 C   0  0  0  0  0  0  0  0  0  0  0  0
   36.3040   30.5870   39.4240 C   0  0  0  0  0  0  0  0  0  0  0  0
   35.2990   29.6620   39.7310 C   0  0  0  0  0  0  0  0  0  0  0  0
   35.4490   28.7960   40.8000 C   0  0  0  0  0  0  0  0  0  0  0  0
   36.6340   28.8800   41.5410 C   0  0  0  0  0  0  0  0  0  0  0  0
   36.8000   27.9710   42.5500 C   0  0  0  0  0  0  0  0  0  0  0  0
   38.0230   27.9670   43.2430 C   0  0  0  0  0  0  0  0  0  0  0  0
   39.0250   28.8960   42.8530 C   0  0  0  0  0  0  0  0  0  0  0  0
   38.7400   29.7550   41.8330 C   0  0  0  0  0  0  0  0  0  0  0  0
   37.5660   29.8150   41.1550 C   0  0  0  0  0  0  0  0  0  0  0  0
   36.2100   31.2860   38.5820 H   0  0  0  0  0  0  0  0  0  0  0  0
   34.4410   29.6930   39.0810 H   0  0  0  0  0  0  0  0  0  0  0  0
   34.6840   28.1020   41.0330 H   0  0  0  0  0  0  0  0  0  0  0  0
   35.9700   27.3000   42.7600 H   0  0  0  0  0  0  0  0  0  0  0  0
   37.9610   27.1770   44.0260 H   0  0  0  0  0  0  0  0  0  0  0  0
   39.7830   28.5850   43.5600 H   0  0  0  0  0  0  0  0  0  0  0  0
   40.3640   28.7250   39.3370 Cl  0  0  0  0  0  0  0  0  0  0  0  0
   41.0140   29.7730   40.6240 C   0  0  0  0  0  0  0  0  0  0  0  0
   40.1320   30.1260   41.6180 C   0  0  0  0  0  0  0  0  0  0  0  0
   40.7170   31.0340   42.5610 C   0  0  0  0  0  0  0  0  0  0  0  0
   40.1190   31.4140   43.4090 H   0  0  0  0  0  0  0  0  0  0  0  0
   41.9960   31.5420   42.5570 C   0  0  0  0  0  0  0  0  0  0  0  0
   42.3550   32.2170   43.3010 H   0  0  0  0  0  0  0  0  0  0  0  0
   42.8040   31.1280   41.5230 C   0  0  0  0  0  3  0  0  0  0  0  0
   42.3040   30.2570   40.5820 C   0  0  0  0  0  3  0  0  0  0  0  0
   39.5380   33.7570   40.6810 C   0  0  0  0  0  0  0  0  0  0  0  0
   40.3000   33.7510   39.4990 C   0  0  0  0  0  0  0  0  0  0  0  0
   40.0450   32.7320   38.5750 C   0  0  0  0  0  0  0  0  0  0  0  0
   39.0930   31.8740   38.9410 N   0  0  0  0  0  0  0  0  0  0  0  0
   38.3600   31.8460   40.0300 C   0  0  0  0  0  0  0  0  0  0  0  0
   38.6130   32.8200   40.8960 N   0  0  0  0  0  0  0  0  0  0  0  0
   39.7190   34.5360   41.4110 H   0  0  0  0  0  0  0  0  0  0  0  0
   41.0620   34.4840   39.2740 H   0  0  0  0  0  0  0  0  0  0  0  0
   40.6670   32.6610   37.3060 N   0  0  0  0  0  0  0  0  0  0  0  0
   41.1580   31.7260   37.2000 H   0  0  0  0  0  0  0  0  0  0  0  0
   40.7070   33.3420   36.5250 H   0  0  0  0  0  0  0  0  0  0  0  0
  1 10  1  0  0  0  0
  2  3  1  0  0  0  0
  2  1  2  0  0  0  0
  3  4  2  0  0  0  0
  4 13  1  0  0  0  0
  4  5  1  0  0  0  0
  5  6  1  0  0  0  0
  6 14  1  0  0  0  0
  6  7  2  0  0  0  0
  7 15  1  0  0  0  0
  8  7  1  0  0  0  0
  8 16  1  0  0  0  0
  9  8  2  0  0  0  0
 10  5  2  0  0  0  0
 10  9  1  0  0  0  0
 11  2  1  0  0  0  0
 12  3  1  0  0  0  0
 17 18  1  0  0  0  0
 18 19  1  0  0  0  0
 19  9  1  0  0  0  0
 19 20  2  0  0  0  0
 20 21  1  0  0  0  0
 22 20  1  0  0  0  0
 22 23  1  0  0  0  0
 24 22  2  0  0  0  0
 25 18  2  0  0  0  0
 25 24  1  0  0  0  0
 26 31  1  0  0  0  0
 26 32  1  0  0  0  0
 27 26  2  0  0  0  0
 28 29  2  0  0  0  0
 28 27  1  0  0  0  0
 29 30  1  0  0  0  0
 30  1  1  0  0  0  0
 30 31  2  0  0  0  0
 33 27  1  0  0  0  0
 34 28  1  0  0  0  0
 35 34  1  0  0  0  0
 36 34  1  0  0  0  0
M  END
>  <minimizedAffinity>
-6.2560811

$$$$

 OpenBabel03242521533D

 36 39  0  0  0  0  0  0  0  0999 V2000
   36.8640   26.7140   39.8080 C   0  0  0  0  0  0  0  0  0  0  0  0
   36.5740   25.3630   39.8360 C   0  0  0  0  0  0  0  0  0  0  0  0
   36.7330   24.5640   40.9760 C   0  0  0  0  0  0  0  0  0  0  0  0
   37.1990   25.1160   42.1560 C   0  0  0  0  0  0  0  0  0  0  0  0
   37.5080   26.4810   42.1570 C   0  0  0  0  0  0  0  0  0  0  0  0
   38.0350   26.9970   43.3090 C   0  0  0  0  0  0  0  0  0  0  0  0
   38.4480   28.3400   43.3050 C   0  0  0  0  0  0  0  0  0  0  0  0
   38.3100   29.0870   42.1040 C   0  0  0  0  0  0  0  0  0  0  0  0
   37.7670   28.4620   41.0200 C   0  0  0  0  0  0  0  0  0  0  0  0
   37.3280   27.1790   40.9860 C   0  0  0  0  0  0  0  0  0  0  0  0
   36.2060   24.9510   38.8880 H   0  0  0  0  0  0  0  0  0  0  0  0
   36.4680   23.5290   40.8430 H   0  0  0  0  0  0  0  0  0  0  0  0
   37.3100   24.5100   43.0180 H   0  0  0  0  0  0  0  0  0  0  0  0
   38.1030   26.3330   44.1690 H   0  0  0  0  0  0  0  0  0  0  0  0
   38.8300   28.5770   44.3240 H   0  0  0  0  0  0  0  0  0  0  0  0
   38.7360   30.0130   42.4680 H   0  0  0  0  0  0  0  0  0  0  0  0
   36.1990   31.1610   40.5870 Cl  0  0  0  0  0  0  0  0  0  0  0  0
   37.6870   30.6880   39.7260 C   0  0  0  0  0  0  0  0  0  0  0  0
   38.2270   29.4730   40.0770 C   0  0  0  0  0  0  0  0  0  0  0  0
   39.4620   29.2150   39.3960 C   0  0  0  0  0  0  0  0  0  0  0  0
   40.0160   28.2780   39.5900 H   0  0  0  0  0  0  0  0  0  0  0  0
   40.1030   30.0210   38.4840 C   0  0  0  0  0  0  0  0  0  0  0  0
   41.0260   29.7520   38.0200 H   0  0  0  0  0  0  0  0  0  0  0  0
   39.4830   31.2150   38.1960 C   0  0  0  0  0  3  0  0  0  0  0  0
   38.2950   31.5270   38.8160 C   0  0  0  0  0  3  0  0  0  0  0  0
   35.1170   29.2230   37.6800 C   0  0  0  0  0  0  0  0  0  0  0  0
   36.0100   29.2880   36.5940 C   0  0  0  0  0  0  0  0  0  0  0  0
   37.1300   28.4500   36.6340 C   0  0  0  0  0  0  0  0  0  0  0  0
   37.2140   27.6830   37.7210 N   0  0  0  0  0  0  0  0  0  0  0  0
   36.4040   27.5920   38.7500 C   0  0  0  0  0  0  0  0  0  0  0  0
   35.3450   28.3910   38.6970 N   0  0  0  0  0  0  0  0  0  0  0  0
   34.2440   29.8630   37.6710 H   0  0  0  0  0  0  0  0  0  0  0  0
   35.8750   29.9430   35.7450 H   0  0  0  0  0  0  0  0  0  0  0  0
   38.0560   28.3420   35.5690 N   0  0  0  0  0  0  0  0  0  0  0  0
   39.0330   28.5610   35.9210 H   0  0  0  0  0  0  0  0  0  0  0  0
   37.9240   28.0970   34.5700 H   0  0  0  0  0  0  0  0  0  0  0  0
  1  2  2  0  0  0  0
  1 10  1  0  0  0  0
  2  3  1  0  0  0  0
  3  4  2  0  0  0  0
  4  5  1  0  0  0  0
  4 13  1  0  0  0  0
  5  6  1  0  0  0  0
  6 14  1  0  0  0  0
  7  6  2  0  0  0  0
  7 15  1  0  0  0  0
  8 16  1  0  0  0  0
  8  7  1  0  0  0  0
  9  8  2  0  0  0  0
 10  9  1  0  0  0  0
 10  5  2  0  0  0  0
 11  2  1  0  0  0  0
 12  3  1  0  0  0  0
 18 19  1  0  0  0  0
 18 17  1  0  0  0  0
 19  9  1  0  0  0  0
 20 21  1  0  0  0  0
 20 19  2  0  0  0  0
 22 20  1  0  0  0  0
 23 22  1  0  0  0  0
 24 22  2  0  0  0  0
 24 25  1  0  0  0  0
 25 18  2  0  0  0  0
 26 31  1  0  0  0  0
 27 28  1  0  0  0  0
 27 26  2  0  0  0  0
 28 29  2  0  0  0  0
 29 30  1  0  0  0  0
 30  1  1  0  0  0  0
 31 30  2  0  0  0  0
 32 26  1  0  0  0  0
 33 27  1  0  0  0  0
 34 35  1  0  0  0  0
 34 28  1  0  0  0  0
 36 34  1  0  0  0  0
M  END
>  <minimizedAffinity>
-6.25532532

$$$$

 OpenBabel03242521533D

 36 39  0  0  0  0  0  0  0  0999 V2000
   37.2510   27.2750   38.7400 C   0  0  0  0  0  0  0  0  0  0  0  0
   36.9870   27.4410   37.3940 C   0  0  0  0  0  0  0  0  0  0  0  0
   36.2750   26.5100   36.6270 C   0  0  0  0  0  0  0  0  0  0  0  0
   35.7920   25.3510   37.2070 C   0  0  0  0  0  0  0  0  0  0  0  0
   36.0500   25.1500   38.5690 C   0  0  0  0  0  0  0  0  0  0  0  0
   35.6270   23.9680   39.1120 C   0  0  0  0  0  0  0  0  0  0  0  0
   35.9620   23.6970   40.4500 C   0  0  0  0  0  0  0  0  0  0  0  0
   36.7300   24.6570   41.1640 C   0  0  0  0  0  0  0  0  0  0  0  0
   37.0890   25.8010   40.5130 C   0  0  0  0  0  0  0  0  0  0  0  0
   36.7650   26.1180   39.2340 C   0  0  0  0  0  0  0  0  0  0  0  0
   37.3810   28.3690   36.9580 H   0  0  0  0  0  0  0  0  0  0  0  0
   36.1510   26.7770   35.5910 H   0  0  0  0  0  0  0  0  0  0  0  0
   35.2480   24.6530   36.6260 H   0  0  0  0  0  0  0  0  0  0  0  0
   35.0520   23.3010   38.4730 H   0  0  0  0  0  0  0  0  0  0  0  0
   35.5230   22.7080   40.7120 H   0  0  0  0  0  0  0  0  0  0  0  0
   36.8030   24.1100   42.0940 H   0  0  0  0  0  0  0  0  0  0  0  0
   40.1300   25.0990   40.0730 Cl  0  0  0  0  0  0  0  0  0  0  0  0
   39.4640   25.9310   41.5020 C   0  0  0  0  0  0  0  0  0  0  0  0
   38.1080   26.1600   41.4900 C   0  0  0  0  0  0  0  0  0  0  0  0
   37.6770   26.9050   42.6370 C   0  0  0  0  0  0  0  0  0  0  0  0
   36.6110   27.1740   42.7540 H   0  0  0  0  0  0  0  0  0  0  0  0
   38.4490   27.3720   43.6760 C   0  0  0  0  0  0  0  0  0  0  0  0
   38.0470   27.9210   44.4970 H   0  0  0  0  0  0  0  0  0  0  0  0
   39.7940   27.0890   43.6000 C   0  0  0  0  0  3  0  0  0  0  0  0
   40.2750   26.3790   42.5230 C   0  0  0  0  0  3  0  0  0  0  0  0
   39.1590   29.8720   40.6090 C   0  0  0  0  0  0  0  0  0  0  0  0
   38.0950   30.6430   41.1120 C   0  0  0  0  0  0  0  0  0  0  0  0
   36.7960   30.2140   40.8170 C   0  0  0  0  0  0  0  0  0  0  0  0
   36.7290   29.1070   40.0770 N   0  0  0  0  0  0  0  0  0  0  0  0
   37.6940   28.3610   39.5920 C   0  0  0  0  0  0  0  0  0  0  0  0
   38.9200   28.7790   39.8820 N   0  0  0  0  0  0  0  0  0  0  0  0
   40.1730   30.1850   40.8240 H   0  0  0  0  0  0  0  0  0  0  0  0
   38.2300   31.5360   41.7050 H   0  0  0  0  0  0  0  0  0  0  0  0
   35.6360   30.8370   41.3370 N   0  0  0  0  0  0  0  0  0  0  0  0
   35.0050   31.1400   40.5400 H   0  0  0  0  0  0  0  0  0  0  0  0
   35.3400   31.0240   42.3130 H   0  0  0  0  0  0  0  0  0  0  0  0
  1 10  1  0  0  0  0
  1 30  1  0  0  0  0
  2  1  2  0  0  0  0
  3  4  2  0  0  0  0
  3  2  1  0  0  0  0
  4  5  1  0  0  0  0
  5  6  2  0  0  0  0
  5 10  1  0  0  0  0
  6  7  1  0  0  0  0
  7 15  1  0  0  0  0
  7  8  2  0  0  0  0
  8 16  1  0  0  0  0
  9  8  1  0  0  0  0
  9 19  1  0  0  0  0
 10  9  2  0  0  0  0
 11  2  1  0  0  0  0
 12  3  1  0  0  0  0
 13  4  1  0  0  0  0
 14  6  1  0  0  0  0
 17 18  1  0  0  0  0
 18 25  1  0  0  0  0
 19 18  2  0  0  0  0
 19 20  1  0  0  0  0
 20 21  1  0  0  0  0
 20 22  2  0  0  0  0
 22 23  1  0  0  0  0
 24 22  1  0  0  0  0
 25 24  2  0  0  0  0
 26 32  1  0  0  0  0
 26 27  1  0  0  0  0
 27 33  1  0  0  0  0
 28 27  2  0  0  0  0
 28 34  1  0  0  0  0
 29 28  1  0  0  0  0
 30 31  1  0  0  0  0
 30 29  2  0  0  0  0
 31 26  2  0  0  0  0
 34 36  1  0  0  0  0
 35 34  1  0  0  0  0
M  END
>  <minimizedAffinity>
-6.25206804

$$$$
