
 OpenBabel03242522153D

 32 34  0  0  0  0  0  0  0  0999 V2000
   37.9910   31.2140   40.1530 C   0  0  0  0  0  0  0  0  0  0  0  0
   36.7990   31.0600   39.5250 C   0  0  0  0  0  0  0  0  0  0  0  0
   35.9010   29.8960   40.6430 S   0  0  0  0  0  0  0  0  0  0  0  0
   37.3730   29.8380   41.7940 C   0  0  0  0  0  0  0  0  0  0  0  0
   38.1020   30.5370   41.2600 N   0  0  0  0  0  0  0  0  0  0  0  0
   36.4930   31.5550   38.5540 H   0  0  0  0  0  0  0  0  0  0  0  0
   40.4610   34.0160   39.7020 C   0  0  0  0  0  0  0  0  0  0  0  0
   39.4220   33.2560   40.2650 C   0  0  0  0  0  0  0  0  0  0  0  0
   39.0730   32.0710   39.6340 C   0  0  0  0  0  0  0  0  0  0  0  0
   39.7750   31.7180   38.4890 N   0  0  0  0  0  0  0  0  0  0  0  0
   40.7660   32.4840   37.9900 C   0  0  0  0  0  0  0  0  0  0  0  0
   41.1070   33.6340   38.5990 N   0  0  0  0  0  0  0  0  0  0  0  0
   40.7680   34.9500   40.1640 H   0  0  0  0  0  0  0  0  0  0  0  0
   41.1990   32.0500   37.0920 H   0  0  0  0  0  0  0  0  0  0  0  0
   38.8240   33.7600   41.4260 N   0  0  0  0  0  0  0  0  0  0  0  0
   39.1840   33.2130   42.2410 H   0  0  0  0  0  0  0  0  0  0  0  0
   38.2090   34.5250   41.0890 H   0  0  0  0  0  0  0  0  0  0  0  0
   37.3860   29.0170   43.0600 C   0  0  0  0  0  0  0  0  0  0  0  0
   38.4330   29.0870   43.4730 H   0  0  0  0  0  0  0  0  0  0  0  0
   36.6780   29.4260   43.8120 H   0  0  0  0  0  0  0  0  0  0  0  0
   37.1160   27.5780   42.7690 C   0  0  0  0  0  0  0  0  0  0  0  0
   36.3090   27.1700   43.4460 H   0  0  0  0  0  0  0  0  0  0  0  0
   36.7100   27.4270   41.7510 H   0  0  0  0  0  0  0  0  0  0  0  0
   36.6760   24.9000   41.6600 Cl  0  0  0  0  0  0  0  0  0  0  0  0
   38.1360   25.4900   42.4750 C   0  0  0  0  0  0  0  0  0  0  0  0
   38.3250   26.7760   43.0020 C   0  0  0  0  0  0  0  0  0  0  0  0
   39.5470   26.9950   43.5900 C   0  0  0  0  0  0  0  0  0  0  0  0
   39.5860   28.0320   43.9600 H   0  0  0  0  0  0  0  0  0  0  0  0
   40.5410   26.0510   43.6780 C   0  0  0  0  0  0  0  0  0  0  0  0
   41.4360   26.3830   44.1660 H   0  0  0  0  0  0  0  0  0  0  0  0
   40.3210   24.7880   43.1460 C   0  0  0  0  0  3  0  0  0  0  0  0
   39.1180   24.5000   42.5420 C   0  0  0  0  0  3  0  0  0  0  0  0
  1  5  1  0  0  0  0
  2  1  2  0  0  0  0
  2  3  1  0  0  0  0
  3  4  1  0  0  0  0
  4 18  1  0  0  0  0
  5  4  2  0  0  0  0
  6  2  1  0  0  0  0
  7 13  1  0  0  0  0
  7  8  1  0  0  0  0
  8 15  1  0  0  0  0
  9  1  1  0  0  0  0
  9  8  2  0  0  0  0
 10  9  1  0  0  0  0
 11 10  2  0  0  0  0
 11 12  1  0  0  0  0
 12  7  2  0  0  0  0
 14 11  1  0  0  0  0
 15 16  1  0  0  0  0
 17 15  1  0  0  0  0
 18 19  1  0  0  0  0
 18 20  1  0  0  0  0
 21 26  1  0  0  0  0
 21 18  1  0  0  0  0
 21 22  1  0  0  0  0
 23 21  1  0  0  0  0
 24 25  1  0  0  0  0
 25 32  2  0  0  0  0
 25 26  1  0  0  0  0
 26 27  2  0  0  0  0
 27 29  1  0  0  0  0
 27 28  1  0  0  0  0
 29 30  1  0  0  0  0
 31 29  2  0  0  0  0
 32 31  1  0  0  0  0
M  END
>  <minimizedAffinity>
-5.95238304

$$$$

 OpenBabel03242522153D

 32 34  0  0  0  0  0  0  0  0999 V2000
   38.4430   30.4380   39.7310 C   0  0  0  0  0  0  0  0  0  0  0  0
   38.6720   29.6740   38.6340 C   0  0  0  0  0  0  0  0  0  0  0  0
   37.5940   28.2040   38.9330 S   0  0  0  0  0  0  0  0  0  0  0  0
   37.0170   28.9350   40.5540 C   0  0  0  0  0  0  0  0  0  0  0  0
   37.5980   29.9180   40.5750 N   0  0  0  0  0  0  0  0  0  0  0  0
   39.3670   29.9350   37.7790 H   0  0  0  0  0  0  0  0  0  0  0  0
   39.0400   34.0880   40.4160 C   0  0  0  0  0  0  0  0  0  0  0  0
   38.3450   32.8840   40.2180 C   0  0  0  0  0  0  0  0  0  0  0  0
   39.0900   31.7430   39.9560 C   0  0  0  0  0  0  0  0  0  0  0  0
   40.4720   31.8710   39.9080 N   0  0  0  0  0  0  0  0  0  0  0  0
   41.0910   33.0520   40.1060 C   0  0  0  0  0  0  0  0  0  0  0  0
   40.3710   34.1610   40.3600 N   0  0  0  0  0  0  0  0  0  0  0  0
   38.4970   35.0060   40.6240 H   0  0  0  0  0  0  0  0  0  0  0  0
   42.1710   32.9610   40.0310 H   0  0  0  0  0  0  0  0  0  0  0  0
   36.9490   32.9350   40.3050 N   0  0  0  0  0  0  0  0  0  0  0  0
   36.6660   32.5310   41.2270 H   0  0  0  0  0  0  0  0  0  0  0  0
   36.6490   33.3650   39.4090 H   0  0  0  0  0  0  0  0  0  0  0  0
   36.0240   28.2400   41.4540 C   0  0  0  0  0  0  0  0  0  0  0  0
   35.2410   29.0090   41.7160 H   0  0  0  0  0  0  0  0  0  0  0  0
   35.5310   27.3940   40.9300 H   0  0  0  0  0  0  0  0  0  0  0  0
   36.6680   27.8050   42.7270 C   0  0  0  0  0  0  0  0  0  0  0  0
   37.4530   28.5470   43.0610 H   0  0  0  0  0  0  0  0  0  0  0  0
   35.9520   27.7800   43.5710 H   0  0  0  0  0  0  0  0  0  0  0  0
   39.5200   28.1600   43.3050 Cl  0  0  0  0  0  0  0  0  0  0  0  0
   38.7090   26.6610   42.8160 C   0  0  0  0  0  0  0  0  0  0  0  0
   37.3420   26.5130   42.5410 C   0  0  0  0  0  0  0  0  0  0  0  0
   36.9500   25.2470   42.1790 C   0  0  0  0  0  0  0  0  0  0  0  0
   35.8640   25.2480   41.9950 H   0  0  0  0  0  0  0  0  0  0  0  0
   37.8020   24.1740   42.0810 C   0  0  0  0  0  0  0  0  0  0  0  0
   37.3360   23.2540   41.7890 H   0  0  0  0  0  0  0  0  0  0  0  0
   39.1500   24.3550   42.3600 C   0  0  0  0  0  3  0  0  0  0  0  0
   39.6110   25.5980   42.7290 C   0  0  0  0  0  3  0  0  0  0  0  0
  1  9  1  0  0  0  0
  1  5  1  0  0  0  0
  2  3  1  0  0  0  0
  2  1  2  0  0  0  0
  3  4  1  0  0  0  0
  4  5  2  0  0  0  0
  4 18  1  0  0  0  0
  6  2  1  0  0  0  0
  7 13  1  0  0  0  0
  8 15  1  0  0  0  0
  8  7  2  0  0  0  0
  9  8  1  0  0  0  0
 10  9  2  0  0  0  0
 10 11  1  0  0  0  0
 11 12  2  0  0  0  0
 12  7  1  0  0  0  0
 14 11  1  0  0  0  0
 15 16  1  0  0  0  0
 17 15  1  0  0  0  0
 18 19  1  0  0  0  0
 18 21  1  0  0  0  0
 20 18  1  0  0  0  0
 21 22  1  0  0  0  0
 21 23  1  0  0  0  0
 25 24  1  0  0  0  0
 26 21  1  0  0  0  0
 26 25  2  0  0  0  0
 27 26  1  0  0  0  0
 28 27  1  0  0  0  0
 29 27  2  0  0  0  0
 29 31  1  0  0  0  0
 30 29  1  0  0  0  0
 31 32  2  0  0  0  0
 32 25  1  0  0  0  0
M  END
>  <minimizedAffinity>
-5.72762966

$$$$

 OpenBabel03242522153D

 32 34  0  0  0  0  0  0  0  0999 V2000
   32.4860   29.0300   37.0130 C   0  0  0  0  0  0  0  0  0  0  0  0
   32.4980   27.9110   36.2460 C   0  0  0  0  0  0  0  0  0  0  0  0
   33.9920   27.0160   36.8640 S   0  0  0  0  0  0  0  0  0  0  0  0
   34.3260   28.3840   38.0920 C   0  0  0  0  0  0  0  0  0  0  0  0
   33.4630   29.0980   37.8720 N   0  0  0  0  0  0  0  0  0  0  0  0
   31.7460   27.6510   35.4410 H   0  0  0  0  0  0  0  0  0  0  0  0
   29.6620   31.4040   37.7480 C   0  0  0  0  0  0  0  0  0  0  0  0
   30.6160   30.3940   37.9490 C   0  0  0  0  0  0  0  0  0  0  0  0
   31.4590   30.0800   36.8920 C   0  0  0  0  0  0  0  0  0  0  0  0
   31.3000   30.7890   35.7080 N   0  0  0  0  0  0  0  0  0  0  0  0
   30.3670   31.7510   35.5670 C   0  0  0  0  0  0  0  0  0  0  0  0
   29.5480   32.0580   36.5900 N   0  0  0  0  0  0  0  0  0  0  0  0
   28.9830   31.6830   38.5480 H   0  0  0  0  0  0  0  0  0  0  0  0
   30.3900   32.1950   34.5750 H   0  0  0  0  0  0  0  0  0  0  0  0
   30.6410   29.7840   39.2080 N   0  0  0  0  0  0  0  0  0  0  0  0
   31.4570   30.1650   39.7390 H   0  0  0  0  0  0  0  0  0  0  0  0
   29.8240   29.1440   39.2020 H   0  0  0  0  0  0  0  0  0  0  0  0
   35.4940   28.3540   39.0480 C   0  0  0  0  0  0  0  0  0  0  0  0
   35.7050   27.2660   39.2570 H   0  0  0  0  0  0  0  0  0  0  0  0
   36.3980   28.8120   38.5930 H   0  0  0  0  0  0  0  0  0  0  0  0
   35.1400   28.9970   40.3470 C   0  0  0  0  0  0  0  0  0  0  0  0
   35.0720   30.1210   40.2400 H   0  0  0  0  0  0  0  0  0  0  0  0
   34.1330   28.7040   40.6990 H   0  0  0  0  0  0  0  0  0  0  0  0
   36.8200   31.3830   40.6270 Cl  0  0  0  0  0  0  0  0  0  0  0  0
   36.9890   29.8510   41.5040 C   0  0  0  0  0  0  0  0  0  0  0  0
   36.1750   28.7190   41.3520 C   0  0  0  0  0  0  0  0  0  0  0  0
   36.5070   27.6480   42.1450 C   0  0  0  0  0  0  0  0  0  0  0  0
   35.8020   26.8250   41.9490 H   0  0  0  0  0  0  0  0  0  0  0  0
   37.5520   27.6430   43.0370 C   0  0  0  0  0  0  0  0  0  0  0  0
   37.6750   26.7280   43.5820 H   0  0  0  0  0  0  0  0  0  0  0  0
   38.3380   28.7800   43.1620 C   0  0  0  0  0  3  0  0  0  0  0  0
   38.0610   29.8900   42.3970 C   0  0  0  0  0  3  0  0  0  0  0  0
  1  5  1  0  0  0  0
  2  3  1  0  0  0  0
  2  1  2  0  0  0  0
  3  4  1  0  0  0  0
  4 18  1  0  0  0  0
  5  4  2  0  0  0  0
  6  2  1  0  0  0  0
  7  8  1  0  0  0  0
  7 13  1  0  0  0  0
  8 15  1  0  0  0  0
  9  1  1  0  0  0  0
  9  8  2  0  0  0  0
 10  9  1  0  0  0  0
 11 10  2  0  0  0  0
 11 12  1  0  0  0  0
 12  7  2  0  0  0  0
 14 11  1  0  0  0  0
 15 16  1  0  0  0  0
 17 15  1  0  0  0  0
 18 19  1  0  0  0  0
 18 21  1  0  0  0  0
 20 18  1  0  0  0  0
 21 23  1  0  0  0  0
 21 26  1  0  0  0  0
 22 21  1  0  0  0  0
 24 25  1  0  0  0  0
 25 32  1  0  0  0  0
 26 25  2  0  0  0  0
 26 27  1  0  0  0  0
 27 29  2  0  0  0  0
 28 27  1  0  0  0  0
 29 31  1  0  0  0  0
 29 30  1  0  0  0  0
 32 31  2  0  0  0  0
M  END
>  <minimizedAffinity>
-5.63410425

$$$$

 OpenBabel03242522153D

 32 34  0  0  0  0  0  0  0  0999 V2000
   37.8760   31.1360   38.3090 C   0  0  0  0  0  0  0  0  0  0  0  0
   37.6900   30.9700   36.9750 C   0  0  0  0  0  0  0  0  0  0  0  0
   36.5290   29.5340   36.9060 S   0  0  0  0  0  0  0  0  0  0  0  0
   36.5180   29.4300   38.7720 C   0  0  0  0  0  0  0  0  0  0  0  0
   37.2200   30.2880   39.0480 N   0  0  0  0  0  0  0  0  0  0  0  0
   38.1620   31.5950   36.1580 H   0  0  0  0  0  0  0  0  0  0  0  0
   39.1510   34.0630   40.2990 C   0  0  0  0  0  0  0  0  0  0  0  0
   38.2600   33.0940   39.8090 C   0  0  0  0  0  0  0  0  0  0  0  0
   38.7420   32.1830   38.8790 C   0  0  0  0  0  0  0  0  0  0  0  0
   40.0720   32.2940   38.4980 N   0  0  0  0  0  0  0  0  0  0  0  0
   40.8870   33.2440   38.9990 C   0  0  0  0  0  0  0  0  0  0  0  0
   40.4220   34.1290   39.9010 N   0  0  0  0  0  0  0  0  0  0  0  0
   38.8160   34.7950   41.0290 H   0  0  0  0  0  0  0  0  0  0  0  0
   41.8900   33.1770   38.5860 H   0  0  0  0  0  0  0  0  0  0  0  0
   36.9520   33.1250   40.3060 N   0  0  0  0  0  0  0  0  0  0  0  0
   36.8490   32.3510   41.0010 H   0  0  0  0  0  0  0  0  0  0  0  0
   36.5060   33.9210   39.8110 H   0  0  0  0  0  0  0  0  0  0  0  0
   35.7100   28.4020   39.5260 C   0  0  0  0  0  0  0  0  0  0  0  0
   35.3810   28.8970   40.4840 H   0  0  0  0  0  0  0  0  0  0  0  0
   34.8080   28.1000   38.9520 H   0  0  0  0  0  0  0  0  0  0  0  0
   36.5510   27.2260   39.8960 C   0  0  0  0  0  0  0  0  0  0  0  0
   35.9550   26.2670   39.8450 H   0  0  0  0  0  0  0  0  0  0  0  0
   37.3790   27.0620   39.1810 H   0  0  0  0  0  0  0  0  0  0  0  0
   39.3510   26.3600   39.9790 Cl  0  0  0  0  0  0  0  0  0  0  0  0
   38.3780   26.9550   41.3370 C   0  0  0  0  0  0  0  0  0  0  0  0
   37.0370   27.3620   41.2760 C   0  0  0  0  0  0  0  0  0  0  0  0
   36.4980   27.7840   42.4660 C   0  0  0  0  0  0  0  0  0  0  0  0
   35.4510   28.0830   42.3000 H   0  0  0  0  0  0  0  0  0  0  0  0
   37.1860   27.8220   43.6550 C   0  0  0  0  0  0  0  0  0  0  0  0
   36.6210   28.1800   44.4920 H   0  0  0  0  0  0  0  0  0  0  0  0
   38.5120   27.4120   43.6800 C   0  0  0  0  0  3  0  0  0  0  0  0
   39.1160   26.9770   42.5220 C   0  0  0  0  0  3  0  0  0  0  0  0
  1  9  1  0  0  0  0
  1  5  1  0  0  0  0
  2  1  2  0  0  0  0
  3  2  1  0  0  0  0
  3  4  1  0  0  0  0
  4  5  2  0  0  0  0
  4 18  1  0  0  0  0
  6  2  1  0  0  0  0
  7 13  1  0  0  0  0
  8  7  2  0  0  0  0
  8 15  1  0  0  0  0
  9  8  1  0  0  0  0
 10  9  2  0  0  0  0
 10 11  1  0  0  0  0
 11 12  2  0  0  0  0
 12  7  1  0  0  0  0
 14 11  1  0  0  0  0
 15 16  1  0  0  0  0
 17 15  1  0  0  0  0
 18 21  1  0  0  0  0
 18 19  1  0  0  0  0
 20 18  1  0  0  0  0
 21 26  1  0  0  0  0
 22 21  1  0  0  0  0
 23 21  1  0  0  0  0
 24 25  1  0  0  0  0
 25 32  1  0  0  0  0
 26 25  2  0  0  0  0
 26 27  1  0  0  0  0
 27 29  2  0  0  0  0
 28 27  1  0  0  0  0
 29 31  1  0  0  0  0
 29 30  1  0  0  0  0
 32 31  2  0  0  0  0
M  END
>  <minimizedAffinity>
-5.54692888

$$$$

 OpenBabel03242522153D

 32 34  0  0  0  0  0  0  0  0999 V2000
   37.1380   30.7060   39.4470 C   0  0  0  0  0  0  0  0  0  0  0  0
   37.3390   32.0450   39.3610 C   0  0  0  0  0  0  0  0  0  0  0  0
   38.5270   32.3640   40.7390 S   0  0  0  0  0  0  0  0  0  0  0  0
   38.5230   30.5490   41.1870 C   0  0  0  0  0  0  0  0  0  0  0  0
   37.8020   30.1280   40.4070 N   0  0  0  0  0  0  0  0  0  0  0  0
   36.8630   32.7380   38.6030 H   0  0  0  0  0  0  0  0  0  0  0  0
   34.3080   28.6440   38.0710 C   0  0  0  0  0  0  0  0  0  0  0  0
   35.1000   29.3350   39.0030 C   0  0  0  0  0  0  0  0  0  0  0  0
   36.2470   29.9630   38.5380 C   0  0  0  0  0  0  0  0  0  0  0  0
   36.5320   29.8650   37.1830 N   0  0  0  0  0  0  0  0  0  0  0  0
   35.7380   29.1880   36.3290 C   0  0  0  0  0  0  0  0  0  0  0  0
   34.6250   28.5780   36.7760 N   0  0  0  0  0  0  0  0  0  0  0  0
   33.4020   28.1390   38.3900 H   0  0  0  0  0  0  0  0  0  0  0  0
   36.1190   29.2190   35.3110 H   0  0  0  0  0  0  0  0  0  0  0  0
   34.6610   29.3360   40.3310 N   0  0  0  0  0  0  0  0  0  0  0  0
   34.2390   30.2700   40.5350 H   0  0  0  0  0  0  0  0  0  0  0  0
   34.9030   28.3900   40.6850 H   0  0  0  0  0  0  0  0  0  0  0  0
   39.3430   29.9890   42.3240 C   0  0  0  0  0  0  0  0  0  0  0  0
   40.1770   29.3950   41.8510 H   0  0  0  0  0  0  0  0  0  0  0  0
   39.7860   30.8010   42.9380 H   0  0  0  0  0  0  0  0  0  0  0  0
   38.5360   29.0450   43.1510 C   0  0  0  0  0  0  0  0  0  0  0  0
   38.4480   29.4110   44.2170 H   0  0  0  0  0  0  0  0  0  0  0  0
   37.4870   28.9780   42.8060 H   0  0  0  0  0  0  0  0  0  0  0  0
   36.7250   27.0820   41.9410 Cl  0  0  0  0  0  0  0  0  0  0  0  0
   38.3340   26.7720   42.6200 C   0  0  0  0  0  0  0  0  0  0  0  0
   39.1840   27.7260   43.1980 C   0  0  0  0  0  0  0  0  0  0  0  0
   40.3850   27.2420   43.6560 C   0  0  0  0  0  0  0  0  0  0  0  0
   40.9690   28.0740   44.0800 H   0  0  0  0  0  0  0  0  0  0  0  0
   40.7670   25.9250   43.5730 C   0  0  0  0  0  0  0  0  0  0  0  0
   41.7370   25.7110   43.9750 H   0  0  0  0  0  0  0  0  0  0  0  0
   39.9010   25.0060   42.9950 C   0  0  0  0  0  3  0  0  0  0  0  0
   38.6810   25.4240   42.5150 C   0  0  0  0  0  3  0  0  0  0  0  0
  1  5  1  0  0  0  0
  2  1  2  0  0  0  0
  2  3  1  0  0  0  0
  3  4  1  0  0  0  0
  4 18  1  0  0  0  0
  5  4  2  0  0  0  0
  6  2  1  0  0  0  0
  7 13  1  0  0  0  0
  7  8  1  0  0  0  0
  8 15  1  0  0  0  0
  9  8  2  0  0  0  0
  9  1  1  0  0  0  0
 10  9  1  0  0  0  0
 11 12  1  0  0  0  0
 11 10  2  0  0  0  0
 12  7  2  0  0  0  0
 14 11  1  0  0  0  0
 15 16  1  0  0  0  0
 15 17  1  0  0  0  0
 18 20  1  0  0  0  0
 18 21  1  0  0  0  0
 19 18  1  0  0  0  0
 21 26  1  0  0  0  0
 21 22  1  0  0  0  0
 23 21  1  0  0  0  0
 24 25  1  0  0  0  0
 25 26  1  0  0  0  0
 26 27  2  0  0  0  0
 27 28  1  0  0  0  0
 29 27  1  0  0  0  0
 29 30  1  0  0  0  0
 31 29  2  0  0  0  0
 32 25  2  0  0  0  0
 32 31  1  0  0  0  0
M  END
>  <minimizedAffinity>
-5.34047985

$$$$

 OpenBabel03242522153D

 32 34  0  0  0  0  0  0  0  0999 V2000
   36.7820   28.5460   38.9640 C   0  0  0  0  0  0  0  0  0  0  0  0
   36.0660   28.2810   37.8420 C   0  0  0  0  0  0  0  0  0  0  0  0
   35.7620   26.4640   37.9790 S   0  0  0  0  0  0  0  0  0  0  0  0
   36.7020   26.4100   39.5940 C   0  0  0  0  0  0  0  0  0  0  0  0
   37.0030   27.5050   39.7140 N   0  0  0  0  0  0  0  0  0  0  0  0
   35.7620   29.0370   37.0560 H   0  0  0  0  0  0  0  0  0  0  0  0
   37.1700   31.9360   40.5490 C   0  0  0  0  0  0  0  0  0  0  0  0
   36.6450   30.6610   40.2830 C   0  0  0  0  0  0  0  0  0  0  0  0
   37.2690   29.8930   39.3100 C   0  0  0  0  0  0  0  0  0  0  0  0
   38.3720   30.4400   38.6670 N   0  0  0  0  0  0  0  0  0  0  0  0
   38.8370   31.6710   38.9610 C   0  0  0  0  0  0  0  0  0  0  0  0
   38.2330   32.4180   39.9030 N   0  0  0  0  0  0  0  0  0  0  0  0
   36.7130   32.5700   41.3030 H   0  0  0  0  0  0  0  0  0  0  0  0
   39.7050   31.9300   38.3580 H   0  0  0  0  0  0  0  0  0  0  0  0
   35.5280   30.2660   41.0290 N   0  0  0  0  0  0  0  0  0  0  0  0
   35.8470   29.5890   41.7590 H   0  0  0  0  0  0  0  0  0  0  0  0
   34.7360   30.7850   40.6040 H   0  0  0  0  0  0  0  0  0  0  0  0
   36.8920   25.1380   40.3840 C   0  0  0  0  0  0  0  0  0  0  0  0
   36.0130   24.4760   40.1360 H   0  0  0  0  0  0  0  0  0  0  0  0
   37.8270   24.6160   40.0860 H   0  0  0  0  0  0  0  0  0  0  0  0
   36.8510   25.4070   41.8510 C   0  0  0  0  0  0  0  0  0  0  0  0
   36.3850   26.4140   42.0670 H   0  0  0  0  0  0  0  0  0  0  0  0
   36.1990   24.6930   42.3890 H   0  0  0  0  0  0  0  0  0  0  0  0
   37.2630   27.9860   43.1820 Cl  0  0  0  0  0  0  0  0  0  0  0  0
   38.4290   26.6570   43.0480 C   0  0  0  0  0  0  0  0  0  0  0  0
   38.2130   25.4310   42.4030 C   0  0  0  0  0  0  0  0  0  0  0  0
   39.2720   24.5570   42.4320 C   0  0  0  0  0  0  0  0  0  0  0  0
   38.9890   23.6330   41.9050 H   0  0  0  0  0  0  0  0  0  0  0  0
   40.4760   24.8250   43.0390 C   0  0  0  0  0  0  0  0  0  0  0  0
   41.1980   24.0360   42.9730 H   0  0  0  0  0  0  0  0  0  0  0  0
   40.6570   26.0490   43.6680 C   0  0  0  0  0  3  0  0  0  0  0  0
   39.6350   26.9720   43.6770 C   0  0  0  0  0  3  0  0  0  0  0  0
  1  9  1  0  0  0  0
  1  5  1  0  0  0  0
  2  3  1  0  0  0  0
  2  1  2  0  0  0  0
  3  4  1  0  0  0  0
  4  5  2  0  0  0  0
  4 18  1  0  0  0  0
  6  2  1  0  0  0  0
  7 13  1  0  0  0  0
  8  7  1  0  0  0  0
  8 15  1  0  0  0  0
  9  8  2  0  0  0  0
 10 11  2  0  0  0  0
 10  9  1  0  0  0  0
 11 12  1  0  0  0  0
 12  7  2  0  0  0  0
 14 11  1  0  0  0  0
 15 16  1  0  0  0  0
 17 15  1  0  0  0  0
 18 21  1  0  0  0  0
 19 18  1  0  0  0  0
 20 18  1  0  0  0  0
 21 22  1  0  0  0  0
 21 23  1  0  0  0  0
 21 26  1  0  0  0  0
 25 24  1  0  0  0  0
 25 32  1  0  0  0  0
 26 27  1  0  0  0  0
 26 25  2  0  0  0  0
 27 29  2  0  0  0  0
 28 27  1  0  0  0  0
 29 31  1  0  0  0  0
 30 29  1  0  0  0  0
 31 32  2  0  0  0  0
M  END
>  <minimizedAffinity>
-5.32550859

$$$$

 OpenBabel03242522153D

 32 34  0  0  0  0  0  0  0  0999 V2000
   37.5800   30.6700   40.8760 C   0  0  0  0  0  0  0  0  0  0  0  0
   36.5400   30.3320   40.0730 C   0  0  0  0  0  0  0  0  0  0  0  0
   35.8330   28.8550   40.9290 S   0  0  0  0  0  0  0  0  0  0  0  0
   37.1340   28.9840   42.2650 C   0  0  0  0  0  0  0  0  0  0  0  0
   37.7260   29.8960   41.9130 N   0  0  0  0  0  0  0  0  0  0  0  0
   36.2350   30.8670   39.1230 H   0  0  0  0  0  0  0  0  0  0  0  0
   40.6230   32.7950   40.2640 C   0  0  0  0  0  0  0  0  0  0  0  0
   39.8460   31.6540   40.5200 C   0  0  0  0  0  0  0  0  0  0  0  0
   38.4700   31.8130   40.6050 C   0  0  0  0  0  0  0  0  0  0  0  0
   37.9570   33.0910   40.4300 N   0  0  0  0  0  0  0  0  0  0  0  0
   38.7470   34.1550   40.1850 C   0  0  0  0  0  0  0  0  0  0  0  0
   40.0820   34.0040   40.1030 N   0  0  0  0  0  0  0  0  0  0  0  0
   41.7030   32.7170   40.1890 H   0  0  0  0  0  0  0  0  0  0  0  0
   38.1710   35.0710   40.0770 H   0  0  0  0  0  0  0  0  0  0  0  0
   40.5290   30.4410   40.6670 N   0  0  0  0  0  0  0  0  0  0  0  0
   40.4050   29.8890   39.7880 H   0  0  0  0  0  0  0  0  0  0  0  0
   40.9420   30.4900   41.6180 H   0  0  0  0  0  0  0  0  0  0  0  0
   37.2040   28.0280   43.4310 C   0  0  0  0  0  0  0  0  0  0  0  0
   37.3090   28.6630   44.3560 H   0  0  0  0  0  0  0  0  0  0  0  0
   36.2730   27.4280   43.5140 H   0  0  0  0  0  0  0  0  0  0  0  0
   38.4160   27.1620   43.3420 C   0  0  0  0  0  0  0  0  0  0  0  0
   39.2800   27.7180   42.8700 H   0  0  0  0  0  0  0  0  0  0  0  0
   38.7990   26.8750   44.3390 H   0  0  0  0  0  0  0  0  0  0  0  0
   40.8590   26.4960   41.8660 Cl  0  0  0  0  0  0  0  0  0  0  0  0
   39.3020   25.6510   41.7870 C   0  0  0  0  0  0  0  0  0  0  0  0
   38.1430   25.9890   42.5000 C   0  0  0  0  0  0  0  0  0  0  0  0
   37.0560   25.1810   42.2700 C   0  0  0  0  0  0  0  0  0  0  0  0
   36.2120   25.5330   42.8830 H   0  0  0  0  0  0  0  0  0  0  0  0
   37.0600   24.1090   41.4110 C   0  0  0  0  0  0  0  0  0  0  0  0
   36.1310   23.5800   41.3460 H   0  0  0  0  0  0  0  0  0  0  0  0
   38.2250   23.8020   40.7200 C   0  0  0  0  0  3  0  0  0  0  0  0
   39.3520   24.5710   40.9040 C   0  0  0  0  0  3  0  0  0  0  0  0
  1  5  1  0  0  0  0
  2  1  2  0  0  0  0
  2  3  1  0  0  0  0
  3  4  1  0  0  0  0
  4 18  1  0  0  0  0
  5  4  2  0  0  0  0
  6  2  1  0  0  0  0
  7  8  1  0  0  0  0
  8  9  2  0  0  0  0
  8 15  1  0  0  0  0
  9  1  1  0  0  0  0
 10  9  1  0  0  0  0
 11 10  2  0  0  0  0
 12 11  1  0  0  0  0
 12  7  2  0  0  0  0
 13  7  1  0  0  0  0
 14 11  1  0  0  0  0
 15 17  1  0  0  0  0
 16 15  1  0  0  0  0
 18 20  1  0  0  0  0
 18 19  1  0  0  0  0
 21 18  1  0  0  0  0
 21 23  1  0  0  0  0
 22 21  1  0  0  0  0
 25 24  1  0  0  0  0
 25 26  1  0  0  0  0
 26 21  1  0  0  0  0
 27 26  2  0  0  0  0
 27 28  1  0  0  0  0
 29 27  1  0  0  0  0
 30 29  1  0  0  0  0
 31 32  1  0  0  0  0
 31 29  2  0  0  0  0
 32 25  2  0  0  0  0
M  END
>  <minimizedAffinity>
-5.29828739

$$$$

 OpenBabel03242522153D

 32 34  0  0  0  0  0  0  0  0999 V2000
   38.4310   31.5000   39.8810 C   0  0  0  0  0  0  0  0  0  0  0  0
   37.1550   31.9590   39.8940 C   0  0  0  0  0  0  0  0  0  0  0  0
   36.2980   30.7370   40.9830 S   0  0  0  0  0  0  0  0  0  0  0  0
   37.8980   29.8000   41.2210 C   0  0  0  0  0  0  0  0  0  0  0  0
   38.6180   30.4240   40.5910 N   0  0  0  0  0  0  0  0  0  0  0  0
   36.7750   32.8750   39.3490 H   0  0  0  0  0  0  0  0  0  0  0  0
   41.0510   32.3030   37.3040 C   0  0  0  0  0  0  0  0  0  0  0  0
   40.0120   31.6170   37.9530 C   0  0  0  0  0  0  0  0  0  0  0  0
   39.5170   32.1560   39.1330 C   0  0  0  0  0  0  0  0  0  0  0  0
   40.0860   33.3380   39.5890 N   0  0  0  0  0  0  0  0  0  0  0  0
   41.0830   33.9590   38.9270 C   0  0  0  0  0  0  0  0  0  0  0  0
   41.5640   33.4380   37.7830 N   0  0  0  0  0  0  0  0  0  0  0  0
   41.4670   31.9180   36.3780 H   0  0  0  0  0  0  0  0  0  0  0  0
   41.4000   34.8670   39.4320 H   0  0  0  0  0  0  0  0  0  0  0  0
   39.5550   30.4400   37.3500 N   0  0  0  0  0  0  0  0  0  0  0  0
   38.6440   30.6460   36.8810 H   0  0  0  0  0  0  0  0  0  0  0  0
   40.2850   29.7360   37.5710 H   0  0  0  0  0  0  0  0  0  0  0  0
   37.9960   28.5600   42.0760 C   0  0  0  0  0  0  0  0  0  0  0  0
   38.8130   27.9270   41.6240 H   0  0  0  0  0  0  0  0  0  0  0  0
   38.2770   28.8130   43.1200 H   0  0  0  0  0  0  0  0  0  0  0  0
   36.7330   27.7670   42.0180 C   0  0  0  0  0  0  0  0  0  0  0  0
   36.2240   27.7400   43.0270 H   0  0  0  0  0  0  0  0  0  0  0  0
   35.9800   28.2290   41.3530 H   0  0  0  0  0  0  0  0  0  0  0  0
   36.0630   27.4240   39.1850 Cl  0  0  0  0  0  0  0  0  0  0  0  0
   36.7110   26.1920   40.2840 C   0  0  0  0  0  0  0  0  0  0  0  0
   37.0220   26.3770   41.6390 C   0  0  0  0  0  0  0  0  0  0  0  0
   37.5110   25.2680   42.2860 C   0  0  0  0  0  0  0  0  0  0  0  0
   37.7250   25.5290   43.3340 H   0  0  0  0  0  0  0  0  0  0  0  0
   37.6980   24.0460   41.6860 C   0  0  0  0  0  0  0  0  0  0  0  0
   38.0900   23.2840   42.3300 H   0  0  0  0  0  0  0  0  0  0  0  0
   37.3800   23.8980   40.3430 C   0  0  0  0  0  3  0  0  0  0  0  0
   36.8850   24.9690   39.6350 C   0  0  0  0  0  3  0  0  0  0  0  0
  1  2  2  0  0  0  0
  1  5  1  0  0  0  0
  2  3  1  0  0  0  0
  3  4  1  0  0  0  0
  4 18  1  0  0  0  0
  5  4  2  0  0  0  0
  6  2  1  0  0  0  0
  7 12  2  0  0  0  0
  7  8  1  0  0  0  0
  8  9  2  0  0  0  0
  9 10  1  0  0  0  0
  9  1  1  0  0  0  0
 11 14  1  0  0  0  0
 11 10  2  0  0  0  0
 12 11  1  0  0  0  0
 13  7  1  0  0  0  0
 15 17  1  0  0  0  0
 15  8  1  0  0  0  0
 16 15  1  0  0  0  0
 18 20  1  0  0  0  0
 19 18  1  0  0  0  0
 21 18  1  0  0  0  0
 21 22  1  0  0  0  0
 23 21  1  0  0  0  0
 24 25  1  0  0  0  0
 25 26  1  0  0  0  0
 26 21  1  0  0  0  0
 26 27  2  0  0  0  0
 27 28  1  0  0  0  0
 29 27  1  0  0  0  0
 29 30  1  0  0  0  0
 31 29  2  0  0  0  0
 32 25  2  0  0  0  0
 32 31  1  0  0  0  0
M  END
>  <minimizedAffinity>
-5.27735806

$$$$

 OpenBabel03242522153D

 32 34  0  0  0  0  0  0  0  0999 V2000
   38.1760   30.9050   38.4210 C   0  0  0  0  0  0  0  0  0  0  0  0
   37.3500   30.9200   37.3450 C   0  0  0  0  0  0  0  0  0  0  0  0
   36.5060   29.2810   37.4620 S   0  0  0  0  0  0  0  0  0  0  0  0
   37.4730   28.8720   39.0080 C   0  0  0  0  0  0  0  0  0  0  0  0
   38.1060   29.8150   39.1320 N   0  0  0  0  0  0  0  0  0  0  0  0
   37.2520   31.7650   36.5980 H   0  0  0  0  0  0  0  0  0  0  0  0
   41.0670   33.3110   38.4700 C   0  0  0  0  0  0  0  0  0  0  0  0
   40.2640   32.2280   38.0770 C   0  0  0  0  0  0  0  0  0  0  0  0
   39.0770   32.0200   38.7640 C   0  0  0  0  0  0  0  0  0  0  0  0
   38.7650   32.8990   39.7930 N   0  0  0  0  0  0  0  0  0  0  0  0
   39.5710   33.9250   40.1300 C   0  0  0  0  0  0  0  0  0  0  0  0
   40.7240   34.1290   39.4660 N   0  0  0  0  0  0  0  0  0  0  0  0
   42.0050   33.5110   37.9590 H   0  0  0  0  0  0  0  0  0  0  0  0
   39.1650   34.5040   40.9560 H   0  0  0  0  0  0  0  0  0  0  0  0
   40.7300   31.4440   37.0150 N   0  0  0  0  0  0  0  0  0  0  0  0
   40.1850   31.6960   36.1600 H   0  0  0  0  0  0  0  0  0  0  0  0
   41.4790   30.8600   37.4340 H   0  0  0  0  0  0  0  0  0  0  0  0
   37.3030   27.5720   39.7550 C   0  0  0  0  0  0  0  0  0  0  0  0
   36.4160   27.0530   39.2920 H   0  0  0  0  0  0  0  0  0  0  0  0
   38.1970   26.9230   39.6390 H   0  0  0  0  0  0  0  0  0  0  0  0
   36.9790   27.8170   41.1910 C   0  0  0  0  0  0  0  0  0  0  0  0
   36.6380   28.8830   41.3550 H   0  0  0  0  0  0  0  0  0  0  0  0
   36.1210   27.2090   41.5360 H   0  0  0  0  0  0  0  0  0  0  0  0
   36.9510   25.0530   42.1680 Cl  0  0  0  0  0  0  0  0  0  0  0  0
   38.1780   26.2900   42.5010 C   0  0  0  0  0  0  0  0  0  0  0  0
   38.1700   27.6090   42.0260 C   0  0  0  0  0  0  0  0  0  0  0  0
   39.2340   28.3820   42.4220 C   0  0  0  0  0  0  0  0  0  0  0  0
   39.1280   29.3880   41.9880 H   0  0  0  0  0  0  0  0  0  0  0  0
   40.2550   27.9350   43.2260 C   0  0  0  0  0  0  0  0  0  0  0  0
   41.0110   28.6630   43.4420 H   0  0  0  0  0  0  0  0  0  0  0  0
   40.2310   26.6230   43.6800 C   0  0  0  0  0  3  0  0  0  0  0  0
   39.1930   25.7930   43.3200 C   0  0  0  0  0  3  0  0  0  0  0  0
  1  9  1  0  0  0  0
  1  5  1  0  0  0  0
  2  3  1  0  0  0  0
  2  1  2  0  0  0  0
  3  4  1  0  0  0  0
  4  5  2  0  0  0  0
  4 18  1  0  0  0  0
  6  2  1  0  0  0  0
  7 12  1  0  0  0  0
  8  7  2  0  0  0  0
  8  9  1  0  0  0  0
  9 10  2  0  0  0  0
 10 11  1  0  0  0  0
 11 14  1  0  0  0  0
 12 11  2  0  0  0  0
 13  7  1  0  0  0  0
 15 17  1  0  0  0  0
 15  8  1  0  0  0  0
 16 15  1  0  0  0  0
 18 21  1  0  0  0  0
 19 18  1  0  0  0  0
 20 18  1  0  0  0  0
 21 22  1  0  0  0  0
 21 23  1  0  0  0  0
 21 26  1  0  0  0  0
 24 25  1  0  0  0  0
 25 32  1  0  0  0  0
 26 27  1  0  0  0  0
 26 25  2  0  0  0  0
 27 29  2  0  0  0  0
 28 27  1  0  0  0  0
 29 30  1  0  0  0  0
 29 31  1  0  0  0  0
 32 31  2  0  0  0  0
M  END
>  <minimizedAffinity>
-5.07961988

$$$$
