
     RDKit          3D

 29 31  0  0  0  0  0  0  0  0999 V2000
   44.6252   35.4695   45.1310 C   0  0  0  0  0  0  0  0  0  0  0  0
   45.1017   35.7177   43.7992 C   0  0  0  0  0  0  0  0  0  0  0  0
   46.0421   34.8250   43.3570 C   0  0  0  0  0  0  0  0  0  0  0  0
   46.4890   33.7772   44.1379 N   0  0  0  0  0  0  0  0  0  0  0  0
   46.0094   33.5885   45.3815 C   0  0  0  0  0  0  0  0  0  0  0  0
   45.0796   34.4297   45.8810 N   0  0  0  0  0  0  0  0  0  0  0  0
   46.5383   34.9751   41.9361 C   0  0  1  0  0  0  0  0  0  0  0  0
   48.0618   35.2765   41.9304 C   0  0  0  0  0  0  0  0  0  0  0  0
   47.3933   33.9721   41.4106 C   0  0  2  0  0  0  0  0  0  0  0  0
   44.6426   36.8096   43.0232 N   0  0  0  0  0  0  0  0  0  0  0  0
   43.8798   36.1749   45.4833 H   0  0  0  0  0  0  0  0  0  0  0  0
   46.3358   32.7803   46.0184 H   0  0  0  0  0  0  0  0  0  0  0  0
   45.9543   35.7131   41.3526 H   0  0  0  0  0  0  0  0  0  0  0  0
   48.4089   35.9839   41.1749 H   0  0  0  0  0  0  0  0  0  0  0  0
   48.6227   35.2453   42.8560 H   0  0  0  0  0  0  0  0  0  0  0  0
   47.6430   33.1014   42.0666 H   0  0  0  0  0  0  0  0  0  0  0  0
   44.2394   36.5198   42.1187 H   0  0  0  0  0  0  0  0  0  0  0  0
   44.6348   37.8407   43.1913 H   0  0  0  0  0  0  0  0  0  0  0  0
   49.7922   32.2799   40.5693 Cl  0  0  0  0  0  0  0  0  0  0  0  0
   48.5763   32.8982   39.4681 C   0  0  0  0  0  0  0  0  0  0  0  0
   47.5501   33.6455   39.9764 C   0  0  0  0  0  0  0  0  0  0  0  0
   46.5634   34.1547   39.1301 C   0  0  0  0  0  0  0  0  0  0  0  0
   45.7081   34.7549   39.4093 H   0  0  0  0  0  0  0  0  0  0  0  0
   46.6508   33.8862   37.7794 C   0  0  0  0  0  0  0  0  0  0  0  0
   45.9288   34.2435   37.0616 H   0  0  0  0  0  0  0  0  0  0  0  0
   47.7073   33.1217   37.2862 C   0  0  0  0  0  0  0  0  0  0  0  0
   48.6966   32.6091   38.1220 C   0  0  0  0  0  0  0  0  0  0  0  0
   47.7783   32.9087   36.2213 H   0  0  0  0  0  0  0  0  0  0  0  0
   49.5102   32.0172   37.7221 H   0  0  0  0  0  0  0  0  0  0  0  0
  1  6  2  0
  2  1  1  0
  3  2  2  0
  3  4  1  0
  4  5  2  0
  5  6  1  0
  7  3  1  0
  8  7  1  0
  9  8  1  0
  9  7  1  0
 10  2  1  0
  1 11  1  0
  5 12  1  0
  7 13  1  6
  8 14  1  0
  8 15  1  0
  9 16  1  1
 10 17  1  0
 10 18  1  0
 19 20  1  0
 20 21  2  0
 21 22  1  0
 22 23  1  0
 22 24  2  0
 24 25  1  0
 24 26  1  0
 26 27  2  0
 27 20  1  0
 26 28  1  0
 27 29  1  0
  9 21  1  0
M  ISO  8  11  14  12  14  13  13  14  13  15  13  16  13  23  15  25  16
M  END
>  <DihAtoms>  (1) 
7,8,20,19

>  <DihDeg>  (1) 
90.00649005785014

$$$$
