
 OpenBabel03242519083D

 43 46  0  0  1  0  0  0  0  0999 V2000
   36.3620   29.3580   40.5190 N   0  0  0  0  0  0  0  0  0  0  0  0
   35.3870   29.7080   40.3830 H   0  0  0  0  0  0  0  0  0  0  0  0
   37.9090   32.4570   39.6820 N   0  0  0  0  0  0  0  0  0  0  0  0
   37.2460   31.6410   40.6700 C   0  0  0  0  0  0  0  0  0  0  0  0
   37.2900   30.3140   39.9570 C   0  0  2  0  0  0  0  0  0  0  0  0
   36.7490   30.7100   38.6030 C   0  0  0  0  0  0  0  0  0  0  0  0
   37.3240   32.0940   38.4190 C   0  0  0  0  0  0  0  0  0  0  0  0
   36.1910   31.9050   40.8060 H   0  0  0  0  0  0  0  0  0  0  0  0
   37.7910   31.6290   41.6360 H   0  0  0  0  0  0  0  0  0  0  0  0
   38.3220   29.9640   39.8760 H   0  0  0  0  0  0  0  0  0  0  0  0
   37.1250   30.0470   37.8180 H   0  0  0  0  0  0  0  0  0  0  0  0
   35.6550   30.8110   38.6230 H   0  0  0  0  0  0  0  0  0  0  0  0
   38.1100   32.1190   37.6240 H   0  0  0  0  0  0  0  0  0  0  0  0
   36.5440   32.8150   38.0730 H   0  0  0  0  0  0  0  0  0  0  0  0
   39.8830   35.4740   40.6610 C   0  0  0  0  0  0  0  0  0  0  0  0
   38.8190   34.5750   40.5870 C   0  0  0  0  0  0  0  0  0  0  0  0
   38.9170   33.4220   39.8230 C   0  0  0  0  0  0  0  0  0  0  0  0
   40.0980   33.2190   39.1560 N   0  0  0  0  0  0  0  0  0  0  0  0
   41.1260   34.0940   39.2310 C   0  0  0  0  0  0  0  0  0  0  0  0
   41.0170   35.2120   39.9800 N   0  0  0  0  0  0  0  0  0  0  0  0
   39.7600   36.3470   41.2630 H   0  0  0  0  0  0  0  0  0  0  0  0
   37.9030   34.7430   41.1120 H   0  0  0  0  0  0  0  0  0  0  0  0
   42.0540   33.9320   38.7050 H   0  0  0  0  0  0  0  0  0  0  0  0
   36.7510   26.8970   40.4970 C   0  0  0  0  0  0  0  0  0  0  0  0
   36.5740   28.1210   41.1670 C   0  0  0  0  0  0  0  0  0  0  0  0
   36.6220   28.0120   42.5290 C   0  0  0  0  0  0  0  0  0  0  0  0
   36.8220   26.8510   43.2350 C   0  0  0  0  0  0  0  0  0  0  0  0
   36.9920   25.6760   42.5450 C   0  0  0  0  0  0  0  0  0  0  0  0
   36.9520   25.7260   41.1690 C   0  0  0  0  0  0  0  0  0  0  0  0
   36.4900   28.9320   43.0930 H   0  0  0  0  0  0  0  0  0  0  0  0
   36.8480   26.8460   44.3140 H   0  0  0  0  0  0  0  0  0  0  0  0
   37.1510   24.7530   43.0870 H   0  0  0  0  0  0  0  0  0  0  0  0
   39.8400   25.0970   40.7340 Cl  0  0  0  0  0  0  0  0  0  0  0  0
   38.4750   24.1180   40.2470 C   0  0  0  0  0  0  0  0  0  0  0  0
   37.1370   24.4570   40.4740 C   0  0  0  0  0  0  0  0  0  0  0  0
   36.1510   23.5940   40.0380 C   0  0  0  0  0  0  0  0  0  0  0  0
   35.1610   23.9540   40.2650 H   0  0  0  0  0  0  0  0  0  0  0  0
   36.4760   22.4300   39.3950 C   0  0  0  0  0  0  0  0  0  0  0  0
   35.6220   21.8260   39.0940 H   0  0  0  0  0  0  0  0  0  0  0  0
   37.7930   22.1020   39.1740 C   0  0  0  0  0  3  0  0  0  0  0  0
   38.8020   22.9510   39.6020 C   0  0  0  0  0  3  0  0  0  0  0  0
   36.7020   26.9470   37.8880 N   0  0  0  0  0  0  0  0  0  0  0  0
   36.7130   26.9230   39.0500 C   0  0  0  0  0  0  0  0  0  0  0  0
  1 25  1  0  0  0  0
  2  1  1  0  0  0  0
  3 17  1  0  0  0  0
  3  4  1  0  0  0  0
  4  8  1  0  0  0  0
  4  9  1  0  0  0  0
  5 10  1  6  0  0  0
  5  1  1  0  0  0  0
  5  4  1  0  0  0  0
  6 12  1  0  0  0  0
  6  5  1  0  0  0  0
  7  6  1  0  0  0  0
  7  3  1  0  0  0  0
 11  6  1  0  0  0  0
 13  7  1  0  0  0  0
 14  7  1  0  0  0  0
 15 21  1  0  0  0  0
 16 15  1  0  0  0  0
 16 22  1  0  0  0  0
 17 16  2  0  0  0  0
 18 19  2  0  0  0  0
 18 17  1  0  0  0  0
 19 20  1  0  0  0  0
 20 15  2  0  0  0  0
 23 19  1  0  0  0  0
 24 25  2  0  0  0  0
 24 29  1  0  0  0  0
 25 26  1  0  0  0  0
 26 30  1  0  0  0  0
 26 27  2  0  0  0  0
 27 31  1  0  0  0  0
 28 32  1  0  0  0  0
 28 27  1  0  0  0  0
 29 28  2  0  0  0  0
 34 35  1  0  0  0  0
 34 33  1  0  0  0  0
 35 29  1  0  0  0  0
 36 37  1  0  0  0  0
 36 35  2  0  0  0  0
 38 36  1  0  0  0  0
 39 38  1  0  0  0  0
 40 38  2  0  0  0  0
 40 41  1  0  0  0  0
 41 34  2  0  0  0  0
 42 43  3  0  0  0  0
 43 24  1  0  0  0  0
M  END
>  <minimizedAffinity>
-6.18771362

$$$$

 OpenBabel03242519083D

 43 46  0  0  1  0  0  0  0  0999 V2000
   38.3570   28.8880   43.1340 N   0  0  0  0  0  0  0  0  0  0  0  0
   37.5170   29.2040   43.6710 H   0  0  0  0  0  0  0  0  0  0  0  0
   39.6480   31.5130   41.0990 N   0  0  0  0  0  0  0  0  0  0  0  0
   38.5170   30.7160   41.5060 C   0  0  0  0  0  0  0  0  0  0  0  0
   39.1140   30.0480   42.7160 C   0  0  2  0  0  0  0  0  0  0  0  0
   40.4140   29.5390   42.1380 C   0  0  0  0  0  0  0  0  0  0  0  0
   40.7890   30.6390   41.1730 C   0  0  0  0  0  0  0  0  0  0  0  0
   38.2660   29.9280   40.7860 H   0  0  0  0  0  0  0  0  0  0  0  0
   37.6330   31.3400   41.7510 H   0  0  0  0  0  0  0  0  0  0  0  0
   39.3000   30.7850   43.5010 H   0  0  0  0  0  0  0  0  0  0  0  0
   41.1830   29.4490   42.9120 H   0  0  0  0  0  0  0  0  0  0  0  0
   40.2600   28.6250   41.5480 H   0  0  0  0  0  0  0  0  0  0  0  0
   41.6790   31.2190   41.5230 H   0  0  0  0  0  0  0  0  0  0  0  0
   41.0890   30.2230   40.1810 H   0  0  0  0  0  0  0  0  0  0  0  0
   38.8380   35.0600   40.2530 C   0  0  0  0  0  0  0  0  0  0  0  0
   38.6570   33.7410   40.6680 C   0  0  0  0  0  0  0  0  0  0  0  0
   39.7230   32.8550   40.7000 C   0  0  0  0  0  0  0  0  0  0  0  0
   40.9430   33.3420   40.3070 N   0  0  0  0  0  0  0  0  0  0  0  0
   41.1130   34.6210   39.9050 C   0  0  0  0  0  0  0  0  0  0  0  0
   40.0660   35.4730   39.8800 N   0  0  0  0  0  0  0  0  0  0  0  0
   37.9860   35.7040   40.2460 H   0  0  0  0  0  0  0  0  0  0  0  0
   37.7000   33.3730   40.9720 H   0  0  0  0  0  0  0  0  0  0  0  0
   42.0740   35.0000   39.5970 H   0  0  0  0  0  0  0  0  0  0  0  0
   37.9330   26.7420   41.9420 C   0  0  0  0  0  0  0  0  0  0  0  0
   38.5750   27.5080   42.9330 C   0  0  0  0  0  0  0  0  0  0  0  0
   39.4460   26.7890   43.7030 C   0  0  0  0  0  0  0  0  0  0  0  0
   39.7130   25.4470   43.5720 C   0  0  0  0  0  0  0  0  0  0  0  0
   39.0680   24.7330   42.5930 C   0  0  0  0  0  0  0  0  0  0  0  0
   38.1770   25.4070   41.7870 C   0  0  0  0  0  0  0  0  0  0  0  0
   39.9680   27.3360   44.4830 H   0  0  0  0  0  0  0  0  0  0  0  0
   40.4170   24.9490   44.2210 H   0  0  0  0  0  0  0  0  0  0  0  0
   39.2670   23.6770   42.4780 H   0  0  0  0  0  0  0  0  0  0  0  0
   39.7800   25.2620   39.2710 Cl  0  0  0  0  0  0  0  0  0  0  0  0
   38.2260   24.5170   39.5600 C   0  0  0  0  0  0  0  0  0  0  0  0
   37.5120   24.6140   40.7600 C   0  0  0  0  0  0  0  0  0  0  0  0
   36.2910   23.9750   40.8600 C   0  0  0  0  0  0  0  0  0  0  0  0
   35.8320   24.1180   41.8240 H   0  0  0  0  0  0  0  0  0  0  0  0
   35.7890   23.2620   39.8060 C   0  0  0  0  0  0  0  0  0  0  0  0
   34.8210   22.8000   39.9920 H   0  0  0  0  0  0  0  0  0  0  0  0
   36.4940   23.1690   38.6290 C   0  0  0  0  0  3  0  0  0  0  0  0
   37.7210   23.8000   38.5020 C   0  0  0  0  0  3  0  0  0  0  0  0
   36.2440   27.9960   40.3970 N   0  0  0  0  0  0  0  0  0  0  0  0
   36.9920   27.4280   41.0820 C   0  0  0  0  0  0  0  0  0  0  0  0
  1  2  1  0  0  0  0
  3  7  1  0  0  0  0
  3  4  1  0  0  0  0
  4  9  1  0  0  0  0
  4  5  1  0  0  0  0
  5  1  1  0  0  0  0
  5 10  1  1  0  0  0
  6  5  1  0  0  0  0
  6 11  1  0  0  0  0
  7 13  1  0  0  0  0
  7  6  1  0  0  0  0
  8  4  1  0  0  0  0
 12  6  1  0  0  0  0
 14  7  1  0  0  0  0
 15 16  1  0  0  0  0
 16 17  2  0  0  0  0
 16 22  1  0  0  0  0
 17  3  1  0  0  0  0
 18 17  1  0  0  0  0
 19 18  2  0  0  0  0
 20 19  1  0  0  0  0
 20 15  2  0  0  0  0
 21 15  1  0  0  0  0
 23 19  1  0  0  0  0
 24 25  1  0  0  0  0
 25  1  1  0  0  0  0
 25 26  2  0  0  0  0
 26 30  1  0  0  0  0
 27 26  1  0  0  0  0
 27 31  1  0  0  0  0
 28 27  2  0  0  0  0
 29 24  2  0  0  0  0
 29 28  1  0  0  0  0
 32 28  1  0  0  0  0
 33 34  1  0  0  0  0
 34 35  1  0  0  0  0
 35 36  2  0  0  0  0
 35 29  1  0  0  0  0
 36 37  1  0  0  0  0
 38 39  1  0  0  0  0
 38 36  1  0  0  0  0
 40 38  2  0  0  0  0
 41 40  1  0  0  0  0
 41 34  2  0  0  0  0
 42 43  3  0  0  0  0
 43 24  1  0  0  0  0
M  END
>  <minimizedAffinity>
-6.15376472

$$$$

 OpenBabel03242519083D

 43 46  0  0  1  0  0  0  0  0999 V2000
   38.8360   31.5250   41.3050 N   0  0  0  0  0  0  0  0  0  0  0  0
   39.0430   31.8050   42.2910 H   0  0  0  0  0  0  0  0  0  0  0  0
   41.5820   33.4790   40.1440 N   0  0  0  0  0  0  0  0  0  0  0  0
   41.0930   32.4470   41.0260 C   0  0  0  0  0  0  0  0  0  0  0  0
   39.7320   32.2320   40.4160 C   0  0  2  0  0  0  0  0  0  0  0  0
   39.2370   33.6570   40.3330 C   0  0  0  0  0  0  0  0  0  0  0  0
   40.5000   34.4170   40.0030 C   0  0  0  0  0  0  0  0  0  0  0  0
   40.9390   32.7980   42.0540 H   0  0  0  0  0  0  0  0  0  0  0  0
   41.7260   31.5370   40.9970 H   0  0  0  0  0  0  0  0  0  0  0  0
   39.8310   31.7960   39.4190 H   0  0  0  0  0  0  0  0  0  0  0  0
   38.5120   33.7770   39.5230 H   0  0  0  0  0  0  0  0  0  0  0  0
   38.8860   34.0160   41.3100 H   0  0  0  0  0  0  0  0  0  0  0  0
   40.4880   34.8160   38.9580 H   0  0  0  0  0  0  0  0  0  0  0  0
   40.6130   35.3190   40.6530 H   0  0  0  0  0  0  0  0  0  0  0  0
   44.3380   33.6160   37.6270 C   0  0  0  0  0  0  0  0  0  0  0  0
   43.0600   33.4460   38.1580 C   0  0  0  0  0  0  0  0  0  0  0  0
   42.8250   33.6250   39.5120 C   0  0  0  0  0  0  0  0  0  0  0  0
   43.9020   33.9730   40.2870 N   0  0  0  0  0  0  0  0  0  0  0  0
   45.1390   34.1360   39.7670 C   0  0  0  0  0  0  0  0  0  0  0  0
   45.3530   33.9600   38.4460 N   0  0  0  0  0  0  0  0  0  0  0  0
   44.4680   33.4680   36.5780 H   0  0  0  0  0  0  0  0  0  0  0  0
   42.2280   33.1750   37.5440 H   0  0  0  0  0  0  0  0  0  0  0  0
   45.9840   34.4100   40.3790 H   0  0  0  0  0  0  0  0  0  0  0  0
   37.9740   29.1960   41.1130 C   0  0  0  0  0  0  0  0  0  0  0  0
   37.8090   30.5910   41.0470 C   0  0  0  0  0  0  0  0  0  0  0  0
   36.5440   30.9770   40.7030 C   0  0  0  0  0  0  0  0  0  0  0  0
   35.4920   30.1340   40.4370 C   0  0  0  0  0  0  0  0  0  0  0  0
   35.6920   28.7780   40.5130 C   0  0  0  0  0  0  0  0  0  0  0  0
   36.9490   28.3320   40.8550 C   0  0  0  0  0  0  0  0  0  0  0  0
   36.3650   32.0480   40.6390 H   0  0  0  0  0  0  0  0  0  0  0  0
   34.5180   30.5170   40.1710 H   0  0  0  0  0  0  0  0  0  0  0  0
   34.8740   28.1020   40.3060 H   0  0  0  0  0  0  0  0  0  0  0  0
   36.4240   27.2720   43.5970 Cl  0  0  0  0  0  0  0  0  0  0  0  0
   36.8850   26.3410   42.1910 C   0  0  0  0  0  0  0  0  0  0  0  0
   37.1210   26.8850   40.9240 C   0  0  0  0  0  0  0  0  0  0  0  0
   37.4800   26.0370   39.8940 C   0  0  0  0  0  0  0  0  0  0  0  0
   37.6370   26.5630   38.9670 H   0  0  0  0  0  0  0  0  0  0  0  0
   37.6040   24.6920   40.1090 C   0  0  0  0  0  0  0  0  0  0  0  0
   37.8920   24.1180   39.2300 H   0  0  0  0  0  0  0  0  0  0  0  0
   37.3710   24.1620   41.3560 C   0  0  0  0  0  3  0  0  0  0  0  0
   37.0100   24.9900   42.4070 C   0  0  0  0  0  3  0  0  0  0  0  0
   40.3430   28.3180   41.7720 N   0  0  0  0  0  0  0  0  0  0  0  0
   39.2870   28.7010   41.4710 C   0  0  0  0  0  0  0  0  0  0  0  0
  1  2  1  0  0  0  0
  3  4  1  0  0  0  0
  4  8  1  0  0  0  0
  5 10  1  6  0  0  0
  5  4  1  0  0  0  0
  5  1  1  0  0  0  0
  6  5  1  0  0  0  0
  6 12  1  0  0  0  0
  7  3  1  0  0  0  0
  7  6  1  0  0  0  0
  7 14  1  0  0  0  0
  9  4  1  0  0  0  0
 11  6  1  0  0  0  0
 13  7  1  0  0  0  0
 15 16  2  0  0  0  0
 15 20  1  0  0  0  0
 16 17  1  0  0  0  0
 17  3  1  0  0  0  0
 17 18  2  0  0  0  0
 19 18  1  0  0  0  0
 19 23  1  0  0  0  0
 20 19  2  0  0  0  0
 21 15  1  0  0  0  0
 22 16  1  0  0  0  0
 24 43  1  0  0  0  0
 25 24  1  0  0  0  0
 25  1  1  0  0  0  0
 26 25  2  0  0  0  0
 27 28  2  0  0  0  0
 27 26  1  0  0  0  0
 28 29  1  0  0  0  0
 29 35  1  0  0  0  0
 29 24  2  0  0  0  0
 30 26  1  0  0  0  0
 31 27  1  0  0  0  0
 32 28  1  0  0  0  0
 34 41  1  0  0  0  0
 34 33  1  0  0  0  0
 35 34  2  0  0  0  0
 36 38  2  0  0  0  0
 36 35  1  0  0  0  0
 37 36  1  0  0  0  0
 38 40  1  0  0  0  0
 39 38  1  0  0  0  0
 40 41  2  0  0  0  0
 43 42  3  0  0  0  0
M  END
>  <minimizedAffinity>
-6.06244946

$$$$

 OpenBabel03242519083D

 43 46  0  0  1  0  0  0  0  0999 V2000
   36.9680   29.8200   42.3490 N   0  0  0  0  0  0  0  0  0  0  0  0
   36.0760   29.8020   42.8940 H   0  0  0  0  0  0  0  0  0  0  0  0
   39.8280   27.8860   43.2310 N   0  0  0  0  0  0  0  0  0  0  0  0
   39.1900   28.7810   42.2970 C   0  0  0  0  0  0  0  0  0  0  0  0
   38.0160   29.2120   43.1380 C   0  0  2  0  0  0  0  0  0  0  0  0
   37.4980   27.8690   43.5970 C   0  0  0  0  0  0  0  0  0  0  0  0
   38.7720   27.0790   43.7820 C   0  0  0  0  0  0  0  0  0  0  0  0
   38.7900   28.2680   41.4140 H   0  0  0  0  0  0  0  0  0  0  0  0
   39.8480   29.6270   42.0130 H   0  0  0  0  0  0  0  0  0  0  0  0
   38.3590   29.8070   43.9870 H   0  0  0  0  0  0  0  0  0  0  0  0
   36.9740   27.9530   44.5550 H   0  0  0  0  0  0  0  0  0  0  0  0
   36.9170   27.3720   42.8080 H   0  0  0  0  0  0  0  0  0  0  0  0
   38.9860   26.8730   44.8600 H   0  0  0  0  0  0  0  0  0  0  0  0
   38.6960   26.0700   43.3070 H   0  0  0  0  0  0  0  0  0  0  0  0
   43.0700   26.6630   44.6260 C   0  0  0  0  0  0  0  0  0  0  0  0
   41.7100   26.7000   44.3190 C   0  0  0  0  0  0  0  0  0  0  0  0
   41.1760   27.7530   43.5920 C   0  0  0  0  0  0  0  0  0  0  0  0
   42.0460   28.7380   43.1990 N   0  0  0  0  0  0  0  0  0  0  0  0
   43.3630   28.6970   43.5000 C   0  0  0  0  0  0  0  0  0  0  0  0
   43.8700   27.6650   44.2080 N   0  0  0  0  0  0  0  0  0  0  0  0
   43.4340   25.8310   45.1880 H   0  0  0  0  0  0  0  0  0  0  0  0
   41.0420   25.9260   44.6300 H   0  0  0  0  0  0  0  0  0  0  0  0
   44.0450   29.4730   43.1900 H   0  0  0  0  0  0  0  0  0  0  0  0
   36.7540   29.6630   39.8720 C   0  0  0  0  0  0  0  0  0  0  0  0
   36.9820   30.3880   41.0560 C   0  0  0  0  0  0  0  0  0  0  0  0
   37.2270   31.7160   40.8470 C   0  0  0  0  0  0  0  0  0  0  0  0
   37.2580   32.3440   39.6250 C   0  0  0  0  0  0  0  0  0  0  0  0
   37.0300   31.6040   38.4920 C   0  0  0  0  0  0  0  0  0  0  0  0
   36.7790   30.2580   38.6430 C   0  0  0  0  0  0  0  0  0  0  0  0
   37.4090   32.3200   41.7320 H   0  0  0  0  0  0  0  0  0  0  0  0
   37.4590   33.4020   39.5420 H   0  0  0  0  0  0  0  0  0  0  0  0
   37.0520   32.0830   37.5230 H   0  0  0  0  0  0  0  0  0  0  0  0
   39.3140   29.1980   37.4710 Cl  0  0  0  0  0  0  0  0  0  0  0  0
   37.7020   28.9880   36.8290 C   0  0  0  0  0  0  0  0  0  0  0  0
   36.5420   29.5060   37.4150 C   0  0  0  0  0  0  0  0  0  0  0  0
   35.3260   29.2680   36.8050 C   0  0  0  0  0  0  0  0  0  0  0  0
   34.5040   29.7120   37.3420 H   0  0  0  0  0  0  0  0  0  0  0  0
   35.2560   28.5400   35.6490 C   0  0  0  0  0  0  0  0  0  0  0  0
   34.2500   28.4140   35.2530 H   0  0  0  0  0  0  0  0  0  0  0  0
   36.3990   28.0340   35.0760 C   0  0  0  0  0  3  0  0  0  0  0  0
   37.6320   28.2580   35.6670 C   0  0  0  0  0  3  0  0  0  0  0  0
   36.2580   27.1130   40.1210 N   0  0  0  0  0  0  0  0  0  0  0  0
   36.4880   28.2460   40.0040 C   0  0  0  0  0  0  0  0  0  0  0  0
  1  2  1  0  0  0  0
  1  5  1  0  0  0  0
  3 17  1  0  0  0  0
  3  7  1  0  0  0  0
  4  5  1  0  0  0  0
  4  3  1  0  0  0  0
  5  6  1  0  0  0  0
  5 10  1  1  0  0  0
  6  7  1  0  0  0  0
  6 11  1  0  0  0  0
  7 13  1  0  0  0  0
  8  4  1  0  0  0  0
  9  4  1  0  0  0  0
 12  6  1  0  0  0  0
 14  7  1  0  0  0  0
 15 21  1  0  0  0  0
 16 15  1  0  0  0  0
 16 22  1  0  0  0  0
 17 16  2  0  0  0  0
 18 19  2  0  0  0  0
 18 17  1  0  0  0  0
 19 20  1  0  0  0  0
 20 15  2  0  0  0  0
 23 19  1  0  0  0  0
 24 43  1  0  0  0  0
 24 25  1  0  0  0  0
 25  1  1  0  0  0  0
 26 25  2  0  0  0  0
 26 30  1  0  0  0  0
 27 26  1  0  0  0  0
 28 29  1  0  0  0  0
 28 27  2  0  0  0  0
 29 24  2  0  0  0  0
 31 27  1  0  0  0  0
 32 28  1  0  0  0  0
 34 35  1  0  0  0  0
 34 33  1  0  0  0  0
 35 29  1  0  0  0  0
 36 37  1  0  0  0  0
 36 35  2  0  0  0  0
 38 36  1  0  0  0  0
 39 38  1  0  0  0  0
 40 38  2  0  0  0  0
 40 41  1  0  0  0  0
 41 34  2  0  0  0  0
 43 42  3  0  0  0  0
M  END
>  <minimizedAffinity>
-6.0184989

$$$$

 OpenBabel03242519083D

 43 46  0  0  1  0  0  0  0  0999 V2000
   40.3040   28.6570   42.8930 N   0  0  0  0  0  0  0  0  0  0  0  0
   41.1480   28.1720   43.2720 H   0  0  0  0  0  0  0  0  0  0  0  0
   40.6280   31.5920   40.8970 N   0  0  0  0  0  0  0  0  0  0  0  0
   39.8000   30.5040   41.3580 C   0  0  0  0  0  0  0  0  0  0  0  0
   40.6740   29.9910   42.4730 C   0  0  2  0  0  0  0  0  0  0  0  0
   41.9990   29.8750   41.7560 C   0  0  0  0  0  0  0  0  0  0  0  0
   41.9640   31.0620   40.8230 C   0  0  0  0  0  0  0  0  0  0  0  0
   39.7010   29.6970   40.6220 H   0  0  0  0  0  0  0  0  0  0  0  0
   38.8100   30.8540   41.7140 H   0  0  0  0  0  0  0  0  0  0  0  0
   40.7310   30.7280   43.2770 H   0  0  0  0  0  0  0  0  0  0  0  0
   42.8360   29.9780   42.4530 H   0  0  0  0  0  0  0  0  0  0  0  0
   42.0390   28.9710   41.1330 H   0  0  0  0  0  0  0  0  0  0  0  0
   42.6940   31.8540   41.1230 H   0  0  0  0  0  0  0  0  0  0  0  0
   42.2640   30.7730   39.7860 H   0  0  0  0  0  0  0  0  0  0  0  0
   40.7690   35.1930   39.9130 C   0  0  0  0  0  0  0  0  0  0  0  0
   41.2040   33.9050   40.2270 C   0  0  0  0  0  0  0  0  0  0  0  0
   40.2960   32.9130   40.5660 C   0  0  0  0  0  0  0  0  0  0  0  0
   38.9710   33.2640   40.5750 N   0  0  0  0  0  0  0  0  0  0  0  0
   38.5550   34.5140   40.2710 C   0  0  0  0  0  0  0  0  0  0  0  0
   39.4500   35.4700   39.9410 N   0  0  0  0  0  0  0  0  0  0  0  0
   41.5070   35.9210   39.6580 H   0  0  0  0  0  0  0  0  0  0  0  0
   42.2400   33.6430   40.2160 H   0  0  0  0  0  0  0  0  0  0  0  0
   37.5110   34.7870   40.2790 H   0  0  0  0  0  0  0  0  0  0  0  0
   38.7570   26.9350   41.9740 C   0  0  0  0  0  0  0  0  0  0  0  0
   39.0650   27.9790   42.8640 C   0  0  0  0  0  0  0  0  0  0  0  0
   38.0450   28.2920   43.7180 C   0  0  0  0  0  0  0  0  0  0  0  0
   36.8140   27.6820   43.7540 C   0  0  0  0  0  0  0  0  0  0  0  0
   36.5490   26.6660   42.8690 C   0  0  0  0  0  0  0  0  0  0  0  0
   37.5430   26.3090   41.9840 C   0  0  0  0  0  0  0  0  0  0  0  0
   38.2350   29.0930   44.4270 H   0  0  0  0  0  0  0  0  0  0  0  0
   36.0570   27.9860   44.4610 H   0  0  0  0  0  0  0  0  0  0  0  0
   35.5850   26.1770   42.8850 H   0  0  0  0  0  0  0  0  0  0  0  0
   36.2320   27.3110   39.4940 Cl  0  0  0  0  0  0  0  0  0  0  0  0
   36.6060   25.6470   39.8770 C   0  0  0  0  0  0  0  0  0  0  0  0
   37.2230   25.2260   41.0610 C   0  0  0  0  0  0  0  0  0  0  0  0
   37.4640   23.8780   41.2410 C   0  0  0  0  0  0  0  0  0  0  0  0
   37.9410   23.6700   42.1850 H   0  0  0  0  0  0  0  0  0  0  0  0
   37.1070   22.9710   40.2810 C   0  0  0  0  0  0  0  0  0  0  0  0
   37.3420   21.9370   40.5250 H   0  0  0  0  0  0  0  0  0  0  0  0
   36.5010   23.3900   39.1200 C   0  0  0  0  0  3  0  0  0  0  0  0
   36.2470   24.7360   38.9140 C   0  0  0  0  0  3  0  0  0  0  0  0
   40.6230   26.2260   40.2920 N   0  0  0  0  0  0  0  0  0  0  0  0
   39.7840   26.5410   41.0330 C   0  0  0  0  0  0  0  0  0  0  0  0
  1  2  1  0  0  0  0
  3  4  1  0  0  0  0
  4  9  1  0  0  0  0
  4  5  1  0  0  0  0
  5  1  1  0  0  0  0
  5 10  1  1  0  0  0
  6 11  1  0  0  0  0
  6  5  1  0  0  0  0
  7  3  1  0  0  0  0
  7 13  1  0  0  0  0
  7  6  1  0  0  0  0
  8  4  1  0  0  0  0
 12  6  1  0  0  0  0
 14  7  1  0  0  0  0
 15 20  2  0  0  0  0
 15 16  1  0  0  0  0
 16 17  2  0  0  0  0
 17 18  1  0  0  0  0
 17  3  1  0  0  0  0
 19 23  1  0  0  0  0
 19 18  2  0  0  0  0
 20 19  1  0  0  0  0
 21 15  1  0  0  0  0
 22 16  1  0  0  0  0
 24 29  2  0  0  0  0
 24 25  1  0  0  0  0
 25  1  1  0  0  0  0
 25 26  2  0  0  0  0
 26 27  1  0  0  0  0
 26 30  1  0  0  0  0
 27 31  1  0  0  0  0
 28 32  1  0  0  0  0
 28 27  2  0  0  0  0
 29 28  1  0  0  0  0
 33 34  1  0  0  0  0
 34 35  1  0  0  0  0
 35 36  2  0  0  0  0
 35 29  1  0  0  0  0
 36 37  1  0  0  0  0
 38 39  1  0  0  0  0
 38 36  1  0  0  0  0
 40 38  2  0  0  0  0
 41 40  1  0  0  0  0
 41 34  2  0  0  0  0
 42 43  3  0  0  0  0
 43 24  1  0  0  0  0
M  END
>  <minimizedAffinity>
-6.0029192

$$$$

 OpenBabel03242519083D

 43 46  0  0  1  0  0  0  0  0999 V2000
   38.3890   30.0940   42.3340 N   0  0  0  0  0  0  0  0  0  0  0  0
   38.4830   30.4950   43.2950 H   0  0  0  0  0  0  0  0  0  0  0  0
   37.5900   26.6790   41.7010 N   0  0  0  0  0  0  0  0  0  0  0  0
   37.8480   27.9990   41.1780 C   0  0  0  0  0  0  0  0  0  0  0  0
   38.3910   28.6500   42.4230 C   0  0  2  0  0  0  0  0  0  0  0  0
   37.3240   28.2700   43.4230 C   0  0  0  0  0  0  0  0  0  0  0  0
   36.9380   26.8820   42.9680 C   0  0  0  0  0  0  0  0  0  0  0  0
   36.9340   28.5370   40.8990 H   0  0  0  0  0  0  0  0  0  0  0  0
   38.5810   27.9820   40.3460 H   0  0  0  0  0  0  0  0  0  0  0  0
   39.3520   28.2060   42.6920 H   0  0  0  0  0  0  0  0  0  0  0  0
   37.7310   28.2250   44.4380 H   0  0  0  0  0  0  0  0  0  0  0  0
   36.4340   28.9060   43.3210 H   0  0  0  0  0  0  0  0  0  0  0  0
   37.2750   26.0950   43.6880 H   0  0  0  0  0  0  0  0  0  0  0  0
   35.8280   26.7660   42.9150 H   0  0  0  0  0  0  0  0  0  0  0  0
   37.4150   23.0920   40.6740 C   0  0  0  0  0  0  0  0  0  0  0  0
   37.0390   24.3090   41.2410 C   0  0  0  0  0  0  0  0  0  0  0  0
   37.8720   25.4140   41.1660 C   0  0  0  0  0  0  0  0  0  0  0  0
   39.0660   25.2460   40.5120 N   0  0  0  0  0  0  0  0  0  0  0  0
   39.4260   24.0640   39.9650 C   0  0  0  0  0  0  0  0  0  0  0  0
   38.6050   22.9960   40.0450 N   0  0  0  0  0  0  0  0  0  0  0  0
   36.7390   22.2700   40.7580 H   0  0  0  0  0  0  0  0  0  0  0  0
   36.1050   24.4290   41.7480 H   0  0  0  0  0  0  0  0  0  0  0  0
   40.3660   23.9340   39.4520 H   0  0  0  0  0  0  0  0  0  0  0  0
   39.3910   31.5270   40.5600 C   0  0  0  0  0  0  0  0  0  0  0  0
   38.2880   30.9610   41.2240 C   0  0  0  0  0  0  0  0  0  0  0  0
   37.0820   31.3290   40.6960 C   0  0  0  0  0  0  0  0  0  0  0  0
   36.8980   32.1660   39.6220 C   0  0  0  0  0  0  0  0  0  0  0  0
   37.9990   32.6990   38.9990 C   0  0  0  0  0  0  0  0  0  0  0  0
   39.2420   32.3630   39.4900 C   0  0  0  0  0  0  0  0  0  0  0  0
   36.1970   30.9170   41.1750 H   0  0  0  0  0  0  0  0  0  0  0  0
   35.9100   32.4090   39.2620 H   0  0  0  0  0  0  0  0  0  0  0  0
   37.8710   33.3590   38.1520 H   0  0  0  0  0  0  0  0  0  0  0  0
   39.9840   35.0260   40.6210 Cl  0  0  0  0  0  0  0  0  0  0  0  0
   40.7720   34.2000   39.2980 C   0  0  0  0  0  0  0  0  0  0  0  0
   40.3860   32.9500   38.8020 C   0  0  0  0  0  0  0  0  0  0  0  0
   41.0950   32.4050   37.7490 C   0  0  0  0  0  0  0  0  0  0  0  0
   40.7110   31.4440   37.4500 H   0  0  0  0  0  0  0  0  0  0  0  0
   42.1540   33.0750   37.2000 C   0  0  0  0  0  0  0  0  0  0  0  0
   42.6400   32.5570   36.3760 H   0  0  0  0  0  0  0  0  0  0  0  0
   42.5290   34.3040   37.6900 C   0  0  0  0  0  3  0  0  0  0  0  0
   41.8350   34.8730   38.7460 C   0  0  0  0  0  3  0  0  0  0  0  0
   41.7650   30.9010   41.4470 N   0  0  0  0  0  0  0  0  0  0  0  0
   40.7080   31.1900   41.0580 C   0  0  0  0  0  0  0  0  0  0  0  0
  1  5  1  0  0  0  0
  1  2  1  0  0  0  0
  3  7  1  0  0  0  0
  4  3  1  0  0  0  0
  4  5  1  0  0  0  0
  5 10  1  1  0  0  0
  5  6  1  0  0  0  0
  6 11  1  0  0  0  0
  7  6  1  0  0  0  0
  7 13  1  0  0  0  0
  8  4  1  0  0  0  0
  9  4  1  0  0  0  0
 12  6  1  0  0  0  0
 14  7  1  0  0  0  0
 15 21  1  0  0  0  0
 15 16  1  0  0  0  0
 16 22  1  0  0  0  0
 17 16  2  0  0  0  0
 17  3  1  0  0  0  0
 18 17  1  0  0  0  0
 19 20  1  0  0  0  0
 19 18  2  0  0  0  0
 20 15  2  0  0  0  0
 23 19  1  0  0  0  0
 24 43  1  0  0  0  0
 24 25  1  0  0  0  0
 25  1  1  0  0  0  0
 26 30  1  0  0  0  0
 26 25  2  0  0  0  0
 27 26  1  0  0  0  0
 28 29  1  0  0  0  0
 28 27  2  0  0  0  0
 29 24  2  0  0  0  0
 31 27  1  0  0  0  0
 32 28  1  0  0  0  0
 34 33  1  0  0  0  0
 35 34  1  0  0  0  0
 35 29  1  0  0  0  0
 36 35  2  0  0  0  0
 37 36  1  0  0  0  0
 38 40  2  0  0  0  0
 38 36  1  0  0  0  0
 39 38  1  0  0  0  0
 40 41  1  0  0  0  0
 41 34  2  0  0  0  0
 43 42  3  0  0  0  0
M  END
>  <minimizedAffinity>
-5.95849895

$$$$

 OpenBabel03242519083D

 43 46  0  0  1  0  0  0  0  0999 V2000
   36.9640   30.2630   41.0630 N   0  0  0  0  0  0  0  0  0  0  0  0
   36.0170   30.6540   41.2690 H   0  0  0  0  0  0  0  0  0  0  0  0
   39.2440   32.6260   39.6790 N   0  0  0  0  0  0  0  0  0  0  0  0
   39.0190   31.5030   40.5560 C   0  0  0  0  0  0  0  0  0  0  0  0
   37.6320   31.1220   40.1090 C   0  0  2  0  0  0  0  0  0  0  0  0
   36.9430   32.4650   40.1700 C   0  0  0  0  0  0  0  0  0  0  0  0
   38.0370   33.4070   39.7270 C   0  0  0  0  0  0  0  0  0  0  0  0
   38.9570   31.7890   41.6130 H   0  0  0  0  0  0  0  0  0  0  0  0
   39.7600   30.6930   40.3960 H   0  0  0  0  0  0  0  0  0  0  0  0
   37.6560   30.7430   39.0850 H   0  0  0  0  0  0  0  0  0  0  0  0
   36.1070   32.5130   39.4650 H   0  0  0  0  0  0  0  0  0  0  0  0
   36.6780   32.7340   41.2020 H   0  0  0  0  0  0  0  0  0  0  0  0
   37.8350   33.8400   38.7160 H   0  0  0  0  0  0  0  0  0  0  0  0
   38.1120   34.2910   40.4070 H   0  0  0  0  0  0  0  0  0  0  0  0
   42.2000   34.3820   38.2170 C   0  0  0  0  0  0  0  0  0  0  0  0
   41.1020   34.1350   39.0400 C   0  0  0  0  0  0  0  0  0  0  0  0
   40.3620   32.9700   38.9050 C   0  0  0  0  0  0  0  0  0  0  0  0
   40.7660   32.0900   37.9330 N   0  0  0  0  0  0  0  0  0  0  0  0
   41.8310   32.3350   37.1380 C   0  0  0  0  0  0  0  0  0  0  0  0
   42.5420   33.4730   37.2820 N   0  0  0  0  0  0  0  0  0  0  0  0
   42.7380   35.2930   38.3600 H   0  0  0  0  0  0  0  0  0  0  0  0
   40.7970   34.8280   39.7950 H   0  0  0  0  0  0  0  0  0  0  0  0
   42.1450   31.6410   36.3740 H   0  0  0  0  0  0  0  0  0  0  0  0
   37.3920   27.8090   41.0780 C   0  0  0  0  0  0  0  0  0  0  0  0
   37.3790   29.0720   41.6970 C   0  0  0  0  0  0  0  0  0  0  0  0
   37.8100   29.0500   42.9940 C   0  0  0  0  0  0  0  0  0  0  0  0
   38.2280   27.9370   43.6820 C   0  0  0  0  0  0  0  0  0  0  0  0
   38.2270   26.7220   43.0440 C   0  0  0  0  0  0  0  0  0  0  0  0
   37.8010   26.6840   41.7340 C   0  0  0  0  0  0  0  0  0  0  0  0
   37.8190   30.0030   43.5180 H   0  0  0  0  0  0  0  0  0  0  0  0
   38.5550   28.0010   44.7090 H   0  0  0  0  0  0  0  0  0  0  0  0
   38.5530   25.8360   43.5720 H   0  0  0  0  0  0  0  0  0  0  0  0
   40.4190   26.1110   40.4150 Cl  0  0  0  0  0  0  0  0  0  0  0  0
   39.0220   25.0610   40.4580 C   0  0  0  0  0  0  0  0  0  0  0  0
   37.8150   25.3750   41.0910 C   0  0  0  0  0  0  0  0  0  0  0  0
   36.7860   24.4540   41.0520 C   0  0  0  0  0  0  0  0  0  0  0  0
   35.9060   24.8010   41.5700 H   0  0  0  0  0  0  0  0  0  0  0  0
   36.9430   23.2580   40.4070 C   0  0  0  0  0  0  0  0  0  0  0  0
   36.0700   22.6090   40.4370 H   0  0  0  0  0  0  0  0  0  0  0  0
   38.1320   22.9540   39.7860 C   0  0  0  0  0  3  0  0  0  0  0  0
   39.1810   23.8600   39.8100 C   0  0  0  0  0  3  0  0  0  0  0  0
   36.6120   27.6890   38.5900 N   0  0  0  0  0  0  0  0  0  0  0  0
   36.9490   27.7430   39.7010 C   0  0  0  0  0  0  0  0  0  0  0  0
  1  2  1  0  0  0  0
  1 25  1  0  0  0  0
  3  7  1  0  0  0  0
  3  4  1  0  0  0  0
  4  8  1  0  0  0  0
  5 10  1  6  0  0  0
  5  6  1  0  0  0  0
  5  4  1  0  0  0  0
  5  1  1  0  0  0  0
  6 12  1  0  0  0  0
  7  6  1  0  0  0  0
  7 14  1  0  0  0  0
  9  4  1  0  0  0  0
 11  6  1  0  0  0  0
 13  7  1  0  0  0  0
 15 21  1  0  0  0  0
 15 16  1  0  0  0  0
 16 22  1  0  0  0  0
 17 16  2  0  0  0  0
 17  3  1  0  0  0  0
 18 17  1  0  0  0  0
 19 20  1  0  0  0  0
 19 18  2  0  0  0  0
 20 15  2  0  0  0  0
 23 19  1  0  0  0  0
 24 25  2  0  0  0  0
 24 29  1  0  0  0  0
 25 26  1  0  0  0  0
 26 30  1  0  0  0  0
 26 27  2  0  0  0  0
 27 31  1  0  0  0  0
 28 32  1  0  0  0  0
 28 27  1  0  0  0  0
 29 28  2  0  0  0  0
 33 34  1  0  0  0  0
 34 35  1  0  0  0  0
 35 29  1  0  0  0  0
 36 35  2  0  0  0  0
 36 37  1  0  0  0  0
 38 39  1  0  0  0  0
 38 36  1  0  0  0  0
 40 41  1  0  0  0  0
 40 38  2  0  0  0  0
 41 34  2  0  0  0  0
 42 43  3  0  0  0  0
 43 24  1  0  0  0  0
M  END
>  <minimizedAffinity>
-5.92194939

$$$$

 OpenBabel03242519083D

 43 46  0  0  1  0  0  0  0  0999 V2000
   36.4450   29.0620   41.7510 N   0  0  0  0  0  0  0  0  0  0  0  0
   35.8540   28.9360   42.6040 H   0  0  0  0  0  0  0  0  0  0  0  0
   39.0520   31.4350   41.2340 N   0  0  0  0  0  0  0  0  0  0  0  0
   38.0160   30.6050   40.6700 C   0  0  0  0  0  0  0  0  0  0  0  0
   37.3070   30.2090   41.9390 C   0  0  2  0  0  0  0  0  0  0  0  0
   38.4760   29.7470   42.7770 C   0  0  0  0  0  0  0  0  0  0  0  0
   39.5670   30.7060   42.3620 C   0  0  0  0  0  0  0  0  0  0  0  0
   38.4030   29.6880   40.2110 H   0  0  0  0  0  0  0  0  0  0  0  0
   37.3650   31.1670   39.9710 H   0  0  0  0  0  0  0  0  0  0  0  0
   36.8260   31.0790   42.3890 H   0  0  0  0  0  0  0  0  0  0  0  0
   38.2680   29.8640   43.8450 H   0  0  0  0  0  0  0  0  0  0  0  0
   38.8020   28.7380   42.4890 H   0  0  0  0  0  0  0  0  0  0  0  0
   39.8290   31.4230   43.1800 H   0  0  0  0  0  0  0  0  0  0  0  0
   40.5190   30.1660   42.1390 H   0  0  0  0  0  0  0  0  0  0  0  0
   41.2190   34.2810   40.1560 C   0  0  0  0  0  0  0  0  0  0  0  0
   40.8480   32.9920   40.5390 C   0  0  0  0  0  0  0  0  0  0  0  0
   39.5280   32.6940   40.8400 C   0  0  0  0  0  0  0  0  0  0  0  0
   38.6240   33.7210   40.7410 N   0  0  0  0  0  0  0  0  0  0  0  0
   38.9880   34.9680   40.3690 C   0  0  0  0  0  0  0  0  0  0  0  0
   40.2770   35.2440   40.0780 N   0  0  0  0  0  0  0  0  0  0  0  0
   42.2470   34.4610   39.9340 H   0  0  0  0  0  0  0  0  0  0  0  0
   41.5620   32.2000   40.6120 H   0  0  0  0  0  0  0  0  0  0  0  0
   38.2750   35.7730   40.2930 H   0  0  0  0  0  0  0  0  0  0  0  0
   36.8500   26.8730   40.6340 C   0  0  0  0  0  0  0  0  0  0  0  0
   36.3020   28.1680   40.6680 C   0  0  0  0  0  0  0  0  0  0  0  0
   35.6050   28.4980   39.5390 C   0  0  0  0  0  0  0  0  0  0  0  0
   35.4210   27.6880   38.4440 C   0  0  0  0  0  0  0  0  0  0  0  0
   35.9710   26.4300   38.4490 C   0  0  0  0  0  0  0  0  0  0  0  0
   36.6850   26.0440   39.5610 C   0  0  0  0  0  0  0  0  0  0  0  0
   35.1610   29.4900   39.5160 H   0  0  0  0  0  0  0  0  0  0  0  0
   34.8550   28.0210   37.5870 H   0  0  0  0  0  0  0  0  0  0  0  0
   35.8350   25.7810   37.5940 H   0  0  0  0  0  0  0  0  0  0  0  0
   39.4230   26.0170   38.3660 Cl  0  0  0  0  0  0  0  0  0  0  0  0
   38.5380   24.6380   38.9750 C   0  0  0  0  0  0  0  0  0  0  0  0
   37.2540   24.7010   39.5270 C   0  0  0  0  0  0  0  0  0  0  0  0
   36.6640   23.5350   39.9730 C   0  0  0  0  0  0  0  0  0  0  0  0
   35.6790   23.7020   40.3770 H   0  0  0  0  0  0  0  0  0  0  0  0
   37.3220   22.3390   39.8760 C   0  0  0  0  0  0  0  0  0  0  0  0
   36.7670   21.4840   40.2560 H   0  0  0  0  0  0  0  0  0  0  0  0
   38.5840   22.2820   39.3320 C   0  0  0  0  0  3  0  0  0  0  0  0
   39.1990   23.4380   38.8770 C   0  0  0  0  0  3  0  0  0  0  0  0
   38.2180   26.1190   42.7250 N   0  0  0  0  0  0  0  0  0  0  0  0
   37.6060   26.4440   41.7920 C   0  0  0  0  0  0  0  0  0  0  0  0
  1  5  1  0  0  0  0
  1  2  1  0  0  0  0
  3  7  1  0  0  0  0
  4  3  1  0  0  0  0
  4  5  1  0  0  0  0
  5 10  1  1  0  0  0
  5  6  1  0  0  0  0
  6 11  1  0  0  0  0
  7  6  1  0  0  0  0
  7 13  1  0  0  0  0
  8  4  1  0  0  0  0
  9  4  1  0  0  0  0
 12  6  1  0  0  0  0
 14  7  1  0  0  0  0
 15 16  1  0  0  0  0
 16 22  1  0  0  0  0
 16 17  2  0  0  0  0
 17  3  1  0  0  0  0
 18 17  1  0  0  0  0
 19 18  2  0  0  0  0
 20 15  2  0  0  0  0
 20 19  1  0  0  0  0
 21 15  1  0  0  0  0
 23 19  1  0  0  0  0
 24 25  1  0  0  0  0
 24 43  1  0  0  0  0
 25  1  1  0  0  0  0
 26 25  2  0  0  0  0
 27 28  2  0  0  0  0
 27 26  1  0  0  0  0
 28 29  1  0  0  0  0
 29 24  2  0  0  0  0
 30 26  1  0  0  0  0
 31 27  1  0  0  0  0
 32 28  1  0  0  0  0
 33 34  1  0  0  0  0
 34 35  1  0  0  0  0
 35 29  1  0  0  0  0
 35 36  2  0  0  0  0
 36 37  1  0  0  0  0
 38 36  1  0  0  0  0
 38 39  1  0  0  0  0
 40 38  2  0  0  0  0
 41 34  2  0  0  0  0
 41 40  1  0  0  0  0
 43 42  3  0  0  0  0
M  END
>  <minimizedAffinity>
-5.85716963

$$$$

 OpenBabel03242519083D

 43 46  0  0  1  0  0  0  0  0999 V2000
   38.1090   31.8140   39.7130 N   0  0  0  0  0  0  0  0  0  0  0  0
   37.6170   31.6680   38.8020 H   0  0  0  0  0  0  0  0  0  0  0  0
   37.3440   28.5150   40.8220 N   0  0  0  0  0  0  0  0  0  0  0  0
   38.0770   29.3700   39.9210 C   0  0  0  0  0  0  0  0  0  0  0  0
   37.8250   30.6970   40.5870 C   0  0  2  0  0  0  0  0  0  0  0  0
   36.3240   30.6410   40.7560 C   0  0  0  0  0  0  0  0  0  0  0  0
   36.0900   29.1800   41.0570 C   0  0  0  0  0  0  0  0  0  0  0  0
   37.6360   29.4170   38.9180 H   0  0  0  0  0  0  0  0  0  0  0  0
   39.1540   29.1070   39.8790 H   0  0  0  0  0  0  0  0  0  0  0  0
   38.3240   30.7330   41.5580 H   0  0  0  0  0  0  0  0  0  0  0  0
   35.9990   31.2500   41.6050 H   0  0  0  0  0  0  0  0  0  0  0  0
   35.8060   30.8680   39.8140 H   0  0  0  0  0  0  0  0  0  0  0  0
   35.7750   29.0150   42.1180 H   0  0  0  0  0  0  0  0  0  0  0  0
   35.2520   28.7680   40.4420 H   0  0  0  0  0  0  0  0  0  0  0  0
   39.0100   25.8120   42.7900 C   0  0  0  0  0  0  0  0  0  0  0  0
   38.7490   27.0800   42.2710 C   0  0  0  0  0  0  0  0  0  0  0  0
   37.6910   27.2850   41.3990 C   0  0  0  0  0  0  0  0  0  0  0  0
   36.9300   26.1890   41.0800 N   0  0  0  0  0  0  0  0  0  0  0  0
   37.1890   24.9630   41.5860 C   0  0  0  0  0  0  0  0  0  0  0  0
   38.2210   24.7780   42.4360 N   0  0  0  0  0  0  0  0  0  0  0  0
   39.8360   25.7050   43.4590 H   0  0  0  0  0  0  0  0  0  0  0  0
   39.3490   27.9270   42.5260 H   0  0  0  0  0  0  0  0  0  0  0  0
   36.5880   24.1020   41.3340 H   0  0  0  0  0  0  0  0  0  0  0  0
   40.2960   32.9790   39.9680 C   0  0  0  0  0  0  0  0  0  0  0  0
   38.8910   32.9740   39.9040 C   0  0  0  0  0  0  0  0  0  0  0  0
   38.3310   34.2130   40.0460 C   0  0  0  0  0  0  0  0  0  0  0  0
   39.0190   35.3880   40.2350 C   0  0  0  0  0  0  0  0  0  0  0  0
   40.3900   35.3520   40.2920 C   0  0  0  0  0  0  0  0  0  0  0  0
   41.0080   34.1290   40.1550 C   0  0  0  0  0  0  0  0  0  0  0  0
   37.2460   34.2630   40.0030 H   0  0  0  0  0  0  0  0  0  0  0  0
   38.5040   36.3310   40.3390 H   0  0  0  0  0  0  0  0  0  0  0  0
   40.9460   36.2680   40.4400 H   0  0  0  0  0  0  0  0  0  0  0  0
   42.2530   34.1540   37.4400 Cl  0  0  0  0  0  0  0  0  0  0  0  0
   43.0950   34.1460   38.9720 C   0  0  0  0  0  0  0  0  0  0  0  0
   42.4660   34.1330   40.2220 C   0  0  0  0  0  0  0  0  0  0  0  0
   43.2490   34.1280   41.3590 C   0  0  0  0  0  0  0  0  0  0  0  0
   42.6590   34.1180   42.2620 H   0  0  0  0  0  0  0  0  0  0  0  0
   44.6140   34.1330   41.2670 C   0  0  0  0  0  0  0  0  0  0  0  0
   45.1320   34.1280   42.2240 H   0  0  0  0  0  0  0  0  0  0  0  0
   45.2270   34.1450   40.0370 C   0  0  0  0  0  3  0  0  0  0  0  0
   44.4650   34.1510   38.8790 C   0  0  0  0  0  3  0  0  0  0  0  0
   41.4920   30.6730   39.7140 N   0  0  0  0  0  0  0  0  0  0  0  0
   40.9690   31.7050   39.8280 C   0  0  0  0  0  0  0  0  0  0  0  0
  1 25  1  0  0  0  0
  1  5  1  0  0  0  0
  2  1  1  0  0  0  0
  3  7  1  0  0  0  0
  3 17  1  0  0  0  0
  4  5  1  0  0  0  0
  4  3  1  0  0  0  0
  5  6  1  0  0  0  0
  5 10  1  1  0  0  0
  6  7  1  0  0  0  0
  6 11  1  0  0  0  0
  7 13  1  0  0  0  0
  8  4  1  0  0  0  0
  9  4  1  0  0  0  0
 12  6  1  0  0  0  0
 14  7  1  0  0  0  0
 15 21  1  0  0  0  0
 16 22  1  0  0  0  0
 16 15  2  0  0  0  0
 17 16  1  0  0  0  0
 18 17  2  0  0  0  0
 18 19  1  0  0  0  0
 19 20  2  0  0  0  0
 20 15  1  0  0  0  0
 23 19  1  0  0  0  0
 24 29  1  0  0  0  0
 25 24  2  0  0  0  0
 25 26  1  0  0  0  0
 26 27  2  0  0  0  0
 27 28  1  0  0  0  0
 27 31  1  0  0  0  0
 28 32  1  0  0  0  0
 29 35  1  0  0  0  0
 29 28  2  0  0  0  0
 30 26  1  0  0  0  0
 33 34  1  0  0  0  0
 34 35  1  0  0  0  0
 35 36  2  0  0  0  0
 36 37  1  0  0  0  0
 38 36  1  0  0  0  0
 38 39  1  0  0  0  0
 40 38  2  0  0  0  0
 41 34  2  0  0  0  0
 41 40  1  0  0  0  0
 42 43  3  0  0  0  0
 43 24  1  0  0  0  0
M  END
>  <minimizedAffinity>
-5.83621454

$$$$
