
 OpenBabel03252509233D

 27 29  0  0  1  0  0  0  0  0999 V2000
   46.4350   35.0120   42.0500 C   0  0  1  0  0  0  0  0  0  0  0  0
   47.9660   35.2440   41.9260 C   0  0  0  0  0  0  0  0  0  0  0  0
   47.1800   34.0420   41.3300 C   0  0  2  0  0  0  0  0  0  0  0  0
   45.8400   35.8390   41.6170 H   0  0  0  0  0  0  0  0  0  0  0  0
   48.2790   36.0210   41.2260 H   0  0  0  0  0  0  0  0  0  0  0  0
   48.6090   35.0780   42.7810 H   0  0  0  0  0  0  0  0  0  0  0  0
   47.4420   33.0890   41.8540 H   0  0  0  0  0  0  0  0  0  0  0  0
   44.8810   32.4990   40.0410 Cl  0  0  0  0  0  0  0  0  0  0  0  0
   46.2160   33.2160   39.1580 C   0  0  0  0  0  0  0  0  0  0  0  0
   47.1820   33.8830   39.8590 C   0  0  0  0  0  0  0  0  0  0  0  0
   48.2600   34.4670   39.1910 C   0  0  0  0  0  0  0  0  0  0  0  0
   49.0810   35.0170   39.6290 H   0  0  0  0  0  0  0  0  0  0  0  0
   48.3220   34.3560   37.8170 C   0  0  0  0  0  0  0  0  0  0  0  0
   49.1210   34.7790   37.2290 H   0  0  0  0  0  0  0  0  0  0  0  0
   47.3230   33.6710   37.1260 C   0  0  0  0  0  3  0  0  0  0  0  0
   46.2440   33.0840   37.7830 C   0  0  0  0  0  3  0  0  0  0  0  0
   44.7510   35.1020   45.4070 C   0  0  0  0  0  0  0  0  0  0  0  0
   45.0980   35.4890   44.0670 C   0  0  0  0  0  0  0  0  0  0  0  0
   46.0670   34.7150   43.4870 C   0  0  0  0  0  0  0  0  0  0  0  0
   46.6570   33.6530   44.1450 N   0  0  0  0  0  0  0  0  0  0  0  0
   46.2940   33.3330   45.4020 C   0  0  0  0  0  0  0  0  0  0  0  0
   45.3450   34.0530   46.0350 N   0  0  0  0  0  0  0  0  0  0  0  0
   43.9830   35.7140   45.8680 H   0  0  0  0  0  0  0  0  0  0  0  0
   46.7340   32.5100   45.9450 H   0  0  0  0  0  0  0  0  0  0  0  0
   44.4940   36.5930   43.4180 N   0  0  0  0  0  0  0  0  0  0  0  0
   44.0430   36.3380   42.5260 H   0  0  0  0  0  0  0  0  0  0  0  0
   44.4180   37.6040   43.6690 H   0  0  0  0  0  0  0  0  0  0  0  0
  1  4  1  6  0  0  0
  1 19  1  0  0  0  0
  2  1  1  0  0  0  0
  2  6  1  0  0  0  0
  3  7  1  1  0  0  0
  3  2  1  0  0  0  0
  3  1  1  0  0  0  0
  5  2  1  0  0  0  0
  9 10  1  0  0  0  0
  9  8  1  0  0  0  0
 10  3  1  0  0  0  0
 11 12  1  0  0  0  0
 11 10  2  0  0  0  0
 13 11  1  0  0  0  0
 14 13  1  0  0  0  0
 15 16  1  0  0  0  0
 15 13  2  0  0  0  0
 16  9  2  0  0  0  0
 17 23  1  0  0  0  0
 17 22  1  0  0  0  0
 18 17  2  0  0  0  0
 19 18  1  0  0  0  0
 19 20  2  0  0  0  0
 20 21  1  0  0  0  0
 21 24  1  0  0  0  0
 21 22  2  0  0  0  0
 25 27  1  0  0  0  0
 25 18  1  0  0  0  0
 26 25  1  0  0  0  0
M  END
>  <minimizedAffinity>
-5.51601744

>  <minimizedRMSD>
0.488595277

$$$$
