
 OpenBabel03252502193D

 33 35  0  0  1  0  0  0  0  0999 V2000
   46.0950   34.3070   41.0570 N   0  0  0  0  0  0  0  0  0  0  0  0
   46.8910   33.9650   39.8780 C   0  0  0  0  0  0  0  0  0  0  0  0
   48.1750   33.3600   40.4150 C   0  0  0  0  0  0  0  0  0  0  0  0
   48.9460   34.3320   41.2430 C   0  0  0  0  0  0  0  0  0  0  0  0
   48.1170   35.3090   42.0210 C   0  0  0  0  0  0  0  0  0  0  0  0
   46.6810   34.9040   42.2010 C   0  0  2  0  0  0  0  0  0  0  0  0
   46.3720   33.3050   39.1870 H   0  0  0  0  0  0  0  0  0  0  0  0
   47.0930   34.9600   39.3950 H   0  0  0  0  0  0  0  0  0  0  0  0
   47.8690   32.5170   41.0620 H   0  0  0  0  0  0  0  0  0  0  0  0
   48.8260   33.0120   39.5730 H   0  0  0  0  0  0  0  0  0  0  0  0
   49.6350   33.7180   41.8960 H   0  0  0  0  0  0  0  0  0  0  0  0
   49.6740   34.8510   40.5650 H   0  0  0  0  0  0  0  0  0  0  0  0
   48.5300   35.5080   43.0320 H   0  0  0  0  0  0  0  0  0  0  0  0
   48.1730   36.2690   41.4690 H   0  0  0  0  0  0  0  0  0  0  0  0
   46.1350   35.9220   42.2630 H   0  0  0  0  0  0  0  0  0  0  0  0
   42.7380   32.6920   41.3200 C   0  0  0  0  0  0  0  0  0  0  0  0
   44.1210   32.8400   41.3140 C   0  0  0  0  0  0  0  0  0  0  0  0
   44.7020   34.0770   41.0560 C   0  0  0  0  0  0  0  0  0  0  0  0
   43.8310   35.1200   40.8100 N   0  0  0  0  0  0  0  0  0  0  0  0
   42.4820   34.9430   40.8230 C   0  0  0  0  0  0  0  0  0  0  0  0
   41.9500   33.7310   41.0780 N   0  0  0  0  0  0  0  0  0  0  0  0
   42.2540   31.7460   41.5180 H   0  0  0  0  0  0  0  0  0  0  0  0
   44.6610   31.9520   41.5080 H   0  0  0  0  0  0  0  0  0  0  0  0
   41.9380   35.8690   40.6100 H   0  0  0  0  0  0  0  0  0  0  0  0
   44.6110   36.3080   43.9360 Cl  0  0  0  0  0  0  0  0  0  0  0  0
   45.5070   34.8610   44.4360 C   0  0  0  0  0  0  0  0  0  0  0  0
   46.4200   34.3080   43.5210 C   0  0  0  0  0  0  0  0  0  0  0  0
   47.0260   33.1900   44.0760 C   0  0  0  0  0  0  0  0  0  0  0  0
   47.7460   32.6690   43.4940 H   0  0  0  0  0  0  0  0  0  0  0  0
   46.7940   32.6780   45.3180 C   0  0  0  0  0  0  0  0  0  0  0  0
   47.3000   31.8060   45.6850 H   0  0  0  0  0  0  0  0  0  0  0  0
   45.8810   33.2900   46.1390 C   0  0  0  0  0  0  0  0  0  0  0  0
   45.2230   34.3990   45.7000 C   0  0  0  0  0  0  0  0  0  0  0  0
  1  6  1  0  0  0  0
  2  3  1  0  0  0  0
  2  1  1  0  0  0  0
  3  9  1  0  0  0  0
  3  4  1  0  0  0  0
  4 11  1  0  0  0  0
  4  5  1  0  0  0  0
  5  6  1  0  0  0  0
  5 13  1  0  0  0  0
  6 15  1  1  0  0  0
  6 27  1  0  0  0  0
  7  2  1  0  0  0  0
  8  2  1  0  0  0  0
 10  3  1  0  0  0  0
 12  4  1  0  0  0  0
 14  5  1  0  0  0  0
 16 22  1  0  0  0  0
 17 16  1  0  0  0  0
 17 23  1  0  0  0  0
 18  1  1  0  0  0  0
 18 17  2  0  0  0  0
 19 20  2  0  0  0  0
 19 18  1  0  0  0  0
 20 21  1  0  0  0  0
 21 16  2  0  0  0  0
 24 20  1  0  0  0  0
 25 26  1  0  0  0  0
 26 33  1  0  0  0  0
 27 28  1  0  0  0  0
 27 26  2  0  0  0  0
 28 30  2  0  0  0  0
 29 28  1  0  0  0  0
 30 31  1  0  0  0  0
 30 32  1  0  0  0  0
 33 32  2  0  0  0  0
M  END
>  <minimizedAffinity>
-5.37383509

>  <minimizedRMSD>
4.71976089

$$$$
