REMARK  Name = 
REMARK  4 active torsions:
REMARK  status: ('A' for Active; 'I' for Inactive)
REMARK    1  A    between atoms: C_1  and  C_7
REMARK    2  A    between atoms: C_6  and  N_19
REMARK    3  A    between atoms: C_11  and  C_13
REMARK    4  A    between atoms: C_17  and  C_43
REMARK                            x       y       z     vdW  Elec       q    Type
REMARK                         _______ _______ _______ _____ _____    ______ ____
ROOT
ATOM      1  C   UNL     1      46.914  32.915  45.528  0.00  0.00    +0.000 A 
ATOM      2  C   UNL     1      45.802  33.591  46.017  0.00  0.00    +0.000 A 
ATOM      3  C   UNL     1      45.123  34.509  45.182  0.00  0.00    +0.000 A 
ATOM      4  N   UNL     1      45.635  34.676  43.898  0.00  0.00    +0.000 NA
ATOM      5  C   UNL     1      46.711  33.995  43.491  0.00  0.00    +0.000 A 
ATOM      6  N   UNL     1      47.337  33.132  44.289  0.00  0.00    +0.000 NA
ATOM      7  H   UNL     1      45.277  33.644  46.946  0.00  0.00    +0.000 HD
ATOM      8  H   UNL     1      44.265  35.105  45.387  0.00  0.00    +0.000 HD
ENDROOT
BRANCH   1   9
ATOM      9  C   UNL     1      47.560  31.965  46.411  0.00  0.00    +0.000 C 
ATOM     10  C   UNL     1      47.298  30.496  45.958  0.00  0.00    +0.000 C 
ATOM     11  C   UNL     1      48.107  29.568  46.797  0.00  0.00    +0.000 C 
ATOM     12  C   UNL     1      48.113  29.844  48.259  0.00  0.00    +0.000 C 
ATOM     13  C   UNL     1      48.124  31.243  48.606  0.00  0.00    +0.000 C 
ATOM     14  C   UNL     1      47.130  32.098  47.788  0.00  0.00    +0.000 C 
ATOM     15  H   UNL     1      48.671  32.030  46.315  0.00  0.00    +0.000 HD
ATOM     16  H   UNL     1      47.648  30.477  44.906  0.00  0.00    +0.000 HD
ATOM     17  H   UNL     1      46.231  30.278  45.923  0.00  0.00    +0.000 HD
ATOM     18  H   UNL     1      49.091  29.470  46.299  0.00  0.00    +0.000 HD
ATOM     19  H   UNL     1      47.638  28.548  46.673  0.00  0.00    +0.000 HD
ATOM     20  H   UNL     1      47.745  29.068  48.935  0.00  0.00    +0.000 HD
ATOM     21  H   UNL     1      49.227  29.592  48.486  0.00  0.00    +0.000 HD
ATOM     22  H   UNL     1      49.083  31.812  48.547  0.00  0.00    +0.000 HD
ATOM     23  H   UNL     1      47.760  31.372  49.657  0.00  0.00    +0.000 HD
ATOM     24  H   UNL     1      47.254  33.072  48.263  0.00  0.00    +0.000 HD
BRANCH  14  25
ATOM     25  N   UNL     1      45.789  31.532  47.953  0.00  0.00    +0.000 N 
ATOM     26  C   UNL     1      45.190  30.849  49.025  0.00  0.00    +0.000 C 
ATOM     27  O   UNL     1      44.758  31.443  50.078  0.00  0.00    +0.000 OA
ATOM     28  N   UNL     1      45.088  29.436  48.851  0.00  0.00    +0.000 N 
ATOM     29  H   UNL     1      45.062  31.530  47.142  0.00  0.00    +0.000 HD
ATOM     30  H   UNL     1      44.575  28.981  48.064  0.00  0.00    +0.000 HD
ATOM     31  H   UNL     1      45.331  28.483  49.207  0.00  0.00    +0.000 HD
ENDBRANCH  14  25
ENDBRANCH   1   9
BRANCH   5  32
ATOM     32  C   UNL     1      47.211  34.235  42.134  0.00  0.00    +0.000 A 
ATOM     33  C   UNL     1      48.189  35.173  41.892  0.00  0.00    +0.000 A 
ATOM     34  C   UNL     1      48.701  35.446  40.644  0.00  0.00    +0.000 A 
ATOM     35  C   UNL     1      48.156  34.696  39.607  0.00  0.00    +0.000 A 
ATOM     36  C   UNL     1      47.180  33.759  39.842  0.00  0.00    +0.000 A 
ATOM     37  N   UNL     1      46.714  33.535  41.101  0.00  0.00    +0.000 NA
ATOM     38  H   UNL     1      48.588  35.738  42.728  0.00  0.00    +0.000 HD
ATOM     39  H   UNL     1      49.463  36.177  40.457  0.00  0.00    +0.000 HD
ATOM     40  H   UNL     1      48.547  34.897  38.620  0.00  0.00    +0.000 HD
BRANCH  36  43
ATOM     41 CL   UNL     1      49.134  32.619  37.896  0.00  0.00    +0.000 Cl
ATOM     42  C   UNL     1      47.389  32.381  37.794  0.00  0.00    +0.000 A 
ATOM     43  C   UNL     1      46.602  32.967  38.764  0.00  0.00    +0.000 A 
ATOM     44  C   UNL     1      45.255  32.724  38.600  0.00  0.00    +0.000 A 
ATOM     45  H   UNL     1      44.560  33.144  39.313  0.00  0.00    +0.000 HD
ATOM     46  C   UNL     1      44.739  31.969  37.567  0.00  0.00    +0.000 A 
ATOM     47  H   UNL     1      43.667  31.829  37.513  0.00  0.00    +0.000 HD
ATOM     48  C   UNL     1      45.583  31.411  36.630  0.00  0.00    +0.000 A 
ATOM     49  C   UNL     1      46.941  31.617  36.740  0.00  0.00    +0.000 A 
ENDBRANCH  36  43
ENDBRANCH   5  32
TORSDOF 4
