
 OpenBabel03252509233D

 27 29  0  0  1  0  0  0  0  0999 V2000
   46.5750   34.7940   41.9950 C   0  0  1  0  0  0  0  0  0  0  0  0
   48.0460   35.2940   42.0110 C   0  0  0  0  0  0  0  0  0  0  0  0
   47.5810   33.8530   41.6560 C   0  0  2  0  0  0  0  0  0  0  0  0
   45.9390   35.3600   41.2880 H   0  0  0  0  0  0  0  0  0  0  0  0
   48.3450   35.9320   41.1780 H   0  0  0  0  0  0  0  0  0  0  0  0
   48.5480   35.4650   42.9550 H   0  0  0  0  0  0  0  0  0  0  0  0
   47.8990   33.1210   42.4400 H   0  0  0  0  0  0  0  0  0  0  0  0
   50.1740   32.3070   41.1920 Cl  0  0  0  0  0  0  0  0  0  0  0  0
   48.9880   32.6540   39.9490 C   0  0  0  0  0  0  0  0  0  0  0  0
   47.8660   33.3580   40.2900 C   0  0  0  0  0  0  0  0  0  0  0  0
   46.8990   33.6540   39.3280 C   0  0  0  0  0  0  0  0  0  0  0  0
   45.9770   34.1990   39.4730 H   0  0  0  0  0  0  0  0  0  0  0  0
   47.1040   33.2210   38.0340 C   0  0  0  0  0  0  0  0  0  0  0  0
   46.4050   33.4090   37.2330 H   0  0  0  0  0  0  0  0  0  0  0  0
   48.2560   32.5040   37.7110 C   0  0  0  0  0  3  0  0  0  0  0  0
   49.2260   32.2040   38.6640 C   0  0  0  0  0  3  0  0  0  0  0  0
   44.5420   35.5920   45.0510 C   0  0  0  0  0  0  0  0  0  0  0  0
   45.0800   35.7190   43.7250 C   0  0  0  0  0  0  0  0  0  0  0  0
   46.0160   34.7730   43.4000 C   0  0  0  0  0  0  0  0  0  0  0  0
   46.4040   33.7850   44.2840 N   0  0  0  0  0  0  0  0  0  0  0  0
   45.8680   33.7120   45.5170 C   0  0  0  0  0  0  0  0  0  0  0  0
   44.9390   34.6100   45.9030 N   0  0  0  0  0  0  0  0  0  0  0  0
   43.8000   36.3400   45.3100 H   0  0  0  0  0  0  0  0  0  0  0  0
   46.1480   32.9520   46.2310 H   0  0  0  0  0  0  0  0  0  0  0  0
   44.6810   36.7520   42.8420 N   0  0  0  0  0  0  0  0  0  0  0  0
   44.3080   36.3960   41.9480 H   0  0  0  0  0  0  0  0  0  0  0  0
   44.6910   37.7930   42.9240 H   0  0  0  0  0  0  0  0  0  0  0  0
  1  4  1  6  0  0  0
  1  2  1  0  0  0  0
  1 19  1  0  0  0  0
  2  6  1  0  0  0  0
  3  1  1  0  0  0  0
  3  2  1  0  0  0  0
  3  7  1  1  0  0  0
  5  2  1  0  0  0  0
  9 10  1  0  0  0  0
  9  8  1  0  0  0  0
 10  3  1  0  0  0  0
 11 12  1  0  0  0  0
 11 10  2  0  0  0  0
 13 11  1  0  0  0  0
 14 13  1  0  0  0  0
 15 13  2  0  0  0  0
 15 16  1  0  0  0  0
 16  9  2  0  0  0  0
 17 23  1  0  0  0  0
 17 22  1  0  0  0  0
 18 17  2  0  0  0  0
 19 18  1  0  0  0  0
 19 20  2  0  0  0  0
 20 21  1  0  0  0  0
 21 22  2  0  0  0  0
 21 24  1  0  0  0  0
 25 27  1  0  0  0  0
 25 18  1  0  0  0  0
 26 25  1  0  0  0  0
M  END
>  <minimizedAffinity>
-5.0307641

>  <minimizedRMSD>
0.586151123

$$$$
