
     RDKit          3D

 41 44  0  0  0  0  0  0  0  0999 V2000
   47.1577   31.2826   46.7129 C   0  0  0  0  0  0  0  0  0  0  0  0
   46.7800   31.7704   48.0891 C   0  0  1  0  0  0  0  0  0  0  0  0
   46.1832   30.7626   49.0107 C   0  0  0  0  0  0  0  0  0  0  0  0
   47.5197   31.2623   49.2678 C   0  0  1  0  0  0  0  0  0  0  0  0
   48.7668   30.5042   49.0381 C   0  0  0  0  0  0  0  0  0  0  0  0
   49.5844   30.2322   50.3329 C   0  0  0  0  0  0  0  0  0  0  0  0
   50.0840   31.2540   49.3669 C   0  0  0  0  0  0  0  0  0  0  0  0
   45.9304   33.1388   45.9056 C   0  0  0  0  0  0  0  0  0  0  0  0
   46.9516   32.4030   45.7003 C   0  0  0  0  0  0  0  0  0  0  0  0
   44.5122   36.1612   44.3542 C   0  0  0  0  0  0  0  0  0  0  0  0
   45.1268   36.1787   43.0873 C   0  0  0  0  0  0  0  0  0  0  0  0
   46.0095   35.1756   42.8182 C   0  0  0  0  0  0  0  0  0  0  0  0
   46.2064   34.2620   43.7906 N   0  0  0  0  0  0  0  0  0  0  0  0
   45.6376   34.2290   44.9827 C   0  0  0  0  0  0  0  0  0  0  0  0
   44.7875   35.1973   45.2464 N   0  0  0  0  0  0  0  0  0  0  0  0
   46.5986   30.3872   46.4140 H   0  0  0  0  0  0  0  0  0  0  0  0
   48.2433   31.0358   46.6977 H   0  0  0  0  0  0  0  0  0  0  0  0
   46.3585   32.7929   48.1540 H   0  0  0  0  0  0  0  0  0  0  0  0
   46.0400   29.7210   48.6171 H   0  0  0  0  0  0  0  0  0  0  0  0
   45.3485   31.0613   49.6889 H   0  0  0  0  0  0  0  0  0  0  0  0
   47.6109   32.0048   50.1190 H   0  0  0  0  0  0  0  0  0  0  0  0
   48.8353   29.7146   48.2709 H   0  0  0  0  0  0  0  0  0  0  0  0
   50.0473   29.2440   50.4111 H   0  0  0  0  0  0  0  0  0  0  0  0
   49.1633   30.5935   51.2884 H   0  0  0  0  0  0  0  0  0  0  0  0
   49.9650   32.3111   49.6780 H   0  0  0  0  0  0  0  0  0  0  0  0
   50.9955   30.9612   48.8357 H   0  0  0  0  0  0  0  0  0  0  0  0
   45.1697   33.0899   46.7046 H   0  0  0  0  0  0  0  0  0  0  0  0
   47.6177   32.5687   44.8663 H   0  0  0  0  0  0  0  0  0  0  0  0
   43.7997   36.9514   44.6057 H   0  0  0  0  0  0  0  0  0  0  0  0
   44.9056   36.9250   42.3700 H   0  0  0  0  0  0  0  0  0  0  0  0
   44.6835   33.9967   40.2237 Cl  0  0  0  0  0  0  0  0  0  0  0  0
   46.3515   34.4544   40.3988 C   0  0  0  0  0  0  0  0  0  0  0  0
   46.7486   34.9561   41.6072 C   0  0  0  0  0  0  0  0  0  0  0  0
   48.1017   35.3082   41.5692 C   0  0  0  0  0  0  0  0  0  0  0  0
   48.6038   35.7283   42.4396 H   0  0  0  0  0  0  0  0  0  0  0  0
   48.9264   35.1724   40.4772 C   0  0  0  0  0  0  0  0  0  0  0  0
   49.9535   35.4571   40.5042 H   0  0  0  0  0  0  0  0  0  0  0  0
   48.4304   34.6544   39.3042 C   0  0  0  0  0  0  0  0  0  0  0  0
   47.1063   34.2892   39.2763 C   0  0  0  0  0  0  0  0  0  0  0  0
   49.0877   34.5531   38.4563 H   0  0  0  0  0  0  0  0  0  0  0  0
   46.7364   33.8897   38.3610 H   0  0  0  0  0  0  0  0  0  0  0  0
  1  2  1  0
  2  3  1  0
  2  4  1  0
  3  4  1  0
  5  4  1  0
  5  7  1  0
  5  6  1  0
  7  6  1  0
  9  8  2  0
  9  1  1  0
 10 15  2  0
 11 10  1  0
 12 11  2  0
 12 13  1  0
 13 14  2  0
 14 15  1  0
 14  8  1  0
  1 16  1  0
  1 17  1  0
  2 18  1  6
  3 19  1  0
  3 20  1  0
  4 21  1  1
  5 22  1  0
  6 23  1  0
  6 24  1  0
  7 25  1  0
  7 26  1  0
  8 27  1  0
  9 28  1  0
 10 29  1  0
 11 30  1  0
 31 32  1  0
 32 33  2  0
 33 34  1  0
 34 35  1  0
 34 36  2  0
 36 37  1  0
 36 38  1  0
 38 39  2  0
 39 32  1  0
 38 40  1  0
 39 41  1  0
 12 33  1  0
M  ISO  8  16   8  17   8  18  13  19  13  20  13  21  13  22  13  23  13
M  ISO  7  24  13  25  13  26  13  29  14  30  14  35  15  37  16
M  END
>  <DihAtoms>  (1) 
10,11,32,31

>  <DihDeg>  (1) 
13.79801233070012

$$$$
