
 OpenBabel03252507583D

 27 29  0  0  1  0  0  0  0  0999 V2000
   38.0770   28.5630   42.3300 C   0  0  1  0  0  0  0  0  0  0  0  0
   37.3060   28.2510   43.5630 C   0  0  0  0  0  0  0  0  0  0  0  0
   36.7940   27.7820   42.2860 C   0  0  2  0  0  0  0  0  0  0  0  0
   39.0730   28.1250   42.2440 H   0  0  0  0  0  0  0  0  0  0  0  0
   36.7900   29.1410   44.0120 H   0  0  0  0  0  0  0  0  0  0  0  0
   37.8550   27.7070   44.3230 H   0  0  0  0  0  0  0  0  0  0  0  0
   35.8730   28.3060   41.8880 H   0  0  0  0  0  0  0  0  0  0  0  0
   36.3890   27.4440   39.2400 Cl  0  0  0  0  0  0  0  0  0  0  0  0
   36.8160   26.1460   40.3240 C   0  0  0  0  0  0  0  0  0  0  0  0
   36.9570   26.4880   41.6490 C   0  0  0  0  0  0  0  0  0  0  0  0
   37.3030   25.4110   42.4790 C   0  0  0  0  0  0  0  0  0  0  0  0
   37.4430   25.5680   43.5580 H   0  0  0  0  0  0  0  0  0  0  0  0
   37.4840   24.1320   42.0100 C   0  0  0  0  0  0  0  0  0  0  0  0
   37.7490   23.3360   42.6840 H   0  0  0  0  0  0  0  0  0  0  0  0
   37.3240   23.8670   40.6660 C   0  0  0  0  0  3  0  0  0  0  0  0
   36.9840   24.8850   39.8000 C   0  0  0  0  0  3  0  0  0  0  0  0
   39.0210   31.8250   40.9620 C   0  0  0  0  0  0  0  0  0  0  0  0
   37.7970   32.3620   40.4960 C   0  0  0  0  0  0  0  0  0  0  0  0
   36.6510   31.5670   40.6670 C   0  0  0  0  0  0  0  0  0  0  0  0
   36.7860   30.3470   41.2620 N   0  0  0  0  0  0  0  0  0  0  0  0
   37.9980   29.9030   41.6830 C   0  0  0  0  0  0  0  0  0  0  0  0
   39.1110   30.6080   41.5470 N   0  0  0  0  0  0  0  0  0  0  0  0
   37.7500   33.3340   40.0310 H   0  0  0  0  0  0  0  0  0  0  0  0
   35.6940   31.9340   40.3260 H   0  0  0  0  0  0  0  0  0  0  0  0
   40.1620   32.6790   40.7700 C   0  0  0  0  0  0  0  0  0  0  0  0
   40.1000   33.9130   40.4710 O   0  0  0  0  0  0  0  0  0  0  0  0
   41.2330   32.4410   40.8400 H   0  0  0  0  0  0  0  0  0  0  0  0
  1  4  1  6  0  0  0
  1  2  1  0  0  0  0
  2  5  1  0  0  0  0
  2  6  1  0  0  0  0
  3  7  1  6  0  0  0
  3  1  1  0  0  0  0
  3  2  1  0  0  0  0
  8  9  1  0  0  0  0
  9 10  1  0  0  0  0
 10  3  1  0  0  0  0
 10 11  2  0  0  0  0
 11 12  1  0  0  0  0
 13 11  1  0  0  0  0
 13 14  1  0  0  0  0
 15 13  2  0  0  0  0
 16  9  2  0  0  0  0
 16 15  1  0  0  0  0
 17 22  1  0  0  0  0
 18 19  1  0  0  0  0
 18 17  2  0  0  0  0
 19 20  2  0  0  0  0
 20 21  1  0  0  0  0
 21  1  1  0  0  0  0
 22 21  2  0  0  0  0
 23 18  1  0  0  0  0
 24 19  1  0  0  0  0
 25 27  1  0  0  0  0
 25 17  1  0  0  0  0
 26 25  2  0  0  0  0
M  END
>  <minimizedAffinity>
-5.11309767

$$$$

 OpenBabel03252507583D

 27 29  0  0  1  0  0  0  0  0999 V2000
   39.3460   28.8300   41.5840 C   0  0  1  0  0  0  0  0  0  0  0  0
   40.1170   28.8750   42.8550 C   0  0  0  0  0  0  0  0  0  0  0  0
   38.8470   28.1680   42.8370 C   0  0  2  0  0  0  0  0  0  0  0  0
   39.8060   28.3040   40.7450 H   0  0  0  0  0  0  0  0  0  0  0  0
   40.1210   29.8830   43.3480 H   0  0  0  0  0  0  0  0  0  0  0  0
   41.1240   28.4770   42.7970 H   0  0  0  0  0  0  0  0  0  0  0  0
   37.9870   28.6590   43.3850 H   0  0  0  0  0  0  0  0  0  0  0  0
   40.9220   26.0380   43.6790 Cl  0  0  0  0  0  0  0  0  0  0  0  0
   39.3810   25.6720   42.9510 C   0  0  0  0  0  0  0  0  0  0  0  0
   38.5850   26.7530   42.6470 C   0  0  0  0  0  0  0  0  0  0  0  0
   37.3560   26.4060   42.0660 C   0  0  0  0  0  0  0  0  0  0  0  0
   36.6390   27.1900   41.7820 H   0  0  0  0  0  0  0  0  0  0  0  0
   36.9820   25.1070   41.8240 C   0  0  0  0  0  0  0  0  0  0  0  0
   36.0280   24.8870   41.3770 H   0  0  0  0  0  0  0  0  0  0  0  0
   37.8360   24.0750   42.1580 C   0  0  0  0  0  3  0  0  0  0  0  0
   39.0580   24.3530   42.7310 C   0  0  0  0  0  3  0  0  0  0  0  0
   38.3090   32.2320   40.7170 C   0  0  0  0  0  0  0  0  0  0  0  0
   36.9620   32.0790   40.3090 C   0  0  0  0  0  0  0  0  0  0  0  0
   36.4340   30.7780   40.3420 C   0  0  0  0  0  0  0  0  0  0  0  0
   37.2380   29.7580   40.7590 N   0  0  0  0  0  0  0  0  0  0  0  0
   38.5220   29.9860   41.1350 C   0  0  0  0  0  0  0  0  0  0  0  0
   39.0720   31.1910   41.1240 N   0  0  0  0  0  0  0  0  0  0  0  0
   36.3720   32.9240   39.9870 H   0  0  0  0  0  0  0  0  0  0  0  0
   35.4110   30.6120   40.0390 H   0  0  0  0  0  0  0  0  0  0  0  0
   38.8000   33.5830   40.6720 C   0  0  0  0  0  0  0  0  0  0  0  0
   39.7440   33.9850   39.9210 O   0  0  0  0  0  0  0  0  0  0  0  0
   38.4730   34.4650   41.2420 H   0  0  0  0  0  0  0  0  0  0  0  0
  1  4  1  6  0  0  0
  1  3  1  0  0  0  0
  1  2  1  0  0  0  0
  2  5  1  0  0  0  0
  3  2  1  0  0  0  0
  3  7  1  1  0  0  0
  6  2  1  0  0  0  0
  9  8  1  0  0  0  0
 10  3  1  0  0  0  0
 10  9  2  0  0  0  0
 11 10  1  0  0  0  0
 12 11  1  0  0  0  0
 13 11  2  0  0  0  0
 13 15  1  0  0  0  0
 14 13  1  0  0  0  0
 15 16  2  0  0  0  0
 16  9  1  0  0  0  0
 17 22  1  0  0  0  0
 18 19  1  0  0  0  0
 18 17  2  0  0  0  0
 19 20  2  0  0  0  0
 20 21  1  0  0  0  0
 21  1  1  0  0  0  0
 22 21  2  0  0  0  0
 23 18  1  0  0  0  0
 24 19  1  0  0  0  0
 25 17  1  0  0  0  0
 25 27  1  0  0  0  0
 26 25  2  0  0  0  0
M  END
>  <minimizedAffinity>
-4.99958849

$$$$

 OpenBabel03252507583D

 27 29  0  0  1  0  0  0  0  0999 V2000
   38.4420   28.9490   43.2020 C   0  0  1  0  0  0  0  0  0  0  0  0
   37.7010   27.6940   43.4970 C   0  0  0  0  0  0  0  0  0  0  0  0
   38.8760   27.6240   42.6430 C   0  0  2  0  0  0  0  0  0  0  0  0
   38.9180   29.4530   44.0460 H   0  0  0  0  0  0  0  0  0  0  0  0
   36.7060   27.6230   42.9830 H   0  0  0  0  0  0  0  0  0  0  0  0
   37.6030   27.4540   44.5490 H   0  0  0  0  0  0  0  0  0  0  0  0
   38.6920   27.4300   41.5440 H   0  0  0  0  0  0  0  0  0  0  0  0
   39.7030   24.7270   43.3320 Cl  0  0  0  0  0  0  0  0  0  0  0  0
   40.7970   26.0850   43.3290 C   0  0  0  0  0  0  0  0  0  0  0  0
   40.2480   27.3010   42.9930 C   0  0  0  0  0  0  0  0  0  0  0  0
   41.1670   28.3600   43.0020 C   0  0  0  0  0  0  0  0  0  0  0  0
   40.8400   29.3790   42.7480 H   0  0  0  0  0  0  0  0  0  0  0  0
   42.4940   28.1970   43.3190 C   0  0  0  0  0  0  0  0  0  0  0  0
   43.1640   29.0390   43.3130 H   0  0  0  0  0  0  0  0  0  0  0  0
   42.9710   26.9450   43.6460 C   0  0  0  0  0  3  0  0  0  0  0  0
   42.1150   25.8640   43.6550 C   0  0  0  0  0  3  0  0  0  0  0  0
   38.3320   31.7170   40.8090 C   0  0  0  0  0  0  0  0  0  0  0  0
   37.0130   31.6670   40.2960 C   0  0  0  0  0  0  0  0  0  0  0  0
   36.1760   30.6570   40.7990 C   0  0  0  0  0  0  0  0  0  0  0  0
   36.6780   29.8000   41.7350 N   0  0  0  0  0  0  0  0  0  0  0  0
   37.9570   29.9140   42.1760 C   0  0  0  0  0  0  0  0  0  0  0  0
   38.7890   30.8460   41.7370 N   0  0  0  0  0  0  0  0  0  0  0  0
   36.6700   32.3720   39.5550 H   0  0  0  0  0  0  0  0  0  0  0  0
   35.1610   30.5780   40.4380 H   0  0  0  0  0  0  0  0  0  0  0  0
   39.1450   32.7730   40.2680 C   0  0  0  0  0  0  0  0  0  0  0  0
   38.7720   33.9830   40.1450 O   0  0  0  0  0  0  0  0  0  0  0  0
   40.1740   32.7350   39.8830 H   0  0  0  0  0  0  0  0  0  0  0  0
  1  2  1  0  0  0  0
  1  4  1  1  0  0  0
  2  6  1  0  0  0  0
  3  7  1  6  0  0  0
  3 10  1  0  0  0  0
  3  1  1  0  0  0  0
  3  2  1  0  0  0  0
  5  2  1  0  0  0  0
  9  8  1  0  0  0  0
  9 16  1  0  0  0  0
 10 11  1  0  0  0  0
 10  9  2  0  0  0  0
 11 13  2  0  0  0  0
 12 11  1  0  0  0  0
 13 15  1  0  0  0  0
 14 13  1  0  0  0  0
 15 16  2  0  0  0  0
 17 22  1  0  0  0  0
 18 19  1  0  0  0  0
 18 17  2  0  0  0  0
 19 20  2  0  0  0  0
 20 21  1  0  0  0  0
 21  1  1  0  0  0  0
 22 21  2  0  0  0  0
 23 18  1  0  0  0  0
 24 19  1  0  0  0  0
 25 17  1  0  0  0  0
 26 25  2  0  0  0  0
 27 25  1  0  0  0  0
M  END
>  <minimizedAffinity>
-4.99232435

$$$$

 OpenBabel03252507583D

 27 29  0  0  1  0  0  0  0  0999 V2000
   38.8870   30.0970   42.5760 C   0  0  1  0  0  0  0  0  0  0  0  0
   40.3060   30.5370   42.5130 C   0  0  0  0  0  0  0  0  0  0  0  0
   39.5200   30.5460   41.2900 C   0  0  2  0  0  0  0  0  0  0  0  0
   38.2070   30.7040   43.1780 H   0  0  0  0  0  0  0  0  0  0  0  0
   41.0450   29.6990   42.6250 H   0  0  0  0  0  0  0  0  0  0  0  0
   40.5630   31.3600   43.1700 H   0  0  0  0  0  0  0  0  0  0  0  0
   39.7710   29.7530   40.5220 H   0  0  0  0  0  0  0  0  0  0  0  0
   37.2590   30.0090   39.2520 Cl  0  0  0  0  0  0  0  0  0  0  0  0
   37.7750   31.5990   39.7490 C   0  0  0  0  0  0  0  0  0  0  0  0
   38.7960   31.6410   40.6710 C   0  0  0  0  0  0  0  0  0  0  0  0
   39.1730   32.9410   41.0400 C   0  0  0  0  0  0  0  0  0  0  0  0
   39.9800   33.0950   41.7710 H   0  0  0  0  0  0  0  0  0  0  0  0
   38.5760   34.0670   40.5280 C   0  0  0  0  0  0  0  0  0  0  0  0
   38.8980   35.0460   40.8410 H   0  0  0  0  0  0  0  0  0  0  0  0
   37.5570   33.9430   39.6070 C   0  0  0  0  0  3  0  0  0  0  0  0
   37.1430   32.6920   39.2040 C   0  0  0  0  0  3  0  0  0  0  0  0
   39.0730   26.4730   43.0570 C   0  0  0  0  0  0  0  0  0  0  0  0
   37.8040   26.0110   42.6320 C   0  0  0  0  0  0  0  0  0  0  0  0
   36.8950   26.9830   42.1820 C   0  0  0  0  0  0  0  0  0  0  0  0
   37.2840   28.2900   42.1810 N   0  0  0  0  0  0  0  0  0  0  0  0
   38.5220   28.6530   42.6050 C   0  0  0  0  0  0  0  0  0  0  0  0
   39.4190   27.7810   43.0400 N   0  0  0  0  0  0  0  0  0  0  0  0
   37.5500   24.9620   42.6550 H   0  0  0  0  0  0  0  0  0  0  0  0
   35.9140   26.6790   41.8480 H   0  0  0  0  0  0  0  0  0  0  0  0
   39.9690   25.4390   43.5010 C   0  0  0  0  0  0  0  0  0  0  0  0
   39.8470   24.2050   43.2190 O   0  0  0  0  0  0  0  0  0  0  0  0
   40.8690   25.5160   44.1280 H   0  0  0  0  0  0  0  0  0  0  0  0
  1 21  1  0  0  0  0
  1  4  1  1  0  0  0
  2  1  1  0  0  0  0
  2  5  1  0  0  0  0
  2  6  1  0  0  0  0
  3  7  1  6  0  0  0
  3  2  1  0  0  0  0
  3  1  1  0  0  0  0
  8  9  1  0  0  0  0
  9 10  1  0  0  0  0
 10 11  2  0  0  0  0
 10  3  1  0  0  0  0
 11 12  1  0  0  0  0
 13 14  1  0  0  0  0
 13 11  1  0  0  0  0
 15 13  2  0  0  0  0
 16 15  1  0  0  0  0
 16  9  2  0  0  0  0
 17 25  1  0  0  0  0
 18 23  1  0  0  0  0
 18 17  2  0  0  0  0
 19 18  1  0  0  0  0
 20 19  2  0  0  0  0
 20 21  1  0  0  0  0
 21 22  2  0  0  0  0
 22 17  1  0  0  0  0
 24 19  1  0  0  0  0
 25 27  1  0  0  0  0
 26 25  2  0  0  0  0
M  END
>  <minimizedAffinity>
-4.95905399

$$$$

 OpenBabel03252507583D

 27 29  0  0  1  0  0  0  0  0999 V2000
   38.6860   29.0640   41.7190 C   0  0  1  0  0  0  0  0  0  0  0  0
   38.4980   29.2520   43.1820 C   0  0  0  0  0  0  0  0  0  0  0  0
   37.6940   28.2500   42.5010 C   0  0  2  0  0  0  0  0  0  0  0  0
   39.6610   28.7020   41.3880 H   0  0  0  0  0  0  0  0  0  0  0  0
   37.9780   30.2100   43.4530 H   0  0  0  0  0  0  0  0  0  0  0  0
   39.3920   29.1240   43.7820 H   0  0  0  0  0  0  0  0  0  0  0  0
   36.5960   28.4880   42.3670 H   0  0  0  0  0  0  0  0  0  0  0  0
   40.2280   26.9300   43.6800 Cl  0  0  0  0  0  0  0  0  0  0  0  0
   38.9820   26.0660   42.8170 C   0  0  0  0  0  0  0  0  0  0  0  0
   37.9240   26.8230   42.3680 C   0  0  0  0  0  0  0  0  0  0  0  0
   36.9480   26.0840   41.6840 C   0  0  0  0  0  0  0  0  0  0  0  0
   36.0560   26.5850   41.2810 H   0  0  0  0  0  0  0  0  0  0  0  0
   37.0410   24.7280   41.4820 C   0  0  0  0  0  0  0  0  0  0  0  0
   36.2670   24.2010   40.9510 H   0  0  0  0  0  0  0  0  0  0  0  0
   38.1340   24.0370   41.9630 C   0  0  0  0  0  3  0  0  0  0  0  0
   39.1270   24.7100   42.6430 C   0  0  0  0  0  3  0  0  0  0  0  0
   37.0880   30.3570   38.6900 C   0  0  0  0  0  0  0  0  0  0  0  0
   36.9500   31.7420   38.9470 C   0  0  0  0  0  0  0  0  0  0  0  0
   37.4210   32.2060   40.1860 C   0  0  0  0  0  0  0  0  0  0  0  0
   37.9730   31.3080   41.0520 N   0  0  0  0  0  0  0  0  0  0  0  0
   38.0690   29.9920   40.7310 C   0  0  0  0  0  0  0  0  0  0  0  0
   37.6420   29.4990   39.5780 N   0  0  0  0  0  0  0  0  0  0  0  0
   36.5040   32.4070   38.2230 H   0  0  0  0  0  0  0  0  0  0  0  0
   37.3370   33.2550   40.4280 H   0  0  0  0  0  0  0  0  0  0  0  0
   36.5970   29.9340   37.4060 C   0  0  0  0  0  0  0  0  0  0  0  0
   35.4400   29.4510   37.1960 O   0  0  0  0  0  0  0  0  0  0  0  0
   37.0990   29.9470   36.4270 H   0  0  0  0  0  0  0  0  0  0  0  0
  1  4  1  6  0  0  0
  1  3  1  0  0  0  0
  1  2  1  0  0  0  0
  2  5  1  0  0  0  0
  2  6  1  0  0  0  0
  3  7  1  6  0  0  0
  3  2  1  0  0  0  0
  9  8  1  0  0  0  0
 10  3  1  0  0  0  0
 10  9  2  0  0  0  0
 11 10  1  0  0  0  0
 12 11  1  0  0  0  0
 13 11  2  0  0  0  0
 13 15  1  0  0  0  0
 14 13  1  0  0  0  0
 15 16  2  0  0  0  0
 16  9  1  0  0  0  0
 17 18  2  0  0  0  0
 17 22  1  0  0  0  0
 18 19  1  0  0  0  0
 19 24  1  0  0  0  0
 19 20  2  0  0  0  0
 21 20  1  0  0  0  0
 21  1  1  0  0  0  0
 22 21  2  0  0  0  0
 23 18  1  0  0  0  0
 25 17  1  0  0  0  0
 26 25  2  0  0  0  0
 27 25  1  0  0  0  0
M  END
>  <minimizedAffinity>
-4.91992617

$$$$

 OpenBabel03252507583D

 27 29  0  0  1  0  0  0  0  0999 V2000
   37.2540   29.2410   42.0460 C   0  0  1  0  0  0  0  0  0  0  0  0
   36.1550   28.4430   41.4390 C   0  0  0  0  0  0  0  0  0  0  0  0
   37.5260   28.0030   41.2390 C   0  0  2  0  0  0  0  0  0  0  0  0
   37.2860   29.2910   43.1360 H   0  0  0  0  0  0  0  0  0  0  0  0
   35.6590   28.9450   40.5660 H   0  0  0  0  0  0  0  0  0  0  0  0
   35.4120   28.0770   42.1380 H   0  0  0  0  0  0  0  0  0  0  0  0
   37.9530   28.1360   40.1990 H   0  0  0  0  0  0  0  0  0  0  0  0
   36.9220   24.9840   40.9710 Cl  0  0  0  0  0  0  0  0  0  0  0  0
   38.1690   25.6490   41.9940 C   0  0  0  0  0  0  0  0  0  0  0  0
   38.2930   27.0190   41.9800 C   0  0  0  0  0  0  0  0  0  0  0  0
   39.3100   27.5040   42.8160 C   0  0  0  0  0  0  0  0  0  0  0  0
   39.5010   28.5840   42.8840 H   0  0  0  0  0  0  0  0  0  0  0  0
   40.1080   26.6840   43.5770 C   0  0  0  0  0  0  0  0  0  0  0  0
   40.8770   27.1010   44.2040 H   0  0  0  0  0  0  0  0  0  0  0  0
   39.9220   25.3180   43.5370 C   0  0  0  0  0  3  0  0  0  0  0  0
   38.9370   24.7810   42.7350 C   0  0  0  0  0  3  0  0  0  0  0  0
   39.4440   31.9650   40.9560 C   0  0  0  0  0  0  0  0  0  0  0  0
   38.5780   32.8280   40.2420 C   0  0  0  0  0  0  0  0  0  0  0  0
   37.2310   32.4400   40.1510 C   0  0  0  0  0  0  0  0  0  0  0  0
   36.8470   31.2740   40.7460 N   0  0  0  0  0  0  0  0  0  0  0  0
   37.7390   30.5000   41.4140 C   0  0  0  0  0  0  0  0  0  0  0  0
   39.0200   30.8160   41.5320 N   0  0  0  0  0  0  0  0  0  0  0  0
   38.9400   33.7390   39.7900 H   0  0  0  0  0  0  0  0  0  0  0  0
   36.5330   33.0660   39.6150 H   0  0  0  0  0  0  0  0  0  0  0  0
   40.8100   32.4100   41.0260 C   0  0  0  0  0  0  0  0  0  0  0  0
   41.4980   32.7950   40.0290 O   0  0  0  0  0  0  0  0  0  0  0  0
   41.4730   32.4940   41.8990 H   0  0  0  0  0  0  0  0  0  0  0  0
  1  4  1  1  0  0  0
  2  1  1  0  0  0  0
  2  6  1  0  0  0  0
  3  7  1  6  0  0  0
  3  2  1  0  0  0  0
  3 10  1  0  0  0  0
  3  1  1  0  0  0  0
  5  2  1  0  0  0  0
  8  9  1  0  0  0  0
  9 16  1  0  0  0  0
 10  9  2  0  0  0  0
 10 11  1  0  0  0  0
 11 12  1  0  0  0  0
 11 13  2  0  0  0  0
 13 14  1  0  0  0  0
 15 13  1  0  0  0  0
 16 15  2  0  0  0  0
 17 25  1  0  0  0  0
 17 22  1  0  0  0  0
 18 17  2  0  0  0  0
 19 18  1  0  0  0  0
 19 20  2  0  0  0  0
 20 21  1  0  0  0  0
 21 22  2  0  0  0  0
 21  1  1  0  0  0  0
 23 18  1  0  0  0  0
 24 19  1  0  0  0  0
 25 27  1  0  0  0  0
 26 25  2  0  0  0  0
M  END
>  <minimizedAffinity>
-4.87974691

$$$$

 OpenBabel03252507583D

 27 29  0  0  1  0  0  0  0  0999 V2000
   38.4690   29.0150   42.9480 C   0  0  1  0  0  0  0  0  0  0  0  0
   37.5230   28.1300   43.6800 C   0  0  0  0  0  0  0  0  0  0  0  0
   38.2130   27.5990   42.5150 C   0  0  2  0  0  0  0  0  0  0  0  0
   39.3560   29.3470   43.4900 H   0  0  0  0  0  0  0  0  0  0  0  0
   36.4440   28.4050   43.5390 H   0  0  0  0  0  0  0  0  0  0  0  0
   37.7440   27.9900   44.7320 H   0  0  0  0  0  0  0  0  0  0  0  0
   37.5860   27.4380   41.5860 H   0  0  0  0  0  0  0  0  0  0  0  0
   39.9210   27.5290   39.9410 Cl  0  0  0  0  0  0  0  0  0  0  0  0
   40.3100   26.6570   41.4000 C   0  0  0  0  0  0  0  0  0  0  0  0
   39.4320   26.8140   42.4480 C   0  0  0  0  0  0  0  0  0  0  0  0
   39.7880   26.0950   43.5990 C   0  0  0  0  0  0  0  0  0  0  0  0
   39.1590   26.1460   44.4990 H   0  0  0  0  0  0  0  0  0  0  0  0
   40.9120   25.3090   43.6720 C   0  0  0  0  0  0  0  0  0  0  0  0
   41.1480   24.7750   44.5760 H   0  0  0  0  0  0  0  0  0  0  0  0
   41.7460   25.2020   42.5770 C   0  0  0  0  0  3  0  0  0  0  0  0
   41.4470   25.8840   41.4170 C   0  0  0  0  0  3  0  0  0  0  0  0
   38.3680   31.9120   40.7130 C   0  0  0  0  0  0  0  0  0  0  0  0
   37.0380   31.9150   40.2250 C   0  0  0  0  0  0  0  0  0  0  0  0
   36.1920   30.8950   40.6880 C   0  0  0  0  0  0  0  0  0  0  0  0
   36.6940   29.9790   41.5650 N   0  0  0  0  0  0  0  0  0  0  0  0
   37.9830   30.0440   41.9860 C   0  0  0  0  0  0  0  0  0  0  0  0
   38.8250   30.9830   41.5830 N   0  0  0  0  0  0  0  0  0  0  0  0
   36.6960   32.6670   39.5300 H   0  0  0  0  0  0  0  0  0  0  0  0
   35.1690   30.8550   40.3440 H   0  0  0  0  0  0  0  0  0  0  0  0
   39.1910   32.9810   40.2140 C   0  0  0  0  0  0  0  0  0  0  0  0
   38.7810   34.1610   39.9790 O   0  0  0  0  0  0  0  0  0  0  0  0
   40.2600   32.9780   39.9580 H   0  0  0  0  0  0  0  0  0  0  0  0
  1  4  1  1  0  0  0
  1  2  1  0  0  0  0
  2  6  1  0  0  0  0
  3  7  1  6  0  0  0
  3  1  1  0  0  0  0
  3  2  1  0  0  0  0
  5  2  1  0  0  0  0
  8  9  1  0  0  0  0
  9 16  2  0  0  0  0
  9 10  1  0  0  0  0
 10  3  1  0  0  0  0
 10 11  2  0  0  0  0
 11 13  1  0  0  0  0
 11 12  1  0  0  0  0
 13 14  1  0  0  0  0
 15 13  2  0  0  0  0
 16 15  1  0  0  0  0
 17 22  1  0  0  0  0
 18 19  1  0  0  0  0
 18 17  2  0  0  0  0
 19 20  2  0  0  0  0
 20 21  1  0  0  0  0
 21  1  1  0  0  0  0
 22 21  2  0  0  0  0
 23 18  1  0  0  0  0
 24 19  1  0  0  0  0
 25 17  1  0  0  0  0
 26 25  2  0  0  0  0
 27 25  1  0  0  0  0
M  END
>  <minimizedAffinity>
-4.82831955

$$$$

 OpenBabel03252507583D

 27 29  0  0  1  0  0  0  0  0999 V2000
   36.8360   28.8770   40.3150 C   0  0  1  0  0  0  0  0  0  0  0  0
   35.4820   29.4550   40.5280 C   0  0  0  0  0  0  0  0  0  0  0  0
   36.6110   30.0530   41.2230 C   0  0  2  0  0  0  0  0  0  0  0  0
   37.2490   28.9410   39.3070 H   0  0  0  0  0  0  0  0  0  0  0  0
   34.8040   28.8060   41.1430 H   0  0  0  0  0  0  0  0  0  0  0  0
   34.9770   29.7860   39.6280 H   0  0  0  0  0  0  0  0  0  0  0  0
   36.6690   29.8750   42.3390 H   0  0  0  0  0  0  0  0  0  0  0  0
   39.3730   30.5480   42.5170 Cl  0  0  0  0  0  0  0  0  0  0  0  0
   38.6540   31.5840   41.3130 C   0  0  0  0  0  0  0  0  0  0  0  0
   37.4170   31.2010   40.8480 C   0  0  0  0  0  0  0  0  0  0  0  0
   36.8820   32.0640   39.8810 C   0  0  0  0  0  0  0  0  0  0  0  0
   35.8980   31.8560   39.4380 H   0  0  0  0  0  0  0  0  0  0  0  0
   37.5350   33.1890   39.4380 C   0  0  0  0  0  0  0  0  0  0  0  0
   37.0870   33.8230   38.6930 H   0  0  0  0  0  0  0  0  0  0  0  0
   38.7750   33.5080   39.9530 C   0  0  0  0  0  3  0  0  0  0  0  0
   39.3520   32.6980   40.9080 C   0  0  0  0  0  3  0  0  0  0  0  0
   38.5580   26.6040   42.6120 C   0  0  0  0  0  0  0  0  0  0  0  0
   38.0390   25.3300   42.2770 C   0  0  0  0  0  0  0  0  0  0  0  0
   37.0860   25.2860   41.2460 C   0  0  0  0  0  0  0  0  0  0  0  0
   36.7250   26.4540   40.6400 N   0  0  0  0  0  0  0  0  0  0  0  0
   37.2700   27.6380   41.0200 C   0  0  0  0  0  0  0  0  0  0  0  0
   38.1720   27.7390   41.9850 N   0  0  0  0  0  0  0  0  0  0  0  0
   38.3620   24.4380   42.7920 H   0  0  0  0  0  0  0  0  0  0  0  0
   36.6610   24.3360   40.9560 H   0  0  0  0  0  0  0  0  0  0  0  0
   39.5350   26.5950   43.6670 C   0  0  0  0  0  0  0  0  0  0  0  0
   40.7840   26.4340   43.4950 O   0  0  0  0  0  0  0  0  0  0  0  0
   39.3940   26.7160   44.7510 H   0  0  0  0  0  0  0  0  0  0  0  0
  1  4  1  6  0  0  0
  1  2  1  0  0  0  0
  1 21  1  0  0  0  0
  1  3  1  0  0  0  0
  2  5  1  0  0  0  0
  2  3  1  0  0  0  0
  3  7  1  1  0  0  0
  6  2  1  0  0  0  0
  9  8  1  0  0  0  0
 10  3  1  0  0  0  0
 10  9  2  0  0  0  0
 11 10  1  0  0  0  0
 12 11  1  0  0  0  0
 13 11  2  0  0  0  0
 13 15  1  0  0  0  0
 14 13  1  0  0  0  0
 15 16  2  0  0  0  0
 16  9  1  0  0  0  0
 17 25  1  0  0  0  0
 18 17  1  0  0  0  0
 18 23  1  0  0  0  0
 19 18  2  0  0  0  0
 20 21  2  0  0  0  0
 20 19  1  0  0  0  0
 21 22  1  0  0  0  0
 22 17  2  0  0  0  0
 24 19  1  0  0  0  0
 25 27  1  0  0  0  0
 26 25  2  0  0  0  0
M  END
>  <minimizedAffinity>
-4.80663586

$$$$

 OpenBabel03252507583D

 27 29  0  0  1  0  0  0  0  0999 V2000
   39.4930   30.0740   41.5100 C   0  0  1  0  0  0  0  0  0  0  0  0
   39.6820   30.5300   42.9130 C   0  0  0  0  0  0  0  0  0  0  0  0
   38.7060   29.4850   42.6470 C   0  0  2  0  0  0  0  0  0  0  0  0
   40.3440   29.5890   41.0280 H   0  0  0  0  0  0  0  0  0  0  0  0
   39.2730   31.5560   43.1150 H   0  0  0  0  0  0  0  0  0  0  0  0
   40.6940   30.4430   43.2930 H   0  0  0  0  0  0  0  0  0  0  0  0
   37.6160   29.7760   42.7390 H   0  0  0  0  0  0  0  0  0  0  0  0
   36.7100   27.5900   41.2430 Cl  0  0  0  0  0  0  0  0  0  0  0  0
   38.0740   27.0530   42.1870 C   0  0  0  0  0  0  0  0  0  0  0  0
   38.8560   28.0440   42.7340 C   0  0  0  0  0  0  0  0  0  0  0  0
   39.9410   27.5620   43.4810 C   0  0  0  0  0  0  0  0  0  0  0  0
   40.6350   28.2660   43.9650 H   0  0  0  0  0  0  0  0  0  0  0  0
   40.1990   26.2230   43.6500 C   0  0  0  0  0  0  0  0  0  0  0  0
   41.0440   25.8990   44.2320 H   0  0  0  0  0  0  0  0  0  0  0  0
   39.3680   25.2880   43.0690 C   0  0  0  0  0  3  0  0  0  0  0  0
   38.2840   25.7000   42.3230 C   0  0  0  0  0  3  0  0  0  0  0  0
   37.4930   30.9790   38.5800 C   0  0  0  0  0  0  0  0  0  0  0  0
   37.1790   32.3430   38.7950 C   0  0  0  0  0  0  0  0  0  0  0  0
   37.6750   32.9290   39.9720 C   0  0  0  0  0  0  0  0  0  0  0  0
   38.4160   32.1600   40.8210 N   0  0  0  0  0  0  0  0  0  0  0  0
   38.6740   30.8570   40.5430 C   0  0  0  0  0  0  0  0  0  0  0  0
   38.2320   30.2530   39.4500 N   0  0  0  0  0  0  0  0  0  0  0  0
   36.5870   32.9020   38.0870 H   0  0  0  0  0  0  0  0  0  0  0  0
   37.4610   33.9670   40.1790 H   0  0  0  0  0  0  0  0  0  0  0  0
   36.9700   30.4280   37.3590 C   0  0  0  0  0  0  0  0  0  0  0  0
   36.2470   29.3840   37.2880 O   0  0  0  0  0  0  0  0  0  0  0  0
   37.0880   30.7830   36.3250 H   0  0  0  0  0  0  0  0  0  0  0  0
  1  4  1  6  0  0  0
  1  3  1  0  0  0  0
  1  2  1  0  0  0  0
  2  5  1  0  0  0  0
  2  6  1  0  0  0  0
  3 10  1  0  0  0  0
  3  7  1  1  0  0  0
  3  2  1  0  0  0  0
  8  9  1  0  0  0  0
  9 16  2  0  0  0  0
  9 10  1  0  0  0  0
 10 11  2  0  0  0  0
 11 13  1  0  0  0  0
 11 12  1  0  0  0  0
 13 14  1  0  0  0  0
 15 13  2  0  0  0  0
 16 15  1  0  0  0  0
 17 18  2  0  0  0  0
 17 22  1  0  0  0  0
 18 19  1  0  0  0  0
 19 24  1  0  0  0  0
 19 20  2  0  0  0  0
 21 20  1  0  0  0  0
 21  1  1  0  0  0  0
 22 21  2  0  0  0  0
 23 18  1  0  0  0  0
 25 17  1  0  0  0  0
 26 25  2  0  0  0  0
 27 25  1  0  0  0  0
M  END
>  <minimizedAffinity>
-4.78395414

$$$$
