
 OpenBabel03252508143D

 37 40  0  0  1  0  0  0  0  0999 V2000
   46.0270   33.0970   45.9180 C   0  0  0  0  0  3  0  0  0  0  0  0
   46.9010   32.2140   45.6250 C   0  0  0  0  0  3  0  0  0  0  0  0
   44.6390   36.0860   44.2770 C   0  0  0  0  0  0  0  0  0  0  0  0
   45.1100   35.9630   42.9550 C   0  0  0  0  0  0  0  0  0  0  0  0
   45.8930   34.8810   42.6790 C   0  0  0  0  0  0  0  0  0  0  0  0
   46.1380   34.0330   43.6990 N   0  0  0  0  0  0  0  0  0  0  0  0
   45.7040   34.1310   44.9430 C   0  0  0  0  0  0  0  0  0  0  0  0
   44.9510   35.1750   45.2120 N   0  0  0  0  0  0  0  0  0  0  0  0
   44.0110   36.9420   44.5350 H   0  0  0  0  0  0  0  0  0  0  0  0
   44.8590   36.6660   42.2050 H   0  0  0  0  0  0  0  0  0  0  0  0
   48.7890   35.7730   41.8450 Cl  0  0  0  0  0  0  0  0  0  0  0  0
   47.7020   34.8120   40.8870 C   0  0  0  0  0  0  0  0  0  0  0  0
   46.4780   34.5170   41.4200 C   0  0  0  0  0  0  0  0  0  0  0  0
   45.7440   33.7110   40.5440 C   0  0  0  0  0  0  0  0  0  0  0  0
   44.7400   33.3690   40.7910 H   0  0  0  0  0  0  0  0  0  0  0  0
   46.1830   33.2710   39.3160 C   0  0  0  0  0  0  0  0  0  0  0  0
   45.5810   32.6570   38.6870 H   0  0  0  0  0  0  0  0  0  0  0  0
   47.4340   33.6240   38.8680 C   0  0  0  0  0  3  0  0  0  0  0  0
   48.2050   34.4150   39.6840 C   0  0  0  0  0  3  0  0  0  0  0  0
   47.1530   31.1700   46.7060 C   0  0  0  0  0  0  0  0  0  0  0  0
   46.6100   30.2430   46.4790 H   0  0  0  0  0  0  0  0  0  0  0  0
   48.2430   30.9460   46.6850 H   0  0  0  0  0  0  0  0  0  0  0  0
   46.7910   31.7390   48.0540 C   0  0  1  0  0  0  0  0  0  0  0  0
   46.2090   30.7890   49.0440 C   0  0  0  0  0  0  0  0  0  0  0  0
   47.5470   31.3070   49.2530 C   0  0  1  0  0  0  0  0  0  0  0  0
   46.3660   32.7630   48.0620 H   0  0  0  0  0  0  0  0  0  0  0  0
   46.0650   29.7250   48.7170 H   0  0  0  0  0  0  0  0  0  0  0  0
   45.3830   31.1260   49.7130 H   0  0  0  0  0  0  0  0  0  0  0  0
   47.6460   32.1020   50.0550 H   0  0  0  0  0  0  0  0  0  0  0  0
   48.7940   30.5400   49.0540 C   0  0  0  0  0  0  0  0  0  0  0  0
   49.5850   30.2770   50.3670 C   0  0  0  0  0  0  0  0  0  0  0  0
   50.1090   31.2860   49.4000 C   0  0  0  0  0  0  0  0  0  0  0  0
   48.8720   29.7430   48.2960 H   0  0  0  0  0  0  0  0  0  0  0  0
   50.0410   29.2870   50.4630 H   0  0  0  0  0  0  0  0  0  0  0  0
   49.1480   30.6500   51.3100 H   0  0  0  0  0  0  0  0  0  0  0  0
   49.9900   32.3470   49.6990 H   0  0  0  0  0  0  0  0  0  0  0  0
   51.0280   30.9830   48.8900 H   0  0  0  0  0  0  0  0  0  0  0  0
  2  1  2  0  0  0  0
  2 20  1  0  0  0  0
  3  9  1  0  0  0  0
  3  8  1  0  0  0  0
  4  3  2  0  0  0  0
  5  4  1  0  0  0  0
  5  6  2  0  0  0  0
  6  7  1  0  0  0  0
  7  8  2  0  0  0  0
  7  1  1  0  0  0  0
 10  4  1  0  0  0  0
 12 13  1  0  0  0  0
 12 11  1  0  0  0  0
 13  5  1  0  0  0  0
 14 15  1  0  0  0  0
 14 13  2  0  0  0  0
 16 14  1  0  0  0  0
 17 16  1  0  0  0  0
 18 16  2  0  0  0  0
 18 19  1  0  0  0  0
 19 12  2  0  0  0  0
 20 23  1  0  0  0  0
 21 20  1  0  0  0  0
 22 20  1  0  0  0  0
 23 26  1  1  0  0  0
 23 24  1  0  0  0  0
 23 25  1  0  0  0  0
 24 25  1  0  0  0  0
 24 28  1  0  0  0  0
 25 29  1  1  0  0  0
 27 24  1  0  0  0  0
 30 25  1  0  0  0  0
 30 32  1  0  0  0  0
 30 31  1  0  0  0  0
 31 34  1  0  0  0  0
 31 35  1  0  0  0  0
 32 36  1  0  0  0  0
 32 31  1  0  0  0  0
 33 30  1  0  0  0  0
 37 32  1  0  0  0  0
M  END
>  <minimizedAffinity>
-6.28774261

>  <minimizedRMSD>
0.476734549

$$$$
