
 OpenBabel03242513373D

 34 37  0  0  0  0  0  0  0  0999 V2000
   47.7460   31.1470   46.1640 C   0  0  0  0  0  0  0  0  0  0  0  0
   46.9610   32.1290   45.6140 C   0  0  0  0  0  0  0  0  0  0  0  0
   45.8520   32.5580   46.3190 C   0  0  0  0  0  0  0  0  0  0  0  0
   45.4970   32.0460   47.5510 C   0  0  0  0  0  0  0  0  0  0  0  0
   44.5310   32.2260   48.4650 N   0  0  0  0  0  0  0  0  0  0  0  0
   44.7240   31.3910   49.5220 C   0  0  0  0  0  0  0  0  0  0  0  0
   45.8380   30.6790   49.2470 N   0  0  0  0  0  0  0  0  0  0  0  0
   46.3270   31.0610   48.0520 C   0  0  0  0  0  0  0  0  0  0  0  0
   47.4290   30.6020   47.4010 C   0  0  0  0  0  0  0  0  0  0  0  0
   48.6050   30.8230   45.6040 H   0  0  0  0  0  0  0  0  0  0  0  0
   45.2180   33.3350   45.8980 H   0  0  0  0  0  0  0  0  0  0  0  0
   43.7570   32.9200   48.3480 H   0  0  0  0  0  0  0  0  0  0  0  0
   44.1180   31.3000   50.4110 H   0  0  0  0  0  0  0  0  0  0  0  0
   49.4240   31.7100   49.2740 Cl  0  0  0  0  0  0  0  0  0  0  0  0
   49.2810   30.0380   48.7720 C   0  0  0  0  0  0  0  0  0  0  0  0
   48.3310   29.5660   47.8920 C   0  0  0  0  0  0  0  0  0  0  0  0
   48.3060   28.2250   47.5610 C   0  0  0  0  0  0  0  0  0  0  0  0
   47.5360   27.9270   46.8700 H   0  0  0  0  0  0  0  0  0  0  0  0
   49.2330   27.3750   48.1170 C   0  0  0  0  0  0  0  0  0  0  0  0
   49.2030   26.3250   47.8500 H   0  0  0  0  0  0  0  0  0  0  0  0
   50.2120   27.8010   49.0100 C   0  0  0  0  0  0  0  0  0  0  0  0
   50.1980   29.1470   49.3090 C   0  0  0  0  0  0  0  0  0  0  0  0
   47.1680   34.4340   42.7750 C   0  0  0  0  0  0  0  0  0  0  0  0
   47.9320   33.7350   41.8520 C   0  0  0  0  0  0  0  0  0  0  0  0
   48.3660   32.4660   42.2380 C   0  0  0  0  0  0  0  0  0  0  0  0
   48.0260   31.9920   43.4620 N   0  0  0  0  0  0  0  0  0  0  0  0
   47.2840   32.7090   44.3170 C   0  0  0  0  0  0  0  0  0  0  0  0
   46.8450   33.9310   43.9890 N   0  0  0  0  0  0  0  0  0  0  0  0
   46.8070   35.4230   42.5230 H   0  0  0  0  0  0  0  0  0  0  0  0
   48.9640   31.9170   41.5230 H   0  0  0  0  0  0  0  0  0  0  0  0
   48.2290   34.3760   40.5480 C   0  0  0  0  0  0  0  0  0  0  0  0
   48.8130   35.5970   40.8690 F   0  0  0  0  0  0  0  0  0  0  0  0
   47.0510   34.5750   39.8870 F   0  0  0  0  0  0  0  0  0  0  0  0
   49.0770   33.5470   39.8420 F   0  0  0  0  0  0  0  0  0  0  0  0
  1  9  1  0  0  0  0
  2  1  2  0  0  0  0
  2  3  1  0  0  0  0
  3  4  2  0  0  0  0
  4  8  1  0  0  0  0
  4  5  1  0  0  0  0
  5  6  1  0  0  0  0
  6 13  1  0  0  0  0
  7  6  2  0  0  0  0
  8  7  1  0  0  0  0
  9 16  1  0  0  0  0
  9  8  2  0  0  0  0
 10  1  1  0  0  0  0
 11  3  1  0  0  0  0
 12  5  1  0  0  0  0
 15 14  1  0  0  0  0
 15 22  1  0  0  0  0
 16 15  2  0  0  0  0
 17 16  1  0  0  0  0
 17 19  2  0  0  0  0
 18 17  1  0  0  0  0
 19 21  1  0  0  0  0
 20 19  1  0  0  0  0
 21 22  2  0  0  0  0
 23 28  1  0  0  0  0
 24 25  1  0  0  0  0
 24 23  2  0  0  0  0
 25 26  2  0  0  0  0
 26 27  1  0  0  0  0
 27  2  1  0  0  0  0
 28 27  2  0  0  0  0
 29 23  1  0  0  0  0
 30 25  1  0  0  0  0
 31 32  1  0  0  0  0
 31 24  1  0  0  0  0
 33 31  1  0  0  0  0
 34 31  1  0  0  0  0
M  END
>  <minimizedAffinity>
-6.09583616

>  <minimizedRMSD>
0.419108301

$$$$
