
 OpenBabel03242520043D

 39 42  0  0  1  0  0  0  0  0999 V2000
   46.6720   33.5200   44.7540 N   0  0  0  0  0  0  0  0  0  0  0  0
   47.3460   34.0000   43.6150 C   0  0  1  0  0  0  0  0  0  0  0  0
   48.4420   33.0300   43.2490 C   0  0  0  0  0  0  0  0  0  0  0  0
   47.7620   31.7880   42.8720 N   0  0  0  0  0  0  0  0  0  0  0  0
   47.0900   31.1870   43.9950 C   0  0  0  0  0  0  0  0  0  0  0  0
   46.3590   32.1580   44.8650 C   0  0  1  0  0  0  0  0  0  0  0  0
   45.8780   34.1020   45.0720 H   0  0  0  0  0  0  0  0  0  0  0  0
   47.8040   34.9730   43.8510 H   0  0  0  0  0  0  0  0  0  0  0  0
   49.0840   32.8080   44.1180 H   0  0  0  0  0  0  0  0  0  0  0  0
   49.0580   33.3670   42.4100 H   0  0  0  0  0  0  0  0  0  0  0  0
   48.5020   31.1430   42.5290 H   0  0  0  0  0  0  0  0  0  0  0  0
   46.4280   30.3930   43.5880 H   0  0  0  0  0  0  0  0  0  0  0  0
   47.8750   30.6220   44.5710 H   0  0  0  0  0  0  0  0  0  0  0  0
   45.2690   32.0540   44.5800 H   0  0  0  0  0  0  0  0  0  0  0  0
   44.8180   29.6320   45.6290 Cl  0  0  0  0  0  0  0  0  0  0  0  0
   45.7600   30.6150   46.7580 C   0  0  0  0  0  0  0  0  0  0  0  0
   46.4240   31.7510   46.2960 C   0  0  0  0  0  0  0  0  0  0  0  0
   47.1610   32.5150   47.1970 C   0  0  0  0  0  0  0  0  0  0  0  0
   47.7010   33.4130   46.8890 H   0  0  0  0  0  0  0  0  0  0  0  0
   47.2430   32.1660   48.5320 C   0  0  0  0  0  0  0  0  0  0  0  0
   47.8200   32.7680   49.2250 H   0  0  0  0  0  0  0  0  0  0  0  0
   46.5620   31.0260   48.9330 C   0  0  0  0  0  0  0  0  0  0  0  0
   45.8200   30.2410   48.0720 C   0  0  0  0  0  0  0  0  0  0  0  0
   44.7100   34.5190   41.2820 C   0  0  0  0  0  0  0  0  0  0  0  0
   45.7100   34.1480   40.4190 C   0  0  0  0  0  0  0  0  0  0  0  0
   46.8270   33.9040   41.1510 C   0  0  0  0  0  0  0  0  0  0  0  0
   46.5090   34.1220   42.4510 N   0  0  0  0  0  0  0  0  0  0  0  0
   45.2310   34.4920   42.5050 N   0  0  0  0  0  0  0  0  0  0  0  0
   45.6440   34.0600   39.3400 H   0  0  0  0  0  0  0  0  0  0  0  0
   47.8070   33.5870   40.7770 H   0  0  0  0  0  0  0  0  0  0  0  0
   41.1960   35.5890   41.5100 C   0  0  0  0  0  0  0  0  0  0  0  0
   40.7640   35.5300   40.1810 C   0  0  0  0  0  0  0  0  0  0  0  0
   41.7010   35.1170   39.2120 C   0  0  0  0  0  0  0  0  0  0  0  0
   42.9410   34.8110   39.6400 N   0  0  0  0  0  0  0  0  0  0  0  0
   43.3320   34.8750   40.9230 C   0  0  0  0  0  0  0  0  0  0  0  0
   42.4570   35.2650   41.8550 N   0  0  0  0  0  0  0  0  0  0  0  0
   40.4410   35.9110   42.2180 H   0  0  0  0  0  0  0  0  0  0  0  0
   39.7980   35.7620   39.8000 H   0  0  0  0  0  0  0  0  0  0  0  0
   41.5420   35.0150   38.1480 H   0  0  0  0  0  0  0  0  0  0  0  0
  1  6  1  0  0  0  0
  1  7  1  0  0  0  0
  2  8  1  1  0  0  0
  2  1  1  0  0  0  0
  3  2  1  0  0  0  0
  3  9  1  0  0  0  0
  4  3  1  0  0  0  0
  4  5  1  0  0  0  0
  5 13  1  0  0  0  0
  5  6  1  0  0  0  0
  6 14  1  6  0  0  0
  6 17  1  0  0  0  0
 10  3  1  0  0  0  0
 11  4  1  0  0  0  0
 12  5  1  0  0  0  0
 15 16  1  0  0  0  0
 16 23  1  0  0  0  0
 17 16  2  0  0  0  0
 17 18  1  0  0  0  0
 18 20  2  0  0  0  0
 19 18  1  0  0  0  0
 20 22  1  0  0  0  0
 20 21  1  0  0  0  0
 23 22  2  0  0  0  0
 24 28  2  0  0  0  0
 25 26  2  0  0  0  0
 25 24  1  0  0  0  0
 26 27  1  0  0  0  0
 27 28  1  0  0  0  0
 27  2  1  0  0  0  0
 29 25  1  0  0  0  0
 30 26  1  0  0  0  0
 31 36  1  0  0  0  0
 31 37  1  0  0  0  0
 32 31  2  0  0  0  0
 33 34  2  0  0  0  0
 33 32  1  0  0  0  0
 34 35  1  0  0  0  0
 35 24  1  0  0  0  0
 35 36  2  0  0  0  0
 38 32  1  0  0  0  0
 39 33  1  0  0  0  0
M  END
>  <minimizedAffinity>
-5.76640892

>  <minimizedRMSD>
4.8770051

$$$$
