
 OpenBabel03252500203D

 20 21  0  0  0  0  0  0  0  0999 V2000
   40.0930   32.1160   41.0500 C   0  0  0  0  0  0  0  0  0  0  0  0
   39.7230   30.8450   41.5420 C   0  0  0  0  0  0  0  0  0  0  0  0
   38.3800   30.5000   41.4700 C   0  0  0  0  0  0  0  0  0  0  0  0
   37.5110   31.4020   40.9350 N   0  0  0  0  0  0  0  0  0  0  0  0
   37.9030   32.5990   40.4790 C   0  0  0  0  0  0  0  0  0  0  0  0
   39.1980   32.9710   40.5320 N   0  0  0  0  0  0  0  0  0  0  0  0
   36.9490   33.5020   39.9300 N   0  0  0  0  0  0  0  0  0  0  0  0
   41.1210   32.3940   41.1000 H   0  0  0  0  0  0  0  0  0  0  0  0
   40.4600   30.2010   41.9430 H   0  0  0  0  0  0  0  0  0  0  0  0
   36.9890   33.4450   38.8760 H   0  0  0  0  0  0  0  0  0  0  0  0
   36.2890   34.1450   40.4400 H   0  0  0  0  0  0  0  0  0  0  0  0
   37.9940   28.4420   39.3500 Cl  0  0  0  0  0  0  0  0  0  0  0  0
   37.6850   28.1960   41.0580 C   0  0  0  0  0  0  0  0  0  0  0  0
   37.9020   29.2310   41.9430 C   0  0  0  0  0  0  0  0  0  0  0  0
   37.6230   28.9210   43.2570 C   0  0  0  0  0  0  0  0  0  0  0  0
   37.7690   29.6830   44.0090 H   0  0  0  0  0  0  0  0  0  0  0  0
   37.1630   27.6810   43.6800 C   0  0  0  0  0  0  0  0  0  0  0  0
   36.9550   27.4760   44.7240 H   0  0  0  0  0  0  0  0  0  0  0  0
   36.9660   26.6850   42.7340 C   0  0  0  0  0  3  0  0  0  0  0  0
   37.2290   26.9410   41.4030 C   0  0  0  0  0  3  0  0  0  0  0  0
  1  8  1  0  0  0  0
  1  2  1  0  0  0  0
  2  9  1  0  0  0  0
  3  2  2  0  0  0  0
  3 14  1  0  0  0  0
  4  3  1  0  0  0  0
  5  6  1  0  0  0  0
  5  4  2  0  0  0  0
  6  1  2  0  0  0  0
  7 11  1  0  0  0  0
  7  5  1  0  0  0  0
 10  7  1  0  0  0  0
 12 13  1  0  0  0  0
 13 20  2  0  0  0  0
 13 14  1  0  0  0  0
 14 15  2  0  0  0  0
 15 17  1  0  0  0  0
 15 16  1  0  0  0  0
 17 18  1  0  0  0  0
 19 17  2  0  0  0  0
 20 19  1  0  0  0  0
M  END
>  <minimizedAffinity>
-4.91365194

$$$$

 OpenBabel03252500203D

 20 21  0  0  0  0  0  0  0  0999 V2000
   38.3940   30.9320   38.1120 C   0  0  0  0  0  0  0  0  0  0  0  0
   38.3970   29.9450   39.1220 C   0  0  0  0  0  0  0  0  0  0  0  0
   37.8840   30.3000   40.3620 C   0  0  0  0  0  0  0  0  0  0  0  0
   37.4140   31.5670   40.5250 N   0  0  0  0  0  0  0  0  0  0  0  0
   37.4290   32.4750   39.5410 C   0  0  0  0  0  0  0  0  0  0  0  0
   37.9200   32.1690   38.3230 N   0  0  0  0  0  0  0  0  0  0  0  0
   36.9230   33.7860   39.7690 N   0  0  0  0  0  0  0  0  0  0  0  0
   38.7870   30.6720   37.1550 H   0  0  0  0  0  0  0  0  0  0  0  0
   38.7810   28.9810   38.9140 H   0  0  0  0  0  0  0  0  0  0  0  0
   35.9440   33.8500   39.3790 H   0  0  0  0  0  0  0  0  0  0  0  0
   37.4010   34.5970   40.2420 H   0  0  0  0  0  0  0  0  0  0  0  0
   35.2830   28.8850   40.6990 Cl  0  0  0  0  0  0  0  0  0  0  0  0
   36.6930   28.6510   41.7130 C   0  0  0  0  0  0  0  0  0  0  0  0
   37.8420   29.3680   41.4550 C   0  0  0  0  0  0  0  0  0  0  0  0
   38.8840   29.1010   42.3180 C   0  0  0  0  0  0  0  0  0  0  0  0
   39.8170   29.6260   42.1770 H   0  0  0  0  0  0  0  0  0  0  0  0
   38.8090   28.1920   43.3640 C   0  0  0  0  0  0  0  0  0  0  0  0
   39.6510   28.0100   44.0220 H   0  0  0  0  0  0  0  0  0  0  0  0
   37.6200   27.5040   43.5670 C   0  0  0  0  0  3  0  0  0  0  0  0
   36.5450   27.7330   42.7330 C   0  0  0  0  0  3  0  0  0  0  0  0
  1  6  2  0  0  0  0
  1  2  1  0  0  0  0
  2  3  2  0  0  0  0
  3  4  1  0  0  0  0
  3 14  1  0  0  0  0
  5  7  1  0  0  0  0
  5  4  2  0  0  0  0
  6  5  1  0  0  0  0
  7 11  1  0  0  0  0
  8  1  1  0  0  0  0
  9  2  1  0  0  0  0
 10  7  1  0  0  0  0
 12 13  1  0  0  0  0
 13 20  1  0  0  0  0
 14 13  2  0  0  0  0
 14 15  1  0  0  0  0
 15 17  2  0  0  0  0
 16 15  1  0  0  0  0
 17 19  1  0  0  0  0
 17 18  1  0  0  0  0
 20 19  2  0  0  0  0
M  END
>  <minimizedAffinity>
-4.8370738

$$$$

 OpenBabel03252500203D

 20 21  0  0  0  0  0  0  0  0999 V2000
   37.7010   30.6670   38.0230 C   0  0  0  0  0  0  0  0  0  0  0  0
   37.7460   29.6980   39.0500 C   0  0  0  0  0  0  0  0  0  0  0  0
   37.5200   30.1340   40.3490 C   0  0  0  0  0  0  0  0  0  0  0  0
   37.2720   31.4580   40.5490 N   0  0  0  0  0  0  0  0  0  0  0  0
   37.2380   32.3460   39.5470 C   0  0  0  0  0  0  0  0  0  0  0  0
   37.4520   31.9620   38.2730 N   0  0  0  0  0  0  0  0  0  0  0  0
   36.9730   33.7190   39.8170 N   0  0  0  0  0  0  0  0  0  0  0  0
   37.8720   30.3450   37.0220 H   0  0  0  0  0  0  0  0  0  0  0  0
   37.9450   28.6870   38.8100 H   0  0  0  0  0  0  0  0  0  0  0  0
   35.9580   33.9220   39.6060 H   0  0  0  0  0  0  0  0  0  0  0  0
   37.6390   34.4540   40.1700 H   0  0  0  0  0  0  0  0  0  0  0  0
   40.1080   30.0350   41.8220 Cl  0  0  0  0  0  0  0  0  0  0  0  0
   38.6860   29.0930   42.2240 C   0  0  0  0  0  0  0  0  0  0  0  0
   37.5450   29.2270   41.4630 C   0  0  0  0  0  0  0  0  0  0  0  0
   36.4920   28.4370   41.8730 C   0  0  0  0  0  0  0  0  0  0  0  0
   35.5630   28.4880   41.3230 H   0  0  0  0  0  0  0  0  0  0  0  0
   36.5500   27.5720   42.9570 C   0  0  0  0  0  0  0  0  0  0  0  0
   35.6990   26.9650   43.2480 H   0  0  0  0  0  0  0  0  0  0  0  0
   37.7320   27.4860   43.6790 C   0  0  0  0  0  3  0  0  0  0  0  0
   38.8180   28.2540   43.3130 C   0  0  0  0  0  3  0  0  0  0  0  0
  1  6  2  0  0  0  0
  1  2  1  0  0  0  0
  2  3  2  0  0  0  0
  3  4  1  0  0  0  0
  3 14  1  0  0  0  0
  5  7  1  0  0  0  0
  5  4  2  0  0  0  0
  6  5  1  0  0  0  0
  7 11  1  0  0  0  0
  8  1  1  0  0  0  0
  9  2  1  0  0  0  0
 10  7  1  0  0  0  0
 12 13  1  0  0  0  0
 13 20  1  0  0  0  0
 14 15  1  0  0  0  0
 14 13  2  0  0  0  0
 15 17  2  0  0  0  0
 16 15  1  0  0  0  0
 17 18  1  0  0  0  0
 17 19  1  0  0  0  0
 20 19  2  0  0  0  0
M  END
>  <minimizedAffinity>
-4.77824831

$$$$

 OpenBabel03252500203D

 20 21  0  0  0  0  0  0  0  0999 V2000
   37.1430   32.6470   39.2900 C   0  0  0  0  0  0  0  0  0  0  0  0
   37.2100   31.8170   40.4300 C   0  0  0  0  0  0  0  0  0  0  0  0
   37.5730   30.4910   40.2330 C   0  0  0  0  0  0  0  0  0  0  0  0
   37.8390   30.0790   38.9630 N   0  0  0  0  0  0  0  0  0  0  0  0
   37.7640   30.8980   37.9070 C   0  0  0  0  0  0  0  0  0  0  0  0
   37.4140   32.1920   38.0570 N   0  0  0  0  0  0  0  0  0  0  0  0
   38.0540   30.4110   36.6010 N   0  0  0  0  0  0  0  0  0  0  0  0
   36.8650   33.6670   39.4270 H   0  0  0  0  0  0  0  0  0  0  0  0
   36.9880   32.2160   41.3850 H   0  0  0  0  0  0  0  0  0  0  0  0
   39.0400   30.6880   36.3420 H   0  0  0  0  0  0  0  0  0  0  0  0
   37.4290   29.8610   35.9560 H   0  0  0  0  0  0  0  0  0  0  0  0
   35.1240   28.8660   40.7160 Cl  0  0  0  0  0  0  0  0  0  0  0  0
   36.6030   28.7560   41.6510 C   0  0  0  0  0  0  0  0  0  0  0  0
   37.6710   29.5660   41.3280 C   0  0  0  0  0  0  0  0  0  0  0  0
   38.7780   29.3930   42.1320 C   0  0  0  0  0  0  0  0  0  0  0  0
   39.6550   29.9930   41.9390 H   0  0  0  0  0  0  0  0  0  0  0  0
   38.8380   28.4870   43.1820 C   0  0  0  0  0  0  0  0  0  0  0  0
   39.7280   28.3800   43.7930 H   0  0  0  0  0  0  0  0  0  0  0  0
   37.7240   27.7030   43.4520 C   0  0  0  0  0  3  0  0  0  0  0  0
   36.5890   27.8360   42.6790 C   0  0  0  0  0  3  0  0  0  0  0  0
  1  8  1  0  0  0  0
  1  2  1  0  0  0  0
  2  9  1  0  0  0  0
  3  2  2  0  0  0  0
  3 14  1  0  0  0  0
  4  3  1  0  0  0  0
  5  6  1  0  0  0  0
  5  4  2  0  0  0  0
  6  1  2  0  0  0  0
  7  5  1  0  0  0  0
 10  7  1  0  0  0  0
 11  7  1  0  0  0  0
 12 13  1  0  0  0  0
 13 20  1  0  0  0  0
 14 13  2  0  0  0  0
 14 15  1  0  0  0  0
 15 17  2  0  0  0  0
 16 15  1  0  0  0  0
 17 19  1  0  0  0  0
 17 18  1  0  0  0  0
 20 19  2  0  0  0  0
M  END
>  <minimizedAffinity>
-4.63012791

$$$$

 OpenBabel03252500203D

 20 21  0  0  0  0  0  0  0  0999 V2000
   38.7410   29.8410   39.9180 C   0  0  0  0  0  0  0  0  0  0  0  0
   38.5400   28.4440   39.9500 C   0  0  0  0  0  0  0  0  0  0  0  0
   37.3320   27.9850   40.4600 C   0  0  0  0  0  0  0  0  0  0  0  0
   36.4260   28.9040   40.8930 N   0  0  0  0  0  0  0  0  0  0  0  0
   36.6550   30.2230   40.8450 C   0  0  0  0  0  0  0  0  0  0  0  0
   37.8150   30.7070   40.3590 N   0  0  0  0  0  0  0  0  0  0  0  0
   35.6700   31.1380   41.3130 N   0  0  0  0  0  0  0  0  0  0  0  0
   39.6640   30.2070   39.5300 H   0  0  0  0  0  0  0  0  0  0  0  0
   39.2960   27.7950   39.5930 H   0  0  0  0  0  0  0  0  0  0  0  0
   35.1390   31.5240   40.4860 H   0  0  0  0  0  0  0  0  0  0  0  0
   35.4610   31.4210   42.3060 H   0  0  0  0  0  0  0  0  0  0  0  0
   37.9190   26.7210   43.0930 Cl  0  0  0  0  0  0  0  0  0  0  0  0
   37.2570   25.8850   41.7020 C   0  0  0  0  0  0  0  0  0  0  0  0
   37.0300   26.5830   40.5350 C   0  0  0  0  0  0  0  0  0  0  0  0
   36.5100   25.8210   39.5100 C   0  0  0  0  0  0  0  0  0  0  0  0
   36.3050   26.3000   38.5640 H   0  0  0  0  0  0  0  0  0  0  0  0
   36.2280   24.4660   39.6190 C   0  0  0  0  0  0  0  0  0  0  0  0
   35.8190   23.9000   38.7890 H   0  0  0  0  0  0  0  0  0  0  0  0
   36.4820   23.8260   40.8240 C   0  0  0  0  0  3  0  0  0  0  0  0
   37.0040   24.5400   41.8830 C   0  0  0  0  0  3  0  0  0  0  0  0
  1  2  2  0  0  0  0
  1  6  1  0  0  0  0
  2  3  1  0  0  0  0
  3 14  1  0  0  0  0
  3  4  2  0  0  0  0
  5  4  1  0  0  0  0
  5  7  1  0  0  0  0
  6  5  2  0  0  0  0
  7 11  1  0  0  0  0
  8  1  1  0  0  0  0
  9  2  1  0  0  0  0
 10  7  1  0  0  0  0
 13 20  1  0  0  0  0
 13 12  1  0  0  0  0
 14 13  2  0  0  0  0
 15 17  2  0  0  0  0
 15 14  1  0  0  0  0
 16 15  1  0  0  0  0
 17 19  1  0  0  0  0
 18 17  1  0  0  0  0
 19 20  2  0  0  0  0
M  END
>  <minimizedAffinity>
-4.61858273

$$$$

 OpenBabel03252500203D

 20 21  0  0  0  0  0  0  0  0999 V2000
   37.9550   27.4080   40.4000 C   0  0  0  0  0  0  0  0  0  0  0  0
   38.1530   28.7500   40.0080 C   0  0  0  0  0  0  0  0  0  0  0  0
   37.6620   29.7390   40.8490 C   0  0  0  0  0  0  0  0  0  0  0  0
   37.0250   29.3550   41.9900 N   0  0  0  0  0  0  0  0  0  0  0  0
   36.8580   28.0700   42.3270 C   0  0  0  0  0  0  0  0  0  0  0  0
   37.3200   27.0810   41.5360 N   0  0  0  0  0  0  0  0  0  0  0  0
   36.1840   27.7280   43.5330 N   0  0  0  0  0  0  0  0  0  0  0  0
   38.3270   26.6380   39.7620 H   0  0  0  0  0  0  0  0  0  0  0  0
   38.6590   28.9650   39.1030 H   0  0  0  0  0  0  0  0  0  0  0  0
   36.9010   27.4970   44.2740 H   0  0  0  0  0  0  0  0  0  0  0  0
   35.1480   27.6940   43.7150 H   0  0  0  0  0  0  0  0  0  0  0  0
   39.9210   31.0920   42.2430 Cl  0  0  0  0  0  0  0  0  0  0  0  0
   38.8210   31.8700   41.1220 C   0  0  0  0  0  0  0  0  0  0  0  0
   37.8110   31.1340   40.5400 C   0  0  0  0  0  0  0  0  0  0  0  0
   37.0100   31.8520   39.6780 C   0  0  0  0  0  0  0  0  0  0  0  0
   36.1960   31.3410   39.1840 H   0  0  0  0  0  0  0  0  0  0  0  0
   37.1850   33.2010   39.4010 C   0  0  0  0  0  0  0  0  0  0  0  0
   36.5320   33.7310   38.7160 H   0  0  0  0  0  0  0  0  0  0  0  0
   38.2220   33.8810   40.0220 C   0  0  0  0  0  3  0  0  0  0  0  0
   39.0550   33.2110   40.8960 C   0  0  0  0  0  3  0  0  0  0  0  0
  1  6  1  0  0  0  0
  2  1  2  0  0  0  0
  2  3  1  0  0  0  0
  3  4  2  0  0  0  0
  4  5  1  0  0  0  0
  5  7  1  0  0  0  0
  6  5  2  0  0  0  0
  7 11  1  0  0  0  0
  7 10  1  0  0  0  0
  8  1  1  0  0  0  0
  9  2  1  0  0  0  0
 13 12  1  0  0  0  0
 14  3  1  0  0  0  0
 14 13  2  0  0  0  0
 15 14  1  0  0  0  0
 16 15  1  0  0  0  0
 17 15  2  0  0  0  0
 17 19  1  0  0  0  0
 18 17  1  0  0  0  0
 19 20  2  0  0  0  0
 20 13  1  0  0  0  0
M  END
>  <minimizedAffinity>
-4.53579903

$$$$

 OpenBabel03252500203D

 20 21  0  0  0  0  0  0  0  0999 V2000
   38.7380   29.7850   39.9760 C   0  0  0  0  0  0  0  0  0  0  0  0
   38.5500   28.3870   40.0390 C   0  0  0  0  0  0  0  0  0  0  0  0
   37.3440   27.9280   40.5520 C   0  0  0  0  0  0  0  0  0  0  0  0
   36.4260   28.8470   40.9590 N   0  0  0  0  0  0  0  0  0  0  0  0
   36.6430   30.1670   40.8830 C   0  0  0  0  0  0  0  0  0  0  0  0
   37.8010   30.6510   40.3910 N   0  0  0  0  0  0  0  0  0  0  0  0
   35.6460   31.0820   41.3240 N   0  0  0  0  0  0  0  0  0  0  0  0
   39.6600   30.1510   39.5840 H   0  0  0  0  0  0  0  0  0  0  0  0
   39.3150   27.7370   39.7010 H   0  0  0  0  0  0  0  0  0  0  0  0
   35.1160   31.4440   40.4850 H   0  0  0  0  0  0  0  0  0  0  0  0
   35.4280   31.3850   42.3080 H   0  0  0  0  0  0  0  0  0  0  0  0
   36.1390   26.7120   38.1130 Cl  0  0  0  0  0  0  0  0  0  0  0  0
   36.4980   25.8470   39.5950 C   0  0  0  0  0  0  0  0  0  0  0  0
   37.0560   26.5240   40.6580 C   0  0  0  0  0  0  0  0  0  0  0  0
   37.2930   25.7420   41.7680 C   0  0  0  0  0  0  0  0  0  0  0  0
   37.7300   26.2030   42.6420 H   0  0  0  0  0  0  0  0  0  0  0  0
   37.0030   24.3860   41.8350 C   0  0  0  0  0  0  0  0  0  0  0  0
   37.2030   23.8040   42.7290 H   0  0  0  0  0  0  0  0  0  0  0  0
   36.4400   23.7680   40.7280 C   0  0  0  0  0  3  0  0  0  0  0  0
   36.1820   24.5040   39.5890 C   0  0  0  0  0  3  0  0  0  0  0  0
  1  2  2  0  0  0  0
  1  6  1  0  0  0  0
  2  3  1  0  0  0  0
  3 14  1  0  0  0  0
  3  4  2  0  0  0  0
  5  4  1  0  0  0  0
  5  7  1  0  0  0  0
  6  5  2  0  0  0  0
  7 11  1  0  0  0  0
  8  1  1  0  0  0  0
  9  2  1  0  0  0  0
 10  7  1  0  0  0  0
 12 13  1  0  0  0  0
 13 14  1  0  0  0  0
 14 15  2  0  0  0  0
 15 17  1  0  0  0  0
 15 16  1  0  0  0  0
 17 18  1  0  0  0  0
 19 17  2  0  0  0  0
 20 13  2  0  0  0  0
 20 19  1  0  0  0  0
M  END
>  <minimizedAffinity>
-4.49411297

$$$$

 OpenBabel03252500203D

 20 21  0  0  0  0  0  0  0  0999 V2000
   38.9620   27.5370   41.2520 C   0  0  0  0  0  0  0  0  0  0  0  0
   39.0330   28.8520   40.7420 C   0  0  0  0  0  0  0  0  0  0  0  0
   38.1310   29.7810   41.2450 C   0  0  0  0  0  0  0  0  0  0  0  0
   37.2420   29.3680   42.1900 N   0  0  0  0  0  0  0  0  0  0  0  0
   37.2070   28.1100   42.6480 C   0  0  0  0  0  0  0  0  0  0  0  0
   38.0650   27.1800   42.1840 N   0  0  0  0  0  0  0  0  0  0  0  0
   36.2540   27.7360   43.6370 N   0  0  0  0  0  0  0  0  0  0  0  0
   39.6490   26.8140   40.8750 H   0  0  0  0  0  0  0  0  0  0  0  0
   39.7560   29.0930   40.0070 H   0  0  0  0  0  0  0  0  0  0  0  0
   36.7250   27.7270   44.5830 H   0  0  0  0  0  0  0  0  0  0  0  0
   35.2370   27.4960   43.5060 H   0  0  0  0  0  0  0  0  0  0  0  0
   36.1970   30.3550   39.0530 Cl  0  0  0  0  0  0  0  0  0  0  0  0
   37.2690   31.5350   39.7810 C   0  0  0  0  0  0  0  0  0  0  0  0
   38.1220   31.1440   40.7910 C   0  0  0  0  0  0  0  0  0  0  0  0
   38.9170   32.1560   41.2860 C   0  0  0  0  0  0  0  0  0  0  0  0
   39.6120   31.9250   42.0800 H   0  0  0  0  0  0  0  0  0  0  0  0
   38.8810   33.4650   40.8240 C   0  0  0  0  0  0  0  0  0  0  0  0
   39.5240   34.2330   41.2390 H   0  0  0  0  0  0  0  0  0  0  0  0
   37.9980   33.7880   39.8040 C   0  0  0  0  0  3  0  0  0  0  0  0
   37.1780   32.8140   39.2710 C   0  0  0  0  0  3  0  0  0  0  0  0
  1  6  1  0  0  0  0
  2  3  1  0  0  0  0
  2  1  2  0  0  0  0
  3  4  2  0  0  0  0
  4  5  1  0  0  0  0
  5  7  1  0  0  0  0
  6  5  2  0  0  0  0
  7 10  1  0  0  0  0
  8  1  1  0  0  0  0
  9  2  1  0  0  0  0
 11  7  1  0  0  0  0
 12 13  1  0  0  0  0
 13 14  1  0  0  0  0
 14  3  1  0  0  0  0
 14 15  2  0  0  0  0
 15 16  1  0  0  0  0
 17 18  1  0  0  0  0
 17 15  1  0  0  0  0
 19 17  2  0  0  0  0
 20 13  2  0  0  0  0
 20 19  1  0  0  0  0
M  END
>  <minimizedAffinity>
-4.40249634

$$$$

 OpenBabel03252500203D

 20 21  0  0  0  0  0  0  0  0999 V2000
   39.8590   33.3690   40.5020 C   0  0  0  0  0  0  0  0  0  0  0  0
   39.5220   32.2970   41.3570 C   0  0  0  0  0  0  0  0  0  0  0  0
   39.1510   31.0990   40.7620 C   0  0  0  0  0  0  0  0  0  0  0  0
   39.1340   31.0340   39.4020 N   0  0  0  0  0  0  0  0  0  0  0  0
   39.4610   32.0740   38.6250 C   0  0  0  0  0  0  0  0  0  0  0  0
   39.8260   33.2540   39.1650 N   0  0  0  0  0  0  0  0  0  0  0  0
   39.4250   31.9470   37.2080 N   0  0  0  0  0  0  0  0  0  0  0  0
   40.1460   34.2950   40.9460 H   0  0  0  0  0  0  0  0  0  0  0  0
   39.5610   32.4290   42.4070 H   0  0  0  0  0  0  0  0  0  0  0  0
   40.4060   31.7840   36.8520 H   0  0  0  0  0  0  0  0  0  0  0  0
   38.5890   31.9990   36.5690 H   0  0  0  0  0  0  0  0  0  0  0  0
   36.2220   30.7370   41.1740 Cl  0  0  0  0  0  0  0  0  0  0  0  0
   37.4640   29.6730   41.8040 C   0  0  0  0  0  0  0  0  0  0  0  0
   38.7900   29.9490   41.5450 C   0  0  0  0  0  0  0  0  0  0  0  0
   39.6760   29.0450   42.0910 C   0  0  0  0  0  0  0  0  0  0  0  0
   40.7330   29.1960   41.9300 H   0  0  0  0  0  0  0  0  0  0  0  0
   39.2910   27.9420   42.8420 C   0  0  0  0  0  0  0  0  0  0  0  0
   40.0190   27.2530   43.2560 H   0  0  0  0  0  0  0  0  0  0  0  0
   37.9390   27.7250   43.0650 C   0  0  0  0  0  3  0  0  0  0  0  0
   37.0080   28.6000   42.5420 C   0  0  0  0  0  3  0  0  0  0  0  0
  1  8  1  0  0  0  0
  1  2  1  0  0  0  0
  2  9  1  0  0  0  0
  3  2  2  0  0  0  0
  3 14  1  0  0  0  0
  4  3  1  0  0  0  0
  5  6  1  0  0  0  0
  5  4  2  0  0  0  0
  6  1  2  0  0  0  0
  7  5  1  0  0  0  0
 10  7  1  0  0  0  0
 11  7  1  0  0  0  0
 12 13  1  0  0  0  0
 13 20  1  0  0  0  0
 14 13  2  0  0  0  0
 14 15  1  0  0  0  0
 15 17  2  0  0  0  0
 16 15  1  0  0  0  0
 17 19  1  0  0  0  0
 17 18  1  0  0  0  0
 20 19  2  0  0  0  0
M  END
>  <minimizedAffinity>
-4.34705734

$$$$
