
 OpenBabel03242516143D

 41 44  0  0  0  0  0  0  0  0999 V2000
   48.2150   33.6000   41.9870 C   0  0  0  0  0  0  0  0  0  0  0  0
   49.5390   34.1750   42.4980 C   0  0  0  0  0  0  0  0  0  0  0  0
   49.1460   32.8090   42.7820 C   0  0  0  0  0  0  0  0  0  0  0  0
   50.3320   34.4320   41.7860 H   0  0  0  0  0  0  0  0  0  0  0  0
   49.3940   34.9860   43.2720 H   0  0  0  0  0  0  0  0  0  0  0  0
   49.7090   32.0030   42.2150 H   0  0  0  0  0  0  0  0  0  0  0  0
   49.0470   32.5350   43.8320 H   0  0  0  0  0  0  0  0  0  0  0  0
   48.1910   33.3920   40.5050 C   0  0  0  0  0  0  0  0  0  0  0  0
   48.1200   34.6550   39.6800 C   0  0  0  0  0  0  0  0  0  0  0  0
   48.2920   34.1680   38.2270 C   0  0  0  0  0  0  0  0  0  0  0  0
   47.0620   33.6180   37.8770 O   0  0  0  0  0  0  0  0  0  0  0  0
   47.0440   32.3680   38.5730 C   0  0  0  0  0  0  0  0  0  0  0  0
   46.9540   32.6250   40.0680 C   0  0  0  0  0  0  0  0  0  0  0  0
   49.0910   32.8390   40.1540 H   0  0  0  0  0  0  0  0  0  0  0  0
   47.1500   35.1720   39.7990 H   0  0  0  0  0  0  0  0  0  0  0  0
   48.9870   35.3260   39.8640 H   0  0  0  0  0  0  0  0  0  0  0  0
   48.6080   35.0120   37.5850 H   0  0  0  0  0  0  0  0  0  0  0  0
   49.0620   33.3740   38.2380 H   0  0  0  0  0  0  0  0  0  0  0  0
   47.9260   31.7510   38.3150 H   0  0  0  0  0  0  0  0  0  0  0  0
   46.0760   31.9320   38.2680 H   0  0  0  0  0  0  0  0  0  0  0  0
   46.9360   31.6430   40.5470 H   0  0  0  0  0  0  0  0  0  0  0  0
   46.0440   33.2280   40.2550 H   0  0  0  0  0  0  0  0  0  0  0  0
   46.5770   35.4540   42.3800 C   0  0  0  0  0  0  0  0  0  0  0  0
   46.9670   34.1230   42.6150 C   0  0  0  0  0  0  0  0  0  0  0  0
   46.1610   33.3490   43.4590 C   0  0  0  0  0  0  0  0  0  0  0  0
   45.0600   33.8840   44.0150 N   0  0  0  0  0  0  0  0  0  0  0  0
   44.7310   35.1760   43.7510 C   0  0  0  0  0  0  0  0  0  0  0  0
   45.4600   35.9720   42.9520 N   0  0  0  0  0  0  0  0  0  0  0  0
   43.5670   35.7860   44.2800 N   0  0  0  0  0  0  0  0  0  0  0  0
   47.1640   36.0830   41.7320 H   0  0  0  0  0  0  0  0  0  0  0  0
   43.4260   36.2500   45.1790 H   0  0  0  0  0  0  0  0  0  0  0  0
   42.7700   35.7210   43.6100 H   0  0  0  0  0  0  0  0  0  0  0  0
   45.2310   30.8690   41.8590 Cl  0  0  0  0  0  0  0  0  0  0  0  0
   46.2110   30.7660   43.3290 C   0  0  0  0  0  0  0  0  0  0  0  0
   46.3910   31.9990   43.8650 C   0  0  0  0  0  0  0  0  0  0  0  0
   47.1280   31.9880   45.0700 C   0  0  0  0  0  0  0  0  0  0  0  0
   47.4490   32.7600   45.7450 H   0  0  0  0  0  0  0  0  0  0  0  0
   47.5880   30.7710   45.5800 C   0  0  0  0  0  0  0  0  0  0  0  0
   48.1800   30.6180   46.5000 H   0  0  0  0  0  0  0  0  0  0  0  0
   47.3280   29.5710   44.9130 C   0  0  0  0  0  0  0  0  0  0  0  0
   46.6060   29.5160   43.7220 C   0  0  0  0  0  0  0  0  0  0  0  0
  1  2  1  0  0  0  0
  1 24  1  0  0  0  0
  1  3  1  0  0  0  0
  2  3  1  0  0  0  0
  2  5  1  0  0  0  0
  3  7  1  0  0  0  0
  4  2  1  0  0  0  0
  6  3  1  0  0  0  0
  8  1  1  0  0  0  0
  9 15  1  0  0  0  0
  9 16  1  0  0  0  0
  9  8  1  0  0  0  0
 10 18  1  0  0  0  0
 10  9  1  0  0  0  0
 11 10  1  0  0  0  0
 11 12  1  0  0  0  0
 12 13  1  0  0  0  0
 13 22  1  0  0  0  0
 13  8  1  0  0  0  0
 13 21  1  0  0  0  0
 14  8  1  0  0  0  0
 17 10  1  0  0  0  0
 19 12  1  0  0  0  0
 20 12  1  0  0  0  0
 23 24  2  0  0  0  0
 23 28  1  0  0  0  0
 24 25  1  0  0  0  0
 25 35  1  0  0  0  0
 25 26  2  0  0  0  0
 27 26  1  0  0  0  0
 27 29  1  0  0  0  0
 28 27  2  0  0  0  0
 29 31  1  0  0  0  0
 30 23  1  0  0  0  0
 32 29  1  0  0  0  0
 33 34  1  0  0  0  0
 34 41  2  0  0  0  0
 34 35  1  0  0  0  0
 35 36  2  0  0  0  0
 36 38  1  0  0  0  0
 36 37  1  0  0  0  0
 38 39  1  0  0  0  0
 40 38  2  0  0  0  0
 41 40  1  0  0  0  0
M  END
>  <minimizedAffinity>
-5.15826797

>  <minimizedRMSD>
1.78152716

$$$$
