
 OpenBabel03252508193D

 47 51  0  0  1  0  0  0  0  0999 V2000
   36.5180   29.9660   37.6310 C   0  0  0  0  0  0  0  0  0  0  0  0
   37.0820   29.1570   37.1930 H   0  0  0  0  0  0  0  0  0  0  0  0
   35.8320   30.3940   36.8460 H   0  0  0  0  0  0  0  0  0  0  0  0
   35.6490   29.6570   38.8050 C   0  0  1  0  0  0  0  0  0  0  0  0
   34.5560   28.6780   38.5400 C   0  0  0  0  0  0  0  0  0  0  0  0
   35.6730   28.3100   39.4060 C   0  0  1  0  0  0  0  0  0  0  0  0
   35.2180   30.5620   39.3280 H   0  0  0  0  0  0  0  0  0  0  0  0
   34.5320   28.1670   37.5430 H   0  0  0  0  0  0  0  0  0  0  0  0
   33.5390   28.7970   38.9640 H   0  0  0  0  0  0  0  0  0  0  0  0
   35.4570   28.2540   40.4940 H   0  0  0  0  0  0  0  0  0  0  0  0
   36.7320   27.3550   38.9520 C   0  0  2  0  0  0  0  0  0  0  0  0
   36.5250   25.9220   39.5060 C   0  0  0  0  0  0  0  0  0  0  0  0
   37.6370   26.7340   40.0110 C   0  0  2  0  0  0  0  0  0  0  0  0
   37.0280   27.3080   37.8850 H   0  0  0  0  0  0  0  0  0  0  0  0
   35.6940   25.7470   40.2120 H   0  0  0  0  0  0  0  0  0  0  0  0
   36.7350   25.0600   38.8780 H   0  0  0  0  0  0  0  0  0  0  0  0
   38.6520   26.4800   39.5880 H   0  0  0  0  0  0  0  0  0  0  0  0
   39.5280   29.0490   40.2060 Cl  0  0  0  0  0  0  0  0  0  0  0  0
   38.4860   28.4910   41.5130 C   0  0  0  0  0  0  0  0  0  0  0  0
   37.6460   27.4080   41.3170 C   0  0  0  0  0  0  0  0  0  0  0  0
   36.8470   27.0140   42.3830 C   0  0  0  0  0  0  0  0  0  0  0  0
   36.1980   26.1740   42.2270 H   0  0  0  0  0  0  0  0  0  0  0  0
   36.8500   27.6460   43.6220 C   0  0  0  0  0  0  0  0  0  0  0  0
   36.2130   27.3010   44.4130 H   0  0  0  0  0  0  0  0  0  0  0  0
   37.7190   28.7240   43.7440 C   0  0  0  0  0  3  0  0  0  0  0  0
   38.5390   29.1630   42.7170 C   0  0  0  0  0  3  0  0  0  0  0  0
   37.2740   31.7390   38.9890 C   0  0  0  0  0  3  0  0  0  0  0  0
   37.5580   31.0010   37.9990 C   0  0  0  0  0  3  0  0  0  0  0  0
   38.7810   34.7920   40.4040 C   0  0  0  0  0  0  0  0  0  0  0  0
   40.1070   34.7010   40.0000 C   0  0  0  0  0  0  0  0  0  0  0  0
   40.4420   33.6070   39.2580 C   0  0  0  0  0  0  0  0  0  0  0  0
   39.4950   32.6750   38.9520 N   0  0  0  0  0  0  0  0  0  0  0  0
   38.2160   32.7960   39.3640 C   0  0  0  0  0  0  0  0  0  0  0  0
   37.8930   33.8570   40.0810 N   0  0  0  0  0  0  0  0  0  0  0  0
   38.4670   35.6330   40.9890 H   0  0  0  0  0  0  0  0  0  0  0  0
   40.8610   35.4350   40.2370 H   0  0  0  0  0  0  0  0  0  0  0  0
   41.7890   33.3770   38.7650 C   0  0  0  0  0  0  0  0  0  0  0  0
   42.9070   34.0110   39.2250 C   0  0  0  0  0  0  0  0  0  0  0  0
   44.1810   33.7810   38.7450 C   0  0  0  0  0  0  0  0  0  0  0  0
   44.3730   32.8570   37.7330 C   0  0  0  0  0  0  0  0  0  0  0  0
   43.2820   32.1880   37.2310 C   0  0  0  0  0  0  0  0  0  0  0  0
   42.0380   32.4660   37.7560 C   0  0  0  0  0  0  0  0  0  0  0  0
   42.7980   34.7500   40.0260 H   0  0  0  0  0  0  0  0  0  0  0  0
   45.0100   34.3440   39.1830 H   0  0  0  0  0  0  0  0  0  0  0  0
   45.4000   32.7340   37.4120 H   0  0  0  0  0  0  0  0  0  0  0  0
   43.4470   31.4720   36.4450 H   0  0  0  0  0  0  0  0  0  0  0  0
   41.2370   31.8940   37.3020 H   0  0  0  0  0  0  0  0  0  0  0  0
  1 28  1  0  0  0  0
  1  4  1  0  0  0  0
  2  1  1  0  0  0  0
  3  1  1  0  0  0  0
  4  7  1  1  0  0  0
  4  6  1  0  0  0  0
  5  4  1  0  0  0  0
  5  9  1  0  0  0  0
  5  6  1  0  0  0  0
  6 10  1  1  0  0  0
  8  5  1  0  0  0  0
 11 14  1  6  0  0  0
 11  6  1  0  0  0  0
 11 12  1  0  0  0  0
 11 13  1  0  0  0  0
 12 13  1  0  0  0  0
 12 15  1  0  0  0  0
 13 17  1  6  0  0  0
 13 20  1  0  0  0  0
 16 12  1  0  0  0  0
 18 19  1  0  0  0  0
 19 26  1  0  0  0  0
 20 19  2  0  0  0  0
 20 21  1  0  0  0  0
 21 23  2  0  0  0  0
 22 21  1  0  0  0  0
 23 25  1  0  0  0  0
 23 24  1  0  0  0  0
 26 25  2  0  0  0  0
 27 33  1  0  0  0  0
 28 27  2  0  0  0  0
 29 35  1  0  0  0  0
 30 36  1  0  0  0  0
 30 29  2  0  0  0  0
 31 30  1  0  0  0  0
 32 31  2  0  0  0  0
 32 33  1  0  0  0  0
 33 34  2  0  0  0  0
 34 29  1  0  0  0  0
 37 38  1  0  0  0  0
 37 31  1  0  0  0  0
 38 43  1  0  0  0  0
 39 44  1  0  0  0  0
 39 38  2  0  0  0  0
 40 39  1  0  0  0  0
 41 40  2  0  0  0  0
 41 42  1  0  0  0  0
 42 37  2  0  0  0  0
 45 40  1  0  0  0  0
 46 41  1  0  0  0  0
 47 42  1  0  0  0  0
M  END
>  <minimizedAffinity>
-6.56275654

$$$$

 OpenBabel03252508193D

 47 51  0  0  1  0  0  0  0  0999 V2000
   35.9990   29.4730   40.5570 C   0  0  0  0  0  0  0  0  0  0  0  0
   35.7380   28.9170   41.4440 H   0  0  0  0  0  0  0  0  0  0  0  0
   36.0460   30.5680   40.8180 H   0  0  0  0  0  0  0  0  0  0  0  0
   37.2990   29.1570   39.8930 C   0  0  1  0  0  0  0  0  0  0  0  0
   38.1460   30.3410   39.5720 C   0  0  0  0  0  0  0  0  0  0  0  0
   38.5690   29.3960   40.6040 C   0  0  1  0  0  0  0  0  0  0  0  0
   37.2160   28.5010   38.9760 H   0  0  0  0  0  0  0  0  0  0  0  0
   37.8180   31.3440   39.9450 H   0  0  0  0  0  0  0  0  0  0  0  0
   38.7170   30.4210   38.6260 H   0  0  0  0  0  0  0  0  0  0  0  0
   39.4120   28.7230   40.3420 H   0  0  0  0  0  0  0  0  0  0  0  0
   38.5070   29.7480   42.0570 C   0  0  2  0  0  0  0  0  0  0  0  0
   39.8800   29.6240   42.7640 C   0  0  0  0  0  0  0  0  0  0  0  0
   38.8240   28.6550   43.0720 C   0  0  2  0  0  0  0  0  0  0  0  0
   37.9910   30.6700   42.3920 H   0  0  0  0  0  0  0  0  0  0  0  0
   40.7360   29.2380   42.1830 H   0  0  0  0  0  0  0  0  0  0  0  0
   40.1730   30.3520   43.5160 H   0  0  0  0  0  0  0  0  0  0  0  0
   38.2800   28.8250   44.0460 H   0  0  0  0  0  0  0  0  0  0  0  0
   36.1920   27.2670   43.4180 Cl  0  0  0  0  0  0  0  0  0  0  0  0
   37.6150   26.5470   42.6700 C   0  0  0  0  0  0  0  0  0  0  0  0
   38.7860   27.2780   42.5590 C   0  0  0  0  0  0  0  0  0  0  0  0
   39.8760   26.6580   41.9590 C   0  0  0  0  0  0  0  0  0  0  0  0
   40.7800   27.2280   41.8760 H   0  0  0  0  0  0  0  0  0  0  0  0
   39.8480   25.3550   41.4720 C   0  0  0  0  0  0  0  0  0  0  0  0
   40.7180   24.9240   41.0180 H   0  0  0  0  0  0  0  0  0  0  0  0
   38.6400   24.6850   41.6190 C   0  0  0  0  0  3  0  0  0  0  0  0
   37.5200   25.2500   42.2070 C   0  0  0  0  0  3  0  0  0  0  0  0
   35.0700   28.4250   38.6610 C   0  0  0  0  0  3  0  0  0  0  0  0
   34.8470   29.2380   39.6060 C   0  0  0  0  0  3  0  0  0  0  0  0
   32.8200   26.8680   36.1890 C   0  0  0  0  0  0  0  0  0  0  0  0
   31.9710   27.9110   35.8400 C   0  0  0  0  0  0  0  0  0  0  0  0
   32.1950   29.1080   36.4560 C   0  0  0  0  0  0  0  0  0  0  0  0
   33.2080   29.2310   37.3590 N   0  0  0  0  0  0  0  0  0  0  0  0
   34.0130   28.1940   37.6740 C   0  0  0  0  0  0  0  0  0  0  0  0
   33.7950   27.0370   37.0760 N   0  0  0  0  0  0  0  0  0  0  0  0
   32.6850   25.9080   35.7340 H   0  0  0  0  0  0  0  0  0  0  0  0
   31.1670   27.8210   35.1260 H   0  0  0  0  0  0  0  0  0  0  0  0
   31.3890   30.2870   36.1920 C   0  0  0  0  0  0  0  0  0  0  0  0
   30.5860   30.9040   37.1070 C   0  0  0  0  0  0  0  0  0  0  0  0
   29.8250   32.0250   36.8400 C   0  0  0  0  0  0  0  0  0  0  0  0
   29.8540   32.5840   35.5740 C   0  0  0  0  0  0  0  0  0  0  0  0
   30.6460   32.0040   34.6120 C   0  0  0  0  0  0  0  0  0  0  0  0
   31.3800   30.8860   34.9470 C   0  0  0  0  0  0  0  0  0  0  0  0
   30.5350   30.4930   38.1210 H   0  0  0  0  0  0  0  0  0  0  0  0
   29.2150   32.4420   37.6460 H   0  0  0  0  0  0  0  0  0  0  0  0
   29.2310   33.4610   35.4450 H   0  0  0  0  0  0  0  0  0  0  0  0
   30.6590   32.4500   33.6330 H   0  0  0  0  0  0  0  0  0  0  0  0
   31.9740   30.4950   34.1290 H   0  0  0  0  0  0  0  0  0  0  0  0
  1  3  1  0  0  0  0
  1  2  1  0  0  0  0
  4  7  1  6  0  0  0
  4  1  1  0  0  0  0
  4  6  1  0  0  0  0
  5  4  1  0  0  0  0
  5  8  1  0  0  0  0
  5  6  1  0  0  0  0
  6 10  1  6  0  0  0
  6 11  1  0  0  0  0
  9  5  1  0  0  0  0
 11 14  1  1  0  0  0
 11 12  1  0  0  0  0
 11 13  1  0  0  0  0
 12 13  1  0  0  0  0
 12 16  1  0  0  0  0
 13 17  1  1  0  0  0
 15 12  1  0  0  0  0
 19 18  1  0  0  0  0
 20 19  1  0  0  0  0
 20 13  1  0  0  0  0
 21 20  2  0  0  0  0
 22 21  1  0  0  0  0
 23 25  2  0  0  0  0
 23 21  1  0  0  0  0
 24 23  1  0  0  0  0
 25 26  1  0  0  0  0
 26 19  2  0  0  0  0
 27 28  2  0  0  0  0
 28  1  1  0  0  0  0
 29 34  1  0  0  0  0
 30 29  2  0  0  0  0
 30 31  1  0  0  0  0
 31 32  2  0  0  0  0
 32 33  1  0  0  0  0
 33 27  1  0  0  0  0
 34 33  2  0  0  0  0
 35 29  1  0  0  0  0
 36 30  1  0  0  0  0
 37 31  1  0  0  0  0
 37 38  1  0  0  0  0
 38 43  1  0  0  0  0
 39 38  2  0  0  0  0
 39 44  1  0  0  0  0
 40 39  1  0  0  0  0
 41 42  1  0  0  0  0
 41 40  2  0  0  0  0
 42 37  2  0  0  0  0
 45 40  1  0  0  0  0
 46 41  1  0  0  0  0
 47 42  1  0  0  0  0
M  END
>  <minimizedAffinity>
-6.39861012

$$$$

 OpenBabel03252508193D

 47 51  0  0  1  0  0  0  0  0999 V2000
   36.6130   29.8760   37.5810 C   0  0  0  0  0  0  0  0  0  0  0  0
   37.2510   29.0840   37.2230 H   0  0  0  0  0  0  0  0  0  0  0  0
   35.9560   30.2220   36.7330 H   0  0  0  0  0  0  0  0  0  0  0  0
   35.6890   29.5700   38.7130 C   0  0  1  0  0  0  0  0  0  0  0  0
   34.5660   28.6480   38.3790 C   0  0  0  0  0  0  0  0  0  0  0  0
   35.6340   28.2070   39.2730 C   0  0  1  0  0  0  0  0  0  0  0  0
   35.2770   30.4770   39.2480 H   0  0  0  0  0  0  0  0  0  0  0  0
   34.5580   28.1680   37.3670 H   0  0  0  0  0  0  0  0  0  0  0  0
   33.5400   28.7980   38.7700 H   0  0  0  0  0  0  0  0  0  0  0  0
   35.3750   28.1290   40.3500 H   0  0  0  0  0  0  0  0  0  0  0  0
   36.6680   27.2210   38.8280 C   0  0  2  0  0  0  0  0  0  0  0  0
   36.4900   25.8280   39.4840 C   0  0  0  0  0  0  0  0  0  0  0  0
   37.6260   26.6670   39.8770 C   0  0  2  0  0  0  0  0  0  0  0  0
   36.9090   27.1040   37.7530 H   0  0  0  0  0  0  0  0  0  0  0  0
   35.6970   25.7020   40.2420 H   0  0  0  0  0  0  0  0  0  0  0  0
   36.6680   24.9260   38.9040 H   0  0  0  0  0  0  0  0  0  0  0  0
   38.6180   26.3830   39.4210 H   0  0  0  0  0  0  0  0  0  0  0  0
   39.6430   28.8820   39.8780 Cl  0  0  0  0  0  0  0  0  0  0  0  0
   38.6040   28.4710   41.2400 C   0  0  0  0  0  0  0  0  0  0  0  0
   37.7030   27.4250   41.1340 C   0  0  0  0  0  0  0  0  0  0  0  0
   36.9090   27.1470   42.2410 C   0  0  0  0  0  0  0  0  0  0  0  0
   36.2130   26.3360   42.1550 H   0  0  0  0  0  0  0  0  0  0  0  0
   36.9760   27.8580   43.4340 C   0  0  0  0  0  0  0  0  0  0  0  0
   36.3400   27.6030   44.2590 H   0  0  0  0  0  0  0  0  0  0  0  0
   37.9030   28.8930   43.4650 C   0  0  0  0  0  3  0  0  0  0  0  0
   38.7210   29.2170   42.3950 C   0  0  0  0  0  3  0  0  0  0  0  0
   37.3320   31.5600   39.0670 C   0  0  0  0  0  3  0  0  0  0  0  0
   37.5630   30.9900   37.9590 C   0  0  0  0  0  3  0  0  0  0  0  0
   38.5360   34.8560   40.1990 C   0  0  0  0  0  0  0  0  0  0  0  0
   39.9170   34.6980   40.2040 C   0  0  0  0  0  0  0  0  0  0  0  0
   40.3900   33.4770   39.8200 C   0  0  0  0  0  0  0  0  0  0  0  0
   39.5200   32.4920   39.4580 N   0  0  0  0  0  0  0  0  0  0  0  0
   38.1840   32.6820   39.4670 C   0  0  0  0  0  0  0  0  0  0  0  0
   37.7280   33.8640   39.8380 N   0  0  0  0  0  0  0  0  0  0  0  0
   38.1150   35.7960   40.4920 H   0  0  0  0  0  0  0  0  0  0  0  0
   40.6110   35.4730   40.4880 H   0  0  0  0  0  0  0  0  0  0  0  0
   41.8070   33.1660   39.7760 C   0  0  0  0  0  0  0  0  0  0  0  0
   42.3360   32.0000   39.2990 C   0  0  0  0  0  0  0  0  0  0  0  0
   43.6870   31.7200   39.2640 C   0  0  0  0  0  0  0  0  0  0  0  0
   44.5920   32.6550   39.7350 C   0  0  0  0  0  0  0  0  0  0  0  0
   44.1150   33.8470   40.2270 C   0  0  0  0  0  0  0  0  0  0  0  0
   42.7540   34.0630   40.2320 C   0  0  0  0  0  0  0  0  0  0  0  0
   41.6540   31.2340   38.9170 H   0  0  0  0  0  0  0  0  0  0  0  0
   44.0060   30.7540   38.8620 H   0  0  0  0  0  0  0  0  0  0  0  0
   45.6320   32.3600   39.6730 H   0  0  0  0  0  0  0  0  0  0  0  0
   44.8310   34.5660   40.5890 H   0  0  0  0  0  0  0  0  0  0  0  0
   42.4680   35.0270   40.6370 H   0  0  0  0  0  0  0  0  0  0  0  0
  1 28  1  0  0  0  0
  1  4  1  0  0  0  0
  2  1  1  0  0  0  0
  3  1  1  0  0  0  0
  4  7  1  1  0  0  0
  4  6  1  0  0  0  0
  5  4  1  0  0  0  0
  5  9  1  0  0  0  0
  5  6  1  0  0  0  0
  6 10  1  1  0  0  0
  8  5  1  0  0  0  0
 11 14  1  6  0  0  0
 11  6  1  0  0  0  0
 11 12  1  0  0  0  0
 11 13  1  0  0  0  0
 12 13  1  0  0  0  0
 12 15  1  0  0  0  0
 13 17  1  6  0  0  0
 13 20  1  0  0  0  0
 16 12  1  0  0  0  0
 18 19  1  0  0  0  0
 19 26  1  0  0  0  0
 20 19  2  0  0  0  0
 20 21  1  0  0  0  0
 21 23  2  0  0  0  0
 22 21  1  0  0  0  0
 23 25  1  0  0  0  0
 23 24  1  0  0  0  0
 26 25  2  0  0  0  0
 27 33  1  0  0  0  0
 28 27  2  0  0  0  0
 29 30  1  0  0  0  0
 29 35  1  0  0  0  0
 30 36  1  0  0  0  0
 31 30  2  0  0  0  0
 32 33  2  0  0  0  0
 32 31  1  0  0  0  0
 33 34  1  0  0  0  0
 34 29  2  0  0  0  0
 37 31  1  0  0  0  0
 37 42  1  0  0  0  0
 38 37  2  0  0  0  0
 39 38  1  0  0  0  0
 39 40  2  0  0  0  0
 40 41  1  0  0  0  0
 41 42  2  0  0  0  0
 41 46  1  0  0  0  0
 42 47  1  0  0  0  0
 43 38  1  0  0  0  0
 44 39  1  0  0  0  0
 45 40  1  0  0  0  0
M  END
>  <minimizedAffinity>
-6.26474428

$$$$

 OpenBabel03252508193D

 47 51  0  0  1  0  0  0  0  0999 V2000
   36.9360   27.0020   40.6000 C   0  0  0  0  0  0  0  0  0  0  0  0
   37.9790   26.9520   40.3280 H   0  0  0  0  0  0  0  0  0  0  0  0
   36.6440   26.0280   41.0860 H   0  0  0  0  0  0  0  0  0  0  0  0
   36.5130   28.0740   41.5490 C   0  0  1  0  0  0  0  0  0  0  0  0
   36.7110   27.7530   42.9910 C   0  0  0  0  0  0  0  0  0  0  0  0
   37.5210   28.7880   42.3540 C   0  0  1  0  0  0  0  0  0  0  0  0
   35.4590   28.4540   41.3950 H   0  0  0  0  0  0  0  0  0  0  0  0
   37.2560   26.8110   43.2550 H   0  0  0  0  0  0  0  0  0  0  0  0
   35.9680   28.0280   43.7670 H   0  0  0  0  0  0  0  0  0  0  0  0
   37.2810   29.8380   42.6220 H   0  0  0  0  0  0  0  0  0  0  0  0
   38.9660   28.5630   42.0340 C   0  0  2  0  0  0  0  0  0  0  0  0
   39.8820   29.6950   42.5650 C   0  0  0  0  0  0  0  0  0  0  0  0
   39.6610   29.5670   41.1210 C   0  0  2  0  0  0  0  0  0  0  0  0
   39.4370   27.5770   42.2200 H   0  0  0  0  0  0  0  0  0  0  0  0
   39.4100   30.5670   43.0510 H   0  0  0  0  0  0  0  0  0  0  0  0
   40.8580   29.4570   42.9800 H   0  0  0  0  0  0  0  0  0  0  0  0
   40.5030   29.0860   40.5440 H   0  0  0  0  0  0  0  0  0  0  0  0
   39.2460   28.6950   38.2850 Cl  0  0  0  0  0  0  0  0  0  0  0  0
   38.5150   30.1240   39.0130 C   0  0  0  0  0  0  0  0  0  0  0  0
   38.7740   30.4380   40.3370 C   0  0  0  0  0  0  0  0  0  0  0  0
   38.1690   31.5760   40.8560 C   0  0  0  0  0  0  0  0  0  0  0  0
   38.3720   31.8150   41.8820 H   0  0  0  0  0  0  0  0  0  0  0  0
   37.3290   32.4050   40.1210 C   0  0  0  0  0  0  0  0  0  0  0  0
   36.8870   33.2730   40.5700 H   0  0  0  0  0  0  0  0  0  0  0  0
   37.1170   32.0260   38.8000 C   0  0  0  0  0  3  0  0  0  0  0  0
   37.6910   30.9030   38.2270 C   0  0  0  0  0  3  0  0  0  0  0  0
   35.4220   28.1300   39.1900 C   0  0  0  0  0  3  0  0  0  0  0  0
   36.2050   27.1390   39.2840 C   0  0  0  0  0  3  0  0  0  0  0  0
   34.2360   27.9300   35.7040 C   0  0  0  0  0  0  0  0  0  0  0  0
   33.0630   28.6740   35.7310 C   0  0  0  0  0  0  0  0  0  0  0  0
   32.7180   29.2210   36.9330 C   0  0  0  0  0  0  0  0  0  0  0  0
   33.5090   29.0220   38.0240 N   0  0  0  0  0  0  0  0  0  0  0  0
   34.6420   28.2910   37.9600 C   0  0  0  0  0  0  0  0  0  0  0  0
   34.9750   27.7640   36.7970 N   0  0  0  0  0  0  0  0  0  0  0  0
   34.5500   27.4800   34.7850 H   0  0  0  0  0  0  0  0  0  0  0  0
   32.4320   28.8370   34.8720 H   0  0  0  0  0  0  0  0  0  0  0  0
   31.5210   30.0230   37.1130 C   0  0  0  0  0  0  0  0  0  0  0  0
   30.7210   29.9940   38.2200 C   0  0  0  0  0  0  0  0  0  0  0  0
   29.5860   30.7630   38.3760 C   0  0  0  0  0  0  0  0  0  0  0  0
   29.2030   31.6290   37.3660 C   0  0  0  0  0  0  0  0  0  0  0  0
   29.9710   31.6990   36.2280 C   0  0  0  0  0  0  0  0  0  0  0  0
   31.0930   30.9030   36.1380 C   0  0  0  0  0  0  0  0  0  0  0  0
   30.9900   29.3220   39.0420 H   0  0  0  0  0  0  0  0  0  0  0  0
   29.0150   30.6640   39.3030 H   0  0  0  0  0  0  0  0  0  0  0  0
   28.3020   32.1970   37.5640 H   0  0  0  0  0  0  0  0  0  0  0  0
   29.6610   32.3770   35.4510 H   0  0  0  0  0  0  0  0  0  0  0  0
   31.6370   31.0220   35.2080 H   0  0  0  0  0  0  0  0  0  0  0  0
  1  3  1  0  0  0  0
  1  4  1  0  0  0  0
  2  1  1  0  0  0  0
  4  7  1  6  0  0  0
  4  6  1  0  0  0  0
  4  5  1  0  0  0  0
  5  8  1  0  0  0  0
  5  9  1  0  0  0  0
  6 10  1  1  0  0  0
  6  5  1  0  0  0  0
 11 14  1  1  0  0  0
 11  6  1  0  0  0  0
 11 12  1  0  0  0  0
 12 16  1  0  0  0  0
 12 15  1  0  0  0  0
 13 17  1  6  0  0  0
 13 11  1  0  0  0  0
 13 12  1  0  0  0  0
 18 19  1  0  0  0  0
 19 20  1  0  0  0  0
 20 21  2  0  0  0  0
 20 13  1  0  0  0  0
 21 22  1  0  0  0  0
 23 24  1  0  0  0  0
 23 21  1  0  0  0  0
 25 23  2  0  0  0  0
 26 25  1  0  0  0  0
 26 19  2  0  0  0  0
 27 28  2  0  0  0  0
 28  1  1  0  0  0  0
 29 30  2  0  0  0  0
 29 34  1  0  0  0  0
 30 31  1  0  0  0  0
 31 37  1  0  0  0  0
 31 32  2  0  0  0  0
 33 32  1  0  0  0  0
 33 27  1  0  0  0  0
 34 33  2  0  0  0  0
 35 29  1  0  0  0  0
 36 30  1  0  0  0  0
 37 38  1  0  0  0  0
 38 39  2  0  0  0  0
 38 43  1  0  0  0  0
 39 44  1  0  0  0  0
 40 45  1  0  0  0  0
 40 39  1  0  0  0  0
 41 40  2  0  0  0  0
 42 41  1  0  0  0  0
 42 37  2  0  0  0  0
 46 41  1  0  0  0  0
 47 42  1  0  0  0  0
M  END
>  <minimizedAffinity>
-6.14924097

$$$$

 OpenBabel03252508193D

 47 51  0  0  1  0  0  0  0  0999 V2000
   36.3510   30.0260   37.7880 C   0  0  0  0  0  0  0  0  0  0  0  0
   36.8220   29.2410   37.2160 H   0  0  0  0  0  0  0  0  0  0  0  0
   35.6920   30.6280   37.1010 H   0  0  0  0  0  0  0  0  0  0  0  0
   35.4860   29.6280   38.9380 C   0  0  1  0  0  0  0  0  0  0  0  0
   34.4400   28.6150   38.6180 C   0  0  0  0  0  0  0  0  0  0  0  0
   35.5630   28.2590   39.4810 C   0  0  1  0  0  0  0  0  0  0  0  0
   35.0100   30.4900   39.4940 H   0  0  0  0  0  0  0  0  0  0  0  0
   34.4480   28.1470   37.6000 H   0  0  0  0  0  0  0  0  0  0  0  0
   33.4140   28.6710   39.0350 H   0  0  0  0  0  0  0  0  0  0  0  0
   35.3380   28.1470   40.5630 H   0  0  0  0  0  0  0  0  0  0  0  0
   36.6670   27.3710   38.9990 C   0  0  2  0  0  0  0  0  0  0  0  0
   36.5160   25.9070   39.4850 C   0  0  0  0  0  0  0  0  0  0  0  0
   37.5860   26.7420   40.0410 C   0  0  2  0  0  0  0  0  0  0  0  0
   36.9790   27.3860   37.9350 H   0  0  0  0  0  0  0  0  0  0  0  0
   35.6850   25.6650   40.1700 H   0  0  0  0  0  0  0  0  0  0  0  0
   36.7710   25.0850   38.8220 H   0  0  0  0  0  0  0  0  0  0  0  0
   38.6160   26.5510   39.6230 H   0  0  0  0  0  0  0  0  0  0  0  0
   39.5160   28.9990   40.4290 Cl  0  0  0  0  0  0  0  0  0  0  0  0
   38.4030   28.4080   41.6610 C   0  0  0  0  0  0  0  0  0  0  0  0
   37.5490   27.3550   41.3770 C   0  0  0  0  0  0  0  0  0  0  0  0
   36.6940   26.9320   42.3870 C   0  0  0  0  0  0  0  0  0  0  0  0
   36.0350   26.1160   42.1620 H   0  0  0  0  0  0  0  0  0  0  0  0
   36.6550   27.5060   43.6530 C   0  0  0  0  0  0  0  0  0  0  0  0
   35.9740   27.1410   44.3970 H   0  0  0  0  0  0  0  0  0  0  0  0
   37.5400   28.5570   43.8640 C   0  0  0  0  0  3  0  0  0  0  0  0
   38.4150   29.0230   42.8960 C   0  0  0  0  0  3  0  0  0  0  0  0
   38.5130   30.9220   37.5070 C   0  0  0  0  0  3  0  0  0  0  0  0
   37.4970   30.8920   38.2620 C   0  0  0  0  0  3  0  0  0  0  0  0
   40.7230   33.3330   39.2110 C   0  0  0  0  0  0  0  0  0  0  0  0
   41.9650   33.0720   38.6420 C   0  0  0  0  0  0  0  0  0  0  0  0
   42.0050   32.0890   37.6980 C   0  0  0  0  0  0  0  0  0  0  0  0
   40.8670   31.4210   37.3590 N   0  0  0  0  0  0  0  0  0  0  0  0
   39.6780   31.7000   37.9340 C   0  0  0  0  0  0  0  0  0  0  0  0
   39.6400   32.6530   38.8470 N   0  0  0  0  0  0  0  0  0  0  0  0
   40.6380   34.0960   39.9570 H   0  0  0  0  0  0  0  0  0  0  0  0
   42.8700   33.5970   38.9040 H   0  0  0  0  0  0  0  0  0  0  0  0
   43.2310   31.7070   37.0180 C   0  0  0  0  0  0  0  0  0  0  0  0
   43.3320   30.7080   36.0930 C   0  0  0  0  0  0  0  0  0  0  0  0
   44.5050   30.3570   35.4560 C   0  0  0  0  0  0  0  0  0  0  0  0
   45.6720   31.0400   35.7490 C   0  0  0  0  0  0  0  0  0  0  0  0
   45.6290   32.0570   36.6730 C   0  0  0  0  0  0  0  0  0  0  0  0
   44.4250   32.3550   37.2720 C   0  0  0  0  0  0  0  0  0  0  0  0
   42.4300   30.1420   35.8330 H   0  0  0  0  0  0  0  0  0  0  0  0
   44.4770   29.5390   34.7300 H   0  0  0  0  0  0  0  0  0  0  0  0
   46.5490   30.7060   35.2070 H   0  0  0  0  0  0  0  0  0  0  0  0
   46.5450   32.5800   36.8910 H   0  0  0  0  0  0  0  0  0  0  0  0
   44.4830   33.1680   37.9860 H   0  0  0  0  0  0  0  0  0  0  0  0
  1 28  1  0  0  0  0
  1  4  1  0  0  0  0
  2  1  1  0  0  0  0
  3  1  1  0  0  0  0
  4  6  1  0  0  0  0
  4  7  1  1  0  0  0
  5  4  1  0  0  0  0
  5  9  1  0  0  0  0
  5  6  1  0  0  0  0
  6 10  1  1  0  0  0
  8  5  1  0  0  0  0
 11 14  1  6  0  0  0
 11  6  1  0  0  0  0
 11 12  1  0  0  0  0
 11 13  1  0  0  0  0
 12 13  1  0  0  0  0
 12 15  1  0  0  0  0
 13 17  1  6  0  0  0
 13 20  1  0  0  0  0
 16 12  1  0  0  0  0
 18 19  1  0  0  0  0
 19 26  1  0  0  0  0
 20 19  2  0  0  0  0
 20 21  1  0  0  0  0
 21 23  2  0  0  0  0
 22 21  1  0  0  0  0
 23 25  1  0  0  0  0
 23 24  1  0  0  0  0
 26 25  2  0  0  0  0
 27 33  1  0  0  0  0
 27 28  2  0  0  0  0
 29 35  1  0  0  0  0
 30 36  1  0  0  0  0
 30 29  2  0  0  0  0
 31 30  1  0  0  0  0
 32 31  2  0  0  0  0
 32 33  1  0  0  0  0
 33 34  2  0  0  0  0
 34 29  1  0  0  0  0
 37 42  1  0  0  0  0
 37 31  1  0  0  0  0
 38 37  2  0  0  0  0
 39 40  2  0  0  0  0
 39 38  1  0  0  0  0
 40 41  1  0  0  0  0
 41 46  1  0  0  0  0
 41 42  2  0  0  0  0
 42 47  1  0  0  0  0
 43 38  1  0  0  0  0
 44 39  1  0  0  0  0
 45 40  1  0  0  0  0
M  END
>  <minimizedAffinity>
-6.12026691

$$$$

 OpenBabel03252508193D

 47 51  0  0  1  0  0  0  0  0999 V2000
   38.1460   30.6560   38.2900 C   0  0  0  0  0  0  0  0  0  0  0  0
   37.8390   31.3500   39.0560 H   0  0  0  0  0  0  0  0  0  0  0  0
   38.7300   31.2180   37.5070 H   0  0  0  0  0  0  0  0  0  0  0  0
   39.0070   29.5060   38.6930 C   0  0  1  0  0  0  0  0  0  0  0  0
   40.4720   29.7230   38.5150 C   0  0  0  0  0  0  0  0  0  0  0  0
   39.9040   29.6280   39.8580 C   0  0  1  0  0  0  0  0  0  0  0  0
   38.7210   28.5130   38.2330 H   0  0  0  0  0  0  0  0  0  0  0  0
   40.8240   30.7420   38.2130 H   0  0  0  0  0  0  0  0  0  0  0  0
   41.1470   28.9270   38.1400 H   0  0  0  0  0  0  0  0  0  0  0  0
   40.1130   28.6920   40.4170 H   0  0  0  0  0  0  0  0  0  0  0  0
   39.7620   30.8340   40.7320 C   0  0  2  0  0  0  0  0  0  0  0  0
   40.6390   30.7580   42.0080 C   0  0  0  0  0  0  0  0  0  0  0  0
   39.1820   30.6410   42.1290 C   0  0  2  0  0  0  0  0  0  0  0  0
   39.8140   31.8540   40.2990 H   0  0  0  0  0  0  0  0  0  0  0  0
   41.2150   29.8340   42.1940 H   0  0  0  0  0  0  0  0  0  0  0  0
   41.1360   31.6490   42.3810 H   0  0  0  0  0  0  0  0  0  0  0  0
   38.6510   31.5700   42.4880 H   0  0  0  0  0  0  0  0  0  0  0  0
   36.3060   30.6710   41.2930 Cl  0  0  0  0  0  0  0  0  0  0  0  0
   37.1310   29.2840   42.0020 C   0  0  0  0  0  0  0  0  0  0  0  0
   38.4670   29.3770   42.3530 C   0  0  0  0  0  0  0  0  0  0  0  0
   39.0650   28.2510   42.9070 C   0  0  0  0  0  0  0  0  0  0  0  0
   40.0990   28.3280   43.1780 H   0  0  0  0  0  0  0  0  0  0  0  0
   38.3940   27.0520   43.1230 C   0  0  0  0  0  0  0  0  0  0  0  0
   38.9030   26.2120   43.5540 H   0  0  0  0  0  0  0  0  0  0  0  0
   37.0570   27.0340   42.7450 C   0  0  0  0  0  3  0  0  0  0  0  0
   36.4070   28.1240   42.1890 C   0  0  0  0  0  3  0  0  0  0  0  0
   36.4520   29.0290   38.0860 C   0  0  0  0  0  3  0  0  0  0  0  0
   36.8510   30.1610   37.6830 C   0  0  0  0  0  3  0  0  0  0  0  0
   34.0070   26.7700   36.4990 C   0  0  0  0  0  0  0  0  0  0  0  0
   32.8600   27.5510   36.4310 C   0  0  0  0  0  0  0  0  0  0  0  0
   32.9590   28.8190   36.9250 C   0  0  0  0  0  0  0  0  0  0  0  0
   34.1380   29.2570   37.4490 N   0  0  0  0  0  0  0  0  0  0  0  0
   35.2330   28.4680   37.4990 C   0  0  0  0  0  0  0  0  0  0  0  0
   35.1360   27.2420   37.0190 N   0  0  0  0  0  0  0  0  0  0  0  0
   33.9810   25.7670   36.1250 H   0  0  0  0  0  0  0  0  0  0  0  0
   31.9230   27.2120   36.0180 H   0  0  0  0  0  0  0  0  0  0  0  0
   31.8440   29.7490   36.9220 C   0  0  0  0  0  0  0  0  0  0  0  0
   31.0200   29.9850   37.9860 C   0  0  0  0  0  0  0  0  0  0  0  0
   29.9640   30.8730   37.9660 C   0  0  0  0  0  0  0  0  0  0  0  0
   29.6920   31.5870   36.8120 C   0  0  0  0  0  0  0  0  0  0  0  0
   30.4900   31.3900   35.7090 C   0  0  0  0  0  0  0  0  0  0  0  0
   31.5280   30.4880   35.7970 C   0  0  0  0  0  0  0  0  0  0  0  0
   31.2010   29.4400   38.9180 H   0  0  0  0  0  0  0  0  0  0  0  0
   29.3640   30.9870   38.8740 H   0  0  0  0  0  0  0  0  0  0  0  0
   28.8490   32.2630   36.8770 H   0  0  0  0  0  0  0  0  0  0  0  0
   30.2670   31.9520   34.8180 H   0  0  0  0  0  0  0  0  0  0  0  0
   32.1030   30.3960   34.8830 H   0  0  0  0  0  0  0  0  0  0  0  0
  1  4  1  0  0  0  0
  1  2  1  0  0  0  0
  3  1  1  0  0  0  0
  4  7  1  6  0  0  0
  4  6  1  0  0  0  0
  5  4  1  0  0  0  0
  5  6  1  0  0  0  0
  6 10  1  1  0  0  0
  6 11  1  0  0  0  0
  8  5  1  0  0  0  0
  9  5  1  0  0  0  0
 11 14  1  6  0  0  0
 11 12  1  0  0  0  0
 11 13  1  0  0  0  0
 12 13  1  0  0  0  0
 12 15  1  0  0  0  0
 12 16  1  0  0  0  0
 13 20  1  0  0  0  0
 13 17  1  1  0  0  0
 18 19  1  0  0  0  0
 19 26  2  0  0  0  0
 19 20  1  0  0  0  0
 20 21  2  0  0  0  0
 21 23  1  0  0  0  0
 21 22  1  0  0  0  0
 23 24  1  0  0  0  0
 25 23  2  0  0  0  0
 26 25  1  0  0  0  0
 28 27  2  0  0  0  0
 28  1  1  0  0  0  0
 29 34  1  0  0  0  0
 30 29  2  0  0  0  0
 30 31  1  0  0  0  0
 31 32  2  0  0  0  0
 32 33  1  0  0  0  0
 33 27  1  0  0  0  0
 34 33  2  0  0  0  0
 35 29  1  0  0  0  0
 36 30  1  0  0  0  0
 37 31  1  0  0  0  0
 37 38  1  0  0  0  0
 38 43  1  0  0  0  0
 39 38  2  0  0  0  0
 39 44  1  0  0  0  0
 40 45  1  0  0  0  0
 40 39  1  0  0  0  0
 41 42  1  0  0  0  0
 41 40  2  0  0  0  0
 42 37  2  0  0  0  0
 46 41  1  0  0  0  0
 47 42  1  0  0  0  0
M  END
>  <minimizedAffinity>
-6.0021081

$$$$

 OpenBabel03252508193D

 47 51  0  0  1  0  0  0  0  0999 V2000
   37.9670   24.8640   39.0500 C   0  0  0  0  0  0  0  0  0  0  0  0
   39.0020   24.5960   39.1940 H   0  0  0  0  0  0  0  0  0  0  0  0
   37.4710   24.0650   38.4290 H   0  0  0  0  0  0  0  0  0  0  0  0
   37.1120   25.0260   40.2630 C   0  0  1  0  0  0  0  0  0  0  0  0
   36.8440   23.7680   41.0180 C   0  0  0  0  0  0  0  0  0  0  0  0
   37.6860   24.8080   41.6050 C   0  0  1  0  0  0  0  0  0  0  0  0
   36.1360   25.5680   40.0870 H   0  0  0  0  0  0  0  0  0  0  0  0
   37.3810   22.8370   40.7030 H   0  0  0  0  0  0  0  0  0  0  0  0
   35.8520   23.5420   41.4580 H   0  0  0  0  0  0  0  0  0  0  0  0
   37.2370   25.3980   42.4310 H   0  0  0  0  0  0  0  0  0  0  0  0
   39.1690   24.6420   41.7180 C   0  0  2  0  0  0  0  0  0  0  0  0
   39.6550   24.5800   43.1880 C   0  0  0  0  0  0  0  0  0  0  0  0
   39.9660   25.7620   42.3770 C   0  0  2  0  0  0  0  0  0  0  0  0
   39.6980   23.8780   41.1130 H   0  0  0  0  0  0  0  0  0  0  0  0
   38.9130   24.7280   43.9930 H   0  0  0  0  0  0  0  0  0  0  0  0
   40.4540   23.9000   43.4700 H   0  0  0  0  0  0  0  0  0  0  0  0
   41.0200   25.8090   41.9760 H   0  0  0  0  0  0  0  0  0  0  0  0
   40.5440   27.6890   40.1580 Cl  0  0  0  0  0  0  0  0  0  0  0  0
   39.4730   28.0170   41.5190 C   0  0  0  0  0  0  0  0  0  0  0  0
   39.2750   27.0540   42.4940 C   0  0  0  0  0  0  0  0  0  0  0  0
   38.4200   27.3690   43.5430 C   0  0  0  0  0  0  0  0  0  0  0  0
   38.2690   26.6190   44.2950 H   0  0  0  0  0  0  0  0  0  0  0  0
   37.7630   28.5890   43.6600 C   0  0  0  0  0  0  0  0  0  0  0  0
   37.1120   28.7810   44.4910 H   0  0  0  0  0  0  0  0  0  0  0  0
   38.0110   29.5050   42.6450 C   0  0  0  0  0  3  0  0  0  0  0  0
   38.8520   29.2480   41.5740 C   0  0  0  0  0  3  0  0  0  0  0  0
   37.2110   27.0570   38.6320 C   0  0  0  0  0  3  0  0  0  0  0  0
   38.0140   26.1520   38.2580 C   0  0  0  0  0  3  0  0  0  0  0  0
   36.7320   29.5640   35.9710 C   0  0  0  0  0  0  0  0  0  0  0  0
   37.1350   30.7460   36.5800 C   0  0  0  0  0  0  0  0  0  0  0  0
   37.5590   30.6480   37.8740 C   0  0  0  0  0  0  0  0  0  0  0  0
   37.5690   29.4370   38.4980 N   0  0  0  0  0  0  0  0  0  0  0  0
   37.1680   28.3090   37.8740 C   0  0  0  0  0  0  0  0  0  0  0  0
   36.7600   28.4060   36.6220 N   0  0  0  0  0  0  0  0  0  0  0  0
   36.3900   29.5880   34.9560 H   0  0  0  0  0  0  0  0  0  0  0  0
   37.1300   31.7080   36.0930 H   0  0  0  0  0  0  0  0  0  0  0  0
   38.0100   31.7980   38.6380 C   0  0  0  0  0  0  0  0  0  0  0  0
   37.1940   32.7720   39.1380 C   0  0  0  0  0  0  0  0  0  0  0  0
   37.6390   33.8590   39.8630 C   0  0  0  0  0  0  0  0  0  0  0  0
   38.9920   34.0020   40.1190 C   0  0  0  0  0  0  0  0  0  0  0  0
   39.8610   33.0500   39.6390 C   0  0  0  0  0  0  0  0  0  0  0  0
   39.3490   31.9900   38.9220 C   0  0  0  0  0  0  0  0  0  0  0  0
   36.1170   32.6960   38.9580 H   0  0  0  0  0  0  0  0  0  0  0  0
   36.9010   34.5840   40.2180 H   0  0  0  0  0  0  0  0  0  0  0  0
   39.2610   34.8800   40.6940 H   0  0  0  0  0  0  0  0  0  0  0  0
   40.9100   33.1740   39.8460 H   0  0  0  0  0  0  0  0  0  0  0  0
   40.1030   31.2890   38.5840 H   0  0  0  0  0  0  0  0  0  0  0  0
  1  2  1  0  0  0  0
  1  4  1  0  0  0  0
  3  1  1  0  0  0  0
  4  7  1  6  0  0  0
  4  5  1  0  0  0  0
  4  6  1  0  0  0  0
  5  9  1  0  0  0  0
  5  6  1  0  0  0  0
  6 11  1  0  0  0  0
  6 10  1  1  0  0  0
  8  5  1  0  0  0  0
 11 14  1  6  0  0  0
 11 13  1  0  0  0  0
 11 12  1  0  0  0  0
 12 16  1  0  0  0  0
 12 15  1  0  0  0  0
 13 17  1  6  0  0  0
 13 20  1  0  0  0  0
 13 12  1  0  0  0  0
 18 19  1  0  0  0  0
 19 26  2  0  0  0  0
 19 20  1  0  0  0  0
 20 21  2  0  0  0  0
 21 23  1  0  0  0  0
 21 22  1  0  0  0  0
 23 24  1  0  0  0  0
 25 23  2  0  0  0  0
 26 25  1  0  0  0  0
 28 27  2  0  0  0  0
 28  1  1  0  0  0  0
 29 30  2  0  0  0  0
 29 34  1  0  0  0  0
 30 31  1  0  0  0  0
 31 32  2  0  0  0  0
 31 37  1  0  0  0  0
 33 32  1  0  0  0  0
 33 27  1  0  0  0  0
 34 33  2  0  0  0  0
 35 29  1  0  0  0  0
 36 30  1  0  0  0  0
 37 42  2  0  0  0  0
 37 38  1  0  0  0  0
 38 39  2  0  0  0  0
 39 40  1  0  0  0  0
 39 44  1  0  0  0  0
 40 45  1  0  0  0  0
 41 46  1  0  0  0  0
 41 40  2  0  0  0  0
 42 41  1  0  0  0  0
 43 38  1  0  0  0  0
 47 42  1  0  0  0  0
M  END
>  <minimizedAffinity>
-5.96869135

$$$$

 OpenBabel03252508193D

 47 51  0  0  1  0  0  0  0  0999 V2000
   38.0990   26.8430   37.9750 C   0  0  0  0  0  0  0  0  0  0  0  0
   38.8620   26.1570   38.3080 H   0  0  0  0  0  0  0  0  0  0  0  0
   37.7750   26.5470   36.9370 H   0  0  0  0  0  0  0  0  0  0  0  0
   36.8460   26.9390   38.7810 C   0  0  1  0  0  0  0  0  0  0  0  0
   35.8550   25.8530   38.5350 C   0  0  0  0  0  0  0  0  0  0  0  0
   36.5550   25.9280   39.8150 C   0  0  1  0  0  0  0  0  0  0  0  0
   36.3220   27.9390   38.7260 H   0  0  0  0  0  0  0  0  0  0  0  0
   36.1550   25.0010   37.8730 H   0  0  0  0  0  0  0  0  0  0  0  0
   34.7640   26.0460   38.4860 H   0  0  0  0  0  0  0  0  0  0  0  0
   35.9580   26.2740   40.6850 H   0  0  0  0  0  0  0  0  0  0  0  0
   37.6340   24.9560   40.1740 C   0  0  2  0  0  0  0  0  0  0  0  0
   37.2890   24.1110   41.4260 C   0  0  0  0  0  0  0  0  0  0  0  0
   38.3390   25.1310   41.5140 C   0  0  2  0  0  0  0  0  0  0  0  0
   38.0920   24.3100   39.3970 H   0  0  0  0  0  0  0  0  0  0  0  0
   36.3520   24.3330   41.9670 H   0  0  0  0  0  0  0  0  0  0  0  0
   37.5620   23.0590   41.4660 H   0  0  0  0  0  0  0  0  0  0  0  0
   39.3970   24.7410   41.4790 H   0  0  0  0  0  0  0  0  0  0  0  0
   40.4950   27.1140   40.8880 Cl  0  0  0  0  0  0  0  0  0  0  0  0
   39.1120   27.4310   41.9330 C   0  0  0  0  0  0  0  0  0  0  0  0
   38.1700   26.4420   42.1570 C   0  0  0  0  0  0  0  0  0  0  0  0
   37.1010   26.7500   42.9900 C   0  0  0  0  0  0  0  0  0  0  0  0
   36.3730   25.9810   43.1600 H   0  0  0  0  0  0  0  0  0  0  0  0
   36.9340   27.9880   43.6020 C   0  0  0  0  0  0  0  0  0  0  0  0
   36.0900   28.1740   44.2370 H   0  0  0  0  0  0  0  0  0  0  0  0
   37.9200   28.9300   43.3310 C   0  0  0  0  0  3  0  0  0  0  0  0
   39.0070   28.6810   42.5090 C   0  0  0  0  0  3  0  0  0  0  0  0
   39.9650   28.1770   37.4320 C   0  0  0  0  0  3  0  0  0  0  0  0
   38.7940   28.1850   37.9140 C   0  0  0  0  0  3  0  0  0  0  0  0
   42.4860   30.7720   36.7160 C   0  0  0  0  0  0  0  0  0  0  0  0
   42.0030   31.8750   37.4110 C   0  0  0  0  0  0  0  0  0  0  0  0
   40.8390   31.6960   38.1000 C   0  0  0  0  0  0  0  0  0  0  0  0
   40.2150   30.4850   38.0810 N   0  0  0  0  0  0  0  0  0  0  0  0
   40.7130   29.4360   37.3940 C   0  0  0  0  0  0  0  0  0  0  0  0
   41.8400   29.6100   36.7290 N   0  0  0  0  0  0  0  0  0  0  0  0
   43.3960   30.8600   36.1590 H   0  0  0  0  0  0  0  0  0  0  0  0
   42.4920   32.8360   37.4300 H   0  0  0  0  0  0  0  0  0  0  0  0
   40.2160   32.7580   38.8710 C   0  0  0  0  0  0  0  0  0  0  0  0
   40.8390   33.9090   39.2610 C   0  0  0  0  0  0  0  0  0  0  0  0
   40.2310   34.9080   39.9940 C   0  0  0  0  0  0  0  0  0  0  0  0
   38.9080   34.7680   40.3760 C   0  0  0  0  0  0  0  0  0  0  0  0
   38.2320   33.6280   40.0110 C   0  0  0  0  0  0  0  0  0  0  0  0
   38.8980   32.6700   39.2780 C   0  0  0  0  0  0  0  0  0  0  0  0
   41.8860   34.0580   38.9790 H   0  0  0  0  0  0  0  0  0  0  0  0
   40.8210   35.7910   40.2560 H   0  0  0  0  0  0  0  0  0  0  0  0
   38.5050   35.5940   40.9480 H   0  0  0  0  0  0  0  0  0  0  0  0
   37.2030   33.5330   40.3150 H   0  0  0  0  0  0  0  0  0  0  0  0
   38.2900   31.8070   39.0350 H   0  0  0  0  0  0  0  0  0  0  0  0
  1  2  1  0  0  0  0
  1  4  1  0  0  0  0
  3  1  1  0  0  0  0
  4  7  1  1  0  0  0
  4  6  1  0  0  0  0
  5  4  1  0  0  0  0
  5  6  1  0  0  0  0
  6 11  1  0  0  0  0
  6 10  1  1  0  0  0
  8  5  1  0  0  0  0
  9  5  1  0  0  0  0
 11 14  1  6  0  0  0
 11 12  1  0  0  0  0
 11 13  1  0  0  0  0
 12 16  1  0  0  0  0
 12 13  1  0  0  0  0
 12 15  1  0  0  0  0
 13 17  1  1  0  0  0
 13 20  1  0  0  0  0
 18 19  1  0  0  0  0
 19 20  2  0  0  0  0
 19 26  1  0  0  0  0
 20 21  1  0  0  0  0
 21 22  1  0  0  0  0
 21 23  2  0  0  0  0
 23 24  1  0  0  0  0
 25 23  1  0  0  0  0
 26 25  2  0  0  0  0
 27 28  2  0  0  0  0
 28  1  1  0  0  0  0
 29 34  2  0  0  0  0
 29 30  1  0  0  0  0
 30 36  1  0  0  0  0
 30 31  2  0  0  0  0
 31 37  1  0  0  0  0
 32 31  1  0  0  0  0
 33 27  1  0  0  0  0
 33 32  2  0  0  0  0
 34 33  1  0  0  0  0
 35 29  1  0  0  0  0
 37 38  2  0  0  0  0
 37 42  1  0  0  0  0
 38 39  1  0  0  0  0
 39 44  1  0  0  0  0
 39 40  2  0  0  0  0
 40 45  1  0  0  0  0
 41 46  1  0  0  0  0
 41 40  1  0  0  0  0
 42 41  2  0  0  0  0
 43 38  1  0  0  0  0
 47 42  1  0  0  0  0
M  END
>  <minimizedAffinity>
-5.9417882

$$$$

 OpenBabel03252508193D

 47 51  0  0  1  0  0  0  0  0999 V2000
   37.8370   26.2990   42.6790 C   0  0  0  0  0  0  0  0  0  0  0  0
   38.6860   26.5590   42.0650 H   0  0  0  0  0  0  0  0  0  0  0  0
   38.2130   25.8850   43.6570 H   0  0  0  0  0  0  0  0  0  0  0  0
   36.8770   27.3850   43.0370 C   0  0  1  0  0  0  0  0  0  0  0  0
   37.2470   28.1800   44.2420 C   0  0  0  0  0  0  0  0  0  0  0  0
   37.2830   28.7980   42.9190 C   0  0  1  0  0  0  0  0  0  0  0  0
   35.7990   27.0550   43.1270 H   0  0  0  0  0  0  0  0  0  0  0  0
   38.2460   27.9960   44.7140 H   0  0  0  0  0  0  0  0  0  0  0  0
   36.4950   28.5090   44.9880 H   0  0  0  0  0  0  0  0  0  0  0  0
   36.4740   29.5230   42.6900 H   0  0  0  0  0  0  0  0  0  0  0  0
   38.5780   29.1040   42.2350 C   0  0  2  0  0  0  0  0  0  0  0  0
   38.6230   30.5380   41.6470 C   0  0  0  0  0  0  0  0  0  0  0  0
   38.5460   29.3900   40.7370 C   0  0  2  0  0  0  0  0  0  0  0  0
   39.5440   28.8660   42.7250 H   0  0  0  0  0  0  0  0  0  0  0  0
   37.7140   31.1610   41.7170 H   0  0  0  0  0  0  0  0  0  0  0  0
   39.5400   31.1190   41.6990 H   0  0  0  0  0  0  0  0  0  0  0  0
   39.5180   29.1010   40.2410 H   0  0  0  0  0  0  0  0  0  0  0  0
   38.8520   26.9080   39.0880 Cl  0  0  0  0  0  0  0  0  0  0  0  0
   37.3600   27.8330   39.2430 C   0  0  0  0  0  0  0  0  0  0  0  0
   37.3270   28.9700   40.0330 C   0  0  0  0  0  0  0  0  0  0  0  0
   36.1220   29.6580   40.1170 C   0  0  0  0  0  0  0  0  0  0  0  0
   36.1010   30.5370   40.7310 H   0  0  0  0  0  0  0  0  0  0  0  0
   34.9640   29.2670   39.4540 C   0  0  0  0  0  0  0  0  0  0  0  0
   34.0600   29.8340   39.5530 H   0  0  0  0  0  0  0  0  0  0  0  0
   35.0750   28.1180   38.6800 C   0  0  0  0  0  3  0  0  0  0  0  0
   36.2470   27.3900   38.5570 C   0  0  0  0  0  3  0  0  0  0  0  0
   37.8850   24.4230   41.2520 C   0  0  0  0  0  3  0  0  0  0  0  0
   37.1340   25.2010   41.9120 C   0  0  0  0  0  3  0  0  0  0  0  0
   37.2670   21.3220   39.3550 C   0  0  0  0  0  0  0  0  0  0  0  0
   35.9530   21.4740   38.9290 C   0  0  0  0  0  0  0  0  0  0  0  0
   35.3250   22.6270   39.2990 C   0  0  0  0  0  0  0  0  0  0  0  0
   35.9860   23.5540   40.0480 N   0  0  0  0  0  0  0  0  0  0  0  0
   37.2630   23.3710   40.4450 C   0  0  0  0  0  0  0  0  0  0  0  0
   37.8700   22.2550   40.0850 N   0  0  0  0  0  0  0  0  0  0  0  0
   37.8050   20.4340   39.0910 H   0  0  0  0  0  0  0  0  0  0  0  0
   35.4240   20.7450   38.3360 H   0  0  0  0  0  0  0  0  0  0  0  0
   33.9530   22.9250   38.9270 C   0  0  0  0  0  0  0  0  0  0  0  0
   32.8500   22.5190   39.6230 C   0  0  0  0  0  0  0  0  0  0  0  0
   31.5520   22.8100   39.2550 C   0  0  0  0  0  0  0  0  0  0  0  0
   31.3160   23.5580   38.1150 C   0  0  0  0  0  0  0  0  0  0  0  0
   32.3900   23.9940   37.3750 C   0  0  0  0  0  0  0  0  0  0  0  0
   33.6600   23.6670   37.7990 C   0  0  0  0  0  0  0  0  0  0  0  0
   32.9940   21.9240   40.5310 H   0  0  0  0  0  0  0  0  0  0  0  0
   30.7390   22.4360   39.8830 H   0  0  0  0  0  0  0  0  0  0  0  0
   30.2720   23.7440   37.8950 H   0  0  0  0  0  0  0  0  0  0  0  0
   32.1910   24.5750   36.4910 H   0  0  0  0  0  0  0  0  0  0  0  0
   34.4450   24.0510   37.1580 H   0  0  0  0  0  0  0  0  0  0  0  0
  1  4  1  0  0  0  0
  1  3  1  0  0  0  0
  2  1  1  0  0  0  0
  4  7  1  6  0  0  0
  4  5  1  0  0  0  0
  5  8  1  0  0  0  0
  5  9  1  0  0  0  0
  6 10  1  6  0  0  0
  6  4  1  0  0  0  0
  6  5  1  0  0  0  0
 11 14  1  1  0  0  0
 11  6  1  0  0  0  0
 12 16  1  0  0  0  0
 12 15  1  0  0  0  0
 12 11  1  0  0  0  0
 13 17  1  6  0  0  0
 13 12  1  0  0  0  0
 13 11  1  0  0  0  0
 18 19  1  0  0  0  0
 19 20  1  0  0  0  0
 20 21  2  0  0  0  0
 20 13  1  0  0  0  0
 21 22  1  0  0  0  0
 23 24  1  0  0  0  0
 23 21  1  0  0  0  0
 25 23  2  0  0  0  0
 26 25  1  0  0  0  0
 26 19  2  0  0  0  0
 27 28  2  0  0  0  0
 28  1  1  0  0  0  0
 29 34  1  0  0  0  0
 30 31  1  0  0  0  0
 30 29  2  0  0  0  0
 31 32  2  0  0  0  0
 32 33  1  0  0  0  0
 33 27  1  0  0  0  0
 34 33  2  0  0  0  0
 35 29  1  0  0  0  0
 36 30  1  0  0  0  0
 37 31  1  0  0  0  0
 37 38  1  0  0  0  0
 38 43  1  0  0  0  0
 39 38  2  0  0  0  0
 39 44  1  0  0  0  0
 40 39  1  0  0  0  0
 41 42  1  0  0  0  0
 41 40  2  0  0  0  0
 42 37  2  0  0  0  0
 45 40  1  0  0  0  0
 46 41  1  0  0  0  0
 47 42  1  0  0  0  0
M  END
>  <minimizedAffinity>
-5.92970991

$$$$
