
 OpenBabel03242512463D

 38 40  0  0  1  0  0  0  0  0999 V2000
   40.5880   31.3750   37.9740 C   0  0  0  0  0  0  0  0  0  0  0  0
   41.5530   30.3730   37.7710 C   0  0  0  0  0  0  0  0  0  0  0  0
   41.3550   29.1660   38.4370 C   0  0  0  0  0  0  0  0  0  0  0  0
   40.2550   29.0210   39.2360 N   0  0  0  0  0  0  0  0  0  0  0  0
   39.3730   30.0220   39.3840 C   0  0  0  0  0  0  0  0  0  0  0  0
   39.5270   31.1930   38.7640 N   0  0  0  0  0  0  0  0  0  0  0  0
   38.2310   29.7560   40.2470 N   0  0  0  0  0  0  0  0  0  0  0  0
   37.6600   30.8760   40.9480 C   0  0  0  0  0  0  0  0  0  0  0  0
   36.2060   30.7410   41.0710 C   0  0  0  0  0  0  0  0  0  0  0  0
   35.5340   29.6590   40.2870 C   0  0  0  0  0  0  0  0  0  0  0  0
   36.2650   28.3660   40.2710 C   0  0  0  0  0  0  0  0  0  0  0  0
   37.7430   28.4050   40.3350 C   0  0  2  0  0  0  0  0  0  0  0  0
   42.4250   30.4830   37.1400 H   0  0  0  0  0  0  0  0  0  0  0  0
   42.0380   28.3280   38.3500 H   0  0  0  0  0  0  0  0  0  0  0  0
   38.2270   31.0300   41.8820 H   0  0  0  0  0  0  0  0  0  0  0  0
   37.8780   31.8110   40.3440 H   0  0  0  0  0  0  0  0  0  0  0  0
   35.6790   31.7000   40.8450 H   0  0  0  0  0  0  0  0  0  0  0  0
   35.9640   30.5490   42.1460 H   0  0  0  0  0  0  0  0  0  0  0  0
   35.3370   29.9980   39.2480 H   0  0  0  0  0  0  0  0  0  0  0  0
   34.5260   29.5200   40.7360 H   0  0  0  0  0  0  0  0  0  0  0  0
   35.8370   27.7490   39.4550 H   0  0  0  0  0  0  0  0  0  0  0  0
   35.9360   27.8220   41.2080 H   0  0  0  0  0  0  0  0  0  0  0  0
   38.0780   27.8950   39.3720 H   0  0  0  0  0  0  0  0  0  0  0  0
   38.6460   25.6610   39.5160 Cl  0  0  0  0  0  0  0  0  0  0  0  0
   38.8200   26.2880   41.1590 C   0  0  0  0  0  0  0  0  0  0  0  0
   38.3570   27.5890   41.4030 C   0  0  0  0  0  0  0  0  0  0  0  0
   38.5470   27.9630   42.7080 C   0  0  0  0  0  0  0  0  0  0  0  0
   38.2350   28.9250   43.0220 H   0  0  0  0  0  0  0  0  0  0  0  0
   39.1200   27.1720   43.6790 C   0  0  0  0  0  0  0  0  0  0  0  0
   39.2430   27.5250   44.6980 H   0  0  0  0  0  0  0  0  0  0  0  0
   39.5490   25.9080   43.3610 C   0  0  0  0  0  3  0  0  0  0  0  0
   39.4010   25.4500   42.0860 C   0  0  0  0  0  3  0  0  0  0  0  0
   40.8170   32.5460   37.3030 O   0  0  0  0  0  0  0  0  0  0  0  0
   41.8030   33.4680   37.6210 C   0  0  0  0  0  0  0  0  0  0  0  0
   42.1030   33.7860   38.8220 O   0  0  0  0  0  0  0  0  0  0  0  0
   42.5890   34.1610   36.6770 N   0  0  0  0  0  0  0  0  0  0  0  0
   43.6150   34.2370   36.4930 H   0  0  0  0  0  0  0  0  0  0  0  0
   42.2880   34.8040   35.8910 H   0  0  0  0  0  0  0  0  0  0  0  0
  1  6  1  0  0  0  0
  2  1  2  0  0  0  0
  2  3  1  0  0  0  0
  3  4  2  0  0  0  0
  4  5  1  0  0  0  0
  5  7  1  0  0  0  0
  6  5  2  0  0  0  0
  7 12  1  0  0  0  0
  7  8  1  0  0  0  0
  8  9  1  0  0  0  0
  8 15  1  0  0  0  0
  9 18  1  0  0  0  0
 10 20  1  0  0  0  0
 10  9  1  0  0  0  0
 11 10  1  0  0  0  0
 11 12  1  0  0  0  0
 11 22  1  0  0  0  0
 12 23  1  6  0  0  0
 12 26  1  0  0  0  0
 13  2  1  0  0  0  0
 14  3  1  0  0  0  0
 16  8  1  0  0  0  0
 17  9  1  0  0  0  0
 19 10  1  0  0  0  0
 21 11  1  0  0  0  0
 24 25  1  0  0  0  0
 25 26  2  0  0  0  0
 25 32  1  0  0  0  0
 26 27  1  0  0  0  0
 27 28  1  0  0  0  0
 27 29  2  0  0  0  0
 29 30  1  0  0  0  0
 31 29  1  0  0  0  0
 32 31  2  0  0  0  0
 33 34  1  0  0  0  0
 33  1  1  0  0  0  0
 34 35  2  0  0  0  0
 36 34  1  0  0  0  0
 37 36  1  0  0  0  0
 38 36  1  0  0  0  0
M  END
>  <minimizedAffinity>
-5.92929792

$$$$

 OpenBabel03242512463D

 38 40  0  0  1  0  0  0  0  0999 V2000
   42.3530   31.1200   37.7290 C   0  0  0  0  0  0  0  0  0  0  0  0
   42.3710   29.7230   37.5700 C   0  0  0  0  0  0  0  0  0  0  0  0
   41.3550   29.0060   38.1960 C   0  0  0  0  0  0  0  0  0  0  0  0
   40.4120   29.6830   38.9190 N   0  0  0  0  0  0  0  0  0  0  0  0
   40.4570   31.0210   39.0290 C   0  0  0  0  0  0  0  0  0  0  0  0
   41.4130   31.7430   38.4440 N   0  0  0  0  0  0  0  0  0  0  0  0
   39.3960   31.6410   39.8110 N   0  0  0  0  0  0  0  0  0  0  0  0
   39.7140   32.8670   40.4950 C   0  0  0  0  0  0  0  0  0  0  0  0
   38.5630   33.7750   40.5210 C   0  0  0  0  0  0  0  0  0  0  0  0
   37.3810   33.4300   39.6720 C   0  0  0  0  0  0  0  0  0  0  0  0
   37.0170   31.9900   39.6780 C   0  0  0  0  0  0  0  0  0  0  0  0
   38.1070   31.0010   39.8390 C   0  0  2  0  0  0  0  0  0  0  0  0
   43.1140   29.1830   36.9990 H   0  0  0  0  0  0  0  0  0  0  0  0
   41.2760   27.9260   38.1370 H   0  0  0  0  0  0  0  0  0  0  0  0
   40.1720   32.6160   41.4670 H   0  0  0  0  0  0  0  0  0  0  0  0
   40.5520   33.3750   39.9260 H   0  0  0  0  0  0  0  0  0  0  0  0
   38.8580   34.8250   40.2800 H   0  0  0  0  0  0  0  0  0  0  0  0
   38.1900   33.8350   41.5730 H   0  0  0  0  0  0  0  0  0  0  0  0
   37.5350   33.7800   38.6300 H   0  0  0  0  0  0  0  0  0  0  0  0
   36.5290   34.0380   40.0510 H   0  0  0  0  0  0  0  0  0  0  0  0
   36.3330   31.8140   38.8230 H   0  0  0  0  0  0  0  0  0  0  0  0
   36.3480   31.8510   40.5810 H   0  0  0  0  0  0  0  0  0  0  0  0
   38.0560   30.3730   38.8900 H   0  0  0  0  0  0  0  0  0  0  0  0
   36.4290   28.6070   39.1580 Cl  0  0  0  0  0  0  0  0  0  0  0  0
   37.1590   28.8580   40.7470 C   0  0  0  0  0  0  0  0  0  0  0  0
   37.9230   30.0200   40.9280 C   0  0  0  0  0  0  0  0  0  0  0  0
   38.4360   30.1020   42.1960 C   0  0  0  0  0  0  0  0  0  0  0  0
   39.0300   30.9380   42.4620 H   0  0  0  0  0  0  0  0  0  0  0  0
   38.2380   29.1680   43.1890 C   0  0  0  0  0  0  0  0  0  0  0  0
   38.6720   29.2910   44.1760 H   0  0  0  0  0  0  0  0  0  0  0  0
   37.4780   28.0550   42.9330 C   0  0  0  0  0  3  0  0  0  0  0  0
   36.9260   27.8890   41.6990 C   0  0  0  0  0  3  0  0  0  0  0  0
   43.3670   31.7900   37.0980 O   0  0  0  0  0  0  0  0  0  0  0  0
   43.6110   33.1500   37.2050 C   0  0  0  0  0  0  0  0  0  0  0  0
   44.6490   33.6330   37.7750 O   0  0  0  0  0  0  0  0  0  0  0  0
   42.7610   34.1600   36.7070 N   0  0  0  0  0  0  0  0  0  0  0  0
   42.8780   34.9450   36.0270 H   0  0  0  0  0  0  0  0  0  0  0  0
   41.7460   34.3590   36.9330 H   0  0  0  0  0  0  0  0  0  0  0  0
  1  6  1  0  0  0  0
  2  1  2  0  0  0  0
  2  3  1  0  0  0  0
  3  4  2  0  0  0  0
  4  5  1  0  0  0  0
  5  7  1  0  0  0  0
  6  5  2  0  0  0  0
  7 12  1  0  0  0  0
  7  8  1  0  0  0  0
  8  9  1  0  0  0  0
  8 15  1  0  0  0  0
  9 18  1  0  0  0  0
 10 11  1  0  0  0  0
 10 20  1  0  0  0  0
 10  9  1  0  0  0  0
 11 12  1  0  0  0  0
 11 22  1  0  0  0  0
 12 23  1  6  0  0  0
 12 26  1  0  0  0  0
 13  2  1  0  0  0  0
 14  3  1  0  0  0  0
 16  8  1  0  0  0  0
 17  9  1  0  0  0  0
 19 10  1  0  0  0  0
 21 11  1  0  0  0  0
 24 25  1  0  0  0  0
 25 26  2  0  0  0  0
 25 32  1  0  0  0  0
 26 27  1  0  0  0  0
 27 28  1  0  0  0  0
 27 29  2  0  0  0  0
 29 30  1  0  0  0  0
 31 29  1  0  0  0  0
 32 31  2  0  0  0  0
 33 34  1  0  0  0  0
 33  1  1  0  0  0  0
 34 35  2  0  0  0  0
 36 38  1  0  0  0  0
 36 34  1  0  0  0  0
 37 36  1  0  0  0  0
M  END
>  <minimizedAffinity>
-5.88556099

$$$$

 OpenBabel03242512463D

 38 40  0  0  1  0  0  0  0  0999 V2000
   40.7510   29.6460   37.6660 C   0  0  0  0  0  0  0  0  0  0  0  0
   40.9120   28.4540   36.9390 C   0  0  0  0  0  0  0  0  0  0  0  0
   40.0450   27.4090   37.2460 C   0  0  0  0  0  0  0  0  0  0  0  0
   39.1010   27.5930   38.2200 N   0  0  0  0  0  0  0  0  0  0  0  0
   39.0050   28.7610   38.8740 C   0  0  0  0  0  0  0  0  0  0  0  0
   39.8160   29.7860   38.6090 N   0  0  0  0  0  0  0  0  0  0  0  0
   37.9570   28.8520   39.8810 N   0  0  0  0  0  0  0  0  0  0  0  0
   38.1960   29.7240   41.0020 C   0  0  0  0  0  0  0  0  0  0  0  0
   36.9570   30.3710   41.4450 C   0  0  0  0  0  0  0  0  0  0  0  0
   35.7490   30.2410   40.5740 C   0  0  0  0  0  0  0  0  0  0  0  0
   35.5520   28.8880   39.9940 C   0  0  0  0  0  0  0  0  0  0  0  0
   36.7560   28.0830   39.6880 C   0  0  2  0  0  0  0  0  0  0  0  0
   41.6560   28.3040   36.1690 H   0  0  0  0  0  0  0  0  0  0  0  0
   40.0830   26.4480   36.7460 H   0  0  0  0  0  0  0  0  0  0  0  0
   38.7660   29.1660   41.7640 H   0  0  0  0  0  0  0  0  0  0  0  0
   38.9160   30.5330   40.6660 H   0  0  0  0  0  0  0  0  0  0  0  0
   37.1090   31.4590   41.6530 H   0  0  0  0  0  0  0  0  0  0  0  0
   36.6780   29.9450   42.4400 H   0  0  0  0  0  0  0  0  0  0  0  0
   35.7670   31.0030   39.7680 H   0  0  0  0  0  0  0  0  0  0  0  0
   34.8730   30.5150   41.2030 H   0  0  0  0  0  0  0  0  0  0  0  0
   34.8170   28.9810   39.1680 H   0  0  0  0  0  0  0  0  0  0  0  0
   34.9880   28.3010   40.7800 H   0  0  0  0  0  0  0  0  0  0  0  0
   36.6900   27.8960   38.5660 H   0  0  0  0  0  0  0  0  0  0  0  0
   35.9740   25.8510   37.8390 Cl  0  0  0  0  0  0  0  0  0  0  0  0
   36.4390   25.5950   39.5250 C   0  0  0  0  0  0  0  0  0  0  0  0
   36.7840   26.7280   40.2760 C   0  0  0  0  0  0  0  0  0  0  0  0
   37.1260   26.4030   41.5630 C   0  0  0  0  0  0  0  0  0  0  0  0
   37.4040   27.1730   42.2350 H   0  0  0  0  0  0  0  0  0  0  0  0
   37.1350   25.1260   42.0780 C   0  0  0  0  0  0  0  0  0  0  0  0
   37.4160   24.9330   43.1080 H   0  0  0  0  0  0  0  0  0  0  0  0
   36.7850   24.0670   41.2780 C   0  0  0  0  0  3  0  0  0  0  0  0
   36.4300   24.2950   39.9820 C   0  0  0  0  0  3  0  0  0  0  0  0
   41.6210   30.6510   37.3350 O   0  0  0  0  0  0  0  0  0  0  0  0
   41.2640   31.9680   37.0970 C   0  0  0  0  0  0  0  0  0  0  0  0
   42.1060   32.9310   37.0820 O   0  0  0  0  0  0  0  0  0  0  0  0
   39.9480   32.4110   36.8440 N   0  0  0  0  0  0  0  0  0  0  0  0
   39.4860   32.9200   36.0580 H   0  0  0  0  0  0  0  0  0  0  0  0
   39.0790   32.3180   37.4430 H   0  0  0  0  0  0  0  0  0  0  0  0
  1  6  1  0  0  0  0
  2  3  1  0  0  0  0
  2  1  2  0  0  0  0
  3  4  2  0  0  0  0
  4  5  1  0  0  0  0
  5  7  1  0  0  0  0
  6  5  2  0  0  0  0
  7  8  1  0  0  0  0
  8  9  1  0  0  0  0
  8 15  1  0  0  0  0
  9 17  1  0  0  0  0
  9 18  1  0  0  0  0
 10 20  1  0  0  0  0
 10  9  1  0  0  0  0
 11 10  1  0  0  0  0
 11 22  1  0  0  0  0
 12 23  1  6  0  0  0
 12  7  1  0  0  0  0
 12 11  1  0  0  0  0
 12 26  1  0  0  0  0
 13  2  1  0  0  0  0
 14  3  1  0  0  0  0
 16  8  1  0  0  0  0
 19 10  1  0  0  0  0
 21 11  1  0  0  0  0
 24 25  1  0  0  0  0
 25 32  2  0  0  0  0
 25 26  1  0  0  0  0
 26 27  2  0  0  0  0
 27 29  1  0  0  0  0
 27 28  1  0  0  0  0
 29 30  1  0  0  0  0
 31 29  2  0  0  0  0
 32 31  1  0  0  0  0
 33  1  1  0  0  0  0
 34 33  1  0  0  0  0
 35 34  2  0  0  0  0
 36 34  1  0  0  0  0
 36 38  1  0  0  0  0
 37 36  1  0  0  0  0
M  END
>  <minimizedAffinity>
-5.75049543

$$$$

 OpenBabel03242512463D

 38 40  0  0  1  0  0  0  0  0999 V2000
   39.9790   32.1740   40.4540 C   0  0  0  0  0  0  0  0  0  0  0  0
   39.2970   32.5200   39.2740 C   0  0  0  0  0  0  0  0  0  0  0  0
   38.3350   31.6220   38.8190 C   0  0  0  0  0  0  0  0  0  0  0  0
   38.1070   30.4750   39.5290 N   0  0  0  0  0  0  0  0  0  0  0  0
   38.7970   30.2100   40.6500 C   0  0  0  0  0  0  0  0  0  0  0  0
   39.7260   31.0430   41.1180 N   0  0  0  0  0  0  0  0  0  0  0  0
   38.4660   28.9670   41.3330 N   0  0  0  0  0  0  0  0  0  0  0  0
   39.5190   28.3240   42.0750 C   0  0  0  0  0  0  0  0  0  0  0  0
   38.9970   27.6760   43.2830 C   0  0  0  0  0  0  0  0  0  0  0  0
   37.5860   27.9670   43.6800 C   0  0  0  0  0  0  0  0  0  0  0  0
   36.6230   28.0050   42.5490 C   0  0  0  0  0  0  0  0  0  0  0  0
   37.1180   28.4730   41.2340 C   0  0  2  0  0  0  0  0  0  0  0  0
   39.4730   33.4250   38.7100 H   0  0  0  0  0  0  0  0  0  0  0  0
   37.7520   31.7910   37.9210 H   0  0  0  0  0  0  0  0  0  0  0  0
   40.1000   27.6920   41.3830 H   0  0  0  0  0  0  0  0  0  0  0  0
   40.2570   29.1230   42.3950 H   0  0  0  0  0  0  0  0  0  0  0  0
   39.6460   27.8710   44.1710 H   0  0  0  0  0  0  0  0  0  0  0  0
   39.0640   26.5690   43.1400 H   0  0  0  0  0  0  0  0  0  0  0  0
   37.5320   28.9130   44.2590 H   0  0  0  0  0  0  0  0  0  0  0  0
   37.2890   27.1750   44.4030 H   0  0  0  0  0  0  0  0  0  0  0  0
   35.6970   28.4950   42.9130 H   0  0  0  0  0  0  0  0  0  0  0  0
   36.3050   26.9320   42.3870 H   0  0  0  0  0  0  0  0  0  0  0  0
   36.4740   29.3840   41.0010 H   0  0  0  0  0  0  0  0  0  0  0  0
   34.7720   29.1700   39.4960 Cl  0  0  0  0  0  0  0  0  0  0  0  0
   35.8080   27.7670   39.2090 C   0  0  0  0  0  0  0  0  0  0  0  0
   36.8720   27.5600   40.0990 C   0  0  0  0  0  0  0  0  0  0  0  0
   37.6010   26.4460   39.7740 C   0  0  0  0  0  0  0  0  0  0  0  0
   38.4320   26.1780   40.3720 H   0  0  0  0  0  0  0  0  0  0  0  0
   37.3370   25.6150   38.7070 C   0  0  0  0  0  0  0  0  0  0  0  0
   37.9530   24.7460   38.5020 H   0  0  0  0  0  0  0  0  0  0  0  0
   36.2760   25.8850   37.8810 C   0  0  0  0  0  3  0  0  0  0  0  0
   35.4940   26.9730   38.1270 C   0  0  0  0  0  3  0  0  0  0  0  0
   40.9160   33.0820   40.8700 O   0  0  0  0  0  0  0  0  0  0  0  0
   42.2140   32.7720   41.2450 C   0  0  0  0  0  0  0  0  0  0  0  0
   43.0170   32.1060   40.5070 O   0  0  0  0  0  0  0  0  0  0  0  0
   42.8070   33.1460   42.4700 N   0  0  0  0  0  0  0  0  0  0  0  0
   43.6510   33.7020   42.7350 H   0  0  0  0  0  0  0  0  0  0  0  0
   42.5030   32.9260   43.4610 H   0  0  0  0  0  0  0  0  0  0  0  0
  1 33  1  0  0  0  0
  1  6  1  0  0  0  0
  2  1  2  0  0  0  0
  3  2  1  0  0  0  0
  3  4  2  0  0  0  0
  4  5  1  0  0  0  0
  5  6  2  0  0  0  0
  5  7  1  0  0  0  0
  7  8  1  0  0  0  0
  8 16  1  0  0  0  0
  8  9  1  0  0  0  0
  9 10  1  0  0  0  0
  9 17  1  0  0  0  0
 10 19  1  0  0  0  0
 10 20  1  0  0  0  0
 11 21  1  0  0  0  0
 11 10  1  0  0  0  0
 12 23  1  6  0  0  0
 12  7  1  0  0  0  0
 12 11  1  0  0  0  0
 13  2  1  0  0  0  0
 14  3  1  0  0  0  0
 15  8  1  0  0  0  0
 18  9  1  0  0  0  0
 22 11  1  0  0  0  0
 25 24  1  0  0  0  0
 25 26  1  0  0  0  0
 26 12  1  0  0  0  0
 27 26  2  0  0  0  0
 27 28  1  0  0  0  0
 29 27  1  0  0  0  0
 30 29  1  0  0  0  0
 31 32  1  0  0  0  0
 31 29  2  0  0  0  0
 32 25  2  0  0  0  0
 33 34  1  0  0  0  0
 34 36  1  0  0  0  0
 35 34  2  0  0  0  0
 36 37  1  0  0  0  0
 36 38  1  0  0  0  0
M  END
>  <minimizedAffinity>
-5.43011856

$$$$

 OpenBabel03242512463D

 38 40  0  0  1  0  0  0  0  0999 V2000
   38.0520   31.6700   39.1070 C   0  0  0  0  0  0  0  0  0  0  0  0
   37.7770   31.1950   37.8130 C   0  0  0  0  0  0  0  0  0  0  0  0
   37.6260   29.8190   37.6680 C   0  0  0  0  0  0  0  0  0  0  0  0
   37.7500   29.0160   38.7690 N   0  0  0  0  0  0  0  0  0  0  0  0
   38.0140   29.5400   39.9770 C   0  0  0  0  0  0  0  0  0  0  0  0
   38.1660   30.8530   40.1570 N   0  0  0  0  0  0  0  0  0  0  0  0
   38.1130   28.5980   41.0820 N   0  0  0  0  0  0  0  0  0  0  0  0
   38.9880   28.9490   42.1700 C   0  0  0  0  0  0  0  0  0  0  0  0
   38.4520   28.4850   43.4540 C   0  0  0  0  0  0  0  0  0  0  0  0
   37.0480   27.9700   43.4810 C   0  0  0  0  0  0  0  0  0  0  0  0
   36.6840   27.1100   42.3260 C   0  0  0  0  0  0  0  0  0  0  0  0
   37.3280   27.3930   41.0230 C   0  0  2  0  0  0  0  0  0  0  0  0
   37.6780   31.8250   36.9390 H   0  0  0  0  0  0  0  0  0  0  0  0
   37.4120   29.3480   36.7150 H   0  0  0  0  0  0  0  0  0  0  0  0
   40.0120   28.6290   41.9130 H   0  0  0  0  0  0  0  0  0  0  0  0
   39.0600   30.0800   42.2070 H   0  0  0  0  0  0  0  0  0  0  0  0
   38.5420   29.2660   44.2480 H   0  0  0  0  0  0  0  0  0  0  0  0
   39.1010   27.6520   43.8220 H   0  0  0  0  0  0  0  0  0  0  0  0
   36.3280   28.8100   43.5730 H   0  0  0  0  0  0  0  0  0  0  0  0
   36.9380   27.3980   44.4290 H   0  0  0  0  0  0  0  0  0  0  0  0
   35.5790   27.0270   42.3060 H   0  0  0  0  0  0  0  0  0  0  0  0
   37.0200   26.0670   42.6090 H   0  0  0  0  0  0  0  0  0  0  0  0
   36.4570   27.6280   40.3270 H   0  0  0  0  0  0  0  0  0  0  0  0
   35.8690   26.1730   38.7000 Cl  0  0  0  0  0  0  0  0  0  0  0  0
   37.4270   25.5780   39.2870 C   0  0  0  0  0  0  0  0  0  0  0  0
   37.9990   26.2440   40.3810 C   0  0  0  0  0  0  0  0  0  0  0  0
   39.2010   25.6940   40.7420 C   0  0  0  0  0  0  0  0  0  0  0  0
   39.7340   26.1050   41.5590 H   0  0  0  0  0  0  0  0  0  0  0  0
   39.7940   24.6170   40.1210 C   0  0  0  0  0  0  0  0  0  0  0  0
   40.7490   24.2270   40.4550 H   0  0  0  0  0  0  0  0  0  0  0  0
   39.1710   24.0190   39.0540 C   0  0  0  0  0  3  0  0  0  0  0  0
   37.9700   24.4990   38.6240 C   0  0  0  0  0  3  0  0  0  0  0  0
   38.1930   33.0280   39.2090 O   0  0  0  0  0  0  0  0  0  0  0  0
   39.0640   33.6760   40.0710 C   0  0  0  0  0  0  0  0  0  0  0  0
   40.1870   34.1600   39.7000 O   0  0  0  0  0  0  0  0  0  0  0  0
   38.8260   33.8830   41.4470 N   0  0  0  0  0  0  0  0  0  0  0  0
   38.7650   34.7260   42.0600 H   0  0  0  0  0  0  0  0  0  0  0  0
   38.6460   33.1750   42.2140 H   0  0  0  0  0  0  0  0  0  0  0  0
  1 33  1  0  0  0  0
  1  6  1  0  0  0  0
  2  1  2  0  0  0  0
  3  2  1  0  0  0  0
  3  4  2  0  0  0  0
  4  5  1  0  0  0  0
  5  6  2  0  0  0  0
  5  7  1  0  0  0  0
  7  8  1  0  0  0  0
  8 16  1  0  0  0  0
  8  9  1  0  0  0  0
  9 10  1  0  0  0  0
  9 18  1  0  0  0  0
  9 17  1  0  0  0  0
 10 19  1  0  0  0  0
 10 20  1  0  0  0  0
 11 22  1  0  0  0  0
 11 10  1  0  0  0  0
 12 23  1  6  0  0  0
 12  7  1  0  0  0  0
 12 11  1  0  0  0  0
 13  2  1  0  0  0  0
 14  3  1  0  0  0  0
 15  8  1  0  0  0  0
 21 11  1  0  0  0  0
 24 25  1  0  0  0  0
 25 26  1  0  0  0  0
 26 27  2  0  0  0  0
 26 12  1  0  0  0  0
 27 28  1  0  0  0  0
 29 30  1  0  0  0  0
 29 27  1  0  0  0  0
 31 29  2  0  0  0  0
 32 31  1  0  0  0  0
 32 25  2  0  0  0  0
 33 34  1  0  0  0  0
 34 36  1  0  0  0  0
 35 34  2  0  0  0  0
 36 37  1  0  0  0  0
 36 38  1  0  0  0  0
M  END
>  <minimizedAffinity>
-5.41970158

$$$$

 OpenBabel03242512463D

 38 40  0  0  1  0  0  0  0  0999 V2000
   39.4610   28.9220   42.4010 C   0  0  0  0  0  0  0  0  0  0  0  0
   40.8020   28.9240   42.8230 C   0  0  0  0  0  0  0  0  0  0  0  0
   41.6240   29.9180   42.3000 C   0  0  0  0  0  0  0  0  0  0  0  0
   41.0960   30.8230   41.4200 N   0  0  0  0  0  0  0  0  0  0  0  0
   39.8030   30.7610   41.0600 C   0  0  0  0  0  0  0  0  0  0  0  0
   38.9830   29.8250   41.5400 N   0  0  0  0  0  0  0  0  0  0  0  0
   39.3420   31.7800   40.1290 N   0  0  0  0  0  0  0  0  0  0  0  0
   38.2690   31.4210   39.2390 C   0  0  0  0  0  0  0  0  0  0  0  0
   37.3810   32.5610   38.9900 C   0  0  0  0  0  0  0  0  0  0  0  0
   37.5570   33.7830   39.8350 C   0  0  0  0  0  0  0  0  0  0  0  0
   38.9720   34.1590   40.0850 C   0  0  0  0  0  0  0  0  0  0  0  0
   39.9740   33.0720   40.1640 C   0  0  2  0  0  0  0  0  0  0  0  0
   41.2240   28.2120   43.5190 H   0  0  0  0  0  0  0  0  0  0  0  0
   42.6730   30.0100   42.5580 H   0  0  0  0  0  0  0  0  0  0  0  0
   38.6990   30.9230   38.3540 H   0  0  0  0  0  0  0  0  0  0  0  0
   37.6620   30.6040   39.7390 H   0  0  0  0  0  0  0  0  0  0  0  0
   36.3040   32.2680   39.0410 H   0  0  0  0  0  0  0  0  0  0  0  0
   37.5210   32.8870   37.9300 H   0  0  0  0  0  0  0  0  0  0  0  0
   37.0160   33.6710   40.7970 H   0  0  0  0  0  0  0  0  0  0  0  0
   37.0320   34.6110   39.3100 H   0  0  0  0  0  0  0  0  0  0  0  0
   38.9820   34.8820   40.9270 H   0  0  0  0  0  0  0  0  0  0  0  0
   39.2790   34.7890   39.1970 H   0  0  0  0  0  0  0  0  0  0  0  0
   40.4110   33.1710   41.2120 H   0  0  0  0  0  0  0  0  0  0  0  0
   42.4630   34.1460   41.4560 Cl  0  0  0  0  0  0  0  0  0  0  0  0
   42.3690   33.7100   39.7460 C   0  0  0  0  0  0  0  0  0  0  0  0
   41.1440   33.2180   39.2730 C   0  0  0  0  0  0  0  0  0  0  0  0
   41.1950   32.9150   37.9380 C   0  0  0  0  0  0  0  0  0  0  0  0
   40.3300   32.5370   37.4580 H   0  0  0  0  0  0  0  0  0  0  0  0
   42.3050   33.0690   37.1370 C   0  0  0  0  0  0  0  0  0  0  0  0
   42.2830   32.8110   36.0830 H   0  0  0  0  0  0  0  0  0  0  0  0
   43.4700   33.5580   37.6750 C   0  0  0  0  0  3  0  0  0  0  0  0
   43.5120   33.8860   38.9960 C   0  0  0  0  0  3  0  0  0  0  0  0
   38.6840   27.9310   42.9390 O   0  0  0  0  0  0  0  0  0  0  0  0
   37.4150   27.5880   42.5020 C   0  0  0  0  0  0  0  0  0  0  0  0
   37.0760   26.3930   42.2000 O   0  0  0  0  0  0  0  0  0  0  0  0
   36.3480   28.4980   42.3370 N   0  0  0  0  0  0  0  0  0  0  0  0
   35.3860   28.5770   42.7340 H   0  0  0  0  0  0  0  0  0  0  0  0
   36.2890   29.3630   41.7280 H   0  0  0  0  0  0  0  0  0  0  0  0
  1  2  1  0  0  0  0
  1 33  1  0  0  0  0
  2 13  1  0  0  0  0
  3 14  1  0  0  0  0
  3  2  2  0  0  0  0
  4  3  1  0  0  0  0
  5  4  2  0  0  0  0
  5  6  1  0  0  0  0
  6  1  2  0  0  0  0
  7 12  1  0  0  0  0
  7  5  1  0  0  0  0
  8 16  1  0  0  0  0
  8  7  1  0  0  0  0
  9 17  1  0  0  0  0
  9  8  1  0  0  0  0
  9 10  1  0  0  0  0
 10 11  1  0  0  0  0
 10 19  1  0  0  0  0
 11 12  1  0  0  0  0
 11 21  1  0  0  0  0
 12 23  1  1  0  0  0
 15  8  1  0  0  0  0
 18  9  1  0  0  0  0
 20 10  1  0  0  0  0
 22 11  1  0  0  0  0
 25 24  1  0  0  0  0
 26 25  1  0  0  0  0
 26 12  1  0  0  0  0
 27 26  2  0  0  0  0
 28 27  1  0  0  0  0
 29 31  2  0  0  0  0
 29 27  1  0  0  0  0
 30 29  1  0  0  0  0
 31 32  1  0  0  0  0
 32 25  2  0  0  0  0
 34 33  1  0  0  0  0
 35 34  2  0  0  0  0
 36 34  1  0  0  0  0
 36 37  1  0  0  0  0
 38 36  1  0  0  0  0
M  END
>  <minimizedAffinity>
-5.41749907

$$$$

 OpenBabel03242512463D

 38 40  0  0  1  0  0  0  0  0999 V2000
   36.9930   30.4290   38.5460 C   0  0  0  0  0  0  0  0  0  0  0  0
   36.5540   29.7790   37.3790 C   0  0  0  0  0  0  0  0  0  0  0  0
   36.6400   28.3900   37.3650 C   0  0  0  0  0  0  0  0  0  0  0  0
   37.1370   27.7420   38.4630 N   0  0  0  0  0  0  0  0  0  0  0  0
   37.5380   28.4290   39.5450 C   0  0  0  0  0  0  0  0  0  0  0  0
   37.4710   29.7600   39.5980 N   0  0  0  0  0  0  0  0  0  0  0  0
   38.0370   27.6400   40.6620 N   0  0  0  0  0  0  0  0  0  0  0  0
   39.0330   28.2500   41.5050 C   0  0  0  0  0  0  0  0  0  0  0  0
   38.8680   27.8400   42.9030 C   0  0  0  0  0  0  0  0  0  0  0  0
   37.6230   27.0990   43.2740 C   0  0  0  0  0  0  0  0  0  0  0  0
   37.2010   26.0720   42.2870 C   0  0  0  0  0  0  0  0  0  0  0  0
   37.4990   26.3200   40.8590 C   0  0  2  0  0  0  0  0  0  0  0  0
   36.1610   30.2860   36.5090 H   0  0  0  0  0  0  0  0  0  0  0  0
   36.3300   27.7900   36.5160 H   0  0  0  0  0  0  0  0  0  0  0  0
   40.0240   28.0840   41.0510 H   0  0  0  0  0  0  0  0  0  0  0  0
   38.8950   29.3740   41.4480 H   0  0  0  0  0  0  0  0  0  0  0  0
   38.9680   28.7050   43.6030 H   0  0  0  0  0  0  0  0  0  0  0  0
   39.7250   27.1750   43.1740 H   0  0  0  0  0  0  0  0  0  0  0  0
   36.7910   27.8090   43.4650 H   0  0  0  0  0  0  0  0  0  0  0  0
   37.8190   26.6210   44.2590 H   0  0  0  0  0  0  0  0  0  0  0  0
   36.1510   25.7990   42.5170 H   0  0  0  0  0  0  0  0  0  0  0  0
   37.7800   25.1370   42.5590 H   0  0  0  0  0  0  0  0  0  0  0  0
   36.4760   26.3280   40.3570 H   0  0  0  0  0  0  0  0  0  0  0  0
   35.8050   24.0800   39.7980 Cl  0  0  0  0  0  0  0  0  0  0  0  0
   37.5630   24.1330   39.6220 C   0  0  0  0  0  0  0  0  0  0  0  0
   38.2310   25.2410   40.1630 C   0  0  0  0  0  0  0  0  0  0  0  0
   39.5850   25.1690   39.9630 C   0  0  0  0  0  0  0  0  0  0  0  0
   40.2040   25.9460   40.3290 H   0  0  0  0  0  0  0  0  0  0  0  0
   40.2330   24.1420   39.3130 C   0  0  0  0  0  0  0  0  0  0  0  0
   41.3100   24.1430   39.1860 H   0  0  0  0  0  0  0  0  0  0  0  0
   39.5070   23.0910   38.8090 C   0  0  0  0  0  3  0  0  0  0  0  0
   38.1540   23.0770   38.9610 C   0  0  0  0  0  3  0  0  0  0  0  0
   36.8910   31.7950   38.5230 O   0  0  0  0  0  0  0  0  0  0  0  0
   37.6910   32.6650   39.2460 C   0  0  0  0  0  0  0  0  0  0  0  0
   38.9530   32.7700   39.0680 O   0  0  0  0  0  0  0  0  0  0  0  0
   37.2240   33.5350   40.2550 N   0  0  0  0  0  0  0  0  0  0  0  0
   37.2470   34.5690   40.3980 H   0  0  0  0  0  0  0  0  0  0  0  0
   36.7130   33.3100   41.1550 H   0  0  0  0  0  0  0  0  0  0  0  0
  1  6  1  0  0  0  0
  2  1  2  0  0  0  0
  3  2  1  0  0  0  0
  3  4  2  0  0  0  0
  4  5  1  0  0  0  0
  5  6  2  0  0  0  0
  5  7  1  0  0  0  0
  7 12  1  0  0  0  0
  7  8  1  0  0  0  0
  8  9  1  0  0  0  0
  9 18  1  0  0  0  0
  9 10  1  0  0  0  0
  9 17  1  0  0  0  0
 10 19  1  0  0  0  0
 10 20  1  0  0  0  0
 11 21  1  0  0  0  0
 11 22  1  0  0  0  0
 11 10  1  0  0  0  0
 12 23  1  6  0  0  0
 12 11  1  0  0  0  0
 13  2  1  0  0  0  0
 14  3  1  0  0  0  0
 15  8  1  0  0  0  0
 16  8  1  0  0  0  0
 25 24  1  0  0  0  0
 25 26  1  0  0  0  0
 26 12  1  0  0  0  0
 27 26  2  0  0  0  0
 27 28  1  0  0  0  0
 29 27  1  0  0  0  0
 30 29  1  0  0  0  0
 31 32  1  0  0  0  0
 31 29  2  0  0  0  0
 32 25  2  0  0  0  0
 33  1  1  0  0  0  0
 33 34  1  0  0  0  0
 34 36  1  0  0  0  0
 35 34  2  0  0  0  0
 36 37  1  0  0  0  0
 36 38  1  0  0  0  0
M  END
>  <minimizedAffinity>
-5.27995634

$$$$

 OpenBabel03242512463D

 38 40  0  0  1  0  0  0  0  0999 V2000
   36.7190   26.8760   36.8650 C   0  0  0  0  0  0  0  0  0  0  0  0
   36.7510   25.5980   37.4500 C   0  0  0  0  0  0  0  0  0  0  0  0
   37.1220   25.5300   38.7890 C   0  0  0  0  0  0  0  0  0  0  0  0
   37.4300   26.6850   39.4540 N   0  0  0  0  0  0  0  0  0  0  0  0
   37.3770   27.8730   38.8310 C   0  0  0  0  0  0  0  0  0  0  0  0
   37.0260   27.9810   37.5490 N   0  0  0  0  0  0  0  0  0  0  0  0
   37.7120   29.0400   39.6350 N   0  0  0  0  0  0  0  0  0  0  0  0
   38.2990   30.1640   38.9530 C   0  0  0  0  0  0  0  0  0  0  0  0
   37.8550   31.4320   39.5390 C   0  0  0  0  0  0  0  0  0  0  0  0
   36.7370   31.3920   40.5310 C   0  0  0  0  0  0  0  0  0  0  0  0
   36.8150   30.2700   41.5010 C   0  0  0  0  0  0  0  0  0  0  0  0
   37.4250   29.0010   41.0450 C   0  0  2  0  0  0  0  0  0  0  0  0
   36.5090   24.6820   36.9290 H   0  0  0  0  0  0  0  0  0  0  0  0
   37.1800   24.5950   39.3360 H   0  0  0  0  0  0  0  0  0  0  0  0
   39.3880   30.0010   38.8840 H   0  0  0  0  0  0  0  0  0  0  0  0
   37.9530   30.1340   37.8730 H   0  0  0  0  0  0  0  0  0  0  0  0
   37.5850   32.1800   38.7540 H   0  0  0  0  0  0  0  0  0  0  0  0
   38.7260   31.8970   40.0630 H   0  0  0  0  0  0  0  0  0  0  0  0
   35.7560   31.3790   40.0100 H   0  0  0  0  0  0  0  0  0  0  0  0
   36.7570   32.3640   41.0720 H   0  0  0  0  0  0  0  0  0  0  0  0
   35.8210   30.1760   41.9850 H   0  0  0  0  0  0  0  0  0  0  0  0
   37.4790   30.6410   42.3390 H   0  0  0  0  0  0  0  0  0  0  0  0
   36.5940   28.2310   41.1680 H   0  0  0  0  0  0  0  0  0  0  0  0
   36.6540   26.8560   42.9990 Cl  0  0  0  0  0  0  0  0  0  0  0  0
   38.3000   27.4800   42.8450 C   0  0  0  0  0  0  0  0  0  0  0  0
   38.5210   28.4820   41.8890 C   0  0  0  0  0  0  0  0  0  0  0  0
   39.8320   28.8830   41.8620 C   0  0  0  0  0  0  0  0  0  0  0  0
   40.1290   29.6390   41.1840 H   0  0  0  0  0  0  0  0  0  0  0  0
   40.8270   28.3770   42.6690 C   0  0  0  0  0  0  0  0  0  0  0  0
   41.8480   28.7370   42.6010 H   0  0  0  0  0  0  0  0  0  0  0  0
   40.5300   27.3960   43.5820 C   0  0  0  0  0  3  0  0  0  0  0  0
   39.2520   26.9350   43.6790 C   0  0  0  0  0  3  0  0  0  0  0  0
   36.3480   26.9020   35.5470 O   0  0  0  0  0  0  0  0  0  0  0  0
   36.1450   28.0510   34.7990 C   0  0  0  0  0  0  0  0  0  0  0  0
   34.9960   28.4190   34.3770 O   0  0  0  0  0  0  0  0  0  0  0  0
   37.1630   28.9500   34.4130 N   0  0  0  0  0  0  0  0  0  0  0  0
   37.3360   29.9690   34.5650 H   0  0  0  0  0  0  0  0  0  0  0  0
   38.0380   28.7730   33.8420 H   0  0  0  0  0  0  0  0  0  0  0  0
  1  2  2  0  0  0  0
  1  6  1  0  0  0  0
  2  3  1  0  0  0  0
  3 14  1  0  0  0  0
  3  4  2  0  0  0  0
  5  4  1  0  0  0  0
  5  7  1  0  0  0  0
  6  5  2  0  0  0  0
  7 12  1  0  0  0  0
  8  9  1  0  0  0  0
  8  7  1  0  0  0  0
  9 18  1  0  0  0  0
  9 10  1  0  0  0  0
 10 20  1  0  0  0  0
 10 11  1  0  0  0  0
 11 21  1  0  0  0  0
 11 22  1  0  0  0  0
 12 23  1  1  0  0  0
 12 11  1  0  0  0  0
 12 26  1  0  0  0  0
 13  2  1  0  0  0  0
 15  8  1  0  0  0  0
 16  8  1  0  0  0  0
 17  9  1  0  0  0  0
 19 10  1  0  0  0  0
 25 24  1  0  0  0  0
 25 32  1  0  0  0  0
 26 25  2  0  0  0  0
 27 26  1  0  0  0  0
 27 29  2  0  0  0  0
 28 27  1  0  0  0  0
 29 31  1  0  0  0  0
 30 29  1  0  0  0  0
 31 32  2  0  0  0  0
 33  1  1  0  0  0  0
 34 33  1  0  0  0  0
 35 34  2  0  0  0  0
 36 37  1  0  0  0  0
 36 34  1  0  0  0  0
 38 36  1  0  0  0  0
M  END
>  <minimizedAffinity>
-5.1858592

$$$$

 OpenBabel03242512463D

 38 40  0  0  1  0  0  0  0  0999 V2000
   42.3070   30.5200   38.1760 C   0  0  0  0  0  0  0  0  0  0  0  0
   41.9180   29.5030   37.2860 C   0  0  0  0  0  0  0  0  0  0  0  0
   40.5540   29.2500   37.1790 C   0  0  0  0  0  0  0  0  0  0  0  0
   39.6790   29.9890   37.9280 N   0  0  0  0  0  0  0  0  0  0  0  0
   40.1220   30.9470   38.7580 C   0  0  0  0  0  0  0  0  0  0  0  0
   41.4210   31.2200   38.8900 N   0  0  0  0  0  0  0  0  0  0  0  0
   39.1060   31.6810   39.4980 N   0  0  0  0  0  0  0  0  0  0  0  0
   39.4750   32.1950   40.7920 C   0  0  0  0  0  0  0  0  0  0  0  0
   38.8250   33.4820   41.0580 C   0  0  0  0  0  0  0  0  0  0  0  0
   38.1180   34.1560   39.9260 C   0  0  0  0  0  0  0  0  0  0  0  0
   37.3240   33.2430   39.0640 C   0  0  0  0  0  0  0  0  0  0  0  0
   37.8130   31.8560   38.8900 C   0  0  2  0  0  0  0  0  0  0  0  0
   42.6050   28.9160   36.6920 H   0  0  0  0  0  0  0  0  0  0  0  0
   40.1470   28.4880   36.5230 H   0  0  0  0  0  0  0  0  0  0  0  0
   39.3270   31.3980   41.5400 H   0  0  0  0  0  0  0  0  0  0  0  0
   40.5970   32.3600   40.7920 H   0  0  0  0  0  0  0  0  0  0  0  0
   39.5340   34.2210   41.5020 H   0  0  0  0  0  0  0  0  0  0  0  0
   38.0620   33.3270   41.8600 H   0  0  0  0  0  0  0  0  0  0  0  0
   38.8360   34.7350   39.3090 H   0  0  0  0  0  0  0  0  0  0  0  0
   37.4510   34.9230   40.3790 H   0  0  0  0  0  0  0  0  0  0  0  0
   37.0880   33.7880   38.1270 H   0  0  0  0  0  0  0  0  0  0  0  0
   36.3170   33.1470   39.5710 H   0  0  0  0  0  0  0  0  0  0  0  0
   37.9860   31.7600   37.7680 H   0  0  0  0  0  0  0  0  0  0  0  0
   36.7260   30.3770   36.5140 Cl  0  0  0  0  0  0  0  0  0  0  0  0
   36.2450   30.0250   38.1780 C   0  0  0  0  0  0  0  0  0  0  0  0
   36.8330   30.7920   39.1940 C   0  0  0  0  0  0  0  0  0  0  0  0
   36.3830   30.4280   40.4360 C   0  0  0  0  0  0  0  0  0  0  0  0
   36.7500   30.9350   41.2900 H   0  0  0  0  0  0  0  0  0  0  0  0
   35.4640   29.4310   40.6800 C   0  0  0  0  0  0  0  0  0  0  0  0
   35.1460   29.1890   41.6880 H   0  0  0  0  0  0  0  0  0  0  0  0
   34.9330   28.7240   39.6300 C   0  0  0  0  0  3  0  0  0  0  0  0
   35.3220   29.0180   38.3580 C   0  0  0  0  0  3  0  0  0  0  0  0
   43.6560   30.7390   38.2540 O   0  0  0  0  0  0  0  0  0  0  0  0
   44.3960   31.4860   37.3500 C   0  0  0  0  0  0  0  0  0  0  0  0
   45.4660   31.0590   36.7980 O   0  0  0  0  0  0  0  0  0  0  0  0
   44.0680   32.7930   36.9300 N   0  0  0  0  0  0  0  0  0  0  0  0
   43.8720   33.2360   36.0040 H   0  0  0  0  0  0  0  0  0  0  0  0
   43.9410   33.6740   37.5040 H   0  0  0  0  0  0  0  0  0  0  0  0
  1 33  1  0  0  0  0
  1  6  1  0  0  0  0
  2  1  2  0  0  0  0
  3  2  1  0  0  0  0
  3  4  2  0  0  0  0
  4  5  1  0  0  0  0
  5  6  2  0  0  0  0
  5  7  1  0  0  0  0
  7  8  1  0  0  0  0
  8  9  1  0  0  0  0
  8 15  1  0  0  0  0
  9 17  1  0  0  0  0
  9 18  1  0  0  0  0
 10 20  1  0  0  0  0
 10  9  1  0  0  0  0
 11 22  1  0  0  0  0
 11 10  1  0  0  0  0
 12 23  1  6  0  0  0
 12 11  1  0  0  0  0
 12 26  1  0  0  0  0
 12  7  1  0  0  0  0
 13  2  1  0  0  0  0
 14  3  1  0  0  0  0
 16  8  1  0  0  0  0
 19 10  1  0  0  0  0
 21 11  1  0  0  0  0
 24 25  1  0  0  0  0
 25 32  2  0  0  0  0
 25 26  1  0  0  0  0
 26 27  2  0  0  0  0
 27 29  1  0  0  0  0
 27 28  1  0  0  0  0
 29 30  1  0  0  0  0
 31 29  2  0  0  0  0
 32 31  1  0  0  0  0
 34 33  1  0  0  0  0
 35 34  2  0  0  0  0
 36 34  1  0  0  0  0
 36 38  1  0  0  0  0
 37 36  1  0  0  0  0
M  END
>  <minimizedAffinity>
-5.15914965

$$$$
