
 OpenBabel03242510543D

 31 33  0  0  0  0  0  0  0  0999 V2000
   45.7190   31.7220   47.0960 C   0  0  0  0  0  0  0  0  0  0  0  0
   45.5480   32.1790   48.4070 C   0  0  0  0  0  0  0  0  0  0  0  0
   45.3330   31.3330   49.4760 C   0  0  0  0  0  0  0  0  0  0  0  0
   45.2900   29.9900   49.2130 C   0  0  0  0  0  0  0  0  0  0  0  0
   45.4590   29.5240   47.9190 C   0  0  0  0  0  0  0  0  0  0  0  0
   45.6660   30.3930   46.9140 N   0  0  0  0  0  0  0  0  0  0  0  0
   45.5910   33.2550   48.5580 H   0  0  0  0  0  0  0  0  0  0  0  0
   45.2050   31.6980   50.4660 H   0  0  0  0  0  0  0  0  0  0  0  0
   45.1210   29.3350   50.0540 H   0  0  0  0  0  0  0  0  0  0  0  0
   44.7360   36.7170   43.8480 C   0  0  0  0  0  0  0  0  0  0  0  0
   45.5840   36.4260   42.7770 C   0  0  0  0  0  0  0  0  0  0  0  0
   46.2340   35.1870   42.7860 C   0  0  0  0  0  0  0  0  0  0  0  0
   46.0060   34.3330   43.8320 N   0  0  0  0  0  0  0  0  0  0  0  0
   45.1800   34.6600   44.8400 C   0  0  0  0  0  0  0  0  0  0  0  0
   44.5320   35.8560   44.8640 N   0  0  0  0  0  0  0  0  0  0  0  0
   45.9430   32.6610   45.9990 C   0  0  0  0  0  0  0  0  0  0  0  0
   46.9150   32.5040   45.2280 O   0  0  0  0  0  0  0  0  0  0  0  0
   44.9840   33.7350   45.8970 N   0  0  0  0  0  0  0  0  0  0  0  0
   44.2400   37.6840   43.8250 H   0  0  0  0  0  0  0  0  0  0  0  0
   45.7450   37.1190   41.9630 H   0  0  0  0  0  0  0  0  0  0  0  0
   46.9030   34.9000   41.9850 H   0  0  0  0  0  0  0  0  0  0  0  0
   44.1600   33.8640   46.5550 H   0  0  0  0  0  0  0  0  0  0  0  0
   48.1070   28.2350   47.6760 Cl  0  0  0  0  0  0  0  0  0  0  0  0
   46.5810   27.3760   47.4810 C   0  0  0  0  0  0  0  0  0  0  0  0
   45.4160   28.1000   47.6200 C   0  0  0  0  0  0  0  0  0  0  0  0
   44.2700   27.3560   47.4520 C   0  0  0  0  0  0  0  0  0  0  0  0
   43.3160   27.8470   47.5450 H   0  0  0  0  0  0  0  0  0  0  0  0
   44.2850   26.0060   47.1700 C   0  0  0  0  0  0  0  0  0  0  0  0
   43.3330   25.4950   47.0530 H   0  0  0  0  0  0  0  0  0  0  0  0
   45.4810   25.3310   47.0410 C   0  0  0  0  0  0  0  0  0  0  0  0
   46.6620   26.0270   47.2000 C   0  0  0  0  0  0  0  0  0  0  0  0
  1  2  1  0  0  0  0
  2  7  1  0  0  0  0
  2  3  2  0  0  0  0
  3  8  1  0  0  0  0
  4  3  1  0  0  0  0
  4  9  1  0  0  0  0
  5  4  2  0  0  0  0
  6  1  2  0  0  0  0
  6  5  1  0  0  0  0
 10 15  1  0  0  0  0
 11 12  1  0  0  0  0
 11 10  2  0  0  0  0
 12 13  2  0  0  0  0
 13 14  1  0  0  0  0
 14 15  2  0  0  0  0
 14 18  1  0  0  0  0
 16  1  1  0  0  0  0
 17 16  2  0  0  0  0
 18 16  1  0  0  0  0
 18 22  1  0  0  0  0
 19 10  1  0  0  0  0
 20 11  1  0  0  0  0
 21 12  1  0  0  0  0
 24 25  1  0  0  0  0
 24 23  1  0  0  0  0
 25  5  1  0  0  0  0
 26 27  1  0  0  0  0
 26 25  2  0  0  0  0
 28 26  1  0  0  0  0
 29 28  1  0  0  0  0
 30 28  2  0  0  0  0
 30 31  1  0  0  0  0
 31 24  2  0  0  0  0
M  END
>  <minimizedAffinity>
-5.55855799

>  <minimizedRMSD>
0.500126004

$$$$
