
 OpenBabel03252508223D

 34 36  0  0  0  0  0  0  0  0999 V2000
   36.0380   29.9690   38.7350 C   0  0  0  0  0  0  0  0  0  0  0  0
   35.4690   29.0330   37.9090 C   0  0  0  0  0  0  0  0  0  0  0  0
   35.7680   28.8680   36.5640 C   0  0  0  0  0  0  0  0  0  0  0  0
   36.7260   29.7440   36.0600 C   0  0  0  0  0  0  0  0  0  0  0  0
   37.3160   30.6970   36.8690 C   0  0  0  0  0  0  0  0  0  0  0  0
   36.9980   30.8300   38.1900 C   0  0  0  0  0  0  0  0  0  0  0  0
   34.7330   28.3930   38.3800 H   0  0  0  0  0  0  0  0  0  0  0  0
   35.2850   28.1120   35.9610 H   0  0  0  0  0  0  0  0  0  0  0  0
   36.9830   29.6500   35.0320 H   0  0  0  0  0  0  0  0  0  0  0  0
   38.0650   31.3630   36.4260 H   0  0  0  0  0  0  0  0  0  0  0  0
   39.3860   29.6770   39.4600 Cl  0  0  0  0  0  0  0  0  0  0  0  0
   38.7690   31.3230   39.6440 C   0  0  0  0  0  0  0  0  0  0  0  0
   37.6320   31.8420   39.0290 C   0  0  0  0  0  0  0  0  0  0  0  0
   37.2740   33.1390   39.2650 C   0  0  0  0  0  0  0  0  0  0  0  0
   36.3720   33.4280   38.7300 H   0  0  0  0  0  0  0  0  0  0  0  0
   38.0230   33.9290   40.1020 C   0  0  0  0  0  0  0  0  0  0  0  0
   37.6940   34.9430   40.2510 H   0  0  0  0  0  0  0  0  0  0  0  0
   39.1510   33.4320   40.7190 C   0  0  0  0  0  3  0  0  0  0  0  0
   39.5410   32.1130   40.4960 C   0  0  0  0  0  3  0  0  0  0  0  0
   35.7130   30.1350   40.1650 C   0  0  0  0  0  0  0  0  0  0  0  0
   34.7070   30.6480   40.1850 H   0  0  0  0  0  0  0  0  0  0  0  0
   36.4020   30.7600   40.7340 H   0  0  0  0  0  0  0  0  0  0  0  0
   35.4860   28.7950   40.8400 C   0  0  0  0  0  0  0  0  0  0  0  0
   35.4160   27.9720   40.0780 H   0  0  0  0  0  0  0  0  0  0  0  0
   34.6020   28.8400   41.4880 H   0  0  0  0  0  0  0  0  0  0  0  0
   38.2730   27.0070   42.6690 C   0  0  0  0  0  0  0  0  0  0  0  0
   37.1380   27.2000   41.8390 C   0  0  0  0  0  0  0  0  0  0  0  0
   36.6690   28.5040   41.6900 C   0  0  0  0  0  0  0  0  0  0  0  0
   37.3280   29.5220   42.3530 N   0  0  0  0  0  0  0  0  0  0  0  0
   38.3960   29.2750   43.1230 C   0  0  0  0  0  0  0  0  0  0  0  0
   38.8750   28.0220   43.2860 N   0  0  0  0  0  0  0  0  0  0  0  0
   38.5240   25.9500   42.6900 H   0  0  0  0  0  0  0  0  0  0  0  0
   36.6130   26.4280   41.3170 H   0  0  0  0  0  0  0  0  0  0  0  0
   38.9120   30.0760   43.6420 H   0  0  0  0  0  0  0  0  0  0  0  0
  1 20  1  0  0  0  0
  2  7  1  0  0  0  0
  2  1  2  0  0  0  0
  3  2  1  0  0  0  0
  4  3  2  0  0  0  0
  4  5  1  0  0  0  0
  5  6  2  0  0  0  0
  6  1  1  0  0  0  0
  6 13  1  0  0  0  0
  8  3  1  0  0  0  0
  9  4  1  0  0  0  0
 10  5  1  0  0  0  0
 11 12  1  0  0  0  0
 12 19  1  0  0  0  0
 13 14  1  0  0  0  0
 13 12  2  0  0  0  0
 14 16  2  0  0  0  0
 15 14  1  0  0  0  0
 16 17  1  0  0  0  0
 16 18  1  0  0  0  0
 19 18  2  0  0  0  0
 20 21  1  0  0  0  0
 20 22  1  0  0  0  0
 20 23  1  0  0  0  0
 23 25  1  0  0  0  0
 23 28  1  0  0  0  0
 24 23  1  0  0  0  0
 26 32  1  0  0  0  0
 26 31  1  0  0  0  0
 27 26  2  0  0  0  0
 28 27  1  0  0  0  0
 28 29  2  0  0  0  0
 29 30  1  0  0  0  0
 30 31  2  0  0  0  0
 30 34  1  0  0  0  0
 33 27  1  0  0  0  0
M  END
>  <minimizedAffinity>
-5.78667688

$$$$

 OpenBabel03252508223D

 34 36  0  0  0  0  0  0  0  0999 V2000
   38.9690   31.4850   40.1480 C   0  0  0  0  0  0  0  0  0  0  0  0
   39.8740   32.5020   40.3210 C   0  0  0  0  0  0  0  0  0  0  0  0
   39.5800   33.8550   40.2330 C   0  0  0  0  0  0  0  0  0  0  0  0
   38.2500   34.1540   39.9460 C   0  0  0  0  0  0  0  0  0  0  0  0
   37.3170   33.1500   39.7670 C   0  0  0  0  0  0  0  0  0  0  0  0
   37.6420   31.8270   39.8620 C   0  0  0  0  0  0  0  0  0  0  0  0
   40.8850   32.1830   40.5400 H   0  0  0  0  0  0  0  0  0  0  0  0
   40.3360   34.6140   40.3780 H   0  0  0  0  0  0  0  0  0  0  0  0
   37.9840   35.1810   39.8700 H   0  0  0  0  0  0  0  0  0  0  0  0
   36.2830   33.4350   39.5440 H   0  0  0  0  0  0  0  0  0  0  0  0
   37.5350   31.1000   37.0150 Cl  0  0  0  0  0  0  0  0  0  0  0  0
   36.5700   30.4150   38.3280 C   0  0  0  0  0  0  0  0  0  0  0  0
   36.6430   30.7810   39.6700 C   0  0  0  0  0  0  0  0  0  0  0  0
   35.8310   30.1630   40.5790 C   0  0  0  0  0  0  0  0  0  0  0  0
   35.9790   30.5320   41.5910 H   0  0  0  0  0  0  0  0  0  0  0  0
   34.9490   29.1900   40.1800 C   0  0  0  0  0  0  0  0  0  0  0  0
   34.3350   28.7370   40.9390 H   0  0  0  0  0  0  0  0  0  0  0  0
   34.8640   28.8150   38.8560 C   0  0  0  0  0  3  0  0  0  0  0  0
   35.6800   29.4280   37.9060 C   0  0  0  0  0  3  0  0  0  0  0  0
   39.2920   30.0480   40.2440 C   0  0  0  0  0  0  0  0  0  0  0  0
   40.2610   29.9220   39.6770 H   0  0  0  0  0  0  0  0  0  0  0  0
   38.5660   29.3720   39.7920 H   0  0  0  0  0  0  0  0  0  0  0  0
   39.6160   29.6480   41.6720 C   0  0  0  0  0  0  0  0  0  0  0  0
   39.5320   30.5320   42.3620 H   0  0  0  0  0  0  0  0  0  0  0  0
   40.6040   29.1740   41.7190 H   0  0  0  0  0  0  0  0  0  0  0  0
   36.9980   27.7970   43.6790 C   0  0  0  0  0  0  0  0  0  0  0  0
   37.9520   28.7910   43.3350 C   0  0  0  0  0  0  0  0  0  0  0  0
   38.6030   28.6540   42.1100 C   0  0  0  0  0  0  0  0  0  0  0  0
   38.2870   27.5720   41.3110 N   0  0  0  0  0  0  0  0  0  0  0  0
   37.3760   26.6670   41.6930 C   0  0  0  0  0  0  0  0  0  0  0  0
   36.7270   26.7720   42.8740 N   0  0  0  0  0  0  0  0  0  0  0  0
   36.5750   28.0320   44.6520 H   0  0  0  0  0  0  0  0  0  0  0  0
   38.2120   29.6350   43.9360 H   0  0  0  0  0  0  0  0  0  0  0  0
   37.1290   25.8180   41.0640 H   0  0  0  0  0  0  0  0  0  0  0  0
  1 20  1  0  0  0  0
  1  2  1  0  0  0  0
  2  7  1  0  0  0  0
  3  2  2  0  0  0  0
  3  8  1  0  0  0  0
  4  3  1  0  0  0  0
  5  6  1  0  0  0  0
  5  4  2  0  0  0  0
  6  1  2  0  0  0  0
  9  4  1  0  0  0  0
 10  5  1  0  0  0  0
 11 12  1  0  0  0  0
 12 13  1  0  0  0  0
 13  6  1  0  0  0  0
 13 14  2  0  0  0  0
 14 15  1  0  0  0  0
 16 14  1  0  0  0  0
 16 17  1  0  0  0  0
 18 16  2  0  0  0  0
 19 12  2  0  0  0  0
 19 18  1  0  0  0  0
 20 23  1  0  0  0  0
 21 20  1  0  0  0  0
 22 20  1  0  0  0  0
 23 25  1  0  0  0  0
 23 28  1  0  0  0  0
 23 24  1  0  0  0  0
 26 32  1  0  0  0  0
 27 26  1  0  0  0  0
 27 33  1  0  0  0  0
 28 27  2  0  0  0  0
 29 30  2  0  0  0  0
 29 28  1  0  0  0  0
 30 31  1  0  0  0  0
 31 26  2  0  0  0  0
 34 30  1  0  0  0  0
M  END
>  <minimizedAffinity>
-5.77934694

$$$$

 OpenBabel03252508223D

 34 36  0  0  0  0  0  0  0  0999 V2000
   35.8390   27.2650   38.3020 C   0  0  0  0  0  0  0  0  0  0  0  0
   35.2470   26.2470   37.5960 C   0  0  0  0  0  0  0  0  0  0  0  0
   34.0470   26.3460   36.9080 C   0  0  0  0  0  0  0  0  0  0  0  0
   33.4320   27.5940   36.9690 C   0  0  0  0  0  0  0  0  0  0  0  0
   34.0050   28.6370   37.6720 C   0  0  0  0  0  0  0  0  0  0  0  0
   35.1890   28.5040   38.3370 C   0  0  0  0  0  0  0  0  0  0  0  0
   35.7910   25.3100   37.6010 H   0  0  0  0  0  0  0  0  0  0  0  0
   33.6280   25.5080   36.3690 H   0  0  0  0  0  0  0  0  0  0  0  0
   32.5080   27.7110   36.4530 H   0  0  0  0  0  0  0  0  0  0  0  0
   33.4830   29.6010   37.6890 H   0  0  0  0  0  0  0  0  0  0  0  0
   36.9190   30.0530   36.5330 Cl  0  0  0  0  0  0  0  0  0  0  0  0
   36.6040   30.3710   38.2430 C   0  0  0  0  0  0  0  0  0  0  0  0
   35.7780   29.6170   39.0740 C   0  0  0  0  0  0  0  0  0  0  0  0
   35.6290   29.9830   40.3820 C   0  0  0  0  0  0  0  0  0  0  0  0
   34.9620   29.3210   40.9290 H   0  0  0  0  0  0  0  0  0  0  0  0
   36.2850   31.0820   40.8790 C   0  0  0  0  0  0  0  0  0  0  0  0
   36.1300   31.3240   41.9160 H   0  0  0  0  0  0  0  0  0  0  0  0
   37.1060   31.8400   40.0710 C   0  0  0  0  0  3  0  0  0  0  0  0
   37.2770   31.4900   38.7320 C   0  0  0  0  0  3  0  0  0  0  0  0
   37.1170   27.1490   39.0310 C   0  0  0  0  0  0  0  0  0  0  0  0
   37.3770   28.2020   39.3450 H   0  0  0  0  0  0  0  0  0  0  0  0
   37.9580   26.7730   38.4480 H   0  0  0  0  0  0  0  0  0  0  0  0
   36.9470   26.3800   40.3280 C   0  0  0  0  0  0  0  0  0  0  0  0
   37.5960   25.4620   40.3340 H   0  0  0  0  0  0  0  0  0  0  0  0
   35.8890   26.1450   40.4950 H   0  0  0  0  0  0  0  0  0  0  0  0
   37.2500   28.1160   43.6750 C   0  0  0  0  0  0  0  0  0  0  0  0
   36.7440   27.2570   42.6650 C   0  0  0  0  0  0  0  0  0  0  0  0
   37.4100   27.2500   41.4400 C   0  0  0  0  0  0  0  0  0  0  0  0
   38.5100   28.0710   41.2810 N   0  0  0  0  0  0  0  0  0  0  0  0
   38.9390   28.8600   42.2750 C   0  0  0  0  0  0  0  0  0  0  0  0
   38.3150   28.8900   43.4740 N   0  0  0  0  0  0  0  0  0  0  0  0
   36.6370   28.0170   44.5670 H   0  0  0  0  0  0  0  0  0  0  0  0
   35.8960   26.6140   42.7650 H   0  0  0  0  0  0  0  0  0  0  0  0
   39.8030   29.5040   42.1480 H   0  0  0  0  0  0  0  0  0  0  0  0
  1  6  1  0  0  0  0
  1 20  1  0  0  0  0
  2  7  1  0  0  0  0
  2  1  2  0  0  0  0
  3  4  2  0  0  0  0
  3  2  1  0  0  0  0
  4  5  1  0  0  0  0
  5 10  1  0  0  0  0
  5  6  2  0  0  0  0
  6 13  1  0  0  0  0
  8  3  1  0  0  0  0
  9  4  1  0  0  0  0
 11 12  1  0  0  0  0
 12 19  2  0  0  0  0
 12 13  1  0  0  0  0
 13 14  2  0  0  0  0
 14 16  1  0  0  0  0
 14 15  1  0  0  0  0
 16 17  1  0  0  0  0
 18 16  2  0  0  0  0
 19 18  1  0  0  0  0
 20 21  1  0  0  0  0
 20 23  1  0  0  0  0
 22 20  1  0  0  0  0
 23 24  1  0  0  0  0
 23 25  1  0  0  0  0
 23 28  1  0  0  0  0
 26 32  1  0  0  0  0
 27 33  1  0  0  0  0
 27 26  2  0  0  0  0
 28 27  1  0  0  0  0
 29 28  2  0  0  0  0
 29 30  1  0  0  0  0
 30 31  2  0  0  0  0
 31 26  1  0  0  0  0
 34 30  1  0  0  0  0
M  END
>  <minimizedAffinity>
-5.51333809

$$$$

 OpenBabel03252508223D

 34 36  0  0  0  0  0  0  0  0999 V2000
   37.0480   26.2210   41.9100 C   0  0  0  0  0  0  0  0  0  0  0  0
   37.1010   24.8640   42.1070 C   0  0  0  0  0  0  0  0  0  0  0  0
   36.8840   23.9050   41.1280 C   0  0  0  0  0  0  0  0  0  0  0  0
   36.5940   24.4090   39.8620 C   0  0  0  0  0  0  0  0  0  0  0  0
   36.5350   25.7710   39.6340 C   0  0  0  0  0  0  0  0  0  0  0  0
   36.7540   26.6860   40.6230 C   0  0  0  0  0  0  0  0  0  0  0  0
   37.3310   24.5570   43.1200 H   0  0  0  0  0  0  0  0  0  0  0  0
   36.9390   22.8480   41.3430 H   0  0  0  0  0  0  0  0  0  0  0  0
   36.4220   23.7060   39.0830 H   0  0  0  0  0  0  0  0  0  0  0  0
   36.3030   26.1190   38.6210 H   0  0  0  0  0  0  0  0  0  0  0  0
   39.2530   27.5560   39.3410 Cl  0  0  0  0  0  0  0  0  0  0  0  0
   37.8590   28.5620   39.7540 C   0  0  0  0  0  0  0  0  0  0  0  0
   36.6870   28.1210   40.3630 C   0  0  0  0  0  0  0  0  0  0  0  0
   35.6880   29.0160   40.6230 C   0  0  0  0  0  0  0  0  0  0  0  0
   34.8260   28.5550   41.0980 H   0  0  0  0  0  0  0  0  0  0  0  0
   35.8330   30.3400   40.2910 C   0  0  0  0  0  0  0  0  0  0  0  0
   35.0140   31.0000   40.5190 H   0  0  0  0  0  0  0  0  0  0  0  0
   36.9860   30.7950   39.6880 C   0  0  0  0  0  3  0  0  0  0  0  0
   38.0220   29.9040   39.4100 C   0  0  0  0  0  3  0  0  0  0  0  0
   37.2800   27.2320   42.9590 C   0  0  0  0  0  0  0  0  0  0  0  0
   36.6290   26.9160   43.8270 H   0  0  0  0  0  0  0  0  0  0  0  0
   36.9950   28.2520   42.7010 H   0  0  0  0  0  0  0  0  0  0  0  0
   38.7010   27.1650   43.4870 C   0  0  0  0  0  0  0  0  0  0  0  0
   39.2420   26.2740   43.0640 H   0  0  0  0  0  0  0  0  0  0  0  0
   38.7010   27.1710   44.5840 H   0  0  0  0  0  0  0  0  0  0  0  0
   39.5730   30.7370   42.5980 C   0  0  0  0  0  0  0  0  0  0  0  0
   38.8160   29.6310   43.0660 C   0  0  0  0  0  0  0  0  0  0  0  0
   39.4220   28.3760   43.0180 C   0  0  0  0  0  0  0  0  0  0  0  0
   40.7090   28.2820   42.5230 N   0  0  0  0  0  0  0  0  0  0  0  0
   41.3710   29.3660   42.0960 C   0  0  0  0  0  0  0  0  0  0  0  0
   40.8120   30.5950   42.1300 N   0  0  0  0  0  0  0  0  0  0  0  0
   38.9800   31.6410   42.6950 H   0  0  0  0  0  0  0  0  0  0  0  0
   37.8210   29.6800   43.4520 H   0  0  0  0  0  0  0  0  0  0  0  0
   42.3820   29.2890   41.7080 H   0  0  0  0  0  0  0  0  0  0  0  0
  1  2  1  0  0  0  0
  1 20  1  0  0  0  0
  2  7  1  0  0  0  0
  3  8  1  0  0  0  0
  3  2  2  0  0  0  0
  4  3  1  0  0  0  0
  5  4  2  0  0  0  0
  5  6  1  0  0  0  0
  6  1  2  0  0  0  0
  9  4  1  0  0  0  0
 10  5  1  0  0  0  0
 11 12  1  0  0  0  0
 12 13  1  0  0  0  0
 13  6  1  0  0  0  0
 13 14  2  0  0  0  0
 14 15  1  0  0  0  0
 16 17  1  0  0  0  0
 16 14  1  0  0  0  0
 18 16  2  0  0  0  0
 19 18  1  0  0  0  0
 19 12  2  0  0  0  0
 20 23  1  0  0  0  0
 20 21  1  0  0  0  0
 22 20  1  0  0  0  0
 23 25  1  0  0  0  0
 24 23  1  0  0  0  0
 26 32  1  0  0  0  0
 26 27  1  0  0  0  0
 27 33  1  0  0  0  0
 28 27  2  0  0  0  0
 28 23  1  0  0  0  0
 29 28  1  0  0  0  0
 30 31  1  0  0  0  0
 30 29  2  0  0  0  0
 31 26  2  0  0  0  0
 34 30  1  0  0  0  0
M  END
>  <minimizedAffinity>
-5.41607618

$$$$

 OpenBabel03252508223D

 34 36  0  0  0  0  0  0  0  0999 V2000
   39.0110   31.5480   39.8860 C   0  0  0  0  0  0  0  0  0  0  0  0
   39.7300   32.5630   40.4640 C   0  0  0  0  0  0  0  0  0  0  0  0
   39.3250   33.8880   40.5380 C   0  0  0  0  0  0  0  0  0  0  0  0
   38.0830   34.1580   39.9680 C   0  0  0  0  0  0  0  0  0  0  0  0
   37.3360   33.1560   39.3790 C   0  0  0  0  0  0  0  0  0  0  0  0
   37.7670   31.8620   39.3250 C   0  0  0  0  0  0  0  0  0  0  0  0
   40.6840   32.2670   40.8830 H   0  0  0  0  0  0  0  0  0  0  0  0
   39.9360   34.6470   41.0060 H   0  0  0  0  0  0  0  0  0  0  0  0
   37.7360   35.1640   40.0040 H   0  0  0  0  0  0  0  0  0  0  0  0
   36.3650   33.4180   38.9440 H   0  0  0  0  0  0  0  0  0  0  0  0
   35.9380   30.7180   41.3230 Cl  0  0  0  0  0  0  0  0  0  0  0  0
   36.0860   30.2560   39.6230 C   0  0  0  0  0  0  0  0  0  0  0  0
   36.9640   30.8160   38.6990 C   0  0  0  0  0  0  0  0  0  0  0  0
   36.9680   30.3560   37.4130 C   0  0  0  0  0  0  0  0  0  0  0  0
   37.6930   30.8690   36.7860 H   0  0  0  0  0  0  0  0  0  0  0  0
   36.1170   29.3490   37.0290 C   0  0  0  0  0  0  0  0  0  0  0  0
   36.1630   29.0260   36.0030 H   0  0  0  0  0  0  0  0  0  0  0  0
   35.2410   28.7830   37.9300 C   0  0  0  0  0  3  0  0  0  0  0  0
   35.2140   29.2330   39.2490 C   0  0  0  0  0  3  0  0  0  0  0  0
   39.4520   30.1420   39.8130 C   0  0  0  0  0  0  0  0  0  0  0  0
   40.3610   30.1490   39.1420 H   0  0  0  0  0  0  0  0  0  0  0  0
   38.7360   29.4470   39.3740 H   0  0  0  0  0  0  0  0  0  0  0  0
   39.9560   29.6500   41.1570 C   0  0  0  0  0  0  0  0  0  0  0  0
   40.1550   30.5140   41.8490 H   0  0  0  0  0  0  0  0  0  0  0  0
   40.8380   29.0120   41.0220 H   0  0  0  0  0  0  0  0  0  0  0  0
   37.2240   27.0950   41.7190 C   0  0  0  0  0  0  0  0  0  0  0  0
   38.2380   27.8310   41.0530 C   0  0  0  0  0  0  0  0  0  0  0  0
   38.8830   28.8310   41.7780 C   0  0  0  0  0  0  0  0  0  0  0  0
   38.5010   29.0480   43.0880 N   0  0  0  0  0  0  0  0  0  0  0  0
   37.5350   28.3180   43.6620 C   0  0  0  0  0  0  0  0  0  0  0  0
   36.8920   27.3410   42.9860 N   0  0  0  0  0  0  0  0  0  0  0  0
   36.8130   26.3550   41.0380 H   0  0  0  0  0  0  0  0  0  0  0  0
   38.5490   27.6810   40.0410 H   0  0  0  0  0  0  0  0  0  0  0  0
   37.2380   28.4890   44.6910 H   0  0  0  0  0  0  0  0  0  0  0  0
  1  2  1  0  0  0  0
  2  3  2  0  0  0  0
  2  7  1  0  0  0  0
  3  8  1  0  0  0  0
  4  9  1  0  0  0  0
  4  3  1  0  0  0  0
  5  4  2  0  0  0  0
  6  5  1  0  0  0  0
  6  1  2  0  0  0  0
 10  5  1  0  0  0  0
 12 11  1  0  0  0  0
 13  6  1  0  0  0  0
 13 12  2  0  0  0  0
 14 13  1  0  0  0  0
 15 14  1  0  0  0  0
 16 14  2  0  0  0  0
 16 18  1  0  0  0  0
 17 16  1  0  0  0  0
 18 19  2  0  0  0  0
 19 12  1  0  0  0  0
 20  1  1  0  0  0  0
 20 23  1  0  0  0  0
 21 20  1  0  0  0  0
 22 20  1  0  0  0  0
 23 28  1  0  0  0  0
 23 24  1  0  0  0  0
 25 23  1  0  0  0  0
 26 31  1  0  0  0  0
 27 26  2  0  0  0  0
 27 28  1  0  0  0  0
 28 29  2  0  0  0  0
 29 30  1  0  0  0  0
 30 34  1  0  0  0  0
 31 30  2  0  0  0  0
 32 26  1  0  0  0  0
 33 27  1  0  0  0  0
M  END
>  <minimizedAffinity>
-5.37586212

$$$$

 OpenBabel03252508223D

 34 36  0  0  0  0  0  0  0  0999 V2000
   36.7800   29.0510   38.6990 C   0  0  0  0  0  0  0  0  0  0  0  0
   36.0000   29.1920   37.5800 C   0  0  0  0  0  0  0  0  0  0  0  0
   34.6120   29.1810   37.5670 C   0  0  0  0  0  0  0  0  0  0  0  0
   34.0120   29.0120   38.8120 C   0  0  0  0  0  0  0  0  0  0  0  0
   34.7730   28.8680   39.9570 C   0  0  0  0  0  0  0  0  0  0  0  0
   36.1380   28.8840   39.9320 C   0  0  0  0  0  0  0  0  0  0  0  0
   36.5460   29.3180   36.6530 H   0  0  0  0  0  0  0  0  0  0  0  0
   34.0490   29.2960   36.6520 H   0  0  0  0  0  0  0  0  0  0  0  0
   32.9480   28.9980   38.8450 H   0  0  0  0  0  0  0  0  0  0  0  0
   34.2540   28.7380   40.9130 H   0  0  0  0  0  0  0  0  0  0  0  0
   36.6980   26.0310   40.3710 Cl  0  0  0  0  0  0  0  0  0  0  0  0
   37.2060   27.3870   41.3850 C   0  0  0  0  0  0  0  0  0  0  0  0
   36.9250   28.7310   41.1510 C   0  0  0  0  0  0  0  0  0  0  0  0
   37.3840   29.6740   42.0260 C   0  0  0  0  0  0  0  0  0  0  0  0
   37.1030   30.6850   41.7380 H   0  0  0  0  0  0  0  0  0  0  0  0
   38.1170   29.3080   43.1270 C   0  0  0  0  0  0  0  0  0  0  0  0
   38.4550   30.0940   43.7810 H   0  0  0  0  0  0  0  0  0  0  0  0
   38.4060   27.9830   43.3740 C   0  0  0  0  0  3  0  0  0  0  0  0
   37.9500   26.9980   42.4990 C   0  0  0  0  0  3  0  0  0  0  0  0
   38.2560   29.0640   38.7020 C   0  0  0  0  0  0  0  0  0  0  0  0
   38.5630   28.2040   38.0370 H   0  0  0  0  0  0  0  0  0  0  0  0
   38.7260   28.9020   39.6720 H   0  0  0  0  0  0  0  0  0  0  0  0
   38.7990   30.3050   38.0180 C   0  0  0  0  0  0  0  0  0  0  0  0
   38.1520   30.5950   37.1450 H   0  0  0  0  0  0  0  0  0  0  0  0
   39.8460   30.1530   37.7280 H   0  0  0  0  0  0  0  0  0  0  0  0
   37.7480   33.4130   39.9010 C   0  0  0  0  0  0  0  0  0  0  0  0
   37.7250   32.3740   38.9340 C   0  0  0  0  0  0  0  0  0  0  0  0
   38.7460   31.4260   38.9920 C   0  0  0  0  0  0  0  0  0  0  0  0
   39.7080   31.5500   39.9750 N   0  0  0  0  0  0  0  0  0  0  0  0
   39.6730   32.5550   40.8610 C   0  0  0  0  0  0  0  0  0  0  0  0
   38.6980   33.4900   40.8310 N   0  0  0  0  0  0  0  0  0  0  0  0
   36.9000   34.0720   39.7360 H   0  0  0  0  0  0  0  0  0  0  0  0
   36.9920   32.2580   38.1660 H   0  0  0  0  0  0  0  0  0  0  0  0
   40.4300   32.6510   41.6320 H   0  0  0  0  0  0  0  0  0  0  0  0
  1 20  1  0  0  0  0
  1  6  1  0  0  0  0
  2  1  2  0  0  0  0
  3  2  1  0  0  0  0
  3  4  2  0  0  0  0
  4  9  1  0  0  0  0
  4  5  1  0  0  0  0
  5 10  1  0  0  0  0
  6  5  2  0  0  0  0
  6 13  1  0  0  0  0
  7  2  1  0  0  0  0
  8  3  1  0  0  0  0
 11 12  1  0  0  0  0
 12 19  1  0  0  0  0
 13 12  2  0  0  0  0
 13 14  1  0  0  0  0
 14 16  2  0  0  0  0
 15 14  1  0  0  0  0
 16 18  1  0  0  0  0
 16 17  1  0  0  0  0
 19 18  2  0  0  0  0
 20 22  1  0  0  0  0
 21 20  1  0  0  0  0
 23 20  1  0  0  0  0
 23 28  1  0  0  0  0
 24 23  1  0  0  0  0
 25 23  1  0  0  0  0
 26 31  1  0  0  0  0
 27 28  1  0  0  0  0
 27 26  2  0  0  0  0
 28 29  2  0  0  0  0
 29 30  1  0  0  0  0
 30 34  1  0  0  0  0
 31 30  2  0  0  0  0
 32 26  1  0  0  0  0
 33 27  1  0  0  0  0
M  END
>  <minimizedAffinity>
-5.36292934

$$$$

 OpenBabel03252508223D

 34 36  0  0  0  0  0  0  0  0999 V2000
   38.6230   26.4270   42.7050 C   0  0  0  0  0  0  0  0  0  0  0  0
   39.5720   26.2420   43.6790 C   0  0  0  0  0  0  0  0  0  0  0  0
   40.8210   25.6740   43.4790 C   0  0  0  0  0  0  0  0  0  0  0  0
   41.0870   25.2780   42.1700 C   0  0  0  0  0  0  0  0  0  0  0  0
   40.1510   25.4530   41.1690 C   0  0  0  0  0  0  0  0  0  0  0  0
   38.9300   26.0160   41.4030 C   0  0  0  0  0  0  0  0  0  0  0  0
   39.2840   26.5760   44.6680 H   0  0  0  0  0  0  0  0  0  0  0  0
   41.5290   25.5520   44.2870 H   0  0  0  0  0  0  0  0  0  0  0  0
   42.0360   24.8370   41.9750 H   0  0  0  0  0  0  0  0  0  0  0  0
   40.4070   25.1260   40.1550 H   0  0  0  0  0  0  0  0  0  0  0  0
   37.3480   23.5540   41.1180 Cl  0  0  0  0  0  0  0  0  0  0  0  0
   37.1880   25.0400   40.1740 C   0  0  0  0  0  0  0  0  0  0  0  0
   37.9540   26.1930   40.3320 C   0  0  0  0  0  0  0  0  0  0  0  0
   37.7180   27.2710   39.5260 C   0  0  0  0  0  0  0  0  0  0  0  0
   38.3760   28.1090   39.7440 H   0  0  0  0  0  0  0  0  0  0  0  0
   36.7360   27.2250   38.5670 C   0  0  0  0  0  0  0  0  0  0  0  0
   36.5940   28.1030   37.9620 H   0  0  0  0  0  0  0  0  0  0  0  0
   35.9690   26.0920   38.3970 C   0  0  0  0  0  3  0  0  0  0  0  0
   36.1870   24.9770   39.2050 C   0  0  0  0  0  3  0  0  0  0  0  0
   37.2960   27.0330   42.9290 C   0  0  0  0  0  0  0  0  0  0  0  0
   36.7650   26.3330   43.6400 H   0  0  0  0  0  0  0  0  0  0  0  0
   36.6670   27.1280   42.0440 H   0  0  0  0  0  0  0  0  0  0  0  0
   37.4080   28.3470   43.6800 C   0  0  0  0  0  0  0  0  0  0  0  0
   38.2480   28.3100   44.4260 H   0  0  0  0  0  0  0  0  0  0  0  0
   36.4480   28.6030   44.1450 H   0  0  0  0  0  0  0  0  0  0  0  0
   39.2540   30.9860   41.6960 C   0  0  0  0  0  0  0  0  0  0  0  0
   39.0160   29.9780   42.6650 C   0  0  0  0  0  0  0  0  0  0  0  0
   37.7430   29.4090   42.6960 C   0  0  0  0  0  0  0  0  0  0  0  0
   36.7980   29.8550   41.7920 N   0  0  0  0  0  0  0  0  0  0  0  0
   37.0860   30.8120   40.8990 C   0  0  0  0  0  0  0  0  0  0  0  0
   38.3100   31.3820   40.8440 N   0  0  0  0  0  0  0  0  0  0  0  0
   40.2790   31.3340   41.7880 H   0  0  0  0  0  0  0  0  0  0  0  0
   39.7300   29.6160   43.3740 H   0  0  0  0  0  0  0  0  0  0  0  0
   36.3430   31.1610   40.1900 H   0  0  0  0  0  0  0  0  0  0  0  0
  1 20  1  0  0  0  0
  1  2  1  0  0  0  0
  2  7  1  0  0  0  0
  3  2  2  0  0  0  0
  3  8  1  0  0  0  0
  4  3  1  0  0  0  0
  5  6  1  0  0  0  0
  5  4  2  0  0  0  0
  6  1  2  0  0  0  0
  9  4  1  0  0  0  0
 10  5  1  0  0  0  0
 12 13  1  0  0  0  0
 12 11  1  0  0  0  0
 13  6  1  0  0  0  0
 14 15  1  0  0  0  0
 14 13  2  0  0  0  0
 16 14  1  0  0  0  0
 17 16  1  0  0  0  0
 18 16  2  0  0  0  0
 18 19  1  0  0  0  0
 19 12  2  0  0  0  0
 20 21  1  0  0  0  0
 20 23  1  0  0  0  0
 22 20  1  0  0  0  0
 23 25  1  0  0  0  0
 23 24  1  0  0  0  0
 26 32  1  0  0  0  0
 26 27  1  0  0  0  0
 27 28  2  0  0  0  0
 27 33  1  0  0  0  0
 28 23  1  0  0  0  0
 29 28  1  0  0  0  0
 30 29  2  0  0  0  0
 31 30  1  0  0  0  0
 31 26  2  0  0  0  0
 34 30  1  0  0  0  0
M  END
>  <minimizedAffinity>
-5.33058882

$$$$

 OpenBabel03252508223D

 34 36  0  0  0  0  0  0  0  0999 V2000
   36.7830   27.0710   41.5130 C   0  0  0  0  0  0  0  0  0  0  0  0
   37.0080   26.0600   42.4130 C   0  0  0  0  0  0  0  0  0  0  0  0
   37.1400   24.7180   42.0890 C   0  0  0  0  0  0  0  0  0  0  0  0
   37.0290   24.4240   40.7320 C   0  0  0  0  0  0  0  0  0  0  0  0
   36.8040   25.4220   39.8030 C   0  0  0  0  0  0  0  0  0  0  0  0
   36.6790   26.7340   40.1580 C   0  0  0  0  0  0  0  0  0  0  0  0
   37.0790   26.3750   43.4460 H   0  0  0  0  0  0  0  0  0  0  0  0
   37.3160   23.9640   42.8430 H   0  0  0  0  0  0  0  0  0  0  0  0
   37.1260   23.4040   40.4420 H   0  0  0  0  0  0  0  0  0  0  0  0
   36.7250   25.1400   38.7470 H   0  0  0  0  0  0  0  0  0  0  0  0
   39.2530   27.6150   39.0430 Cl  0  0  0  0  0  0  0  0  0  0  0  0
   37.6450   28.2110   38.6150 C   0  0  0  0  0  0  0  0  0  0  0  0
   36.4400   27.7740   39.1620 C   0  0  0  0  0  0  0  0  0  0  0  0
   35.2680   28.3280   38.7330 C   0  0  0  0  0  0  0  0  0  0  0  0
   34.3980   27.9070   39.2310 H   0  0  0  0  0  0  0  0  0  0  0  0
   35.2700   29.3090   37.7720 C   0  0  0  0  0  0  0  0  0  0  0  0
   34.3170   29.7090   37.4720 H   0  0  0  0  0  0  0  0  0  0  0  0
   36.4520   29.7540   37.2200 C   0  0  0  0  0  3  0  0  0  0  0  0
   37.6630   29.2060   37.6380 C   0  0  0  0  0  3  0  0  0  0  0  0
   36.6430   28.4970   41.8680 C   0  0  0  0  0  0  0  0  0  0  0  0
   36.0240   28.5090   42.8130 H   0  0  0  0  0  0  0  0  0  0  0  0
   36.1230   29.1150   41.1360 H   0  0  0  0  0  0  0  0  0  0  0  0
   37.9780   29.1010   42.2630 C   0  0  0  0  0  0  0  0  0  0  0  0
   38.8280   28.4600   41.9020 H   0  0  0  0  0  0  0  0  0  0  0  0
   38.0140   29.2700   43.3460 H   0  0  0  0  0  0  0  0  0  0  0  0
   37.2270   32.2340   40.2810 C   0  0  0  0  0  0  0  0  0  0  0  0
   37.0240   30.9740   40.9010 C   0  0  0  0  0  0  0  0  0  0  0  0
   38.1040   30.4170   41.5850 C   0  0  0  0  0  0  0  0  0  0  0  0
   39.2960   31.1150   41.6180 N   0  0  0  0  0  0  0  0  0  0  0  0
   39.4240   32.3030   41.0110 C   0  0  0  0  0  0  0  0  0  0  0  0
   38.3970   32.8690   40.3410 N   0  0  0  0  0  0  0  0  0  0  0  0
   36.3080   32.5430   39.7900 H   0  0  0  0  0  0  0  0  0  0  0  0
   36.1120   30.4170   40.8890 H   0  0  0  0  0  0  0  0  0  0  0  0
   40.3610   32.8490   41.0390 H   0  0  0  0  0  0  0  0  0  0  0  0
  1 20  1  0  0  0  0
  1  2  1  0  0  0  0
  2  7  1  0  0  0  0
  3  2  2  0  0  0  0
  3  8  1  0  0  0  0
  4  3  1  0  0  0  0
  5  6  1  0  0  0  0
  5  4  2  0  0  0  0
  6  1  2  0  0  0  0
  9  4  1  0  0  0  0
 10  5  1  0  0  0  0
 12 11  1  0  0  0  0
 12 13  1  0  0  0  0
 13  6  1  0  0  0  0
 14 13  2  0  0  0  0
 14 15  1  0  0  0  0
 16 14  1  0  0  0  0
 17 16  1  0  0  0  0
 18 19  1  0  0  0  0
 18 16  2  0  0  0  0
 19 12  2  0  0  0  0
 20 23  1  0  0  0  0
 20 21  1  0  0  0  0
 22 20  1  0  0  0  0
 23 25  1  0  0  0  0
 24 23  1  0  0  0  0
 26 31  2  0  0  0  0
 26 27  1  0  0  0  0
 27 28  2  0  0  0  0
 28 29  1  0  0  0  0
 28 23  1  0  0  0  0
 30 34  1  0  0  0  0
 30 29  2  0  0  0  0
 31 30  1  0  0  0  0
 32 26  1  0  0  0  0
 33 27  1  0  0  0  0
M  END
>  <minimizedAffinity>
-5.32374287

$$$$

 OpenBabel03252508223D

 34 36  0  0  0  0  0  0  0  0999 V2000
   36.1870   28.0830   41.1100 C   0  0  0  0  0  0  0  0  0  0  0  0
   35.4700   29.1750   40.6910 C   0  0  0  0  0  0  0  0  0  0  0  0
   35.0320   29.3930   39.3920 C   0  0  0  0  0  0  0  0  0  0  0  0
   35.3720   28.3970   38.4800 C   0  0  0  0  0  0  0  0  0  0  0  0
   36.0940   27.2860   38.8740 C   0  0  0  0  0  0  0  0  0  0  0  0
   36.5080   27.1040   40.1620 C   0  0  0  0  0  0  0  0  0  0  0  0
   35.2490   29.9020   41.4630 H   0  0  0  0  0  0  0  0  0  0  0  0
   34.4700   30.2750   39.1200 H   0  0  0  0  0  0  0  0  0  0  0  0
   35.0550   28.5260   37.4720 H   0  0  0  0  0  0  0  0  0  0  0  0
   36.3360   26.5290   38.1190 H   0  0  0  0  0  0  0  0  0  0  0  0
   39.2970   27.4090   39.2820 Cl  0  0  0  0  0  0  0  0  0  0  0  0
   38.5970   26.0410   40.1550 C   0  0  0  0  0  0  0  0  0  0  0  0
   37.2690   25.9240   40.5590 C   0  0  0  0  0  0  0  0  0  0  0  0
   36.8670   24.8030   41.2290 C   0  0  0  0  0  0  0  0  0  0  0  0
   35.8120   24.8270   41.4920 H   0  0  0  0  0  0  0  0  0  0  0  0
   37.7600   23.7970   41.5040 C   0  0  0  0  0  0  0  0  0  0  0  0
   37.3880   22.9370   42.0350 H   0  0  0  0  0  0  0  0  0  0  0  0
   39.0780   23.8950   41.1120 C   0  0  0  0  0  3  0  0  0  0  0  0
   39.5160   25.0270   40.4270 C   0  0  0  0  0  3  0  0  0  0  0  0
   36.6480   27.8610   42.4950 C   0  0  0  0  0  0  0  0  0  0  0  0
   37.2100   26.8820   42.4690 H   0  0  0  0  0  0  0  0  0  0  0  0
   35.8600   27.7580   43.2410 H   0  0  0  0  0  0  0  0  0  0  0  0
   37.6770   28.8970   42.9070 C   0  0  0  0  0  0  0  0  0  0  0  0
   37.4470   29.3020   43.9310 H   0  0  0  0  0  0  0  0  0  0  0  0
   37.7450   29.6880   42.1510 H   0  0  0  0  0  0  0  0  0  0  0  0
   40.4270   26.4140   43.6710 C   0  0  0  0  0  0  0  0  0  0  0  0
   39.1310   26.9920   43.6350 C   0  0  0  0  0  0  0  0  0  0  0  0
   38.9980   28.2220   42.9920 C   0  0  0  0  0  0  0  0  0  0  0  0
   40.1220   28.8010   42.4350 N   0  0  0  0  0  0  0  0  0  0  0  0
   41.3190   28.2040   42.5030 C   0  0  0  0  0  0  0  0  0  0  0  0
   41.4810   27.0130   43.1180 N   0  0  0  0  0  0  0  0  0  0  0  0
   40.3800   25.4660   44.1980 H   0  0  0  0  0  0  0  0  0  0  0  0
   38.2490   26.5620   44.0580 H   0  0  0  0  0  0  0  0  0  0  0  0
   42.2000   28.6610   42.0640 H   0  0  0  0  0  0  0  0  0  0  0  0
  1 20  1  0  0  0  0
  2  1  1  0  0  0  0
  2  7  1  0  0  0  0
  3  2  2  0  0  0  0
  4  5  2  0  0  0  0
  4  3  1  0  0  0  0
  5  6  1  0  0  0  0
  6 13  1  0  0  0  0
  6  1  2  0  0  0  0
  8  3  1  0  0  0  0
  9  4  1  0  0  0  0
 10  5  1  0  0  0  0
 11 12  1  0  0  0  0
 12 19  2  0  0  0  0
 12 13  1  0  0  0  0
 13 14  2  0  0  0  0
 14 15  1  0  0  0  0
 14 16  1  0  0  0  0
 16 17  1  0  0  0  0
 18 16  2  0  0  0  0
 19 18  1  0  0  0  0
 20 23  1  0  0  0  0
 20 22  1  0  0  0  0
 21 20  1  0  0  0  0
 23 28  1  0  0  0  0
 23 24  1  0  0  0  0
 25 23  1  0  0  0  0
 26 32  1  0  0  0  0
 27 26  1  0  0  0  0
 27 33  1  0  0  0  0
 28 27  2  0  0  0  0
 29 30  2  0  0  0  0
 29 28  1  0  0  0  0
 30 31  1  0  0  0  0
 31 26  2  0  0  0  0
 34 30  1  0  0  0  0
M  END
>  <minimizedAffinity>
-5.30099869

$$$$
