REMARK  Name = 
REMARK  4 active torsions:
REMARK  status: ('A' for Active; 'I' for Inactive)
REMARK    1  A    between atoms: C_1  and  O_16
REMARK    2  A    between atoms: C_3  and  C_8
REMARK    3  A    between atoms: O_16  and  C_17
REMARK    4  A    between atoms: C_20  and  C_32
REMARK                            x       y       z     vdW  Elec       q    Type
REMARK                         _______ _______ _______ _____ _____    ______ ____
ROOT
ATOM      1  C   UNL     1      45.496  34.821  43.537  0.00  0.00    +0.000 A 
ATOM      2  C   UNL     1      46.201  33.738  44.120  0.00  0.00    +0.000 A 
ATOM      3  C   UNL     1      45.999  33.514  45.480  0.00  0.00    +0.000 A 
ATOM      4  N   UNL     1      45.172  34.309  46.157  0.00  0.00    +0.000 NA
ATOM      5  C   UNL     1      44.506  35.340  45.580  0.00  0.00    +0.000 A 
ATOM      6  N   UNL     1      44.674  35.582  44.290  0.00  0.00    +0.000 NA
ATOM      7  H   UNL     1      46.858  33.111  43.570  0.00  0.00    +0.000 HD
ATOM      8  H   UNL     1      43.849  35.953  46.169  0.00  0.00    +0.000 HD
ENDROOT
BRANCH   3  10
ATOM      9  C   UNL     1      47.003  32.697  47.539  0.00  0.00    +0.000 A 
ATOM     10  C   UNL     1      46.675  32.425  46.200  0.00  0.00    +0.000 A 
ATOM     11  C   UNL     1      46.996  31.213  45.672  0.00  0.00    +0.000 A 
ATOM     12  C   UNL     1      47.633  30.236  46.401  0.00  0.00    +0.000 A 
ATOM     13  N   UNL     1      48.042  28.985  46.090  0.00  0.00    +0.000 N 
ATOM     14  C   UNL     1      48.629  28.463  47.229  0.00  0.00    +0.000 A 
ATOM     15  N   UNL     1      48.568  29.395  48.205  0.00  0.00    +0.000 NA
ATOM     16  C   UNL     1      47.964  30.476  47.711  0.00  0.00    +0.000 A 
ATOM     17  C   UNL     1      47.648  31.709  48.282  0.00  0.00    +0.000 A 
ATOM     18  H   UNL     1      46.784  33.633  48.036  0.00  0.00    +0.000 HD
ATOM     19  H   UNL     1      46.731  31.032  44.639  0.00  0.00    +0.000 HD
ATOM     20  H   UNL     1      47.928  28.511  45.149  0.00  0.00    +0.000 HD
ATOM     21  H   UNL     1      49.046  27.453  47.240  0.00  0.00    +0.000 HD
ATOM     22  H   UNL     1      47.929  31.853  49.318  0.00  0.00    +0.000 HD
ENDBRANCH   3  10
BRANCH   1  23
ATOM     23  O   UNL     1      45.697  35.048  42.170  0.00  0.00    +0.000 OA
BRANCH  23  24
ATOM     24  C   UNL     1      44.632  34.916  41.289  0.00  0.00    +0.000 A 
ATOM     25  C   UNL     1      44.999  33.805  40.613  0.00  0.00    +0.000 A 
ATOM     26  S   UNL     1      43.545  33.614  39.405  0.00  0.00    +0.000 S 
ATOM     27  C   UNL     1      42.747  35.146  40.126  0.00  0.00    +0.000 A 
ATOM     28  N   UNL     1      43.489  35.420  40.892  0.00  0.00    +0.000 NA
ATOM     29  H   UNL     1      45.676  32.878  40.315  0.00  0.00    +0.000 HD
BRANCH  27  32
ATOM     30 CL   UNL     1      42.745  37.594  38.289  0.00  0.00    +0.000 Cl
ATOM     31  C   UNL     1      41.328  36.670  38.741  0.00  0.00    +0.000 A 
ATOM     32  C   UNL     1      41.440  35.596  39.566  0.00  0.00    +0.000 A 
ATOM     33  C   UNL     1      40.404  34.821  39.971  0.00  0.00    +0.000 A 
ATOM     34  H   UNL     1      40.490  33.966  40.627  0.00  0.00    +0.000 HD
ATOM     35  C   UNL     1      39.139  35.178  39.487  0.00  0.00    +0.000 A 
ATOM     36  H   UNL     1      38.273  34.592  39.779  0.00  0.00    +0.000 HD
ATOM     37  C   UNL     1      39.017  36.266  38.650  0.00  0.00    +0.000 A 
ATOM     38  C   UNL     1      40.090  37.037  38.254  0.00  0.00    +0.000 A 
ENDBRANCH  27  32
ENDBRANCH  23  24
ENDBRANCH   1  23
TORSDOF 4
