
     RDKit          3D

 33 36  0  0  0  0  0  0  0  0999 V2000
   47.2271   31.3736   45.0930 C   0  0  0  0  0  0  0  0  0  0  0  0
   46.8804   32.7173   45.1037 C   0  0  0  0  0  0  0  0  0  0  0  0
   46.2766   33.3186   46.1896 C   0  0  0  0  0  0  0  0  0  0  0  0
   45.9963   32.5658   47.3271 C   0  0  0  0  0  0  0  0  0  0  0  0
   45.4305   32.8102   48.5419 N   0  0  0  0  0  0  0  0  0  0  0  0
   45.4298   31.6534   49.2537 C   0  0  0  0  0  0  0  0  0  0  0  0
   45.9965   30.7064   48.4681 N   0  0  0  0  0  0  0  0  0  0  0  0
   46.3566   31.2250   47.2816 C   0  0  0  0  0  0  0  0  0  0  0  0
   46.9561   30.5996   46.2210 C   0  0  0  0  0  0  0  0  0  0  0  0
   46.5248   35.2050   42.4232 C   0  0  0  0  0  0  0  0  0  0  0  0
   47.7087   35.0499   41.7047 C   0  0  0  0  0  0  0  0  0  0  0  0
   48.6404   34.0845   42.1413 C   0  0  0  0  0  0  0  0  0  0  0  0
   48.2987   33.3686   43.2528 N   0  0  0  0  0  0  0  0  0  0  0  0
   47.1579   33.5287   43.9323 C   0  0  0  0  0  0  0  0  0  0  0  0
   46.2845   34.4454   43.5090 N   0  0  0  0  0  0  0  0  0  0  0  0
   47.6943   30.9057   44.2552 H   0  0  0  0  0  0  0  0  0  0  0  0
   45.0830   33.7474   48.8057 H   0  0  0  0  0  0  0  0  0  0  0  0
   45.0208   31.6406   50.2468 H   0  0  0  0  0  0  0  0  0  0  0  0
   47.2060   29.5484   46.2638 H   0  0  0  0  0  0  0  0  0  0  0  0
   45.8611   35.9627   42.0285 H   0  0  0  0  0  0  0  0  0  0  0  0
   48.0375   35.5813   40.8229 H   0  0  0  0  0  0  0  0  0  0  0  0
   49.5783   33.9149   41.6274 H   0  0  0  0  0  0  0  0  0  0  0  0
   48.0253   35.3217   44.6849 Cl  0  0  0  0  0  0  0  0  0  0  0  0
   46.5919   35.7446   45.6291 C   0  0  0  0  0  0  0  0  0  0  0  0
   45.8919   34.7117   46.2628 C   0  0  0  0  0  0  0  0  0  0  0  0
   44.7729   35.0609   46.9984 C   0  0  0  0  0  0  0  0  0  0  0  0
   44.1588   34.3213   47.5325 H   0  0  0  0  0  0  0  0  0  0  0  0
   44.3572   36.3738   47.1072 C   0  0  0  0  0  0  0  0  0  0  0  0
   43.4670   36.6430   47.6934 H   0  0  0  0  0  0  0  0  0  0  0  0
   45.0554   37.4015   46.4753 C   0  0  0  0  0  0  0  0  0  0  0  0
   46.1856   37.0532   45.7319 C   0  0  0  0  0  0  0  0  0  0  0  0
   44.6909   38.4141   46.5903 H   0  0  0  0  0  0  0  0  0  0  0  0
   46.7183   37.8627   45.2457 H   0  0  0  0  0  0  0  0  0  0  0  0
  1  2  2  0
  1  9  1  0
  2  3  1  0
  3  4  2  0
  4  5  1  0
  5  6  1  0
  7  6  2  0
  8  4  1  0
  8  7  1  0
  9  8  2  0
 10 15  2  0
 11 12  2  0
 11 10  1  0
 12 13  1  0
 13 14  2  0
 14  2  1  0
 15 14  1  0
  1 16  1  0
  5 17  1  0
  6 18  1  0
  9 19  1  0
 10 20  1  0
 11 21  1  0
 12 22  1  0
 23 24  1  0
 24 25  2  0
 25 26  1  0
 26 27  1  0
 26 28  2  0
 28 29  1  0
 28 30  1  0
 30 31  2  0
 31 24  1  0
 30 32  1  0
 31 33  1  0
  3 25  1  0
M  ISO  8  16  14  17   9  18  14  19  14  20  14  21  14  22  14  27  15
M  ISO  1  29  16
M  END
>  <DihAtoms>  (1) 
1,2,24,23

>  <DihDeg>  (1) 
-62.691752337191964

$$$$
