REMARK  Name = 
REMARK  2 active torsions:
REMARK  status: ('A' for Active; 'I' for Inactive)
REMARK    1  A    between atoms: C_5  and  C_7
REMARK    2  A    between atoms: C_10  and  C_19
REMARK                            x       y       z     vdW  Elec       q    Type
REMARK                         _______ _______ _______ _____ _____    ______ ____
ROOT
ATOM      1  C   UNL     1      45.870  32.930  46.699  0.00  0.00    +0.000 A 
ATOM      2  C   UNL     1      45.145  32.794  47.914  0.00  0.00    +0.000 A 
ATOM      3  C   UNL     1      45.523  31.833  48.784  0.00  0.00    +0.000 A 
ATOM      4  C   UNL     1      46.611  30.986  48.489  0.00  0.00    +0.000 A 
ATOM      5  S   UNL     1      47.101  31.631  46.861  0.00  0.00    +0.000 S 
ATOM      6  H   UNL     1      44.306  33.486  48.086  0.00  0.00    +0.000 HD
ATOM      7  H   UNL     1      44.981  31.723  49.706  0.00  0.00    +0.000 HD
ENDROOT
BRANCH   1  12
ATOM      8  C   UNL     1      44.566  35.786  44.713  0.00  0.00    +0.000 A 
ATOM      9  C   UNL     1      45.275  35.575  43.503  0.00  0.00    +0.000 A 
ATOM     10  C   UNL     1      46.153  34.476  43.437  0.00  0.00    +0.000 A 
ATOM     11  N   UNL     1      46.274  33.674  44.541  0.00  0.00    +0.000 NA
ATOM     12  C   UNL     1      45.573  33.921  45.670  0.00  0.00    +0.000 A 
ATOM     13  N   UNL     1      44.721  34.974  45.756  0.00  0.00    +0.000 NA
ATOM     14  H   UNL     1      43.886  36.621  44.790  0.00  0.00    +0.000 HD
ATOM     15  H   UNL     1      45.142  36.246  42.650  0.00  0.00    +0.000 HD
ATOM     16  H   UNL     1      46.711  34.279  42.538  0.00  0.00    +0.000 HD
ENDBRANCH   1  12
BRANCH   4  19
ATOM     17 CL   UNL     1      45.679  28.104  47.990  0.00  0.00    +0.000 Cl
ATOM     18  C   UNL     1      47.008  28.589  49.011  0.00  0.00    +0.000 A 
ATOM     19  C   UNL     1      47.261  29.939  49.099  0.00  0.00    +0.000 A 
ATOM     20  C   UNL     1      48.347  30.195  49.945  0.00  0.00    +0.000 A 
ATOM     21  H   UNL     1      48.704  31.213  50.144  0.00  0.00    +0.000 HD
ATOM     22  C   UNL     1      49.070  29.230  50.606  0.00  0.00    +0.000 A 
ATOM     23  H   UNL     1      49.901  29.471  51.250  0.00  0.00    +0.000 HD
ATOM     24  C   UNL     1      48.716  27.913  50.435  0.00  0.00    +0.000 A 
ATOM     25  C   UNL     1      47.664  27.546  49.625  0.00  0.00    +0.000 A 
ENDBRANCH   4  19
TORSDOF 2
