
 OpenBabel03252502033D

 34 37  0  0  0  0  0  0  0  0999 V2000
   37.1100   32.3410   39.8520 C   0  0  0  0  0  0  0  0  0  0  0  0
   36.8720   31.2130   40.6490 C   0  0  0  0  0  0  0  0  0  0  0  0
   37.8780   30.2970   40.7440 C   0  0  0  0  0  0  0  0  0  0  0  0
   39.0390   30.5060   40.0830 N   0  0  0  0  0  0  0  0  0  0  0  0
   39.2590   31.5840   39.3260 C   0  0  0  0  0  0  0  0  0  0  0  0
   38.2790   32.4690   39.2380 N   0  0  0  0  0  0  0  0  0  0  0  0
   36.2980   33.0610   39.7890 H   0  0  0  0  0  0  0  0  0  0  0  0
   40.4300   31.9930   38.5430 C   0  0  0  0  0  0  0  0  0  0  0  0
   40.9360   33.2460   38.5190 N   0  0  0  0  0  0  0  0  0  0  0  0
   41.9840   33.6520   37.8310 C   0  0  0  0  0  0  0  0  0  0  0  0
   42.6570   32.7550   37.0550 N   0  0  0  0  0  0  0  0  0  0  0  0
   42.2610   31.4730   36.9870 C   0  0  0  0  0  0  0  0  0  0  0  0
   42.9550   30.5800   36.1960 C   0  0  0  0  0  0  0  0  0  0  0  0
   42.5620   29.2710   36.1190 C   0  0  0  0  0  0  0  0  0  0  0  0
   41.4570   28.8830   36.8550 C   0  0  0  0  0  0  0  0  0  0  0  0
   40.8010   29.8120   37.6270 C   0  0  0  0  0  0  0  0  0  0  0  0
   41.1540   31.1380   37.7390 C   0  0  0  0  0  0  0  0  0  0  0  0
   42.2830   34.6900   37.9050 H   0  0  0  0  0  0  0  0  0  0  0  0
   43.8150   30.9570   35.6440 H   0  0  0  0  0  0  0  0  0  0  0  0
   43.1590   28.6390   35.4780 H   0  0  0  0  0  0  0  0  0  0  0  0
   41.1550   27.8470   36.7880 H   0  0  0  0  0  0  0  0  0  0  0  0
   39.9330   29.4600   38.1920 H   0  0  0  0  0  0  0  0  0  0  0  0
   36.7660   27.9020   39.2560 Cl  0  0  0  0  0  0  0  0  0  0  0  0
   37.3350   27.9200   40.9330 C   0  0  0  0  0  0  0  0  0  0  0  0
   37.8250   29.0700   41.5150 C   0  0  0  0  0  0  0  0  0  0  0  0
   38.2020   28.8470   42.8070 C   0  0  0  0  0  0  0  0  0  0  0  0
   38.5980   29.6830   43.3490 H   0  0  0  0  0  0  0  0  0  0  0  0
   38.1360   27.6650   43.5060 C   0  0  0  0  0  0  0  0  0  0  0  0
   38.4560   27.5920   44.5150 H   0  0  0  0  0  0  0  0  0  0  0  0
   37.6350   26.5630   42.8570 C   0  0  0  0  0  3  0  0  0  0  0  0
   37.2350   26.6950   41.5660 C   0  0  0  0  0  3  0  0  0  0  0  0
   35.6450   31.0780   41.3090 N   0  0  0  0  0  0  0  0  0  0  0  0
   35.0720   30.5730   40.5840 H   0  0  0  0  0  0  0  0  0  0  0  0
   35.9150   31.5550   42.2150 H   0  0  0  0  0  0  0  0  0  0  0  0
  1  2  1  0  0  0  0
  2  3  2  0  0  0  0
  2 32  1  0  0  0  0
  3 25  1  0  0  0  0
  4  3  1  0  0  0  0
  5  4  2  0  0  0  0
  6  5  1  0  0  0  0
  6  1  2  0  0  0  0
  7  1  1  0  0  0  0
  8  5  1  0  0  0  0
  9  8  1  0  0  0  0
 10 18  1  0  0  0  0
 10  9  2  0  0  0  0
 11 10  1  0  0  0  0
 12 11  2  0  0  0  0
 12 17  1  0  0  0  0
 13 12  1  0  0  0  0
 14 13  2  0  0  0  0
 14 15  1  0  0  0  0
 15 16  2  0  0  0  0
 16 17  1  0  0  0  0
 16 22  1  0  0  0  0
 17  8  2  0  0  0  0
 19 13  1  0  0  0  0
 20 14  1  0  0  0  0
 21 15  1  0  0  0  0
 23 24  1  0  0  0  0
 24 25  2  0  0  0  0
 24 31  1  0  0  0  0
 25 26  1  0  0  0  0
 26 27  1  0  0  0  0
 26 28  2  0  0  0  0
 28 29  1  0  0  0  0
 30 28  1  0  0  0  0
 31 30  2  0  0  0  0
 32 34  1  0  0  0  0
 33 32  1  0  0  0  0
M  END
>  <minimizedAffinity>
-6.80975199

$$$$

 OpenBabel03252502033D

 34 37  0  0  0  0  0  0  0  0999 V2000
   37.2660   32.3510   39.9360 C   0  0  0  0  0  0  0  0  0  0  0  0
   36.9440   31.2300   40.7130 C   0  0  0  0  0  0  0  0  0  0  0  0
   37.9170   30.2890   40.8790 C   0  0  0  0  0  0  0  0  0  0  0  0
   39.1270   30.4670   40.3020 N   0  0  0  0  0  0  0  0  0  0  0  0
   39.4280   31.5390   39.5640 C   0  0  0  0  0  0  0  0  0  0  0  0
   38.4790   32.4490   39.4060 N   0  0  0  0  0  0  0  0  0  0  0  0
   36.4780   33.0910   39.8160 H   0  0  0  0  0  0  0  0  0  0  0  0
   40.6610   31.9180   38.8670 C   0  0  0  0  0  0  0  0  0  0  0  0
   40.9160   31.6600   37.5650 N   0  0  0  0  0  0  0  0  0  0  0  0
   42.0090   31.9850   36.9040 C   0  0  0  0  0  0  0  0  0  0  0  0
   43.0070   32.6480   37.5560 N   0  0  0  0  0  0  0  0  0  0  0  0
   42.8840   32.9680   38.8550 C   0  0  0  0  0  0  0  0  0  0  0  0
   43.9040   33.6400   39.4980 C   0  0  0  0  0  0  0  0  0  0  0  0
   43.7910   33.9720   40.8200 C   0  0  0  0  0  0  0  0  0  0  0  0
   42.6290   33.6140   41.4800 C   0  0  0  0  0  0  0  0  0  0  0  0
   41.6420   32.9460   40.7940 C   0  0  0  0  0  0  0  0  0  0  0  0
   41.7070   32.5880   39.4660 C   0  0  0  0  0  0  0  0  0  0  0  0
   42.0830   31.7170   35.8580 H   0  0  0  0  0  0  0  0  0  0  0  0
   44.7900   33.8890   38.9150 H   0  0  0  0  0  0  0  0  0  0  0  0
   44.6330   34.4960   41.2470 H   0  0  0  0  0  0  0  0  0  0  0  0
   42.5480   33.8820   42.5250 H   0  0  0  0  0  0  0  0  0  0  0  0
   40.7420   32.6840   41.3550 H   0  0  0  0  0  0  0  0  0  0  0  0
   36.8780   27.9140   39.3090 Cl  0  0  0  0  0  0  0  0  0  0  0  0
   37.3130   27.9230   41.0250 C   0  0  0  0  0  0  0  0  0  0  0  0
   37.7790   29.0650   41.6430 C   0  0  0  0  0  0  0  0  0  0  0  0
   38.0490   28.8360   42.9620 C   0  0  0  0  0  0  0  0  0  0  0  0
   38.4170   29.6650   43.5330 H   0  0  0  0  0  0  0  0  0  0  0  0
   37.9030   27.6570   43.6530 C   0  0  0  0  0  0  0  0  0  0  0  0
   38.1420   27.5790   44.6840 H   0  0  0  0  0  0  0  0  0  0  0  0
   37.4330   26.5640   42.9670 C   0  0  0  0  0  3  0  0  0  0  0  0
   37.1390   26.7020   41.6490 C   0  0  0  0  0  3  0  0  0  0  0  0
   35.6700   31.1260   41.2850 N   0  0  0  0  0  0  0  0  0  0  0  0
   35.1370   30.6350   40.5200 H   0  0  0  0  0  0  0  0  0  0  0  0
   35.8870   31.5970   42.2080 H   0  0  0  0  0  0  0  0  0  0  0  0
  1  2  1  0  0  0  0
  2  3  2  0  0  0  0
  2 32  1  0  0  0  0
  3 25  1  0  0  0  0
  4  3  1  0  0  0  0
  5  4  2  0  0  0  0
  6  5  1  0  0  0  0
  6  1  2  0  0  0  0
  7  1  1  0  0  0  0
  8 17  1  0  0  0  0
  8  5  1  0  0  0  0
  9  8  2  0  0  0  0
 10 11  2  0  0  0  0
 10  9  1  0  0  0  0
 11 12  1  0  0  0  0
 12 17  2  0  0  0  0
 12 13  1  0  0  0  0
 13 14  2  0  0  0  0
 14 20  1  0  0  0  0
 14 15  1  0  0  0  0
 15 21  1  0  0  0  0
 16 22  1  0  0  0  0
 16 15  2  0  0  0  0
 17 16  1  0  0  0  0
 18 10  1  0  0  0  0
 19 13  1  0  0  0  0
 23 24  1  0  0  0  0
 24 25  2  0  0  0  0
 24 31  1  0  0  0  0
 25 26  1  0  0  0  0
 26 27  1  0  0  0  0
 26 28  2  0  0  0  0
 28 29  1  0  0  0  0
 30 28  1  0  0  0  0
 31 30  2  0  0  0  0
 32 34  1  0  0  0  0
 33 32  1  0  0  0  0
M  END
>  <minimizedAffinity>
-6.48202133

$$$$

 OpenBabel03252502033D

 34 37  0  0  0  0  0  0  0  0999 V2000
   37.5180   32.6270   40.1580 C   0  0  0  0  0  0  0  0  0  0  0  0
   37.1440   31.4290   40.7820 C   0  0  0  0  0  0  0  0  0  0  0  0
   38.1430   30.5620   41.1110 C   0  0  0  0  0  0  0  0  0  0  0  0
   39.4260   30.8810   40.8320 N   0  0  0  0  0  0  0  0  0  0  0  0
   39.7770   32.0250   40.2380 C   0  0  0  0  0  0  0  0  0  0  0  0
   38.8030   32.8630   39.9210 N   0  0  0  0  0  0  0  0  0  0  0  0
   36.7090   33.3070   39.9040 H   0  0  0  0  0  0  0  0  0  0  0  0
   41.0910   32.5540   39.8580 C   0  0  0  0  0  0  0  0  0  0  0  0
   41.7380   33.5420   40.5140 N   0  0  0  0  0  0  0  0  0  0  0  0
   42.9170   34.0430   40.2050 C   0  0  0  0  0  0  0  0  0  0  0  0
   43.5880   33.5470   39.1250 N   0  0  0  0  0  0  0  0  0  0  0  0
   43.0580   32.5600   38.3830 C   0  0  0  0  0  0  0  0  0  0  0  0
   43.7510   32.0700   37.2950 C   0  0  0  0  0  0  0  0  0  0  0  0
   43.2230   31.0650   36.5310 C   0  0  0  0  0  0  0  0  0  0  0  0
   41.9840   30.5650   36.8870 C   0  0  0  0  0  0  0  0  0  0  0  0
   41.3340   31.0880   37.9800 C   0  0  0  0  0  0  0  0  0  0  0  0
   41.8210   32.0980   38.7800 C   0  0  0  0  0  0  0  0  0  0  0  0
   43.3220   34.8370   40.8200 H   0  0  0  0  0  0  0  0  0  0  0  0
   44.7220   32.5130   37.0750 H   0  0  0  0  0  0  0  0  0  0  0  0
   43.8300   30.7390   35.6990 H   0  0  0  0  0  0  0  0  0  0  0  0
   41.5750   29.7700   36.2790 H   0  0  0  0  0  0  0  0  0  0  0  0
   40.3580   30.6620   38.2250 H   0  0  0  0  0  0  0  0  0  0  0  0
   37.7980   28.2180   39.2200 Cl  0  0  0  0  0  0  0  0  0  0  0  0
   37.7920   28.1440   40.9890 C   0  0  0  0  0  0  0  0  0  0  0  0
   37.9590   29.2770   41.7570 C   0  0  0  0  0  0  0  0  0  0  0  0
   37.9190   28.9790   43.0890 C   0  0  0  0  0  0  0  0  0  0  0  0
   38.0390   29.7960   43.7730 H   0  0  0  0  0  0  0  0  0  0  0  0
   37.7410   27.7450   43.6660 C   0  0  0  0  0  0  0  0  0  0  0  0
   37.7250   27.6150   44.7180 H   0  0  0  0  0  0  0  0  0  0  0  0
   37.5820   26.6640   42.8330 C   0  0  0  0  0  3  0  0  0  0  0  0
   37.6080   26.8690   41.4910 C   0  0  0  0  0  3  0  0  0  0  0  0
   35.7910   31.1790   41.0450 N   0  0  0  0  0  0  0  0  0  0  0  0
   35.4890   30.7040   40.1550 H   0  0  0  0  0  0  0  0  0  0  0  0
   35.7540   31.5970   42.0180 H   0  0  0  0  0  0  0  0  0  0  0  0
  1  2  1  0  0  0  0
  2 32  1  0  0  0  0
  2  3  2  0  0  0  0
  3 25  1  0  0  0  0
  4  3  1  0  0  0  0
  5  4  2  0  0  0  0
  6  1  2  0  0  0  0
  6  5  1  0  0  0  0
  7  1  1  0  0  0  0
  8  5  1  0  0  0  0
  8  9  1  0  0  0  0
 10  9  2  0  0  0  0
 10 18  1  0  0  0  0
 11 10  1  0  0  0  0
 12 17  1  0  0  0  0
 12 11  2  0  0  0  0
 13 12  1  0  0  0  0
 14 15  1  0  0  0  0
 14 13  2  0  0  0  0
 15 16  2  0  0  0  0
 16 22  1  0  0  0  0
 16 17  1  0  0  0  0
 17  8  2  0  0  0  0
 19 13  1  0  0  0  0
 20 14  1  0  0  0  0
 21 15  1  0  0  0  0
 23 24  1  0  0  0  0
 24 31  2  0  0  0  0
 24 25  1  0  0  0  0
 25 26  2  0  0  0  0
 26 28  1  0  0  0  0
 26 27  1  0  0  0  0
 28 29  1  0  0  0  0
 30 28  2  0  0  0  0
 31 30  1  0  0  0  0
 32 34  1  0  0  0  0
 33 32  1  0  0  0  0
M  END
>  <minimizedAffinity>
-6.37350178

$$$$

 OpenBabel03252502033D

 34 37  0  0  0  0  0  0  0  0999 V2000
   36.6010   30.5360   41.4940 C   0  0  0  0  0  0  0  0  0  0  0  0
   37.3670   31.4120   40.7130 C   0  0  0  0  0  0  0  0  0  0  0  0
   38.6280   31.0100   40.3850 C   0  0  0  0  0  0  0  0  0  0  0  0
   39.0830   29.8110   40.8150 N   0  0  0  0  0  0  0  0  0  0  0  0
   38.3470   28.9810   41.5580 C   0  0  0  0  0  0  0  0  0  0  0  0
   37.1230   29.3760   41.8730 N   0  0  0  0  0  0  0  0  0  0  0  0
   35.5980   30.8730   41.7440 H   0  0  0  0  0  0  0  0  0  0  0  0
   38.6460   27.6570   42.1130 C   0  0  0  0  0  0  0  0  0  0  0  0
   39.4830   27.4320   43.1500 N   0  0  0  0  0  0  0  0  0  0  0  0
   39.7760   26.2590   43.6770 C   0  0  0  0  0  0  0  0  0  0  0  0
   39.2020   25.1360   43.1580 N   0  0  0  0  0  0  0  0  0  0  0  0
   38.3490   25.2160   42.1230 C   0  0  0  0  0  0  0  0  0  0  0  0
   37.7780   24.0680   41.6120 C   0  0  0  0  0  0  0  0  0  0  0  0
   36.9070   24.1360   40.5590 C   0  0  0  0  0  0  0  0  0  0  0  0
   36.6240   25.3840   40.0330 C   0  0  0  0  0  0  0  0  0  0  0  0
   37.2200   26.4970   40.5790 C   0  0  0  0  0  0  0  0  0  0  0  0
   38.1020   26.4820   41.6360 C   0  0  0  0  0  0  0  0  0  0  0  0
   40.4650   26.2230   44.5110 H   0  0  0  0  0  0  0  0  0  0  0  0
   38.0480   23.1210   42.0770 H   0  0  0  0  0  0  0  0  0  0  0  0
   36.5050   23.1930   40.2210 H   0  0  0  0  0  0  0  0  0  0  0  0
   35.9350   25.4280   39.2020 H   0  0  0  0  0  0  0  0  0  0  0  0
   36.9670   27.4610   40.1320 H   0  0  0  0  0  0  0  0  0  0  0  0
   38.6430   30.3350   37.4310 Cl  0  0  0  0  0  0  0  0  0  0  0  0
   39.6600   31.5430   38.2320 C   0  0  0  0  0  0  0  0  0  0  0  0
   39.5710   31.7710   39.5890 C   0  0  0  0  0  0  0  0  0  0  0  0
   40.4470   32.7420   39.9830 C   0  0  0  0  0  0  0  0  0  0  0  0
   40.4560   32.9940   41.0250 H   0  0  0  0  0  0  0  0  0  0  0  0
   41.3290   33.4430   39.1960 C   0  0  0  0  0  0  0  0  0  0  0  0
   41.9730   34.1830   39.5990 H   0  0  0  0  0  0  0  0  0  0  0  0
   41.3580   33.1570   37.8530 C   0  0  0  0  0  3  0  0  0  0  0  0
   40.5190   32.2030   37.3730 C   0  0  0  0  0  3  0  0  0  0  0  0
   36.8190   32.6320   40.3000 N   0  0  0  0  0  0  0  0  0  0  0  0
   37.0820   33.2620   41.1010 H   0  0  0  0  0  0  0  0  0  0  0  0
   36.4120   32.3030   39.3790 H   0  0  0  0  0  0  0  0  0  0  0  0
  1  7  1  0  0  0  0
  1  6  1  0  0  0  0
  2  1  2  0  0  0  0
  3  2  1  0  0  0  0
  3  4  2  0  0  0  0
  4  5  1  0  0  0  0
  5  6  2  0  0  0  0
  5  8  1  0  0  0  0
  8  9  1  0  0  0  0
  9 10  2  0  0  0  0
 10 18  1  0  0  0  0
 11 10  1  0  0  0  0
 12 11  2  0  0  0  0
 13 19  1  0  0  0  0
 13 12  1  0  0  0  0
 14 13  2  0  0  0  0
 15 14  1  0  0  0  0
 15 16  2  0  0  0  0
 16 17  1  0  0  0  0
 17  8  2  0  0  0  0
 17 12  1  0  0  0  0
 20 14  1  0  0  0  0
 21 15  1  0  0  0  0
 22 16  1  0  0  0  0
 23 24  1  0  0  0  0
 24 25  1  0  0  0  0
 25 26  2  0  0  0  0
 25  3  1  0  0  0  0
 26 27  1  0  0  0  0
 28 29  1  0  0  0  0
 28 26  1  0  0  0  0
 30 28  2  0  0  0  0
 31 30  1  0  0  0  0
 31 24  2  0  0  0  0
 32  2  1  0  0  0  0
 32 33  1  0  0  0  0
 34 32  1  0  0  0  0
M  END
>  <minimizedAffinity>
-6.36528015

$$$$

 OpenBabel03252502033D

 34 37  0  0  0  0  0  0  0  0999 V2000
   36.8460   30.1460   36.8120 C   0  0  0  0  0  0  0  0  0  0  0  0
   37.7420   31.2080   36.9910 C   0  0  0  0  0  0  0  0  0  0  0  0
   38.5930   31.1320   38.0530 C   0  0  0  0  0  0  0  0  0  0  0  0
   38.5430   30.0610   38.8760 N   0  0  0  0  0  0  0  0  0  0  0  0
   37.6870   29.0500   38.7000 C   0  0  0  0  0  0  0  0  0  0  0  0
   36.8640   29.1300   37.6670 N   0  0  0  0  0  0  0  0  0  0  0  0
   36.1770   30.2230   35.9600 H   0  0  0  0  0  0  0  0  0  0  0  0
   37.4790   27.8150   39.4630 C   0  0  0  0  0  0  0  0  0  0  0  0
   37.3590   26.5860   38.9140 N   0  0  0  0  0  0  0  0  0  0  0  0
   37.1720   25.4550   39.5650 C   0  0  0  0  0  0  0  0  0  0  0  0
   37.0870   25.4780   40.9260 N   0  0  0  0  0  0  0  0  0  0  0  0
   37.1900   26.6350   41.6010 C   0  0  0  0  0  0  0  0  0  0  0  0
   37.1020   26.6380   42.9780 C   0  0  0  0  0  0  0  0  0  0  0  0
   37.2060   27.8100   43.6770 C   0  0  0  0  0  0  0  0  0  0  0  0
   37.4010   28.9760   42.9600 C   0  0  0  0  0  0  0  0  0  0  0  0
   37.4820   28.9190   41.5880 C   0  0  0  0  0  0  0  0  0  0  0  0
   37.3830   27.7680   40.8390 C   0  0  0  0  0  0  0  0  0  0  0  0
   37.0940   24.5360   38.9970 H   0  0  0  0  0  0  0  0  0  0  0  0
   36.9470   25.6820   43.4760 H   0  0  0  0  0  0  0  0  0  0  0  0
   37.1260   27.7250   44.7510 H   0  0  0  0  0  0  0  0  0  0  0  0
   37.4830   29.8970   43.5210 H   0  0  0  0  0  0  0  0  0  0  0  0
   37.6370   29.8650   41.0630 H   0  0  0  0  0  0  0  0  0  0  0  0
   37.7580   33.0530   40.2450 Cl  0  0  0  0  0  0  0  0  0  0  0  0
   39.3100   33.0510   39.3910 C   0  0  0  0  0  0  0  0  0  0  0  0
   39.5870   32.1270   38.4050 C   0  0  0  0  0  0  0  0  0  0  0  0
   40.8370   32.3180   37.8890 C   0  0  0  0  0  0  0  0  0  0  0  0
   41.1490   31.6470   37.1130 H   0  0  0  0  0  0  0  0  0  0  0  0
   41.7540   33.2760   38.2490 C   0  0  0  0  0  0  0  0  0  0  0  0
   42.7050   33.3430   37.7860 H   0  0  0  0  0  0  0  0  0  0  0  0
   41.4020   34.1600   39.2400 C   0  0  0  0  0  3  0  0  0  0  0  0
   40.1750   34.0440   39.8100 C   0  0  0  0  0  3  0  0  0  0  0  0
   37.7370   32.2780   36.0870 N   0  0  0  0  0  0  0  0  0  0  0  0
   37.0280   32.9210   36.5270 H   0  0  0  0  0  0  0  0  0  0  0  0
   38.4560   31.8980   35.4090 H   0  0  0  0  0  0  0  0  0  0  0  0
  1  2  2  0  0  0  0
  1  6  1  0  0  0  0
  2  3  1  0  0  0  0
  3 25  1  0  0  0  0
  3  4  2  0  0  0  0
  5  4  1  0  0  0  0
  5  8  1  0  0  0  0
  6  5  2  0  0  0  0
  7  1  1  0  0  0  0
  8 17  1  0  0  0  0
  9  8  2  0  0  0  0
  9 10  1  0  0  0  0
 10 11  2  0  0  0  0
 11 12  1  0  0  0  0
 12 13  1  0  0  0  0
 13 19  1  0  0  0  0
 13 14  2  0  0  0  0
 14 20  1  0  0  0  0
 15 21  1  0  0  0  0
 15 14  1  0  0  0  0
 16 15  2  0  0  0  0
 17 16  1  0  0  0  0
 17 12  2  0  0  0  0
 18 10  1  0  0  0  0
 22 16  1  0  0  0  0
 24 31  1  0  0  0  0
 24 23  1  0  0  0  0
 25 24  2  0  0  0  0
 26 28  2  0  0  0  0
 26 25  1  0  0  0  0
 27 26  1  0  0  0  0
 28 30  1  0  0  0  0
 29 28  1  0  0  0  0
 30 31  2  0  0  0  0
 32 33  1  0  0  0  0
 32  2  1  0  0  0  0
 34 32  1  0  0  0  0
M  END
>  <minimizedAffinity>
-6.27781105

$$$$

 OpenBabel03252502033D

 34 37  0  0  0  0  0  0  0  0999 V2000
   36.2180   30.5510   40.9940 C   0  0  0  0  0  0  0  0  0  0  0  0
   37.1760   31.3880   40.4060 C   0  0  0  0  0  0  0  0  0  0  0  0
   38.3110   30.7970   39.9350 C   0  0  0  0  0  0  0  0  0  0  0  0
   38.4670   29.4590   40.0490 N   0  0  0  0  0  0  0  0  0  0  0  0
   37.5500   28.6670   40.6100 C   0  0  0  0  0  0  0  0  0  0  0  0
   36.4500   29.2460   41.0650 N   0  0  0  0  0  0  0  0  0  0  0  0
   35.3190   31.0390   41.3630 H   0  0  0  0  0  0  0  0  0  0  0  0
   37.5250   27.2160   40.8240 C   0  0  0  0  0  0  0  0  0  0  0  0
   36.7280   26.3560   40.1520 N   0  0  0  0  0  0  0  0  0  0  0  0
   36.6780   25.0490   40.3150 C   0  0  0  0  0  0  0  0  0  0  0  0
   37.4930   24.4630   41.2390 N   0  0  0  0  0  0  0  0  0  0  0  0
   38.3370   25.2020   41.9780 C   0  0  0  0  0  0  0  0  0  0  0  0
   39.1530   24.5910   42.9070 C   0  0  0  0  0  0  0  0  0  0  0  0
   40.0180   25.3330   43.6650 C   0  0  0  0  0  0  0  0  0  0  0  0
   40.0420   26.7020   43.4670 C   0  0  0  0  0  0  0  0  0  0  0  0
   39.2080   27.2610   42.5270 C   0  0  0  0  0  0  0  0  0  0  0  0
   38.3210   26.5610   41.7410 C   0  0  0  0  0  0  0  0  0  0  0  0
   35.9900   24.4760   39.7060 H   0  0  0  0  0  0  0  0  0  0  0  0
   39.0800   23.5090   43.0090 H   0  0  0  0  0  0  0  0  0  0  0  0
   40.6210   24.7780   44.3680 H   0  0  0  0  0  0  0  0  0  0  0  0
   40.7280   27.2790   44.0690 H   0  0  0  0  0  0  0  0  0  0  0  0
   39.2610   28.3460   42.4040 H   0  0  0  0  0  0  0  0  0  0  0  0
   40.4940   31.7290   41.8190 Cl  0  0  0  0  0  0  0  0  0  0  0  0
   40.4610   31.9560   40.0630 C   0  0  0  0  0  0  0  0  0  0  0  0
   39.4140   31.4900   39.2970 C   0  0  0  0  0  0  0  0  0  0  0  0
   39.6030   31.7780   37.9760 C   0  0  0  0  0  0  0  0  0  0  0  0
   38.8400   31.4560   37.2940 H   0  0  0  0  0  0  0  0  0  0  0  0
   40.6650   32.4390   37.4070 C   0  0  0  0  0  0  0  0  0  0  0  0
   40.7210   32.6160   36.3630 H   0  0  0  0  0  0  0  0  0  0  0  0
   41.6690   32.8740   38.2380 C   0  0  0  0  0  3  0  0  0  0  0  0
   41.5630   32.6290   39.5690 C   0  0  0  0  0  3  0  0  0  0  0  0
   36.9320   32.7640   40.3170 N   0  0  0  0  0  0  0  0  0  0  0  0
   37.3280   33.1060   41.2320 H   0  0  0  0  0  0  0  0  0  0  0  0
   36.4690   32.7670   39.3650 H   0  0  0  0  0  0  0  0  0  0  0  0
  1  6  1  0  0  0  0
  1  7  1  0  0  0  0
  2  1  2  0  0  0  0
  3  4  2  0  0  0  0
  3  2  1  0  0  0  0
  4  5  1  0  0  0  0
  5  8  1  0  0  0  0
  5  6  2  0  0  0  0
  8 17  1  0  0  0  0
  9 10  1  0  0  0  0
  9  8  2  0  0  0  0
 10 11  2  0  0  0  0
 11 12  1  0  0  0  0
 12 13  1  0  0  0  0
 13 19  1  0  0  0  0
 13 14  2  0  0  0  0
 14 20  1  0  0  0  0
 15 14  1  0  0  0  0
 15 21  1  0  0  0  0
 16 15  2  0  0  0  0
 17 12  2  0  0  0  0
 17 16  1  0  0  0  0
 18 10  1  0  0  0  0
 22 16  1  0  0  0  0
 24 23  1  0  0  0  0
 25  3  1  0  0  0  0
 25 24  2  0  0  0  0
 26 25  1  0  0  0  0
 27 26  1  0  0  0  0
 28 26  2  0  0  0  0
 28 30  1  0  0  0  0
 29 28  1  0  0  0  0
 30 31  2  0  0  0  0
 31 24  1  0  0  0  0
 32  2  1  0  0  0  0
 32 33  1  0  0  0  0
 34 32  1  0  0  0  0
M  END
>  <minimizedAffinity>
-6.22364044

$$$$

 OpenBabel03252502033D

 34 37  0  0  0  0  0  0  0  0999 V2000
   36.9210   31.5230   40.6750 C   0  0  0  0  0  0  0  0  0  0  0  0
   36.5310   30.1790   40.7510 C   0  0  0  0  0  0  0  0  0  0  0  0
   37.5230   29.2490   40.8560 C   0  0  0  0  0  0  0  0  0  0  0  0
   38.8150   29.6480   40.8820 N   0  0  0  0  0  0  0  0  0  0  0  0
   39.1800   30.9310   40.8100 C   0  0  0  0  0  0  0  0  0  0  0  0
   38.2120   31.8290   40.7090 N   0  0  0  0  0  0  0  0  0  0  0  0
   36.1160   32.2490   40.5930 H   0  0  0  0  0  0  0  0  0  0  0  0
   40.5030   31.5630   40.8260 C   0  0  0  0  0  0  0  0  0  0  0  0
   41.2540   31.7400   41.9360 N   0  0  0  0  0  0  0  0  0  0  0  0
   42.4460   32.3010   41.9900 C   0  0  0  0  0  0  0  0  0  0  0  0
   43.0160   32.7620   40.8400 N   0  0  0  0  0  0  0  0  0  0  0  0
   42.3770   32.6500   39.6640 C   0  0  0  0  0  0  0  0  0  0  0  0
   42.9710   33.1210   38.5110 C   0  0  0  0  0  0  0  0  0  0  0  0
   42.3310   33.0120   37.3060 C   0  0  0  0  0  0  0  0  0  0  0  0
   41.0820   32.4170   37.2890 C   0  0  0  0  0  0  0  0  0  0  0  0
   40.5350   31.9640   38.4650 C   0  0  0  0  0  0  0  0  0  0  0  0
   41.1360   32.0500   39.7010 C   0  0  0  0  0  0  0  0  0  0  0  0
   42.9400   32.3790   42.9510 H   0  0  0  0  0  0  0  0  0  0  0  0
   43.9560   33.5780   38.6010 H   0  0  0  0  0  0  0  0  0  0  0  0
   42.8650   33.4060   36.4540 H   0  0  0  0  0  0  0  0  0  0  0  0
   40.5850   32.3350   36.3320 H   0  0  0  0  0  0  0  0  0  0  0  0
   39.5470   31.5010   38.4040 H   0  0  0  0  0  0  0  0  0  0  0  0
   37.3990   28.1520   43.6780 Cl  0  0  0  0  0  0  0  0  0  0  0  0
   37.2530   27.2130   42.1840 C   0  0  0  0  0  0  0  0  0  0  0  0
   37.3240   27.8160   40.9460 C   0  0  0  0  0  0  0  0  0  0  0  0
   37.1880   26.9000   39.9430 C   0  0  0  0  0  0  0  0  0  0  0  0
   37.2290   27.2700   38.9370 H   0  0  0  0  0  0  0  0  0  0  0  0
   37.0010   25.5440   40.0680 C   0  0  0  0  0  0  0  0  0  0  0  0
   36.9040   24.9120   39.2220 H   0  0  0  0  0  0  0  0  0  0  0  0
   36.9410   25.0190   41.3350 C   0  0  0  0  0  3  0  0  0  0  0  0
   37.0680   25.8590   42.3940 C   0  0  0  0  0  3  0  0  0  0  0  0
   35.1700   29.8490   40.7270 N   0  0  0  0  0  0  0  0  0  0  0  0
   34.9980   29.7460   39.6930 H   0  0  0  0  0  0  0  0  0  0  0  0
   34.9990   29.8700   41.7730 H   0  0  0  0  0  0  0  0  0  0  0  0
  1  6  2  0  0  0  0
  1  2  1  0  0  0  0
  2  3  2  0  0  0  0
  3  4  1  0  0  0  0
  3 25  1  0  0  0  0
  5  8  1  0  0  0  0
  5  4  2  0  0  0  0
  6  5  1  0  0  0  0
  7  1  1  0  0  0  0
  8  9  1  0  0  0  0
  9 10  2  0  0  0  0
 10 18  1  0  0  0  0
 11 10  1  0  0  0  0
 12 17  1  0  0  0  0
 12 11  2  0  0  0  0
 13 19  1  0  0  0  0
 13 12  1  0  0  0  0
 14 13  2  0  0  0  0
 15 14  1  0  0  0  0
 15 16  2  0  0  0  0
 16 17  1  0  0  0  0
 17  8  2  0  0  0  0
 20 14  1  0  0  0  0
 21 15  1  0  0  0  0
 22 16  1  0  0  0  0
 24 31  1  0  0  0  0
 24 23  1  0  0  0  0
 25 24  2  0  0  0  0
 26 28  2  0  0  0  0
 26 25  1  0  0  0  0
 27 26  1  0  0  0  0
 28 30  1  0  0  0  0
 29 28  1  0  0  0  0
 30 31  2  0  0  0  0
 32  2  1  0  0  0  0
 32 34  1  0  0  0  0
 33 32  1  0  0  0  0
M  END
>  <minimizedAffinity>
-6.16214514

$$$$

 OpenBabel03252502033D

 34 37  0  0  0  0  0  0  0  0999 V2000
   37.0290   30.9890   38.3910 C   0  0  0  0  0  0  0  0  0  0  0  0
   38.2260   31.2230   37.7000 C   0  0  0  0  0  0  0  0  0  0  0  0
   39.3560   30.6510   38.2050 C   0  0  0  0  0  0  0  0  0  0  0  0
   39.2830   29.8980   39.3250 N   0  0  0  0  0  0  0  0  0  0  0  0
   38.1390   29.6780   39.9790 C   0  0  0  0  0  0  0  0  0  0  0  0
   37.0450   30.2350   39.4830 N   0  0  0  0  0  0  0  0  0  0  0  0
   36.1380   31.4510   37.9730 H   0  0  0  0  0  0  0  0  0  0  0  0
   37.8500   28.9010   41.1880 C   0  0  0  0  0  0  0  0  0  0  0  0
   37.8360   29.4080   42.4400 N   0  0  0  0  0  0  0  0  0  0  0  0
   37.5800   28.7440   43.5500 C   0  0  0  0  0  0  0  0  0  0  0  0
   37.2950   27.4120   43.4750 N   0  0  0  0  0  0  0  0  0  0  0  0
   37.2750   26.7790   42.2900 C   0  0  0  0  0  0  0  0  0  0  0  0
   36.9840   25.4310   42.2350 C   0  0  0  0  0  0  0  0  0  0  0  0
   36.9590   24.7760   41.0350 C   0  0  0  0  0  0  0  0  0  0  0  0
   37.2330   25.5060   39.8930 C   0  0  0  0  0  0  0  0  0  0  0  0
   37.5170   26.8470   40.0020 C   0  0  0  0  0  0  0  0  0  0  0  0
   37.5550   27.5530   41.1830 C   0  0  0  0  0  0  0  0  0  0  0  0
   37.6010   29.2780   44.4910 H   0  0  0  0  0  0  0  0  0  0  0  0
   36.7790   24.9210   43.1750 H   0  0  0  0  0  0  0  0  0  0  0  0
   36.7230   23.7220   41.0800 H   0  0  0  0  0  0  0  0  0  0  0  0
   37.2100   24.9800   38.9490 H   0  0  0  0  0  0  0  0  0  0  0  0
   37.7270   27.3840   39.0730 H   0  0  0  0  0  0  0  0  0  0  0  0
   40.3800   28.1730   36.7930 Cl  0  0  0  0  0  0  0  0  0  0  0  0
   41.2460   29.7060   36.9730 C   0  0  0  0  0  0  0  0  0  0  0  0
   40.6850   30.7760   37.6380 C   0  0  0  0  0  0  0  0  0  0  0  0
   41.5320   31.8470   37.6520 C   0  0  0  0  0  0  0  0  0  0  0  0
   41.1860   32.7330   38.1480 H   0  0  0  0  0  0  0  0  0  0  0  0
   42.7880   31.9270   37.1020 C   0  0  0  0  0  0  0  0  0  0  0  0
   43.3730   32.8100   37.1670 H   0  0  0  0  0  0  0  0  0  0  0  0
   43.2780   30.8180   36.4570 C   0  0  0  0  0  3  0  0  0  0  0  0
   42.5010   29.7060   36.3940 C   0  0  0  0  0  3  0  0  0  0  0  0
   38.2140   32.0080   36.5400 N   0  0  0  0  0  0  0  0  0  0  0  0
   38.3610   32.9720   36.9390 H   0  0  0  0  0  0  0  0  0  0  0  0
   38.0630   31.2270   35.8400 H   0  0  0  0  0  0  0  0  0  0  0  0
  1  6  1  0  0  0  0
  2  3  1  0  0  0  0
  2  1  2  0  0  0  0
  3  4  2  0  0  0  0
  4  5  1  0  0  0  0
  5  8  1  0  0  0  0
  6  5  2  0  0  0  0
  7  1  1  0  0  0  0
  8  9  1  0  0  0  0
  9 10  2  0  0  0  0
 10 18  1  0  0  0  0
 11 10  1  0  0  0  0
 12 11  2  0  0  0  0
 13 12  1  0  0  0  0
 13 19  1  0  0  0  0
 14 20  1  0  0  0  0
 14 13  2  0  0  0  0
 15 16  2  0  0  0  0
 15 14  1  0  0  0  0
 16 17  1  0  0  0  0
 17  8  2  0  0  0  0
 17 12  1  0  0  0  0
 21 15  1  0  0  0  0
 22 16  1  0  0  0  0
 23 24  1  0  0  0  0
 24 25  1  0  0  0  0
 25 26  2  0  0  0  0
 25  3  1  0  0  0  0
 26 27  1  0  0  0  0
 28 29  1  0  0  0  0
 28 26  1  0  0  0  0
 30 28  2  0  0  0  0
 31 30  1  0  0  0  0
 31 24  2  0  0  0  0
 32 33  1  0  0  0  0
 32  2  1  0  0  0  0
 34 32  1  0  0  0  0
M  END
>  <minimizedAffinity>
-6.13126564

$$$$

 OpenBabel03252502033D

 34 37  0  0  0  0  0  0  0  0999 V2000
   37.1600   31.1040   38.2710 C   0  0  0  0  0  0  0  0  0  0  0  0
   38.3800   31.4030   37.6480 C   0  0  0  0  0  0  0  0  0  0  0  0
   39.5090   30.8960   38.2190 C   0  0  0  0  0  0  0  0  0  0  0  0
   39.4150   30.1420   39.3370 N   0  0  0  0  0  0  0  0  0  0  0  0
   38.2490   29.8600   39.9250 C   0  0  0  0  0  0  0  0  0  0  0  0
   37.1560   30.3550   39.3660 N   0  0  0  0  0  0  0  0  0  0  0  0
   36.2700   31.5160   37.8020 H   0  0  0  0  0  0  0  0  0  0  0  0
   37.9350   29.0700   41.1200 C   0  0  0  0  0  0  0  0  0  0  0  0
   37.9120   29.5610   42.3790 N   0  0  0  0  0  0  0  0  0  0  0  0
   37.6340   28.8850   43.4760 C   0  0  0  0  0  0  0  0  0  0  0  0
   37.3330   27.5570   43.3800 N   0  0  0  0  0  0  0  0  0  0  0  0
   37.3200   26.9410   42.1860 C   0  0  0  0  0  0  0  0  0  0  0  0
   37.0120   25.5980   42.1090 C   0  0  0  0  0  0  0  0  0  0  0  0
   36.9940   24.9590   40.8990 C   0  0  0  0  0  0  0  0  0  0  0  0
   37.2920   25.7020   39.7710 C   0  0  0  0  0  0  0  0  0  0  0  0
   37.5910   27.0370   39.9020 C   0  0  0  0  0  0  0  0  0  0  0  0
   37.6230   27.7260   41.0940 C   0  0  0  0  0  0  0  0  0  0  0  0
   37.6500   29.4050   44.4250 H   0  0  0  0  0  0  0  0  0  0  0  0
   36.7890   25.0780   43.0390 H   0  0  0  0  0  0  0  0  0  0  0  0
   36.7440   23.9090   40.9270 H   0  0  0  0  0  0  0  0  0  0  0  0
   37.2740   25.1890   38.8190 H   0  0  0  0  0  0  0  0  0  0  0  0
   37.8190   27.5850   38.9840 H   0  0  0  0  0  0  0  0  0  0  0  0
   40.8010   33.5100   39.0480 Cl  0  0  0  0  0  0  0  0  0  0  0  0
   41.5390   32.2500   38.0460 C   0  0  0  0  0  0  0  0  0  0  0  0
   40.8590   31.0940   37.7270 C   0  0  0  0  0  0  0  0  0  0  0  0
   41.6220   30.2720   36.9480 C   0  0  0  0  0  0  0  0  0  0  0  0
   41.1810   29.3430   36.6450 H   0  0  0  0  0  0  0  0  0  0  0  0
   42.9010   30.4950   36.5000 C   0  0  0  0  0  0  0  0  0  0  0  0
   43.4140   29.7900   35.8940 H   0  0  0  0  0  0  0  0  0  0  0  0
   43.5120   31.6720   36.8590 C   0  0  0  0  0  3  0  0  0  0  0  0
   42.8250   32.5490   37.6350 C   0  0  0  0  0  3  0  0  0  0  0  0
   38.3910   32.1840   36.4860 N   0  0  0  0  0  0  0  0  0  0  0  0
   38.4620   33.1560   36.8870 H   0  0  0  0  0  0  0  0  0  0  0  0
   38.3220   31.3960   35.7820 H   0  0  0  0  0  0  0  0  0  0  0  0
  1  6  1  0  0  0  0
  2  3  1  0  0  0  0
  2  1  2  0  0  0  0
  3  4  2  0  0  0  0
  4  5  1  0  0  0  0
  5  8  1  0  0  0  0
  6  5  2  0  0  0  0
  7  1  1  0  0  0  0
  8  9  1  0  0  0  0
  9 10  2  0  0  0  0
 10 18  1  0  0  0  0
 11 10  1  0  0  0  0
 12 11  2  0  0  0  0
 13 12  1  0  0  0  0
 13 19  1  0  0  0  0
 14 20  1  0  0  0  0
 14 13  2  0  0  0  0
 15 16  2  0  0  0  0
 15 14  1  0  0  0  0
 16 17  1  0  0  0  0
 17  8  2  0  0  0  0
 17 12  1  0  0  0  0
 21 15  1  0  0  0  0
 22 16  1  0  0  0  0
 24 23  1  0  0  0  0
 25 24  1  0  0  0  0
 25  3  1  0  0  0  0
 26 25  2  0  0  0  0
 27 26  1  0  0  0  0
 28 30  2  0  0  0  0
 28 26  1  0  0  0  0
 29 28  1  0  0  0  0
 30 31  1  0  0  0  0
 31 24  2  0  0  0  0
 32 33  1  0  0  0  0
 32  2  1  0  0  0  0
 34 32  1  0  0  0  0
M  END
>  <minimizedAffinity>
-6.11332417

$$$$
