
 OpenBabel03252508213D

 34 36  0  0  0  0  0  0  0  0999 V2000
   46.2010   34.0790   40.9250 C   0  0  0  0  0  0  0  0  0  0  0  0
   46.9590   33.9290   39.7910 C   0  0  0  0  0  0  0  0  0  0  0  0
   48.2240   34.4660   39.6000 C   0  0  0  0  0  0  0  0  0  0  0  0
   48.7200   35.2050   40.6710 C   0  0  0  0  0  0  0  0  0  0  0  0
   47.9790   35.3720   41.8260 C   0  0  0  0  0  0  0  0  0  0  0  0
   46.7360   34.8280   41.9790 C   0  0  0  0  0  0  0  0  0  0  0  0
   46.4980   33.3410   39.0070 H   0  0  0  0  0  0  0  0  0  0  0  0
   48.7750   34.3150   38.6830 H   0  0  0  0  0  0  0  0  0  0  0  0
   49.6880   35.6340   40.5640 H   0  0  0  0  0  0  0  0  0  0  0  0
   48.4130   35.9620   42.6410 H   0  0  0  0  0  0  0  0  0  0  0  0
   47.3770   32.6620   43.8620 Cl  0  0  0  0  0  0  0  0  0  0  0  0
   46.2530   34.0020   44.1190 C   0  0  0  0  0  0  0  0  0  0  0  0
   45.9690   35.0150   43.2070 C   0  0  0  0  0  0  0  0  0  0  0  0
   45.0740   35.9900   43.5440 C   0  0  0  0  0  0  0  0  0  0  0  0
   44.9350   36.7240   42.7530 H   0  0  0  0  0  0  0  0  0  0  0  0
   44.4550   35.9770   44.7700 C   0  0  0  0  0  0  0  0  0  0  0  0
   43.7600   36.7710   44.9820 H   0  0  0  0  0  0  0  0  0  0  0  0
   44.7240   34.9830   45.6850 C   0  0  0  0  0  0  0  0  0  0  0  0
   45.6340   33.9750   45.3690 C   0  0  0  0  0  0  0  0  0  0  0  0
   44.8560   33.5030   41.1190 C   0  0  0  0  0  0  0  0  0  0  0  0
   44.3680   34.1440   41.9100 H   0  0  0  0  0  0  0  0  0  0  0  0
   44.8320   32.4750   41.4800 H   0  0  0  0  0  0  0  0  0  0  0  0
   43.9950   33.6810   39.8810 C   0  0  0  0  0  0  0  0  0  0  0  0
   43.8430   32.6980   39.3570 H   0  0  0  0  0  0  0  0  0  0  0  0
   44.4300   34.4420   39.2220 H   0  0  0  0  0  0  0  0  0  0  0  0
   41.2080   35.7110   41.4370 C   0  0  0  0  0  0  0  0  0  0  0  0
   42.5220   35.3280   41.0590 C   0  0  0  0  0  0  0  0  0  0  0  0
   42.6570   34.1550   40.3180 C   0  0  0  0  0  0  0  0  0  0  0  0
   41.5180   33.4410   39.9990 N   0  0  0  0  0  0  0  0  0  0  0  0
   40.3040   33.8560   40.3860 C   0  0  0  0  0  0  0  0  0  0  0  0
   40.1400   34.9880   41.1040 N   0  0  0  0  0  0  0  0  0  0  0  0
   41.2560   36.6370   42.0040 H   0  0  0  0  0  0  0  0  0  0  0  0
   43.4160   35.8650   41.2940 H   0  0  0  0  0  0  0  0  0  0  0  0
   39.4120   33.2940   40.1330 H   0  0  0  0  0  0  0  0  0  0  0  0
  1 20  1  0  0  0  0
  1  6  1  0  0  0  0
  2  1  2  0  0  0  0
  3  2  1  0  0  0  0
  3  4  2  0  0  0  0
  4  5  1  0  0  0  0
  5  6  2  0  0  0  0
  5 10  1  0  0  0  0
  6 13  1  0  0  0  0
  7  2  1  0  0  0  0
  8  3  1  0  0  0  0
  9  4  1  0  0  0  0
 11 12  1  0  0  0  0
 12 19  1  0  0  0  0
 13 14  1  0  0  0  0
 13 12  2  0  0  0  0
 14 16  2  0  0  0  0
 15 14  1  0  0  0  0
 16 17  1  0  0  0  0
 16 18  1  0  0  0  0
 19 18  2  0  0  0  0
 20 22  1  0  0  0  0
 20 21  1  0  0  0  0
 23 28  1  0  0  0  0
 23 20  1  0  0  0  0
 24 23  1  0  0  0  0
 25 23  1  0  0  0  0
 26 32  1  0  0  0  0
 27 33  1  0  0  0  0
 27 26  2  0  0  0  0
 28 27  1  0  0  0  0
 29 28  2  0  0  0  0
 29 30  1  0  0  0  0
 30 31  2  0  0  0  0
 31 26  1  0  0  0  0
 34 30  1  0  0  0  0
M  END
>  <minimizedAffinity>
-6.42018509

>  <minimizedRMSD>
1.02548134

$$$$
