REMARK  Name = 
REMARK  2 active torsions:
REMARK  status: ('A' for Active; 'I' for Inactive)
REMARK    1  A    between atoms: C_2  and  C_14
REMARK    2  A    between atoms: C_3  and  C_25
REMARK                            x       y       z     vdW  Elec       q    Type
REMARK                         _______ _______ _______ _____ _____    ______ ____
ROOT
ATOM      1  C   UNL     1      47.227  31.374  45.093  0.00  0.00    +0.000 A 
ATOM      2  C   UNL     1      46.880  32.717  45.104  0.00  0.00    +0.000 A 
ATOM      3  C   UNL     1      46.277  33.319  46.190  0.00  0.00    +0.000 A 
ATOM      4  C   UNL     1      45.996  32.566  47.327  0.00  0.00    +0.000 A 
ATOM      5  N   UNL     1      45.431  32.810  48.542  0.00  0.00    +0.000 N 
ATOM      6  C   UNL     1      45.430  31.653  49.254  0.00  0.00    +0.000 A 
ATOM      7  N   UNL     1      45.996  30.706  48.468  0.00  0.00    +0.000 NA
ATOM      8  C   UNL     1      46.357  31.225  47.282  0.00  0.00    +0.000 A 
ATOM      9  C   UNL     1      46.956  30.600  46.221  0.00  0.00    +0.000 A 
ATOM     10  H   UNL     1      47.694  30.906  44.255  0.00  0.00    +0.000 HD
ATOM     11  H   UNL     1      45.083  33.747  48.806  0.00  0.00    +0.000 HD
ATOM     12  H   UNL     1      45.021  31.641  50.247  0.00  0.00    +0.000 HD
ATOM     13  H   UNL     1      47.206  29.548  46.264  0.00  0.00    +0.000 HD
ENDROOT
BRANCH   2  18
ATOM     14  C   UNL     1      46.525  35.205  42.423  0.00  0.00    +0.000 A 
ATOM     15  C   UNL     1      47.709  35.050  41.705  0.00  0.00    +0.000 A 
ATOM     16  C   UNL     1      48.640  34.084  42.141  0.00  0.00    +0.000 A 
ATOM     17  N   UNL     1      48.299  33.369  43.253  0.00  0.00    +0.000 NA
ATOM     18  C   UNL     1      47.158  33.529  43.932  0.00  0.00    +0.000 A 
ATOM     19  N   UNL     1      46.285  34.445  43.509  0.00  0.00    +0.000 NA
ATOM     20  H   UNL     1      45.861  35.963  42.029  0.00  0.00    +0.000 HD
ATOM     21  H   UNL     1      48.038  35.581  40.823  0.00  0.00    +0.000 HD
ATOM     22  H   UNL     1      49.578  33.915  41.627  0.00  0.00    +0.000 HD
ENDBRANCH   2  18
BRANCH   3  25
ATOM     23 CL   UNL     1      43.790  33.987  47.835  0.00  0.00    +0.000 Cl
ATOM     24  C   UNL     1      44.779  35.173  46.975  0.00  0.00    +0.000 A 
ATOM     25  C   UNL     1      45.892  34.712  46.263  0.00  0.00    +0.000 A 
ATOM     26  C   UNL     1      46.654  35.654  45.595  0.00  0.00    +0.000 A 
ATOM     27  H   UNL     1      47.546  35.389  45.008  0.00  0.00    +0.000 HD
ATOM     28  C   UNL     1      46.336  36.998  45.626  0.00  0.00    +0.000 A 
ATOM     29  H   UNL     1      46.947  37.741  45.093  0.00  0.00    +0.000 HD
ATOM     30  C   UNL     1      45.228  37.456  46.336  0.00  0.00    +0.000 A 
ATOM     31  C   UNL     1      44.456  36.508  47.011  0.00  0.00    +0.000 A 
ENDBRANCH   3  25
TORSDOF 2
