
 OpenBabel03242520053D

 46 50  0  0  1  0  0  0  0  0999 V2000
   48.8880   29.8780   46.2390 N   0  0  0  0  0  0  0  0  0  0  0  0
   48.5900   29.6290   44.8730 C   0  0  1  0  0  0  0  0  0  0  0  0
   47.5740   28.5370   44.7760 C   0  0  0  0  0  0  0  0  0  0  0  0
   46.3690   29.0840   45.3660 N   0  0  0  0  0  0  0  0  0  0  0  0
   46.5260   29.3050   46.7800 C   0  0  0  0  0  0  0  0  0  0  0  0
   47.8460   29.8860   47.1860 C   0  0  2  0  0  0  0  0  0  0  0  0
   49.7640   29.3720   46.4970 H   0  0  0  0  0  0  0  0  0  0  0  0
   49.4930   29.3170   44.3420 H   0  0  0  0  0  0  0  0  0  0  0  0
   47.9320   27.6560   45.3170 H   0  0  0  0  0  0  0  0  0  0  0  0
   47.3560   28.2690   43.7220 H   0  0  0  0  0  0  0  0  0  0  0  0
   46.1500   29.9930   44.9020 H   0  0  0  0  0  0  0  0  0  0  0  0
   46.2660   28.3410   47.2630 H   0  0  0  0  0  0  0  0  0  0  0  0
   45.6590   29.9750   47.0580 H   0  0  0  0  0  0  0  0  0  0  0  0
   48.2100   29.1970   47.9980 H   0  0  0  0  0  0  0  0  0  0  0  0
   46.9670   32.6390   43.9240 C   0  0  0  0  0  0  0  0  0  0  0  0
   47.5660   32.2930   42.7220 C   0  0  0  0  0  0  0  0  0  0  0  0
   48.2450   31.1350   42.9060 C   0  0  0  0  0  0  0  0  0  0  0  0
   48.0660   30.7800   44.1940 N   0  0  0  0  0  0  0  0  0  0  0  0
   47.3060   31.6850   44.7770 N   0  0  0  0  0  0  0  0  0  0  0  0
   47.4680   32.8910   41.8210 H   0  0  0  0  0  0  0  0  0  0  0  0
   48.8170   30.6120   42.1460 H   0  0  0  0  0  0  0  0  0  0  0  0
   44.7550   35.0830   45.5620 C   0  0  0  0  0  0  0  0  0  0  0  0
   44.6130   36.0700   44.5740 C   0  0  0  0  0  0  0  0  0  0  0  0
   45.2770   35.8740   43.3720 C   0  0  0  0  0  0  0  0  0  0  0  0
   46.0200   34.7570   43.2120 N   0  0  0  0  0  0  0  0  0  0  0  0
   46.1370   33.8270   44.1780 C   0  0  0  0  0  0  0  0  0  0  0  0
   45.5080   33.9780   45.3600 N   0  0  0  0  0  0  0  0  0  0  0  0
   44.2770   35.1420   46.5370 H   0  0  0  0  0  0  0  0  0  0  0  0
   43.9960   36.9280   44.8030 H   0  0  0  0  0  0  0  0  0  0  0  0
   45.1790   36.6210   42.6050 H   0  0  0  0  0  0  0  0  0  0  0  0
   47.5810   31.2640   47.7640 C   0  0  1  0  0  0  0  0  0  0  0  0
   46.9600   31.2550   49.1610 C   0  0  0  0  0  0  0  0  0  0  0  0
   48.3120   31.8120   48.8990 C   0  0  1  0  0  0  0  0  0  0  0  0
   47.1530   32.0240   47.0430 H   0  0  0  0  0  0  0  0  0  0  0  0
   46.7400   30.2860   49.5900 H   0  0  0  0  0  0  0  0  0  0  0  0
   46.0870   31.9640   49.2810 H   0  0  0  0  0  0  0  0  0  0  0  0
   48.4140   32.9240   48.9660 H   0  0  0  0  0  0  0  0  0  0  0  0
   50.7550   33.5000   49.7920 Cl  0  0  0  0  0  0  0  0  0  0  0  0
   50.5740   31.7750   50.0230 C   0  0  0  0  0  0  0  0  0  0  0  0
   49.4270   31.1360   49.6020 C   0  0  0  0  0  0  0  0  0  0  0  0
   49.4560   29.7890   49.8970 C   0  0  0  0  0  0  0  0  0  0  0  0
   48.6330   29.1420   49.6370 H   0  0  0  0  0  0  0  0  0  0  0  0
   50.4770   29.1220   50.5280 C   0  0  0  0  0  0  0  0  0  0  0  0
   50.4620   28.0620   50.7420 H   0  0  0  0  0  0  0  0  0  0  0  0
   51.5930   29.8300   50.9160 C   0  0  0  0  0  0  0  0  0  0  0  0
   51.6410   31.1800   50.6580 C   0  0  0  0  0  0  0  0  0  0  0  0
  1  7  1  0  0  0  0
  1  6  1  0  0  0  0
  2  8  1  6  0  0  0
  2  1  1  0  0  0  0
  3  2  1  0  0  0  0
  3  9  1  0  0  0  0
  3  4  1  0  0  0  0
  4  5  1  0  0  0  0
  5 13  1  0  0  0  0
  5  6  1  0  0  0  0
  5 12  1  0  0  0  0
  6 31  1  0  0  0  0
  6 14  1  1  0  0  0
 10  3  1  0  0  0  0
 11  4  1  0  0  0  0
 15 26  1  0  0  0  0
 15 19  2  0  0  0  0
 16 17  2  0  0  0  0
 16 15  1  0  0  0  0
 17 18  1  0  0  0  0
 18 19  1  0  0  0  0
 18  2  1  0  0  0  0
 20 16  1  0  0  0  0
 21 17  1  0  0  0  0
 22 28  1  0  0  0  0
 23 29  1  0  0  0  0
 23 22  2  0  0  0  0
 24 23  1  0  0  0  0
 25 24  2  0  0  0  0
 25 26  1  0  0  0  0
 26 27  2  0  0  0  0
 27 22  1  0  0  0  0
 30 24  1  0  0  0  0
 31 34  1  6  0  0  0
 31 33  1  0  0  0  0
 31 32  1  0  0  0  0
 32 36  1  0  0  0  0
 32 35  1  0  0  0  0
 33 37  1  1  0  0  0
 33 32  1  0  0  0  0
 33 40  1  0  0  0  0
 38 39  1  0  0  0  0
 39 46  1  0  0  0  0
 40 41  1  0  0  0  0
 40 39  2  0  0  0  0
 41 43  2  0  0  0  0
 42 41  1  0  0  0  0
 43 44  1  0  0  0  0
 43 45  1  0  0  0  0
 46 45  2  0  0  0  0
M  END
>  <minimizedAffinity>
-5.45033979

>  <minimizedRMSD>
1.94063711

$$$$
