
 OpenBabel03252506523D

 31 34  0  0  0  0  0  0  0  0999 V2000
   46.0180   31.3050   45.0530 C   0  0  0  0  0  0  0  0  0  0  0  0
   46.3300   32.6370   45.2730 C   0  0  0  0  0  0  0  0  0  0  0  0
   46.2670   33.2100   46.5310 C   0  0  0  0  0  0  0  0  0  0  0  0
   45.8800   32.4460   47.6300 C   0  0  0  0  0  0  0  0  0  0  0  0
   45.7140   32.6720   48.9600 N   0  0  0  0  0  0  0  0  0  0  0  0
   45.3120   31.5100   49.5420 C   0  0  0  0  0  0  0  0  0  0  0  0
   45.2360   30.5780   48.5510 N   0  0  0  0  0  0  0  0  0  0  0  0
   45.5770   31.1240   47.3810 C   0  0  0  0  0  0  0  0  0  0  0  0
   45.6300   30.5300   46.1480 C   0  0  0  0  0  0  0  0  0  0  0  0
   46.0780   30.8910   44.0570 H   0  0  0  0  0  0  0  0  0  0  0  0
   46.5090   34.2500   46.7070 H   0  0  0  0  0  0  0  0  0  0  0  0
   45.8770   33.5930   49.4210 H   0  0  0  0  0  0  0  0  0  0  0  0
   45.0920   31.3490   50.5940 H   0  0  0  0  0  0  0  0  0  0  0  0
   46.3050   35.2280   42.6620 C   0  0  0  0  0  0  0  0  0  0  0  0
   47.5360   35.0390   42.0350 C   0  0  0  0  0  0  0  0  0  0  0  0
   48.3790   34.0130   42.5160 C   0  0  0  0  0  0  0  0  0  0  0  0
   47.9240   33.2670   43.5740 N   0  0  0  0  0  0  0  0  0  0  0  0
   46.7360   33.4700   44.1580 C   0  0  0  0  0  0  0  0  0  0  0  0
   45.9380   34.4460   43.6990 N   0  0  0  0  0  0  0  0  0  0  0  0
   45.6910   36.0200   42.2670 H   0  0  0  0  0  0  0  0  0  0  0  0
   47.9300   35.5940   41.2110 H   0  0  0  0  0  0  0  0  0  0  0  0
   49.3510   33.7660   42.1210 H   0  0  0  0  0  0  0  0  0  0  0  0
   48.0550   28.8650   46.2560 Cl  0  0  0  0  0  0  0  0  0  0  0  0
   46.4210   28.3030   45.9340 C   0  0  0  0  0  0  0  0  0  0  0  0
   45.3070   29.1340   45.8940 C   0  0  0  0  0  0  0  0  0  0  0  0
   44.0630   28.5880   45.6310 C   0  0  0  0  0  0  0  0  0  0  0  0
   43.2510   29.3020   45.6190 H   0  0  0  0  0  0  0  0  0  0  0  0
   43.9610   27.2270   45.4150 C   0  0  0  0  0  0  0  0  0  0  0  0
   42.9710   26.8570   45.2160 H   0  0  0  0  0  0  0  0  0  0  0  0
   45.0600   26.3930   45.4520 C   0  0  0  0  0  0  0  0  0  0  0  0
   46.2960   26.9460   45.7150 C   0  0  0  0  0  0  0  0  0  0  0  0
  1  2  2  0  0  0  0
  1  9  1  0  0  0  0
  2  3  1  0  0  0  0
  3 11  1  0  0  0  0
  3  4  2  0  0  0  0
  4  5  1  0  0  0  0
  5 12  1  0  0  0  0
  5  6  1  0  0  0  0
  6 13  1  0  0  0  0
  7  6  2  0  0  0  0
  8  4  1  0  0  0  0
  8  7  1  0  0  0  0
  9  8  2  0  0  0  0
 10  1  1  0  0  0  0
 14 19  1  0  0  0  0
 15 16  1  0  0  0  0
 15 14  2  0  0  0  0
 16 17  2  0  0  0  0
 17 18  1  0  0  0  0
 18  2  1  0  0  0  0
 19 18  2  0  0  0  0
 20 14  1  0  0  0  0
 21 15  1  0  0  0  0
 22 16  1  0  0  0  0
 24 23  1  0  0  0  0
 25 24  1  0  0  0  0
 25  9  1  0  0  0  0
 26 25  2  0  0  0  0
 27 26  1  0  0  0  0
 28 30  2  0  0  0  0
 28 26  1  0  0  0  0
 29 28  1  0  0  0  0
 30 31  1  0  0  0  0
 31 24  2  0  0  0  0
M  END
>  <minimizedAffinity>
-5.47942495

>  <minimizedRMSD>
1.65202332

$$$$
