
     RDKit          3D

 40 44  0  0  0  0  0  0  0  0999 V2000
   45.4960   34.8205   43.5370 C   0  0  0  0  0  0  0  0  0  0  0  0
   46.2011   33.7377   44.1204 C   0  0  0  0  0  0  0  0  0  0  0  0
   45.9991   33.5145   45.4799 C   0  0  0  0  0  0  0  0  0  0  0  0
   45.1717   34.3092   46.1570 N   0  0  0  0  0  0  0  0  0  0  0  0
   44.5064   35.3400   45.5804 C   0  0  0  0  0  0  0  0  0  0  0  0
   44.6744   35.5817   44.2897 N   0  0  0  0  0  0  0  0  0  0  0  0
   47.0026   32.6970   47.5393 C   0  0  0  0  0  0  0  0  0  0  0  0
   46.6749   32.4247   46.1997 C   0  0  0  0  0  0  0  0  0  0  0  0
   46.9958   31.2129   45.6719 C   0  0  0  0  0  0  0  0  0  0  0  0
   47.6327   30.2359   46.4008 C   0  0  0  0  0  0  0  0  0  0  0  0
   48.0420   28.9854   46.0896 N   0  0  0  0  0  0  0  0  0  0  0  0
   48.6293   28.4629   47.2291 C   0  0  0  0  0  0  0  0  0  0  0  0
   48.5683   29.3946   48.2051 N   0  0  0  0  0  0  0  0  0  0  0  0
   47.9640   30.4757   47.7108 C   0  0  0  0  0  0  0  0  0  0  0  0
   47.6484   31.7089   48.2818 C   0  0  0  0  0  0  0  0  0  0  0  0
   45.6965   35.0481   42.1705 O   0  0  0  0  0  0  0  0  0  0  0  0
   44.6318   34.9163   41.2891 C   0  0  0  0  0  0  0  0  0  0  0  0
   44.9992   33.8053   40.6130 C   0  0  0  0  0  0  0  0  0  0  0  0
   43.5455   33.6136   39.4049 S   0  0  0  0  0  0  0  0  0  0  0  0
   42.7466   35.1463   40.1263 C   0  0  0  0  0  0  0  0  0  0  0  0
   43.4889   35.4197   40.8917 N   0  0  0  0  0  0  0  0  0  0  0  0
   46.8581   33.1109   43.5701 H   0  0  0  0  0  0  0  0  0  0  0  0
   43.8492   35.9535   46.1694 H   0  0  0  0  0  0  0  0  0  0  0  0
   46.7841   33.6325   48.0365 H   0  0  0  0  0  0  0  0  0  0  0  0
   46.7311   31.0325   44.6395 H   0  0  0  0  0  0  0  0  0  0  0  0
   47.9278   28.5106   45.1492 H   0  0  0  0  0  0  0  0  0  0  0  0
   49.0461   27.4532   47.2405 H   0  0  0  0  0  0  0  0  0  0  0  0
   47.9290   31.8527   49.3178 H   0  0  0  0  0  0  0  0  0  0  0  0
   45.6762   32.8777   40.3149 H   0  0  0  0  0  0  0  0  0  0  0  0
   42.6372   35.8650   37.1537 Cl  0  0  0  0  0  0  0  0  0  0  0  0
   41.2825   35.9382   38.2599 C   0  0  0  0  0  0  0  0  0  0  0  0
   41.4400   35.5956   39.5663 C   0  0  0  0  0  0  0  0  0  0  0  0
   40.4537   35.6199   40.4963 C   0  0  0  0  0  0  0  0  0  0  0  0
   40.5759   35.3483   41.5347 H   0  0  0  0  0  0  0  0  0  0  0  0
   39.1926   36.0320   40.0483 C   0  0  0  0  0  0  0  0  0  0  0  0
   38.3657   36.0705   40.7503 H   0  0  0  0  0  0  0  0  0  0  0  0
   39.0242   36.3811   38.7258 C   0  0  0  0  0  0  0  0  0  0  0  0
   40.0471   36.3468   37.8004 C   0  0  0  0  0  0  0  0  0  0  0  0
   38.0327   36.6965   38.4104 H   0  0  0  0  0  0  0  0  0  0  0  0
   39.9328   36.6165   36.7616 H   0  0  0  0  0  0  0  0  0  0  0  0
  1  2  2  0
  1  6  1  0
  2  3  1  0
  3  4  2  0
  3  8  1  0
  5  4  1  0
  6  5  2  0
  7 15  2  0
  8  7  1  0
  9  8  2  0
  9 10  1  0
 10 14  2  0
 11 10  1  0
 11 12  1  0
 12 13  2  0
 14 13  1  0
 14 15  1  0
 16  1  1  0
 17 16  1  0
 18 17  2  0
 19 20  1  0
 19 18  1  0
 20 21  2  0
 21 17  1  0
  2 22  1  0
  5 23  1  0
  7 24  1  0
  9 25  1  0
 11 26  1  0
 12 27  1  0
 15 28  1  0
 18 29  1  0
 30 31  1  0
 31 32  2  0
 32 33  1  0
 33 34  1  0
 33 35  2  0
 35 36  1  0
 35 37  1  0
 37 38  2  0
 38 31  1  0
 37 39  1  0
 38 40  1  0
 20 32  1  0
M  ISO  8  22  14  23  14  24  14  25  14  26   9  27  14  28  14  29  14
M  ISO  2  34  15  36  16
M  END
>  <DihAtoms>  (1) 
18,19,31,30

>  <DihDeg>  (1) 
-0.0027082979848183945

$$$$
