
 OpenBabel03252508213D

 34 36  0  0  0  0  0  0  0  0999 V2000
   45.1630   34.1790   40.6310 C   0  0  0  0  0  0  0  0  0  0  0  0
   46.1890   34.4130   41.5110 C   0  0  0  0  0  0  0  0  0  0  0  0
   46.1090   35.2220   42.6350 C   0  0  0  0  0  0  0  0  0  0  0  0
   44.8690   35.8210   42.8430 C   0  0  0  0  0  0  0  0  0  0  0  0
   43.8170   35.6040   41.9740 C   0  0  0  0  0  0  0  0  0  0  0  0
   43.9320   34.7990   40.8770 C   0  0  0  0  0  0  0  0  0  0  0  0
   47.1180   33.9090   41.2740 H   0  0  0  0  0  0  0  0  0  0  0  0
   46.9530   35.3700   43.2930 H   0  0  0  0  0  0  0  0  0  0  0  0
   44.7660   36.4500   43.6960 H   0  0  0  0  0  0  0  0  0  0  0  0
   42.8610   36.0970   42.1810 H   0  0  0  0  0  0  0  0  0  0  0  0
   42.4880   32.3690   41.6900 Cl  0  0  0  0  0  0  0  0  0  0  0  0
   42.1050   33.4350   40.3320 C   0  0  0  0  0  0  0  0  0  0  0  0
   42.8100   34.5820   39.9700 C   0  0  0  0  0  0  0  0  0  0  0  0
   42.3970   35.3120   38.8910 C   0  0  0  0  0  0  0  0  0  0  0  0
   43.0230   36.1810   38.7090 H   0  0  0  0  0  0  0  0  0  0  0  0
   41.2970   34.9230   38.1650 C   0  0  0  0  0  0  0  0  0  0  0  0
   41.0170   35.5350   37.3260 H   0  0  0  0  0  0  0  0  0  0  0  0
   40.5890   33.7910   38.5090 C   0  0  0  0  0  3  0  0  0  0  0  0
   40.9880   33.0280   39.6040 C   0  0  0  0  0  3  0  0  0  0  0  0
   45.2590   33.3160   39.4380 C   0  0  0  0  0  0  0  0  0  0  0  0
   44.6420   33.8320   38.6450 H   0  0  0  0  0  0  0  0  0  0  0  0
   44.8550   32.3090   39.5520 H   0  0  0  0  0  0  0  0  0  0  0  0
   46.6720   33.2920   38.8850 C   0  0  0  0  0  0  0  0  0  0  0  0
   47.3120   32.5680   39.4600 H   0  0  0  0  0  0  0  0  0  0  0  0
   47.0940   34.3040   38.8750 H   0  0  0  0  0  0  0  0  0  0  0  0
   45.4600   32.4340   35.4060 C   0  0  0  0  0  0  0  0  0  0  0  0
   45.4380   32.9280   36.7360 C   0  0  0  0  0  0  0  0  0  0  0  0
   46.6080   32.8020   37.4840 C   0  0  0  0  0  0  0  0  0  0  0  0
   47.7080   32.2100   36.8940 N   0  0  0  0  0  0  0  0  0  0  0  0
   47.6660   31.7640   35.6310 C   0  0  0  0  0  0  0  0  0  0  0  0
   46.5470   31.8710   34.8810 N   0  0  0  0  0  0  0  0  0  0  0  0
   44.4890   32.5990   34.9480 H   0  0  0  0  0  0  0  0  0  0  0  0
   44.6000   33.3890   37.2130 H   0  0  0  0  0  0  0  0  0  0  0  0
   48.5310   31.2990   35.1700 H   0  0  0  0  0  0  0  0  0  0  0  0
  1  6  2  0  0  0  0
  1  2  1  0  0  0  0
  2  3  2  0  0  0  0
  3  4  1  0  0  0  0
  3  8  1  0  0  0  0
  4  9  1  0  0  0  0
  5 10  1  0  0  0  0
  5  4  2  0  0  0  0
  6  5  1  0  0  0  0
  7  2  1  0  0  0  0
 12 11  1  0  0  0  0
 13 12  1  0  0  0  0
 13  6  1  0  0  0  0
 14 13  2  0  0  0  0
 15 14  1  0  0  0  0
 16 18  2  0  0  0  0
 16 14  1  0  0  0  0
 17 16  1  0  0  0  0
 18 19  1  0  0  0  0
 19 12  2  0  0  0  0
 20 22  1  0  0  0  0
 20  1  1  0  0  0  0
 21 20  1  0  0  0  0
 23 20  1  0  0  0  0
 23 24  1  0  0  0  0
 25 23  1  0  0  0  0
 26 27  1  0  0  0  0
 27 33  1  0  0  0  0
 27 28  2  0  0  0  0
 28 23  1  0  0  0  0
 29 28  1  0  0  0  0
 30 29  2  0  0  0  0
 31 26  2  0  0  0  0
 31 30  1  0  0  0  0
 32 26  1  0  0  0  0
 34 30  1  0  0  0  0
M  END
>  <minimizedAffinity>
-4.98352194

>  <minimizedRMSD>
6.22457361

$$$$
