
 OpenBabel03252501263D

 35 38  0  0  0  0  0  0  0  0999 V2000
   38.9670   28.6740   40.9220 F   0  0  0  0  0  0  0  0  0  0  0  0
   37.8030   28.8580   40.2600 C   0  0  0  0  0  0  0  0  0  0  0  0
   37.4830   30.1070   39.7960 C   0  0  0  0  0  0  0  0  0  0  0  0
   36.2930   30.3070   39.1170 C   0  0  0  0  0  0  0  0  0  0  0  0
   35.4030   29.2780   38.8850 C   0  0  0  0  0  0  0  0  0  0  0  0
   35.7550   28.0440   39.3610 C   0  0  0  0  0  0  0  0  0  0  0  0
   36.9320   27.8130   40.0420 C   0  0  0  0  0  0  0  0  0  0  0  0
   36.0110   31.2830   38.7370 H   0  0  0  0  0  0  0  0  0  0  0  0
   34.4820   29.4250   38.3610 H   0  0  0  0  0  0  0  0  0  0  0  0
   35.0860   27.1980   39.2040 H   0  0  0  0  0  0  0  0  0  0  0  0
   36.5160   27.2660   42.9990 Cl  0  0  0  0  0  0  0  0  0  0  0  0
   37.0740   26.0790   41.8470 C   0  0  0  0  0  0  0  0  0  0  0  0
   37.2220   26.4620   40.5130 C   0  0  0  0  0  0  0  0  0  0  0  0
   37.6640   25.4590   39.6900 C   0  0  0  0  0  0  0  0  0  0  0  0
   37.8010   25.6950   38.6350 H   0  0  0  0  0  0  0  0  0  0  0  0
   37.9600   24.1720   40.0420 C   0  0  0  0  0  0  0  0  0  0  0  0
   38.3050   23.4450   39.3190 H   0  0  0  0  0  0  0  0  0  0  0  0
   37.7900   23.8510   41.3930 C   0  0  0  0  0  3  0  0  0  0  0  0
   37.3480   24.8020   42.2940 C   0  0  0  0  0  3  0  0  0  0  0  0
   40.0280   32.5400   39.6040 C   0  0  0  0  0  0  0  0  0  0  0  0
   39.1830   33.1240   40.5250 C   0  0  0  0  0  0  0  0  0  0  0  0
   38.1100   32.3110   40.7360 C   0  0  0  0  0  0  0  0  0  0  0  0
   38.2910   31.2440   39.9600 N   0  0  0  0  0  0  0  0  0  0  0  0
   39.4430   31.3810   39.2790 N   0  0  0  0  0  0  0  0  0  0  0  0
   39.2760   34.0750   41.0470 H   0  0  0  0  0  0  0  0  0  0  0  0
   37.2340   32.4100   41.3770 H   0  0  0  0  0  0  0  0  0  0  0  0
   43.4300   33.8740   39.5370 C   0  0  0  0  0  0  0  0  0  0  0  0
   43.6260   34.1750   38.1810 C   0  0  0  0  0  0  0  0  0  0  0  0
   42.5700   33.9090   37.2970 C   0  0  0  0  0  0  0  0  0  0  0  0
   41.4470   33.3870   37.8220 N   0  0  0  0  0  0  0  0  0  0  0  0
   41.2730   33.1030   39.1250 C   0  0  0  0  0  0  0  0  0  0  0  0
   42.2720   33.3440   40.0170 N   0  0  0  0  0  0  0  0  0  0  0  0
   44.2000   34.0490   40.2930 H   0  0  0  0  0  0  0  0  0  0  0  0
   44.5480   34.5870   37.8550 H   0  0  0  0  0  0  0  0  0  0  0  0
   42.6660   34.1210   36.2470 H   0  0  0  0  0  0  0  0  0  0  0  0
  2  1  1  0  0  0  0
  3 23  1  0  0  0  0
  3  2  2  0  0  0  0
  4  3  1  0  0  0  0
  5  4  2  0  0  0  0
  5  6  1  0  0  0  0
  6  7  2  0  0  0  0
  7  2  1  0  0  0  0
  7 13  1  0  0  0  0
  8  4  1  0  0  0  0
  9  5  1  0  0  0  0
 10  6  1  0  0  0  0
 12 19  1  0  0  0  0
 12 11  1  0  0  0  0
 13 12  2  0  0  0  0
 14 16  2  0  0  0  0
 14 13  1  0  0  0  0
 15 14  1  0  0  0  0
 16 18  1  0  0  0  0
 17 16  1  0  0  0  0
 18 19  2  0  0  0  0
 20 21  1  0  0  0  0
 21 22  2  0  0  0  0
 21 25  1  0  0  0  0
 22 26  1  0  0  0  0
 23 22  1  0  0  0  0
 24 20  2  0  0  0  0
 24 23  1  0  0  0  0
 27 32  1  0  0  0  0
 27 33  1  0  0  0  0
 28 27  2  0  0  0  0
 29 30  2  0  0  0  0
 29 28  1  0  0  0  0
 30 31  1  0  0  0  0
 31 20  1  0  0  0  0
 31 32  2  0  0  0  0
 34 28  1  0  0  0  0
 35 29  1  0  0  0  0
M  END
>  <minimizedAffinity>
-5.98481178

$$$$

 OpenBabel03252501263D

 35 38  0  0  0  0  0  0  0  0999 V2000
   39.2660   28.4220   39.8140 F   0  0  0  0  0  0  0  0  0  0  0  0
   38.1610   29.1290   40.1370 C   0  0  0  0  0  0  0  0  0  0  0  0
   38.1610   30.4900   39.9740 C   0  0  0  0  0  0  0  0  0  0  0  0
   37.0340   31.2240   40.3030 C   0  0  0  0  0  0  0  0  0  0  0  0
   35.8920   30.6260   40.7970 C   0  0  0  0  0  0  0  0  0  0  0  0
   35.9270   29.2660   40.9470 C   0  0  0  0  0  0  0  0  0  0  0  0
   37.0340   28.5080   40.6290 C   0  0  0  0  0  0  0  0  0  0  0  0
   37.0020   32.3020   40.1860 H   0  0  0  0  0  0  0  0  0  0  0  0
   35.0180   31.1880   41.0530 H   0  0  0  0  0  0  0  0  0  0  0  0
   35.0510   28.7470   41.3340 H   0  0  0  0  0  0  0  0  0  0  0  0
   37.7740   27.4570   43.3800 Cl  0  0  0  0  0  0  0  0  0  0  0  0
   37.2940   26.4500   42.0370 C   0  0  0  0  0  0  0  0  0  0  0  0
   36.9790   27.0620   40.8230 C   0  0  0  0  0  0  0  0  0  0  0  0
   36.6150   26.1860   39.8340 C   0  0  0  0  0  0  0  0  0  0  0  0
   36.3560   26.6020   38.8600 H   0  0  0  0  0  0  0  0  0  0  0  0
   36.5360   24.8240   39.9250 C   0  0  0  0  0  0  0  0  0  0  0  0
   36.2370   24.2110   39.0860 H   0  0  0  0  0  0  0  0  0  0  0  0
   36.8630   24.2720   41.1670 C   0  0  0  0  0  3  0  0  0  0  0  0
   37.2420   25.0820   42.2210 C   0  0  0  0  0  3  0  0  0  0  0  0
   41.1180   32.3750   39.6130 C   0  0  0  0  0  0  0  0  0  0  0  0
   40.7100   32.2840   38.2980 C   0  0  0  0  0  0  0  0  0  0  0  0
   39.5510   31.5700   38.2320 C   0  0  0  0  0  0  0  0  0  0  0  0
   39.2490   31.2290   39.4840 N   0  0  0  0  0  0  0  0  0  0  0  0
   40.1920   31.7110   40.3130 N   0  0  0  0  0  0  0  0  0  0  0  0
   41.1740   32.6830   37.3970 H   0  0  0  0  0  0  0  0  0  0  0  0
   38.9190   31.2810   37.3920 H   0  0  0  0  0  0  0  0  0  0  0  0
   44.4470   33.8810   39.6880 C   0  0  0  0  0  0  0  0  0  0  0  0
   44.5510   34.3550   41.0040 C   0  0  0  0  0  0  0  0  0  0  0  0
   43.4580   34.1470   41.8590 C   0  0  0  0  0  0  0  0  0  0  0  0
   42.3930   33.5060   41.3460 N   0  0  0  0  0  0  0  0  0  0  0  0
   42.3070   33.0570   40.0820 C   0  0  0  0  0  0  0  0  0  0  0  0
   43.3440   33.2380   39.2190 N   0  0  0  0  0  0  0  0  0  0  0  0
   45.2510   34.0020   38.9570 H   0  0  0  0  0  0  0  0  0  0  0  0
   45.4340   34.8520   41.3230 H   0  0  0  0  0  0  0  0  0  0  0  0
   43.4840   34.4900   42.8780 H   0  0  0  0  0  0  0  0  0  0  0  0
  1  2  1  0  0  0  0
  2  7  1  0  0  0  0
  3  2  2  0  0  0  0
  3  4  1  0  0  0  0
  4  5  2  0  0  0  0
  5  6  1  0  0  0  0
  5  9  1  0  0  0  0
  6 10  1  0  0  0  0
  7 13  1  0  0  0  0
  7  6  2  0  0  0  0
  8  4  1  0  0  0  0
 12 19  1  0  0  0  0
 12 11  1  0  0  0  0
 13 12  2  0  0  0  0
 14 16  2  0  0  0  0
 14 13  1  0  0  0  0
 15 14  1  0  0  0  0
 16 18  1  0  0  0  0
 17 16  1  0  0  0  0
 18 19  2  0  0  0  0
 20 31  1  0  0  0  0
 20 24  2  0  0  0  0
 21 20  1  0  0  0  0
 22 21  2  0  0  0  0
 22 23  1  0  0  0  0
 23  3  1  0  0  0  0
 23 24  1  0  0  0  0
 25 21  1  0  0  0  0
 26 22  1  0  0  0  0
 27 28  1  0  0  0  0
 28 34  1  0  0  0  0
 28 29  2  0  0  0  0
 29 35  1  0  0  0  0
 30 29  1  0  0  0  0
 31 30  2  0  0  0  0
 32 27  2  0  0  0  0
 32 31  1  0  0  0  0
 33 27  1  0  0  0  0
M  END
>  <minimizedAffinity>
-5.98010445

$$$$

 OpenBabel03252501263D

 35 38  0  0  0  0  0  0  0  0999 V2000
   36.8670   27.1680   39.1390 F   0  0  0  0  0  0  0  0  0  0  0  0
   36.9030   26.8980   40.4630 C   0  0  0  0  0  0  0  0  0  0  0  0
   36.9090   27.9340   41.3610 C   0  0  0  0  0  0  0  0  0  0  0  0
   36.9460   27.6680   42.7190 C   0  0  0  0  0  0  0  0  0  0  0  0
   36.9790   26.3790   43.2100 C   0  0  0  0  0  0  0  0  0  0  0  0
   36.9720   25.3700   42.2860 C   0  0  0  0  0  0  0  0  0  0  0  0
   36.9360   25.6010   40.9280 C   0  0  0  0  0  0  0  0  0  0  0  0
   36.9510   28.4650   43.4550 H   0  0  0  0  0  0  0  0  0  0  0  0
   37.0070   26.1670   44.2590 H   0  0  0  0  0  0  0  0  0  0  0  0
   36.9970   24.3340   42.6230 H   0  0  0  0  0  0  0  0  0  0  0  0
   39.6360   24.5810   39.9850 Cl  0  0  0  0  0  0  0  0  0  0  0  0
   38.1020   23.8950   39.5080 C   0  0  0  0  0  0  0  0  0  0  0  0
   36.9320   24.4610   40.0160 C   0  0  0  0  0  0  0  0  0  0  0  0
   35.7830   23.8510   39.5830 C   0  0  0  0  0  0  0  0  0  0  0  0
   34.8340   24.2460   39.9440 H   0  0  0  0  0  0  0  0  0  0  0  0
   35.6850   22.7830   38.7340 C   0  0  0  0  0  0  0  0  0  0  0  0
   34.7290   22.3670   38.4470 H   0  0  0  0  0  0  0  0  0  0  0  0
   36.8930   22.2620   38.2610 C   0  0  0  0  0  3  0  0  0  0  0  0
   38.1000   22.8160   38.6470 C   0  0  0  0  0  3  0  0  0  0  0  0
   37.7100   31.2940   40.6610 C   0  0  0  0  0  0  0  0  0  0  0  0
   36.3600   31.2880   40.3780 C   0  0  0  0  0  0  0  0  0  0  0  0
   35.8570   30.0410   40.5940 C   0  0  0  0  0  0  0  0  0  0  0  0
   36.8790   29.2910   41.0040 N   0  0  0  0  0  0  0  0  0  0  0  0
   37.9930   30.0440   41.0430 N   0  0  0  0  0  0  0  0  0  0  0  0
   35.7190   32.0980   40.0330 H   0  0  0  0  0  0  0  0  0  0  0  0
   34.8530   29.6300   40.4890 H   0  0  0  0  0  0  0  0  0  0  0  0
   38.8990   34.7240   40.2290 C   0  0  0  0  0  0  0  0  0  0  0  0
   40.2910   34.5940   40.3450 C   0  0  0  0  0  0  0  0  0  0  0  0
   40.8070   33.3100   40.5740 C   0  0  0  0  0  0  0  0  0  0  0  0
   39.9230   32.3000   40.6630 N   0  0  0  0  0  0  0  0  0  0  0  0
   38.5910   32.4390   40.5510 C   0  0  0  0  0  0  0  0  0  0  0  0
   38.0470   33.6680   40.3290 N   0  0  0  0  0  0  0  0  0  0  0  0
   38.4140   35.6870   40.0510 H   0  0  0  0  0  0  0  0  0  0  0  0
   40.9140   35.4490   40.2600 H   0  0  0  0  0  0  0  0  0  0  0  0
   41.8670   33.1530   40.6700 H   0  0  0  0  0  0  0  0  0  0  0  0
  1  2  1  0  0  0  0
  2  7  2  0  0  0  0
  2  3  1  0  0  0  0
  3  4  2  0  0  0  0
  4  5  1  0  0  0  0
  4  8  1  0  0  0  0
  5  9  1  0  0  0  0
  6 10  1  0  0  0  0
  6  5  2  0  0  0  0
  7  6  1  0  0  0  0
 12 11  1  0  0  0  0
 12 13  1  0  0  0  0
 13  7  1  0  0  0  0
 14 15  1  0  0  0  0
 14 13  2  0  0  0  0
 16 14  1  0  0  0  0
 17 16  1  0  0  0  0
 18 19  1  0  0  0  0
 18 16  2  0  0  0  0
 19 12  2  0  0  0  0
 20 24  2  0  0  0  0
 21 22  2  0  0  0  0
 21 20  1  0  0  0  0
 22 23  1  0  0  0  0
 23 24  1  0  0  0  0
 23  3  1  0  0  0  0
 25 21  1  0  0  0  0
 26 22  1  0  0  0  0
 27 32  2  0  0  0  0
 27 28  1  0  0  0  0
 28 29  2  0  0  0  0
 29 30  1  0  0  0  0
 29 35  1  0  0  0  0
 31 20  1  0  0  0  0
 31 30  2  0  0  0  0
 32 31  1  0  0  0  0
 33 27  1  0  0  0  0
 34 28  1  0  0  0  0
M  END
>  <minimizedAffinity>
-5.97639132

$$$$

 OpenBabel03252501263D

 35 38  0  0  0  0  0  0  0  0999 V2000
   39.1170   28.2300   39.4150 F   0  0  0  0  0  0  0  0  0  0  0  0
   38.0800   28.9840   39.8430 C   0  0  0  0  0  0  0  0  0  0  0  0
   38.1210   30.3430   39.6710 C   0  0  0  0  0  0  0  0  0  0  0  0
   37.0650   31.1250   40.1070 C   0  0  0  0  0  0  0  0  0  0  0  0
   35.9550   30.5780   40.7180 C   0  0  0  0  0  0  0  0  0  0  0  0
   35.9470   29.2180   40.8730 C   0  0  0  0  0  0  0  0  0  0  0  0
   36.9840   28.4130   40.4500 C   0  0  0  0  0  0  0  0  0  0  0  0
   37.0660   32.2030   39.9860 H   0  0  0  0  0  0  0  0  0  0  0  0
   35.1340   31.1760   41.0570 H   0  0  0  0  0  0  0  0  0  0  0  0
   35.0930   28.7370   41.3490 H   0  0  0  0  0  0  0  0  0  0  0  0
   36.1120   26.7320   38.0760 Cl  0  0  0  0  0  0  0  0  0  0  0  0
   36.4990   26.0860   39.6520 C   0  0  0  0  0  0  0  0  0  0  0  0
   36.8880   26.9710   40.6590 C   0  0  0  0  0  0  0  0  0  0  0  0
   37.1690   26.3650   41.8560 C   0  0  0  0  0  0  0  0  0  0  0  0
   37.4780   27.0030   42.6840 H   0  0  0  0  0  0  0  0  0  0  0  0
   37.1060   25.0300   42.1410 C   0  0  0  0  0  0  0  0  0  0  0  0
   37.3490   24.6410   43.1200 H   0  0  0  0  0  0  0  0  0  0  0  0
   36.7120   24.1960   41.0900 C   0  0  0  0  0  3  0  0  0  0  0  0
   36.4080   24.7220   39.8470 C   0  0  0  0  0  3  0  0  0  0  0  0
   41.0450   31.2480   37.9230 C   0  0  0  0  0  0  0  0  0  0  0  0
   40.5890   32.4890   38.3190 C   0  0  0  0  0  0  0  0  0  0  0  0
   39.4350   32.3420   39.0280 C   0  0  0  0  0  0  0  0  0  0  0  0
   39.1840   31.0340   39.0690 N   0  0  0  0  0  0  0  0  0  0  0  0
   40.1510   30.3770   38.4040 N   0  0  0  0  0  0  0  0  0  0  0  0
   41.0150   33.4750   38.1400 H   0  0  0  0  0  0  0  0  0  0  0  0
   38.7740   33.0650   39.5050 H   0  0  0  0  0  0  0  0  0  0  0  0
   44.4630   31.4940   36.6510 C   0  0  0  0  0  0  0  0  0  0  0  0
   44.5070   30.4960   35.6660 C   0  0  0  0  0  0  0  0  0  0  0  0
   43.3440   29.7420   35.4510 C   0  0  0  0  0  0  0  0  0  0  0  0
   42.2730   30.0380   36.2090 N   0  0  0  0  0  0  0  0  0  0  0  0
   42.2450   30.9970   37.1510 C   0  0  0  0  0  0  0  0  0  0  0  0
   43.3520   31.7520   37.3930 N   0  0  0  0  0  0  0  0  0  0  0  0
   45.3240   32.1260   36.8830 H   0  0  0  0  0  0  0  0  0  0  0  0
   45.3990   30.3320   35.1130 H   0  0  0  0  0  0  0  0  0  0  0  0
   43.3220   28.9650   34.7080 H   0  0  0  0  0  0  0  0  0  0  0  0
  1  2  1  0  0  0  0
  2  7  1  0  0  0  0
  3  2  2  0  0  0  0
  3  4  1  0  0  0  0
  4  5  2  0  0  0  0
  5  6  1  0  0  0  0
  5  9  1  0  0  0  0
  6 10  1  0  0  0  0
  7 13  1  0  0  0  0
  7  6  2  0  0  0  0
  8  4  1  0  0  0  0
 11 12  1  0  0  0  0
 12 19  2  0  0  0  0
 12 13  1  0  0  0  0
 13 14  2  0  0  0  0
 14 16  1  0  0  0  0
 14 15  1  0  0  0  0
 16 17  1  0  0  0  0
 18 16  2  0  0  0  0
 19 18  1  0  0  0  0
 20 21  1  0  0  0  0
 20 24  2  0  0  0  0
 21 22  2  0  0  0  0
 22 23  1  0  0  0  0
 22 26  1  0  0  0  0
 23  3  1  0  0  0  0
 24 23  1  0  0  0  0
 25 21  1  0  0  0  0
 27 33  1  0  0  0  0
 27 32  1  0  0  0  0
 28 27  2  0  0  0  0
 29 28  1  0  0  0  0
 29 30  2  0  0  0  0
 30 31  1  0  0  0  0
 31 32  2  0  0  0  0
 31 20  1  0  0  0  0
 34 28  1  0  0  0  0
 35 29  1  0  0  0  0
M  END
>  <minimizedAffinity>
-5.96798706

$$$$

 OpenBabel03252501263D

 35 38  0  0  0  0  0  0  0  0999 V2000
   39.4590   27.4290   40.4310 F   0  0  0  0  0  0  0  0  0  0  0  0
   38.6940   27.6870   41.5150 C   0  0  0  0  0  0  0  0  0  0  0  0
   38.9300   28.8200   42.2510 C   0  0  0  0  0  0  0  0  0  0  0  0
   38.1520   29.0930   43.3630 C   0  0  0  0  0  0  0  0  0  0  0  0
   37.1310   28.2550   43.7640 C   0  0  0  0  0  0  0  0  0  0  0  0
   36.9230   27.1350   43.0060 C   0  0  0  0  0  0  0  0  0  0  0  0
   37.6810   26.8350   41.8940 C   0  0  0  0  0  0  0  0  0  0  0  0
   38.3130   29.9800   43.9660 H   0  0  0  0  0  0  0  0  0  0  0  0
   36.5260   28.4610   44.6230 H   0  0  0  0  0  0  0  0  0  0  0  0
   36.1290   26.4420   43.2810 H   0  0  0  0  0  0  0  0  0  0  0  0
   36.0840   27.1420   39.3300 Cl  0  0  0  0  0  0  0  0  0  0  0  0
   36.6610   25.6170   39.9550 C   0  0  0  0  0  0  0  0  0  0  0  0
   37.3860   25.6150   41.1470 C   0  0  0  0  0  0  0  0  0  0  0  0
   37.7930   24.3710   41.5510 C   0  0  0  0  0  0  0  0  0  0  0  0
   38.3640   24.3010   42.4770 H   0  0  0  0  0  0  0  0  0  0  0  0
   37.5630   23.1800   40.9190 C   0  0  0  0  0  0  0  0  0  0  0  0
   37.9260   22.2420   41.3150 H   0  0  0  0  0  0  0  0  0  0  0  0
   36.8320   23.2500   39.7290 C   0  0  0  0  0  3  0  0  0  0  0  0
   36.3810   24.4650   39.2470 C   0  0  0  0  0  3  0  0  0  0  0  0
   40.9650   31.2890   40.7720 C   0  0  0  0  0  0  0  0  0  0  0  0
   41.6500   31.0620   41.9470 C   0  0  0  0  0  0  0  0  0  0  0  0
   41.0000   30.1120   42.6750 C   0  0  0  0  0  0  0  0  0  0  0  0
   39.9320   29.7580   41.9600 N   0  0  0  0  0  0  0  0  0  0  0  0
   39.9110   30.4660   40.8170 N   0  0  0  0  0  0  0  0  0  0  0  0
   42.5670   31.5200   42.3170 H   0  0  0  0  0  0  0  0  0  0  0  0
   41.2140   29.6610   43.6440 H   0  0  0  0  0  0  0  0  0  0  0  0
   42.1930   34.3070   39.1170 C   0  0  0  0  0  0  0  0  0  0  0  0
   42.0660   33.9970   37.7550 C   0  0  0  0  0  0  0  0  0  0  0  0
   41.5520   32.7350   37.4210 C   0  0  0  0  0  0  0  0  0  0  0  0
   41.2200   31.9200   38.4380 N   0  0  0  0  0  0  0  0  0  0  0  0
   41.3480   32.2310   39.7400 C   0  0  0  0  0  0  0  0  0  0  0  0
   41.8430   33.4440   40.1080 N   0  0  0  0  0  0  0  0  0  0  0  0
   42.5850   35.2670   39.4640 H   0  0  0  0  0  0  0  0  0  0  0  0
   42.3540   34.7050   37.0180 H   0  0  0  0  0  0  0  0  0  0  0  0
   41.4320   32.4450   36.3920 H   0  0  0  0  0  0  0  0  0  0  0  0
  1  2  1  0  0  0  0
  2  7  2  0  0  0  0
  2  3  1  0  0  0  0
  3  4  2  0  0  0  0
  4  5  1  0  0  0  0
  4  8  1  0  0  0  0
  5  9  1  0  0  0  0
  6 10  1  0  0  0  0
  6  5  2  0  0  0  0
  7  6  1  0  0  0  0
 11 12  1  0  0  0  0
 12 13  1  0  0  0  0
 13 14  2  0  0  0  0
 13  7  1  0  0  0  0
 14 15  1  0  0  0  0
 16 17  1  0  0  0  0
 16 14  1  0  0  0  0
 18 16  2  0  0  0  0
 19 18  1  0  0  0  0
 19 12  2  0  0  0  0
 20 24  2  0  0  0  0
 20 21  1  0  0  0  0
 21 25  1  0  0  0  0
 21 22  2  0  0  0  0
 22 26  1  0  0  0  0
 23  3  1  0  0  0  0
 23 22  1  0  0  0  0
 24 23  1  0  0  0  0
 27 33  1  0  0  0  0
 27 32  1  0  0  0  0
 28 27  2  0  0  0  0
 29 28  1  0  0  0  0
 29 30  2  0  0  0  0
 30 31  1  0  0  0  0
 31 32  2  0  0  0  0
 31 20  1  0  0  0  0
 34 28  1  0  0  0  0
 35 29  1  0  0  0  0
M  END
>  <minimizedAffinity>
-5.86858034

$$$$

 OpenBabel03252501263D

 35 38  0  0  0  0  0  0  0  0999 V2000
   38.6920   29.1940   39.9910 F   0  0  0  0  0  0  0  0  0  0  0  0
   38.1570   28.7480   41.1490 C   0  0  0  0  0  0  0  0  0  0  0  0
   38.8790   28.8580   42.3100 C   0  0  0  0  0  0  0  0  0  0  0  0
   38.3400   28.4030   43.5020 C   0  0  0  0  0  0  0  0  0  0  0  0
   37.0840   27.8360   43.5660 C   0  0  0  0  0  0  0  0  0  0  0  0
   36.3910   27.7430   42.3890 C   0  0  0  0  0  0  0  0  0  0  0  0
   36.9000   28.1850   41.1860 C   0  0  0  0  0  0  0  0  0  0  0  0
   38.8850   28.4750   44.4370 H   0  0  0  0  0  0  0  0  0  0  0  0
   36.6610   27.4830   44.4840 H   0  0  0  0  0  0  0  0  0  0  0  0
   35.3950   27.3030   42.3870 H   0  0  0  0  0  0  0  0  0  0  0  0
   37.4060   25.7370   39.4620 Cl  0  0  0  0  0  0  0  0  0  0  0  0
   36.2200   26.9680   39.1030 C   0  0  0  0  0  0  0  0  0  0  0  0
   36.0880   28.0440   39.9810 C   0  0  0  0  0  0  0  0  0  0  0  0
   35.1320   28.9530   39.6100 C   0  0  0  0  0  0  0  0  0  0  0  0
   34.9800   29.8180   40.2550 H   0  0  0  0  0  0  0  0  0  0  0  0
   34.3290   28.9030   38.5050 C   0  0  0  0  0  0  0  0  0  0  0  0
   33.5980   29.6710   38.2930 H   0  0  0  0  0  0  0  0  0  0  0  0
   34.5090   27.7990   37.6660 C   0  0  0  0  0  3  0  0  0  0  0  0
   35.4530   26.8330   37.9630 C   0  0  0  0  0  3  0  0  0  0  0  0
   41.6830   30.9920   42.2520 C   0  0  0  0  0  0  0  0  0  0  0  0
   42.2680   29.8110   42.6600 C   0  0  0  0  0  0  0  0  0  0  0  0
   41.3170   28.8390   42.7440 C   0  0  0  0  0  0  0  0  0  0  0  0
   40.1660   29.4110   42.3930 N   0  0  0  0  0  0  0  0  0  0  0  0
   40.3860   30.7050   42.0980 N   0  0  0  0  0  0  0  0  0  0  0  0
   43.3090   29.5970   42.8990 H   0  0  0  0  0  0  0  0  0  0  0  0
   41.3700   27.7870   43.0240 H   0  0  0  0  0  0  0  0  0  0  0  0
   44.1010   33.7130   42.5890 C   0  0  0  0  0  0  0  0  0  0  0  0
   43.6610   34.6470   41.6390 C   0  0  0  0  0  0  0  0  0  0  0  0
   42.5240   34.3220   40.8850 C   0  0  0  0  0  0  0  0  0  0  0  0
   41.9410   33.1360   41.1350 N   0  0  0  0  0  0  0  0  0  0  0  0
   42.3740   32.2490   42.0490 C   0  0  0  0  0  0  0  0  0  0  0  0
   43.4740   32.5240   42.8020 N   0  0  0  0  0  0  0  0  0  0  0  0
   44.9780   33.8860   43.2180 H   0  0  0  0  0  0  0  0  0  0  0  0
   44.1850   35.5610   41.5090 H   0  0  0  0  0  0  0  0  0  0  0  0
   42.1440   35.0010   40.1430 H   0  0  0  0  0  0  0  0  0  0  0  0
  1  2  1  0  0  0  0
  2  7  2  0  0  0  0
  2  3  1  0  0  0  0
  3 23  1  0  0  0  0
  3  4  2  0  0  0  0
  4  5  1  0  0  0  0
  4  8  1  0  0  0  0
  5  9  1  0  0  0  0
  6  5  2  0  0  0  0
  7  6  1  0  0  0  0
 10  6  1  0  0  0  0
 12 11  1  0  0  0  0
 12 13  1  0  0  0  0
 13  7  1  0  0  0  0
 14 13  2  0  0  0  0
 14 15  1  0  0  0  0
 16 14  1  0  0  0  0
 17 16  1  0  0  0  0
 18 19  1  0  0  0  0
 18 16  2  0  0  0  0
 19 12  2  0  0  0  0
 20 21  1  0  0  0  0
 21 22  2  0  0  0  0
 21 25  1  0  0  0  0
 22 26  1  0  0  0  0
 23 22  1  0  0  0  0
 24 20  2  0  0  0  0
 24 23  1  0  0  0  0
 27 32  1  0  0  0  0
 27 33  1  0  0  0  0
 28 27  2  0  0  0  0
 29 30  2  0  0  0  0
 29 28  1  0  0  0  0
 30 31  1  0  0  0  0
 31 20  1  0  0  0  0
 31 32  2  0  0  0  0
 34 28  1  0  0  0  0
 35 29  1  0  0  0  0
M  END
>  <minimizedAffinity>
-5.80542707

$$$$

 OpenBabel03252501263D

 35 38  0  0  0  0  0  0  0  0999 V2000
   35.3630   29.5060   39.3420 F   0  0  0  0  0  0  0  0  0  0  0  0
   35.5750   28.2080   39.0300 C   0  0  0  0  0  0  0  0  0  0  0  0
   34.9630   27.6730   37.9260 C   0  0  0  0  0  0  0  0  0  0  0  0
   35.1730   26.3440   37.5990 C   0  0  0  0  0  0  0  0  0  0  0  0
   35.9880   25.5260   38.3540 C   0  0  0  0  0  0  0  0  0  0  0  0
   36.5830   26.0930   39.4480 C   0  0  0  0  0  0  0  0  0  0  0  0
   36.3930   27.4120   39.8010 C   0  0  0  0  0  0  0  0  0  0  0  0
   34.7040   25.8900   36.7320 H   0  0  0  0  0  0  0  0  0  0  0  0
   36.1550   24.4980   38.1060 H   0  0  0  0  0  0  0  0  0  0  0  0
   37.2360   25.4890   40.0770 H   0  0  0  0  0  0  0  0  0  0  0  0
   38.9950   28.9140   39.3580 Cl  0  0  0  0  0  0  0  0  0  0  0  0
   38.2710   28.6370   40.9230 C   0  0  0  0  0  0  0  0  0  0  0  0
   37.0690   27.9300   40.9870 C   0  0  0  0  0  0  0  0  0  0  0  0
   36.5840   27.7680   42.2580 C   0  0  0  0  0  0  0  0  0  0  0  0
   35.6480   27.2230   42.3760 H   0  0  0  0  0  0  0  0  0  0  0  0
   37.1470   28.2150   43.4210 C   0  0  0  0  0  0  0  0  0  0  0  0
   36.6890   28.0380   44.3840 H   0  0  0  0  0  0  0  0  0  0  0  0
   38.3500   28.9170   43.2890 C   0  0  0  0  0  3  0  0  0  0  0  0
   38.9110   29.1280   42.0440 C   0  0  0  0  0  3  0  0  0  0  0  0
   32.3470   29.5780   36.5310 C   0  0  0  0  0  0  0  0  0  0  0  0
   33.1280   29.3610   35.4150 C   0  0  0  0  0  0  0  0  0  0  0  0
   34.2190   28.6210   35.7630 C   0  0  0  0  0  0  0  0  0  0  0  0
   34.1100   28.3860   37.0700 N   0  0  0  0  0  0  0  0  0  0  0  0
   32.9860   28.9620   37.5310 N   0  0  0  0  0  0  0  0  0  0  0  0
   32.9790   29.6880   34.3870 H   0  0  0  0  0  0  0  0  0  0  0  0
   35.0610   28.2440   35.1820 H   0  0  0  0  0  0  0  0  0  0  0  0
   28.9220   30.5800   37.3240 C   0  0  0  0  0  0  0  0  0  0  0  0
   28.7590   31.7640   36.5880 C   0  0  0  0  0  0  0  0  0  0  0  0
   29.8460   32.2060   35.8190 C   0  0  0  0  0  0  0  0  0  0  0  0
   30.9630   31.4560   35.8480 N   0  0  0  0  0  0  0  0  0  0  0  0
   31.1050   30.3240   36.5580 C   0  0  0  0  0  0  0  0  0  0  0  0
   30.0760   29.8590   37.3190 N   0  0  0  0  0  0  0  0  0  0  0  0
   28.1270   30.1660   37.9500 H   0  0  0  0  0  0  0  0  0  0  0  0
   27.8390   32.2910   36.6260 H   0  0  0  0  0  0  0  0  0  0  0  0
   29.7760   33.1060   35.2360 H   0  0  0  0  0  0  0  0  0  0  0  0
  2  1  1  0  0  0  0
  2  7  1  0  0  0  0
  3  2  2  0  0  0  0
  4  3  1  0  0  0  0
  4  5  2  0  0  0  0
  5  6  1  0  0  0  0
  6  7  2  0  0  0  0
  6 10  1  0  0  0  0
  7 13  1  0  0  0  0
  8  4  1  0  0  0  0
  9  5  1  0  0  0  0
 11 12  1  0  0  0  0
 12 13  2  0  0  0  0
 12 19  1  0  0  0  0
 13 14  1  0  0  0  0
 14 15  1  0  0  0  0
 14 16  2  0  0  0  0
 16 17  1  0  0  0  0
 18 16  1  0  0  0  0
 19 18  2  0  0  0  0
 20 31  1  0  0  0  0
 20 24  2  0  0  0  0
 21 22  2  0  0  0  0
 21 20  1  0  0  0  0
 22 23  1  0  0  0  0
 23 24  1  0  0  0  0
 23  3  1  0  0  0  0
 25 21  1  0  0  0  0
 26 22  1  0  0  0  0
 27 33  1  0  0  0  0
 28 34  1  0  0  0  0
 28 27  2  0  0  0  0
 29 30  2  0  0  0  0
 29 28  1  0  0  0  0
 30 31  1  0  0  0  0
 31 32  2  0  0  0  0
 32 27  1  0  0  0  0
 35 29  1  0  0  0  0
M  END
>  <minimizedAffinity>
-5.71291113

$$$$

 OpenBabel03252501263D

 35 38  0  0  0  0  0  0  0  0999 V2000
   39.8980   28.3370   40.7450 F   0  0  0  0  0  0  0  0  0  0  0  0
   38.9550   28.1280   41.6910 C   0  0  0  0  0  0  0  0  0  0  0  0
   37.6770   28.5740   41.4770 C   0  0  0  0  0  0  0  0  0  0  0  0
   36.7040   28.3660   42.4400 C   0  0  0  0  0  0  0  0  0  0  0  0
   36.9790   27.7170   43.6270 C   0  0  0  0  0  0  0  0  0  0  0  0
   38.2650   27.2860   43.8070 C   0  0  0  0  0  0  0  0  0  0  0  0
   39.2550   27.4780   42.8670 C   0  0  0  0  0  0  0  0  0  0  0  0
   35.6830   28.7060   42.3010 H   0  0  0  0  0  0  0  0  0  0  0  0
   36.2310   27.5530   44.3750 H   0  0  0  0  0  0  0  0  0  0  0  0
   38.5330   26.7680   44.7270 H   0  0  0  0  0  0  0  0  0  0  0  0
   39.8390   24.5870   42.1420 Cl  0  0  0  0  0  0  0  0  0  0  0  0
   40.9990   25.6750   42.8640 C   0  0  0  0  0  0  0  0  0  0  0  0
   40.6000   26.9830   43.1470 C   0  0  0  0  0  0  0  0  0  0  0  0
   41.5820   27.7550   43.7110 C   0  0  0  0  0  0  0  0  0  0  0  0
   41.3340   28.7870   43.9570 H   0  0  0  0  0  0  0  0  0  0  0  0
   42.8620   27.3770   44.0080 C   0  0  0  0  0  0  0  0  0  0  0  0
   43.5710   28.0610   44.4550 H   0  0  0  0  0  0  0  0  0  0  0  0
   43.1990   26.0560   43.6990 C   0  0  0  0  0  3  0  0  0  0  0  0
   42.2700   25.2060   43.1280 C   0  0  0  0  0  3  0  0  0  0  0  0
   36.1720   29.5030   38.4270 C   0  0  0  0  0  0  0  0  0  0  0  0
   36.8890   30.6450   38.7180 C   0  0  0  0  0  0  0  0  0  0  0  0
   37.5560   30.4750   39.8940 C   0  0  0  0  0  0  0  0  0  0  0  0
   37.2570   29.2480   40.3200 N   0  0  0  0  0  0  0  0  0  0  0  0
   36.4240   28.6650   39.4390 N   0  0  0  0  0  0  0  0  0  0  0  0
   36.9670   31.5770   38.1600 H   0  0  0  0  0  0  0  0  0  0  0  0
   38.2200   31.1300   40.4580 H   0  0  0  0  0  0  0  0  0  0  0  0
   35.0980   29.1910   34.9480 C   0  0  0  0  0  0  0  0  0  0  0  0
   33.7250   28.9240   35.0620 C   0  0  0  0  0  0  0  0  0  0  0  0
   33.1820   28.8530   36.3540 C   0  0  0  0  0  0  0  0  0  0  0  0
   34.0230   29.0490   37.3840 N   0  0  0  0  0  0  0  0  0  0  0  0
   35.3380   29.3050   37.2600 C   0  0  0  0  0  0  0  0  0  0  0  0
   35.9060   29.3810   36.0250 N   0  0  0  0  0  0  0  0  0  0  0  0
   35.6010   29.2620   33.9800 H   0  0  0  0  0  0  0  0  0  0  0  0
   33.1360   28.7820   34.1910 H   0  0  0  0  0  0  0  0  0  0  0  0
   32.1360   28.6510   36.4990 H   0  0  0  0  0  0  0  0  0  0  0  0
  1  2  1  0  0  0  0
  2  7  1  0  0  0  0
  3  2  2  0  0  0  0
  3  4  1  0  0  0  0
  4  5  2  0  0  0  0
  5  6  1  0  0  0  0
  5  9  1  0  0  0  0
  6 10  1  0  0  0  0
  7 13  1  0  0  0  0
  7  6  2  0  0  0  0
  8  4  1  0  0  0  0
 11 12  1  0  0  0  0
 12 19  2  0  0  0  0
 12 13  1  0  0  0  0
 13 14  2  0  0  0  0
 14 15  1  0  0  0  0
 14 16  1  0  0  0  0
 16 17  1  0  0  0  0
 18 16  2  0  0  0  0
 19 18  1  0  0  0  0
 20 21  1  0  0  0  0
 20 24  2  0  0  0  0
 21 22  2  0  0  0  0
 22 23  1  0  0  0  0
 22 26  1  0  0  0  0
 23  3  1  0  0  0  0
 24 23  1  0  0  0  0
 25 21  1  0  0  0  0
 27 28  2  0  0  0  0
 27 32  1  0  0  0  0
 28 29  1  0  0  0  0
 29 35  1  0  0  0  0
 29 30  2  0  0  0  0
 31 30  1  0  0  0  0
 31 20  1  0  0  0  0
 32 31  2  0  0  0  0
 33 27  1  0  0  0  0
 34 28  1  0  0  0  0
M  END
>  <minimizedAffinity>
-5.70491934

$$$$

 OpenBabel03252501263D

 35 38  0  0  0  0  0  0  0  0999 V2000
   40.8830   30.6310   40.8950 F   0  0  0  0  0  0  0  0  0  0  0  0
   39.8740   31.4870   40.6190 C   0  0  0  0  0  0  0  0  0  0  0  0
   38.5830   31.1170   40.8950 C   0  0  0  0  0  0  0  0  0  0  0  0
   37.5430   31.9860   40.6150 C   0  0  0  0  0  0  0  0  0  0  0  0
   37.7600   33.2300   40.0590 C   0  0  0  0  0  0  0  0  0  0  0  0
   39.0600   33.5670   39.7970 C   0  0  0  0  0  0  0  0  0  0  0  0
   40.1180   32.7240   40.0630 C   0  0  0  0  0  0  0  0  0  0  0  0
   36.5100   31.7240   40.8210 H   0  0  0  0  0  0  0  0  0  0  0  0
   36.9600   33.9070   39.8400 H   0  0  0  0  0  0  0  0  0  0  0  0
   39.2840   34.5380   39.3580 H   0  0  0  0  0  0  0  0  0  0  0  0
   41.0760   32.3140   37.2110 Cl  0  0  0  0  0  0  0  0  0  0  0  0
   42.0350   33.0390   38.4780 C   0  0  0  0  0  0  0  0  0  0  0  0
   41.4720   33.1690   39.7490 C   0  0  0  0  0  0  0  0  0  0  0  0
   42.3040   33.7490   40.6710 C   0  0  0  0  0  0  0  0  0  0  0  0
   41.9240   33.8790   41.6840 H   0  0  0  0  0  0  0  0  0  0  0  0
   43.5810   34.1930   40.4670 C   0  0  0  0  0  0  0  0  0  0  0  0
   44.1650   34.6410   41.2590 H   0  0  0  0  0  0  0  0  0  0  0  0
   44.0860   34.0360   39.1720 C   0  0  0  0  0  3  0  0  0  0  0  0
   43.3150   33.4600   38.1790 C   0  0  0  0  0  3  0  0  0  0  0  0
   37.5640   27.7880   41.4470 C   0  0  0  0  0  0  0  0  0  0  0  0
   37.7360   28.2220   42.7450 C   0  0  0  0  0  0  0  0  0  0  0  0
   38.1410   29.5230   42.7380 C   0  0  0  0  0  0  0  0  0  0  0  0
   38.2160   29.8850   41.4580 N   0  0  0  0  0  0  0  0  0  0  0  0
   37.8700   28.8420   40.6830 N   0  0  0  0  0  0  0  0  0  0  0  0
   37.5970   27.6840   43.6820 H   0  0  0  0  0  0  0  0  0  0  0  0
   38.3800   30.2180   43.5430 H   0  0  0  0  0  0  0  0  0  0  0  0
   36.7840   24.2190   41.5640 C   0  0  0  0  0  0  0  0  0  0  0  0
   36.3280   23.9510   40.2650 C   0  0  0  0  0  0  0  0  0  0  0  0
   36.2950   25.0180   39.3540 C   0  0  0  0  0  0  0  0  0  0  0  0
   36.7060   26.2180   39.8010 N   0  0  0  0  0  0  0  0  0  0  0  0
   37.1400   26.4610   41.0510 C   0  0  0  0  0  0  0  0  0  0  0  0
   37.1880   25.4540   41.9660 N   0  0  0  0  0  0  0  0  0  0  0  0
   36.8410   23.4460   42.3350 H   0  0  0  0  0  0  0  0  0  0  0  0
   36.0230   22.9700   39.9990 H   0  0  0  0  0  0  0  0  0  0  0  0
   35.9550   24.8690   38.3450 H   0  0  0  0  0  0  0  0  0  0  0  0
  2  3  1  0  0  0  0
  2  1  1  0  0  0  0
  3 23  1  0  0  0  0
  4  8  1  0  0  0  0
  4  3  2  0  0  0  0
  5  4  1  0  0  0  0
  6  5  2  0  0  0  0
  6  7  1  0  0  0  0
  7  2  2  0  0  0  0
  9  5  1  0  0  0  0
 10  6  1  0  0  0  0
 11 12  1  0  0  0  0
 12 13  1  0  0  0  0
 13  7  1  0  0  0  0
 13 14  2  0  0  0  0
 14 15  1  0  0  0  0
 16 14  1  0  0  0  0
 16 17  1  0  0  0  0
 18 16  2  0  0  0  0
 19 12  2  0  0  0  0
 19 18  1  0  0  0  0
 20 21  1  0  0  0  0
 21 25  1  0  0  0  0
 22 21  2  0  0  0  0
 22 26  1  0  0  0  0
 23 22  1  0  0  0  0
 24 20  2  0  0  0  0
 24 23  1  0  0  0  0
 27 32  1  0  0  0  0
 27 33  1  0  0  0  0
 28 27  2  0  0  0  0
 29 30  2  0  0  0  0
 29 28  1  0  0  0  0
 30 31  1  0  0  0  0
 31 20  1  0  0  0  0
 31 32  2  0  0  0  0
 34 28  1  0  0  0  0
 35 29  1  0  0  0  0
M  END
>  <minimizedAffinity>
-5.67212629

$$$$
