
 OpenBabel03242522093D

 44 47  0  0  1  0  0  0  0  0999 V2000
   41.9620   29.5870   42.7340 C   0  0  0  0  0  0  0  0  0  0  0  0
   41.8130   30.8100   42.0580 C   0  0  0  0  0  0  0  0  0  0  0  0
   40.5430   31.1670   41.6100 C   0  0  0  0  0  0  0  0  0  0  0  0
   39.5420   30.2870   41.8680 N   0  0  0  0  0  0  0  0  0  0  0  0
   39.7020   29.1240   42.5160 C   0  0  0  0  0  0  0  0  0  0  0  0
   40.9430   28.7810   42.9510 N   0  0  0  0  0  0  0  0  0  0  0  0
   42.9800   29.3810   43.0510 H   0  0  0  0  0  0  0  0  0  0  0  0
   42.5960   31.5180   41.8450 H   0  0  0  0  0  0  0  0  0  0  0  0
   40.2360   32.3710   40.9110 N   0  0  0  0  0  0  0  0  0  0  0  0
   41.0140   32.7510   39.7410 C   0  0  0  0  0  0  0  0  0  0  0  0
   40.8950   34.2220   39.4520 C   0  0  0  0  0  0  0  0  0  0  0  0
   39.5740   34.7150   39.4250 N   0  0  0  0  0  0  0  0  0  0  0  0
   38.6490   34.1470   40.3370 C   0  0  2  0  0  0  0  0  0  0  0  0
   39.1680   33.2130   41.3490 C   0  0  0  0  0  0  0  0  0  0  0  0
   42.0900   32.5730   40.0020 H   0  0  0  0  0  0  0  0  0  0  0  0
   40.7890   32.1250   38.8590 H   0  0  0  0  0  0  0  0  0  0  0  0
   41.5410   34.7840   40.1710 H   0  0  0  0  0  0  0  0  0  0  0  0
   41.3510   34.3970   38.4470 H   0  0  0  0  0  0  0  0  0  0  0  0
   39.6050   35.7590   39.4490 H   0  0  0  0  0  0  0  0  0  0  0  0
   38.1160   34.9870   40.8570 H   0  0  0  0  0  0  0  0  0  0  0  0
   38.3290   32.5430   41.6720 H   0  0  0  0  0  0  0  0  0  0  0  0
   39.4710   33.7550   42.2620 H   0  0  0  0  0  0  0  0  0  0  0  0
   37.5720   33.4230   39.5460 C   0  0  0  0  0  0  0  0  0  0  0  0
   36.6300   34.3340   39.0870 F   0  0  0  0  0  0  0  0  0  0  0  0
   36.9260   32.5940   40.4440 F   0  0  0  0  0  0  0  0  0  0  0  0
   38.0600   32.7360   38.4680 F   0  0  0  0  0  0  0  0  0  0  0  0
   38.5810   28.2350   42.7550 C   0  0  0  0  0  0  0  0  0  0  0  0
   37.6450   28.5430   43.7250 C   0  0  0  0  0  0  0  0  0  0  0  0
   36.5950   27.6410   43.8970 C   0  0  0  0  0  0  0  0  0  0  0  0
   36.5780   26.5290   43.0950 C   0  0  0  0  0  0  0  0  0  0  0  0
   37.4980   26.2140   42.1340 C   0  0  0  0  0  0  0  0  0  0  0  0
   38.5020   27.1170   41.9990 N   0  0  0  0  0  0  0  0  0  0  0  0
   37.7460   29.4430   44.3040 H   0  0  0  0  0  0  0  0  0  0  0  0
   35.8760   27.8810   44.6440 H   0  0  0  0  0  0  0  0  0  0  0  0
   35.7450   25.8640   43.2690 H   0  0  0  0  0  0  0  0  0  0  0  0
   39.5690   24.0880   42.7870 Cl  0  0  0  0  0  0  0  0  0  0  0  0
   38.3540   24.0110   41.5380 C   0  0  0  0  0  0  0  0  0  0  0  0
   37.4440   25.0210   41.3020 C   0  0  0  0  0  0  0  0  0  0  0  0
   36.5420   24.8450   40.2960 C   0  0  0  0  0  0  0  0  0  0  0  0
   35.8090   25.6060   40.0720 H   0  0  0  0  0  0  0  0  0  0  0  0
   36.4670   23.7260   39.4910 C   0  0  0  0  0  0  0  0  0  0  0  0
   35.7380   23.6250   38.7060 H   0  0  0  0  0  0  0  0  0  0  0  0
   37.3770   22.7010   39.7180 C   0  0  0  0  0  3  0  0  0  0  0  0
   38.3090   22.8650   40.7440 C   0  0  0  0  0  3  0  0  0  0  0  0
  1  6  1  0  0  0  0
  1  7  1  0  0  0  0
  2  1  2  0  0  0  0
  3  4  2  0  0  0  0
  3  2  1  0  0  0  0
  4  5  1  0  0  0  0
  5 27  1  0  0  0  0
  5  6  2  0  0  0  0
  8  2  1  0  0  0  0
  9 14  1  0  0  0  0
  9  3  1  0  0  0  0
 10 15  1  0  0  0  0
 10  9  1  0  0  0  0
 11 10  1  0  0  0  0
 11 17  1  0  0  0  0
 12 19  1  0  0  0  0
 12 11  1  0  0  0  0
 12 13  1  0  0  0  0
 13 20  1  1  0  0  0
 13 14  1  0  0  0  0
 14 21  1  0  0  0  0
 14 22  1  0  0  0  0
 16 10  1  0  0  0  0
 18 11  1  0  0  0  0
 23 13  1  0  0  0  0
 23 25  1  0  0  0  0
 24 23  1  0  0  0  0
 26 23  1  0  0  0  0
 27 28  1  0  0  0  0
 28 29  2  0  0  0  0
 28 33  1  0  0  0  0
 29 34  1  0  0  0  0
 30 35  1  0  0  0  0
 30 29  1  0  0  0  0
 31 30  2  0  0  0  0
 32 31  1  0  0  0  0
 32 27  2  0  0  0  0
 37 36  1  0  0  0  0
 38 37  1  0  0  0  0
 38 31  1  0  0  0  0
 39 38  2  0  0  0  0
 40 39  1  0  0  0  0
 41 43  2  0  0  0  0
 41 39  1  0  0  0  0
 42 41  1  0  0  0  0
 43 44  1  0  0  0  0
 44 37  2  0  0  0  0
M  END
>  <minimizedAffinity>
-7.18618441

$$$$

 OpenBabel03242522093D

 44 47  0  0  1  0  0  0  0  0999 V2000
   38.1320   34.2590   39.9200 C   0  0  0  0  0  0  0  0  0  0  0  0
   39.5070   34.4220   40.1630 C   0  0  0  0  0  0  0  0  0  0  0  0
   40.2280   33.3300   40.6420 C   0  0  0  0  0  0  0  0  0  0  0  0
   39.5280   32.1830   40.8360 N   0  0  0  0  0  0  0  0  0  0  0  0
   38.2160   32.0450   40.5980 C   0  0  0  0  0  0  0  0  0  0  0  0
   37.5180   33.1130   40.1310 N   0  0  0  0  0  0  0  0  0  0  0  0
   37.6420   35.1530   39.5480 H   0  0  0  0  0  0  0  0  0  0  0  0
   40.0750   35.3250   40.0150 H   0  0  0  0  0  0  0  0  0  0  0  0
   41.6230   33.3430   40.9350 N   0  0  0  0  0  0  0  0  0  0  0  0
   42.2590   32.1580   41.4910 C   0  0  0  0  0  0  0  0  0  0  0  0
   43.5520   32.4970   42.1800 C   0  0  0  0  0  0  0  0  0  0  0  0
   44.4340   33.2980   41.4260 N   0  0  0  0  0  0  0  0  0  0  0  0
   43.8570   34.2850   40.5860 C   0  0  2  0  0  0  0  0  0  0  0  0
   42.4070   34.5110   40.6880 C   0  0  0  0  0  0  0  0  0  0  0  0
   41.5730   31.7720   42.2910 H   0  0  0  0  0  0  0  0  0  0  0  0
   42.3730   31.3480   40.7480 H   0  0  0  0  0  0  0  0  0  0  0  0
   43.3220   32.9460   43.1780 H   0  0  0  0  0  0  0  0  0  0  0  0
   44.0680   31.5310   42.4040 H   0  0  0  0  0  0  0  0  0  0  0  0
   45.1790   33.6640   42.0590 H   0  0  0  0  0  0  0  0  0  0  0  0
   44.3910   35.2540   40.7760 H   0  0  0  0  0  0  0  0  0  0  0  0
   42.0510   34.9500   39.7200 H   0  0  0  0  0  0  0  0  0  0  0  0
   42.1830   35.2780   41.4510 H   0  0  0  0  0  0  0  0  0  0  0  0
   44.1720   33.9340   39.1410 C   0  0  0  0  0  0  0  0  0  0  0  0
   44.4120   32.5710   39.0280 F   0  0  0  0  0  0  0  0  0  0  0  0
   45.3570   34.5770   38.8380 F   0  0  0  0  0  0  0  0  0  0  0  0
   43.1680   34.2640   38.2720 F   0  0  0  0  0  0  0  0  0  0  0  0
   37.5380   30.7840   40.8300 C   0  0  0  0  0  0  0  0  0  0  0  0
   36.1980   30.6490   40.5200 C   0  0  0  0  0  0  0  0  0  0  0  0
   35.6150   29.4060   40.7710 C   0  0  0  0  0  0  0  0  0  0  0  0
   36.4150   28.4270   41.3000 C   0  0  0  0  0  0  0  0  0  0  0  0
   37.7410   28.5490   41.6110 C   0  0  0  0  0  0  0  0  0  0  0  0
   38.2680   29.7730   41.3530 N   0  0  0  0  0  0  0  0  0  0  0  0
   35.6540   31.4780   40.1060 H   0  0  0  0  0  0  0  0  0  0  0  0
   34.5830   29.3040   40.5310 H   0  0  0  0  0  0  0  0  0  0  0  0
   35.9160   27.4850   41.4750 H   0  0  0  0  0  0  0  0  0  0  0  0
   38.6340   26.4240   39.6310 Cl  0  0  0  0  0  0  0  0  0  0  0  0
   39.0010   26.4810   41.3360 C   0  0  0  0  0  0  0  0  0  0  0  0
   38.5570   27.4830   42.1740 C   0  0  0  0  0  0  0  0  0  0  0  0
   38.9090   27.4190   43.4890 C   0  0  0  0  0  0  0  0  0  0  0  0
   38.5880   28.1790   44.1840 H   0  0  0  0  0  0  0  0  0  0  0  0
   39.6810   26.4210   44.0500 C   0  0  0  0  0  0  0  0  0  0  0  0
   39.9390   26.4070   45.0950 H   0  0  0  0  0  0  0  0  0  0  0  0
   40.1350   25.4050   43.2170 C   0  0  0  0  0  3  0  0  0  0  0  0
   39.7830   25.4560   41.8680 C   0  0  0  0  0  3  0  0  0  0  0  0
  1  6  2  0  0  0  0
  1  2  1  0  0  0  0
  2  3  2  0  0  0  0
  3  4  1  0  0  0  0
  3  9  1  0  0  0  0
  5 27  1  0  0  0  0
  5  4  2  0  0  0  0
  6  5  1  0  0  0  0
  7  1  1  0  0  0  0
  8  2  1  0  0  0  0
  9 10  1  0  0  0  0
 10 11  1  0  0  0  0
 10 15  1  0  0  0  0
 11 18  1  0  0  0  0
 11 17  1  0  0  0  0
 12 19  1  0  0  0  0
 12 11  1  0  0  0  0
 13 14  1  0  0  0  0
 13 20  1  1  0  0  0
 13 12  1  0  0  0  0
 14  9  1  0  0  0  0
 14 22  1  0  0  0  0
 16 10  1  0  0  0  0
 21 14  1  0  0  0  0
 23 13  1  0  0  0  0
 24 23  1  0  0  0  0
 25 23  1  0  0  0  0
 26 23  1  0  0  0  0
 27 32  1  0  0  0  0
 28 29  1  0  0  0  0
 28 27  2  0  0  0  0
 29 30  2  0  0  0  0
 30 35  1  0  0  0  0
 30 31  1  0  0  0  0
 31 38  1  0  0  0  0
 32 31  2  0  0  0  0
 33 28  1  0  0  0  0
 34 29  1  0  0  0  0
 36 37  1  0  0  0  0
 37 44  2  0  0  0  0
 37 38  1  0  0  0  0
 38 39  2  0  0  0  0
 39 41  1  0  0  0  0
 39 40  1  0  0  0  0
 41 42  1  0  0  0  0
 43 41  2  0  0  0  0
 44 43  1  0  0  0  0
M  END
>  <minimizedAffinity>
-6.73216581

$$$$

 OpenBabel03242522093D

 44 47  0  0  1  0  0  0  0  0999 V2000
   37.1530   30.0440   37.1990 C   0  0  0  0  0  0  0  0  0  0  0  0
   37.1660   28.8690   37.9700 C   0  0  0  0  0  0  0  0  0  0  0  0
   37.7240   28.9220   39.2450 C   0  0  0  0  0  0  0  0  0  0  0  0
   38.2160   30.1240   39.6400 N   0  0  0  0  0  0  0  0  0  0  0  0
   38.1940   31.2350   38.8910 C   0  0  0  0  0  0  0  0  0  0  0  0
   37.6490   31.1790   37.6480 N   0  0  0  0  0  0  0  0  0  0  0  0
   36.7010   29.9220   36.2190 H   0  0  0  0  0  0  0  0  0  0  0  0
   36.7800   27.9090   37.6710 H   0  0  0  0  0  0  0  0  0  0  0  0
   37.8100   27.8160   40.1410 N   0  0  0  0  0  0  0  0  0  0  0  0
   39.0920   27.1700   40.3780 C   0  0  0  0  0  0  0  0  0  0  0  0
   38.9180   25.7780   40.9200 C   0  0  0  0  0  0  0  0  0  0  0  0
   38.0350   25.6760   42.0150 N   0  0  0  0  0  0  0  0  0  0  0  0
   36.9030   26.5300   42.0190 C   0  0  2  0  0  0  0  0  0  0  0  0
   36.6450   27.3340   40.8140 C   0  0  0  0  0  0  0  0  0  0  0  0
   39.5800   27.0520   39.3740 H   0  0  0  0  0  0  0  0  0  0  0  0
   39.7720   27.7840   40.9950 H   0  0  0  0  0  0  0  0  0  0  0  0
   38.6320   25.0960   40.0810 H   0  0  0  0  0  0  0  0  0  0  0  0
   39.9250   25.4270   41.2540 H   0  0  0  0  0  0  0  0  0  0  0  0
   37.8050   24.6680   42.1670 H   0  0  0  0  0  0  0  0  0  0  0  0
   35.9970   25.9030   42.2390 H   0  0  0  0  0  0  0  0  0  0  0  0
   36.0400   28.2290   41.1110 H   0  0  0  0  0  0  0  0  0  0  0  0
   36.0070   26.7790   40.1030 H   0  0  0  0  0  0  0  0  0  0  0  0
   37.0210   27.4840   43.1960 C   0  0  0  0  0  0  0  0  0  0  0  0
   38.2020   27.2390   43.8850 F   0  0  0  0  0  0  0  0  0  0  0  0
   35.9830   27.1680   44.0530 F   0  0  0  0  0  0  0  0  0  0  0  0
   37.0070   28.8020   42.8310 F   0  0  0  0  0  0  0  0  0  0  0  0
   38.7400   32.4860   39.3840 C   0  0  0  0  0  0  0  0  0  0  0  0
   37.8980   33.5400   39.6840 C   0  0  0  0  0  0  0  0  0  0  0  0
   38.4970   34.7100   40.1540 C   0  0  0  0  0  0  0  0  0  0  0  0
   39.8620   34.7170   40.2790 C   0  0  0  0  0  0  0  0  0  0  0  0
   40.7040   33.6810   39.9840 C   0  0  0  0  0  0  0  0  0  0  0  0
   40.0820   32.5630   39.5300 N   0  0  0  0  0  0  0  0  0  0  0  0
   36.8370   33.4370   39.5540 H   0  0  0  0  0  0  0  0  0  0  0  0
   37.8470   35.5200   40.3850 H   0  0  0  0  0  0  0  0  0  0  0  0
   40.2740   35.6450   40.6450 H   0  0  0  0  0  0  0  0  0  0  0  0
   42.2530   34.0420   37.3940 Cl  0  0  0  0  0  0  0  0  0  0  0  0
   42.9230   33.8900   38.9980 C   0  0  0  0  0  0  0  0  0  0  0  0
   42.1520   33.7280   40.1300 C   0  0  0  0  0  0  0  0  0  0  0  0
   42.7910   33.6200   41.3280 C   0  0  0  0  0  0  0  0  0  0  0  0
   42.2320   33.4930   42.2430 H   0  0  0  0  0  0  0  0  0  0  0  0
   44.1610   33.6610   41.4970 C   0  0  0  0  0  0  0  0  0  0  0  0
   44.6280   33.5730   42.4630 H   0  0  0  0  0  0  0  0  0  0  0  0
   44.9500   33.8240   40.3650 C   0  0  0  0  0  3  0  0  0  0  0  0
   44.3110   33.9350   39.1290 C   0  0  0  0  0  3  0  0  0  0  0  0
  1  6  2  0  0  0  0
  1  2  1  0  0  0  0
  2  3  2  0  0  0  0
  3  4  1  0  0  0  0
  3  9  1  0  0  0  0
  5 27  1  0  0  0  0
  5  4  2  0  0  0  0
  6  5  1  0  0  0  0
  7  1  1  0  0  0  0
  8  2  1  0  0  0  0
  9 10  1  0  0  0  0
  9 14  1  0  0  0  0
 10 11  1  0  0  0  0
 10 16  1  0  0  0  0
 11 18  1  0  0  0  0
 11 12  1  0  0  0  0
 12 13  1  0  0  0  0
 12 19  1  0  0  0  0
 13 20  1  1  0  0  0
 13 23  1  0  0  0  0
 14 21  1  0  0  0  0
 14 13  1  0  0  0  0
 15 10  1  0  0  0  0
 17 11  1  0  0  0  0
 22 14  1  0  0  0  0
 23 24  1  0  0  0  0
 23 25  1  0  0  0  0
 26 23  1  0  0  0  0
 27 32  2  0  0  0  0
 27 28  1  0  0  0  0
 28 29  2  0  0  0  0
 29 30  1  0  0  0  0
 29 34  1  0  0  0  0
 30 35  1  0  0  0  0
 31 38  1  0  0  0  0
 31 30  2  0  0  0  0
 32 31  1  0  0  0  0
 33 28  1  0  0  0  0
 36 37  1  0  0  0  0
 37 44  2  0  0  0  0
 37 38  1  0  0  0  0
 38 39  2  0  0  0  0
 39 41  1  0  0  0  0
 39 40  1  0  0  0  0
 41 42  1  0  0  0  0
 43 41  2  0  0  0  0
 44 43  1  0  0  0  0
M  END
>  <minimizedAffinity>
-6.72793007

$$$$

 OpenBabel03242522093D

 44 47  0  0  1  0  0  0  0  0999 V2000
   37.9870   34.0810   39.9340 C   0  0  0  0  0  0  0  0  0  0  0  0
   39.3880   34.1990   39.9580 C   0  0  0  0  0  0  0  0  0  0  0  0
   40.1410   33.0640   40.2520 C   0  0  0  0  0  0  0  0  0  0  0  0
   39.4450   31.9240   40.4950 N   0  0  0  0  0  0  0  0  0  0  0  0
   38.1090   31.8300   40.4670 C   0  0  0  0  0  0  0  0  0  0  0  0
   37.3790   32.9400   40.1800 N   0  0  0  0  0  0  0  0  0  0  0  0
   37.4730   35.0080   39.6970 H   0  0  0  0  0  0  0  0  0  0  0  0
   39.9530   35.0960   39.7680 H   0  0  0  0  0  0  0  0  0  0  0  0
   41.5650   33.0280   40.3130 N   0  0  0  0  0  0  0  0  0  0  0  0
   42.3390   34.1990   39.9280 C   0  0  0  0  0  0  0  0  0  0  0  0
   43.7560   33.8340   39.5810 C   0  0  0  0  0  0  0  0  0  0  0  0
   44.4100   33.0240   40.5320 N   0  0  0  0  0  0  0  0  0  0  0  0
   43.6270   32.0530   41.2060 C   0  0  2  0  0  0  0  0  0  0  0  0
   42.2430   31.8490   40.7500 C   0  0  0  0  0  0  0  0  0  0  0  0
   41.8790   34.5890   38.9820 H   0  0  0  0  0  0  0  0  0  0  0  0
   42.2800   35.0120   40.6740 H   0  0  0  0  0  0  0  0  0  0  0  0
   43.7720   33.3810   38.5580 H   0  0  0  0  0  0  0  0  0  0  0  0
   44.3280   34.7890   39.4880 H   0  0  0  0  0  0  0  0  0  0  0  0
   45.2830   32.6420   40.1040 H   0  0  0  0  0  0  0  0  0  0  0  0
   44.1740   31.0730   41.1570 H   0  0  0  0  0  0  0  0  0  0  0  0
   41.6520   31.4220   41.6010 H   0  0  0  0  0  0  0  0  0  0  0  0
   42.2020   31.0800   39.9580 H   0  0  0  0  0  0  0  0  0  0  0  0
   43.5810   32.4090   42.6830 C   0  0  0  0  0  0  0  0  0  0  0  0
   44.6390   31.8030   43.3480 F   0  0  0  0  0  0  0  0  0  0  0  0
   42.4200   31.8460   43.1780 F   0  0  0  0  0  0  0  0  0  0  0  0
   43.6440   33.7550   42.9190 F   0  0  0  0  0  0  0  0  0  0  0  0
   37.4370   30.5730   40.7380 C   0  0  0  0  0  0  0  0  0  0  0  0
   36.0990   30.4200   40.4260 C   0  0  0  0  0  0  0  0  0  0  0  0
   35.5220   29.1830   40.7150 C   0  0  0  0  0  0  0  0  0  0  0  0
   36.3250   28.2270   41.2800 C   0  0  0  0  0  0  0  0  0  0  0  0
   37.6490   28.3670   41.5940 C   0  0  0  0  0  0  0  0  0  0  0  0
   38.1700   29.5850   41.2970 N   0  0  0  0  0  0  0  0  0  0  0  0
   35.5530   31.2310   39.9810 H   0  0  0  0  0  0  0  0  0  0  0  0
   34.4920   29.0670   40.4730 H   0  0  0  0  0  0  0  0  0  0  0  0
   35.8310   27.2880   41.4840 H   0  0  0  0  0  0  0  0  0  0  0  0
   38.1730   25.9520   39.8250 Cl  0  0  0  0  0  0  0  0  0  0  0  0
   38.7500   26.1970   41.4540 C   0  0  0  0  0  0  0  0  0  0  0  0
   38.4690   27.3250   42.1960 C   0  0  0  0  0  0  0  0  0  0  0  0
   38.9760   27.4020   43.4580 C   0  0  0  0  0  0  0  0  0  0  0  0
   38.7850   28.2650   44.0780 H   0  0  0  0  0  0  0  0  0  0  0  0
   39.7550   26.4310   44.0550 C   0  0  0  0  0  0  0  0  0  0  0  0
   40.1380   26.5300   45.0550 H   0  0  0  0  0  0  0  0  0  0  0  0
   40.0460   25.2890   43.3180 C   0  0  0  0  0  3  0  0  0  0  0  0
   39.5340   25.1940   42.0230 C   0  0  0  0  0  3  0  0  0  0  0  0
  1  2  2  0  0  0  0
  1  6  1  0  0  0  0
  2  3  1  0  0  0  0
  3  9  1  0  0  0  0
  3  4  2  0  0  0  0
  5  4  1  0  0  0  0
  5 27  1  0  0  0  0
  6  5  2  0  0  0  0
  7  1  1  0  0  0  0
  8  2  1  0  0  0  0
  9 14  1  0  0  0  0
 10  9  1  0  0  0  0
 10 16  1  0  0  0  0
 11 10  1  0  0  0  0
 11 12  1  0  0  0  0
 12 13  1  0  0  0  0
 13 20  1  6  0  0  0
 13 23  1  0  0  0  0
 14 13  1  0  0  0  0
 14 21  1  0  0  0  0
 15 10  1  0  0  0  0
 17 11  1  0  0  0  0
 18 11  1  0  0  0  0
 19 12  1  0  0  0  0
 22 14  1  0  0  0  0
 23 26  1  0  0  0  0
 23 25  1  0  0  0  0
 23 24  1  0  0  0  0
 27 32  1  0  0  0  0
 28 29  1  0  0  0  0
 28 27  2  0  0  0  0
 29 30  2  0  0  0  0
 30 35  1  0  0  0  0
 30 31  1  0  0  0  0
 31 38  1  0  0  0  0
 32 31  2  0  0  0  0
 33 28  1  0  0  0  0
 34 29  1  0  0  0  0
 36 37  1  0  0  0  0
 37 44  2  0  0  0  0
 37 38  1  0  0  0  0
 38 39  2  0  0  0  0
 39 41  1  0  0  0  0
 39 40  1  0  0  0  0
 41 42  1  0  0  0  0
 43 41  2  0  0  0  0
 44 43  1  0  0  0  0
M  END
>  <minimizedAffinity>
-6.61071682

$$$$

 OpenBabel03242522093D

 44 47  0  0  1  0  0  0  0  0999 V2000
   41.2870   29.7190   42.7480 C   0  0  0  0  0  0  0  0  0  0  0  0
   41.0540   28.3390   42.8820 C   0  0  0  0  0  0  0  0  0  0  0  0
   39.9860   27.7780   42.1840 C   0  0  0  0  0  0  0  0  0  0  0  0
   39.2500   28.6270   41.4220 N   0  0  0  0  0  0  0  0  0  0  0  0
   39.4880   29.9410   41.3060 C   0  0  0  0  0  0  0  0  0  0  0  0
   40.5300   30.4830   41.9880 N   0  0  0  0  0  0  0  0  0  0  0  0
   42.1350   30.0790   43.3220 H   0  0  0  0  0  0  0  0  0  0  0  0
   41.6280   27.6530   43.4830 H   0  0  0  0  0  0  0  0  0  0  0  0
   39.6260   26.3990   42.2200 N   0  0  0  0  0  0  0  0  0  0  0  0
   39.6760   25.6680   43.4780 C   0  0  0  0  0  0  0  0  0  0  0  0
   39.7560   24.1830   43.2500 C   0  0  0  0  0  0  0  0  0  0  0  0
   38.8030   23.6700   42.3480 N   0  0  0  0  0  0  0  0  0  0  0  0
   38.4470   24.4860   41.2440 C   0  0  2  0  0  0  0  0  0  0  0  0
   39.2140   25.7240   41.0310 C   0  0  0  0  0  0  0  0  0  0  0  0
   40.6390   25.9570   43.9770 H   0  0  0  0  0  0  0  0  0  0  0  0
   38.8600   25.9490   44.1670 H   0  0  0  0  0  0  0  0  0  0  0  0
   40.8030   23.9190   42.9560 H   0  0  0  0  0  0  0  0  0  0  0  0
   39.5960   23.6900   44.2400 H   0  0  0  0  0  0  0  0  0  0  0  0
   39.0810   22.6980   42.0830 H   0  0  0  0  0  0  0  0  0  0  0  0
   38.5080   23.8570   40.3150 H   0  0  0  0  0  0  0  0  0  0  0  0
   38.5740   26.4380   40.4500 H   0  0  0  0  0  0  0  0  0  0  0  0
   40.0910   25.5350   40.3860 H   0  0  0  0  0  0  0  0  0  0  0  0
   36.9820   24.8640   41.3740 C   0  0  0  0  0  0  0  0  0  0  0  0
   36.5680   24.7060   42.6900 F   0  0  0  0  0  0  0  0  0  0  0  0
   36.2780   23.9450   40.6180 F   0  0  0  0  0  0  0  0  0  0  0  0
   36.7180   26.1530   40.9970 F   0  0  0  0  0  0  0  0  0  0  0  0
   38.6550   30.7850   40.4690 C   0  0  0  0  0  0  0  0  0  0  0  0
   38.5750   32.1430   40.7140 C   0  0  0  0  0  0  0  0  0  0  0  0
   37.7550   32.8890   39.8670 C   0  0  0  0  0  0  0  0  0  0  0  0
   37.0990   32.2180   38.8680 C   0  0  0  0  0  0  0  0  0  0  0  0
   37.1700   30.8750   38.6170 C   0  0  0  0  0  0  0  0  0  0  0  0
   37.9780   30.1870   39.4630 N   0  0  0  0  0  0  0  0  0  0  0  0
   39.1310   32.5780   41.5250 H   0  0  0  0  0  0  0  0  0  0  0  0
   37.6950   33.9340   40.0580 H   0  0  0  0  0  0  0  0  0  0  0  0
   36.4780   32.8410   38.2420 H   0  0  0  0  0  0  0  0  0  0  0  0
   34.7560   29.2500   39.4930 Cl  0  0  0  0  0  0  0  0  0  0  0  0
   35.3490   29.4410   37.8630 C   0  0  0  0  0  0  0  0  0  0  0  0
   36.4560   30.1990   37.5430 C   0  0  0  0  0  0  0  0  0  0  0  0
   36.8230   30.2720   36.2330 C   0  0  0  0  0  0  0  0  0  0  0  0
   37.6820   30.8530   35.9320 H   0  0  0  0  0  0  0  0  0  0  0  0
   36.1670   29.6420   35.1940 C   0  0  0  0  0  0  0  0  0  0  0  0
   36.4880   29.7260   34.1710 H   0  0  0  0  0  0  0  0  0  0  0  0
   35.0490   28.8750   35.5030 C   0  0  0  0  0  3  0  0  0  0  0  0
   34.6610   28.7890   36.8400 C   0  0  0  0  0  3  0  0  0  0  0  0
  1  2  1  0  0  0  0
  1  7  1  0  0  0  0
  2  8  1  0  0  0  0
  3  9  1  0  0  0  0
  3  2  2  0  0  0  0
  4  3  1  0  0  0  0
  5  4  2  0  0  0  0
  5  6  1  0  0  0  0
  6  1  2  0  0  0  0
  9 10  1  0  0  0  0
 10 15  1  0  0  0  0
 10 16  1  0  0  0  0
 11 10  1  0  0  0  0
 11 18  1  0  0  0  0
 12 11  1  0  0  0  0
 13 20  1  6  0  0  0
 13 23  1  0  0  0  0
 13 12  1  0  0  0  0
 14 13  1  0  0  0  0
 14  9  1  0  0  0  0
 17 11  1  0  0  0  0
 19 12  1  0  0  0  0
 21 14  1  0  0  0  0
 22 14  1  0  0  0  0
 23 24  1  0  0  0  0
 25 23  1  0  0  0  0
 26 23  1  0  0  0  0
 27 28  1  0  0  0  0
 27  5  1  0  0  0  0
 28 33  1  0  0  0  0
 29 34  1  0  0  0  0
 29 28  2  0  0  0  0
 30 29  1  0  0  0  0
 31 30  2  0  0  0  0
 31 32  1  0  0  0  0
 32 27  2  0  0  0  0
 35 30  1  0  0  0  0
 37 36  1  0  0  0  0
 38 37  1  0  0  0  0
 38 31  1  0  0  0  0
 39 38  2  0  0  0  0
 40 39  1  0  0  0  0
 41 43  2  0  0  0  0
 41 39  1  0  0  0  0
 42 41  1  0  0  0  0
 43 44  1  0  0  0  0
 44 37  2  0  0  0  0
M  END
>  <minimizedAffinity>
-6.60902786

$$$$

 OpenBabel03242522093D

 44 47  0  0  1  0  0  0  0  0999 V2000
   36.7980   26.0760   36.9890 C   0  0  0  0  0  0  0  0  0  0  0  0
   37.2100   26.7240   38.1660 C   0  0  0  0  0  0  0  0  0  0  0  0
   36.2990   27.5530   38.8180 C   0  0  0  0  0  0  0  0  0  0  0  0
   35.0710   27.6650   38.2500 N   0  0  0  0  0  0  0  0  0  0  0  0
   34.6950   27.0390   37.1260 C   0  0  0  0  0  0  0  0  0  0  0  0
   35.5870   26.2320   36.4950 N   0  0  0  0  0  0  0  0  0  0  0  0
   37.5630   25.4490   36.5420 H   0  0  0  0  0  0  0  0  0  0  0  0
   38.1800   26.6450   38.6290 H   0  0  0  0  0  0  0  0  0  0  0  0
   36.5710   28.2750   40.0170 N   0  0  0  0  0  0  0  0  0  0  0  0
   35.5990   29.2330   40.5240 C   0  0  0  0  0  0  0  0  0  0  0  0
   36.2370   30.2220   41.4610 C   0  0  0  0  0  0  0  0  0  0  0  0
   37.0330   29.6500   42.4740 N   0  0  0  0  0  0  0  0  0  0  0  0
   37.7750   28.4880   42.1400 C   0  0  2  0  0  0  0  0  0  0  0  0
   37.7910   28.0660   40.7300 C   0  0  0  0  0  0  0  0  0  0  0  0
   35.2460   29.8270   39.6400 H   0  0  0  0  0  0  0  0  0  0  0  0
   34.7090   28.7460   40.9610 H   0  0  0  0  0  0  0  0  0  0  0  0
   36.7980   30.9790   40.8590 H   0  0  0  0  0  0  0  0  0  0  0  0
   35.4090   30.7900   41.9510 H   0  0  0  0  0  0  0  0  0  0  0  0
   37.6040   30.4040   42.9170 H   0  0  0  0  0  0  0  0  0  0  0  0
   38.8320   28.6420   42.4850 H   0  0  0  0  0  0  0  0  0  0  0  0
   38.0110   26.9670   40.6950 H   0  0  0  0  0  0  0  0  0  0  0  0
   38.6260   28.5440   40.1880 H   0  0  0  0  0  0  0  0  0  0  0  0
   37.2510   27.3260   42.9670 C   0  0  0  0  0  0  0  0  0  0  0  0
   35.9910   27.6310   43.4650 F   0  0  0  0  0  0  0  0  0  0  0  0
   38.0970   27.2150   44.0550 F   0  0  0  0  0  0  0  0  0  0  0  0
   37.1600   26.1560   42.2630 F   0  0  0  0  0  0  0  0  0  0  0  0
   33.3620   27.2090   36.5800 C   0  0  0  0  0  0  0  0  0  0  0  0
   32.6220   26.1060   36.1980 C   0  0  0  0  0  0  0  0  0  0  0  0
   31.3480   26.3500   35.6820 C   0  0  0  0  0  0  0  0  0  0  0  0
   30.9380   27.6550   35.5970 C   0  0  0  0  0  0  0  0  0  0  0  0
   31.6620   28.7540   35.9710 C   0  0  0  0  0  0  0  0  0  0  0  0
   32.8940   28.4730   36.4670 N   0  0  0  0  0  0  0  0  0  0  0  0
   33.0320   25.1190   36.3050 H   0  0  0  0  0  0  0  0  0  0  0  0
   30.7810   25.4990   35.3890 H   0  0  0  0  0  0  0  0  0  0  0  0
   29.9470   27.7880   35.1910 H   0  0  0  0  0  0  0  0  0  0  0  0
   30.4010   29.8860   38.4930 Cl  0  0  0  0  0  0  0  0  0  0  0  0
   30.6050   30.7100   36.9690 C   0  0  0  0  0  0  0  0  0  0  0  0
   31.1900   30.1270   35.8640 C   0  0  0  0  0  0  0  0  0  0  0  0
   31.2930   30.8720   34.7280 C   0  0  0  0  0  0  0  0  0  0  0  0
   31.7440   30.4610   33.8370 H   0  0  0  0  0  0  0  0  0  0  0  0
   30.8550   32.1740   34.5970 C   0  0  0  0  0  0  0  0  0  0  0  0
   30.9560   32.7300   33.6820 H   0  0  0  0  0  0  0  0  0  0  0  0
   30.2640   32.7740   35.7030 C   0  0  0  0  0  3  0  0  0  0  0  0
   30.1500   32.0250   36.8740 C   0  0  0  0  0  3  0  0  0  0  0  0
  1  2  1  0  0  0  0
  2  8  1  0  0  0  0
  2  3  2  0  0  0  0
  3  9  1  0  0  0  0
  4  3  1  0  0  0  0
  5  4  2  0  0  0  0
  6  1  2  0  0  0  0
  6  5  1  0  0  0  0
  7  1  1  0  0  0  0
  9 10  1  0  0  0  0
  9 14  1  0  0  0  0
 10 16  1  0  0  0  0
 10 11  1  0  0  0  0
 11 18  1  0  0  0  0
 11 12  1  0  0  0  0
 12 19  1  0  0  0  0
 13 12  1  0  0  0  0
 13 20  1  1  0  0  0
 13 23  1  0  0  0  0
 14 13  1  0  0  0  0
 15 10  1  0  0  0  0
 17 11  1  0  0  0  0
 21 14  1  0  0  0  0
 22 14  1  0  0  0  0
 23 24  1  0  0  0  0
 23 25  1  0  0  0  0
 26 23  1  0  0  0  0
 27  5  1  0  0  0  0
 28 33  1  0  0  0  0
 28 27  2  0  0  0  0
 29 28  1  0  0  0  0
 30 29  2  0  0  0  0
 30 31  1  0  0  0  0
 31 32  2  0  0  0  0
 32 27  1  0  0  0  0
 34 29  1  0  0  0  0
 35 30  1  0  0  0  0
 37 36  1  0  0  0  0
 38 31  1  0  0  0  0
 38 37  2  0  0  0  0
 39 38  1  0  0  0  0
 40 39  1  0  0  0  0
 41 39  2  0  0  0  0
 41 43  1  0  0  0  0
 42 41  1  0  0  0  0
 43 44  2  0  0  0  0
 44 37  1  0  0  0  0
M  END
>  <minimizedAffinity>
-6.514009

$$$$

 OpenBabel03242522093D

 44 47  0  0  1  0  0  0  0  0999 V2000
   39.1840   34.4350   40.4130 C   0  0  0  0  0  0  0  0  0  0  0  0
   40.3220   34.3010   39.6000 C   0  0  0  0  0  0  0  0  0  0  0  0
   40.6600   33.0300   39.1390 C   0  0  0  0  0  0  0  0  0  0  0  0
   39.8460   32.0130   39.5230 N   0  0  0  0  0  0  0  0  0  0  0  0
   38.7630   32.1590   40.2990 C   0  0  0  0  0  0  0  0  0  0  0  0
   38.4390   33.4010   40.7460 N   0  0  0  0  0  0  0  0  0  0  0  0
   38.9880   35.4550   40.7300 H   0  0  0  0  0  0  0  0  0  0  0  0
   40.9770   35.0970   39.2870 H   0  0  0  0  0  0  0  0  0  0  0  0
   41.7810   32.7370   38.3100 N   0  0  0  0  0  0  0  0  0  0  0  0
   43.1080   33.1970   38.6920 C   0  0  0  0  0  0  0  0  0  0  0  0
   44.0380   33.2430   37.5110 C   0  0  0  0  0  0  0  0  0  0  0  0
   44.0620   32.0690   36.7300 N   0  0  0  0  0  0  0  0  0  0  0  0
   42.8410   31.3650   36.5780 C   0  0  2  0  0  0  0  0  0  0  0  0
   41.6170   31.9920   37.1020 C   0  0  0  0  0  0  0  0  0  0  0  0
   42.9900   34.2590   39.0350 H   0  0  0  0  0  0  0  0  0  0  0  0
   43.5280   32.6300   39.5420 H   0  0  0  0  0  0  0  0  0  0  0  0
   43.8050   34.1520   36.9020 H   0  0  0  0  0  0  0  0  0  0  0  0
   45.0680   33.4140   37.9110 H   0  0  0  0  0  0  0  0  0  0  0  0
   44.5460   32.2770   35.8280 H   0  0  0  0  0  0  0  0  0  0  0  0
   42.7000   31.1490   35.4850 H   0  0  0  0  0  0  0  0  0  0  0  0
   40.8690   31.1830   37.3100 H   0  0  0  0  0  0  0  0  0  0  0  0
   41.1440   32.6290   36.3330 H   0  0  0  0  0  0  0  0  0  0  0  0
   42.9830   30.0030   37.2380 C   0  0  0  0  0  0  0  0  0  0  0  0
   43.4780   29.0840   36.3220 F   0  0  0  0  0  0  0  0  0  0  0  0
   41.7020   29.5970   37.5630 F   0  0  0  0  0  0  0  0  0  0  0  0
   43.8140   30.0100   38.3250 F   0  0  0  0  0  0  0  0  0  0  0  0
   37.9410   31.0220   40.6670 C   0  0  0  0  0  0  0  0  0  0  0  0
   36.5740   31.0590   40.4640 C   0  0  0  0  0  0  0  0  0  0  0  0
   35.8500   29.9280   40.8420 C   0  0  0  0  0  0  0  0  0  0  0  0
   36.5500   28.8790   41.3790 C   0  0  0  0  0  0  0  0  0  0  0  0
   37.9010   28.8310   41.5850 C   0  0  0  0  0  0  0  0  0  0  0  0
   38.5670   29.9510   41.2040 N   0  0  0  0  0  0  0  0  0  0  0  0
   36.1160   31.9310   40.0330 H   0  0  0  0  0  0  0  0  0  0  0  0
   34.7980   29.9580   40.6850 H   0  0  0  0  0  0  0  0  0  0  0  0
   35.9430   28.0290   41.6550 H   0  0  0  0  0  0  0  0  0  0  0  0
   38.6410   26.6380   39.6160 Cl  0  0  0  0  0  0  0  0  0  0  0  0
   38.9770   26.6600   41.3280 C   0  0  0  0  0  0  0  0  0  0  0  0
   38.6080   27.6960   42.1600 C   0  0  0  0  0  0  0  0  0  0  0  0
   38.9260   27.5980   43.4810 C   0  0  0  0  0  0  0  0  0  0  0  0
   38.6600   28.3830   44.1730 H   0  0  0  0  0  0  0  0  0  0  0  0
   39.5950   26.5350   44.0540 C   0  0  0  0  0  0  0  0  0  0  0  0
   39.8290   26.4960   45.1040 H   0  0  0  0  0  0  0  0  0  0  0  0
   39.9730   25.4840   43.2270 C   0  0  0  0  0  3  0  0  0  0  0  0
   39.6540   25.5680   41.8710 C   0  0  0  0  0  3  0  0  0  0  0  0
  1  7  1  0  0  0  0
  1  6  1  0  0  0  0
  2  1  2  0  0  0  0
  3  4  2  0  0  0  0
  3  2  1  0  0  0  0
  4  5  1  0  0  0  0
  5 27  1  0  0  0  0
  5  6  2  0  0  0  0
  8  2  1  0  0  0  0
  9 10  1  0  0  0  0
  9  3  1  0  0  0  0
 10 15  1  0  0  0  0
 10 16  1  0  0  0  0
 11 18  1  0  0  0  0
 11 10  1  0  0  0  0
 12 11  1  0  0  0  0
 13 20  1  6  0  0  0
 13 12  1  0  0  0  0
 13 14  1  0  0  0  0
 13 23  1  0  0  0  0
 14 21  1  0  0  0  0
 14  9  1  0  0  0  0
 17 11  1  0  0  0  0
 19 12  1  0  0  0  0
 22 14  1  0  0  0  0
 23 25  1  0  0  0  0
 23 26  1  0  0  0  0
 24 23  1  0  0  0  0
 27 32  1  0  0  0  0
 28 27  2  0  0  0  0
 28 29  1  0  0  0  0
 29 30  2  0  0  0  0
 30 31  1  0  0  0  0
 30 35  1  0  0  0  0
 31 38  1  0  0  0  0
 32 31  2  0  0  0  0
 33 28  1  0  0  0  0
 34 29  1  0  0  0  0
 36 37  1  0  0  0  0
 37 44  2  0  0  0  0
 37 38  1  0  0  0  0
 38 39  2  0  0  0  0
 39 41  1  0  0  0  0
 39 40  1  0  0  0  0
 41 42  1  0  0  0  0
 43 41  2  0  0  0  0
 44 43  1  0  0  0  0
M  END
>  <minimizedAffinity>
-6.47324371

$$$$

 OpenBabel03242522093D

 44 47  0  0  1  0  0  0  0  0999 V2000
   36.3750   29.7490   38.4930 C   0  0  0  0  0  0  0  0  0  0  0  0
   36.6950   28.6390   39.2930 C   0  0  0  0  0  0  0  0  0  0  0  0
   37.6510   28.7990   40.2930 C   0  0  0  0  0  0  0  0  0  0  0  0
   38.2020   30.0340   40.4110 N   0  0  0  0  0  0  0  0  0  0  0  0
   37.8840   31.0820   39.6390 C   0  0  0  0  0  0  0  0  0  0  0  0
   36.9510   30.9210   38.6640 N   0  0  0  0  0  0  0  0  0  0  0  0
   35.6220   29.5450   37.7380 H   0  0  0  0  0  0  0  0  0  0  0  0
   36.2670   27.6530   39.2120 H   0  0  0  0  0  0  0  0  0  0  0  0
   38.0780   27.7680   41.1810 N   0  0  0  0  0  0  0  0  0  0  0  0
   37.9840   27.9640   42.6210 C   0  0  0  0  0  0  0  0  0  0  0  0
   38.9040   27.0370   43.3660 C   0  0  0  0  0  0  0  0  0  0  0  0
   38.8180   25.6830   42.9830 N   0  0  0  0  0  0  0  0  0  0  0  0
   38.5760   25.4090   41.6130 C   0  0  2  0  0  0  0  0  0  0  0  0
   38.6000   26.5400   40.6720 C   0  0  0  0  0  0  0  0  0  0  0  0
   38.3560   29.0020   42.8270 H   0  0  0  0  0  0  0  0  0  0  0  0
   36.9430   27.9170   42.9890 H   0  0  0  0  0  0  0  0  0  0  0  0
   39.9480   27.4310   43.2950 H   0  0  0  0  0  0  0  0  0  0  0  0
   38.6360   27.1080   44.4480 H   0  0  0  0  0  0  0  0  0  0  0  0
   39.6370   25.1690   43.3790 H   0  0  0  0  0  0  0  0  0  0  0  0
   39.3240   24.6410   41.2770 H   0  0  0  0  0  0  0  0  0  0  0  0
   37.9850   26.2650   39.7760 H   0  0  0  0  0  0  0  0  0  0  0  0
   39.6200   26.7020   40.2810 H   0  0  0  0  0  0  0  0  0  0  0  0
   37.2230   24.7280   41.4860 C   0  0  0  0  0  0  0  0  0  0  0  0
   36.4640   24.9730   42.6230 F   0  0  0  0  0  0  0  0  0  0  0  0
   37.4770   23.3700   41.4570 F   0  0  0  0  0  0  0  0  0  0  0  0
   36.5060   25.1430   40.3980 F   0  0  0  0  0  0  0  0  0  0  0  0
   38.5170   32.3740   39.8260 C   0  0  0  0  0  0  0  0  0  0  0  0
   37.7470   33.5190   39.9150 C   0  0  0  0  0  0  0  0  0  0  0  0
   38.4270   34.7240   40.0960 C   0  0  0  0  0  0  0  0  0  0  0  0
   39.7940   34.6740   40.1700 C   0  0  0  0  0  0  0  0  0  0  0  0
   40.5670   33.5480   40.0820 C   0  0  0  0  0  0  0  0  0  0  0  0
   39.8660   32.3990   39.9060 N   0  0  0  0  0  0  0  0  0  0  0  0
   36.6760   33.4540   39.8460 H   0  0  0  0  0  0  0  0  0  0  0  0
   37.8310   35.6030   40.1640 H   0  0  0  0  0  0  0  0  0  0  0  0
   40.2720   35.6320   40.3100 H   0  0  0  0  0  0  0  0  0  0  0  0
   42.0140   33.5670   37.4100 Cl  0  0  0  0  0  0  0  0  0  0  0  0
   42.7470   33.5440   38.9930 C   0  0  0  0  0  0  0  0  0  0  0  0
   42.0200   33.5370   40.1650 C   0  0  0  0  0  0  0  0  0  0  0  0
   42.7060   33.5190   41.3420 C   0  0  0  0  0  0  0  0  0  0  0  0
   42.1820   33.5140   42.2870 H   0  0  0  0  0  0  0  0  0  0  0  0
   44.0820   33.5080   41.4530 C   0  0  0  0  0  0  0  0  0  0  0  0
   44.5870   33.4950   42.4020 H   0  0  0  0  0  0  0  0  0  0  0  0
   44.8270   33.5150   40.2790 C   0  0  0  0  0  3  0  0  0  0  0  0
   44.1400   33.5330   39.0650 C   0  0  0  0  0  3  0  0  0  0  0  0
  1  6  2  0  0  0  0
  1  2  1  0  0  0  0
  2  3  2  0  0  0  0
  3  4  1  0  0  0  0
  3  9  1  0  0  0  0
  5 27  1  0  0  0  0
  5  4  2  0  0  0  0
  6  5  1  0  0  0  0
  7  1  1  0  0  0  0
  8  2  1  0  0  0  0
  9 10  1  0  0  0  0
 10 15  1  0  0  0  0
 10 16  1  0  0  0  0
 10 11  1  0  0  0  0
 11 18  1  0  0  0  0
 12 11  1  0  0  0  0
 12 19  1  0  0  0  0
 13 20  1  6  0  0  0
 13 12  1  0  0  0  0
 14  9  1  0  0  0  0
 14 13  1  0  0  0  0
 17 11  1  0  0  0  0
 21 14  1  0  0  0  0
 22 14  1  0  0  0  0
 23 13  1  0  0  0  0
 23 24  1  0  0  0  0
 25 23  1  0  0  0  0
 26 23  1  0  0  0  0
 27 32  2  0  0  0  0
 27 28  1  0  0  0  0
 28 29  2  0  0  0  0
 29 34  1  0  0  0  0
 29 30  1  0  0  0  0
 30 35  1  0  0  0  0
 31 38  1  0  0  0  0
 31 30  2  0  0  0  0
 32 31  1  0  0  0  0
 33 28  1  0  0  0  0
 36 37  1  0  0  0  0
 37 44  2  0  0  0  0
 37 38  1  0  0  0  0
 38 39  2  0  0  0  0
 39 41  1  0  0  0  0
 39 40  1  0  0  0  0
 41 42  1  0  0  0  0
 43 41  2  0  0  0  0
 44 43  1  0  0  0  0
M  END
>  <minimizedAffinity>
-6.43501043

$$$$

 OpenBabel03242522093D

 44 47  0  0  1  0  0  0  0  0999 V2000
   36.7110   32.0500   40.1200 C   0  0  0  0  0  0  0  0  0  0  0  0
   37.9030   32.7770   39.9640 C   0  0  0  0  0  0  0  0  0  0  0  0
   39.0790   32.2380   40.4820 C   0  0  0  0  0  0  0  0  0  0  0  0
   38.9690   31.0360   41.1040 N   0  0  0  0  0  0  0  0  0  0  0  0
   37.8230   30.3560   41.2430 C   0  0  0  0  0  0  0  0  0  0  0  0
   36.6790   30.8860   40.7360 N   0  0  0  0  0  0  0  0  0  0  0  0
   35.8410   32.5360   39.6900 H   0  0  0  0  0  0  0  0  0  0  0  0
   38.0070   33.7310   39.4740 H   0  0  0  0  0  0  0  0  0  0  0  0
   40.3610   32.8560   40.4030 N   0  0  0  0  0  0  0  0  0  0  0  0
   41.4990   32.2600   41.0870 C   0  0  0  0  0  0  0  0  0  0  0  0
   42.5970   33.2630   41.3110 C   0  0  0  0  0  0  0  0  0  0  0  0
   42.9630   34.0050   40.1690 N   0  0  0  0  0  0  0  0  0  0  0  0
   41.9300   34.3510   39.2600 C   0  0  2  0  0  0  0  0  0  0  0  0
   40.5430   34.0590   39.6540 C   0  0  0  0  0  0  0  0  0  0  0  0
   41.1380   31.9640   42.1080 H   0  0  0  0  0  0  0  0  0  0  0  0
   41.8590   31.3390   40.5940 H   0  0  0  0  0  0  0  0  0  0  0  0
   42.3150   33.9210   42.1700 H   0  0  0  0  0  0  0  0  0  0  0  0
   43.4950   32.6960   41.6570 H   0  0  0  0  0  0  0  0  0  0  0  0
   43.5510   34.8140   40.4690 H   0  0  0  0  0  0  0  0  0  0  0  0
   42.0210   35.4470   39.0340 H   0  0  0  0  0  0  0  0  0  0  0  0
   39.9250   33.9660   38.7230 H   0  0  0  0  0  0  0  0  0  0  0  0
   40.1050   34.9110   40.2050 H   0  0  0  0  0  0  0  0  0  0  0  0
   42.1950   33.6490   37.9380 C   0  0  0  0  0  0  0  0  0  0  0  0
   43.1360   32.6440   38.1170 F   0  0  0  0  0  0  0  0  0  0  0  0
   42.7680   34.5950   37.1090 F   0  0  0  0  0  0  0  0  0  0  0  0
   41.0740   33.0900   37.3860 F   0  0  0  0  0  0  0  0  0  0  0  0
   37.7850   29.0740   41.9210 C   0  0  0  0  0  0  0  0  0  0  0  0
   37.7340   29.0190   43.3010 C   0  0  0  0  0  0  0  0  0  0  0  0
   37.7000   27.7500   43.8810 C   0  0  0  0  0  0  0  0  0  0  0  0
   37.7200   26.6690   43.0390 C   0  0  0  0  0  0  0  0  0  0  0  0
   37.7720   26.7110   41.6730 C   0  0  0  0  0  0  0  0  0  0  0  0
   37.8040   27.9630   41.1500 N   0  0  0  0  0  0  0  0  0  0  0  0
   37.7210   29.9270   43.8760 H   0  0  0  0  0  0  0  0  0  0  0  0
   37.6600   27.7120   44.9440 H   0  0  0  0  0  0  0  0  0  0  0  0
   37.6930   25.7120   43.5380 H   0  0  0  0  0  0  0  0  0  0  0  0
   40.5400   25.6640   40.9810 Cl  0  0  0  0  0  0  0  0  0  0  0  0
   39.0130   25.0030   40.4550 C   0  0  0  0  0  0  0  0  0  0  0  0
   37.7920   25.5360   40.8130 C   0  0  0  0  0  0  0  0  0  0  0  0
   36.6670   24.9320   40.3390 C   0  0  0  0  0  0  0  0  0  0  0  0
   35.6880   25.3110   40.5910 H   0  0  0  0  0  0  0  0  0  0  0  0
   36.6550   23.8190   39.5220 C   0  0  0  0  0  0  0  0  0  0  0  0
   35.7440   23.3690   39.1690 H   0  0  0  0  0  0  0  0  0  0  0  0
   37.8780   23.2710   39.1530 C   0  0  0  0  0  3  0  0  0  0  0  0
   39.0410   23.8790   39.6300 C   0  0  0  0  0  3  0  0  0  0  0  0
  1  6  1  0  0  0  0
  2  1  2  0  0  0  0
  2  3  1  0  0  0  0
  3  4  2  0  0  0  0
  4  5  1  0  0  0  0
  5 27  1  0  0  0  0
  6  5  2  0  0  0  0
  7  1  1  0  0  0  0
  8  2  1  0  0  0  0
  9  3  1  0  0  0  0
  9 10  1  0  0  0  0
 10 11  1  0  0  0  0
 10 15  1  0  0  0  0
 11 18  1  0  0  0  0
 11 17  1  0  0  0  0
 12 19  1  0  0  0  0
 12 11  1  0  0  0  0
 13 20  1  6  0  0  0
 13 14  1  0  0  0  0
 13 12  1  0  0  0  0
 14 22  1  0  0  0  0
 14  9  1  0  0  0  0
 16 10  1  0  0  0  0
 21 14  1  0  0  0  0
 23 24  1  0  0  0  0
 23 13  1  0  0  0  0
 25 23  1  0  0  0  0
 26 23  1  0  0  0  0
 27 28  1  0  0  0  0
 28 33  1  0  0  0  0
 28 29  2  0  0  0  0
 29 34  1  0  0  0  0
 30 35  1  0  0  0  0
 30 29  1  0  0  0  0
 31 30  2  0  0  0  0
 32 31  1  0  0  0  0
 32 27  2  0  0  0  0
 37 38  1  0  0  0  0
 37 36  1  0  0  0  0
 38 31  1  0  0  0  0
 39 40  1  0  0  0  0
 39 38  2  0  0  0  0
 41 39  1  0  0  0  0
 42 41  1  0  0  0  0
 43 41  2  0  0  0  0
 43 44  1  0  0  0  0
 44 37  2  0  0  0  0
M  END
>  <minimizedAffinity>
-6.42485428

$$$$
