
 OpenBabel03252509163D

 25 27  0  0  0  0  0  0  0  0999 V2000
   47.5450   32.5580   43.8910 C   0  0  0  0  0  0  0  0  0  0  0  0
   46.8810   32.8760   45.1070 C   0  0  0  0  0  0  0  0  0  0  0  0
   46.6860   31.8920   46.0100 C   0  0  0  0  0  0  0  0  0  0  0  0
   47.1320   30.5800   45.7480 C   0  0  0  0  0  0  0  0  0  0  0  0
   47.8700   30.8030   44.1010 S   0  0  0  0  0  0  0  0  0  0  0  0
   46.5580   33.9190   45.2520 H   0  0  0  0  0  0  0  0  0  0  0  0
   46.1860   32.1230   46.9330 H   0  0  0  0  0  0  0  0  0  0  0  0
   47.4790   34.6820   40.8440 C   0  0  0  0  0  0  0  0  0  0  0  0
   48.6770   35.4140   41.0410 C   0  0  0  0  0  0  0  0  0  0  0  0
   49.4330   35.1420   42.1980 C   0  0  0  0  0  0  0  0  0  0  0  0
   48.9710   34.1890   43.0660 N   0  0  0  0  0  0  0  0  0  0  0  0
   47.8210   33.5190   42.8280 C   0  0  0  0  0  0  0  0  0  0  0  0
   47.0770   33.7640   41.7200 N   0  0  0  0  0  0  0  0  0  0  0  0
   46.8820   34.8700   39.9650 H   0  0  0  0  0  0  0  0  0  0  0  0
   49.0020   36.1660   40.3160 H   0  0  0  0  0  0  0  0  0  0  0  0
   50.3480   35.6750   42.3870 H   0  0  0  0  0  0  0  0  0  0  0  0
   44.4590   29.1770   46.3010 Cl  0  0  0  0  0  0  0  0  0  0  0  0
   46.0380   28.5790   46.7360 C   0  0  0  0  0  0  0  0  0  0  0  0
   47.1140   29.3670   46.3950 C   0  0  0  0  0  0  0  0  0  0  0  0
   48.3190   28.7770   46.7980 C   0  0  0  0  0  0  0  0  0  0  0  0
   49.2910   29.2530   46.6150 H   0  0  0  0  0  0  0  0  0  0  0  0
   48.4220   27.5710   47.4490 C   0  0  0  0  0  0  0  0  0  0  0  0
   49.3720   27.1520   47.7430 H   0  0  0  0  0  0  0  0  0  0  0  0
   47.2700   26.8790   47.7340 C   0  0  0  0  0  3  0  0  0  0  0  0
   46.0290   27.3640   47.3840 C   0  0  0  0  0  3  0  0  0  0  0  0
  1  5  1  0  0  0  0
  1  2  2  0  0  0  0
  2  6  1  0  0  0  0
  2  3  1  0  0  0  0
  3  7  1  0  0  0  0
  4  3  2  0  0  0  0
  4 19  1  0  0  0  0
  5  4  1  0  0  0  0
  8  9  2  0  0  0  0
  8 13  1  0  0  0  0
  9 10  1  0  0  0  0
 10 16  1  0  0  0  0
 10 11  2  0  0  0  0
 12 11  1  0  0  0  0
 12  1  1  0  0  0  0
 13 12  2  0  0  0  0
 14  8  1  0  0  0  0
 15  9  1  0  0  0  0
 17 18  1  0  0  0  0
 18 25  1  0  0  0  0
 19 18  2  0  0  0  0
 19 20  1  0  0  0  0
 20 22  2  0  0  0  0
 21 20  1  0  0  0  0
 22 24  1  0  0  0  0
 22 23  1  0  0  0  0
 25 24  2  0  0  0  0
M  END
>  <minimizedAffinity>
-4.02222395

>  <minimizedRMSD>
3.47619224

$$$$
