
 OpenBabel03252505073D

 43 46  0  0  1  0  0  0  0  0999 V2000
   44.5700   35.5600   44.6530 C   0  0  0  0  0  0  0  0  0  0  0  0
   45.2410   35.5890   43.4110 C   0  0  0  0  0  0  0  0  0  0  0  0
   46.3420   34.6920   43.2330 C   0  0  0  0  0  0  0  0  0  0  0  0
   46.6810   33.8700   44.2520 N   0  0  0  0  0  0  0  0  0  0  0  0
   46.0150   33.8760   45.4200 C   0  0  0  0  0  0  0  0  0  0  0  0
   44.9540   34.7190   45.6290 N   0  0  0  0  0  0  0  0  0  0  0  0
   43.7330   36.2280   44.8160 H   0  0  0  0  0  0  0  0  0  0  0  0
   44.9230   36.2660   42.6410 H   0  0  0  0  0  0  0  0  0  0  0  0
   46.4420   32.9490   46.5040 C   0  0  2  0  0  0  0  0  0  0  0  0
   46.9690   31.7240   45.8080 C   0  0  0  0  0  0  0  0  0  0  0  0
   46.0940   30.5380   45.8100 C   0  0  0  0  0  0  0  0  0  0  0  0
   45.7890   30.2710   47.2820 C   0  0  0  0  0  0  0  0  0  0  0  0
   45.0050   31.3320   47.8910 C   0  0  0  0  0  0  0  0  0  0  0  0
   45.3800   32.7080   47.4550 C   0  0  0  0  0  0  0  0  0  0  0  0
   47.2810   33.4740   47.0130 H   0  0  0  0  0  0  0  0  0  0  0  0
   47.9230   31.4400   46.2990 H   0  0  0  0  0  0  0  0  0  0  0  0
   47.2720   31.9330   44.7430 H   0  0  0  0  0  0  0  0  0  0  0  0
   45.1550   30.6510   45.2530 H   0  0  0  0  0  0  0  0  0  0  0  0
   46.6530   29.6790   45.4430 H   0  0  0  0  0  0  0  0  0  0  0  0
   46.7400   30.1210   47.8310 H   0  0  0  0  0  0  0  0  0  0  0  0
   45.1540   29.3730   47.2800 H   0  0  0  0  0  0  0  0  0  0  0  0
   44.1940   31.3210   48.6060 H   0  0  0  0  0  0  0  0  0  0  0  0
   44.6870   33.8520   47.9750 N   0  0  0  0  0  0  0  0  0  0  0  0
   43.7140   33.9770   47.6370 H   0  0  0  0  0  0  0  0  0  0  0  0
   45.2450   34.4290   48.6370 H   0  0  0  0  0  0  0  0  0  0  0  0
   47.0520   34.7000   41.9640 C   0  0  0  0  0  0  0  0  0  0  0  0
   48.1930   35.4220   41.8620 C   0  0  0  0  0  0  0  0  0  0  0  0
   48.8380   35.4020   40.6210 C   0  0  0  0  0  0  0  0  0  0  0  0
   48.2530   34.6510   39.6250 C   0  0  0  0  0  0  0  0  0  0  0  0
   47.1070   33.9270   39.7320 C   0  0  0  0  0  0  0  0  0  0  0  0
   46.5100   33.9770   40.9670 N   0  0  0  0  0  0  0  0  0  0  0  0
   48.5950   35.9920   42.6960 H   0  0  0  0  0  0  0  0  0  0  0  0
   49.7540   35.9560   40.4690 H   0  0  0  0  0  0  0  0  0  0  0  0
   48.7790   34.6590   38.6830 H   0  0  0  0  0  0  0  0  0  0  0  0
   48.1520   34.5470   37.0440 Cl  0  0  0  0  0  0  0  0  0  0  0  0
   46.9130   33.3410   37.3640 C   0  0  0  0  0  0  0  0  0  0  0  0
   46.5020   33.1370   38.6640 C   0  0  0  0  0  0  0  0  0  0  0  0
   45.5310   32.1930   38.9160 C   0  0  0  0  0  0  0  0  0  0  0  0
   45.1790   32.0000   39.9180 H   0  0  0  0  0  0  0  0  0  0  0  0
   44.9470   31.4350   37.9120 C   0  0  0  0  0  0  0  0  0  0  0  0
   44.1760   30.6880   38.1290 H   0  0  0  0  0  0  0  0  0  0  0  0
   45.3600   31.6430   36.6220 C   0  0  0  0  0  0  0  0  0  0  0  0
   46.3310   32.5830   36.3400 C   0  0  0  0  0  0  0  0  0  0  0  0
  1  7  1  0  0  0  0
  1  6  1  0  0  0  0
  2  1  2  0  0  0  0
  3  2  1  0  0  0  0
  3  4  2  0  0  0  0
  4  5  1  0  0  0  0
  5  6  2  0  0  0  0
  5  9  1  0  0  0  0
  8  2  1  0  0  0  0
  9 15  1  1  0  0  0
  9 14  1  0  0  0  0
 10 11  1  0  0  0  0
 10 16  1  0  0  0  0
 10  9  1  0  0  0  0
 11 12  1  0  0  0  0
 12 20  1  0  0  0  0
 12 13  1  0  0  0  0
 13 22  1  0  0  0  0
 14 13  2  0  0  0  0
 14 23  1  0  0  0  0
 17 10  1  0  0  0  0
 18 11  1  0  0  0  0
 19 11  1  0  0  0  0
 21 12  1  0  0  0  0
 23 25  1  0  0  0  0
 24 23  1  0  0  0  0
 26  3  1  0  0  0  0
 27 26  1  0  0  0  0
 27 32  1  0  0  0  0
 28 27  2  0  0  0  0
 29 30  2  0  0  0  0
 29 28  1  0  0  0  0
 30 31  1  0  0  0  0
 31 26  2  0  0  0  0
 33 28  1  0  0  0  0
 34 29  1  0  0  0  0
 35 36  1  0  0  0  0
 36 37  1  0  0  0  0
 37 38  2  0  0  0  0
 37 30  1  0  0  0  0
 38 39  1  0  0  0  0
 40 41  1  0  0  0  0
 40 38  1  0  0  0  0
 42 40  2  0  0  0  0
 43 42  1  0  0  0  0
 43 36  2  0  0  0  0
M  END
>  <minimizedAffinity>
-7.7517705

>  <minimizedRMSD>
0.121236034

$$$$
