
 OpenBabel03242521063D

 34 37  0  0  1  0  0  0  0  0999 V2000
   39.2740   32.0620   40.9040 C   0  0  0  0  0  0  0  0  0  0  0  0
   38.2350   32.7100   40.2660 C   0  0  0  0  0  0  0  0  0  0  0  0
   36.9490   32.2440   40.1610 C   0  0  0  0  0  0  0  0  0  0  0  0
   36.6440   31.0280   40.7310 C   0  0  0  0  0  0  0  0  0  0  0  0
   37.6820   30.3860   41.3630 C   0  0  0  0  0  0  0  0  0  0  0  0
   38.9170   30.8810   41.4400 N   0  0  0  0  0  0  0  0  0  0  0  0
   38.4250   33.6750   39.7990 H   0  0  0  0  0  0  0  0  0  0  0  0
   36.1900   32.8120   39.6450 H   0  0  0  0  0  0  0  0  0  0  0  0
   35.6230   30.6850   40.6330 H   0  0  0  0  0  0  0  0  0  0  0  0
   42.3790   34.1510   40.4980 C   0  0  0  0  0  0  0  0  0  0  0  0
   41.0430   33.7490   40.3220 C   0  0  0  0  0  0  0  0  0  0  0  0
   40.6190   32.5960   40.9880 C   0  0  0  0  0  0  0  0  0  0  0  0
   41.4990   31.9340   41.7550 N   0  0  0  0  0  0  0  0  0  0  0  0
   42.7820   32.3440   41.9050 C   0  0  0  0  0  0  0  0  0  0  0  0
   43.2010   33.4480   41.2720 N   0  0  0  0  0  0  0  0  0  0  0  0
   42.6350   35.0500   39.9530 H   0  0  0  0  0  0  0  0  0  0  0  0
   40.3060   34.2730   39.7030 H   0  0  0  0  0  0  0  0  0  0  0  0
   43.4230   31.7470   42.5440 H   0  0  0  0  0  0  0  0  0  0  0  0
   37.3780   29.0710   41.9880 C   0  0  2  0  0  0  0  0  0  0  0  0
   37.6990   28.9510   43.4390 C   0  0  0  0  0  0  0  0  0  0  0  0
   38.4790   28.2020   42.3940 C   0  0  1  0  0  0  0  0  0  0  0  0
   36.3910   28.6080   41.7220 H   0  0  0  0  0  0  0  0  0  0  0  0
   38.2820   29.7830   43.9130 H   0  0  0  0  0  0  0  0  0  0  0  0
   37.1200   28.3110   44.1180 H   0  0  0  0  0  0  0  0  0  0  0  0
   39.4950   28.5420   42.1150 H   0  0  0  0  0  0  0  0  0  0  0  0
   40.6180   26.6350   43.6790 Cl  0  0  0  0  0  0  0  0  0  0  0  0
   39.2310   25.9450   42.8580 C   0  0  0  0  0  0  0  0  0  0  0  0
   38.2640   26.7370   42.2760 C   0  0  0  0  0  0  0  0  0  0  0  0
   37.1790   26.1490   41.6330 C   0  0  0  0  0  0  0  0  0  0  0  0
   36.4530   26.7860   41.1970 H   0  0  0  0  0  0  0  0  0  0  0  0
   37.0860   24.7710   41.5880 C   0  0  0  0  0  0  0  0  0  0  0  0
   36.2520   24.2990   41.0950 H   0  0  0  0  0  0  0  0  0  0  0  0
   38.0730   24.0220   42.1810 C   0  0  0  0  0  3  0  0  0  0  0  0
   39.1860   24.5480   42.8410 C   0  0  0  0  0  3  0  0  0  0  0  0
  1 12  1  0  0  0  0
  1  6  1  0  0  0  0
  2  1  2  0  0  0  0
  3  2  1  0  0  0  0
  3  4  2  0  0  0  0
  4  5  1  0  0  0  0
  5  6  2  0  0  0  0
  5 19  1  0  0  0  0
  7  2  1  0  0  0  0
  8  3  1  0  0  0  0
  9  4  1  0  0  0  0
 10 15  1  0  0  0  0
 11 10  2  0  0  0  0
 11 12  1  0  0  0  0
 12 13  2  0  0  0  0
 13 14  1  0  0  0  0
 14 18  1  0  0  0  0
 15 14  2  0  0  0  0
 16 10  1  0  0  0  0
 17 11  1  0  0  0  0
 19 22  1  6  0  0  0
 19 21  1  0  0  0  0
 19 20  1  0  0  0  0
 20 23  1  0  0  0  0
 20 24  1  0  0  0  0
 21 25  1  6  0  0  0
 21 20  1  0  0  0  0
 27 26  1  0  0  0  0
 28 21  1  0  0  0  0
 28 27  2  0  0  0  0
 29 28  1  0  0  0  0
 30 29  1  0  0  0  0
 31 29  2  0  0  0  0
 31 33  1  0  0  0  0
 32 31  1  0  0  0  0
 33 34  2  0  0  0  0
 34 27  1  0  0  0  0
M  END
>  <minimizedAffinity>
-5.99842167

$$$$

 OpenBabel03242521063D

 34 37  0  0  1  0  0  0  0  0999 V2000
   38.5800   24.9130   41.9640 C   0  0  0  0  0  0  0  0  0  0  0  0
   39.5790   24.4630   42.8040 C   0  0  0  0  0  0  0  0  0  0  0  0
   40.3230   25.2470   43.6500 C   0  0  0  0  0  0  0  0  0  0  0  0
   40.0710   26.6010   43.6800 C   0  0  0  0  0  0  0  0  0  0  0  0
   39.0770   27.0430   42.8400 C   0  0  0  0  0  0  0  0  0  0  0  0
   38.3800   26.2410   42.0360 N   0  0  0  0  0  0  0  0  0  0  0  0
   39.8160   23.4000   42.8180 H   0  0  0  0  0  0  0  0  0  0  0  0
   41.0880   24.8190   44.2780 H   0  0  0  0  0  0  0  0  0  0  0  0
   40.6730   27.1940   44.3550 H   0  0  0  0  0  0  0  0  0  0  0  0
   35.9070   23.3850   39.7990 C   0  0  0  0  0  0  0  0  0  0  0  0
   36.5220   24.3200   40.6490 C   0  0  0  0  0  0  0  0  0  0  0  0
   37.8200   24.0440   41.0870 C   0  0  0  0  0  0  0  0  0  0  0  0
   38.4110   22.9100   40.6800 N   0  0  0  0  0  0  0  0  0  0  0  0
   37.7930   22.0250   39.8600 C   0  0  0  0  0  0  0  0  0  0  0  0
   36.5480   22.2780   39.4330 N   0  0  0  0  0  0  0  0  0  0  0  0
   34.9050   23.6650   39.5020 H   0  0  0  0  0  0  0  0  0  0  0  0
   36.0620   25.2520   40.9950 H   0  0  0  0  0  0  0  0  0  0  0  0
   38.3450   21.1360   39.5820 H   0  0  0  0  0  0  0  0  0  0  0  0
   38.7850   28.5020   42.8550 C   0  0  2  0  0  0  0  0  0  0  0  0
   37.4330   28.8890   43.3510 C   0  0  0  0  0  0  0  0  0  0  0  0
   37.8180   29.0450   41.9060 C   0  0  1  0  0  0  0  0  0  0  0  0
   39.5980   29.1700   43.2440 H   0  0  0  0  0  0  0  0  0  0  0  0
   36.6890   28.0700   43.5240 H   0  0  0  0  0  0  0  0  0  0  0  0
   37.2490   29.8360   43.8760 H   0  0  0  0  0  0  0  0  0  0  0  0
   37.4260   28.3370   41.1510 H   0  0  0  0  0  0  0  0  0  0  0  0
   35.5620   30.1020   40.3320 Cl  0  0  0  0  0  0  0  0  0  0  0  0
   37.0510   30.9700   40.6470 C   0  0  0  0  0  0  0  0  0  0  0  0
   38.0710   30.4170   41.3930 C   0  0  0  0  0  0  0  0  0  0  0  0
   39.2370   31.1410   41.6190 C   0  0  0  0  0  0  0  0  0  0  0  0
   40.0010   30.6860   42.1970 H   0  0  0  0  0  0  0  0  0  0  0  0
   39.3580   32.4110   41.0900 C   0  0  0  0  0  0  0  0  0  0  0  0
   40.2540   32.9860   41.2560 H   0  0  0  0  0  0  0  0  0  0  0  0
   38.3170   32.9220   40.3530 C   0  0  0  0  0  3  0  0  0  0  0  0
   37.1210   32.2500   40.0890 C   0  0  0  0  0  3  0  0  0  0  0  0
  1  6  2  0  0  0  0
  1  2  1  0  0  0  0
  2  7  1  0  0  0  0
  2  3  2  0  0  0  0
  3  4  1  0  0  0  0
  3  8  1  0  0  0  0
  4  9  1  0  0  0  0
  5 19  1  0  0  0  0
  5  4  2  0  0  0  0
  6  5  1  0  0  0  0
 10 11  1  0  0  0  0
 11 17  1  0  0  0  0
 11 12  2  0  0  0  0
 12  1  1  0  0  0  0
 13 12  1  0  0  0  0
 14 13  2  0  0  0  0
 15 10  2  0  0  0  0
 15 14  1  0  0  0  0
 16 10  1  0  0  0  0
 18 14  1  0  0  0  0
 19 22  1  1  0  0  0
 19 20  1  0  0  0  0
 20 23  1  0  0  0  0
 20 24  1  0  0  0  0
 21 25  1  6  0  0  0
 21 19  1  0  0  0  0
 21 20  1  0  0  0  0
 26 27  1  0  0  0  0
 27 28  1  0  0  0  0
 28 29  2  0  0  0  0
 28 21  1  0  0  0  0
 29 30  1  0  0  0  0
 31 32  1  0  0  0  0
 31 29  1  0  0  0  0
 33 31  2  0  0  0  0
 34 33  1  0  0  0  0
 34 27  2  0  0  0  0
M  END
>  <minimizedAffinity>
-5.94534826

$$$$

 OpenBabel03242521063D

 34 37  0  0  1  0  0  0  0  0999 V2000
   39.4320   31.9650   38.9350 C   0  0  0  0  0  0  0  0  0  0  0  0
   38.8170   33.0340   39.5570 C   0  0  0  0  0  0  0  0  0  0  0  0
   37.6200   32.9880   40.2250 C   0  0  0  0  0  0  0  0  0  0  0  0
   36.9550   31.7840   40.2940 C   0  0  0  0  0  0  0  0  0  0  0  0
   37.5700   30.7230   39.6730 C   0  0  0  0  0  0  0  0  0  0  0  0
   38.7370   30.8190   39.0360 N   0  0  0  0  0  0  0  0  0  0  0  0
   39.3040   34.0080   39.5300 H   0  0  0  0  0  0  0  0  0  0  0  0
   37.2040   33.8690   40.6870 H   0  0  0  0  0  0  0  0  0  0  0  0
   36.0140   31.7760   40.8270 H   0  0  0  0  0  0  0  0  0  0  0  0
   42.6230   33.2060   37.3720 C   0  0  0  0  0  0  0  0  0  0  0  0
   41.4030   33.2610   38.0680 C   0  0  0  0  0  0  0  0  0  0  0  0
   40.7000   32.0650   38.2400 C   0  0  0  0  0  0  0  0  0  0  0  0
   41.2180   30.9340   37.7360 N   0  0  0  0  0  0  0  0  0  0  0  0
   42.3970   30.9110   37.0690 C   0  0  0  0  0  0  0  0  0  0  0  0
   43.0810   32.0510   36.8970 N   0  0  0  0  0  0  0  0  0  0  0  0
   43.1100   34.1680   37.2780 H   0  0  0  0  0  0  0  0  0  0  0  0
   40.9600   34.1700   38.4890 H   0  0  0  0  0  0  0  0  0  0  0  0
   42.7400   29.9530   36.6970 H   0  0  0  0  0  0  0  0  0  0  0  0
   36.8720   29.4110   39.7340 C   0  0  2  0  0  0  0  0  0  0  0  0
   35.5680   29.4030   40.4590 C   0  0  0  0  0  0  0  0  0  0  0  0
   36.7830   28.7100   41.0110 C   0  0  1  0  0  0  0  0  0  0  0  0
   36.8440   28.8150   38.7840 H   0  0  0  0  0  0  0  0  0  0  0  0
   35.2860   30.3240   41.0310 H   0  0  0  0  0  0  0  0  0  0  0  0
   34.7470   28.7280   40.1820 H   0  0  0  0  0  0  0  0  0  0  0  0
   37.3390   29.1620   41.8550 H   0  0  0  0  0  0  0  0  0  0  0  0
   37.1470   27.5140   43.6800 Cl  0  0  0  0  0  0  0  0  0  0  0  0
   36.9880   26.6030   42.1910 C   0  0  0  0  0  0  0  0  0  0  0  0
   36.8200   27.2250   40.9720 C   0  0  0  0  0  0  0  0  0  0  0  0
   36.6980   26.4640   39.8140 C   0  0  0  0  0  0  0  0  0  0  0  0
   36.5690   26.9750   38.8940 H   0  0  0  0  0  0  0  0  0  0  0  0
   36.7480   25.0870   39.9030 C   0  0  0  0  0  0  0  0  0  0  0  0
   36.6550   24.4810   39.0160 H   0  0  0  0  0  0  0  0  0  0  0  0
   36.9180   24.5090   41.1380 C   0  0  0  0  0  3  0  0  0  0  0  0
   37.0460   25.2130   42.3370 C   0  0  0  0  0  3  0  0  0  0  0  0
  1  6  2  0  0  0  0
  1  2  1  0  0  0  0
  2  3  2  0  0  0  0
  3  4  1  0  0  0  0
  3  8  1  0  0  0  0
  4  9  1  0  0  0  0
  5 19  1  0  0  0  0
  5  4  2  0  0  0  0
  6  5  1  0  0  0  0
  7  2  1  0  0  0  0
 10 11  1  0  0  0  0
 11 12  2  0  0  0  0
 11 17  1  0  0  0  0
 12  1  1  0  0  0  0
 13 12  1  0  0  0  0
 14 13  2  0  0  0  0
 15 14  1  0  0  0  0
 15 10  2  0  0  0  0
 16 10  1  0  0  0  0
 18 14  1  0  0  0  0
 19 22  1  6  0  0  0
 19 20  1  0  0  0  0
 19 21  1  0  0  0  0
 20 21  1  0  0  0  0
 20 23  1  0  0  0  0
 21 25  1  1  0  0  0
 24 20  1  0  0  0  0
 27 34  1  0  0  0  0
 27 26  1  0  0  0  0
 28 21  1  0  0  0  0
 28 27  2  0  0  0  0
 29 31  2  0  0  0  0
 29 28  1  0  0  0  0
 30 29  1  0  0  0  0
 31 33  1  0  0  0  0
 32 31  1  0  0  0  0
 33 34  2  0  0  0  0
M  END
>  <minimizedAffinity>
-5.868783

$$$$

 OpenBabel03242521063D

 34 37  0  0  1  0  0  0  0  0999 V2000
   39.0860   31.3970   39.1200 C   0  0  0  0  0  0  0  0  0  0  0  0
   38.1720   32.4300   39.1940 C   0  0  0  0  0  0  0  0  0  0  0  0
   37.0280   32.4300   39.9500 C   0  0  0  0  0  0  0  0  0  0  0  0
   36.7430   31.3150   40.7070 C   0  0  0  0  0  0  0  0  0  0  0  0
   37.6550   30.2890   40.6290 C   0  0  0  0  0  0  0  0  0  0  0  0
   38.7550   30.3380   39.8790 N   0  0  0  0  0  0  0  0  0  0  0  0
   38.3530   33.3340   38.6140 H   0  0  0  0  0  0  0  0  0  0  0  0
   36.3620   33.2790   39.9560 H   0  0  0  0  0  0  0  0  0  0  0  0
   35.8340   31.3420   41.2940 H   0  0  0  0  0  0  0  0  0  0  0  0
   42.0690   30.5130   37.0010 C   0  0  0  0  0  0  0  0  0  0  0  0
   40.9120   30.3150   37.7750 C   0  0  0  0  0  0  0  0  0  0  0  0
   40.2840   31.4450   38.3040 C   0  0  0  0  0  0  0  0  0  0  0  0
   40.8090   32.6530   38.0510 N   0  0  0  0  0  0  0  0  0  0  0  0
   41.9270   32.8150   37.3010 C   0  0  0  0  0  0  0  0  0  0  0  0
   42.5390   31.7390   36.7870 N   0  0  0  0  0  0  0  0  0  0  0  0
   42.5000   29.5940   36.6260 H   0  0  0  0  0  0  0  0  0  0  0  0
   40.4640   29.3390   37.9960 H   0  0  0  0  0  0  0  0  0  0  0  0
   42.2800   33.8280   37.1480 H   0  0  0  0  0  0  0  0  0  0  0  0
   37.3700   29.0740   41.4380 C   0  0  2  0  0  0  0  0  0  0  0  0
   37.7350   29.1550   42.8820 C   0  0  0  0  0  0  0  0  0  0  0  0
   38.4830   28.2660   41.9280 C   0  0  1  0  0  0  0  0  0  0  0  0
   36.3760   28.5820   41.2690 H   0  0  0  0  0  0  0  0  0  0  0  0
   38.3300   30.0430   43.2180 H   0  0  0  0  0  0  0  0  0  0  0  0
   37.1760   28.6170   43.6600 H   0  0  0  0  0  0  0  0  0  0  0  0
   39.4900   28.5600   41.5750 H   0  0  0  0  0  0  0  0  0  0  0  0
   40.7110   26.8710   43.2590 Cl  0  0  0  0  0  0  0  0  0  0  0  0
   39.2740   26.0870   42.6340 C   0  0  0  0  0  0  0  0  0  0  0  0
   38.2660   26.8000   42.0210 C   0  0  0  0  0  0  0  0  0  0  0  0
   37.1410   26.1380   41.5380 C   0  0  0  0  0  0  0  0  0  0  0  0
   36.3850   26.7160   41.0720 H   0  0  0  0  0  0  0  0  0  0  0  0
   37.0510   24.7670   41.6820 C   0  0  0  0  0  0  0  0  0  0  0  0
   36.1860   24.2380   41.3150 H   0  0  0  0  0  0  0  0  0  0  0  0
   38.0790   24.0970   42.3000 C   0  0  0  0  0  3  0  0  0  0  0  0
   39.2330   24.7000   42.8060 C   0  0  0  0  0  3  0  0  0  0  0  0
  1  2  2  0  0  0  0
  1  6  1  0  0  0  0
  2  3  1  0  0  0  0
  3  8  1  0  0  0  0
  3  4  2  0  0  0  0
  4  9  1  0  0  0  0
  5  4  1  0  0  0  0
  5 19  1  0  0  0  0
  6  5  2  0  0  0  0
  7  2  1  0  0  0  0
 10 11  1  0  0  0  0
 11 17  1  0  0  0  0
 11 12  2  0  0  0  0
 12  1  1  0  0  0  0
 13 12  1  0  0  0  0
 14 13  2  0  0  0  0
 15 10  2  0  0  0  0
 15 14  1  0  0  0  0
 16 10  1  0  0  0  0
 18 14  1  0  0  0  0
 19 22  1  6  0  0  0
 19 21  1  0  0  0  0
 19 20  1  0  0  0  0
 20 23  1  0  0  0  0
 20 24  1  0  0  0  0
 21 25  1  6  0  0  0
 21 28  1  0  0  0  0
 21 20  1  0  0  0  0
 27 34  1  0  0  0  0
 27 26  1  0  0  0  0
 28 27  2  0  0  0  0
 29 31  2  0  0  0  0
 29 28  1  0  0  0  0
 30 29  1  0  0  0  0
 31 33  1  0  0  0  0
 32 31  1  0  0  0  0
 33 34  2  0  0  0  0
M  END
>  <minimizedAffinity>
-5.70008898

$$$$

 OpenBabel03242521063D

 34 37  0  0  1  0  0  0  0  0999 V2000
   39.8370   32.4770   39.9540 C   0  0  0  0  0  0  0  0  0  0  0  0
   39.0620   33.6200   39.9120 C   0  0  0  0  0  0  0  0  0  0  0  0
   37.6930   33.6520   39.8370 C   0  0  0  0  0  0  0  0  0  0  0  0
   37.0100   32.4570   39.7970 C   0  0  0  0  0  0  0  0  0  0  0  0
   37.7860   31.3230   39.8380 C   0  0  0  0  0  0  0  0  0  0  0  0
   39.1160   31.3430   39.9120 N   0  0  0  0  0  0  0  0  0  0  0  0
   39.5550   34.5900   39.9410 H   0  0  0  0  0  0  0  0  0  0  0  0
   37.1580   34.5890   39.8090 H   0  0  0  0  0  0  0  0  0  0  0  0
   35.9310   32.5130   39.7390 H   0  0  0  0  0  0  0  0  0  0  0  0
   43.4740   31.5160   40.0710 C   0  0  0  0  0  0  0  0  0  0  0  0
   42.0810   31.3470   39.9820 C   0  0  0  0  0  0  0  0  0  0  0  0
   41.2850   32.4940   40.0340 C   0  0  0  0  0  0  0  0  0  0  0  0
   41.8810   33.6890   40.1650 N   0  0  0  0  0  0  0  0  0  0  0  0
   43.2270   33.8220   40.2490 C   0  0  0  0  0  0  0  0  0  0  0  0
   44.0030   32.7290   40.2000 N   0  0  0  0  0  0  0  0  0  0  0  0
   44.0260   30.5860   40.0240 H   0  0  0  0  0  0  0  0  0  0  0  0
   41.5710   30.3840   39.8740 H   0  0  0  0  0  0  0  0  0  0  0  0
   43.6220   34.8250   40.3530 H   0  0  0  0  0  0  0  0  0  0  0  0
   37.0720   30.0190   39.7980 C   0  0  2  0  0  0  0  0  0  0  0  0
   35.7120   30.0030   40.4100 C   0  0  0  0  0  0  0  0  0  0  0  0
   36.8690   29.2780   41.0390 C   0  0  1  0  0  0  0  0  0  0  0  0
   37.1180   29.4530   38.8290 H   0  0  0  0  0  0  0  0  0  0  0  0
   35.3920   30.9090   40.9880 H   0  0  0  0  0  0  0  0  0  0  0  0
   34.9100   29.3480   40.0440 H   0  0  0  0  0  0  0  0  0  0  0  0
   37.3580   29.6950   41.9400 H   0  0  0  0  0  0  0  0  0  0  0  0
   37.1740   27.9950   43.6740 Cl  0  0  0  0  0  0  0  0  0  0  0  0
   37.0360   27.1320   42.1550 C   0  0  0  0  0  0  0  0  0  0  0  0
   36.8950   27.7950   40.9530 C   0  0  0  0  0  0  0  0  0  0  0  0
   36.7880   27.0710   39.7700 C   0  0  0  0  0  0  0  0  0  0  0  0
   36.6800   27.6120   38.8640 H   0  0  0  0  0  0  0  0  0  0  0  0
   36.8250   25.6910   39.8160 C   0  0  0  0  0  0  0  0  0  0  0  0
   36.7430   25.1150   38.9080 H   0  0  0  0  0  0  0  0  0  0  0  0
   36.9670   25.0730   41.0340 C   0  0  0  0  0  3  0  0  0  0  0  0
   37.0790   25.7390   42.2570 C   0  0  0  0  0  3  0  0  0  0  0  0
  1 12  1  0  0  0  0
  2  7  1  0  0  0  0
  2  1  2  0  0  0  0
  3  2  1  0  0  0  0
  4  3  2  0  0  0  0
  4  5  1  0  0  0  0
  5  6  2  0  0  0  0
  6  1  1  0  0  0  0
  8  3  1  0  0  0  0
  9  4  1  0  0  0  0
 10 15  1  0  0  0  0
 11 12  1  0  0  0  0
 11 10  2  0  0  0  0
 12 13  2  0  0  0  0
 13 14  1  0  0  0  0
 14 18  1  0  0  0  0
 15 14  2  0  0  0  0
 16 10  1  0  0  0  0
 17 11  1  0  0  0  0
 19 22  1  6  0  0  0
 19  5  1  0  0  0  0
 19 20  1  0  0  0  0
 19 21  1  0  0  0  0
 20 23  1  0  0  0  0
 20 21  1  0  0  0  0
 21 25  1  1  0  0  0
 24 20  1  0  0  0  0
 27 34  1  0  0  0  0
 27 26  1  0  0  0  0
 28 21  1  0  0  0  0
 28 27  2  0  0  0  0
 29 31  2  0  0  0  0
 29 28  1  0  0  0  0
 30 29  1  0  0  0  0
 31 33  1  0  0  0  0
 32 31  1  0  0  0  0
 33 34  2  0  0  0  0
M  END
>  <minimizedAffinity>
-5.57187319

$$$$

 OpenBabel03242521063D

 34 37  0  0  1  0  0  0  0  0999 V2000
   39.0340   31.4950   39.0420 C   0  0  0  0  0  0  0  0  0  0  0  0
   38.1980   32.5850   39.1860 C   0  0  0  0  0  0  0  0  0  0  0  0
   37.0380   32.6100   39.9170 C   0  0  0  0  0  0  0  0  0  0  0  0
   36.6510   31.4610   40.5720 C   0  0  0  0  0  0  0  0  0  0  0  0
   37.4860   30.3790   40.4250 C   0  0  0  0  0  0  0  0  0  0  0  0
   38.6060   30.4050   39.7030 N   0  0  0  0  0  0  0  0  0  0  0  0
   38.4600   33.5170   38.6870 H   0  0  0  0  0  0  0  0  0  0  0  0
   36.4370   33.5040   39.9810 H   0  0  0  0  0  0  0  0  0  0  0  0
   35.7330   31.5100   41.1410 H   0  0  0  0  0  0  0  0  0  0  0  0
   42.0350   30.5520   36.9750 C   0  0  0  0  0  0  0  0  0  0  0  0
   40.8530   30.3780   37.7170 C   0  0  0  0  0  0  0  0  0  0  0  0
   40.2520   31.5180   38.2570 C   0  0  0  0  0  0  0  0  0  0  0  0
   40.8260   32.7120   38.0440 N   0  0  0  0  0  0  0  0  0  0  0  0
   41.9660   32.8500   37.3240 C   0  0  0  0  0  0  0  0  0  0  0  0
   42.5520   31.7640   36.8010 N   0  0  0  0  0  0  0  0  0  0  0  0
   42.4430   29.6270   36.5900 H   0  0  0  0  0  0  0  0  0  0  0  0
   40.3660   29.4140   37.9050 H   0  0  0  0  0  0  0  0  0  0  0  0
   42.3580   33.8530   37.2020 H   0  0  0  0  0  0  0  0  0  0  0  0
   37.0910   29.1270   41.1240 C   0  0  2  0  0  0  0  0  0  0  0  0
   37.7810   28.8600   42.4190 C   0  0  0  0  0  0  0  0  0  0  0  0
   38.0420   28.0220   41.1990 C   0  0  1  0  0  0  0  0  0  0  0  0
   35.9930   28.9010   41.1640 H   0  0  0  0  0  0  0  0  0  0  0  0
   38.6440   29.5210   42.6940 H   0  0  0  0  0  0  0  0  0  0  0  0
   37.2950   28.3220   43.2440 H   0  0  0  0  0  0  0  0  0  0  0  0
   38.9840   28.1500   40.6320 H   0  0  0  0  0  0  0  0  0  0  0  0
   37.2590   27.1840   38.4840 Cl  0  0  0  0  0  0  0  0  0  0  0  0
   37.0970   26.1920   39.9200 C   0  0  0  0  0  0  0  0  0  0  0  0
   37.4840   26.6450   41.1640 C   0  0  0  0  0  0  0  0  0  0  0  0
   37.3380   25.8250   42.2780 C   0  0  0  0  0  0  0  0  0  0  0  0
   37.6450   26.2040   43.2190 H   0  0  0  0  0  0  0  0  0  0  0  0
   36.8050   24.5610   42.1210 C   0  0  0  0  0  0  0  0  0  0  0  0
   36.6850   23.9120   42.9740 H   0  0  0  0  0  0  0  0  0  0  0  0
   36.4330   24.1500   40.8640 C   0  0  0  0  0  3  0  0  0  0  0  0
   36.5530   24.9220   39.7060 C   0  0  0  0  0  3  0  0  0  0  0  0
  1  2  2  0  0  0  0
  1  6  1  0  0  0  0
  2  3  1  0  0  0  0
  3  8  1  0  0  0  0
  3  4  2  0  0  0  0
  4  9  1  0  0  0  0
  5  4  1  0  0  0  0
  5 19  1  0  0  0  0
  6  5  2  0  0  0  0
  7  2  1  0  0  0  0
 10 11  1  0  0  0  0
 11 17  1  0  0  0  0
 11 12  2  0  0  0  0
 12  1  1  0  0  0  0
 13 12  1  0  0  0  0
 14 13  2  0  0  0  0
 15 10  2  0  0  0  0
 15 14  1  0  0  0  0
 16 10  1  0  0  0  0
 18 14  1  0  0  0  0
 19 22  1  6  0  0  0
 19 21  1  0  0  0  0
 19 20  1  0  0  0  0
 20 23  1  0  0  0  0
 20 24  1  0  0  0  0
 21 25  1  6  0  0  0
 21 20  1  0  0  0  0
 26 27  1  0  0  0  0
 27 28  1  0  0  0  0
 28 21  1  0  0  0  0
 28 29  2  0  0  0  0
 29 30  1  0  0  0  0
 31 29  1  0  0  0  0
 31 32  1  0  0  0  0
 33 31  2  0  0  0  0
 34 27  2  0  0  0  0
 34 33  1  0  0  0  0
M  END
>  <minimizedAffinity>
-5.49672365

$$$$

 OpenBabel03242521063D

 34 37  0  0  1  0  0  0  0  0999 V2000
   38.6460   29.1870   41.9850 C   0  0  0  0  0  0  0  0  0  0  0  0
   39.6280   28.8070   42.8790 C   0  0  0  0  0  0  0  0  0  0  0  0
   39.7870   27.5490   43.4020 C   0  0  0  0  0  0  0  0  0  0  0  0
   38.9030   26.5640   43.0200 C   0  0  0  0  0  0  0  0  0  0  0  0
   37.9270   26.9480   42.1310 C   0  0  0  0  0  0  0  0  0  0  0  0
   37.8150   28.1850   41.6490 N   0  0  0  0  0  0  0  0  0  0  0  0
   40.3510   29.5500   43.2120 H   0  0  0  0  0  0  0  0  0  0  0  0
   40.5820   27.3300   44.0980 H   0  0  0  0  0  0  0  0  0  0  0  0
   39.0520   25.5820   43.4480 H   0  0  0  0  0  0  0  0  0  0  0  0
   39.2520   32.7720   41.0100 C   0  0  0  0  0  0  0  0  0  0  0  0
   39.5130   31.5090   41.5700 C   0  0  0  0  0  0  0  0  0  0  0  0
   38.5200   30.5320   41.4590 C   0  0  0  0  0  0  0  0  0  0  0  0
   37.3760   30.8430   40.8310 N   0  0  0  0  0  0  0  0  0  0  0  0
   37.1510   32.0700   40.3010 C   0  0  0  0  0  0  0  0  0  0  0  0
   38.0950   33.0160   40.4010 N   0  0  0  0  0  0  0  0  0  0  0  0
   40.0640   33.4760   41.1350 H   0  0  0  0  0  0  0  0  0  0  0  0
   40.4390   31.2300   42.0860 H   0  0  0  0  0  0  0  0  0  0  0  0
   36.1980   32.2330   39.8110 H   0  0  0  0  0  0  0  0  0  0  0  0
   36.9610   25.9010   41.7020 C   0  0  2  0  0  0  0  0  0  0  0  0
   37.3210   24.4990   42.0600 C   0  0  0  0  0  0  0  0  0  0  0  0
   37.3370   24.9780   40.6350 C   0  0  1  0  0  0  0  0  0  0  0  0
   35.8740   26.1260   41.8670 H   0  0  0  0  0  0  0  0  0  0  0  0
   38.3450   24.3150   42.4760 H   0  0  0  0  0  0  0  0  0  0  0  0
   36.5620   23.7340   42.2730 H   0  0  0  0  0  0  0  0  0  0  0  0
   38.3020   25.1820   40.1330 H   0  0  0  0  0  0  0  0  0  0  0  0
   36.9550   26.7610   38.3200 Cl  0  0  0  0  0  0  0  0  0  0  0  0
   36.0250   25.3070   38.6230 C   0  0  0  0  0  0  0  0  0  0  0  0
   36.2550   24.5150   39.7290 C   0  0  0  0  0  0  0  0  0  0  0  0
   35.4930   23.3690   39.9320 C   0  0  0  0  0  0  0  0  0  0  0  0
   35.6950   22.7830   40.7920 H   0  0  0  0  0  0  0  0  0  0  0  0
   34.5110   23.0390   39.0180 C   0  0  0  0  0  0  0  0  0  0  0  0
   33.9120   22.1540   39.1600 H   0  0  0  0  0  0  0  0  0  0  0  0
   34.3170   23.8570   37.9310 C   0  0  0  0  0  3  0  0  0  0  0  0
   35.0450   25.0190   37.6680 C   0  0  0  0  0  3  0  0  0  0  0  0
  1  2  1  0  0  0  0
  2  7  1  0  0  0  0
  2  3  2  0  0  0  0
  3  8  1  0  0  0  0
  4  3  1  0  0  0  0
  4  9  1  0  0  0  0
  5  4  2  0  0  0  0
  6  1  2  0  0  0  0
  6  5  1  0  0  0  0
 10 16  1  0  0  0  0
 10 11  1  0  0  0  0
 11 17  1  0  0  0  0
 12 11  2  0  0  0  0
 12  1  1  0  0  0  0
 13 12  1  0  0  0  0
 14 15  1  0  0  0  0
 14 13  2  0  0  0  0
 15 10  2  0  0  0  0
 18 14  1  0  0  0  0
 19 22  1  1  0  0  0
 19 20  1  0  0  0  0
 19  5  1  0  0  0  0
 20 24  1  0  0  0  0
 20 23  1  0  0  0  0
 21 25  1  6  0  0  0
 21 19  1  0  0  0  0
 21 20  1  0  0  0  0
 26 27  1  0  0  0  0
 27 28  1  0  0  0  0
 28 29  2  0  0  0  0
 28 21  1  0  0  0  0
 29 30  1  0  0  0  0
 31 32  1  0  0  0  0
 31 29  1  0  0  0  0
 33 31  2  0  0  0  0
 34 33  1  0  0  0  0
 34 27  2  0  0  0  0
M  END
>  <minimizedAffinity>
-5.47823668

$$$$

 OpenBabel03242521063D

 34 37  0  0  1  0  0  0  0  0999 V2000
   37.3600   29.1210   41.2890 C   0  0  0  0  0  0  0  0  0  0  0  0
   37.6080   29.4380   42.6110 C   0  0  0  0  0  0  0  0  0  0  0  0
   37.6310   28.5480   43.6540 C   0  0  0  0  0  0  0  0  0  0  0  0
   37.3880   27.2190   43.3860 C   0  0  0  0  0  0  0  0  0  0  0  0
   37.1410   26.9080   42.0700 C   0  0  0  0  0  0  0  0  0  0  0  0
   37.1300   27.8110   41.0900 N   0  0  0  0  0  0  0  0  0  0  0  0
   37.8050   30.4760   42.8740 H   0  0  0  0  0  0  0  0  0  0  0  0
   37.8340   28.8740   44.6620 H   0  0  0  0  0  0  0  0  0  0  0  0
   37.4130   26.5390   44.2270 H   0  0  0  0  0  0  0  0  0  0  0  0
   37.1010   32.2930   39.2800 C   0  0  0  0  0  0  0  0  0  0  0  0
   37.0810   31.4590   40.4120 C   0  0  0  0  0  0  0  0  0  0  0  0
   37.3460   30.1000   40.2200 C   0  0  0  0  0  0  0  0  0  0  0  0
   37.6040   29.6610   38.9790 N   0  0  0  0  0  0  0  0  0  0  0  0
   37.6170   30.4890   37.9060 C   0  0  0  0  0  0  0  0  0  0  0  0
   37.3640   31.7950   38.0750 N   0  0  0  0  0  0  0  0  0  0  0  0
   36.8880   33.3300   39.5040 H   0  0  0  0  0  0  0  0  0  0  0  0
   36.8730   31.7930   41.4340 H   0  0  0  0  0  0  0  0  0  0  0  0
   37.8350   30.0480   36.9400 H   0  0  0  0  0  0  0  0  0  0  0  0
   36.8780   25.4790   41.7550 C   0  0  2  0  0  0  0  0  0  0  0  0
   37.9490   24.5180   42.1470 C   0  0  0  0  0  0  0  0  0  0  0  0
   37.6530   24.8250   40.7060 C   0  0  1  0  0  0  0  0  0  0  0  0
   35.8480   25.0980   41.9870 H   0  0  0  0  0  0  0  0  0  0  0  0
   38.9250   24.9440   42.4980 H   0  0  0  0  0  0  0  0  0  0  0  0
   37.7310   23.4840   42.4460 H   0  0  0  0  0  0  0  0  0  0  0  0
   38.3370   25.4760   40.1280 H   0  0  0  0  0  0  0  0  0  0  0  0
   39.5100   23.2500   39.0460 Cl  0  0  0  0  0  0  0  0  0  0  0  0
   37.7740   23.0150   39.0980 C   0  0  0  0  0  0  0  0  0  0  0  0
   36.9600   23.7880   39.8980 C   0  0  0  0  0  0  0  0  0  0  0  0
   35.5860   23.5690   39.9090 C   0  0  0  0  0  0  0  0  0  0  0  0
   34.9890   24.1810   40.5360 H   0  0  0  0  0  0  0  0  0  0  0  0
   35.0540   22.5720   39.1140 C   0  0  0  0  0  0  0  0  0  0  0  0
   33.9920   22.3880   39.1110 H   0  0  0  0  0  0  0  0  0  0  0  0
   35.9030   21.8260   38.3320 C   0  0  0  0  0  3  0  0  0  0  0  0
   37.2880   21.9950   38.2740 C   0  0  0  0  0  3  0  0  0  0  0  0
  1  2  1  0  0  0  0
  2  7  1  0  0  0  0
  2  3  2  0  0  0  0
  3  8  1  0  0  0  0
  4  3  1  0  0  0  0
  4  9  1  0  0  0  0
  5  4  2  0  0  0  0
  6  1  2  0  0  0  0
  6  5  1  0  0  0  0
 10 16  1  0  0  0  0
 10 11  1  0  0  0  0
 11 17  1  0  0  0  0
 12 11  2  0  0  0  0
 12  1  1  0  0  0  0
 13 12  1  0  0  0  0
 14 15  1  0  0  0  0
 14 13  2  0  0  0  0
 15 10  2  0  0  0  0
 18 14  1  0  0  0  0
 19 22  1  1  0  0  0
 19  5  1  0  0  0  0
 19 20  1  0  0  0  0
 20 24  1  0  0  0  0
 20 23  1  0  0  0  0
 21 25  1  6  0  0  0
 21 19  1  0  0  0  0
 21 20  1  0  0  0  0
 26 27  1  0  0  0  0
 27 28  1  0  0  0  0
 28 29  2  0  0  0  0
 28 21  1  0  0  0  0
 29 30  1  0  0  0  0
 31 29  1  0  0  0  0
 32 31  1  0  0  0  0
 33 31  2  0  0  0  0
 34 33  1  0  0  0  0
 34 27  2  0  0  0  0
M  END
>  <minimizedAffinity>
-5.47015333

$$$$

 OpenBabel03242521063D

 34 37  0  0  1  0  0  0  0  0999 V2000
   37.7510   30.6460   38.6080 C   0  0  0  0  0  0  0  0  0  0  0  0
   36.9300   30.5570   37.5000 C   0  0  0  0  0  0  0  0  0  0  0  0
   36.3700   29.4040   37.0130 C   0  0  0  0  0  0  0  0  0  0  0  0
   36.6350   28.2200   37.6650 C   0  0  0  0  0  0  0  0  0  0  0  0
   37.4530   28.3130   38.7660 C   0  0  0  0  0  0  0  0  0  0  0  0
   37.9730   29.4600   39.2020 N   0  0  0  0  0  0  0  0  0  0  0  0
   36.6910   31.4660   36.9500 H   0  0  0  0  0  0  0  0  0  0  0  0
   35.7370   29.4170   36.1390 H   0  0  0  0  0  0  0  0  0  0  0  0
   36.1800   27.3270   37.2590 H   0  0  0  0  0  0  0  0  0  0  0  0
   38.2480   34.1110   39.9900 C   0  0  0  0  0  0  0  0  0  0  0  0
   37.5590   32.9640   39.5580 C   0  0  0  0  0  0  0  0  0  0  0  0
   38.3190   31.8910   39.0850 C   0  0  0  0  0  0  0  0  0  0  0  0
   39.6560   32.0060   39.0660 N   0  0  0  0  0  0  0  0  0  0  0  0
   40.2930   33.1250   39.4890 C   0  0  0  0  0  0  0  0  0  0  0  0
   39.5760   34.1610   39.9450 N   0  0  0  0  0  0  0  0  0  0  0  0
   37.5950   34.9000   40.3420 H   0  0  0  0  0  0  0  0  0  0  0  0
   36.4700   32.8460   39.5650 H   0  0  0  0  0  0  0  0  0  0  0  0
   41.3760   33.1300   39.4370 H   0  0  0  0  0  0  0  0  0  0  0  0
   37.7530   27.0490   39.4890 C   0  0  2  0  0  0  0  0  0  0  0  0
   36.5740   26.2040   39.8380 C   0  0  0  0  0  0  0  0  0  0  0  0
   37.3720   26.9210   40.8920 C   0  0  1  0  0  0  0  0  0  0  0  0
   38.6190   26.4470   39.1050 H   0  0  0  0  0  0  0  0  0  0  0  0
   35.5550   26.6440   39.6790 H   0  0  0  0  0  0  0  0  0  0  0  0
   36.6310   25.1090   39.8920 H   0  0  0  0  0  0  0  0  0  0  0  0
   36.9620   27.8310   41.3690 H   0  0  0  0  0  0  0  0  0  0  0  0
   38.6700   28.5340   42.9890 Cl  0  0  0  0  0  0  0  0  0  0  0  0
   38.9020   26.8110   42.7690 C   0  0  0  0  0  0  0  0  0  0  0  0
   38.2620   26.1140   41.7650 C   0  0  0  0  0  0  0  0  0  0  0  0
   38.4750   24.7460   41.6240 C   0  0  0  0  0  0  0  0  0  0  0  0
   37.9680   24.2410   40.8430 H   0  0  0  0  0  0  0  0  0  0  0  0
   39.3280   24.1020   42.4990 C   0  0  0  0  0  0  0  0  0  0  0  0
   39.5040   23.0420   42.4050 H   0  0  0  0  0  0  0  0  0  0  0  0
   39.9440   24.8360   43.4840 C   0  0  0  0  0  3  0  0  0  0  0  0
   39.7740   26.2080   43.6800 C   0  0  0  0  0  3  0  0  0  0  0  0
  1 12  1  0  0  0  0
  1  6  1  0  0  0  0
  2  1  2  0  0  0  0
  3  2  1  0  0  0  0
  3  4  2  0  0  0  0
  4  5  1  0  0  0  0
  5  6  2  0  0  0  0
  5 19  1  0  0  0  0
  7  2  1  0  0  0  0
  8  3  1  0  0  0  0
  9  4  1  0  0  0  0
 10 16  1  0  0  0  0
 11 17  1  0  0  0  0
 11 10  2  0  0  0  0
 12 11  1  0  0  0  0
 13 12  2  0  0  0  0
 13 14  1  0  0  0  0
 14 15  2  0  0  0  0
 15 10  1  0  0  0  0
 18 14  1  0  0  0  0
 19 22  1  6  0  0  0
 19 20  1  0  0  0  0
 19 21  1  0  0  0  0
 20 24  1  0  0  0  0
 20 21  1  0  0  0  0
 21 25  1  1  0  0  0
 21 28  1  0  0  0  0
 23 20  1  0  0  0  0
 27 26  1  0  0  0  0
 27 34  1  0  0  0  0
 28 27  2  0  0  0  0
 29 28  1  0  0  0  0
 29 31  2  0  0  0  0
 30 29  1  0  0  0  0
 31 33  1  0  0  0  0
 32 31  1  0  0  0  0
 33 34  2  0  0  0  0
M  END
>  <minimizedAffinity>
-5.46492386

$$$$
