REMARK  Name = 
REMARK  4 active torsions:
REMARK  status: ('A' for Active; 'I' for Inactive)
REMARK    1  A    between atoms: C_1  and  C_21
REMARK    2  A    between atoms: C_2  and  C_9
REMARK    3  A    between atoms: C_6  and  C_14
REMARK    4  A    between atoms: C_19  and  C_35
REMARK                            x       y       z     vdW  Elec       q    Type
REMARK                         _______ _______ _______ _____ _____    ______ ____
ROOT
ATOM      1  C   UNL     1      45.137  33.934  40.700  0.00  0.00    +0.000 A 
ATOM      2  C   UNL     1      44.078  33.636  39.879  0.00  0.00    +0.000 A 
ATOM      3  C   UNL     1      44.380  33.160  38.627  0.00  0.00    +0.000 A 
ATOM      4  C   UNL     1      45.658  32.974  38.168  0.00  0.00    +0.000 A 
ATOM      5  C   UNL     1      46.683  33.284  39.018  0.00  0.00    +0.000 A 
ATOM      6  C   UNL     1      46.451  33.765  40.289  0.00  0.00    +0.000 A 
ATOM      7  H   UNL     1      43.553  32.921  37.971  0.00  0.00    +0.000 HD
ATOM      8  H   UNL     1      45.877  32.598  37.176  0.00  0.00    +0.000 HD
ATOM      9  H   UNL     1      47.703  33.142  38.672  0.00  0.00    +0.000 HD
ENDROOT
BRANCH   2  12
ATOM     10  C   UNL     1      40.799  35.265  40.785  0.00  0.00    +0.000 A 
ATOM     11  C   UNL     1      42.095  35.085  40.272  0.00  0.00    +0.000 A 
ATOM     12  C   UNL     1      42.745  33.846  40.399  0.00  0.00    +0.000 A 
ATOM     13  N   UNL     1      42.033  32.886  41.034  0.00  0.00    +0.000 NA
ATOM     14  C   UNL     1      40.805  33.070  41.515  0.00  0.00    +0.000 A 
ATOM     15  N   UNL     1      40.191  34.256  41.390  0.00  0.00    +0.000 NA
ATOM     16  N   UNL     1      40.193  36.523  40.632  0.00  0.00    +0.000 N 
ATOM     17  H   UNL     1      42.643  35.867  39.768  0.00  0.00    +0.000 HD
ATOM     18  H   UNL     1      40.331  32.216  42.010  0.00  0.00    +0.000 HD
ATOM     19  H   UNL     1      39.908  37.181  41.383  0.00  0.00    +0.000 HD
ATOM     20  H   UNL     1      40.078  36.681  39.600  0.00  0.00    +0.000 HD
ENDBRANCH   2  12
BRANCH   6  21
ATOM     21  C   UNL     1      47.602  34.065  41.116  0.00  0.00    +0.000 A 
ATOM     22  C   UNL     1      48.140  35.327  40.953  0.00  0.00    +0.000 A 
ATOM     23  C   UNL     1      49.240  35.803  41.655  0.00  0.00    +0.000 A 
ATOM     24  C   UNL     1      49.822  34.954  42.565  0.00  0.00    +0.000 A 
ATOM     25  C   UNL     1      49.309  33.697  42.746  0.00  0.00    +0.000 A 
ATOM     26  C   UNL     1      48.204  33.243  42.030  0.00  0.00    +0.000 A 
ATOM     27  H   UNL     1      47.728  36.061  40.243  0.00  0.00    +0.000 HD
ATOM     28  H   UNL     1      49.642  36.794  41.510  0.00  0.00    +0.000 HD
ATOM     29  H   UNL     1      50.688  35.310  43.126  0.00  0.00    +0.000 HD
ATOM     30  H   UNL     1      49.776  33.036  43.468  0.00  0.00    +0.000 HD
BRANCH  26  33
ATOM     31 CL   UNL     1      49.466  31.641  44.276  0.00  0.00    +0.000 Cl
ATOM     32  C   UNL     1      48.172  31.116  43.210  0.00  0.00    +0.000 A 
ATOM     33  C   UNL     1      47.654  31.922  42.208  0.00  0.00    +0.000 A 
ATOM     34  C   UNL     1      46.643  31.350  41.469  0.00  0.00    +0.000 A 
ATOM     35  H   UNL     1      46.212  31.944  40.675  0.00  0.00    +0.000 HD
ATOM     36  C   UNL     1      46.144  30.080  41.666  0.00  0.00    +0.000 A 
ATOM     37  H   UNL     1      45.359  29.727  41.040  0.00  0.00    +0.000 HD
ATOM     38  C   UNL     1      46.685  29.308  42.674  0.00  0.00    +0.000 A 
ATOM     39  C   UNL     1      47.701  29.830  43.446  0.00  0.00    +0.000 A 
ENDBRANCH  26  33
ENDBRANCH   6  21
BRANCH   1  41
ATOM     40  N   UNL     1      44.721  34.845  43.120  0.00  0.00    +0.000 NA
ATOM     41  C   UNL     1      44.901  34.440  42.032  0.00  0.00    +0.000 C 
ENDBRANCH   1  41
TORSDOF 4
