
 OpenBabel03242518313D

 28 30  0  0  0  0  0  0  0  0999 V2000
   45.8410   33.3170   40.1830 C   0  0  0  0  0  0  0  0  0  0  0  0
   46.0270   33.0770   38.8530 C   0  0  0  0  0  0  0  0  0  0  0  0
   44.8140   33.1600   38.2000 C   0  0  0  0  0  0  0  0  0  0  0  0
   43.9130   33.4560   39.1930 C   0  0  0  0  0  0  0  0  0  0  0  0
   44.5410   33.5430   40.3450 O   0  0  0  0  0  0  0  0  0  0  0  0
   46.9990   32.8600   38.4240 H   0  0  0  0  0  0  0  0  0  0  0  0
   44.6180   33.0210   37.1460 H   0  0  0  0  0  0  0  0  0  0  0  0
   42.7830   35.7380   40.8080 Cl  0  0  0  0  0  0  0  0  0  0  0  0
   41.8660   34.6760   39.7610 C   0  0  0  0  0  0  0  0  0  0  0  0
   42.4730   33.6560   39.0600 C   0  0  0  0  0  0  0  0  0  0  0  0
   41.7230   32.8210   38.2300 C   0  0  0  0  0  0  0  0  0  0  0  0
   42.2120   32.0350   37.6940 H   0  0  0  0  0  0  0  0  0  0  0  0
   40.3440   32.9920   38.0860 C   0  0  0  0  0  0  0  0  0  0  0  0
   39.7600   32.3620   37.4570 H   0  0  0  0  0  0  0  0  0  0  0  0
   39.7950   34.0410   38.8230 C   0  0  0  0  0  0  0  0  0  0  0  0
   40.5110   34.8810   39.6500 C   0  0  0  0  0  0  0  0  0  0  0  0
   46.7420   33.3520   41.2660 O   0  0  0  0  0  0  0  0  0  0  0  0
   46.9720   34.5330   41.9680 C   0  0  0  0  0  0  0  0  0  0  0  0
   47.8220   35.3040   41.4630 O   0  0  0  0  0  0  0  0  0  0  0  0
   46.2140   34.7100   43.1680 C   0  0  0  0  0  0  0  0  0  0  0  0
   45.4000   35.8180   43.1460 C   0  0  0  0  0  0  0  0  0  0  0  0
   44.6210   36.0640   44.2860 C   0  0  0  0  0  0  0  0  0  0  0  0
   44.7160   35.2110   45.3250 N   0  0  0  0  0  0  0  0  0  0  0  0
   45.5290   34.1410   45.2960 C   0  0  0  0  0  0  0  0  0  0  0  0
   46.2980   33.8700   44.2120 N   0  0  0  0  0  0  0  0  0  0  0  0
   45.3110   36.5140   42.3200 H   0  0  0  0  0  0  0  0  0  0  0  0
   43.9530   36.9160   44.3470 H   0  0  0  0  0  0  0  0  0  0  0  0
   45.5670   33.4860   46.1620 H   0  0  0  0  0  0  0  0  0  0  0  0
  1  5  1  0  0  0  0
  1 17  1  0  0  0  0
  2  1  2  0  0  0  0
  3  2  1  0  0  0  0
  3  4  2  0  0  0  0
  4  5  1  0  0  0  0
  6  2  1  0  0  0  0
  7  3  1  0  0  0  0
  9  8  1  0  0  0  0
 10  4  1  0  0  0  0
 10  9  2  0  0  0  0
 11 10  1  0  0  0  0
 12 11  1  0  0  0  0
 13 11  2  0  0  0  0
 13 15  1  0  0  0  0
 14 13  1  0  0  0  0
 15 16  2  0  0  0  0
 16  9  1  0  0  0  0
 17 18  1  0  0  0  0
 18 20  1  0  0  0  0
 19 18  2  0  0  0  0
 20 25  1  0  0  0  0
 21 20  2  0  0  0  0
 21 22  1  0  0  0  0
 22 27  1  0  0  0  0
 22 23  2  0  0  0  0
 24 23  1  0  0  0  0
 24 28  1  0  0  0  0
 25 24  2  0  0  0  0
 26 21  1  0  0  0  0
M  END
>  <minimizedAffinity>
-5.240098

>  <minimizedRMSD>
3.56509924

$$$$
