
 OpenBabel03252501563D

 21 22  0  0  0  0  0  0  0  0999 V2000
   36.4040   30.9910   40.6040 C   0  0  0  0  0  0  0  0  0  0  0  0
   36.2500   29.6000   40.6030 C   0  0  0  0  0  0  0  0  0  0  0  0
   37.3660   28.8240   40.8730 C   0  0  0  0  0  0  0  0  0  0  0  0
   38.5150   29.4830   41.1170 N   0  0  0  0  0  0  0  0  0  0  0  0
   38.6620   30.8120   41.1190 C   0  0  0  0  0  0  0  0  0  0  0  0
   37.5930   31.5880   40.8570 N   0  0  0  0  0  0  0  0  0  0  0  0
   35.6280   31.7230   40.4030 H   0  0  0  0  0  0  0  0  0  0  0  0
   39.6900   31.0370   41.3510 H   0  0  0  0  0  0  0  0  0  0  0  0
   37.2530   27.7820   43.5820 Cl  0  0  0  0  0  0  0  0  0  0  0  0
   37.1260   26.8660   42.0960 C   0  0  0  0  0  0  0  0  0  0  0  0
   37.2160   27.3720   40.7970 C   0  0  0  0  0  0  0  0  0  0  0  0
   37.1150   26.5330   39.7130 C   0  0  0  0  0  0  0  0  0  0  0  0
   37.1920   27.0460   38.7790 H   0  0  0  0  0  0  0  0  0  0  0  0
   36.9250   25.1870   39.9330 C   0  0  0  0  0  0  0  0  0  0  0  0
   36.8440   24.5540   39.0310 H   0  0  0  0  0  0  0  0  0  0  0  0
   36.8310   24.6390   41.2120 C   0  0  0  0  0  3  0  0  0  0  0  0
   36.9340   25.4910   42.3050 C   0  0  0  0  0  3  0  0  0  0  0  0
   34.8820   29.1430   40.2790 C   0  0  0  0  0  0  0  0  0  0  0  0
   34.5430   29.5080   39.2690 H   0  0  0  0  0  0  0  0  0  0  0  0
   34.8420   28.0300   40.3280 H   0  0  0  0  0  0  0  0  0  0  0  0
   34.1280   29.5440   40.9750 H   0  0  0  0  0  0  0  0  0  0  0  0
  1  6  1  0  0  0  0
  2  1  2  0  0  0  0
  2  3  1  0  0  0  0
  3  4  2  0  0  0  0
  4  5  1  0  0  0  0
  5  8  1  0  0  0  0
  6  5  2  0  0  0  0
  7  1  1  0  0  0  0
 10 17  1  0  0  0  0
 10  9  1  0  0  0  0
 11  3  1  0  0  0  0
 11 10  2  0  0  0  0
 12 14  2  0  0  0  0
 12 11  1  0  0  0  0
 13 12  1  0  0  0  0
 14 16  1  0  0  0  0
 15 14  1  0  0  0  0
 16 17  2  0  0  0  0
 18 20  1  0  0  0  0
 18  2  1  0  0  0  0
 18 21  1  0  0  0  0
 19 18  1  0  0  0  0
M  END
>  <minimizedAffinity>
-4.46484184

$$$$

 OpenBabel03252501563D

 21 22  0  0  0  0  0  0  0  0999 V2000
   39.8890   32.4430   40.4980 C   0  0  0  0  0  0  0  0  0  0  0  0
   38.9310   31.4590   40.2260 C   0  0  0  0  0  0  0  0  0  0  0  0
   37.6490   31.8750   39.9080 C   0  0  0  0  0  0  0  0  0  0  0  0
   37.4330   33.2050   39.8850 N   0  0  0  0  0  0  0  0  0  0  0  0
   38.3480   34.1440   40.1440 C   0  0  0  0  0  0  0  0  0  0  0  0
   39.6020   33.7650   40.4590 N   0  0  0  0  0  0  0  0  0  0  0  0
   40.9270   32.2710   40.7680 H   0  0  0  0  0  0  0  0  0  0  0  0
   37.8790   35.1090   40.0430 H   0  0  0  0  0  0  0  0  0  0  0  0
   37.5580   31.2570   37.0710 Cl  0  0  0  0  0  0  0  0  0  0  0  0
   36.6080   30.5150   38.3400 C   0  0  0  0  0  0  0  0  0  0  0  0
   36.6350   30.8440   39.6990 C   0  0  0  0  0  0  0  0  0  0  0  0
   35.8190   30.1890   40.5900 C   0  0  0  0  0  0  0  0  0  0  0  0
   35.9420   30.5280   41.5960 H   0  0  0  0  0  0  0  0  0  0  0  0
   34.9770   29.2070   40.1190 C   0  0  0  0  0  0  0  0  0  0  0  0
   34.3450   28.7050   40.8750 H   0  0  0  0  0  0  0  0  0  0  0  0
   34.9160   28.8480   38.7730 C   0  0  0  0  0  3  0  0  0  0  0  0
   35.7430   29.5120   37.8750 C   0  0  0  0  0  3  0  0  0  0  0  0
   39.4350   30.0750   40.3460 C   0  0  0  0  0  0  0  0  0  0  0  0
   39.8370   29.8600   41.3760 H   0  0  0  0  0  0  0  0  0  0  0  0
   38.6190   29.3600   40.0880 H   0  0  0  0  0  0  0  0  0  0  0  0
   40.2880   29.8770   39.6790 H   0  0  0  0  0  0  0  0  0  0  0  0
  1  7  1  0  0  0  0
  2 18  1  0  0  0  0
  2  1  2  0  0  0  0
  3  2  1  0  0  0  0
  4  3  2  0  0  0  0
  4  5  1  0  0  0  0
  5  6  2  0  0  0  0
  6  1  1  0  0  0  0
  8  5  1  0  0  0  0
  9 10  1  0  0  0  0
 10 11  1  0  0  0  0
 11  3  1  0  0  0  0
 11 12  2  0  0  0  0
 12 13  1  0  0  0  0
 14 12  1  0  0  0  0
 14 15  1  0  0  0  0
 16 14  2  0  0  0  0
 17 10  2  0  0  0  0
 17 16  1  0  0  0  0
 18 19  1  0  0  0  0
 20 18  1  0  0  0  0
 21 18  1  0  0  0  0
M  END
>  <minimizedAffinity>
-4.39207268

$$$$

 OpenBabel03252501563D

 21 22  0  0  0  0  0  0  0  0999 V2000
   38.1040   31.0250   38.1990 C   0  0  0  0  0  0  0  0  0  0  0  0
   38.1550   30.0900   39.2390 C   0  0  0  0  0  0  0  0  0  0  0  0
   37.6600   30.4700   40.4760 C   0  0  0  0  0  0  0  0  0  0  0  0
   37.1650   31.7200   40.5710 N   0  0  0  0  0  0  0  0  0  0  0  0
   37.1160   32.6130   39.5770 C   0  0  0  0  0  0  0  0  0  0  0  0
   37.5940   32.2680   38.3650 N   0  0  0  0  0  0  0  0  0  0  0  0
   38.4590   30.8760   37.1830 H   0  0  0  0  0  0  0  0  0  0  0  0
   36.6660   33.5150   39.9570 H   0  0  0  0  0  0  0  0  0  0  0  0
   35.1880   28.9530   40.6420 Cl  0  0  0  0  0  0  0  0  0  0  0  0
   36.6110   28.7590   41.6420 C   0  0  0  0  0  0  0  0  0  0  0  0
   37.7830   29.5170   41.5770 C   0  0  0  0  0  0  0  0  0  0  0  0
   38.8240   29.2670   42.4390 C   0  0  0  0  0  0  0  0  0  0  0  0
   39.6620   29.9100   42.2800 H   0  0  0  0  0  0  0  0  0  0  0  0
   38.6880   28.2580   43.3660 C   0  0  0  0  0  0  0  0  0  0  0  0
   39.5540   28.0910   44.0330 H   0  0  0  0  0  0  0  0  0  0  0  0
   37.5370   27.4780   43.4680 C   0  0  0  0  0  3  0  0  0  0  0  0
   36.4860   27.7340   42.5940 C   0  0  0  0  0  3  0  0  0  0  0  0
   38.7710   28.8010   38.8640 C   0  0  0  0  0  0  0  0  0  0  0  0
   39.8260   28.9290   38.4920 H   0  0  0  0  0  0  0  0  0  0  0  0
   38.7450   28.1090   39.7380 H   0  0  0  0  0  0  0  0  0  0  0  0
   38.2490   28.3120   38.0260 H   0  0  0  0  0  0  0  0  0  0  0  0
  1  6  2  0  0  0  0
  1  2  1  0  0  0  0
  2  3  2  0  0  0  0
  3  4  1  0  0  0  0
  3 11  1  0  0  0  0
  5  8  1  0  0  0  0
  5  4  2  0  0  0  0
  6  5  1  0  0  0  0
  7  1  1  0  0  0  0
  9 10  1  0  0  0  0
 10 17  1  0  0  0  0
 11 10  2  0  0  0  0
 11 12  1  0  0  0  0
 12 14  2  0  0  0  0
 13 12  1  0  0  0  0
 14 16  1  0  0  0  0
 14 15  1  0  0  0  0
 17 16  2  0  0  0  0
 18  2  1  0  0  0  0
 18 20  1  0  0  0  0
 19 18  1  0  0  0  0
 21 18  1  0  0  0  0
M  END
>  <minimizedAffinity>
-4.38007259

$$$$

 OpenBabel03252501563D

 21 22  0  0  0  0  0  0  0  0999 V2000
   38.0020   29.1790   43.3290 C   0  0  0  0  0  0  0  0  0  0  0  0
   37.5890   27.8980   42.9460 C   0  0  0  0  0  0  0  0  0  0  0  0
   38.3100   27.2560   41.9520 C   0  0  0  0  0  0  0  0  0  0  0  0
   39.3590   27.9260   41.4370 N   0  0  0  0  0  0  0  0  0  0  0  0
   39.7540   29.1500   41.8030 C   0  0  0  0  0  0  0  0  0  0  0  0
   39.0680   29.7960   42.7660 N   0  0  0  0  0  0  0  0  0  0  0  0
   37.5350   29.8060   44.0830 H   0  0  0  0  0  0  0  0  0  0  0  0
   40.6190   29.4140   41.2170 H   0  0  0  0  0  0  0  0  0  0  0  0
   36.4930   27.6740   39.7240 Cl  0  0  0  0  0  0  0  0  0  0  0  0
   36.9820   26.1400   40.4100 C   0  0  0  0  0  0  0  0  0  0  0  0
   37.8300   25.9500   41.5040 C   0  0  0  0  0  0  0  0  0  0  0  0
   38.1180   24.6830   41.9510 C   0  0  0  0  0  0  0  0  0  0  0  0
   38.7830   24.6760   42.7880 H   0  0  0  0  0  0  0  0  0  0  0  0
   37.5550   23.6070   41.3020 C   0  0  0  0  0  0  0  0  0  0  0  0
   37.8210   22.6080   41.6950 H   0  0  0  0  0  0  0  0  0  0  0  0
   36.7020   23.7490   40.2080 C   0  0  0  0  0  3  0  0  0  0  0  0
   36.4130   25.0330   39.7590 C   0  0  0  0  0  3  0  0  0  0  0  0
   36.3920   27.4100   43.6610 C   0  0  0  0  0  0  0  0  0  0  0  0
   35.5070   28.0920   43.5170 H   0  0  0  0  0  0  0  0  0  0  0  0
   36.1500   26.3770   43.3160 H   0  0  0  0  0  0  0  0  0  0  0  0
   36.5350   27.3820   44.7520 H   0  0  0  0  0  0  0  0  0  0  0  0
  1  7  1  0  0  0  0
  2  1  1  0  0  0  0
  2 18  1  0  0  0  0
  3  2  2  0  0  0  0
  4  5  2  0  0  0  0
  4  3  1  0  0  0  0
  5  6  1  0  0  0  0
  6  1  2  0  0  0  0
  8  5  1  0  0  0  0
  9 10  1  0  0  0  0
 10 11  1  0  0  0  0
 11 12  2  0  0  0  0
 11  3  1  0  0  0  0
 12 13  1  0  0  0  0
 14 15  1  0  0  0  0
 14 12  1  0  0  0  0
 16 14  2  0  0  0  0
 17 16  1  0  0  0  0
 17 10  2  0  0  0  0
 18 21  1  0  0  0  0
 19 18  1  0  0  0  0
 20 18  1  0  0  0  0
M  END
>  <minimizedAffinity>
-4.36421585

$$$$

 OpenBabel03252501563D

 21 22  0  0  0  0  0  0  0  0999 V2000
   38.0080   29.2490   43.3250 C   0  0  0  0  0  0  0  0  0  0  0  0
   37.5810   28.0030   42.8520 C   0  0  0  0  0  0  0  0  0  0  0  0
   38.2760   27.4400   41.7940 C   0  0  0  0  0  0  0  0  0  0  0  0
   39.3150   28.1470   41.3080 N   0  0  0  0  0  0  0  0  0  0  0  0
   39.7230   29.3370   41.7610 C   0  0  0  0  0  0  0  0  0  0  0  0
   39.0620   29.9070   42.7870 N   0  0  0  0  0  0  0  0  0  0  0  0
   37.5610   29.8160   44.1360 H   0  0  0  0  0  0  0  0  0  0  0  0
   40.5750   29.6450   41.1770 H   0  0  0  0  0  0  0  0  0  0  0  0
   39.6420   25.2750   43.1670 Cl  0  0  0  0  0  0  0  0  0  0  0  0
   38.4080   25.1270   41.9350 C   0  0  0  0  0  0  0  0  0  0  0  0
   37.7810   26.1740   41.2560 C   0  0  0  0  0  0  0  0  0  0  0  0
   36.8350   25.9140   40.2930 C   0  0  0  0  0  0  0  0  0  0  0  0
   36.4290   26.8010   39.8560 H   0  0  0  0  0  0  0  0  0  0  0  0
   36.5190   24.6040   40.0120 C   0  0  0  0  0  0  0  0  0  0  0  0
   35.7490   24.4460   39.2350 H   0  0  0  0  0  0  0  0  0  0  0  0
   37.1200   23.5280   40.6630 C   0  0  0  0  0  3  0  0  0  0  0  0
   38.0770   23.7950   41.6370 C   0  0  0  0  0  3  0  0  0  0  0  0
   36.3990   27.4630   43.5530 C   0  0  0  0  0  0  0  0  0  0  0  0
   35.5130   28.1560   43.4850 H   0  0  0  0  0  0  0  0  0  0  0  0
   36.1450   26.4610   43.1340 H   0  0  0  0  0  0  0  0  0  0  0  0
   36.5660   27.3480   44.6360 H   0  0  0  0  0  0  0  0  0  0  0  0
  1  7  1  0  0  0  0
  2  1  1  0  0  0  0
  2 18  1  0  0  0  0
  3  2  2  0  0  0  0
  4  5  2  0  0  0  0
  4  3  1  0  0  0  0
  5  6  1  0  0  0  0
  6  1  2  0  0  0  0
  8  5  1  0  0  0  0
 10  9  1  0  0  0  0
 11  3  1  0  0  0  0
 11 10  2  0  0  0  0
 12 11  1  0  0  0  0
 13 12  1  0  0  0  0
 14 12  2  0  0  0  0
 14 16  1  0  0  0  0
 15 14  1  0  0  0  0
 16 17  2  0  0  0  0
 17 10  1  0  0  0  0
 18 21  1  0  0  0  0
 19 18  1  0  0  0  0
 20 18  1  0  0  0  0
M  END
>  <minimizedAffinity>
-4.34655714

$$$$

 OpenBabel03252501563D

 21 22  0  0  0  0  0  0  0  0999 V2000
   38.6130   31.0320   38.4780 C   0  0  0  0  0  0  0  0  0  0  0  0
   38.3200   30.0200   39.3990 C   0  0  0  0  0  0  0  0  0  0  0  0
   37.4750   30.3290   40.4530 C   0  0  0  0  0  0  0  0  0  0  0  0
   37.0020   31.5890   40.4990 N   0  0  0  0  0  0  0  0  0  0  0  0
   37.2820   32.5560   39.6190 C   0  0  0  0  0  0  0  0  0  0  0  0
   38.1030   32.2810   38.5870 N   0  0  0  0  0  0  0  0  0  0  0  0
   39.2610   30.9430   37.6110 H   0  0  0  0  0  0  0  0  0  0  0  0
   36.7560   33.4470   39.9180 H   0  0  0  0  0  0  0  0  0  0  0  0
   39.4160   30.6530   42.5890 Cl  0  0  0  0  0  0  0  0  0  0  0  0
   38.1390   29.4600   42.5010 C   0  0  0  0  0  0  0  0  0  0  0  0
   37.2310   29.2900   41.4520 C   0  0  0  0  0  0  0  0  0  0  0  0
   36.2840   28.2960   41.5050 C   0  0  0  0  0  0  0  0  0  0  0  0
   35.6480   28.2790   40.6460 H   0  0  0  0  0  0  0  0  0  0  0  0
   36.2480   27.4730   42.6080 C   0  0  0  0  0  0  0  0  0  0  0  0
   35.4650   26.6920   42.6070 H   0  0  0  0  0  0  0  0  0  0  0  0
   37.1350   27.6050   43.6760 C   0  0  0  0  0  3  0  0  0  0  0  0
   38.0920   28.6120   43.6190 C   0  0  0  0  0  3  0  0  0  0  0  0
   38.9940   28.7350   39.1210 C   0  0  0  0  0  0  0  0  0  0  0  0
   40.1150   28.8410   39.1030 H   0  0  0  0  0  0  0  0  0  0  0  0
   38.6840   27.9810   39.8830 H   0  0  0  0  0  0  0  0  0  0  0  0
   38.7460   28.3360   38.1250 H   0  0  0  0  0  0  0  0  0  0  0  0
  1  6  2  0  0  0  0
  1  2  1  0  0  0  0
  2  3  2  0  0  0  0
  3  4  1  0  0  0  0
  3 11  1  0  0  0  0
  5  8  1  0  0  0  0
  5  4  2  0  0  0  0
  6  5  1  0  0  0  0
  7  1  1  0  0  0  0
 10  9  1  0  0  0  0
 10 17  1  0  0  0  0
 11 12  1  0  0  0  0
 11 10  2  0  0  0  0
 12 14  2  0  0  0  0
 13 12  1  0  0  0  0
 14 16  1  0  0  0  0
 15 14  1  0  0  0  0
 17 16  2  0  0  0  0
 18  2  1  0  0  0  0
 18 20  1  0  0  0  0
 19 18  1  0  0  0  0
 21 18  1  0  0  0  0
M  END
>  <minimizedAffinity>
-4.32738829

$$$$

 OpenBabel03252501563D

 21 22  0  0  0  0  0  0  0  0999 V2000
   38.0780   23.2410   41.0320 C   0  0  0  0  0  0  0  0  0  0  0  0
   38.1910   24.4220   41.7740 C   0  0  0  0  0  0  0  0  0  0  0  0
   37.4390   25.5140   41.3700 C   0  0  0  0  0  0  0  0  0  0  0  0
   36.6540   25.3420   40.2890 N   0  0  0  0  0  0  0  0  0  0  0  0
   36.5460   24.2130   39.5800 C   0  0  0  0  0  0  0  0  0  0  0  0
   37.2690   23.1380   39.9510 N   0  0  0  0  0  0  0  0  0  0  0  0
   38.6070   22.3110   41.2200 H   0  0  0  0  0  0  0  0  0  0  0  0
   35.8430   24.3820   38.7820 H   0  0  0  0  0  0  0  0  0  0  0  0
   39.4890   27.0690   40.0230 Cl  0  0  0  0  0  0  0  0  0  0  0  0
   38.5770   27.5360   41.4420 C   0  0  0  0  0  0  0  0  0  0  0  0
   37.6160   26.7660   42.1030 C   0  0  0  0  0  0  0  0  0  0  0  0
   36.9840   27.2510   43.2230 C   0  0  0  0  0  0  0  0  0  0  0  0
   36.2680   26.5690   43.6270 H   0  0  0  0  0  0  0  0  0  0  0  0
   37.3170   28.5070   43.6800 C   0  0  0  0  0  0  0  0  0  0  0  0
   36.7770   28.8550   44.5800 H   0  0  0  0  0  0  0  0  0  0  0  0
   38.2700   29.3090   43.0530 C   0  0  0  0  0  3  0  0  0  0  0  0
   38.9070   28.8140   41.9200 C   0  0  0  0  0  3  0  0  0  0  0  0
   39.1430   24.3410   42.9000 C   0  0  0  0  0  0  0  0  0  0  0  0
   40.1820   24.0740   42.5560 H   0  0  0  0  0  0  0  0  0  0  0  0
   39.1500   25.3100   43.4500 H   0  0  0  0  0  0  0  0  0  0  0  0
   38.8850   23.5430   43.6140 H   0  0  0  0  0  0  0  0  0  0  0  0
  1  7  1  0  0  0  0
  1  2  1  0  0  0  0
  2 18  1  0  0  0  0
  3  2  2  0  0  0  0
  3 11  1  0  0  0  0
  4  3  1  0  0  0  0
  5  6  1  0  0  0  0
  5  4  2  0  0  0  0
  6  1  2  0  0  0  0
  8  5  1  0  0  0  0
  9 10  1  0  0  0  0
 10 17  2  0  0  0  0
 10 11  1  0  0  0  0
 11 12  2  0  0  0  0
 12 13  1  0  0  0  0
 12 14  1  0  0  0  0
 14 15  1  0  0  0  0
 16 14  2  0  0  0  0
 17 16  1  0  0  0  0
 18 20  1  0  0  0  0
 18 21  1  0  0  0  0
 19 18  1  0  0  0  0
M  END
>  <minimizedAffinity>
-4.17845631

$$$$

 OpenBabel03252501563D

 21 22  0  0  0  0  0  0  0  0999 V2000
   38.4020   27.2260   41.5970 C   0  0  0  0  0  0  0  0  0  0  0  0
   38.3990   28.4880   40.9920 C   0  0  0  0  0  0  0  0  0  0  0  0
   37.8800   29.5510   41.7140 C   0  0  0  0  0  0  0  0  0  0  0  0
   37.4200   29.2750   42.9500 N   0  0  0  0  0  0  0  0  0  0  0  0
   37.4230   28.0690   43.5280 C   0  0  0  0  0  0  0  0  0  0  0  0
   37.9200   27.0190   42.8450 N   0  0  0  0  0  0  0  0  0  0  0  0
   38.7660   26.3030   41.1550 H   0  0  0  0  0  0  0  0  0  0  0  0
   36.9970   28.1670   44.5120 H   0  0  0  0  0  0  0  0  0  0  0  0
   40.2030   31.1010   42.5140 Cl  0  0  0  0  0  0  0  0  0  0  0  0
   38.9440   31.5910   41.4020 C   0  0  0  0  0  0  0  0  0  0  0  0
   37.8120   30.8510   41.0500 C   0  0  0  0  0  0  0  0  0  0  0  0
   36.8880   31.3660   40.1730 C   0  0  0  0  0  0  0  0  0  0  0  0
   36.0750   30.6990   39.9820 H   0  0  0  0  0  0  0  0  0  0  0  0
   37.0980   32.6230   39.6500 C   0  0  0  0  0  0  0  0  0  0  0  0
   36.3310   32.9910   38.9450 H   0  0  0  0  0  0  0  0  0  0  0  0
   38.2120   33.3960   39.9750 C   0  0  0  0  0  3  0  0  0  0  0  0
   39.1450   32.8720   40.8630 C   0  0  0  0  0  3  0  0  0  0  0  0
   38.9440   28.5020   39.6190 C   0  0  0  0  0  0  0  0  0  0  0  0
   38.3760   27.8120   38.9320 H   0  0  0  0  0  0  0  0  0  0  0  0
   38.9300   29.5450   39.2250 H   0  0  0  0  0  0  0  0  0  0  0  0
   39.9800   28.1320   39.5720 H   0  0  0  0  0  0  0  0  0  0  0  0
  1  6  1  0  0  0  0
  2  1  2  0  0  0  0
  2  3  1  0  0  0  0
  3  4  2  0  0  0  0
  4  5  1  0  0  0  0
  5  8  1  0  0  0  0
  6  5  2  0  0  0  0
  7  1  1  0  0  0  0
 10  9  1  0  0  0  0
 11 10  1  0  0  0  0
 11  3  1  0  0  0  0
 12 11  2  0  0  0  0
 13 12  1  0  0  0  0
 14 16  2  0  0  0  0
 14 12  1  0  0  0  0
 15 14  1  0  0  0  0
 16 17  1  0  0  0  0
 17 10  2  0  0  0  0
 18  2  1  0  0  0  0
 19 18  1  0  0  0  0
 20 18  1  0  0  0  0
 21 18  1  0  0  0  0
M  END
>  <minimizedAffinity>
-4.17579031

$$$$

 OpenBabel03252501563D

 21 22  0  0  0  0  0  0  0  0999 V2000
   39.2160   24.4190   42.8200 C   0  0  0  0  0  0  0  0  0  0  0  0
   38.2380   25.0740   42.0620 C   0  0  0  0  0  0  0  0  0  0  0  0
   38.5520   26.3180   41.5370 C   0  0  0  0  0  0  0  0  0  0  0  0
   39.7850   26.7920   41.8020 N   0  0  0  0  0  0  0  0  0  0  0  0
   40.7190   26.1650   42.5250 C   0  0  0  0  0  0  0  0  0  0  0  0
   40.4370   24.9560   43.0490 N   0  0  0  0  0  0  0  0  0  0  0  0
   39.1140   23.4500   43.2990 H   0  0  0  0  0  0  0  0  0  0  0  0
   41.5960   26.7900   42.5560 H   0  0  0  0  0  0  0  0  0  0  0  0
   37.2120   28.1000   43.3980 Cl  0  0  0  0  0  0  0  0  0  0  0  0
   36.8750   27.9160   41.6910 C   0  0  0  0  0  0  0  0  0  0  0  0
   37.5030   27.0300   40.8110 C   0  0  0  0  0  0  0  0  0  0  0  0
   37.1270   26.9760   39.4900 C   0  0  0  0  0  0  0  0  0  0  0  0
   37.6890   26.2650   38.9240 H   0  0  0  0  0  0  0  0  0  0  0  0
   36.1210   27.8090   39.0530 C   0  0  0  0  0  0  0  0  0  0  0  0
   35.8580   27.7330   37.9820 H   0  0  0  0  0  0  0  0  0  0  0  0
   35.4670   28.7060   39.8960 C   0  0  0  0  0  3  0  0  0  0  0  0
   35.8500   28.7580   41.2310 C   0  0  0  0  0  3  0  0  0  0  0  0
   36.9640   24.3350   41.9490 C   0  0  0  0  0  0  0  0  0  0  0  0
   36.5070   24.1250   42.9570 H   0  0  0  0  0  0  0  0  0  0  0  0
   36.2560   24.9130   41.3100 H   0  0  0  0  0  0  0  0  0  0  0  0
   37.0940   23.3380   41.5010 H   0  0  0  0  0  0  0  0  0  0  0  0
  1  6  1  0  0  0  0
  1  7  1  0  0  0  0
  2  1  2  0  0  0  0
  3  4  2  0  0  0  0
  3  2  1  0  0  0  0
  4  5  1  0  0  0  0
  5  8  1  0  0  0  0
  5  6  2  0  0  0  0
 10  9  1  0  0  0  0
 11  3  1  0  0  0  0
 11 10  2  0  0  0  0
 12 11  1  0  0  0  0
 13 12  1  0  0  0  0
 14 12  2  0  0  0  0
 14 16  1  0  0  0  0
 15 14  1  0  0  0  0
 16 17  2  0  0  0  0
 17 10  1  0  0  0  0
 18  2  1  0  0  0  0
 18 19  1  0  0  0  0
 20 18  1  0  0  0  0
 21 18  1  0  0  0  0
M  END
>  <minimizedAffinity>
-4.16738892

$$$$
