
 OpenBabel03242514383D

 33 35  0  0  0  0  0  0  0  0999 V2000
   37.4320   31.9420   39.1410 C   0  0  0  0  0  0  0  0  0  0  0  0
   37.4340   31.8040   37.8650 O   0  0  0  0  0  0  0  0  0  0  0  0
   36.9940   30.6510   39.6970 C   0  0  0  0  0  0  0  0  0  0  0  0
   35.7720   30.3710   40.3700 C   0  0  0  0  0  0  0  0  0  0  0  0
   35.6420   29.0710   40.7820 C   0  0  0  0  0  0  0  0  0  0  0  0
   36.5830   28.1400   40.5700 C   0  0  0  0  0  0  0  0  0  0  0  0
   37.8990   29.1570   39.6510 S   0  0  0  0  0  0  0  0  0  0  0  0
   35.0520   31.1430   40.5150 H   0  0  0  0  0  0  0  0  0  0  0  0
   34.7680   28.7080   41.3070 H   0  0  0  0  0  0  0  0  0  0  0  0
   37.3710   27.4140   43.4230 Cl  0  0  0  0  0  0  0  0  0  0  0  0
   37.1490   26.3150   42.0790 C   0  0  0  0  0  0  0  0  0  0  0  0
   36.7890   26.7780   40.8320 C   0  0  0  0  0  0  0  0  0  0  0  0
   36.6000   25.9600   39.7420 C   0  0  0  0  0  0  0  0  0  0  0  0
   36.3210   26.3090   38.7710 H   0  0  0  0  0  0  0  0  0  0  0  0
   36.7770   24.5770   39.8740 C   0  0  0  0  0  0  0  0  0  0  0  0
   36.6380   23.9020   39.0420 H   0  0  0  0  0  0  0  0  0  0  0  0
   37.1390   24.0770   41.1180 C   0  0  0  0  0  3  0  0  0  0  0  0
   37.3210   24.9340   42.1960 C   0  0  0  0  0  3  0  0  0  0  0  0
   37.8200   33.1810   39.5210 O   0  0  0  0  0  0  0  0  0  0  0  0
   39.7380   32.3300   41.0080 O   0  0  0  0  0  0  0  0  0  0  0  0
   39.1900   33.5780   40.3870 P   0  0  2  0  0  0  0  0  0  0  0  0
   38.7640   34.6260   41.6150 O   0  0  0  0  0  0  0  0  0  0  0  0
   39.4170   34.5730   42.3820 H   0  0  0  0  0  0  0  0  0  0  0  0
   40.3610   34.2920   39.3370 O   0  0  0  0  0  0  0  0  0  0  0  0
   42.6050   33.5930   38.9390 C   0  0  0  0  0  0  0  0  0  0  0  0
   41.2620   33.4920   38.6370 C   0  0  0  0  0  0  0  0  0  0  0  0
   40.8650   32.5920   37.6410 C   0  0  0  0  0  0  0  0  0  0  0  0
   41.8530   31.8610   37.0230 N   0  0  0  0  0  0  0  0  0  0  0  0
   43.1420   31.9840   37.3420 C   0  0  0  0  0  0  0  0  0  0  0  0
   43.5210   32.8430   38.2930 N   0  0  0  0  0  0  0  0  0  0  0  0
   43.0260   34.2510   39.6860 H   0  0  0  0  0  0  0  0  0  0  0  0
   39.8170   32.5140   37.4050 H   0  0  0  0  0  0  0  0  0  0  0  0
   43.8290   31.3560   36.7880 H   0  0  0  0  0  0  0  0  0  0  0  0
  1 19  1  0  0  0  0
  1  3  1  0  0  0  0
  2  1  2  0  0  0  0
  3  4  2  0  0  0  0
  4  8  1  0  0  0  0
  4  5  1  0  0  0  0
  5  9  1  0  0  0  0
  6  5  2  0  0  0  0
  6 12  1  0  0  0  0
  7  3  1  0  0  0  0
  7  6  1  0  0  0  0
 11 18  1  0  0  0  0
 11 10  1  0  0  0  0
 12 11  2  0  0  0  0
 13 15  2  0  0  0  0
 13 12  1  0  0  0  0
 14 13  1  0  0  0  0
 15 17  1  0  0  0  0
 16 15  1  0  0  0  0
 17 18  2  0  0  0  0
 19 21  1  0  0  0  0
 21 20  2  1  0  0  0
 21 22  1  0  0  0  0
 22 23  1  0  0  0  0
 24 21  1  0  0  0  0
 25 31  1  0  0  0  0
 26 25  1  0  0  0  0
 26 24  1  0  0  0  0
 27 26  2  0  0  0  0
 28 29  2  0  0  0  0
 28 27  1  0  0  0  0
 29 30  1  0  0  0  0
 30 25  2  0  0  0  0
 32 27  1  0  0  0  0
 33 29  1  0  0  0  0
M  END
>  <minimizedAffinity>
-6.07565641

$$$$

 OpenBabel03242514383D

 33 35  0  0  0  0  0  0  0  0999 V2000
   38.5000   32.6740   40.5880 C   0  0  0  0  0  0  0  0  0  0  0  0
   37.6760   33.4690   40.0070 O   0  0  0  0  0  0  0  0  0  0  0  0
   37.7980   31.3880   40.7390 C   0  0  0  0  0  0  0  0  0  0  0  0
   36.3920   31.1680   40.7460 C   0  0  0  0  0  0  0  0  0  0  0  0
   36.0290   29.8580   40.9080 C   0  0  0  0  0  0  0  0  0  0  0  0
   36.9190   28.8650   41.0480 C   0  0  0  0  0  0  0  0  0  0  0  0
   38.5550   29.8280   40.9480 S   0  0  0  0  0  0  0  0  0  0  0  0
   35.7220   31.9890   40.6300 H   0  0  0  0  0  0  0  0  0  0  0  0
   34.9960   29.5350   40.9340 H   0  0  0  0  0  0  0  0  0  0  0  0
   37.1980   27.8630   43.9130 Cl  0  0  0  0  0  0  0  0  0  0  0  0
   37.0390   26.8910   42.4680 C   0  0  0  0  0  0  0  0  0  0  0  0
   36.9200   27.4740   41.2250 C   0  0  0  0  0  0  0  0  0  0  0  0
   36.7920   26.7580   40.0570 C   0  0  0  0  0  0  0  0  0  0  0  0
   36.6980   27.2010   39.0890 H   0  0  0  0  0  0  0  0  0  0  0  0
   36.7790   25.3580   40.1000 C   0  0  0  0  0  0  0  0  0  0  0  0
   36.6810   24.7610   39.2050 H   0  0  0  0  0  0  0  0  0  0  0  0
   36.8970   24.7380   41.3370 C   0  0  0  0  0  3  0  0  0  0  0  0
   37.0250   25.4940   42.4950 C   0  0  0  0  0  3  0  0  0  0  0  0
   39.6860   33.2700   40.8510 O   0  0  0  0  0  0  0  0  0  0  0  0
   41.0330   35.1740   39.7670 O   0  0  0  0  0  0  0  0  0  0  0  0
   40.8630   33.6860   39.7440 P   0  0  2  0  0  0  0  0  0  0  0  0
   40.3450   33.2460   38.2190 O   0  0  0  0  0  0  0  0  0  0  0  0
   40.7830   33.8120   37.5080 H   0  0  0  0  0  0  0  0  0  0  0  0
   42.3490   32.9040   40.1470 O   0  0  0  0  0  0  0  0  0  0  0  0
   43.3220   34.0190   42.0150 C   0  0  0  0  0  0  0  0  0  0  0  0
   43.4040   33.6320   40.6940 C   0  0  0  0  0  0  0  0  0  0  0  0
   44.5410   33.9880   39.9590 C   0  0  0  0  0  0  0  0  0  0  0  0
   45.5120   34.7100   40.6150 N   0  0  0  0  0  0  0  0  0  0  0  0
   45.4000   35.0660   41.8940 C   0  0  0  0  0  0  0  0  0  0  0  0
   44.3140   34.7260   42.5950 N   0  0  0  0  0  0  0  0  0  0  0  0
   42.4950   33.8030   42.6770 H   0  0  0  0  0  0  0  0  0  0  0  0
   44.6040   33.6870   38.9280 H   0  0  0  0  0  0  0  0  0  0  0  0
   46.2280   35.6320   42.3030 H   0  0  0  0  0  0  0  0  0  0  0  0
  1  3  1  0  0  0  0
  1 19  1  0  0  0  0
  2  1  2  0  0  0  0
  3  4  2  0  0  0  0
  3  7  1  0  0  0  0
  4  5  1  0  0  0  0
  5  9  1  0  0  0  0
  5  6  2  0  0  0  0
  6 12  1  0  0  0  0
  7  6  1  0  0  0  0
  8  4  1  0  0  0  0
 11 18  1  0  0  0  0
 11 10  1  0  0  0  0
 12 11  2  0  0  0  0
 13 15  2  0  0  0  0
 13 12  1  0  0  0  0
 14 13  1  0  0  0  0
 15 17  1  0  0  0  0
 16 15  1  0  0  0  0
 17 18  2  0  0  0  0
 21 20  2  1  0  0  0
 21 24  1  0  0  0  0
 21 19  1  0  0  0  0
 22 21  1  0  0  0  0
 23 22  1  0  0  0  0
 24 26  1  0  0  0  0
 25 30  1  0  0  0  0
 25 31  1  0  0  0  0
 26 25  2  0  0  0  0
 27 28  2  0  0  0  0
 27 26  1  0  0  0  0
 28 29  1  0  0  0  0
 29 33  1  0  0  0  0
 29 30  2  0  0  0  0
 32 27  1  0  0  0  0
M  END
>  <minimizedAffinity>
-6.01705408

$$$$

 OpenBabel03242514383D

 33 35  0  0  0  0  0  0  0  0999 V2000
   39.6860   34.3910   40.1840 C   0  0  0  0  0  0  0  0  0  0  0  0
   39.1970   35.2840   40.9670 O   0  0  0  0  0  0  0  0  0  0  0  0
   38.8790   33.1760   40.3870 C   0  0  0  0  0  0  0  0  0  0  0  0
   37.5570   32.9310   39.9220 C   0  0  0  0  0  0  0  0  0  0  0  0
   37.0570   31.7040   40.2680 C   0  0  0  0  0  0  0  0  0  0  0  0
   37.7520   30.8070   40.9840 C   0  0  0  0  0  0  0  0  0  0  0  0
   39.3800   31.7490   41.2610 S   0  0  0  0  0  0  0  0  0  0  0  0
   37.0430   33.6730   39.3550 H   0  0  0  0  0  0  0  0  0  0  0  0
   36.0660   31.3740   39.9870 H   0  0  0  0  0  0  0  0  0  0  0  0
   37.1160   28.6130   38.9670 Cl  0  0  0  0  0  0  0  0  0  0  0  0
   37.2870   28.4350   40.6990 C   0  0  0  0  0  0  0  0  0  0  0  0
   37.5780   29.5160   41.5020 C   0  0  0  0  0  0  0  0  0  0  0  0
   37.7250   29.4330   42.8670 C   0  0  0  0  0  0  0  0  0  0  0  0
   37.9510   30.2660   43.4980 H   0  0  0  0  0  0  0  0  0  0  0  0
   37.5740   28.1960   43.5070 C   0  0  0  0  0  0  0  0  0  0  0  0
   37.6810   28.0910   44.5770 H   0  0  0  0  0  0  0  0  0  0  0  0
   37.2810   27.0850   42.7270 C   0  0  0  0  0  3  0  0  0  0  0  0
   37.1400   27.2080   41.3500 C   0  0  0  0  0  3  0  0  0  0  0  0
   40.7340   34.8590   39.4680 O   0  0  0  0  0  0  0  0  0  0  0  0
   42.5260   33.0180   39.5980 O   0  0  0  0  0  0  0  0  0  0  0  0
   41.8590   33.9510   38.6340 P   0  0  2  0  0  0  0  0  0  0  0  0
   43.0230   34.9760   38.0150 O   0  0  0  0  0  0  0  0  0  0  0  0
   43.8970   34.4930   37.8770 H   0  0  0  0  0  0  0  0  0  0  0  0
   41.0790   33.0620   37.3770 O   0  0  0  0  0  0  0  0  0  0  0  0
   42.3380   31.1670   36.6690 C   0  0  0  0  0  0  0  0  0  0  0  0
   41.2210   31.6790   37.2970 C   0  0  0  0  0  0  0  0  0  0  0  0
   40.2800   30.7870   37.8230 C   0  0  0  0  0  0  0  0  0  0  0  0
   40.5370   29.4420   37.6780 N   0  0  0  0  0  0  0  0  0  0  0  0
   41.6280   28.9830   37.0660 C   0  0  0  0  0  0  0  0  0  0  0  0
   42.5270   29.8350   36.5630 N   0  0  0  0  0  0  0  0  0  0  0  0
   43.1280   31.7570   36.2260 H   0  0  0  0  0  0  0  0  0  0  0  0
   39.4080   31.1860   38.3120 H   0  0  0  0  0  0  0  0  0  0  0  0
   41.7230   27.9060   37.0120 H   0  0  0  0  0  0  0  0  0  0  0  0
  1  3  1  0  0  0  0
  1  2  2  0  0  0  0
  3  7  1  0  0  0  0
  4  5  1  0  0  0  0
  4  3  2  0  0  0  0
  5  6  2  0  0  0  0
  6  7  1  0  0  0  0
  6 12  1  0  0  0  0
  8  4  1  0  0  0  0
  9  5  1  0  0  0  0
 10 11  1  0  0  0  0
 11 18  2  0  0  0  0
 11 12  1  0  0  0  0
 12 13  2  0  0  0  0
 13 14  1  0  0  0  0
 13 15  1  0  0  0  0
 15 16  1  0  0  0  0
 17 15  2  0  0  0  0
 18 17  1  0  0  0  0
 19  1  1  0  0  0  0
 21 19  1  0  0  0  0
 21 20  2  1  0  0  0
 22 21  1  0  0  0  0
 23 22  1  0  0  0  0
 24 21  1  0  0  0  0
 25 26  1  0  0  0  0
 26 24  1  0  0  0  0
 26 27  2  0  0  0  0
 27 32  1  0  0  0  0
 28 27  1  0  0  0  0
 29 28  2  0  0  0  0
 30 25  2  0  0  0  0
 30 29  1  0  0  0  0
 31 25  1  0  0  0  0
 33 29  1  0  0  0  0
M  END
>  <minimizedAffinity>
-5.88227034

$$$$

 OpenBabel03242514383D

 33 35  0  0  0  0  0  0  0  0999 V2000
   38.0940   31.9650   38.8910 C   0  0  0  0  0  0  0  0  0  0  0  0
   37.3100   32.2940   37.9280 O   0  0  0  0  0  0  0  0  0  0  0  0
   37.5150   30.7560   39.5010 C   0  0  0  0  0  0  0  0  0  0  0  0
   36.3650   30.6760   40.3340 C   0  0  0  0  0  0  0  0  0  0  0  0
   36.0650   29.4090   40.7590 C   0  0  0  0  0  0  0  0  0  0  0  0
   36.7910   28.3330   40.4200 C   0  0  0  0  0  0  0  0  0  0  0  0
   38.1300   29.1290   39.3310 S   0  0  0  0  0  0  0  0  0  0  0  0
   35.8180   31.5580   40.5770 H   0  0  0  0  0  0  0  0  0  0  0  0
   35.2190   29.1900   41.3980 H   0  0  0  0  0  0  0  0  0  0  0  0
   36.0790   26.5630   38.0430 Cl  0  0  0  0  0  0  0  0  0  0  0  0
   36.4840   26.0400   39.6630 C   0  0  0  0  0  0  0  0  0  0  0  0
   36.7880   26.9510   40.6510 C   0  0  0  0  0  0  0  0  0  0  0  0
   37.1140   26.5950   41.9400 C   0  0  0  0  0  0  0  0  0  0  0  0
   37.3520   27.2940   42.7130 H   0  0  0  0  0  0  0  0  0  0  0  0
   37.1470   25.2420   42.2980 C   0  0  0  0  0  0  0  0  0  0  0  0
   37.3970   24.9230   43.3000 H   0  0  0  0  0  0  0  0  0  0  0  0
   36.8450   24.2970   41.3260 C   0  0  0  0  0  3  0  0  0  0  0  0
   36.5210   24.6940   40.0350 C   0  0  0  0  0  3  0  0  0  0  0  0
   39.1430   32.8110   39.0070 O   0  0  0  0  0  0  0  0  0  0  0  0
   40.4600   32.2930   41.1560 O   0  0  0  0  0  0  0  0  0  0  0  0
   39.7890   33.4140   40.4230 P   0  0  2  0  0  0  0  0  0  0  0  0
   38.5460   33.9890   41.3780 O   0  0  0  0  0  0  0  0  0  0  0  0
   38.8000   33.9760   42.3540 H   0  0  0  0  0  0  0  0  0  0  0  0
   40.9260   34.6630   40.0620 O   0  0  0  0  0  0  0  0  0  0  0  0
   42.2130   34.3210   38.0850 C   0  0  0  0  0  0  0  0  0  0  0  0
   42.1460   34.3550   39.4630 C   0  0  0  0  0  0  0  0  0  0  0  0
   43.3040   34.0770   40.1980 C   0  0  0  0  0  0  0  0  0  0  0  0
   44.4460   33.7860   39.4870 N   0  0  0  0  0  0  0  0  0  0  0  0
   44.4740   33.7630   38.1540 C   0  0  0  0  0  0  0  0  0  0  0  0
   43.3680   34.0290   37.4530 N   0  0  0  0  0  0  0  0  0  0  0  0
   41.3860   34.5170   37.4170 H   0  0  0  0  0  0  0  0  0  0  0  0
   43.2510   34.1030   41.2730 H   0  0  0  0  0  0  0  0  0  0  0  0
   45.4290   33.5220   37.7050 H   0  0  0  0  0  0  0  0  0  0  0  0
  1 19  1  0  0  0  0
  1  3  1  0  0  0  0
  2  1  2  0  0  0  0
  3  4  2  0  0  0  0
  4  8  1  0  0  0  0
  4  5  1  0  0  0  0
  5  9  1  0  0  0  0
  6 12  1  0  0  0  0
  6  5  2  0  0  0  0
  7  3  1  0  0  0  0
  7  6  1  0  0  0  0
 10 11  1  0  0  0  0
 11 18  2  0  0  0  0
 11 12  1  0  0  0  0
 12 13  2  0  0  0  0
 13 15  1  0  0  0  0
 13 14  1  0  0  0  0
 15 16  1  0  0  0  0
 17 15  2  0  0  0  0
 18 17  1  0  0  0  0
 19 21  1  0  0  0  0
 21 20  2  1  0  0  0
 21 22  1  0  0  0  0
 22 23  1  0  0  0  0
 24 21  1  0  0  0  0
 25 26  1  0  0  0  0
 26 24  1  0  0  0  0
 26 27  2  0  0  0  0
 27 32  1  0  0  0  0
 28 27  1  0  0  0  0
 29 28  2  0  0  0  0
 30 25  2  0  0  0  0
 30 29  1  0  0  0  0
 31 25  1  0  0  0  0
 33 29  1  0  0  0  0
M  END
>  <minimizedAffinity>
-5.73506498

$$$$

 OpenBabel03242514383D

 33 35  0  0  0  0  0  0  0  0999 V2000
   38.2560   32.6300   40.5250 C   0  0  0  0  0  0  0  0  0  0  0  0
   37.4020   33.3890   39.9390 O   0  0  0  0  0  0  0  0  0  0  0  0
   37.6020   31.3210   40.6900 C   0  0  0  0  0  0  0  0  0  0  0  0
   36.2080   31.0620   40.8060 C   0  0  0  0  0  0  0  0  0  0  0  0
   35.8920   29.7370   40.9540 C   0  0  0  0  0  0  0  0  0  0  0  0
   36.8150   28.7650   40.9850 C   0  0  0  0  0  0  0  0  0  0  0  0
   38.4120   29.7760   40.7820 S   0  0  0  0  0  0  0  0  0  0  0  0
   35.5100   31.8670   40.7750 H   0  0  0  0  0  0  0  0  0  0  0  0
   34.8740   29.3850   41.0550 H   0  0  0  0  0  0  0  0  0  0  0  0
   37.2290   27.6790   43.8030 Cl  0  0  0  0  0  0  0  0  0  0  0  0
   37.0480   26.7500   42.3310 C   0  0  0  0  0  0  0  0  0  0  0  0
   36.8660   27.3700   41.1150 C   0  0  0  0  0  0  0  0  0  0  0  0
   36.7180   26.6900   39.9280 C   0  0  0  0  0  0  0  0  0  0  0  0
   36.5760   27.1620   38.9790 H   0  0  0  0  0  0  0  0  0  0  0  0
   36.7510   25.2890   39.9230 C   0  0  0  0  0  0  0  0  0  0  0  0
   36.6390   24.7190   39.0120 H   0  0  0  0  0  0  0  0  0  0  0  0
   36.9330   24.6330   41.1330 C   0  0  0  0  0  3  0  0  0  0  0  0
   37.0780   25.3540   42.3110 C   0  0  0  0  0  3  0  0  0  0  0  0
   39.4200   33.2710   40.7780 O   0  0  0  0  0  0  0  0  0  0  0  0
   41.7780   32.2900   40.4740 O   0  0  0  0  0  0  0  0  0  0  0  0
   40.8030   33.2380   39.8450 P   0  0  2  0  0  0  0  0  0  0  0  0
   41.4870   34.7600   39.8430 O   0  0  0  0  0  0  0  0  0  0  0  0
   42.4790   34.7150   39.6670 H   0  0  0  0  0  0  0  0  0  0  0  0
   40.4160   32.7260   38.2420 O   0  0  0  0  0  0  0  0  0  0  0  0
   42.2920   31.9590   36.9880 C   0  0  0  0  0  0  0  0  0  0  0  0
   41.1140   31.6770   37.6470 C   0  0  0  0  0  0  0  0  0  0  0  0
   40.6700   30.3500   37.6890 C   0  0  0  0  0  0  0  0  0  0  0  0
   41.4500   29.4050   37.0610 N   0  0  0  0  0  0  0  0  0  0  0  0
   42.5840   29.7150   36.4340 C   0  0  0  0  0  0  0  0  0  0  0  0
   43.0080   30.9820   36.3940 N   0  0  0  0  0  0  0  0  0  0  0  0
   42.7300   32.9420   36.8900 H   0  0  0  0  0  0  0  0  0  0  0  0
   39.7500   30.1300   38.2030 H   0  0  0  0  0  0  0  0  0  0  0  0
   43.1130   28.8880   35.9770 H   0  0  0  0  0  0  0  0  0  0  0  0
  1  3  1  0  0  0  0
  1 19  1  0  0  0  0
  2  1  2  0  0  0  0
  3  7  1  0  0  0  0
  3  4  2  0  0  0  0
  4  5  1  0  0  0  0
  5  6  2  0  0  0  0
  5  9  1  0  0  0  0
  6 12  1  0  0  0  0
  7  6  1  0  0  0  0
  8  4  1  0  0  0  0
 11 10  1  0  0  0  0
 12 11  2  0  0  0  0
 13 12  1  0  0  0  0
 14 13  1  0  0  0  0
 15 13  2  0  0  0  0
 15 17  1  0  0  0  0
 16 15  1  0  0  0  0
 17 18  2  0  0  0  0
 18 11  1  0  0  0  0
 21 20  2  1  0  0  0
 21 19  1  0  0  0  0
 22 21  1  0  0  0  0
 23 22  1  0  0  0  0
 24 21  1  0  0  0  0
 25 26  1  0  0  0  0
 26 27  2  0  0  0  0
 26 24  1  0  0  0  0
 27 32  1  0  0  0  0
 28 27  1  0  0  0  0
 29 28  2  0  0  0  0
 30 29  1  0  0  0  0
 30 25  2  0  0  0  0
 31 25  1  0  0  0  0
 33 29  1  0  0  0  0
M  END
>  <minimizedAffinity>
-5.72340202

$$$$

 OpenBabel03242514383D

 33 35  0  0  0  0  0  0  0  0999 V2000
   37.5710   31.5370   38.8410 C   0  0  0  0  0  0  0  0  0  0  0  0
   37.7990   31.2860   37.6020 O   0  0  0  0  0  0  0  0  0  0  0  0
   37.0880   30.2790   39.4360 C   0  0  0  0  0  0  0  0  0  0  0  0
   35.8390   30.0530   40.0780 C   0  0  0  0  0  0  0  0  0  0  0  0
   35.6670   28.7750   40.5400 C   0  0  0  0  0  0  0  0  0  0  0  0
   36.5940   27.8170   40.3990 C   0  0  0  0  0  0  0  0  0  0  0  0
   37.9610   28.7680   39.4830 S   0  0  0  0  0  0  0  0  0  0  0  0
   35.1320   30.8460   40.1670 H   0  0  0  0  0  0  0  0  0  0  0  0
   34.7690   28.4520   41.0510 H   0  0  0  0  0  0  0  0  0  0  0  0
   37.2620   27.1970   43.3070 Cl  0  0  0  0  0  0  0  0  0  0  0  0
   37.0660   26.0470   42.0030 C   0  0  0  0  0  0  0  0  0  0  0  0
   36.7620   26.4640   40.7250 C   0  0  0  0  0  0  0  0  0  0  0  0
   36.5970   25.6040   39.6630 C   0  0  0  0  0  0  0  0  0  0  0  0
   36.3610   25.9180   38.6690 H   0  0  0  0  0  0  0  0  0  0  0  0
   36.7400   24.2250   39.8600 C   0  0  0  0  0  0  0  0  0  0  0  0
   36.6180   23.5180   39.0510 H   0  0  0  0  0  0  0  0  0  0  0  0
   37.0460   23.7710   41.1360 C   0  0  0  0  0  3  0  0  0  0  0  0
   37.2050   24.6690   42.1830 C   0  0  0  0  0  3  0  0  0  0  0  0
   37.8450   32.8230   39.1600 O   0  0  0  0  0  0  0  0  0  0  0  0
   38.8820   32.3710   41.4700 O   0  0  0  0  0  0  0  0  0  0  0  0
   38.8940   33.3570   40.3430 P   0  0  2  0  0  0  0  0  0  0  0  0
   38.3430   34.8210   40.9270 O   0  0  0  0  0  0  0  0  0  0  0  0
   38.6650   34.9810   41.8700 H   0  0  0  0  0  0  0  0  0  0  0  0
   40.4860   33.5060   39.6900 O   0  0  0  0  0  0  0  0  0  0  0  0
   42.3580   32.7590   40.9620 C   0  0  0  0  0  0  0  0  0  0  0  0
   41.5650   33.7980   40.5210 C   0  0  0  0  0  0  0  0  0  0  0  0
   41.8780   35.1000   40.9280 C   0  0  0  0  0  0  0  0  0  0  0  0
   42.9700   35.2570   41.7510 N   0  0  0  0  0  0  0  0  0  0  0  0
   43.7150   34.2280   42.1580 C   0  0  0  0  0  0  0  0  0  0  0  0
   43.4150   32.9850   41.7690 N   0  0  0  0  0  0  0  0  0  0  0  0
   42.2120   31.7170   40.7140 H   0  0  0  0  0  0  0  0  0  0  0  0
   41.2590   35.9110   40.5850 H   0  0  0  0  0  0  0  0  0  0  0  0
   44.5490   34.4730   42.8030 H   0  0  0  0  0  0  0  0  0  0  0  0
  1 19  1  0  0  0  0
  1  3  1  0  0  0  0
  2  1  2  0  0  0  0
  3  7  1  0  0  0  0
  3  4  2  0  0  0  0
  4  8  1  0  0  0  0
  4  5  1  0  0  0  0
  5  9  1  0  0  0  0
  6  5  2  0  0  0  0
  6 12  1  0  0  0  0
  7  6  1  0  0  0  0
 11 18  1  0  0  0  0
 11 10  1  0  0  0  0
 12 11  2  0  0  0  0
 13 15  2  0  0  0  0
 13 12  1  0  0  0  0
 14 13  1  0  0  0  0
 15 17  1  0  0  0  0
 16 15  1  0  0  0  0
 17 18  2  0  0  0  0
 19 21  1  0  0  0  0
 21 22  1  0  0  0  0
 21 20  2  1  0  0  0
 22 23  1  0  0  0  0
 24 21  1  0  0  0  0
 24 26  1  0  0  0  0
 25 30  1  0  0  0  0
 26 27  1  0  0  0  0
 26 25  2  0  0  0  0
 27 28  2  0  0  0  0
 28 29  1  0  0  0  0
 29 33  1  0  0  0  0
 30 29  2  0  0  0  0
 31 25  1  0  0  0  0
 32 27  1  0  0  0  0
M  END
>  <minimizedAffinity>
-5.72039127

$$$$

 OpenBabel03242514383D

 33 35  0  0  0  0  0  0  0  0999 V2000
   39.9680   31.0990   41.5040 C   0  0  0  0  0  0  0  0  0  0  0  0
   40.5170   31.4740   42.6020 O   0  0  0  0  0  0  0  0  0  0  0  0
   39.3110   29.8120   41.7880 C   0  0  0  0  0  0  0  0  0  0  0  0
   38.5850   29.4530   42.9570 C   0  0  0  0  0  0  0  0  0  0  0  0
   38.0870   28.1770   42.9410 C   0  0  0  0  0  0  0  0  0  0  0  0
   38.2650   27.3360   41.9120 C   0  0  0  0  0  0  0  0  0  0  0  0
   39.2840   28.4220   40.7300 S   0  0  0  0  0  0  0  0  0  0  0  0
   38.4680   30.1550   43.7510 H   0  0  0  0  0  0  0  0  0  0  0  0
   37.5140   27.7610   43.7590 H   0  0  0  0  0  0  0  0  0  0  0  0
   39.7460   25.1050   43.3670 Cl  0  0  0  0  0  0  0  0  0  0  0  0
   38.5140   24.9250   42.1380 C   0  0  0  0  0  0  0  0  0  0  0  0
   37.9210   26.0250   41.5570 C   0  0  0  0  0  0  0  0  0  0  0  0
   36.9480   25.9410   40.5880 C   0  0  0  0  0  0  0  0  0  0  0  0
   36.4810   26.7880   40.1320 H   0  0  0  0  0  0  0  0  0  0  0  0
   36.5150   24.6840   40.1460 C   0  0  0  0  0  0  0  0  0  0  0  0
   35.7540   24.5780   39.3860 H   0  0  0  0  0  0  0  0  0  0  0  0
   37.0930   23.5550   40.7110 C   0  0  0  0  0  3  0  0  0  0  0  0
   38.0730   23.6780   41.6880 C   0  0  0  0  0  3  0  0  0  0  0  0
   40.1730   31.9850   40.5020 O   0  0  0  0  0  0  0  0  0  0  0  0
   40.2340   34.3700   39.5410 O   0  0  0  0  0  0  0  0  0  0  0  0
   39.3250   33.3960   40.2260 P   0  0  2  0  0  0  0  0  0  0  0  0
   38.8760   34.0490   41.6950 O   0  0  0  0  0  0  0  0  0  0  0  0
   38.7450   35.0460   41.6260 H   0  0  0  0  0  0  0  0  0  0  0  0
   37.9450   33.0660   39.2410 O   0  0  0  0  0  0  0  0  0  0  0  0
   36.5600   31.6540   40.5700 C   0  0  0  0  0  0  0  0  0  0  0  0
   37.2400   31.8740   39.3900 C   0  0  0  0  0  0  0  0  0  0  0  0
   37.1930   30.8910   38.3950 C   0  0  0  0  0  0  0  0  0  0  0  0
   36.4610   29.7570   38.6660 N   0  0  0  0  0  0  0  0  0  0  0  0
   35.8160   29.5780   39.8180 C   0  0  0  0  0  0  0  0  0  0  0  0
   35.8620   30.5170   40.7680 N   0  0  0  0  0  0  0  0  0  0  0  0
   36.5270   32.3390   41.4060 H   0  0  0  0  0  0  0  0  0  0  0  0
   37.7230   31.0620   37.4740 H   0  0  0  0  0  0  0  0  0  0  0  0
   35.2740   28.6460   39.9180 H   0  0  0  0  0  0  0  0  0  0  0  0
  1  3  1  0  0  0  0
  1  2  2  0  0  0  0
  3  4  2  0  0  0  0
  4  8  1  0  0  0  0
  5  4  1  0  0  0  0
  5  9  1  0  0  0  0
  6  5  2  0  0  0  0
  7  3  1  0  0  0  0
  7  6  1  0  0  0  0
 11 10  1  0  0  0  0
 12  6  1  0  0  0  0
 12 11  2  0  0  0  0
 13 12  1  0  0  0  0
 14 13  1  0  0  0  0
 15 13  2  0  0  0  0
 15 17  1  0  0  0  0
 16 15  1  0  0  0  0
 17 18  2  0  0  0  0
 18 11  1  0  0  0  0
 19  1  1  0  0  0  0
 21 20  2  6  0  0  0
 21 19  1  0  0  0  0
 21 22  1  0  0  0  0
 23 22  1  0  0  0  0
 24 26  1  0  0  0  0
 24 21  1  0  0  0  0
 25 30  1  0  0  0  0
 25 31  1  0  0  0  0
 26 25  2  0  0  0  0
 27 28  2  0  0  0  0
 27 26  1  0  0  0  0
 28 29  1  0  0  0  0
 29 33  1  0  0  0  0
 29 30  2  0  0  0  0
 32 27  1  0  0  0  0
M  END
>  <minimizedAffinity>
-5.68547678

$$$$

 OpenBabel03242514383D

 33 35  0  0  0  0  0  0  0  0999 V2000
   35.9270   29.3950   38.5900 C   0  0  0  0  0  0  0  0  0  0  0  0
   34.7010   29.0530   38.4230 O   0  0  0  0  0  0  0  0  0  0  0  0
   36.3960   28.6840   39.7910 C   0  0  0  0  0  0  0  0  0  0  0  0
   35.7560   28.6190   41.0600 C   0  0  0  0  0  0  0  0  0  0  0  0
   36.4320   27.8810   41.9940 C   0  0  0  0  0  0  0  0  0  0  0  0
   37.5980   27.2690   41.7380 C   0  0  0  0  0  0  0  0  0  0  0  0
   37.8670   27.7500   39.9190 S   0  0  0  0  0  0  0  0  0  0  0  0
   34.8290   29.1210   41.2170 H   0  0  0  0  0  0  0  0  0  0  0  0
   36.0700   27.7410   43.0050 H   0  0  0  0  0  0  0  0  0  0  0  0
   37.3260   24.2580   41.3530 Cl  0  0  0  0  0  0  0  0  0  0  0  0
   38.5210   25.0930   42.3210 C   0  0  0  0  0  0  0  0  0  0  0  0
   38.5320   26.4680   42.4100 C   0  0  0  0  0  0  0  0  0  0  0  0
   39.4470   27.1760   43.1550 C   0  0  0  0  0  0  0  0  0  0  0  0
   39.4640   28.2420   43.2300 H   0  0  0  0  0  0  0  0  0  0  0  0
   40.4340   26.4900   43.8740 C   0  0  0  0  0  0  0  0  0  0  0  0
   41.1700   27.0100   44.4710 H   0  0  0  0  0  0  0  0  0  0  0  0
   40.4510   25.1030   43.8060 C   0  0  0  0  0  3  0  0  0  0  0  0
   39.5110   24.4230   43.0440 C   0  0  0  0  0  3  0  0  0  0  0  0
   36.3510   30.2580   37.6380 O   0  0  0  0  0  0  0  0  0  0  0  0
   37.6080   32.3080   36.7250 O   0  0  0  0  0  0  0  0  0  0  0  0
   37.7700   31.1350   37.6440 P   0  0  2  0  0  0  0  0  0  0  0  0
   38.9980   30.1740   37.0480 O   0  0  0  0  0  0  0  0  0  0  0  0
   39.7380   30.7330   36.6500 H   0  0  0  0  0  0  0  0  0  0  0  0
   38.1210   31.6720   39.2470 O   0  0  0  0  0  0  0  0  0  0  0  0
   40.1300   32.9450   39.0990 C   0  0  0  0  0  0  0  0  0  0  0  0
   38.8000   32.8700   39.4590 C   0  0  0  0  0  0  0  0  0  0  0  0
   38.1920   33.9980   40.0210 C   0  0  0  0  0  0  0  0  0  0  0  0
   38.9720   35.1210   40.1790 N   0  0  0  0  0  0  0  0  0  0  0  0
   40.2550   35.1580   39.8190 C   0  0  0  0  0  0  0  0  0  0  0  0
   40.8350   34.0800   39.2820 N   0  0  0  0  0  0  0  0  0  0  0  0
   40.7020   32.1410   38.6590 H   0  0  0  0  0  0  0  0  0  0  0  0
   37.1540   33.9390   40.3030 H   0  0  0  0  0  0  0  0  0  0  0  0
   40.7680   36.0960   39.9910 H   0  0  0  0  0  0  0  0  0  0  0  0
  1  3  1  0  0  0  0
  2  1  2  0  0  0  0
  3  7  1  0  0  0  0
  3  4  2  0  0  0  0
  4  8  1  0  0  0  0
  4  5  1  0  0  0  0
  5  9  1  0  0  0  0
  6  5  2  0  0  0  0
  6 12  1  0  0  0  0
  7  6  1  0  0  0  0
 10 11  1  0  0  0  0
 11 12  2  0  0  0  0
 11 18  1  0  0  0  0
 12 13  1  0  0  0  0
 13 14  1  0  0  0  0
 13 15  2  0  0  0  0
 15 16  1  0  0  0  0
 17 15  1  0  0  0  0
 18 17  2  0  0  0  0
 19 21  1  0  0  0  0
 19  1  1  0  0  0  0
 21 20  2  6  0  0  0
 21 24  1  0  0  0  0
 22 21  1  0  0  0  0
 23 22  1  0  0  0  0
 24 26  1  0  0  0  0
 25 30  2  0  0  0  0
 25 26  1  0  0  0  0
 26 27  2  0  0  0  0
 27 28  1  0  0  0  0
 27 32  1  0  0  0  0
 29 33  1  0  0  0  0
 29 28  2  0  0  0  0
 30 29  1  0  0  0  0
 31 25  1  0  0  0  0
M  END
>  <minimizedAffinity>
-5.65603113

$$$$

 OpenBabel03242514383D

 33 35  0  0  0  0  0  0  0  0999 V2000
   39.5020   31.0960   41.7660 C   0  0  0  0  0  0  0  0  0  0  0  0
   40.4510   31.1590   42.6280 O   0  0  0  0  0  0  0  0  0  0  0  0
   38.8730   29.7750   41.9380 C   0  0  0  0  0  0  0  0  0  0  0  0
   37.9520   29.3840   42.9490 C   0  0  0  0  0  0  0  0  0  0  0  0
   37.5360   28.0820   42.8580 C   0  0  0  0  0  0  0  0  0  0  0  0
   37.9580   27.2460   41.8980 C   0  0  0  0  0  0  0  0  0  0  0  0
   39.1290   28.3790   40.9200 S   0  0  0  0  0  0  0  0  0  0  0  0
   37.6440   30.0830   43.6920 H   0  0  0  0  0  0  0  0  0  0  0  0
   36.8370   27.6400   43.5550 H   0  0  0  0  0  0  0  0  0  0  0  0
   39.6970   25.1550   43.2750 Cl  0  0  0  0  0  0  0  0  0  0  0  0
   38.4810   24.8730   42.0490 C   0  0  0  0  0  0  0  0  0  0  0  0
   37.7610   25.9150   41.5050 C   0  0  0  0  0  0  0  0  0  0  0  0
   36.7940   25.7500   40.5400 C   0  0  0  0  0  0  0  0  0  0  0  0
   36.2310   26.5510   40.1130 H   0  0  0  0  0  0  0  0  0  0  0  0
   36.5030   24.4660   40.0630 C   0  0  0  0  0  0  0  0  0  0  0  0
   35.7510   24.2960   39.3050 H   0  0  0  0  0  0  0  0  0  0  0  0
   37.2110   23.3930   40.5890 C   0  0  0  0  0  3  0  0  0  0  0  0
   38.1800   23.5980   41.5630 C   0  0  0  0  0  3  0  0  0  0  0  0
   39.4100   32.2240   41.0250 O   0  0  0  0  0  0  0  0  0  0  0  0
   38.1250   34.1630   39.9270 O   0  0  0  0  0  0  0  0  0  0  0  0
   38.1430   32.6680   40.0340 P   0  0  2  0  0  0  0  0  0  0  0  0
   36.7110   32.1810   40.7400 O   0  0  0  0  0  0  0  0  0  0  0  0
   35.9390   32.7510   40.4310 H   0  0  0  0  0  0  0  0  0  0  0  0
   38.3430   31.9570   38.4730 O   0  0  0  0  0  0  0  0  0  0  0  0
   39.9090   30.2820   37.8210 C   0  0  0  0  0  0  0  0  0  0  0  0
   39.6120   31.6160   38.0090 C   0  0  0  0  0  0  0  0  0  0  0  0
   40.5980   32.5690   37.7290 C   0  0  0  0  0  0  0  0  0  0  0  0
   41.8120   32.1040   37.2770 N   0  0  0  0  0  0  0  0  0  0  0  0
   42.0640   30.8060   37.1070 C   0  0  0  0  0  0  0  0  0  0  0  0
   41.1220   29.8970   37.3750 N   0  0  0  0  0  0  0  0  0  0  0  0
   39.2300   29.4620   38.0060 H   0  0  0  0  0  0  0  0  0  0  0  0
   40.3660   33.6100   37.8760 H   0  0  0  0  0  0  0  0  0  0  0  0
   43.0550   30.5590   36.7460 H   0  0  0  0  0  0  0  0  0  0  0  0
  1  3  1  0  0  0  0
  1  2  2  0  0  0  0
  3  4  2  0  0  0  0
  4  8  1  0  0  0  0
  5  4  1  0  0  0  0
  5  9  1  0  0  0  0
  6  5  2  0  0  0  0
  7  6  1  0  0  0  0
  7  3  1  0  0  0  0
 11 10  1  0  0  0  0
 12  6  1  0  0  0  0
 12 11  2  0  0  0  0
 13 12  1  0  0  0  0
 14 13  1  0  0  0  0
 15 13  2  0  0  0  0
 15 17  1  0  0  0  0
 16 15  1  0  0  0  0
 17 18  2  0  0  0  0
 18 11  1  0  0  0  0
 19  1  1  0  0  0  0
 21 20  2  6  0  0  0
 21 22  1  0  0  0  0
 21 19  1  0  0  0  0
 23 22  1  0  0  0  0
 24 21  1  0  0  0  0
 25 31  1  0  0  0  0
 25 26  1  0  0  0  0
 26 24  1  0  0  0  0
 27 32  1  0  0  0  0
 27 26  2  0  0  0  0
 28 27  1  0  0  0  0
 29 28  2  0  0  0  0
 29 30  1  0  0  0  0
 30 25  2  0  0  0  0
 33 29  1  0  0  0  0
M  END
>  <minimizedAffinity>
-5.6164875

$$$$
