
 OpenBabel03252508393D

 41 44  0  0  0  0  0  0  0  0999 V2000
   45.2550   33.9630   40.6760 C   0  0  0  0  0  0  0  0  0  0  0  0
   44.2000   33.6420   39.8590 C   0  0  0  0  0  0  0  0  0  0  0  0
   44.5080   33.1600   38.6100 C   0  0  0  0  0  0  0  0  0  0  0  0
   45.7880   32.9910   38.1510 C   0  0  0  0  0  0  0  0  0  0  0  0
   46.8090   33.3240   38.9970 C   0  0  0  0  0  0  0  0  0  0  0  0
   46.5710   33.8120   40.2650 C   0  0  0  0  0  0  0  0  0  0  0  0
   43.6840   32.9030   37.9570 H   0  0  0  0  0  0  0  0  0  0  0  0
   46.0120   32.6110   37.1620 H   0  0  0  0  0  0  0  0  0  0  0  0
   47.8310   33.1960   38.6510 H   0  0  0  0  0  0  0  0  0  0  0  0
   40.8970   35.2260   40.7570 C   0  0  0  0  0  0  0  0  0  0  0  0
   42.1950   35.0620   40.2440 C   0  0  0  0  0  0  0  0  0  0  0  0
   42.8640   33.8350   40.3790 C   0  0  0  0  0  0  0  0  0  0  0  0
   42.1680   32.8680   41.0220 N   0  0  0  0  0  0  0  0  0  0  0  0
   40.9380   33.0360   41.5030 C   0  0  0  0  0  0  0  0  0  0  0  0
   40.3050   34.2120   41.3700 N   0  0  0  0  0  0  0  0  0  0  0  0
   40.2710   36.4730   40.5960 N   0  0  0  0  0  0  0  0  0  0  0  0
   42.7300   35.8490   39.7340 H   0  0  0  0  0  0  0  0  0  0  0  0
   40.4780   32.1790   42.0040 H   0  0  0  0  0  0  0  0  0  0  0  0
   39.9760   37.1320   41.3430 H   0  0  0  0  0  0  0  0  0  0  0  0
   40.1520   36.6220   39.5630 H   0  0  0  0  0  0  0  0  0  0  0  0
   47.7180   34.1370   41.0880 C   0  0  0  0  0  0  0  0  0  0  0  0
   48.1870   35.4310   40.9710 C   0  0  0  0  0  0  0  0  0  0  0  0
   49.2720   35.9350   41.6770 C   0  0  0  0  0  0  0  0  0  0  0  0
   49.9120   35.0800   42.5420 C   0  0  0  0  0  0  0  0  0  0  0  0
   49.4670   33.7910   42.6770 C   0  0  0  0  0  0  0  0  0  0  0  0
   48.3760   33.3100   41.9570 C   0  0  0  0  0  0  0  0  0  0  0  0
   47.7260   36.1720   40.2980 H   0  0  0  0  0  0  0  0  0  0  0  0
   49.6200   36.9500   41.5690 H   0  0  0  0  0  0  0  0  0  0  0  0
   50.7670   35.4570   43.1060 H   0  0  0  0  0  0  0  0  0  0  0  0
   49.9800   33.1260   43.3630 H   0  0  0  0  0  0  0  0  0  0  0  0
   49.6840   31.3240   40.0740 Cl  0  0  0  0  0  0  0  0  0  0  0  0
   48.4380   30.9800   41.2640 C   0  0  0  0  0  0  0  0  0  0  0  0
   47.8980   31.9560   42.0870 C   0  0  0  0  0  0  0  0  0  0  0  0
   46.9320   31.5090   42.9600 C   0  0  0  0  0  0  0  0  0  0  0  0
   46.4830   32.2390   43.6190 H   0  0  0  0  0  0  0  0  0  0  0  0
   46.4970   30.2040   43.0530 C   0  0  0  0  0  0  0  0  0  0  0  0
   45.7420   29.9570   43.7630 H   0  0  0  0  0  0  0  0  0  0  0  0
   47.0590   29.2600   42.2170 C   0  0  0  0  0  3  0  0  0  0  0  0
   48.0310   29.6530   41.3210 C   0  0  0  0  0  3  0  0  0  0  0  0
   44.8270   34.8870   43.0890 N   0  0  0  0  0  0  0  0  0  0  0  0
   45.0120   34.4760   42.0040 C   0  0  0  0  0  0  0  0  0  0  0  0
  1 41  1  0  0  0  0
  2 12  1  0  0  0  0
  2  1  2  0  0  0  0
  3  2  1  0  0  0  0
  4  3  2  0  0  0  0
  4  5  1  0  0  0  0
  5  6  2  0  0  0  0
  6  1  1  0  0  0  0
  6 21  1  0  0  0  0
  7  3  1  0  0  0  0
  8  4  1  0  0  0  0
  9  5  1  0  0  0  0
 10 15  1  0  0  0  0
 11 12  1  0  0  0  0
 11 10  2  0  0  0  0
 12 13  2  0  0  0  0
 13 14  1  0  0  0  0
 14 18  1  0  0  0  0
 15 14  2  0  0  0  0
 16 10  1  0  0  0  0
 16 19  1  0  0  0  0
 17 11  1  0  0  0  0
 20 16  1  0  0  0  0
 21 26  1  0  0  0  0
 22 21  2  0  0  0  0
 22 23  1  0  0  0  0
 23 24  2  0  0  0  0
 24 25  1  0  0  0  0
 24 29  1  0  0  0  0
 25 30  1  0  0  0  0
 26 33  1  0  0  0  0
 26 25  2  0  0  0  0
 27 22  1  0  0  0  0
 28 23  1  0  0  0  0
 31 32  1  0  0  0  0
 32 39  2  0  0  0  0
 32 33  1  0  0  0  0
 33 34  2  0  0  0  0
 34 36  1  0  0  0  0
 34 35  1  0  0  0  0
 36 37  1  0  0  0  0
 38 36  2  0  0  0  0
 39 38  1  0  0  0  0
 41 40  3  0  0  0  0
M  END
>  <minimizedAffinity>
-6.1041975

>  <minimizedRMSD>
0.787597239

$$$$
