
 OpenBabel03242517163D

 33 35  0  0  0  0  0  0  0  0999 V2000
   44.9340   35.0560   44.5260 C   0  0  0  0  0  0  0  0  0  0  0  0
   44.7530   34.3930   43.2850 C   0  0  0  0  0  0  0  0  0  0  0  0
   45.0030   33.0340   43.2200 C   0  0  0  0  0  0  0  0  0  0  0  0
   45.4130   32.4170   44.3640 N   0  0  0  0  0  0  0  0  0  0  0  0
   45.5800   33.0560   45.5330 C   0  0  0  0  0  0  0  0  0  0  0  0
   45.3370   34.3700   45.5930 N   0  0  0  0  0  0  0  0  0  0  0  0
   44.7240   36.1170   44.5250 H   0  0  0  0  0  0  0  0  0  0  0  0
   44.8800   32.4770   42.2940 H   0  0  0  0  0  0  0  0  0  0  0  0
   47.8240   31.0410   45.1010 Cl  0  0  0  0  0  0  0  0  0  0  0  0
   47.0380   31.4150   46.6110 C   0  0  0  0  0  0  0  0  0  0  0  0
   46.0210   32.3470   46.7300 C   0  0  0  0  0  0  0  0  0  0  0  0
   45.4300   32.6060   47.9530 C   0  0  0  0  0  0  0  0  0  0  0  0
   44.6330   33.3400   48.0350 H   0  0  0  0  0  0  0  0  0  0  0  0
   45.8520   31.9270   49.1000 C   0  0  0  0  0  0  0  0  0  0  0  0
   45.3910   32.1270   50.0600 H   0  0  0  0  0  0  0  0  0  0  0  0
   46.8660   31.0090   48.9350 C   0  0  0  0  0  0  0  0  0  0  0  0
   47.4800   30.7220   47.7350 C   0  0  0  0  0  0  0  0  0  0  0  0
   44.3070   35.1360   42.0990 C   0  0  0  0  0  0  0  0  0  0  0  0
   43.1950   34.9280   41.4450 C   0  0  0  0  0  0  0  0  0  0  0  0
   42.7940   35.7100   40.2480 C   0  0  0  0  0  0  0  0  0  0  0  0
   42.7250   36.7920   40.5100 H   0  0  0  0  0  0  0  0  0  0  0  0
   43.5960   35.6130   39.4920 H   0  0  0  0  0  0  0  0  0  0  0  0
   42.2300   35.8460   37.5150 F   0  0  0  0  0  0  0  0  0  0  0  0
   41.2720   35.3210   38.3330 C   0  0  0  0  0  0  0  0  0  0  0  0
   41.5210   35.2370   39.7170 C   0  0  0  0  0  0  0  0  0  0  0  0
   40.4800   34.6930   40.4070 C   0  0  0  0  0  0  0  0  0  0  0  0
   39.2820   34.2450   39.9310 C   0  0  0  0  0  0  0  0  0  0  0  0
   39.1320   34.3720   38.5440 C   0  0  0  0  0  0  0  0  0  0  0  0
   40.0940   34.9000   37.7170 C   0  0  0  0  0  0  0  0  0  0  0  0
   40.6100   34.5990   41.4930 H   0  0  0  0  0  0  0  0  0  0  0  0
   38.5130   33.8260   40.5650 H   0  0  0  0  0  0  0  0  0  0  0  0
   38.2200   34.0450   38.0780 H   0  0  0  0  0  0  0  0  0  0  0  0
   39.9830   34.9990   36.6600 H   0  0  0  0  0  0  0  0  0  0  0  0
  1  6  1  0  0  0  0
  2  1  2  0  0  0  0
  3  2  1  0  0  0  0
  3  4  2  0  0  0  0
  4  5  1  0  0  0  0
  5  6  2  0  0  0  0
  5 11  1  0  0  0  0
  7  1  1  0  0  0  0
  8  3  1  0  0  0  0
  9 10  1  0  0  0  0
 10 11  2  0  0  0  0
 10 17  1  0  0  0  0
 11 12  1  0  0  0  0
 12 13  1  0  0  0  0
 12 14  2  0  0  0  0
 14 15  1  0  0  0  0
 16 14  1  0  0  0  0
 17 16  2  0  0  0  0
 18  2  1  0  0  0  0
 19 18  2  0  0  0  0
 20 21  1  0  0  0  0
 20 19  1  0  0  0  0
 22 20  1  0  0  0  0
 23 24  1  0  0  0  0
 24 25  1  0  0  0  0
 25 20  1  0  0  0  0
 25 26  2  0  0  0  0
 26 30  1  0  0  0  0
 27 26  1  0  0  0  0
 27 31  1  0  0  0  0
 28 27  2  0  0  0  0
 29 24  2  0  0  0  0
 29 28  1  0  0  0  0
 32 28  1  0  0  0  0
 33 29  1  0  0  0  0
M  END
>  <minimizedAffinity>
-6.53171825

>  <minimizedRMSD>
1.40079391

$$$$
