
 OpenBabel03252508383D

 41 44  0  0  0  0  0  0  0  0999 V2000
   45.1850   33.9710   40.7150 C   0  0  0  0  0  0  0  0  0  0  0  0
   44.1270   33.6290   39.9090 C   0  0  0  0  0  0  0  0  0  0  0  0
   44.4310   33.1060   38.6770 C   0  0  0  0  0  0  0  0  0  0  0  0
   45.7100   32.9150   38.2220 C   0  0  0  0  0  0  0  0  0  0  0  0
   46.7340   33.2700   39.0560 C   0  0  0  0  0  0  0  0  0  0  0  0
   46.5000   33.7990   40.3070 C   0  0  0  0  0  0  0  0  0  0  0  0
   43.6060   32.8310   38.0330 H   0  0  0  0  0  0  0  0  0  0  0  0
   45.9310   32.5020   37.2450 H   0  0  0  0  0  0  0  0  0  0  0  0
   47.7550   33.1250   38.7130 H   0  0  0  0  0  0  0  0  0  0  0  0
   40.8470   35.2690   40.7900 C   0  0  0  0  0  0  0  0  0  0  0  0
   42.1440   35.0830   40.2820 C   0  0  0  0  0  0  0  0  0  0  0  0
   42.7930   33.8450   40.4240 C   0  0  0  0  0  0  0  0  0  0  0  0
   42.0800   32.8930   41.0690 N   0  0  0  0  0  0  0  0  0  0  0  0
   40.8510   33.0830   41.5450 C   0  0  0  0  0  0  0  0  0  0  0  0
   40.2380   34.2680   41.4050 N   0  0  0  0  0  0  0  0  0  0  0  0
   40.2420   36.5260   40.6210 N   0  0  0  0  0  0  0  0  0  0  0  0
   42.6940   35.8590   39.7700 H   0  0  0  0  0  0  0  0  0  0  0  0
   40.3760   32.2350   42.0490 H   0  0  0  0  0  0  0  0  0  0  0  0
   39.9560   37.1920   41.3640 H   0  0  0  0  0  0  0  0  0  0  0  0
   40.1290   36.6720   39.5870 H   0  0  0  0  0  0  0  0  0  0  0  0
   47.6490   34.1450   41.1180 C   0  0  0  0  0  0  0  0  0  0  0  0
   48.1680   35.4080   40.9080 C   0  0  0  0  0  0  0  0  0  0  0  0
   49.2640   35.9240   41.5890 C   0  0  0  0  0  0  0  0  0  0  0  0
   49.8620   35.1160   42.5250 C   0  0  0  0  0  0  0  0  0  0  0  0
   49.3680   33.8590   42.7530 C   0  0  0  0  0  0  0  0  0  0  0  0
   48.2670   33.3640   42.0580 C   0  0  0  0  0  0  0  0  0  0  0  0
   47.7430   36.1100   40.1750 H   0  0  0  0  0  0  0  0  0  0  0  0
   49.6510   36.9150   41.4070 H   0  0  0  0  0  0  0  0  0  0  0  0
   50.7250   35.5040   43.0700 H   0  0  0  0  0  0  0  0  0  0  0  0
   49.8470   33.2310   43.4950 H   0  0  0  0  0  0  0  0  0  0  0  0
   46.8880   32.9980   44.7350 Cl  0  0  0  0  0  0  0  0  0  0  0  0
   47.0910   31.7830   43.4830 C   0  0  0  0  0  0  0  0  0  0  0  0
   47.7370   32.0430   42.2840 C   0  0  0  0  0  0  0  0  0  0  0  0
   47.8030   30.9740   41.4180 C   0  0  0  0  0  0  0  0  0  0  0  0
   48.3020   31.1340   40.4720 H   0  0  0  0  0  0  0  0  0  0  0  0
   47.2870   29.7210   41.6710 C   0  0  0  0  0  0  0  0  0  0  0  0
   47.3900   28.9590   40.9360 H   0  0  0  0  0  0  0  0  0  0  0  0
   46.6500   29.5010   42.8750 C   0  0  0  0  0  3  0  0  0  0  0  0
   46.5540   30.5360   43.7810 C   0  0  0  0  0  3  0  0  0  0  0  0
   44.7650   34.9740   43.0970 N   0  0  0  0  0  0  0  0  0  0  0  0
   44.9470   34.5280   42.0260 C   0  0  0  0  0  0  0  0  0  0  0  0
  1 41  1  0  0  0  0
  2 12  1  0  0  0  0
  2  1  2  0  0  0  0
  3  2  1  0  0  0  0
  4  3  2  0  0  0  0
  4  5  1  0  0  0  0
  5  6  2  0  0  0  0
  6  1  1  0  0  0  0
  6 21  1  0  0  0  0
  7  3  1  0  0  0  0
  8  4  1  0  0  0  0
  9  5  1  0  0  0  0
 10 15  1  0  0  0  0
 11 12  1  0  0  0  0
 11 10  2  0  0  0  0
 12 13  2  0  0  0  0
 13 14  1  0  0  0  0
 14 18  1  0  0  0  0
 15 14  2  0  0  0  0
 16 10  1  0  0  0  0
 16 19  1  0  0  0  0
 17 11  1  0  0  0  0
 20 16  1  0  0  0  0
 21 26  1  0  0  0  0
 22 21  2  0  0  0  0
 22 23  1  0  0  0  0
 23 24  2  0  0  0  0
 24 25  1  0  0  0  0
 24 29  1  0  0  0  0
 25 30  1  0  0  0  0
 26 33  1  0  0  0  0
 26 25  2  0  0  0  0
 27 22  1  0  0  0  0
 28 23  1  0  0  0  0
 32 39  1  0  0  0  0
 32 31  1  0  0  0  0
 33 32  2  0  0  0  0
 34 36  2  0  0  0  0
 34 33  1  0  0  0  0
 35 34  1  0  0  0  0
 36 38  1  0  0  0  0
 37 36  1  0  0  0  0
 38 39  2  0  0  0  0
 41 40  3  0  0  0  0
M  END
>  <minimizedAffinity>
-6.28190851

>  <minimizedRMSD>
0.189241856

$$$$
