
 OpenBabel03252508323D

 32 34  0  0  1  0  0  0  0  0999 V2000
   44.5320   34.1520   42.5180 N   0  0  0  0  0  0  0  0  0  0  0  0
   44.6640   33.4410   41.2810 C   0  0  1  0  0  0  0  0  0  0  0  0
   43.9400   34.0410   40.1280 C   0  0  0  0  0  0  0  0  0  0  0  0
   42.6670   34.5770   40.4360 N   0  0  0  0  0  0  0  0  0  0  0  0
   42.5450   35.2760   41.6500 C   0  0  0  0  0  0  0  0  0  0  0  0
   43.8680   35.4110   42.3880 C   0  0  0  0  0  0  0  0  0  0  0  0
   44.3370   32.3950   41.4570 H   0  0  0  0  0  0  0  0  0  0  0  0
   44.5830   34.8450   39.6640 H   0  0  0  0  0  0  0  0  0  0  0  0
   43.8220   33.2710   39.3360 H   0  0  0  0  0  0  0  0  0  0  0  0
   42.0610   34.7820   39.6570 H   0  0  0  0  0  0  0  0  0  0  0  0
   42.2170   36.3280   41.4420 H   0  0  0  0  0  0  0  0  0  0  0  0
   41.8090   34.8730   42.3740 H   0  0  0  0  0  0  0  0  0  0  0  0
   43.7300   36.0050   43.2810 H   0  0  0  0  0  0  0  0  0  0  0  0
   44.4870   36.0550   41.6950 H   0  0  0  0  0  0  0  0  0  0  0  0
   45.2180   34.4030   44.7830 C   0  0  0  0  0  0  0  0  0  0  0  0
   45.0540   33.5560   43.6920 C   0  0  0  0  0  0  0  0  0  0  0  0
   45.4110   32.2290   43.8450 C   0  0  0  0  0  0  0  0  0  0  0  0
   45.9030   31.7900   45.0340 N   0  0  0  0  0  0  0  0  0  0  0  0
   46.0530   32.6410   46.0880 C   0  0  0  0  0  0  0  0  0  0  0  0
   45.7140   33.9340   45.9630 N   0  0  0  0  0  0  0  0  0  0  0  0
   44.9990   35.4590   44.8610 H   0  0  0  0  0  0  0  0  0  0  0  0
   45.2820   31.5930   43.0110 H   0  0  0  0  0  0  0  0  0  0  0  0
   46.4560   32.1810   46.9850 H   0  0  0  0  0  0  0  0  0  0  0  0
   45.5800   30.7450   40.4580 Cl  0  0  0  0  0  0  0  0  0  0  0  0
   46.6520   32.1430   40.3830 C   0  0  0  0  0  0  0  0  0  0  0  0
   46.0900   33.3550   40.8010 C   0  0  0  0  0  0  0  0  0  0  0  0
   46.9250   34.4450   40.7450 C   0  0  0  0  0  0  0  0  0  0  0  0
   46.5780   35.4010   41.0430 H   0  0  0  0  0  0  0  0  0  0  0  0
   48.2300   34.3800   40.3090 C   0  0  0  0  0  0  0  0  0  0  0  0
   48.8870   35.2280   40.2620 H   0  0  0  0  0  0  0  0  0  0  0  0
   48.7450   33.1660   39.9060 C   0  0  0  0  0  3  0  0  0  0  0  0
   47.9500   32.0430   39.9440 C   0  0  0  0  0  3  0  0  0  0  0  0
  1 16  1  0  0  0  0
  2  7  1  1  0  0  0
  2  1  1  0  0  0  0
  3  4  1  0  0  0  0
  3  2  1  0  0  0  0
  4  5  1  0  0  0  0
  5 12  1  0  0  0  0
  5  6  1  0  0  0  0
  6  1  1  0  0  0  0
  6 13  1  0  0  0  0
  8  3  1  0  0  0  0
  9  3  1  0  0  0  0
 10  4  1  0  0  0  0
 11  5  1  0  0  0  0
 14  6  1  0  0  0  0
 15 21  1  0  0  0  0
 15 20  1  0  0  0  0
 16 17  1  0  0  0  0
 16 15  2  0  0  0  0
 17 18  2  0  0  0  0
 18 19  1  0  0  0  0
 19 23  1  0  0  0  0
 20 19  2  0  0  0  0
 22 17  1  0  0  0  0
 25 24  1  0  0  0  0
 25 26  1  0  0  0  0
 26  2  1  0  0  0  0
 27 26  2  0  0  0  0
 27 28  1  0  0  0  0
 29 27  1  0  0  0  0
 30 29  1  0  0  0  0
 31 32  1  0  0  0  0
 31 29  2  0  0  0  0
 32 25  2  0  0  0  0
M  END
>  <minimizedAffinity>
-4.31227398

>  <minimizedRMSD>
1.14689136

$$$$
