
 OpenBabel03252504493D

 24 25  0  0  0  0  0  0  0  0999 V2000
   46.8090   32.4920   45.7430 C   0  0  0  0  0  0  0  0  0  0  0  0
   45.7590   33.1910   46.3310 C   0  0  0  0  0  0  0  0  0  0  0  0
   45.2420   34.2800   45.6310 C   0  0  0  0  0  0  0  0  0  0  0  0
   45.7900   34.5960   44.4180 N   0  0  0  0  0  0  0  0  0  0  0  0
   46.8110   33.8920   43.8780 C   0  0  0  0  0  0  0  0  0  0  0  0
   47.3160   32.8440   44.5420 N   0  0  0  0  0  0  0  0  0  0  0  0
   47.2910   31.6330   46.1870 H   0  0  0  0  0  0  0  0  0  0  0  0
   44.4280   34.8390   46.0650 H   0  0  0  0  0  0  0  0  0  0  0  0
   45.4050   32.6810   41.5960 Cl  0  0  0  0  0  0  0  0  0  0  0  0
   46.7730   33.7820   41.4300 C   0  0  0  0  0  0  0  0  0  0  0  0
   47.3480   34.2840   42.5790 C   0  0  0  0  0  0  0  0  0  0  0  0
   48.4220   35.1520   42.5350 C   0  0  0  0  0  0  0  0  0  0  0  0
   48.8920   35.5610   43.4240 H   0  0  0  0  0  0  0  0  0  0  0  0
   48.9350   35.5260   41.3020 C   0  0  0  0  0  0  0  0  0  0  0  0
   49.7770   36.2050   41.2480 H   0  0  0  0  0  0  0  0  0  0  0  0
   48.3550   35.0200   40.1390 C   0  0  0  0  0  0  0  0  0  0  0  0
   47.2770   34.1500   40.2180 C   0  0  0  0  0  0  0  0  0  0  0  0
   45.2610   32.7590   47.6150 C   0  0  0  0  0  0  0  0  0  0  0  0
   44.2250   33.0740   47.7750 H   0  0  0  0  0  0  0  0  0  0  0  0
   45.9300   33.1920   48.4120 H   0  0  0  0  0  0  0  0  0  0  0  0
   45.4350   31.2550   47.7160 C   0  0  0  0  0  0  0  0  0  0  0  0
   44.4320   30.7670   47.5530 H   0  0  0  0  0  0  0  0  0  0  0  0
   46.0960   30.8640   46.9240 H   0  0  0  0  0  0  0  0  0  0  0  0
   45.8010   30.9650   48.7380 H   0  0  0  0  0  0  0  0  0  0  0  0
  1  7  1  0  0  0  0
  1  2  1  0  0  0  0
  2 18  1  0  0  0  0
  3  8  1  0  0  0  0
  3  2  2  0  0  0  0
  4  3  1  0  0  0  0
  5  4  2  0  0  0  0
  5  6  1  0  0  0  0
  6  1  2  0  0  0  0
 10  9  1  0  0  0  0
 10 11  1  0  0  0  0
 11  5  1  0  0  0  0
 12 11  2  0  0  0  0
 12 13  1  0  0  0  0
 14 12  1  0  0  0  0
 15 14  1  0  0  0  0
 16 17  1  0  0  0  0
 16 14  2  0  0  0  0
 17 10  2  0  0  0  0
 18 21  1  0  0  0  0
 18 19  1  0  0  0  0
 18 20  1  0  0  0  0
 21 24  1  0  0  0  0
 22 21  1  0  0  0  0
 23 21  1  0  0  0  0
M  END
>  <minimizedAffinity>
-4.77754307

>  <minimizedRMSD>
6.41219807

$$$$
