
 OpenBabel03252508323D

 32 34  0  0  1  0  0  0  0  0999 V2000
   45.4300   33.5330   43.6510 N   0  0  0  0  0  0  0  0  0  0  0  0
   44.7730   33.9520   42.4490 C   0  0  1  0  0  0  0  0  0  0  0  0
   44.3560   35.3800   42.4220 C   0  0  0  0  0  0  0  0  0  0  0  0
   43.8500   35.8770   43.6460 N   0  0  0  0  0  0  0  0  0  0  0  0
   44.5010   35.4650   44.8210 C   0  0  0  0  0  0  0  0  0  0  0  0
   45.7250   34.6070   44.5460 C   0  0  0  0  0  0  0  0  0  0  0  0
   43.9040   33.2800   42.2880 H   0  0  0  0  0  0  0  0  0  0  0  0
   45.2300   36.0140   42.0920 H   0  0  0  0  0  0  0  0  0  0  0  0
   43.5860   35.5160   41.6330 H   0  0  0  0  0  0  0  0  0  0  0  0
   43.3540   36.7540   43.6080 H   0  0  0  0  0  0  0  0  0  0  0  0
   44.8890   36.3640   45.3660 H   0  0  0  0  0  0  0  0  0  0  0  0
   43.8790   34.9160   45.5580 H   0  0  0  0  0  0  0  0  0  0  0  0
   46.2210   34.3670   45.4770 H   0  0  0  0  0  0  0  0  0  0  0  0
   46.4250   35.3170   44.0120 H   0  0  0  0  0  0  0  0  0  0  0  0
   46.9120   31.8460   44.4410 C   0  0  0  0  0  0  0  0  0  0  0  0
   45.7070   32.1540   43.8180 C   0  0  0  0  0  0  0  0  0  0  0  0
   44.8990   31.1050   43.4200 C   0  0  0  0  0  0  0  0  0  0  0  0
   45.2910   29.8220   43.6420 N   0  0  0  0  0  0  0  0  0  0  0  0
   46.4770   29.5480   44.2560 C   0  0  0  0  0  0  0  0  0  0  0  0
   47.2790   30.5510   44.6510 N   0  0  0  0  0  0  0  0  0  0  0  0
   47.6700   32.5180   44.8200 H   0  0  0  0  0  0  0  0  0  0  0  0
   43.9850   31.3480   42.9490 H   0  0  0  0  0  0  0  0  0  0  0  0
   46.6870   28.4900   44.3800 H   0  0  0  0  0  0  0  0  0  0  0  0
   47.3390   35.4350   42.5140 Cl  0  0  0  0  0  0  0  0  0  0  0  0
   46.8780   34.4550   41.1210 C   0  0  0  0  0  0  0  0  0  0  0  0
   45.6400   33.8090   41.2240 C   0  0  0  0  0  0  0  0  0  0  0  0
   45.2800   33.0450   40.1410 C   0  0  0  0  0  0  0  0  0  0  0  0
   44.3570   32.5230   40.1370 H   0  0  0  0  0  0  0  0  0  0  0  0
   46.0630   32.9070   39.0150 C   0  0  0  0  0  0  0  0  0  0  0  0
   45.7860   32.3120   38.1670 H   0  0  0  0  0  0  0  0  0  0  0  0
   47.2740   33.5600   38.9550 C   0  0  0  0  0  3  0  0  0  0  0  0
   47.6820   34.3380   40.0150 C   0  0  0  0  0  3  0  0  0  0  0  0
  1 16  1  0  0  0  0
  1  6  1  0  0  0  0
  2  7  1  6  0  0  0
  2  1  1  0  0  0  0
  3  2  1  0  0  0  0
  3  4  1  0  0  0  0
  4  5  1  0  0  0  0
  5 11  1  0  0  0  0
  5 12  1  0  0  0  0
  6  5  1  0  0  0  0
  6 13  1  0  0  0  0
  8  3  1  0  0  0  0
  9  3  1  0  0  0  0
 10  4  1  0  0  0  0
 14  6  1  0  0  0  0
 15 20  1  0  0  0  0
 15 21  1  0  0  0  0
 16 15  2  0  0  0  0
 17 18  2  0  0  0  0
 17 16  1  0  0  0  0
 18 19  1  0  0  0  0
 19 23  1  0  0  0  0
 19 20  2  0  0  0  0
 22 17  1  0  0  0  0
 25 26  1  0  0  0  0
 25 24  1  0  0  0  0
 26  2  1  0  0  0  0
 27 26  2  0  0  0  0
 28 27  1  0  0  0  0
 29 27  1  0  0  0  0
 30 29  1  0  0  0  0
 31 29  2  0  0  0  0
 31 32  1  0  0  0  0
 32 25  2  0  0  0  0
M  END
>  <minimizedAffinity>
-4.49993038

>  <minimizedRMSD>
2.96637487

$$$$
