
     RDKit          3D

 35 37  0  0  0  0  0  0  0  0999 V2000
   44.8247   35.1565   45.0912 C   0  0  0  0  0  0  0  0  0  0  0  0
   45.7039   34.7851   44.0861 C   0  0  0  0  0  0  0  0  0  0  0  0
   46.5331   33.6856   44.3310 C   0  0  0  0  0  0  0  0  0  0  0  0
   46.4530   33.0400   45.5047 N   0  0  0  0  0  0  0  0  0  0  0  0
   45.5718   33.4442   46.4614 C   0  0  0  0  0  0  0  0  0  0  0  0
   44.7737   34.4861   46.2515 N   0  0  0  0  0  0  0  0  0  0  0  0
   45.7056   35.5791   42.8185 C   0  0  0  0  0  0  0  0  0  0  0  0
   45.2203   36.8142   43.1563 F   0  0  0  0  0  0  0  0  0  0  0  0
   44.8128   34.9283   41.9577 F   0  0  0  0  0  0  0  0  0  0  0  0
   46.9712   35.6002   42.3058 F   0  0  0  0  0  0  0  0  0  0  0  0
   45.4581   32.8050   47.6858 O   0  0  0  0  0  0  0  0  0  0  0  0
   45.2315   31.4224   47.7706 C   0  0  0  0  0  0  0  0  0  0  0  0
   46.5265   30.7732   48.0184 C   0  0  0  0  0  0  0  0  0  0  0  0
   47.0804   29.6565   47.4329 C   0  0  0  0  0  0  0  0  0  0  0  0
   48.3049   29.2259   47.8180 C   0  0  0  0  0  0  0  0  0  0  0  0
   48.9934   29.8765   48.7703 N   0  0  0  0  0  0  0  0  0  0  0  0
   48.4660   30.9631   49.3469 C   0  0  0  0  0  0  0  0  0  0  0  0
   47.2351   31.4170   48.9771 N   0  0  0  0  0  0  0  0  0  0  0  0
   44.1785   36.0055   44.9129 H   0  0  0  0  0  0  0  0  0  0  0  0
   47.2181   33.4044   43.5348 H   0  0  0  0  0  0  0  0  0  0  0  0
   44.5830   31.2048   48.6632 H   0  0  0  0  0  0  0  0  0  0  0  0
   44.6754   31.0047   46.9015 H   0  0  0  0  0  0  0  0  0  0  0  0
   46.4443   29.2134   46.6833 H   0  0  0  0  0  0  0  0  0  0  0  0
   48.6753   28.3426   47.3141 H   0  0  0  0  0  0  0  0  0  0  0  0
   51.1823   32.0762   48.5030 Cl  0  0  0  0  0  0  0  0  0  0  0  0
   50.4604   32.2100   50.0885 C   0  0  0  0  0  0  0  0  0  0  0  0
   49.2247   31.6794   50.3956 C   0  0  0  0  0  0  0  0  0  0  0  0
   48.6100   31.7550   51.6239 C   0  0  0  0  0  0  0  0  0  0  0  0
   47.6390   31.3263   51.8280 H   0  0  0  0  0  0  0  0  0  0  0  0
   49.3350   32.4289   52.5922 C   0  0  0  0  0  0  0  0  0  0  0  0
   48.9475   32.5488   53.5953 H   0  0  0  0  0  0  0  0  0  0  0  0
   50.5730   32.9838   52.3584 C   0  0  0  0  0  0  0  0  0  0  0  0
   51.1347   32.8671   51.0850 C   0  0  0  0  0  0  0  0  0  0  0  0
   51.1626   33.5140   53.0894 H   0  0  0  0  0  0  0  0  0  0  0  0
   52.1096   33.2876   50.8488 H   0  0  0  0  0  0  0  0  0  0  0  0
  1  6  2  0
  2  3  2  0
  2  1  1  0
  3  4  1  0
  4  5  2  0
  5 11  1  0
  6  5  1  0
  7  8  1  0
  7  2  1  0
  9  7  1  0
 10  7  1  0
 11 12  1  0
 12 13  1  0
 13 18  2  0
 14 15  2  0
 14 13  1  0
 15 16  1  0
 16 17  2  0
 18 17  1  0
  1 19  1  0
  3 20  1  0
 12 21  1  0
 12 22  1  0
 14 23  1  0
 15 24  1  0
 25 26  1  0
 26 27  2  0
 27 28  1  0
 28 29  1  0
 28 30  2  0
 30 31  1  0
 30 32  1  0
 32 33  2  0
 33 26  1  0
 32 34  1  0
 33 35  1  0
 17 27  1  0
M  ISO  8  19  14  20  14  21   8  22   8  23  14  24  14  29  15  31  16
M  END
>  <DihAtoms>  (1) 
15,16,26,25

>  <DihDeg>  (1) 
-179.99004427917774

$$$$
