
 OpenBabel03252508323D

 32 34  0  0  1  0  0  0  0  0999 V2000
   45.9990   33.6620   43.2580 N   0  0  0  0  0  0  0  0  0  0  0  0
   46.6080   33.1470   42.0680 C   0  0  1  0  0  0  0  0  0  0  0  0
   46.4190   33.9810   40.8510 C   0  0  0  0  0  0  0  0  0  0  0  0
   45.1380   34.5680   40.7220 N   0  0  0  0  0  0  0  0  0  0  0  0
   44.5470   35.0740   41.8940 C   0  0  0  0  0  0  0  0  0  0  0  0
   45.4620   34.9770   43.1040 C   0  0  0  0  0  0  0  0  0  0  0  0
   46.2220   32.1180   41.9100 H   0  0  0  0  0  0  0  0  0  0  0  0
   47.2070   34.7900   40.8300 H   0  0  0  0  0  0  0  0  0  0  0  0
   46.6190   33.3580   39.9530 H   0  0  0  0  0  0  0  0  0  0  0  0
   44.9010   34.9440   39.8180 H   0  0  0  0  0  0  0  0  0  0  0  0
   44.3470   36.1700   41.7650 H   0  0  0  0  0  0  0  0  0  0  0  0
   43.5760   34.6260   42.1840 H   0  0  0  0  0  0  0  0  0  0  0  0
   44.9840   35.4320   43.9610 H   0  0  0  0  0  0  0  0  0  0  0  0
   46.3170   35.6680   42.8390 H   0  0  0  0  0  0  0  0  0  0  0  0
   46.2350   33.4970   45.6210 C   0  0  0  0  0  0  0  0  0  0  0  0
   45.9940   32.8450   44.4160 C   0  0  0  0  0  0  0  0  0  0  0  0
   45.7770   31.4800   44.4520 C   0  0  0  0  0  0  0  0  0  0  0  0
   45.8020   30.8190   45.6390 N   0  0  0  0  0  0  0  0  0  0  0  0
   46.0410   31.4820   46.8060 C   0  0  0  0  0  0  0  0  0  0  0  0
   46.2550   32.8080   46.7960 N   0  0  0  0  0  0  0  0  0  0  0  0
   46.4250   34.5470   45.7980 H   0  0  0  0  0  0  0  0  0  0  0  0
   45.5930   30.9940   43.5320 H   0  0  0  0  0  0  0  0  0  0  0  0
   46.0390   30.8530   47.6910 H   0  0  0  0  0  0  0  0  0  0  0  0
   48.1290   35.6900   41.9800 Cl  0  0  0  0  0  0  0  0  0  0  0  0
   48.9450   34.1360   42.1560 C   0  0  0  0  0  0  0  0  0  0  0  0
   48.1050   33.0160   42.1830 C   0  0  0  0  0  0  0  0  0  0  0  0
   48.7390   31.8050   42.3200 C   0  0  0  0  0  0  0  0  0  0  0  0
   48.1770   30.9070   42.3490 H   0  0  0  0  0  0  0  0  0  0  0  0
   50.1060   31.6730   42.4260 C   0  0  0  0  0  0  0  0  0  0  0  0
   50.6070   30.7290   42.5330 H   0  0  0  0  0  0  0  0  0  0  0  0
   50.8970   32.8000   42.3950 C   0  0  0  0  0  0  0  0  0  0  0  0
   50.3110   34.0390   42.2590 C   0  0  0  0  0  0  0  0  0  0  0  0
  1 16  1  0  0  0  0
  2  7  1  6  0  0  0
  2 26  1  0  0  0  0
  2  1  1  0  0  0  0
  3  2  1  0  0  0  0
  4  3  1  0  0  0  0
  4  5  1  0  0  0  0
  5 12  1  0  0  0  0
  5  6  1  0  0  0  0
  6  1  1  0  0  0  0
  6 13  1  0  0  0  0
  8  3  1  0  0  0  0
  9  3  1  0  0  0  0
 10  4  1  0  0  0  0
 11  5  1  0  0  0  0
 14  6  1  0  0  0  0
 15 21  1  0  0  0  0
 15 20  1  0  0  0  0
 16 17  1  0  0  0  0
 16 15  2  0  0  0  0
 17 18  2  0  0  0  0
 18 19  1  0  0  0  0
 19 23  1  0  0  0  0
 20 19  2  0  0  0  0
 22 17  1  0  0  0  0
 24 25  1  0  0  0  0
 25 26  2  0  0  0  0
 25 32  1  0  0  0  0
 26 27  1  0  0  0  0
 27 28  1  0  0  0  0
 27 29  2  0  0  0  0
 29 30  1  0  0  0  0
 31 29  1  0  0  0  0
 32 31  2  0  0  0  0
M  END
>  <minimizedAffinity>
-4.84394836

>  <minimizedRMSD>
2.6644814

$$$$
