REMARK  Name = 
REMARK  2 active torsions:
REMARK  status: ('A' for Active; 'I' for Inactive)
REMARK    1  A    between atoms: C_2  and  N_7
REMARK    2  A    between atoms: C_8  and  C_26
REMARK                            x       y       z     vdW  Elec       q    Type
REMARK                         _______ _______ _______ _____ _____    ______ ____
ROOT
ATOM      1  N   UNL     1      44.311  34.403  41.962  0.00  0.00    +0.000 N 
ATOM      2  C   UNL     1      44.442  33.396  40.951  0.00  0.00    +0.000 C 
ATOM      3  C   UNL     1      43.779  33.711  39.657  0.00  0.00    +0.000 C 
ATOM      4  N   UNL     1      42.526  34.358  39.770  0.00  0.00    +0.000 NA
ATOM      5  C   UNL     1      42.405  35.347  40.762  0.00  0.00    +0.000 C 
ATOM      6  C   UNL     1      43.712  35.612  41.492  0.00  0.00    +0.000 C 
ATOM      7  H   UNL     1      44.060  32.443  41.373  0.00  0.00    +0.000 HD
ATOM      8  H   UNL     1      44.473  34.344  39.030  0.00  0.00    +0.000 HD
ATOM      9  H   UNL     1      43.646  32.770  39.082  0.00  0.00    +0.000 HD
ATOM     10  H   UNL     1      41.952  34.381  38.942  0.00  0.00    +0.000 HD
ATOM     11  H   UNL     1      42.134  36.323  40.282  0.00  0.00    +0.000 HD
ATOM     12  H   UNL     1      41.631  35.171  41.536  0.00  0.00    +0.000 HD
ATOM     13  H   UNL     1      43.579  36.419  42.200  0.00  0.00    +0.000 HD
ATOM     14  H   UNL     1      44.380  36.034  40.683  0.00  0.00    +0.000 HD
ENDROOT
BRANCH   1  16
ATOM     15  C   UNL     1      44.604  35.109  44.216  0.00  0.00    +0.000 A 
ATOM     16  C   UNL     1      44.772  34.105  43.268  0.00  0.00    +0.000 A 
ATOM     17  C   UNL     1      45.365  32.924  43.675  0.00  0.00    +0.000 A 
ATOM     18  N   UNL     1      45.763  32.773  44.966  0.00  0.00    +0.000 NA
ATOM     19  C   UNL     1      45.587  33.773  45.876  0.00  0.00    +0.000 A 
ATOM     20  N   UNL     1      45.013  34.929  45.503  0.00  0.00    +0.000 NA
ATOM     21  H   UNL     1      44.167  36.090  44.094  0.00  0.00    +0.000 HD
ATOM     22  H   UNL     1      45.487  32.167  42.948  0.00  0.00    +0.000 HD
ATOM     23  H   UNL     1      45.943  33.542  46.875  0.00  0.00    +0.000 HD
ENDBRANCH   1  16
BRANCH   2  26
ATOM     24 CL   UNL     1      44.947  30.821  39.571  0.00  0.00    +0.000 Cl
ATOM     25  C   UNL     1      46.255  31.957  39.907  0.00  0.00    +0.000 A 
ATOM     26  C   UNL     1      45.875  33.134  40.564  0.00  0.00    +0.000 A 
ATOM     27  C   UNL     1      46.892  34.019  40.827  0.00  0.00    +0.000 A 
ATOM     28  H   UNL     1      46.691  34.934  41.322  0.00  0.00    +0.000 HD
ATOM     29  C   UNL     1      48.206  33.790  40.479  0.00  0.00    +0.000 A 
ATOM     30  H   UNL     1      49.004  34.478  40.682  0.00  0.00    +0.000 HD
ATOM     31  C   UNL     1      48.537  32.618  39.833  0.00  0.00    +0.000 A 
ATOM     32  C   UNL     1      47.554  31.698  39.547  0.00  0.00    +0.000 A 
ENDBRANCH   2  26
TORSDOF 2
