
 OpenBabel03252505263D

 43 46  0  0  1  0  0  0  0  0999 V2000
   38.2010   27.3450   39.7430 F   0  0  0  0  0  0  0  0  0  0  0  0
   38.0580   27.9080   40.9910 C   0  0  0  0  0  0  0  0  0  0  0  0
   37.9330   29.2810   41.0760 C   0  0  0  0  0  0  0  0  0  0  0  0
   37.7930   29.8160   42.3140 C   0  0  0  0  0  0  0  0  0  0  0  0
   37.7780   29.0020   43.4380 C   0  0  0  0  0  0  0  0  0  0  0  0
   37.9010   27.6450   43.3510 C   0  0  0  0  0  0  0  0  0  0  0  0
   38.0440   27.0980   42.0820 C   0  0  0  0  0  0  0  0  0  0  0  0
   37.6950   30.9010   42.3830 H   0  0  0  0  0  0  0  0  0  0  0  0
   37.6630   29.4970   44.3940 H   0  0  0  0  0  0  0  0  0  0  0  0
   37.8880   27.0170   44.2360 H   0  0  0  0  0  0  0  0  0  0  0  0
   38.1700   25.6740   42.0340 N   0  0  0  0  0  0  0  0  0  0  0  0
   37.1620   24.6410   42.1260 C   0  0  0  0  0  0  0  0  0  0  0  0
   37.4790   23.7500   40.9270 C   0  0  0  0  0  0  0  0  0  0  0  0
   38.9400   24.0240   40.6710 C   0  0  0  0  0  0  0  0  0  0  0  0
   39.3420   24.8320   41.8790 C   0  0  2  0  0  0  0  0  0  0  0  0
   36.1290   25.0520   42.0520 H   0  0  0  0  0  0  0  0  0  0  0  0
   37.3110   24.0660   43.0680 H   0  0  0  0  0  0  0  0  0  0  0  0
   36.8360   24.0640   40.0660 H   0  0  0  0  0  0  0  0  0  0  0  0
   37.2850   22.7130   41.2600 H   0  0  0  0  0  0  0  0  0  0  0  0
   39.4650   23.0360   40.7790 H   0  0  0  0  0  0  0  0  0  0  0  0
   39.1430   24.5130   39.7180 H   0  0  0  0  0  0  0  0  0  0  0  0
   40.2160   25.4900   41.6780 H   0  0  0  0  0  0  0  0  0  0  0  0
   39.6470   24.0030   43.0810 C   0  0  0  0  0  0  0  0  0  0  0  0
   39.1750   23.0020   43.0670 H   0  0  0  0  0  0  0  0  0  0  0  0
   39.2420   24.5260   43.9720 H   0  0  0  0  0  0  0  0  0  0  0  0
   40.7460   23.9340   43.2270 H   0  0  0  0  0  0  0  0  0  0  0  0
   36.9370   30.7690   37.8890 C   0  0  0  0  0  0  0  0  0  0  0  0
   38.0180   31.6340   37.5900 C   0  0  0  0  0  0  0  0  0  0  0  0
   39.0520   31.6610   38.5170 C   0  0  0  0  0  0  0  0  0  0  0  0
   38.9630   30.8860   39.6110 N   0  0  0  0  0  0  0  0  0  0  0  0
   37.9540   30.0880   39.8750 C   0  0  0  0  0  0  0  0  0  0  0  0
   36.9260   30.0220   39.0110 N   0  0  0  0  0  0  0  0  0  0  0  0
   36.1330   30.7400   37.1780 H   0  0  0  0  0  0  0  0  0  0  0  0
   38.0310   32.2220   36.7080 H   0  0  0  0  0  0  0  0  0  0  0  0
   39.1740   33.9770   40.3210 Cl  0  0  0  0  0  0  0  0  0  0  0  0
   40.3980   33.6290   39.1130 C   0  0  0  0  0  0  0  0  0  0  0  0
   40.2220   32.5090   38.3290 C   0  0  0  0  0  0  0  0  0  0  0  0
   41.2120   32.2830   37.3990 C   0  0  0  0  0  0  0  0  0  0  0  0
   41.1370   31.4290   36.7560 H   0  0  0  0  0  0  0  0  0  0  0  0
   42.3070   33.1090   37.2500 C   0  0  0  0  0  0  0  0  0  0  0  0
   43.0530   32.8920   36.5090 H   0  0  0  0  0  0  0  0  0  0  0  0
   42.4250   34.2150   38.0660 C   0  0  0  0  0  3  0  0  0  0  0  0
   41.4670   34.4960   39.0190 C   0  0  0  0  0  3  0  0  0  0  0  0
  1  2  1  0  0  0  0
  2  3  2  0  0  0  0
  2  7  1  0  0  0  0
  3  4  1  0  0  0  0
  4  8  1  0  0  0  0
  4  5  2  0  0  0  0
  5  9  1  0  0  0  0
  6  5  1  0  0  0  0
  6 10  1  0  0  0  0
  7  6  2  0  0  0  0
 11  7  1  0  0  0  0
 11 12  1  0  0  0  0
 12 17  1  0  0  0  0
 13 19  1  0  0  0  0
 13 12  1  0  0  0  0
 14 20  1  0  0  0  0
 14 13  1  0  0  0  0
 14 15  1  0  0  0  0
 15 22  1  6  0  0  0
 15 11  1  0  0  0  0
 15 23  1  0  0  0  0
 16 12  1  0  0  0  0
 18 13  1  0  0  0  0
 21 14  1  0  0  0  0
 23 26  1  0  0  0  0
 23 25  1  0  0  0  0
 24 23  1  0  0  0  0
 27 32  1  0  0  0  0
 28 27  2  0  0  0  0
 28 29  1  0  0  0  0
 29 30  2  0  0  0  0
 30 31  1  0  0  0  0
 31  3  1  0  0  0  0
 32 31  2  0  0  0  0
 33 27  1  0  0  0  0
 34 28  1  0  0  0  0
 36 35  1  0  0  0  0
 37 29  1  0  0  0  0
 37 36  2  0  0  0  0
 38 37  1  0  0  0  0
 39 38  1  0  0  0  0
 40 38  2  0  0  0  0
 40 42  1  0  0  0  0
 41 40  1  0  0  0  0
 42 43  2  0  0  0  0
 43 36  1  0  0  0  0
M  END
>  <minimizedAffinity>
-6.41513348

$$$$

 OpenBabel03252505263D

 43 46  0  0  1  0  0  0  0  0999 V2000
   39.8460   31.5950   39.1550 F   0  0  0  0  0  0  0  0  0  0  0  0
   40.4740   31.5250   40.3770 C   0  0  0  0  0  0  0  0  0  0  0  0
   39.8020   30.9200   41.4220 C   0  0  0  0  0  0  0  0  0  0  0  0
   40.4390   30.8610   42.6180 C   0  0  0  0  0  0  0  0  0  0  0  0
   41.7130   31.3920   42.7680 C   0  0  0  0  0  0  0  0  0  0  0  0
   42.3750   31.9890   41.7330 C   0  0  0  0  0  0  0  0  0  0  0  0
   41.7220   32.0480   40.5080 C   0  0  0  0  0  0  0  0  0  0  0  0
   39.9090   30.3840   43.4450 H   0  0  0  0  0  0  0  0  0  0  0  0
   42.1600   31.3090   43.7500 H   0  0  0  0  0  0  0  0  0  0  0  0
   43.3710   32.4000   41.8600 H   0  0  0  0  0  0  0  0  0  0  0  0
   42.4480   32.6810   39.4510 N   0  0  0  0  0  0  0  0  0  0  0  0
   42.8380   32.1790   38.1530 C   0  0  0  0  0  0  0  0  0  0  0  0
   42.3800   33.2880   37.2080 C   0  0  0  0  0  0  0  0  0  0  0  0
   42.3470   34.5050   38.0970 C   0  0  0  0  0  0  0  0  0  0  0  0
   43.0150   34.0140   39.3570 C   0  0  2  0  0  0  0  0  0  0  0  0
   42.3370   31.2150   37.9040 H   0  0  0  0  0  0  0  0  0  0  0  0
   43.9470   32.0890   38.1120 H   0  0  0  0  0  0  0  0  0  0  0  0
   41.3640   33.0280   36.8140 H   0  0  0  0  0  0  0  0  0  0  0  0
   43.1500   33.3500   36.4160 H   0  0  0  0  0  0  0  0  0  0  0  0
   43.0640   35.2420   37.6420 H   0  0  0  0  0  0  0  0  0  0  0  0
   41.3510   34.9210   38.2510 H   0  0  0  0  0  0  0  0  0  0  0  0
   42.6990   34.5880   40.2560 H   0  0  0  0  0  0  0  0  0  0  0  0
   44.5050   34.0270   39.2910 C   0  0  0  0  0  0  0  0  0  0  0  0
   44.9090   34.0020   38.2610 H   0  0  0  0  0  0  0  0  0  0  0  0
   44.8800   33.1140   39.7950 H   0  0  0  0  0  0  0  0  0  0  0  0
   44.9030   34.8920   39.8640 H   0  0  0  0  0  0  0  0  0  0  0  0
   36.1960   30.7280   40.8540 C   0  0  0  0  0  0  0  0  0  0  0  0
   35.9510   29.3340   40.8340 C   0  0  0  0  0  0  0  0  0  0  0  0
   37.0590   28.5160   41.0190 C   0  0  0  0  0  0  0  0  0  0  0  0
   38.2630   29.0860   41.2010 N   0  0  0  0  0  0  0  0  0  0  0  0
   38.4750   30.3820   41.2180 C   0  0  0  0  0  0  0  0  0  0  0  0
   37.4370   31.2200   41.0430 N   0  0  0  0  0  0  0  0  0  0  0  0
   35.3460   31.3680   40.7120 H   0  0  0  0  0  0  0  0  0  0  0  0
   34.9770   28.9430   40.6850 H   0  0  0  0  0  0  0  0  0  0  0  0
   37.0980   27.2970   43.6920 Cl  0  0  0  0  0  0  0  0  0  0  0  0
   36.9510   26.3700   42.2100 C   0  0  0  0  0  0  0  0  0  0  0  0
   36.9440   27.0640   41.0190 C   0  0  0  0  0  0  0  0  0  0  0  0
   36.8260   26.2880   39.8880 C   0  0  0  0  0  0  0  0  0  0  0  0
   36.8150   26.7630   38.9290 H   0  0  0  0  0  0  0  0  0  0  0  0
   36.7200   24.9120   39.9280 C   0  0  0  0  0  0  0  0  0  0  0  0
   36.6300   24.3490   39.0180 H   0  0  0  0  0  0  0  0  0  0  0  0
   36.7310   24.2770   41.1520 C   0  0  0  0  0  3  0  0  0  0  0  0
   36.8480   24.9980   42.3220 C   0  0  0  0  0  3  0  0  0  0  0  0
  1  2  1  0  0  0  0
  2  7  2  0  0  0  0
  2  3  1  0  0  0  0
  3  4  2  0  0  0  0
  4  5  1  0  0  0  0
  4  8  1  0  0  0  0
  5  9  1  0  0  0  0
  6 10  1  0  0  0  0
  6  5  2  0  0  0  0
  7  6  1  0  0  0  0
 11  7  1  0  0  0  0
 12 11  1  0  0  0  0
 13 14  1  0  0  0  0
 13 12  1  0  0  0  0
 14 21  1  0  0  0  0
 14 15  1  0  0  0  0
 15 11  1  0  0  0  0
 15 22  1  1  0  0  0
 16 12  1  0  0  0  0
 17 12  1  0  0  0  0
 18 13  1  0  0  0  0
 19 13  1  0  0  0  0
 20 14  1  0  0  0  0
 23 15  1  0  0  0  0
 23 25  1  0  0  0  0
 23 26  1  0  0  0  0
 24 23  1  0  0  0  0
 27 32  1  0  0  0  0
 28 27  2  0  0  0  0
 28 29  1  0  0  0  0
 29 37  1  0  0  0  0
 29 30  2  0  0  0  0
 30 31  1  0  0  0  0
 31  3  1  0  0  0  0
 32 31  2  0  0  0  0
 33 27  1  0  0  0  0
 34 28  1  0  0  0  0
 36 43  1  0  0  0  0
 36 35  1  0  0  0  0
 37 36  2  0  0  0  0
 38 40  2  0  0  0  0
 38 37  1  0  0  0  0
 39 38  1  0  0  0  0
 40 42  1  0  0  0  0
 41 40  1  0  0  0  0
 42 43  2  0  0  0  0
M  END
>  <minimizedAffinity>
-6.38393736

$$$$

 OpenBabel03252505263D

 43 46  0  0  1  0  0  0  0  0999 V2000
   38.6470   30.2780   41.7210 F   0  0  0  0  0  0  0  0  0  0  0  0
   37.8190   29.9780   40.6630 C   0  0  0  0  0  0  0  0  0  0  0  0
   37.6920   30.9090   39.6510 C   0  0  0  0  0  0  0  0  0  0  0  0
   36.8710   30.5940   38.6170 C   0  0  0  0  0  0  0  0  0  0  0  0
   36.1970   29.3820   38.5950 C   0  0  0  0  0  0  0  0  0  0  0  0
   36.3250   28.4630   39.5970 C   0  0  0  0  0  0  0  0  0  0  0  0
   37.1650   28.7860   40.6550 C   0  0  0  0  0  0  0  0  0  0  0  0
   36.7690   31.3300   37.8170 H   0  0  0  0  0  0  0  0  0  0  0  0
   35.5590   29.1970   37.7400 H   0  0  0  0  0  0  0  0  0  0  0  0
   35.7940   27.5170   39.5690 H   0  0  0  0  0  0  0  0  0  0  0  0
   37.2720   27.7980   41.6830 N   0  0  0  0  0  0  0  0  0  0  0  0
   37.3030   26.3550   41.5950 C   0  0  0  0  0  0  0  0  0  0  0  0
   38.5170   25.9900   42.4470 C   0  0  0  0  0  0  0  0  0  0  0  0
   38.6530   27.1690   43.3780 C   0  0  0  0  0  0  0  0  0  0  0  0
   37.3810   27.9390   43.1230 C   0  0  2  0  0  0  0  0  0  0  0  0
   37.4330   25.9980   40.5470 H   0  0  0  0  0  0  0  0  0  0  0  0
   36.3810   25.9390   42.0610 H   0  0  0  0  0  0  0  0  0  0  0  0
   39.4070   25.8800   41.7770 H   0  0  0  0  0  0  0  0  0  0  0  0
   38.2490   25.0530   42.9710 H   0  0  0  0  0  0  0  0  0  0  0  0
   38.5530   26.7570   44.4190 H   0  0  0  0  0  0  0  0  0  0  0  0
   39.5630   27.7500   43.2350 H   0  0  0  0  0  0  0  0  0  0  0  0
   37.4860   29.0210   43.3580 H   0  0  0  0  0  0  0  0  0  0  0  0
   36.2000   27.4110   43.8670 C   0  0  0  0  0  0  0  0  0  0  0  0
   36.2960   26.3500   44.1670 H   0  0  0  0  0  0  0  0  0  0  0  0
   35.3180   27.4670   43.1970 H   0  0  0  0  0  0  0  0  0  0  0  0
   35.9780   28.0620   44.7390 H   0  0  0  0  0  0  0  0  0  0  0  0
   38.4430   34.4480   40.1770 C   0  0  0  0  0  0  0  0  0  0  0  0
   39.8140   34.5360   39.8370 C   0  0  0  0  0  0  0  0  0  0  0  0
   40.4210   33.3520   39.4370 C   0  0  0  0  0  0  0  0  0  0  0  0
   39.6870   32.2270   39.4000 N   0  0  0  0  0  0  0  0  0  0  0  0
   38.4150   32.1600   39.7180 C   0  0  0  0  0  0  0  0  0  0  0  0
   37.7780   33.2770   40.1120 N   0  0  0  0  0  0  0  0  0  0  0  0
   37.9640   35.3570   40.4870 H   0  0  0  0  0  0  0  0  0  0  0  0
   40.3410   35.4550   39.8860 H   0  0  0  0  0  0  0  0  0  0  0  0
   42.2280   32.5100   41.5960 Cl  0  0  0  0  0  0  0  0  0  0  0  0
   42.7790   32.9260   39.9830 C   0  0  0  0  0  0  0  0  0  0  0  0
   41.8280   33.3060   39.0600 C   0  0  0  0  0  0  0  0  0  0  0  0
   42.3150   33.6210   37.8120 C   0  0  0  0  0  0  0  0  0  0  0  0
   41.6300   33.9240   37.0470 H   0  0  0  0  0  0  0  0  0  0  0  0
   43.6570   33.5650   37.4920 C   0  0  0  0  0  0  0  0  0  0  0  0
   43.9890   33.8210   36.5030 H   0  0  0  0  0  0  0  0  0  0  0  0
   44.5590   33.1770   38.4600 C   0  0  0  0  0  3  0  0  0  0  0  0
   44.1340   32.8480   39.7310 C   0  0  0  0  0  3  0  0  0  0  0  0
  2  1  1  0  0  0  0
  3 31  1  0  0  0  0
  3  2  2  0  0  0  0
  4  3  1  0  0  0  0
  5  4  2  0  0  0  0
  5  6  1  0  0  0  0
  6  7  2  0  0  0  0
  7  2  1  0  0  0  0
  7 11  1  0  0  0  0
  8  4  1  0  0  0  0
  9  5  1  0  0  0  0
 10  6  1  0  0  0  0
 11 15  1  0  0  0  0
 12 11  1  0  0  0  0
 12 17  1  0  0  0  0
 12 13  1  0  0  0  0
 13 19  1  0  0  0  0
 13 14  1  0  0  0  0
 14 20  1  0  0  0  0
 15 22  1  1  0  0  0
 15 14  1  0  0  0  0
 15 23  1  0  0  0  0
 16 12  1  0  0  0  0
 18 13  1  0  0  0  0
 21 14  1  0  0  0  0
 23 24  1  0  0  0  0
 23 26  1  0  0  0  0
 25 23  1  0  0  0  0
 27 33  1  0  0  0  0
 28 34  1  0  0  0  0
 28 27  2  0  0  0  0
 29 28  1  0  0  0  0
 30 29  2  0  0  0  0
 30 31  1  0  0  0  0
 31 32  2  0  0  0  0
 32 27  1  0  0  0  0
 36 35  1  0  0  0  0
 37 29  1  0  0  0  0
 37 36  2  0  0  0  0
 38 37  1  0  0  0  0
 39 38  1  0  0  0  0
 40 38  2  0  0  0  0
 40 42  1  0  0  0  0
 41 40  1  0  0  0  0
 42 43  2  0  0  0  0
 43 36  1  0  0  0  0
M  END
>  <minimizedAffinity>
-6.29789257

$$$$

 OpenBabel03252505263D

 43 46  0  0  1  0  0  0  0  0999 V2000
   32.6650   29.3780   39.3870 F   0  0  0  0  0  0  0  0  0  0  0  0
   33.1670   29.2280   38.1140 C   0  0  0  0  0  0  0  0  0  0  0  0
   34.4990   28.8870   37.9740 C   0  0  0  0  0  0  0  0  0  0  0  0
   34.9740   28.7440   36.7120 C   0  0  0  0  0  0  0  0  0  0  0  0
   34.1420   28.9350   35.6180 C   0  0  0  0  0  0  0  0  0  0  0  0
   32.8250   29.2710   35.7590 C   0  0  0  0  0  0  0  0  0  0  0  0
   32.3400   29.4170   37.0520 C   0  0  0  0  0  0  0  0  0  0  0  0
   36.0260   28.4760   36.6000 H   0  0  0  0  0  0  0  0  0  0  0  0
   34.5880   28.8040   34.6400 H   0  0  0  0  0  0  0  0  0  0  0  0
   32.1830   29.4170   34.8970 H   0  0  0  0  0  0  0  0  0  0  0  0
   30.9570   29.7690   37.1570 N   0  0  0  0  0  0  0  0  0  0  0  0
   29.7740   29.0490   36.7420 C   0  0  0  0  0  0  0  0  0  0  0  0
   28.8930   29.1000   37.9880 C   0  0  0  0  0  0  0  0  0  0  0  0
   29.3990   30.3180   38.7190 C   0  0  0  0  0  0  0  0  0  0  0  0
   30.3210   30.9510   37.7080 C   0  0  2  0  0  0  0  0  0  0  0  0
   29.9990   27.9950   36.4580 H   0  0  0  0  0  0  0  0  0  0  0  0
   29.2800   29.6030   35.9120 H   0  0  0  0  0  0  0  0  0  0  0  0
   29.0500   28.1610   38.5780 H   0  0  0  0  0  0  0  0  0  0  0  0
   27.8550   29.2140   37.6220 H   0  0  0  0  0  0  0  0  0  0  0  0
   28.5210   31.0150   38.8060 H   0  0  0  0  0  0  0  0  0  0  0  0
   29.8670   30.1020   39.6780 H   0  0  0  0  0  0  0  0  0  0  0  0
   31.1070   31.5770   38.1850 H   0  0  0  0  0  0  0  0  0  0  0  0
   29.6150   31.7810   36.6890 C   0  0  0  0  0  0  0  0  0  0  0  0
   28.5500   31.5170   36.5550 H   0  0  0  0  0  0  0  0  0  0  0  0
   30.1040   31.6110   35.7080 H   0  0  0  0  0  0  0  0  0  0  0  0
   29.7420   32.8600   36.9240 H   0  0  0  0  0  0  0  0  0  0  0  0
   36.2460   29.5420   41.1180 C   0  0  0  0  0  0  0  0  0  0  0  0
   36.9160   28.3200   41.3700 C   0  0  0  0  0  0  0  0  0  0  0  0
   36.7280   27.3150   40.4290 C   0  0  0  0  0  0  0  0  0  0  0  0
   35.9420   27.5610   39.3660 N   0  0  0  0  0  0  0  0  0  0  0  0
   35.3270   28.6990   39.1450 C   0  0  0  0  0  0  0  0  0  0  0  0
   35.4750   29.7060   40.0250 N   0  0  0  0  0  0  0  0  0  0  0  0
   36.3850   30.3240   41.8390 H   0  0  0  0  0  0  0  0  0  0  0  0
   37.5240   28.1860   42.2280 H   0  0  0  0  0  0  0  0  0  0  0  0
   39.2570   27.0280   38.9620 Cl  0  0  0  0  0  0  0  0  0  0  0  0
   38.5520   25.7460   39.9310 C   0  0  0  0  0  0  0  0  0  0  0  0
   37.3600   26.0100   40.5700 C   0  0  0  0  0  0  0  0  0  0  0  0
   36.8510   24.9710   41.3160 C   0  0  0  0  0  0  0  0  0  0  0  0
   35.9270   25.1080   41.8390 H   0  0  0  0  0  0  0  0  0  0  0  0
   37.4790   23.7460   41.4260 C   0  0  0  0  0  0  0  0  0  0  0  0
   37.0430   22.9650   42.0190 H   0  0  0  0  0  0  0  0  0  0  0  0
   38.6710   23.5450   40.7610 C   0  0  0  0  0  3  0  0  0  0  0  0
   39.2330   24.5470   39.9970 C   0  0  0  0  0  3  0  0  0  0  0  0
  2  1  1  0  0  0  0
  3  2  1  0  0  0  0
  3 31  1  0  0  0  0
  4  3  2  0  0  0  0
  5  6  2  0  0  0  0
  5  4  1  0  0  0  0
  6  7  1  0  0  0  0
  7 11  1  0  0  0  0
  7  2  2  0  0  0  0
  8  4  1  0  0  0  0
  9  5  1  0  0  0  0
 10  6  1  0  0  0  0
 11 15  1  0  0  0  0
 12 11  1  0  0  0  0
 12 13  1  0  0  0  0
 13 18  1  0  0  0  0
 13 14  1  0  0  0  0
 14 20  1  0  0  0  0
 14 21  1  0  0  0  0
 15 22  1  1  0  0  0
 15 14  1  0  0  0  0
 16 12  1  0  0  0  0
 17 12  1  0  0  0  0
 19 13  1  0  0  0  0
 23 26  1  0  0  0  0
 23 15  1  0  0  0  0
 24 23  1  0  0  0  0
 25 23  1  0  0  0  0
 27 28  1  0  0  0  0
 27 33  1  0  0  0  0
 28 34  1  0  0  0  0
 29 37  1  0  0  0  0
 29 28  2  0  0  0  0
 30 29  1  0  0  0  0
 31 30  2  0  0  0  0
 31 32  1  0  0  0  0
 32 27  2  0  0  0  0
 35 36  1  0  0  0  0
 36 43  2  0  0  0  0
 36 37  1  0  0  0  0
 37 38  2  0  0  0  0
 38 40  1  0  0  0  0
 38 39  1  0  0  0  0
 40 41  1  0  0  0  0
 42 40  2  0  0  0  0
 43 42  1  0  0  0  0
M  END
>  <minimizedAffinity>
-6.0993104

$$$$

 OpenBabel03252505263D

 43 46  0  0  1  0  0  0  0  0999 V2000
   35.4680   27.7330   39.8020 F   0  0  0  0  0  0  0  0  0  0  0  0
   36.3800   28.5090   39.1240 C   0  0  0  0  0  0  0  0  0  0  0  0
   36.0620   28.9210   37.8440 C   0  0  0  0  0  0  0  0  0  0  0  0
   36.9740   29.6850   37.1930 C   0  0  0  0  0  0  0  0  0  0  0  0
   38.1720   30.0300   37.8030 C   0  0  0  0  0  0  0  0  0  0  0  0
   38.4840   29.6220   39.0690 C   0  0  0  0  0  0  0  0  0  0  0  0
   37.5490   28.8390   39.7350 C   0  0  0  0  0  0  0  0  0  0  0  0
   36.7240   30.0110   36.1820 H   0  0  0  0  0  0  0  0  0  0  0  0
   38.8520   30.6410   37.2250 H   0  0  0  0  0  0  0  0  0  0  0  0
   39.4230   29.8970   39.5370 H   0  0  0  0  0  0  0  0  0  0  0  0
   37.9130   28.4320   41.0570 N   0  0  0  0  0  0  0  0  0  0  0  0
   38.9830   27.5710   41.5100 C   0  0  0  0  0  0  0  0  0  0  0  0
   39.6350   28.3950   42.6180 C   0  0  0  0  0  0  0  0  0  0  0  0
   38.5260   29.3160   43.0610 C   0  0  0  0  0  0  0  0  0  0  0  0
   37.3240   28.7560   42.3430 C   0  0  2  0  0  0  0  0  0  0  0  0
   39.7150   27.3450   40.7000 H   0  0  0  0  0  0  0  0  0  0  0  0
   38.5470   26.6420   41.9420 H   0  0  0  0  0  0  0  0  0  0  0  0
   40.5010   28.9580   42.1850 H   0  0  0  0  0  0  0  0  0  0  0  0
   39.9340   27.6700   43.3990 H   0  0  0  0  0  0  0  0  0  0  0  0
   38.3570   29.0980   44.1510 H   0  0  0  0  0  0  0  0  0  0  0  0
   38.7140   30.3700   42.8620 H   0  0  0  0  0  0  0  0  0  0  0  0
   36.5340   29.5200   42.1780 H   0  0  0  0  0  0  0  0  0  0  0  0
   36.7070   27.5840   43.0300 C   0  0  0  0  0  0  0  0  0  0  0  0
   37.3960   27.0470   43.7080 H   0  0  0  0  0  0  0  0  0  0  0  0
   36.4000   26.8530   42.2550 H   0  0  0  0  0  0  0  0  0  0  0  0
   35.7800   27.8970   43.5560 H   0  0  0  0  0  0  0  0  0  0  0  0
   33.5270   26.9880   36.0560 C   0  0  0  0  0  0  0  0  0  0  0  0
   32.3850   27.8230   36.1200 C   0  0  0  0  0  0  0  0  0  0  0  0
   32.5490   29.0310   36.7880 C   0  0  0  0  0  0  0  0  0  0  0  0
   33.7500   29.3210   37.3170 N   0  0  0  0  0  0  0  0  0  0  0  0
   34.8000   28.5360   37.2500 C   0  0  0  0  0  0  0  0  0  0  0  0
   34.6970   27.3550   36.6150 N   0  0  0  0  0  0  0  0  0  0  0  0
   33.4100   26.0530   35.5420 H   0  0  0  0  0  0  0  0  0  0  0  0
   31.4630   27.5390   35.6820 H   0  0  0  0  0  0  0  0  0  0  0  0
   32.1050   30.7210   34.4250 Cl  0  0  0  0  0  0  0  0  0  0  0  0
   31.1430   30.8330   35.8880 C   0  0  0  0  0  0  0  0  0  0  0  0
   31.4540   29.9810   36.9260 C   0  0  0  0  0  0  0  0  0  0  0  0
   30.6680   30.1120   38.0480 C   0  0  0  0  0  0  0  0  0  0  0  0
   30.8560   29.4810   38.8920 H   0  0  0  0  0  0  0  0  0  0  0  0
   29.6370   31.0260   38.1430 C   0  0  0  0  0  0  0  0  0  0  0  0
   29.0510   31.0910   39.0400 H   0  0  0  0  0  0  0  0  0  0  0  0
   29.3760   31.8500   37.0680 C   0  0  0  0  0  3  0  0  0  0  0  0
   30.1280   31.7680   35.9140 C   0  0  0  0  0  3  0  0  0  0  0  0
  2  7  1  0  0  0  0
  2  1  1  0  0  0  0
  3  2  2  0  0  0  0
  4  5  2  0  0  0  0
  4  3  1  0  0  0  0
  5  6  1  0  0  0  0
  6 10  1  0  0  0  0
  6  7  2  0  0  0  0
  7 11  1  0  0  0  0
  8  4  1  0  0  0  0
  9  5  1  0  0  0  0
 11 12  1  0  0  0  0
 11 15  1  0  0  0  0
 12 17  1  0  0  0  0
 12 13  1  0  0  0  0
 13 14  1  0  0  0  0
 13 19  1  0  0  0  0
 14 20  1  0  0  0  0
 15 22  1  6  0  0  0
 15 23  1  0  0  0  0
 15 14  1  0  0  0  0
 16 12  1  0  0  0  0
 18 13  1  0  0  0  0
 21 14  1  0  0  0  0
 23 26  1  0  0  0  0
 23 24  1  0  0  0  0
 25 23  1  0  0  0  0
 27 28  2  0  0  0  0
 27 32  1  0  0  0  0
 28 29  1  0  0  0  0
 29 37  1  0  0  0  0
 29 30  2  0  0  0  0
 31 30  1  0  0  0  0
 31  3  1  0  0  0  0
 32 31  2  0  0  0  0
 33 27  1  0  0  0  0
 34 28  1  0  0  0  0
 35 36  1  0  0  0  0
 36 43  2  0  0  0  0
 36 37  1  0  0  0  0
 37 38  2  0  0  0  0
 38 40  1  0  0  0  0
 38 39  1  0  0  0  0
 40 41  1  0  0  0  0
 42 40  2  0  0  0  0
 43 42  1  0  0  0  0
M  END
>  <minimizedAffinity>
-6.09463358

$$$$

 OpenBabel03252505263D

 43 46  0  0  1  0  0  0  0  0999 V2000
   40.1120   30.2680   41.1990 F   0  0  0  0  0  0  0  0  0  0  0  0
   39.0370   30.8010   40.5240 C   0  0  0  0  0  0  0  0  0  0  0  0
   37.7960   30.2270   40.7170 C   0  0  0  0  0  0  0  0  0  0  0  0
   36.7500   30.7670   40.0420 C   0  0  0  0  0  0  0  0  0  0  0  0
   36.9400   31.8520   39.1960 C   0  0  0  0  0  0  0  0  0  0  0  0
   38.1690   32.4170   39.0070 C   0  0  0  0  0  0  0  0  0  0  0  0
   39.2380   31.8630   39.6990 C   0  0  0  0  0  0  0  0  0  0  0  0
   35.7690   30.3150   40.1930 H   0  0  0  0  0  0  0  0  0  0  0  0
   36.0620   32.2310   38.6900 H   0  0  0  0  0  0  0  0  0  0  0  0
   38.3060   33.2650   38.3450 H   0  0  0  0  0  0  0  0  0  0  0  0
   40.5080   32.4830   39.4740 N   0  0  0  0  0  0  0  0  0  0  0  0
   41.4860   32.2610   38.4330 C   0  0  0  0  0  0  0  0  0  0  0  0
   41.7850   33.6760   37.9420 C   0  0  0  0  0  0  0  0  0  0  0  0
   41.4230   34.5360   39.1270 C   0  0  0  0  0  0  0  0  0  0  0  0
   41.2000   33.5190   40.2180 C   0  0  2  0  0  0  0  0  0  0  0  0
   41.0860   31.6310   37.6050 H   0  0  0  0  0  0  0  0  0  0  0  0
   42.4050   31.8190   38.8810 H   0  0  0  0  0  0  0  0  0  0  0  0
   41.1390   33.8930   37.0530 H   0  0  0  0  0  0  0  0  0  0  0  0
   42.8660   33.6940   37.7080 H   0  0  0  0  0  0  0  0  0  0  0  0
   42.3620   35.0840   39.4120 H   0  0  0  0  0  0  0  0  0  0  0  0
   40.5770   35.2000   38.9560 H   0  0  0  0  0  0  0  0  0  0  0  0
   40.5160   33.8910   41.0120 H   0  0  0  0  0  0  0  0  0  0  0  0
   42.4590   33.0490   40.8670 C   0  0  0  0  0  0  0  0  0  0  0  0
   43.3620   33.1770   40.2400 H   0  0  0  0  0  0  0  0  0  0  0  0
   42.3630   31.9600   41.0560 H   0  0  0  0  0  0  0  0  0  0  0  0
   42.5790   33.5340   41.8590 H   0  0  0  0  0  0  0  0  0  0  0  0
   37.3530   28.2630   43.7680 C   0  0  0  0  0  0  0  0  0  0  0  0
   37.3720   26.9290   43.2930 C   0  0  0  0  0  0  0  0  0  0  0  0
   37.5390   26.7710   41.9230 C   0  0  0  0  0  0  0  0  0  0  0  0
   37.6680   27.8670   41.1540 N   0  0  0  0  0  0  0  0  0  0  0  0
   37.6480   29.0980   41.6090 C   0  0  0  0  0  0  0  0  0  0  0  0
   37.4890   29.3080   42.9280 N   0  0  0  0  0  0  0  0  0  0  0  0
   37.2250   28.3950   44.8250 H   0  0  0  0  0  0  0  0  0  0  0  0
   37.2660   26.1030   43.9500 H   0  0  0  0  0  0  0  0  0  0  0  0
   40.2360   25.6410   41.6360 Cl  0  0  0  0  0  0  0  0  0  0  0  0
   38.7810   24.8120   41.1130 C   0  0  0  0  0  0  0  0  0  0  0  0
   37.5760   25.4520   41.3060 C   0  0  0  0  0  0  0  0  0  0  0  0
   36.4670   24.7560   40.8770 C   0  0  0  0  0  0  0  0  0  0  0  0
   35.4990   25.1970   40.9960 H   0  0  0  0  0  0  0  0  0  0  0  0
   36.5420   23.5070   40.2960 C   0  0  0  0  0  0  0  0  0  0  0  0
   35.6490   23.0030   39.9770 H   0  0  0  0  0  0  0  0  0  0  0  0
   37.7790   22.9190   40.1320 C   0  0  0  0  0  3  0  0  0  0  0  0
   38.9280   23.5650   40.5400 C   0  0  0  0  0  3  0  0  0  0  0  0
  2  3  1  0  0  0  0
  2  1  1  0  0  0  0
  3 31  1  0  0  0  0
  4  8  1  0  0  0  0
  4  3  2  0  0  0  0
  5  4  1  0  0  0  0
  6  5  2  0  0  0  0
  6  7  1  0  0  0  0
  7  2  2  0  0  0  0
  9  5  1  0  0  0  0
 10  6  1  0  0  0  0
 11  7  1  0  0  0  0
 11 15  1  0  0  0  0
 12 17  1  0  0  0  0
 12 11  1  0  0  0  0
 13 12  1  0  0  0  0
 13 14  1  0  0  0  0
 14 20  1  0  0  0  0
 14 15  1  0  0  0  0
 15 23  1  0  0  0  0
 15 22  1  1  0  0  0
 16 12  1  0  0  0  0
 18 13  1  0  0  0  0
 19 13  1  0  0  0  0
 21 14  1  0  0  0  0
 23 25  1  0  0  0  0
 23 26  1  0  0  0  0
 24 23  1  0  0  0  0
 27 33  1  0  0  0  0
 28 27  1  0  0  0  0
 28 34  1  0  0  0  0
 29 28  2  0  0  0  0
 30 31  2  0  0  0  0
 30 29  1  0  0  0  0
 31 32  1  0  0  0  0
 32 27  2  0  0  0  0
 36 37  1  0  0  0  0
 36 35  1  0  0  0  0
 37 29  1  0  0  0  0
 38 39  1  0  0  0  0
 38 37  2  0  0  0  0
 40 38  1  0  0  0  0
 41 40  1  0  0  0  0
 42 40  2  0  0  0  0
 42 43  1  0  0  0  0
 43 36  2  0  0  0  0
M  END
>  <minimizedAffinity>
-6.07738733

$$$$

 OpenBabel03252505263D

 43 46  0  0  1  0  0  0  0  0999 V2000
   38.0620   28.4510   39.6100 F   0  0  0  0  0  0  0  0  0  0  0  0
   38.0480   28.3640   40.9840 C   0  0  0  0  0  0  0  0  0  0  0  0
   38.1690   29.5310   41.7130 C   0  0  0  0  0  0  0  0  0  0  0  0
   38.1520   29.4220   43.0650 C   0  0  0  0  0  0  0  0  0  0  0  0
   38.0180   28.1820   43.6730 C   0  0  0  0  0  0  0  0  0  0  0  0
   37.8980   27.0300   42.9500 C   0  0  0  0  0  0  0  0  0  0  0  0
   37.9150   27.1420   41.5650 C   0  0  0  0  0  0  0  0  0  0  0  0
   38.2480   30.3440   43.6430 H   0  0  0  0  0  0  0  0  0  0  0  0
   38.0130   28.1710   44.7550 H   0  0  0  0  0  0  0  0  0  0  0  0
   37.7930   26.0650   43.4350 H   0  0  0  0  0  0  0  0  0  0  0  0
   37.7870   25.9130   40.8440 N   0  0  0  0  0  0  0  0  0  0  0  0
   38.7600   24.8760   40.5830 C   0  0  0  0  0  0  0  0  0  0  0  0
   38.0160   23.6050   40.9850 C   0  0  0  0  0  0  0  0  0  0  0  0
   36.5660   23.9940   40.8460 C   0  0  0  0  0  0  0  0  0  0  0  0
   36.6480   25.3340   40.1560 C   0  0  2  0  0  0  0  0  0  0  0  0
   39.6860   25.0020   41.1900 H   0  0  0  0  0  0  0  0  0  0  0  0
   38.9830   24.8490   39.4920 H   0  0  0  0  0  0  0  0  0  0  0  0
   38.2830   23.3510   42.0430 H   0  0  0  0  0  0  0  0  0  0  0  0
   38.3270   22.8290   40.2610 H   0  0  0  0  0  0  0  0  0  0  0  0
   36.1260   23.2900   40.0870 H   0  0  0  0  0  0  0  0  0  0  0  0
   36.0140   24.0080   41.7840 H   0  0  0  0  0  0  0  0  0  0  0  0
   35.7600   25.9710   40.3600 H   0  0  0  0  0  0  0  0  0  0  0  0
   36.8270   25.2380   38.6780 C   0  0  0  0  0  0  0  0  0  0  0  0
   37.2630   24.2790   38.3400 H   0  0  0  0  0  0  0  0  0  0  0  0
   37.5370   26.0310   38.3650 H   0  0  0  0  0  0  0  0  0  0  0  0
   35.8660   25.4520   38.1640 H   0  0  0  0  0  0  0  0  0  0  0  0
   37.3230   32.6760   40.0530 C   0  0  0  0  0  0  0  0  0  0  0  0
   38.5920   33.2190   39.7360 C   0  0  0  0  0  0  0  0  0  0  0  0
   39.6930   32.4620   40.1160 C   0  0  0  0  0  0  0  0  0  0  0  0
   39.4890   31.2920   40.7460 N   0  0  0  0  0  0  0  0  0  0  0  0
   38.3060   30.8010   41.0340 C   0  0  0  0  0  0  0  0  0  0  0  0
   37.2060   31.4930   40.6880 N   0  0  0  0  0  0  0  0  0  0  0  0
   36.4660   33.2530   39.7630 H   0  0  0  0  0  0  0  0  0  0  0  0
   38.6890   34.1490   39.2360 H   0  0  0  0  0  0  0  0  0  0  0  0
   40.7750   31.5740   37.5330 Cl  0  0  0  0  0  0  0  0  0  0  0  0
   41.6780   32.5570   38.6720 C   0  0  0  0  0  0  0  0  0  0  0  0
   41.0540   32.9070   39.8490 C   0  0  0  0  0  0  0  0  0  0  0  0
   41.8070   33.6790   40.7060 C   0  0  0  0  0  0  0  0  0  0  0  0
   41.3830   33.9860   41.6400 H   0  0  0  0  0  0  0  0  0  0  0  0
   43.0960   34.0820   40.4180 C   0  0  0  0  0  0  0  0  0  0  0  0
   43.6440   34.6830   41.1180 H   0  0  0  0  0  0  0  0  0  0  0  0
   43.6640   33.6990   39.2210 C   0  0  0  0  0  3  0  0  0  0  0  0
   42.9610   32.9250   38.3200 C   0  0  0  0  0  3  0  0  0  0  0  0
  1  2  1  0  0  0  0
  2  7  2  0  0  0  0
  2  3  1  0  0  0  0
  3  4  2  0  0  0  0
  4  8  1  0  0  0  0
  4  5  1  0  0  0  0
  5  9  1  0  0  0  0
  6 10  1  0  0  0  0
  6  5  2  0  0  0  0
  7  6  1  0  0  0  0
 11  7  1  0  0  0  0
 12 11  1  0  0  0  0
 12 13  1  0  0  0  0
 12 16  1  0  0  0  0
 13 18  1  0  0  0  0
 14 13  1  0  0  0  0
 14 21  1  0  0  0  0
 15 22  1  1  0  0  0
 15 11  1  0  0  0  0
 15 14  1  0  0  0  0
 17 12  1  0  0  0  0
 19 13  1  0  0  0  0
 20 14  1  0  0  0  0
 23 15  1  0  0  0  0
 24 23  1  0  0  0  0
 25 23  1  0  0  0  0
 26 23  1  0  0  0  0
 27 32  1  0  0  0  0
 28 27  2  0  0  0  0
 28 29  1  0  0  0  0
 29 30  2  0  0  0  0
 30 31  1  0  0  0  0
 31  3  1  0  0  0  0
 32 31  2  0  0  0  0
 33 27  1  0  0  0  0
 34 28  1  0  0  0  0
 35 36  1  0  0  0  0
 36 37  1  0  0  0  0
 37 29  1  0  0  0  0
 37 38  2  0  0  0  0
 38 39  1  0  0  0  0
 40 38  1  0  0  0  0
 40 41  1  0  0  0  0
 42 40  2  0  0  0  0
 43 36  2  0  0  0  0
 43 42  1  0  0  0  0
M  END
>  <minimizedAffinity>
-5.94688225

$$$$

 OpenBabel03252505263D

 43 46  0  0  1  0  0  0  0  0999 V2000
   36.3530   30.8180   38.0150 F   0  0  0  0  0  0  0  0  0  0  0  0
   36.4730   30.1910   39.2340 C   0  0  0  0  0  0  0  0  0  0  0  0
   35.6520   29.1120   39.4960 C   0  0  0  0  0  0  0  0  0  0  0  0
   35.7860   28.5080   40.7030 C   0  0  0  0  0  0  0  0  0  0  0  0
   36.7160   28.9690   41.6240 C   0  0  0  0  0  0  0  0  0  0  0  0
   37.5280   30.0360   41.3620 C   0  0  0  0  0  0  0  0  0  0  0  0
   37.3890   30.6540   40.1260 C   0  0  0  0  0  0  0  0  0  0  0  0
   35.1370   27.6550   40.9120 H   0  0  0  0  0  0  0  0  0  0  0  0
   36.7690   28.4400   42.5670 H   0  0  0  0  0  0  0  0  0  0  0  0
   38.2520   30.3880   42.0890 H   0  0  0  0  0  0  0  0  0  0  0  0
   38.2560   31.7670   39.8900 N   0  0  0  0  0  0  0  0  0  0  0  0
   37.9600   33.1790   39.7940 C   0  0  0  0  0  0  0  0  0  0  0  0
   38.9890   33.8050   40.7330 C   0  0  0  0  0  0  0  0  0  0  0  0
   40.0930   32.7790   40.7680 C   0  0  0  0  0  0  0  0  0  0  0  0
   39.6900   31.8210   39.6750 C   0  0  2  0  0  0  0  0  0  0  0  0
   36.9240   33.4180   40.1270 H   0  0  0  0  0  0  0  0  0  0  0  0
   38.1480   33.5230   38.7520 H   0  0  0  0  0  0  0  0  0  0  0  0
   38.5180   33.9490   41.7390 H   0  0  0  0  0  0  0  0  0  0  0  0
   39.2960   34.7550   40.2580 H   0  0  0  0  0  0  0  0  0  0  0  0
   41.0150   33.3000   40.3890 H   0  0  0  0  0  0  0  0  0  0  0  0
   40.2400   32.3110   41.7410 H   0  0  0  0  0  0  0  0  0  0  0  0
   40.1020   30.8000   39.8320 H   0  0  0  0  0  0  0  0  0  0  0  0
   40.0730   32.2760   38.3070 C   0  0  0  0  0  0  0  0  0  0  0  0
   40.2230   33.3680   38.2230 H   0  0  0  0  0  0  0  0  0  0  0  0
   39.2450   32.0200   37.6150 H   0  0  0  0  0  0  0  0  0  0  0  0
   40.9650   31.7140   37.9560 H   0  0  0  0  0  0  0  0  0  0  0  0
   34.0390   27.1030   36.9020 C   0  0  0  0  0  0  0  0  0  0  0  0
   32.8650   27.8410   36.6130 C   0  0  0  0  0  0  0  0  0  0  0  0
   32.6860   29.0120   37.3380 C   0  0  0  0  0  0  0  0  0  0  0  0
   33.6130   29.3620   38.2460 N   0  0  0  0  0  0  0  0  0  0  0  0
   34.6970   28.6680   38.5040 C   0  0  0  0  0  0  0  0  0  0  0  0
   34.9210   27.5250   37.8300 N   0  0  0  0  0  0  0  0  0  0  0  0
   34.1860   26.1970   36.3470 H   0  0  0  0  0  0  0  0  0  0  0  0
   32.1680   27.5130   35.8830 H   0  0  0  0  0  0  0  0  0  0  0  0
   32.5580   30.2910   34.6960 Cl  0  0  0  0  0  0  0  0  0  0  0  0
   31.3430   30.5220   35.9400 C   0  0  0  0  0  0  0  0  0  0  0  0
   31.5200   29.8630   37.1370 C   0  0  0  0  0  0  0  0  0  0  0  0
   30.5370   30.0790   38.0770 C   0  0  0  0  0  0  0  0  0  0  0  0
   30.6130   29.5980   39.0300 H   0  0  0  0  0  0  0  0  0  0  0  0
   29.4460   30.8930   37.8500 C   0  0  0  0  0  0  0  0  0  0  0  0
   28.7050   31.0320   38.6140 H   0  0  0  0  0  0  0  0  0  0  0  0
   29.3260   31.5240   36.6290 C   0  0  0  0  0  3  0  0  0  0  0  0
   30.2770   31.3490   35.6460 C   0  0  0  0  0  3  0  0  0  0  0  0
  1  2  1  0  0  0  0
  2  3  2  0  0  0  0
  2  7  1  0  0  0  0
  3  4  1  0  0  0  0
  4  8  1  0  0  0  0
  4  5  2  0  0  0  0
  5  9  1  0  0  0  0
  6  5  1  0  0  0  0
  6 10  1  0  0  0  0
  7  6  2  0  0  0  0
 11  7  1  0  0  0  0
 12 11  1  0  0  0  0
 12 16  1  0  0  0  0
 12 13  1  0  0  0  0
 13 14  1  0  0  0  0
 13 18  1  0  0  0  0
 14 21  1  0  0  0  0
 15 22  1  1  0  0  0
 15 11  1  0  0  0  0
 15 14  1  0  0  0  0
 17 12  1  0  0  0  0
 19 13  1  0  0  0  0
 20 14  1  0  0  0  0
 23 15  1  0  0  0  0
 24 23  1  0  0  0  0
 25 23  1  0  0  0  0
 26 23  1  0  0  0  0
 27 32  1  0  0  0  0
 28 27  2  0  0  0  0
 28 29  1  0  0  0  0
 29 30  2  0  0  0  0
 30 31  1  0  0  0  0
 31  3  1  0  0  0  0
 32 31  2  0  0  0  0
 33 27  1  0  0  0  0
 34 28  1  0  0  0  0
 35 36  1  0  0  0  0
 36 37  1  0  0  0  0
 37 29  1  0  0  0  0
 37 38  2  0  0  0  0
 38 39  1  0  0  0  0
 40 38  1  0  0  0  0
 40 41  1  0  0  0  0
 42 40  2  0  0  0  0
 43 36  2  0  0  0  0
 43 42  1  0  0  0  0
M  END
>  <minimizedAffinity>
-5.93112326

$$$$

 OpenBabel03252505263D

 43 46  0  0  1  0  0  0  0  0999 V2000
   40.0460   30.5680   39.1530 F   0  0  0  0  0  0  0  0  0  0  0  0
   39.4990   31.7770   39.5190 C   0  0  0  0  0  0  0  0  0  0  0  0
   38.2290   31.7790   40.0640 C   0  0  0  0  0  0  0  0  0  0  0  0
   37.7080   32.9810   40.4180 C   0  0  0  0  0  0  0  0  0  0  0  0
   38.4360   34.1480   40.2340 C   0  0  0  0  0  0  0  0  0  0  0  0
   39.6910   34.1420   39.6960 C   0  0  0  0  0  0  0  0  0  0  0  0
   40.2240   32.9120   39.3340 C   0  0  0  0  0  0  0  0  0  0  0  0
   36.7050   32.9850   40.8480 H   0  0  0  0  0  0  0  0  0  0  0  0
   37.9590   35.0700   40.5390 H   0  0  0  0  0  0  0  0  0  0  0  0
   40.2520   35.0610   39.5570 H   0  0  0  0  0  0  0  0  0  0  0  0
   41.5400   32.9480   38.7740 N   0  0  0  0  0  0  0  0  0  0  0  0
   41.9680   33.0540   37.3970 C   0  0  0  0  0  0  0  0  0  0  0  0
   42.9990   34.1800   37.4500 C   0  0  0  0  0  0  0  0  0  0  0  0
   43.4630   34.1570   38.8840 C   0  0  0  0  0  0  0  0  0  0  0  0
   42.8410   32.8880   39.4120 C   0  0  2  0  0  0  0  0  0  0  0  0
   41.1290   33.3170   36.7120 H   0  0  0  0  0  0  0  0  0  0  0  0
   42.4670   32.1060   37.0940 H   0  0  0  0  0  0  0  0  0  0  0  0
   42.4920   35.1440   37.1880 H   0  0  0  0  0  0  0  0  0  0  0  0
   43.7930   33.8990   36.7330 H   0  0  0  0  0  0  0  0  0  0  0  0
   44.5690   33.9600   38.8500 H   0  0  0  0  0  0  0  0  0  0  0  0
   43.2060   35.0500   39.4530 H   0  0  0  0  0  0  0  0  0  0  0  0
   42.6890   32.9160   40.5130 H   0  0  0  0  0  0  0  0  0  0  0  0
   43.6150   31.6570   39.0780 C   0  0  0  0  0  0  0  0  0  0  0  0
   44.2760   31.7670   38.1980 H   0  0  0  0  0  0  0  0  0  0  0  0
   42.8930   30.8530   38.8270 H   0  0  0  0  0  0  0  0  0  0  0  0
   44.1790   31.3090   39.9700 H   0  0  0  0  0  0  0  0  0  0  0  0
   35.5380   29.3060   40.0250 C   0  0  0  0  0  0  0  0  0  0  0  0
   36.1540   28.1570   40.5770 C   0  0  0  0  0  0  0  0  0  0  0  0
   37.4880   28.2940   40.9410 C   0  0  0  0  0  0  0  0  0  0  0  0
   38.0940   29.4790   40.7500 N   0  0  0  0  0  0  0  0  0  0  0  0
   37.5100   30.5360   40.2360 C   0  0  0  0  0  0  0  0  0  0  0  0
   36.2180   30.4580   39.8670 N   0  0  0  0  0  0  0  0  0  0  0  0
   34.5080   29.2090   39.7410 H   0  0  0  0  0  0  0  0  0  0  0  0
   35.6230   27.2480   40.7040 H   0  0  0  0  0  0  0  0  0  0  0  0
   37.7450   28.4030   43.8660 Cl  0  0  0  0  0  0  0  0  0  0  0  0
   38.4320   27.1220   42.8830 C   0  0  0  0  0  0  0  0  0  0  0  0
   38.2390   27.1880   41.5200 C   0  0  0  0  0  0  0  0  0  0  0  0
   38.7990   26.1580   40.7980 C   0  0  0  0  0  0  0  0  0  0  0  0
   38.6870   26.1480   39.7330 H   0  0  0  0  0  0  0  0  0  0  0  0
   39.5050   25.1270   41.3820 C   0  0  0  0  0  0  0  0  0  0  0  0
   39.9240   24.3450   40.7770 H   0  0  0  0  0  0  0  0  0  0  0  0
   39.6620   25.1180   42.7530 C   0  0  0  0  0  3  0  0  0  0  0  0
   39.1250   26.1210   43.5330 C   0  0  0  0  0  3  0  0  0  0  0  0
  1  2  1  0  0  0  0
  2  3  1  0  0  0  0
  3 31  1  0  0  0  0
  3  4  2  0  0  0  0
  4  8  1  0  0  0  0
  5  4  1  0  0  0  0
  5  9  1  0  0  0  0
  6  5  2  0  0  0  0
  7  2  2  0  0  0  0
  7  6  1  0  0  0  0
 10  6  1  0  0  0  0
 11  7  1  0  0  0  0
 11 15  1  0  0  0  0
 12 13  1  0  0  0  0
 12 11  1  0  0  0  0
 13 14  1  0  0  0  0
 14 15  1  0  0  0  0
 14 21  1  0  0  0  0
 15 22  1  1  0  0  0
 16 12  1  0  0  0  0
 17 12  1  0  0  0  0
 18 13  1  0  0  0  0
 19 13  1  0  0  0  0
 20 14  1  0  0  0  0
 23 15  1  0  0  0  0
 23 26  1  0  0  0  0
 24 23  1  0  0  0  0
 25 23  1  0  0  0  0
 27 28  1  0  0  0  0
 28 34  1  0  0  0  0
 28 29  2  0  0  0  0
 29 37  1  0  0  0  0
 30 29  1  0  0  0  0
 31 30  2  0  0  0  0
 32 27  2  0  0  0  0
 32 31  1  0  0  0  0
 33 27  1  0  0  0  0
 36 43  1  0  0  0  0
 36 35  1  0  0  0  0
 37 36  2  0  0  0  0
 38 40  2  0  0  0  0
 38 37  1  0  0  0  0
 39 38  1  0  0  0  0
 40 42  1  0  0  0  0
 41 40  1  0  0  0  0
 42 43  2  0  0  0  0
M  END
>  <minimizedAffinity>
-5.89285278

$$$$
