
 OpenBabel03252505203D

 34 37  0  0  0  0  0  0  0  0999 V2000
   37.4700   29.6750   40.1170 C   0  0  0  0  0  0  0  0  0  0  0  0
   36.4930   29.4530   39.1840 C   0  0  0  0  0  0  0  0  0  0  0  0
   36.4770   30.1850   38.0180 C   0  0  0  0  0  0  0  0  0  0  0  0
   37.4640   31.1290   37.8380 C   0  0  0  0  0  0  0  0  0  0  0  0
   38.4370   31.3330   38.7980 C   0  0  0  0  0  0  0  0  0  0  0  0
   38.4260   30.5900   39.9410 N   0  0  0  0  0  0  0  0  0  0  0  0
   35.7210   28.7120   39.3290 H   0  0  0  0  0  0  0  0  0  0  0  0
   35.7200   30.0420   37.2470 H   0  0  0  0  0  0  0  0  0  0  0  0
   37.4560   31.6720   36.9370 H   0  0  0  0  0  0  0  0  0  0  0  0
   38.8320   33.6760   40.8740 Cl  0  0  0  0  0  0  0  0  0  0  0  0
   39.8560   33.3320   39.5080 C   0  0  0  0  0  0  0  0  0  0  0  0
   39.5400   32.2760   38.7170 C   0  0  0  0  0  0  0  0  0  0  0  0
   40.4840   32.1200   37.7000 C   0  0  0  0  0  0  0  0  0  0  0  0
   40.4060   31.3160   36.9520 H   0  0  0  0  0  0  0  0  0  0  0  0
   41.5800   32.9160   37.5140 C   0  0  0  0  0  0  0  0  0  0  0  0
   42.2780   32.7530   36.7110 H   0  0  0  0  0  0  0  0  0  0  0  0
   41.8180   33.9560   38.3570 C   0  0  0  0  0  3  0  0  0  0  0  0
   40.9330   34.1610   39.3730 C   0  0  0  0  0  3  0  0  0  0  0  0
   37.7530   28.7460   43.6680 C   0  0  0  0  0  0  0  0  0  0  0  0
   37.4910   27.3770   43.6780 C   0  0  0  0  0  0  0  0  0  0  0  0
   37.2140   26.8020   42.4600 C   0  0  0  0  0  0  0  0  0  0  0  0
   37.2020   27.5600   41.3090 N   0  0  0  0  0  0  0  0  0  0  0  0
   37.4690   28.9060   41.3570 C   0  0  0  0  0  0  0  0  0  0  0  0
   37.7400   29.4860   42.5360 N   0  0  0  0  0  0  0  0  0  0  0  0
   37.9790   29.2670   44.6010 H   0  0  0  0  0  0  0  0  0  0  0  0
   37.5050   26.8020   44.5780 H   0  0  0  0  0  0  0  0  0  0  0  0
   36.9470   25.3270   42.3390 C   0  0  0  0  0  0  0  0  0  0  0  0
   36.9620   24.8490   40.8860 C   0  0  0  0  0  0  0  0  0  0  0  0
   38.0230   24.4460   41.9620 C   0  0  0  0  0  0  0  0  0  0  0  0
   36.0380   24.9410   42.8830 H   0  0  0  0  0  0  0  0  0  0  0  0
   37.2960   25.5390   40.1030 H   0  0  0  0  0  0  0  0  0  0  0  0
   36.3050   24.0070   40.5980 H   0  0  0  0  0  0  0  0  0  0  0  0
   39.0290   24.7990   41.7260 H   0  0  0  0  0  0  0  0  0  0  0  0
   37.9770   23.4030   42.3350 H   0  0  0  0  0  0  0  0  0  0  0  0
  1 23  1  0  0  0  0
  2  7  1  0  0  0  0
  2  1  2  0  0  0  0
  3  2  1  0  0  0  0
  4  3  2  0  0  0  0
  4  5  1  0  0  0  0
  5  6  2  0  0  0  0
  6  1  1  0  0  0  0
  8  3  1  0  0  0  0
  9  4  1  0  0  0  0
 11 10  1  0  0  0  0
 12  5  1  0  0  0  0
 12 11  2  0  0  0  0
 13 12  1  0  0  0  0
 14 13  1  0  0  0  0
 15 13  2  0  0  0  0
 15 17  1  0  0  0  0
 16 15  1  0  0  0  0
 17 18  2  0  0  0  0
 18 11  1  0  0  0  0
 19 20  1  0  0  0  0
 19 25  1  0  0  0  0
 20 26  1  0  0  0  0
 21 20  2  0  0  0  0
 22 23  2  0  0  0  0
 22 21  1  0  0  0  0
 23 24  1  0  0  0  0
 24 19  2  0  0  0  0
 27 21  1  0  0  0  0
 27 30  1  0  0  0  0
 28 29  1  0  0  0  0
 28 27  1  0  0  0  0
 29 34  1  0  0  0  0
 29 27  1  0  0  0  0
 31 28  1  0  0  0  0
 32 28  1  0  0  0  0
 33 29  1  0  0  0  0
M  END
>  <minimizedAffinity>
-6.01553011

$$$$

 OpenBabel03252505203D

 34 37  0  0  0  0  0  0  0  0999 V2000
   37.4830   30.6260   40.8590 C   0  0  0  0  0  0  0  0  0  0  0  0
   36.1630   30.5920   40.4950 C   0  0  0  0  0  0  0  0  0  0  0  0
   35.4340   29.4350   40.6590 C   0  0  0  0  0  0  0  0  0  0  0  0
   36.0780   28.3410   41.1940 C   0  0  0  0  0  0  0  0  0  0  0  0
   37.4120   28.4050   41.5520 C   0  0  0  0  0  0  0  0  0  0  0  0
   38.1040   29.5650   41.3780 N   0  0  0  0  0  0  0  0  0  0  0  0
   35.6630   31.4530   40.0760 H   0  0  0  0  0  0  0  0  0  0  0  0
   34.3830   29.3620   40.3850 H   0  0  0  0  0  0  0  0  0  0  0  0
   35.5110   27.4660   41.3340 H   0  0  0  0  0  0  0  0  0  0  0  0
   36.9900   25.3690   40.8010 Cl  0  0  0  0  0  0  0  0  0  0  0  0
   38.1440   25.9920   41.9470 C   0  0  0  0  0  0  0  0  0  0  0  0
   38.1940   27.3330   42.1450 C   0  0  0  0  0  0  0  0  0  0  0  0
   39.1990   27.6600   43.0580 C   0  0  0  0  0  0  0  0  0  0  0  0
   39.4000   28.7020   43.3530 H   0  0  0  0  0  0  0  0  0  0  0  0
   40.0230   26.7630   43.6770 C   0  0  0  0  0  0  0  0  0  0  0  0
   40.7830   27.0690   44.3770 H   0  0  0  0  0  0  0  0  0  0  0  0
   39.9010   25.4340   43.4190 C   0  0  0  0  0  3  0  0  0  0  0  0
   38.9390   25.0480   42.5330 C   0  0  0  0  0  3  0  0  0  0  0  0
   38.3950   34.1060   40.0800 C   0  0  0  0  0  0  0  0  0  0  0  0
   39.7750   34.1430   40.2720 C   0  0  0  0  0  0  0  0  0  0  0  0
   40.3640   32.9660   40.6760 C   0  0  0  0  0  0  0  0  0  0  0  0
   39.6080   31.8310   40.8710 N   0  0  0  0  0  0  0  0  0  0  0  0
   38.2510   31.8520   40.6650 C   0  0  0  0  0  0  0  0  0  0  0  0
   37.6580   32.9900   40.2720 N   0  0  0  0  0  0  0  0  0  0  0  0
   37.8630   35.0060   39.7610 H   0  0  0  0  0  0  0  0  0  0  0  0
   40.3480   35.0300   40.1170 H   0  0  0  0  0  0  0  0  0  0  0  0
   41.8500   32.8730   40.8860 C   0  0  0  0  0  0  0  0  0  0  0  0
   42.2190   31.9310   42.0340 C   0  0  0  0  0  0  0  0  0  0  0  0
   42.5360   31.6580   40.5280 C   0  0  0  0  0  0  0  0  0  0  0  0
   42.4010   33.8520   40.9730 H   0  0  0  0  0  0  0  0  0  0  0  0
   41.4340   31.3160   42.4880 H   0  0  0  0  0  0  0  0  0  0  0  0
   43.1250   32.1490   42.6290 H   0  0  0  0  0  0  0  0  0  0  0  0
   42.0240   30.7770   40.1340 H   0  0  0  0  0  0  0  0  0  0  0  0
   43.5970   31.7480   40.2220 H   0  0  0  0  0  0  0  0  0  0  0  0
  1  6  1  0  0  0  0
  2  3  1  0  0  0  0
  2  1  2  0  0  0  0
  3  4  2  0  0  0  0
  4  9  1  0  0  0  0
  4  5  1  0  0  0  0
  5 12  1  0  0  0  0
  6  5  2  0  0  0  0
  7  2  1  0  0  0  0
  8  3  1  0  0  0  0
 10 11  1  0  0  0  0
 11 12  2  0  0  0  0
 11 18  1  0  0  0  0
 12 13  1  0  0  0  0
 13 14  1  0  0  0  0
 13 15  2  0  0  0  0
 15 16  1  0  0  0  0
 17 15  1  0  0  0  0
 18 17  2  0  0  0  0
 19 24  2  0  0  0  0
 19 20  1  0  0  0  0
 20 21  2  0  0  0  0
 21 22  1  0  0  0  0
 21 27  1  0  0  0  0
 23  1  1  0  0  0  0
 23 22  2  0  0  0  0
 24 23  1  0  0  0  0
 25 19  1  0  0  0  0
 26 20  1  0  0  0  0
 27 30  1  0  0  0  0
 27 28  1  0  0  0  0
 28 31  1  0  0  0  0
 28 32  1  0  0  0  0
 29 27  1  0  0  0  0
 29 28  1  0  0  0  0
 33 29  1  0  0  0  0
 34 29  1  0  0  0  0
M  END
>  <minimizedAffinity>
-5.94355154

$$$$

 OpenBabel03252505203D

 34 37  0  0  0  0  0  0  0  0999 V2000
   37.4160   28.9040   41.4190 C   0  0  0  0  0  0  0  0  0  0  0  0
   37.4130   29.1900   42.7580 C   0  0  0  0  0  0  0  0  0  0  0  0
   37.4370   28.1670   43.6800 C   0  0  0  0  0  0  0  0  0  0  0  0
   37.4630   26.8740   43.2040 C   0  0  0  0  0  0  0  0  0  0  0  0
   37.4660   26.6160   41.8450 C   0  0  0  0  0  0  0  0  0  0  0  0
   37.4430   27.6510   40.9600 N   0  0  0  0  0  0  0  0  0  0  0  0
   37.3920   30.2050   43.1270 H   0  0  0  0  0  0  0  0  0  0  0  0
   37.4360   28.3460   44.7540 H   0  0  0  0  0  0  0  0  0  0  0  0
   37.5000   26.0980   43.9120 H   0  0  0  0  0  0  0  0  0  0  0  0
   39.6860   24.4820   42.5340 Cl  0  0  0  0  0  0  0  0  0  0  0  0
   38.3900   24.2810   41.3890 C   0  0  0  0  0  0  0  0  0  0  0  0
   37.5160   25.3050   41.2200 C   0  0  0  0  0  0  0  0  0  0  0  0
   36.5210   24.9600   40.3020 C   0  0  0  0  0  0  0  0  0  0  0  0
   35.7150   25.6580   40.0280 H   0  0  0  0  0  0  0  0  0  0  0  0
   36.4300   23.7600   39.6550 C   0  0  0  0  0  0  0  0  0  0  0  0
   35.6420   23.5450   38.9520 H   0  0  0  0  0  0  0  0  0  0  0  0
   37.3530   22.7890   39.8840 C   0  0  0  0  0  3  0  0  0  0  0  0
   38.3500   23.0620   40.7720 C   0  0  0  0  0  3  0  0  0  0  0  0
   37.3480   32.2700   39.9300 C   0  0  0  0  0  0  0  0  0  0  0  0
   37.2470   32.0290   38.5610 C   0  0  0  0  0  0  0  0  0  0  0  0
   37.2140   30.7090   38.1770 C   0  0  0  0  0  0  0  0  0  0  0  0
   37.2770   29.7000   39.1140 N   0  0  0  0  0  0  0  0  0  0  0  0
   37.3740   29.9960   40.4510 C   0  0  0  0  0  0  0  0  0  0  0  0
   37.4090   31.2780   40.8460 N   0  0  0  0  0  0  0  0  0  0  0  0
   37.3810   33.2960   40.3040 H   0  0  0  0  0  0  0  0  0  0  0  0
   37.1990   32.8210   37.8460 H   0  0  0  0  0  0  0  0  0  0  0  0
   37.0750   30.3230   36.7290 C   0  0  0  0  0  0  0  0  0  0  0  0
   37.5370   28.8890   36.4610 C   0  0  0  0  0  0  0  0  0  0  0  0
   36.0560   29.3780   36.3470 C   0  0  0  0  0  0  0  0  0  0  0  0
   37.5200   31.0380   35.9810 H   0  0  0  0  0  0  0  0  0  0  0  0
   37.7740   28.2400   37.3120 H   0  0  0  0  0  0  0  0  0  0  0  0
   37.9850   28.6520   35.4780 H   0  0  0  0  0  0  0  0  0  0  0  0
   35.3880   28.8970   37.0660 H   0  0  0  0  0  0  0  0  0  0  0  0
   35.6430   29.4680   35.3240 H   0  0  0  0  0  0  0  0  0  0  0  0
  1  2  1  0  0  0  0
  2  7  1  0  0  0  0
  2  3  2  0  0  0  0
  3  8  1  0  0  0  0
  4  3  1  0  0  0  0
  4  9  1  0  0  0  0
  5  4  2  0  0  0  0
  6  1  2  0  0  0  0
  6  5  1  0  0  0  0
 11 10  1  0  0  0  0
 12 11  1  0  0  0  0
 12  5  1  0  0  0  0
 13 12  2  0  0  0  0
 14 13  1  0  0  0  0
 15 17  2  0  0  0  0
 15 13  1  0  0  0  0
 16 15  1  0  0  0  0
 17 18  1  0  0  0  0
 18 11  2  0  0  0  0
 19 25  1  0  0  0  0
 19 24  1  0  0  0  0
 20 19  2  0  0  0  0
 21 20  1  0  0  0  0
 21 22  2  0  0  0  0
 22 23  1  0  0  0  0
 23 24  2  0  0  0  0
 23  1  1  0  0  0  0
 26 20  1  0  0  0  0
 27 21  1  0  0  0  0
 28 27  1  0  0  0  0
 28 31  1  0  0  0  0
 29 28  1  0  0  0  0
 29 27  1  0  0  0  0
 29 33  1  0  0  0  0
 30 27  1  0  0  0  0
 32 28  1  0  0  0  0
 34 29  1  0  0  0  0
M  END
>  <minimizedAffinity>
-5.78255606

$$$$

 OpenBabel03252505203D

 34 37  0  0  0  0  0  0  0  0999 V2000
   37.6790   29.4660   40.7790 C   0  0  0  0  0  0  0  0  0  0  0  0
   37.8210   30.7560   41.2140 C   0  0  0  0  0  0  0  0  0  0  0  0
   37.3970   31.8000   40.4210 C   0  0  0  0  0  0  0  0  0  0  0  0
   36.8400   31.4930   39.1990 C   0  0  0  0  0  0  0  0  0  0  0  0
   36.7110   30.1800   38.7850 C   0  0  0  0  0  0  0  0  0  0  0  0
   37.1390   29.1710   39.5940 N   0  0  0  0  0  0  0  0  0  0  0  0
   38.2580   30.9920   42.1730 H   0  0  0  0  0  0  0  0  0  0  0  0
   37.4880   32.8410   40.7260 H   0  0  0  0  0  0  0  0  0  0  0  0
   36.5030   32.2940   38.6060 H   0  0  0  0  0  0  0  0  0  0  0  0
   33.8210   28.9240   38.6190 Cl  0  0  0  0  0  0  0  0  0  0  0  0
   34.9130   29.1650   37.2850 C   0  0  0  0  0  0  0  0  0  0  0  0
   36.1220   29.7270   37.5360 C   0  0  0  0  0  0  0  0  0  0  0  0
   36.8490   29.8850   36.3540 C   0  0  0  0  0  0  0  0  0  0  0  0
   37.8590   30.3250   36.3470 H   0  0  0  0  0  0  0  0  0  0  0  0
   36.4160   29.5260   35.1090 C   0  0  0  0  0  0  0  0  0  0  0  0
   37.0190   29.6680   34.2280 H   0  0  0  0  0  0  0  0  0  0  0  0
   35.1870   28.9660   34.9500 C   0  0  0  0  0  3  0  0  0  0  0  0
   34.4260   28.7860   36.0660 C   0  0  0  0  0  3  0  0  0  0  0  0
   39.6170   27.4820   43.1990 C   0  0  0  0  0  0  0  0  0  0  0  0
   39.0130   26.2260   43.1640 C   0  0  0  0  0  0  0  0  0  0  0  0
   37.9430   26.0910   42.3110 C   0  0  0  0  0  0  0  0  0  0  0  0
   37.5120   27.1530   41.5460 N   0  0  0  0  0  0  0  0  0  0  0  0
   38.1460   28.3680   41.6190 C   0  0  0  0  0  0  0  0  0  0  0  0
   39.1920   28.5210   42.4460 N   0  0  0  0  0  0  0  0  0  0  0  0
   40.4730   27.6600   43.8550 H   0  0  0  0  0  0  0  0  0  0  0  0
   39.3580   25.4130   43.7630 H   0  0  0  0  0  0  0  0  0  0  0  0
   37.2280   24.7750   42.1630 C   0  0  0  0  0  0  0  0  0  0  0  0
   36.6840   24.5640   40.7490 C   0  0  0  0  0  0  0  0  0  0  0  0
   37.8400   23.7260   41.3880 C   0  0  0  0  0  0  0  0  0  0  0  0
   36.4420   24.5480   42.9380 H   0  0  0  0  0  0  0  0  0  0  0  0
   36.9680   25.2690   39.9600 H   0  0  0  0  0  0  0  0  0  0  0  0
   35.7530   23.9790   40.6210 H   0  0  0  0  0  0  0  0  0  0  0  0
   38.7940   23.8450   40.8690 H   0  0  0  0  0  0  0  0  0  0  0  0
   37.5970   22.6830   41.6690 H   0  0  0  0  0  0  0  0  0  0  0  0
  1  2  1  0  0  0  0
  1 23  1  0  0  0  0
  2  7  1  0  0  0  0
  3  8  1  0  0  0  0
  3  2  2  0  0  0  0
  4  3  1  0  0  0  0
  5  4  2  0  0  0  0
  5  6  1  0  0  0  0
  6  1  2  0  0  0  0
  9  4  1  0  0  0  0
 11 12  1  0  0  0  0
 11 10  1  0  0  0  0
 12  5  1  0  0  0  0
 13 12  2  0  0  0  0
 14 13  1  0  0  0  0
 15 13  1  0  0  0  0
 16 15  1  0  0  0  0
 17 15  2  0  0  0  0
 17 18  1  0  0  0  0
 18 11  2  0  0  0  0
 19 25  1  0  0  0  0
 20 19  1  0  0  0  0
 20 26  1  0  0  0  0
 21 20  2  0  0  0  0
 22 23  2  0  0  0  0
 22 21  1  0  0  0  0
 23 24  1  0  0  0  0
 24 19  2  0  0  0  0
 27 21  1  0  0  0  0
 27 30  1  0  0  0  0
 28 29  1  0  0  0  0
 28 27  1  0  0  0  0
 29 34  1  0  0  0  0
 29 27  1  0  0  0  0
 31 28  1  0  0  0  0
 32 28  1  0  0  0  0
 33 29  1  0  0  0  0
M  END
>  <minimizedAffinity>
-5.69294119

$$$$

 OpenBabel03252505203D

 34 37  0  0  0  0  0  0  0  0999 V2000
   37.5930   28.9830   41.3580 C   0  0  0  0  0  0  0  0  0  0  0  0
   37.5350   29.3250   42.6820 C   0  0  0  0  0  0  0  0  0  0  0  0
   37.4950   28.3410   43.6450 C   0  0  0  0  0  0  0  0  0  0  0  0
   37.5150   27.0300   43.2250 C   0  0  0  0  0  0  0  0  0  0  0  0
   37.5740   26.7140   41.8800 C   0  0  0  0  0  0  0  0  0  0  0  0
   37.6140   27.7110   40.9530 N   0  0  0  0  0  0  0  0  0  0  0  0
   37.5190   30.3550   43.0070 H   0  0  0  0  0  0  0  0  0  0  0  0
   37.4490   28.5660   44.7100 H   0  0  0  0  0  0  0  0  0  0  0  0
   37.5030   26.2830   43.9660 H   0  0  0  0  0  0  0  0  0  0  0  0
   39.9790   24.7350   42.3890 Cl  0  0  0  0  0  0  0  0  0  0  0  0
   38.5700   24.4090   41.4200 C   0  0  0  0  0  0  0  0  0  0  0  0
   37.6250   25.3770   41.3130 C   0  0  0  0  0  0  0  0  0  0  0  0
   36.5500   24.9350   40.5390 C   0  0  0  0  0  0  0  0  0  0  0  0
   35.6780   25.5750   40.3330 H   0  0  0  0  0  0  0  0  0  0  0  0
   36.4510   23.7000   39.9610 C   0  0  0  0  0  0  0  0  0  0  0  0
   35.5990   23.4090   39.3700 H   0  0  0  0  0  0  0  0  0  0  0  0
   37.4490   22.7900   40.1200 C   0  0  0  0  0  3  0  0  0  0  0  0
   38.5270   23.1600   40.8670 C   0  0  0  0  0  3  0  0  0  0  0  0
   36.9770   30.8950   38.2730 C   0  0  0  0  0  0  0  0  0  0  0  0
   37.7410   32.0490   38.4350 C   0  0  0  0  0  0  0  0  0  0  0  0
   38.4480   32.1490   39.6110 C   0  0  0  0  0  0  0  0  0  0  0  0
   38.3870   31.1500   40.5580 N   0  0  0  0  0  0  0  0  0  0  0  0
   37.6190   30.0330   40.3440 C   0  0  0  0  0  0  0  0  0  0  0  0
   36.9200   29.9160   39.2040 N   0  0  0  0  0  0  0  0  0  0  0  0
   36.3890   30.7510   37.3630 H   0  0  0  0  0  0  0  0  0  0  0  0
   37.7790   32.8150   37.6930 H   0  0  0  0  0  0  0  0  0  0  0  0
   39.3340   33.3340   39.8870 C   0  0  0  0  0  0  0  0  0  0  0  0
   40.6000   32.9490   40.6550 C   0  0  0  0  0  0  0  0  0  0  0  0
   40.5810   33.4600   39.1770 C   0  0  0  0  0  0  0  0  0  0  0  0
   38.8330   34.2290   40.3550 H   0  0  0  0  0  0  0  0  0  0  0  0
   40.8290   31.8880   40.8030 H   0  0  0  0  0  0  0  0  0  0  0  0
   41.0390   33.6840   41.3560 H   0  0  0  0  0  0  0  0  0  0  0  0
   40.9390   32.7170   38.4610 H   0  0  0  0  0  0  0  0  0  0  0  0
   40.9620   34.4860   39.0050 H   0  0  0  0  0  0  0  0  0  0  0  0
  1  2  1  0  0  0  0
  2  7  1  0  0  0  0
  2  3  2  0  0  0  0
  3  8  1  0  0  0  0
  4  3  1  0  0  0  0
  4  9  1  0  0  0  0
  5  4  2  0  0  0  0
  6  1  2  0  0  0  0
  6  5  1  0  0  0  0
 11 10  1  0  0  0  0
 12 11  1  0  0  0  0
 12  5  1  0  0  0  0
 13 12  2  0  0  0  0
 14 13  1  0  0  0  0
 15 17  2  0  0  0  0
 15 13  1  0  0  0  0
 16 15  1  0  0  0  0
 17 18  1  0  0  0  0
 18 11  2  0  0  0  0
 19 20  2  0  0  0  0
 19 24  1  0  0  0  0
 20 21  1  0  0  0  0
 21 27  1  0  0  0  0
 21 22  2  0  0  0  0
 23 22  1  0  0  0  0
 23  1  1  0  0  0  0
 24 23  2  0  0  0  0
 25 19  1  0  0  0  0
 26 20  1  0  0  0  0
 27 30  1  0  0  0  0
 27 28  1  0  0  0  0
 28 31  1  0  0  0  0
 28 32  1  0  0  0  0
 29 27  1  0  0  0  0
 29 28  1  0  0  0  0
 33 29  1  0  0  0  0
 34 29  1  0  0  0  0
M  END
>  <minimizedAffinity>
-5.60115576

$$$$

 OpenBabel03252505203D

 34 37  0  0  0  0  0  0  0  0999 V2000
   37.0510   27.4520   41.2400 C   0  0  0  0  0  0  0  0  0  0  0  0
   37.0710   27.0700   42.5550 C   0  0  0  0  0  0  0  0  0  0  0  0
   37.4250   27.9780   43.5290 C   0  0  0  0  0  0  0  0  0  0  0  0
   37.7480   29.2550   43.1290 C   0  0  0  0  0  0  0  0  0  0  0  0
   37.7200   29.6120   41.7930 C   0  0  0  0  0  0  0  0  0  0  0  0
   37.3650   28.6910   40.8550 N   0  0  0  0  0  0  0  0  0  0  0  0
   36.8170   26.0670   42.8640 H   0  0  0  0  0  0  0  0  0  0  0  0
   37.4540   27.7200   44.5860 H   0  0  0  0  0  0  0  0  0  0  0  0
   38.0000   29.9490   43.8790 H   0  0  0  0  0  0  0  0  0  0  0  0
   40.4610   31.0910   42.3010 Cl  0  0  0  0  0  0  0  0  0  0  0  0
   39.1230   31.7020   41.3690 C   0  0  0  0  0  0  0  0  0  0  0  0
   38.0160   30.9260   41.2490 C   0  0  0  0  0  0  0  0  0  0  0  0
   37.0630   31.5480   40.4380 C   0  0  0  0  0  0  0  0  0  0  0  0
   36.0920   31.0780   40.2170 H   0  0  0  0  0  0  0  0  0  0  0  0
   37.2110   32.7690   39.8430 C   0  0  0  0  0  0  0  0  0  0  0  0
   36.4430   33.2060   39.2270 H   0  0  0  0  0  0  0  0  0  0  0  0
   38.3570   33.4800   40.0200 C   0  0  0  0  0  3  0  0  0  0  0  0
   39.3290   32.9270   40.8000 C   0  0  0  0  0  3  0  0  0  0  0  0
   35.8050   25.9380   38.1240 C   0  0  0  0  0  0  0  0  0  0  0  0
   35.9910   24.5710   38.3180 C   0  0  0  0  0  0  0  0  0  0  0  0
   36.5510   24.1970   39.5170 C   0  0  0  0  0  0  0  0  0  0  0  0
   36.9000   25.1430   40.4580 N   0  0  0  0  0  0  0  0  0  0  0  0
   36.6920   26.4780   40.2140 C   0  0  0  0  0  0  0  0  0  0  0  0
   36.1480   26.8630   39.0490 N   0  0  0  0  0  0  0  0  0  0  0  0
   35.3660   26.3050   37.1930 H   0  0  0  0  0  0  0  0  0  0  0  0
   35.7160   23.8490   37.5800 H   0  0  0  0  0  0  0  0  0  0  0  0
   36.7720   22.7480   39.8550 C   0  0  0  0  0  0  0  0  0  0  0  0
   37.5430   22.0060   38.7610 C   0  0  0  0  0  0  0  0  0  0  0  0
   38.0990   22.2990   40.1920 C   0  0  0  0  0  0  0  0  0  0  0  0
   35.8590   22.1680   40.1720 H   0  0  0  0  0  0  0  0  0  0  0  0
   37.9820   22.5810   37.9380 H   0  0  0  0  0  0  0  0  0  0  0  0
   37.3290   20.9330   38.5970 H   0  0  0  0  0  0  0  0  0  0  0  0
   38.9710   22.9560   40.1880 H   0  0  0  0  0  0  0  0  0  0  0  0
   38.1800   21.4320   40.8780 H   0  0  0  0  0  0  0  0  0  0  0  0
  1  2  1  0  0  0  0
  2  7  1  0  0  0  0
  2  3  2  0  0  0  0
  3  8  1  0  0  0  0
  4  3  1  0  0  0  0
  4  9  1  0  0  0  0
  5  4  2  0  0  0  0
  6  1  2  0  0  0  0
  6  5  1  0  0  0  0
 11 10  1  0  0  0  0
 12 11  1  0  0  0  0
 12  5  1  0  0  0  0
 13 12  2  0  0  0  0
 14 13  1  0  0  0  0
 15 17  2  0  0  0  0
 15 13  1  0  0  0  0
 16 15  1  0  0  0  0
 17 18  1  0  0  0  0
 18 11  2  0  0  0  0
 19 20  2  0  0  0  0
 19 24  1  0  0  0  0
 20 21  1  0  0  0  0
 21 27  1  0  0  0  0
 21 22  2  0  0  0  0
 23 22  1  0  0  0  0
 23  1  1  0  0  0  0
 24 23  2  0  0  0  0
 25 19  1  0  0  0  0
 26 20  1  0  0  0  0
 27 30  1  0  0  0  0
 27 29  1  0  0  0  0
 28 27  1  0  0  0  0
 28 29  1  0  0  0  0
 29 34  1  0  0  0  0
 31 28  1  0  0  0  0
 32 28  1  0  0  0  0
 33 29  1  0  0  0  0
M  END
>  <minimizedAffinity>
-5.58379984

$$$$

 OpenBabel03252505203D

 34 37  0  0  0  0  0  0  0  0999 V2000
   37.6210   28.7120   41.2420 C   0  0  0  0  0  0  0  0  0  0  0  0
   36.2930   28.6480   40.9160 C   0  0  0  0  0  0  0  0  0  0  0  0
   35.6980   29.6950   40.2460 C   0  0  0  0  0  0  0  0  0  0  0  0
   36.4820   30.7810   39.9270 C   0  0  0  0  0  0  0  0  0  0  0  0
   37.8210   30.8190   40.2700 C   0  0  0  0  0  0  0  0  0  0  0  0
   38.3790   29.7670   40.9310 N   0  0  0  0  0  0  0  0  0  0  0  0
   35.6820   27.7940   41.1680 H   0  0  0  0  0  0  0  0  0  0  0  0
   34.6460   29.6870   39.9650 H   0  0  0  0  0  0  0  0  0  0  0  0
   36.0260   31.5690   39.4000 H   0  0  0  0  0  0  0  0  0  0  0  0
   39.9240   30.6450   37.9240 Cl  0  0  0  0  0  0  0  0  0  0  0  0
   39.7170   31.9830   39.0190 C   0  0  0  0  0  0  0  0  0  0  0  0
   38.7550   31.8910   39.9710 C   0  0  0  0  0  0  0  0  0  0  0  0
   38.6980   33.0620   40.7310 C   0  0  0  0  0  0  0  0  0  0  0  0
   37.9800   33.1860   41.5560 H   0  0  0  0  0  0  0  0  0  0  0  0
   39.4960   34.1570   40.5510 C   0  0  0  0  0  0  0  0  0  0  0  0
   39.4130   35.0360   41.1670 H   0  0  0  0  0  0  0  0  0  0  0  0
   40.4370   34.1610   39.5700 C   0  0  0  0  0  3  0  0  0  0  0  0
   40.5430   33.0470   38.7910 C   0  0  0  0  0  3  0  0  0  0  0  0
   39.7340   26.7800   43.5550 C   0  0  0  0  0  0  0  0  0  0  0  0
   39.4050   25.4530   43.2810 C   0  0  0  0  0  0  0  0  0  0  0  0
   38.4540   25.2510   42.3090 C   0  0  0  0  0  0  0  0  0  0  0  0
   37.8740   26.3180   41.6570 N   0  0  0  0  0  0  0  0  0  0  0  0
   38.2380   27.6060   41.9660 C   0  0  0  0  0  0  0  0  0  0  0  0
   39.1630   27.8240   42.9130 N   0  0  0  0  0  0  0  0  0  0  0  0
   40.4810   27.0130   44.3180 H   0  0  0  0  0  0  0  0  0  0  0  0
   39.8630   24.6370   43.7940 H   0  0  0  0  0  0  0  0  0  0  0  0
   38.0390   23.8640   41.9030 C   0  0  0  0  0  0  0  0  0  0  0  0
   36.8030   23.8650   41.0010 C   0  0  0  0  0  0  0  0  0  0  0  0
   38.2360   23.4410   40.5400 C   0  0  0  0  0  0  0  0  0  0  0  0
   37.9300   23.1150   42.7380 H   0  0  0  0  0  0  0  0  0  0  0  0
   36.4280   24.8200   40.6170 H   0  0  0  0  0  0  0  0  0  0  0  0
   36.1030   23.0100   41.0600 H   0  0  0  0  0  0  0  0  0  0  0  0
   38.6480   24.0920   39.7660 H   0  0  0  0  0  0  0  0  0  0  0  0
   38.3990   22.3590   40.3650 H   0  0  0  0  0  0  0  0  0  0  0  0
  1 23  1  0  0  0  0
  2  7  1  0  0  0  0
  2  1  2  0  0  0  0
  3  2  1  0  0  0  0
  4  3  2  0  0  0  0
  4  5  1  0  0  0  0
  5  6  2  0  0  0  0
  6  1  1  0  0  0  0
  8  3  1  0  0  0  0
  9  4  1  0  0  0  0
 10 11  1  0  0  0  0
 11 12  1  0  0  0  0
 12  5  1  0  0  0  0
 12 13  2  0  0  0  0
 13 14  1  0  0  0  0
 15 13  1  0  0  0  0
 15 16  1  0  0  0  0
 17 15  2  0  0  0  0
 18 11  2  0  0  0  0
 18 17  1  0  0  0  0
 19 25  1  0  0  0  0
 20 19  1  0  0  0  0
 20 26  1  0  0  0  0
 21 20  2  0  0  0  0
 22 23  2  0  0  0  0
 22 21  1  0  0  0  0
 23 24  1  0  0  0  0
 24 19  2  0  0  0  0
 27 21  1  0  0  0  0
 27 30  1  0  0  0  0
 28 32  1  0  0  0  0
 28 27  1  0  0  0  0
 29 28  1  0  0  0  0
 29 27  1  0  0  0  0
 31 28  1  0  0  0  0
 33 29  1  0  0  0  0
 34 29  1  0  0  0  0
M  END
>  <minimizedAffinity>
-5.58344984

$$$$

 OpenBabel03252505203D

 34 37  0  0  0  0  0  0  0  0999 V2000
   37.1660   27.4450   41.3740 C   0  0  0  0  0  0  0  0  0  0  0  0
   37.2530   27.0780   42.6900 C   0  0  0  0  0  0  0  0  0  0  0  0
   37.6510   27.9980   43.6350 C   0  0  0  0  0  0  0  0  0  0  0  0
   37.9510   29.2720   43.2060 C   0  0  0  0  0  0  0  0  0  0  0  0
   37.8550   29.6140   41.8690 C   0  0  0  0  0  0  0  0  0  0  0  0
   37.4560   28.6810   40.9600 N   0  0  0  0  0  0  0  0  0  0  0  0
   37.0160   26.0790   43.0230 H   0  0  0  0  0  0  0  0  0  0  0  0
   37.7340   27.7520   44.6930 H   0  0  0  0  0  0  0  0  0  0  0  0
   38.2380   29.9740   43.9340 H   0  0  0  0  0  0  0  0  0  0  0  0
   40.5940   31.1290   42.2690 Cl  0  0  0  0  0  0  0  0  0  0  0  0
   39.2210   31.7110   41.3690 C   0  0  0  0  0  0  0  0  0  0  0  0
   38.1190   30.9220   41.2960 C   0  0  0  0  0  0  0  0  0  0  0  0
   37.1350   31.5210   40.5060 C   0  0  0  0  0  0  0  0  0  0  0  0
   36.1630   31.0380   40.3220 H   0  0  0  0  0  0  0  0  0  0  0  0
   37.2520   32.7340   39.8880 C   0  0  0  0  0  0  0  0  0  0  0  0
   36.4600   33.1530   39.2900 H   0  0  0  0  0  0  0  0  0  0  0  0
   38.3950   33.4590   40.0180 C   0  0  0  0  0  3  0  0  0  0  0  0
   39.3960   32.9290   40.7760 C   0  0  0  0  0  3  0  0  0  0  0  0
   36.6330   24.2600   39.6080 C   0  0  0  0  0  0  0  0  0  0  0  0
   35.9960   24.6340   38.4260 C   0  0  0  0  0  0  0  0  0  0  0  0
   35.7550   25.9790   38.2650 C   0  0  0  0  0  0  0  0  0  0  0  0
   36.1320   26.8840   39.2330 N   0  0  0  0  0  0  0  0  0  0  0  0
   36.7590   26.4590   40.3790 C   0  0  0  0  0  0  0  0  0  0  0  0
   37.0020   25.1510   40.5550 N   0  0  0  0  0  0  0  0  0  0  0  0
   36.8540   23.2070   39.8010 H   0  0  0  0  0  0  0  0  0  0  0  0
   35.7090   23.9220   37.6840 H   0  0  0  0  0  0  0  0  0  0  0  0
   35.1020   26.5080   37.0170 C   0  0  0  0  0  0  0  0  0  0  0  0
   33.6720   25.9910   36.8430 C   0  0  0  0  0  0  0  0  0  0  0  0
   34.0460   27.4810   37.1340 C   0  0  0  0  0  0  0  0  0  0  0  0
   35.6920   26.3960   36.0630 H   0  0  0  0  0  0  0  0  0  0  0  0
   33.2060   25.4350   37.6640 H   0  0  0  0  0  0  0  0  0  0  0  0
   33.2840   25.8400   35.8180 H   0  0  0  0  0  0  0  0  0  0  0  0
   33.6680   27.8400   38.0940 H   0  0  0  0  0  0  0  0  0  0  0  0
   33.9220   28.1950   36.2960 H   0  0  0  0  0  0  0  0  0  0  0  0
  1  2  1  0  0  0  0
  2  7  1  0  0  0  0
  2  3  2  0  0  0  0
  3  8  1  0  0  0  0
  4  3  1  0  0  0  0
  4  9  1  0  0  0  0
  5  4  2  0  0  0  0
  6  1  2  0  0  0  0
  6  5  1  0  0  0  0
 11 10  1  0  0  0  0
 12 11  1  0  0  0  0
 12  5  1  0  0  0  0
 13 12  2  0  0  0  0
 14 13  1  0  0  0  0
 15 17  2  0  0  0  0
 15 13  1  0  0  0  0
 16 15  1  0  0  0  0
 17 18  1  0  0  0  0
 18 11  2  0  0  0  0
 19 25  1  0  0  0  0
 19 24  1  0  0  0  0
 20 19  2  0  0  0  0
 21 20  1  0  0  0  0
 21 22  2  0  0  0  0
 22 23  1  0  0  0  0
 23 24  2  0  0  0  0
 23  1  1  0  0  0  0
 26 20  1  0  0  0  0
 27 29  1  0  0  0  0
 27 21  1  0  0  0  0
 28 27  1  0  0  0  0
 28 29  1  0  0  0  0
 28 31  1  0  0  0  0
 29 33  1  0  0  0  0
 30 27  1  0  0  0  0
 32 28  1  0  0  0  0
 34 29  1  0  0  0  0
M  END
>  <minimizedAffinity>
-5.53274155

$$$$

 OpenBabel03252505203D

 34 37  0  0  0  0  0  0  0  0999 V2000
   38.4500   28.7140   41.9810 C   0  0  0  0  0  0  0  0  0  0  0  0
   37.8120   28.9470   43.1700 C   0  0  0  0  0  0  0  0  0  0  0  0
   36.9440   28.0060   43.6800 C   0  0  0  0  0  0  0  0  0  0  0  0
   36.7510   26.8510   42.9560 C   0  0  0  0  0  0  0  0  0  0  0  0
   37.4080   26.6440   41.7570 C   0  0  0  0  0  0  0  0  0  0  0  0
   38.2620   27.5930   41.2810 N   0  0  0  0  0  0  0  0  0  0  0  0
   37.9660   29.8540   43.7350 H   0  0  0  0  0  0  0  0  0  0  0  0
   36.4160   28.1470   44.6220 H   0  0  0  0  0  0  0  0  0  0  0  0
   36.1010   26.1290   43.3590 H   0  0  0  0  0  0  0  0  0  0  0  0
   36.0640   26.6940   38.9030 Cl  0  0  0  0  0  0  0  0  0  0  0  0
   36.7660   25.3040   39.6820 C   0  0  0  0  0  0  0  0  0  0  0  0
   37.3090   25.4640   40.9150 C   0  0  0  0  0  0  0  0  0  0  0  0
   37.8610   24.2640   41.3710 C   0  0  0  0  0  0  0  0  0  0  0  0
   38.3510   24.1860   42.3540 H   0  0  0  0  0  0  0  0  0  0  0  0
   37.8610   23.0850   40.6810 C   0  0  0  0  0  0  0  0  0  0  0  0
   38.3000   22.1850   41.0800 H   0  0  0  0  0  0  0  0  0  0  0  0
   37.2910   23.0150   39.4490 C   0  0  0  0  0  3  0  0  0  0  0  0
   36.7350   24.1530   38.9450 C   0  0  0  0  0  3  0  0  0  0  0  0
   41.4960   30.5950   41.1260 C   0  0  0  0  0  0  0  0  0  0  0  0
   41.0220   31.7020   40.4250 C   0  0  0  0  0  0  0  0  0  0  0  0
   39.6590   31.7740   40.2530 C   0  0  0  0  0  0  0  0  0  0  0  0
   38.8320   30.7930   40.7560 N   0  0  0  0  0  0  0  0  0  0  0  0
   39.3550   29.7240   41.4410 C   0  0  0  0  0  0  0  0  0  0  0  0
   40.6820   29.6350   41.6190 N   0  0  0  0  0  0  0  0  0  0  0  0
   42.5690   30.4740   41.2980 H   0  0  0  0  0  0  0  0  0  0  0  0
   41.6740   32.4550   40.0410 H   0  0  0  0  0  0  0  0  0  0  0  0
   39.0250   32.9370   39.5400 C   0  0  0  0  0  0  0  0  0  0  0  0
   37.5170   33.0200   39.7850 C   0  0  0  0  0  0  0  0  0  0  0  0
   38.5580   34.0630   40.3080 C   0  0  0  0  0  0  0  0  0  0  0  0
   39.2630   33.0350   38.4430 H   0  0  0  0  0  0  0  0  0  0  0  0
   37.0650   32.3610   40.5350 H   0  0  0  0  0  0  0  0  0  0  0  0
   36.8710   33.4260   38.9840 H   0  0  0  0  0  0  0  0  0  0  0  0
   38.6120   34.1060   41.3980 H   0  0  0  0  0  0  0  0  0  0  0  0
   38.5610   35.0520   39.8080 H   0  0  0  0  0  0  0  0  0  0  0  0
  1  2  1  0  0  0  0
  2  3  2  0  0  0  0
  2  7  1  0  0  0  0
  3  8  1  0  0  0  0
  4  9  1  0  0  0  0
  4  3  1  0  0  0  0
  5  4  2  0  0  0  0
  6  5  1  0  0  0  0
  6  1  2  0  0  0  0
 10 11  1  0  0  0  0
 11 12  1  0  0  0  0
 12 13  2  0  0  0  0
 12  5  1  0  0  0  0
 13 14  1  0  0  0  0
 15 16  1  0  0  0  0
 15 13  1  0  0  0  0
 17 15  2  0  0  0  0
 18 17  1  0  0  0  0
 18 11  2  0  0  0  0
 19 25  1  0  0  0  0
 19 24  1  0  0  0  0
 20 19  2  0  0  0  0
 21 20  1  0  0  0  0
 21 22  2  0  0  0  0
 22 23  1  0  0  0  0
 23 24  2  0  0  0  0
 23  1  1  0  0  0  0
 26 20  1  0  0  0  0
 27 28  1  0  0  0  0
 27 21  1  0  0  0  0
 27 29  1  0  0  0  0
 28 29  1  0  0  0  0
 28 31  1  0  0  0  0
 29 33  1  0  0  0  0
 30 27  1  0  0  0  0
 32 28  1  0  0  0  0
 34 29  1  0  0  0  0
M  END
>  <minimizedAffinity>
-5.50841951

$$$$
