
 OpenBabel03242515063D

 39 41  0  0  0  0  0  0  0  0999 V2000
   39.7660   31.1860   41.4940 C   0  0  0  0  0  0  0  0  0  0  0  0
   38.7810   30.3750   40.9460 C   0  0  0  0  0  0  0  0  0  0  0  0
   37.7610   30.9250   40.1910 C   0  0  0  0  0  0  0  0  0  0  0  0
   37.7900   32.2690   40.0340 N   0  0  0  0  0  0  0  0  0  0  0  0
   38.7530   33.0670   40.5700 C   0  0  0  0  0  0  0  0  0  0  0  0
   39.7060   32.4990   41.2810 N   0  0  0  0  0  0  0  0  0  0  0  0
   38.8170   29.3510   41.1170 H   0  0  0  0  0  0  0  0  0  0  0  0
   37.5200   30.5940   37.0640 Cl  0  0  0  0  0  0  0  0  0  0  0  0
   36.4050   30.0090   38.2400 C   0  0  0  0  0  0  0  0  0  0  0  0
   36.6560   30.2400   39.5630 C   0  0  0  0  0  0  0  0  0  0  0  0
   35.6710   29.7380   40.3920 C   0  0  0  0  0  0  0  0  0  0  0  0
   35.6790   29.8160   41.4770 H   0  0  0  0  0  0  0  0  0  0  0  0
   34.5570   29.0740   39.9310 C   0  0  0  0  0  0  0  0  0  0  0  0
   33.7930   28.6840   40.5860 H   0  0  0  0  0  0  0  0  0  0  0  0
   34.3510   28.8660   38.5880 C   0  0  0  0  0  3  0  0  0  0  0  0
   35.3100   29.3530   37.7290 C   0  0  0  0  0  3  0  0  0  0  0  0
   38.6460   34.4910   40.3080 C   0  0  0  0  0  0  0  0  0  0  0  0
   39.4250   35.2460   40.9330 O   0  0  0  0  0  0  0  0  0  0  0  0
   37.6630   34.9330   39.3600 N   0  0  0  0  0  0  0  0  0  0  0  0
   37.5730   35.1640   38.3370 H   0  0  0  0  0  0  0  0  0  0  0  0
   36.6760   35.1230   39.6580 H   0  0  0  0  0  0  0  0  0  0  0  0
   41.0380   30.3750   42.4520 S   0  0  0  0  0  0  0  0  0  0  0  0
   41.0490   28.5860   42.2120 C   0  0  0  0  0  0  0  0  0  0  0  0
   42.1030   28.2380   42.1580 H   0  0  0  0  0  0  0  0  0  0  0  0
   40.6120   28.3750   41.1960 H   0  0  0  0  0  0  0  0  0  0  0  0
   40.3500   27.8280   43.2820 C   0  0  0  0  0  0  0  0  0  0  0  0
   41.0550   27.3070   43.9920 H   0  0  0  0  0  0  0  0  0  0  0  0
   39.7990   28.5670   43.9150 H   0  0  0  0  0  0  0  0  0  0  0  0
   37.4350   28.5250   43.7420 Cl  0  0  0  0  0  0  0  0  0  0  0  0
   37.9730   27.1270   42.8820 C   0  0  0  0  0  0  0  0  0  0  0  0
   39.3380   26.9050   42.7310 C   0  0  0  0  0  0  0  0  0  0  0  0
   39.6920   25.7650   42.0320 C   0  0  0  0  0  0  0  0  0  0  0  0
   38.8340   24.8270   41.4700 C   0  0  0  0  0  0  0  0  0  0  0  0
   37.4980   25.0830   41.6430 C   0  0  0  0  0  0  0  0  0  0  0  0
   36.3110   23.9550   40.9710 Cl  0  0  0  0  0  0  0  0  0  0  0  0
   37.0780   26.2000   42.3270 C   0  0  0  0  0  0  0  0  0  0  0  0
   40.7700   25.6170   41.9290 H   0  0  0  0  0  0  0  0  0  0  0  0
   39.2260   23.9760   40.9480 H   0  0  0  0  0  0  0  0  0  0  0  0
   36.0040   26.3710   42.4450 H   0  0  0  0  0  0  0  0  0  0  0  0
  1 22  1  0  0  0  0
  2  7  1  0  0  0  0
  2  1  2  0  0  0  0
  3  2  1  0  0  0  0
  4  3  2  0  0  0  0
  4  5  1  0  0  0  0
  5  6  2  0  0  0  0
  6  1  1  0  0  0  0
  8  9  1  0  0  0  0
  9 10  1  0  0  0  0
 10  3  1  0  0  0  0
 10 11  2  0  0  0  0
 11 12  1  0  0  0  0
 13 11  1  0  0  0  0
 13 14  1  0  0  0  0
 15 13  2  0  0  0  0
 16  9  2  0  0  0  0
 16 15  1  0  0  0  0
 17  5  1  0  0  0  0
 17 18  2  0  0  0  0
 19 21  1  0  0  0  0
 19 17  1  0  0  0  0
 20 19  1  0  0  0  0
 23 22  1  0  0  0  0
 23 26  1  0  0  0  0
 24 23  1  0  0  0  0
 25 23  1  0  0  0  0
 26 28  1  0  0  0  0
 26 27  1  0  0  0  0
 30 29  1  0  0  0  0
 31 30  1  0  0  0  0
 31 26  1  0  0  0  0
 32 31  2  0  0  0  0
 33 34  2  0  0  0  0
 33 32  1  0  0  0  0
 34 36  1  0  0  0  0
 35 34  1  0  0  0  0
 36 39  1  0  0  0  0
 36 30  2  0  0  0  0
 37 32  1  0  0  0  0
 38 33  1  0  0  0  0
M  END
>  <minimizedAffinity>
-6.57133532

$$$$

 OpenBabel03242515063D

 39 41  0  0  0  0  0  0  0  0999 V2000
   40.1290   31.2190   41.6380 C   0  0  0  0  0  0  0  0  0  0  0  0
   41.4320   31.6990   41.6060 C   0  0  0  0  0  0  0  0  0  0  0  0
   41.7020   32.9590   41.1050 C   0  0  0  0  0  0  0  0  0  0  0  0
   40.6370   33.6670   40.6600 N   0  0  0  0  0  0  0  0  0  0  0  0
   39.3590   33.2010   40.6890 C   0  0  0  0  0  0  0  0  0  0  0  0
   39.1500   31.9940   41.1760 N   0  0  0  0  0  0  0  0  0  0  0  0
   42.2010   31.0950   41.9560 H   0  0  0  0  0  0  0  0  0  0  0  0
   43.6340   32.4600   38.6630 Cl  0  0  0  0  0  0  0  0  0  0  0  0
   43.9310   33.5060   40.0000 C   0  0  0  0  0  0  0  0  0  0  0  0
   42.9860   33.6070   40.9820 C   0  0  0  0  0  0  0  0  0  0  0  0
   43.3630   34.4600   42.0020 C   0  0  0  0  0  0  0  0  0  0  0  0
   42.7560   34.6790   42.8780 H   0  0  0  0  0  0  0  0  0  0  0  0
   44.5620   35.1350   42.0240 C   0  0  0  0  0  0  0  0  0  0  0  0
   44.8480   35.7990   42.8240 H   0  0  0  0  0  0  0  0  0  0  0  0
   45.4780   34.9980   41.0090 C   0  0  0  0  0  3  0  0  0  0  0  0
   45.1410   34.1560   39.9730 C   0  0  0  0  0  3  0  0  0  0  0  0
   38.3270   34.0830   40.1770 C   0  0  0  0  0  0  0  0  0  0  0  0
   38.6330   35.2860   40.0150 O   0  0  0  0  0  0  0  0  0  0  0  0
   37.0360   33.5210   39.8940 N   0  0  0  0  0  0  0  0  0  0  0  0
   36.4930   33.1080   39.0920 H   0  0  0  0  0  0  0  0  0  0  0  0
   36.3080   33.4420   40.6420 H   0  0  0  0  0  0  0  0  0  0  0  0
   39.8900   29.5780   42.3040 S   0  0  0  0  0  0  0  0  0  0  0  0
   38.1640   29.2380   42.7050 C   0  0  0  0  0  0  0  0  0  0  0  0
   37.6100   29.0370   41.7630 H   0  0  0  0  0  0  0  0  0  0  0  0
   37.7160   30.1850   43.1190 H   0  0  0  0  0  0  0  0  0  0  0  0
   37.9730   28.0880   43.6260 C   0  0  0  0  0  0  0  0  0  0  0  0
   38.6450   28.1240   44.5310 H   0  0  0  0  0  0  0  0  0  0  0  0
   36.9350   28.1530   44.0370 H   0  0  0  0  0  0  0  0  0  0  0  0
   40.4470   26.4080   44.1270 Cl  0  0  0  0  0  0  0  0  0  0  0  0
   39.1570   25.9440   43.0750 C   0  0  0  0  0  0  0  0  0  0  0  0
   38.0680   26.7950   42.9190 C   0  0  0  0  0  0  0  0  0  0  0  0
   37.0760   26.3570   42.0590 C   0  0  0  0  0  0  0  0  0  0  0  0
   37.0540   25.1670   41.3430 C   0  0  0  0  0  0  0  0  0  0  0  0
   38.1460   24.3590   41.5240 C   0  0  0  0  0  0  0  0  0  0  0  0
   38.2290   22.8160   40.6600 Cl  0  0  0  0  0  0  0  0  0  0  0  0
   39.1680   24.7340   42.3650 C   0  0  0  0  0  0  0  0  0  0  0  0
   36.2320   27.0460   41.9580 H   0  0  0  0  0  0  0  0  0  0  0  0
   36.2260   24.9340   40.7030 H   0  0  0  0  0  0  0  0  0  0  0  0
   40.0240   24.0630   42.4850 H   0  0  0  0  0  0  0  0  0  0  0  0
  1 22  1  0  0  0  0
  2  1  1  0  0  0  0
  2  7  1  0  0  0  0
  3  2  2  0  0  0  0
  4  5  2  0  0  0  0
  4  3  1  0  0  0  0
  5  6  1  0  0  0  0
  6  1  2  0  0  0  0
  8  9  1  0  0  0  0
  9 10  1  0  0  0  0
 10  3  1  0  0  0  0
 10 11  2  0  0  0  0
 11 13  1  0  0  0  0
 11 12  1  0  0  0  0
 13 14  1  0  0  0  0
 15 13  2  0  0  0  0
 16  9  2  0  0  0  0
 16 15  1  0  0  0  0
 17  5  1  0  0  0  0
 18 17  2  0  0  0  0
 19 17  1  0  0  0  0
 19 21  1  0  0  0  0
 20 19  1  0  0  0  0
 22 23  1  0  0  0  0
 23 25  1  0  0  0  0
 23 26  1  0  0  0  0
 24 23  1  0  0  0  0
 26 28  1  0  0  0  0
 26 27  1  0  0  0  0
 30 29  1  0  0  0  0
 31 30  1  0  0  0  0
 31 26  1  0  0  0  0
 32 31  2  0  0  0  0
 33 34  2  0  0  0  0
 33 32  1  0  0  0  0
 34 36  1  0  0  0  0
 35 34  1  0  0  0  0
 36 39  1  0  0  0  0
 36 30  2  0  0  0  0
 37 32  1  0  0  0  0
 38 33  1  0  0  0  0
M  END
>  <minimizedAffinity>
-6.56293392

$$$$

 OpenBabel03242515063D

 39 41  0  0  0  0  0  0  0  0999 V2000
   37.7530   30.5210   40.6190 C   0  0  0  0  0  0  0  0  0  0  0  0
   38.7760   31.3690   41.0250 C   0  0  0  0  0  0  0  0  0  0  0  0
   39.4350   32.1620   40.1030 C   0  0  0  0  0  0  0  0  0  0  0  0
   39.0260   32.0530   38.8180 N   0  0  0  0  0  0  0  0  0  0  0  0
   38.0240   31.2240   38.4160 C   0  0  0  0  0  0  0  0  0  0  0  0
   37.4240   30.4870   39.3290 N   0  0  0  0  0  0  0  0  0  0  0  0
   39.0440   31.3920   42.0280 H   0  0  0  0  0  0  0  0  0  0  0  0
   39.0230   35.2860   40.2260 Cl  0  0  0  0  0  0  0  0  0  0  0  0
   40.5130   34.4450   40.4300 C   0  0  0  0  0  0  0  0  0  0  0  0
   40.5210   33.0820   40.3440 C   0  0  0  0  0  0  0  0  0  0  0  0
   41.7830   32.5420   40.5040 C   0  0  0  0  0  0  0  0  0  0  0  0
   42.0070   31.4780   40.4700 H   0  0  0  0  0  0  0  0  0  0  0  0
   42.9110   33.2990   40.7270 C   0  0  0  0  0  0  0  0  0  0  0  0
   43.8920   32.8690   40.8510 H   0  0  0  0  0  0  0  0  0  0  0  0
   42.8480   34.6700   40.8060 C   0  0  0  0  0  3  0  0  0  0  0  0
   41.6080   35.2470   40.6510 C   0  0  0  0  0  3  0  0  0  0  0  0
   37.7010   31.2240   37.0010 C   0  0  0  0  0  0  0  0  0  0  0  0
   37.0650   30.2390   36.5610 O   0  0  0  0  0  0  0  0  0  0  0  0
   38.1270   32.3430   36.2090 N   0  0  0  0  0  0  0  0  0  0  0  0
   37.7700   33.2700   35.8620 H   0  0  0  0  0  0  0  0  0  0  0  0
   39.0820   32.3650   35.7800 H   0  0  0  0  0  0  0  0  0  0  0  0
   36.9680   29.5390   41.8880 S   0  0  0  0  0  0  0  0  0  0  0  0
   38.1410   28.9370   43.1210 C   0  0  0  0  0  0  0  0  0  0  0  0
   38.3370   29.7480   43.8550 H   0  0  0  0  0  0  0  0  0  0  0  0
   39.1240   28.7610   42.6010 H   0  0  0  0  0  0  0  0  0  0  0  0
   37.6800   27.7300   43.8550 C   0  0  0  0  0  0  0  0  0  0  0  0
   38.1040   27.6530   44.8970 H   0  0  0  0  0  0  0  0  0  0  0  0
   36.5750   27.8240   44.0010 H   0  0  0  0  0  0  0  0  0  0  0  0
   40.4460   26.4930   43.9650 Cl  0  0  0  0  0  0  0  0  0  0  0  0
   39.1290   25.8430   43.0550 C   0  0  0  0  0  0  0  0  0  0  0  0
   37.9010   26.4950   43.0760 C   0  0  0  0  0  0  0  0  0  0  0  0
   36.8950   25.9170   42.3230 C   0  0  0  0  0  0  0  0  0  0  0  0
   36.9840   24.7630   41.5540 C   0  0  0  0  0  0  0  0  0  0  0  0
   38.2110   24.1510   41.5600 C   0  0  0  0  0  0  0  0  0  0  0  0
   38.4420   22.6730   40.6140 Cl  0  0  0  0  0  0  0  0  0  0  0  0
   39.2540   24.6740   42.2890 C   0  0  0  0  0  0  0  0  0  0  0  0
   35.9410   26.4500   42.3590 H   0  0  0  0  0  0  0  0  0  0  0  0
   36.1320   24.4070   41.0080 H   0  0  0  0  0  0  0  0  0  0  0  0
   40.2190   24.1600   42.2690 H   0  0  0  0  0  0  0  0  0  0  0  0
  1  2  1  0  0  0  0
  1 22  1  0  0  0  0
  2  7  1  0  0  0  0
  3 10  1  0  0  0  0
  3  2  2  0  0  0  0
  4  3  1  0  0  0  0
  5  4  2  0  0  0  0
  5  6  1  0  0  0  0
  6  1  2  0  0  0  0
  8  9  1  0  0  0  0
  9 16  1  0  0  0  0
 10  9  2  0  0  0  0
 10 11  1  0  0  0  0
 11 13  2  0  0  0  0
 12 11  1  0  0  0  0
 13 15  1  0  0  0  0
 13 14  1  0  0  0  0
 16 15  2  0  0  0  0
 17  5  1  0  0  0  0
 18 17  2  0  0  0  0
 19 17  1  0  0  0  0
 20 19  1  0  0  0  0
 21 19  1  0  0  0  0
 22 23  1  0  0  0  0
 23 26  1  0  0  0  0
 23 24  1  0  0  0  0
 25 23  1  0  0  0  0
 26 28  1  0  0  0  0
 26 27  1  0  0  0  0
 30 31  1  0  0  0  0
 30 29  1  0  0  0  0
 31 26  1  0  0  0  0
 32 37  1  0  0  0  0
 32 31  2  0  0  0  0
 33 34  2  0  0  0  0
 33 32  1  0  0  0  0
 34 36  1  0  0  0  0
 35 34  1  0  0  0  0
 36 30  2  0  0  0  0
 38 33  1  0  0  0  0
 39 36  1  0  0  0  0
M  END
>  <minimizedAffinity>
-6.56234837

$$$$

 OpenBabel03242515063D

 39 41  0  0  0  0  0  0  0  0999 V2000
   40.2350   31.2490   39.7400 C   0  0  0  0  0  0  0  0  0  0  0  0
   39.1720   30.4200   39.4060 C   0  0  0  0  0  0  0  0  0  0  0  0
   37.8880   30.9280   39.3200 C   0  0  0  0  0  0  0  0  0  0  0  0
   37.7480   32.2490   39.5780 N   0  0  0  0  0  0  0  0  0  0  0  0
   38.7870   33.0650   39.9050 C   0  0  0  0  0  0  0  0  0  0  0  0
   39.9920   32.5370   39.9760 N   0  0  0  0  0  0  0  0  0  0  0  0
   39.3530   29.4120   39.2310 H   0  0  0  0  0  0  0  0  0  0  0  0
   37.0280   30.2670   36.3580 Cl  0  0  0  0  0  0  0  0  0  0  0  0
   36.1620   29.8490   37.7890 C   0  0  0  0  0  0  0  0  0  0  0  0
   36.6730   30.2150   39.0020 C   0  0  0  0  0  0  0  0  0  0  0  0
   35.8680   29.8380   40.0590 C   0  0  0  0  0  0  0  0  0  0  0  0
   36.0920   30.0330   41.1060 H   0  0  0  0  0  0  0  0  0  0  0  0
   34.6770   29.1640   39.9040 C   0  0  0  0  0  0  0  0  0  0  0  0
   34.0550   28.8730   40.7360 H   0  0  0  0  0  0  0  0  0  0  0  0
   34.2080   28.8190   38.6600 C   0  0  0  0  0  3  0  0  0  0  0  0
   34.9820   29.1780   37.5800 C   0  0  0  0  0  3  0  0  0  0  0  0
   38.4740   34.4600   40.1500 C   0  0  0  0  0  0  0  0  0  0  0  0
   39.0770   35.0240   41.0910 O   0  0  0  0  0  0  0  0  0  0  0  0
   37.5020   35.0950   39.3050 N   0  0  0  0  0  0  0  0  0  0  0  0
   37.4490   35.6720   38.4260 H   0  0  0  0  0  0  0  0  0  0  0  0
   36.4800   35.0400   39.5260 H   0  0  0  0  0  0  0  0  0  0  0  0
   41.8510   30.4920   39.8270 S   0  0  0  0  0  0  0  0  0  0  0  0
   41.9020   29.0990   40.9730 C   0  0  0  0  0  0  0  0  0  0  0  0
   42.9190   28.6510   40.9490 H   0  0  0  0  0  0  0  0  0  0  0  0
   41.2150   28.3010   40.5720 H   0  0  0  0  0  0  0  0  0  0  0  0
   41.5710   29.4590   42.3760 C   0  0  0  0  0  0  0  0  0  0  0  0
   42.3900   29.1990   43.1070 H   0  0  0  0  0  0  0  0  0  0  0  0
   41.4820   30.5720   42.4280 H   0  0  0  0  0  0  0  0  0  0  0  0
   41.5270   26.6090   43.4120 Cl  0  0  0  0  0  0  0  0  0  0  0  0
   40.1280   27.6150   43.2820 C   0  0  0  0  0  0  0  0  0  0  0  0
   40.2650   28.9090   42.7920 C   0  0  0  0  0  0  0  0  0  0  0  0
   39.1010   29.6540   42.7150 C   0  0  0  0  0  0  0  0  0  0  0  0
   37.8230   29.2470   43.0750 C   0  0  0  0  0  0  0  0  0  0  0  0
   37.7310   27.9650   43.5530 C   0  0  0  0  0  0  0  0  0  0  0  0
   36.1500   27.3370   44.0410 Cl  0  0  0  0  0  0  0  0  0  0  0  0
   38.8500   27.1710   43.6550 C   0  0  0  0  0  0  0  0  0  0  0  0
   39.2390   30.6660   42.3270 H   0  0  0  0  0  0  0  0  0  0  0  0
   36.9900   29.9150   42.9710 H   0  0  0  0  0  0  0  0  0  0  0  0
   38.7400   26.1530   44.0400 H   0  0  0  0  0  0  0  0  0  0  0  0
  1 22  1  0  0  0  0
  1  6  1  0  0  0  0
  2  1  2  0  0  0  0
  3  2  1  0  0  0  0
  3  4  2  0  0  0  0
  4  5  1  0  0  0  0
  5  6  2  0  0  0  0
  5 17  1  0  0  0  0
  7  2  1  0  0  0  0
  8  9  1  0  0  0  0
  9 10  1  0  0  0  0
 10  3  1  0  0  0  0
 10 11  2  0  0  0  0
 11 12  1  0  0  0  0
 13 11  1  0  0  0  0
 13 14  1  0  0  0  0
 15 13  2  0  0  0  0
 16  9  2  0  0  0  0
 16 15  1  0  0  0  0
 17 18  2  0  0  0  0
 19 21  1  0  0  0  0
 19 17  1  0  0  0  0
 20 19  1  0  0  0  0
 22 23  1  0  0  0  0
 23 26  1  0  0  0  0
 24 23  1  0  0  0  0
 25 23  1  0  0  0  0
 26 28  1  0  0  0  0
 26 31  1  0  0  0  0
 26 27  1  0  0  0  0
 30 29  1  0  0  0  0
 30 36  1  0  0  0  0
 31 30  2  0  0  0  0
 32 31  1  0  0  0  0
 32 33  2  0  0  0  0
 33 34  1  0  0  0  0
 34 36  2  0  0  0  0
 34 35  1  0  0  0  0
 36 39  1  0  0  0  0
 37 32  1  0  0  0  0
 38 33  1  0  0  0  0
M  END
>  <minimizedAffinity>
-6.43531132

$$$$

 OpenBabel03242515063D

 39 41  0  0  0  0  0  0  0  0999 V2000
   38.6650   30.0260   40.7990 C   0  0  0  0  0  0  0  0  0  0  0  0
   37.8930   29.4460   39.8000 C   0  0  0  0  0  0  0  0  0  0  0  0
   37.1340   30.2360   38.9540 C   0  0  0  0  0  0  0  0  0  0  0  0
   37.1970   31.5710   39.1660 N   0  0  0  0  0  0  0  0  0  0  0  0
   37.9510   32.1430   40.1430 C   0  0  0  0  0  0  0  0  0  0  0  0
   38.6580   31.3510   40.9250 N   0  0  0  0  0  0  0  0  0  0  0  0
   37.8860   28.4120   39.7030 H   0  0  0  0  0  0  0  0  0  0  0  0
   34.2360   29.0970   39.4550 Cl  0  0  0  0  0  0  0  0  0  0  0  0
   35.0020   29.2990   37.9240 C   0  0  0  0  0  0  0  0  0  0  0  0
   36.2700   29.8060   37.8810 C   0  0  0  0  0  0  0  0  0  0  0  0
   36.7690   29.8920   36.5950 C   0  0  0  0  0  0  0  0  0  0  0  0
   37.7580   30.2680   36.3410 H   0  0  0  0  0  0  0  0  0  0  0  0
   36.0620   29.5080   35.4780 C   0  0  0  0  0  0  0  0  0  0  0  0
   36.4590   29.5800   34.4790 H   0  0  0  0  0  0  0  0  0  0  0  0
   34.7870   29.0040   35.5770 C   0  0  0  0  0  3  0  0  0  0  0  0
   34.2540   28.9020   36.8420 C   0  0  0  0  0  3  0  0  0  0  0  0
   37.9130   33.5900   40.2390 C   0  0  0  0  0  0  0  0  0  0  0  0
   37.1450   34.1940   39.4560 O   0  0  0  0  0  0  0  0  0  0  0  0
   38.7510   34.2260   41.2160 N   0  0  0  0  0  0  0  0  0  0  0  0
   38.7130   34.5780   42.2070 H   0  0  0  0  0  0  0  0  0  0  0  0
   39.7440   34.4730   40.9940 H   0  0  0  0  0  0  0  0  0  0  0  0
   39.6050   28.9170   41.8370 S   0  0  0  0  0  0  0  0  0  0  0  0
   38.6420   28.2880   43.2280 C   0  0  0  0  0  0  0  0  0  0  0  0
   37.5740   28.2250   42.9250 H   0  0  0  0  0  0  0  0  0  0  0  0
   38.6750   29.0630   44.0450 H   0  0  0  0  0  0  0  0  0  0  0  0
   39.0800   26.9540   43.7130 C   0  0  0  0  0  0  0  0  0  0  0  0
   40.1830   26.9030   43.9420 H   0  0  0  0  0  0  0  0  0  0  0  0
   38.5740   26.7680   44.6920 H   0  0  0  0  0  0  0  0  0  0  0  0
   41.1920   24.9600   42.8430 Cl  0  0  0  0  0  0  0  0  0  0  0  0
   39.5390   24.9020   42.3430 C   0  0  0  0  0  0  0  0  0  0  0  0
   38.6550   25.8710   42.8030 C   0  0  0  0  0  0  0  0  0  0  0  0
   37.3500   25.7600   42.3590 C   0  0  0  0  0  0  0  0  0  0  0  0
   36.8350   24.7900   41.5080 C   0  0  0  0  0  0  0  0  0  0  0  0
   37.7400   23.8550   41.0760 C   0  0  0  0  0  0  0  0  0  0  0  0
   37.1970   22.5700   39.9850 Cl  0  0  0  0  0  0  0  0  0  0  0  0
   39.0540   23.9070   41.4800 C   0  0  0  0  0  0  0  0  0  0  0  0
   36.6770   26.5350   42.7380 H   0  0  0  0  0  0  0  0  0  0  0  0
   35.8000   24.8050   41.2290 H   0  0  0  0  0  0  0  0  0  0  0  0
   39.7470   23.1440   41.1150 H   0  0  0  0  0  0  0  0  0  0  0  0
  1  6  1  0  0  0  0
  1 22  1  0  0  0  0
  2  1  2  0  0  0  0
  3  4  2  0  0  0  0
  3  2  1  0  0  0  0
  4  5  1  0  0  0  0
  5 17  1  0  0  0  0
  5  6  2  0  0  0  0
  7  2  1  0  0  0  0
  9  8  1  0  0  0  0
 10  9  1  0  0  0  0
 10  3  1  0  0  0  0
 11 10  2  0  0  0  0
 12 11  1  0  0  0  0
 13 15  2  0  0  0  0
 13 11  1  0  0  0  0
 14 13  1  0  0  0  0
 15 16  1  0  0  0  0
 16  9  2  0  0  0  0
 17 19  1  0  0  0  0
 18 17  2  0  0  0  0
 19 20  1  0  0  0  0
 21 19  1  0  0  0  0
 22 23  1  0  0  0  0
 23 26  1  0  0  0  0
 23 25  1  0  0  0  0
 24 23  1  0  0  0  0
 26 27  1  0  0  0  0
 26 28  1  0  0  0  0
 30 31  1  0  0  0  0
 30 29  1  0  0  0  0
 31 26  1  0  0  0  0
 32 37  1  0  0  0  0
 32 31  2  0  0  0  0
 33 32  1  0  0  0  0
 34 36  1  0  0  0  0
 34 33  2  0  0  0  0
 35 34  1  0  0  0  0
 36 30  2  0  0  0  0
 38 33  1  0  0  0  0
 39 36  1  0  0  0  0
M  END
>  <minimizedAffinity>
-6.40755653

$$$$

 OpenBabel03242515063D

 39 41  0  0  0  0  0  0  0  0999 V2000
   39.7260   30.3380   39.0610 C   0  0  0  0  0  0  0  0  0  0  0  0
   38.6630   29.6370   38.5070 C   0  0  0  0  0  0  0  0  0  0  0  0
   37.4040   30.2070   38.4440 C   0  0  0  0  0  0  0  0  0  0  0  0
   37.2880   31.4580   38.9480 N   0  0  0  0  0  0  0  0  0  0  0  0
   38.3270   32.1480   39.4920 C   0  0  0  0  0  0  0  0  0  0  0  0
   39.5080   31.5650   39.5300 N   0  0  0  0  0  0  0  0  0  0  0  0
   38.8250   28.6750   38.1480 H   0  0  0  0  0  0  0  0  0  0  0  0
   35.1050   29.1050   40.2990 Cl  0  0  0  0  0  0  0  0  0  0  0  0
   35.1110   29.1080   38.5760 C   0  0  0  0  0  0  0  0  0  0  0  0
   36.1930   29.6230   37.9190 C   0  0  0  0  0  0  0  0  0  0  0  0
   36.0750   29.5410   36.5450 C   0  0  0  0  0  0  0  0  0  0  0  0
   36.8250   29.8930   35.8400 H   0  0  0  0  0  0  0  0  0  0  0  0
   34.9820   28.9990   35.9070 C   0  0  0  0  0  0  0  0  0  0  0  0
   34.8990   28.9390   34.8340 H   0  0  0  0  0  0  0  0  0  0  0  0
   33.9180   28.4940   36.6160 C   0  0  0  0  0  3  0  0  0  0  0  0
   33.9980   28.5560   37.9890 C   0  0  0  0  0  3  0  0  0  0  0  0
   38.0410   33.4820   39.9880 C   0  0  0  0  0  0  0  0  0  0  0  0
   38.7690   33.9170   40.9080 O   0  0  0  0  0  0  0  0  0  0  0  0
   36.9520   34.2050   39.3940 N   0  0  0  0  0  0  0  0  0  0  0  0
   36.7670   34.9050   38.6300 H   0  0  0  0  0  0  0  0  0  0  0  0
   35.9720   34.0880   39.7480 H   0  0  0  0  0  0  0  0  0  0  0  0
   41.3090   29.5090   39.0950 S   0  0  0  0  0  0  0  0  0  0  0  0
   41.3490   28.1430   40.2720 C   0  0  0  0  0  0  0  0  0  0  0  0
   42.2220   27.4940   40.0400 H   0  0  0  0  0  0  0  0  0  0  0  0
   40.4420   27.5010   40.0830 H   0  0  0  0  0  0  0  0  0  0  0  0
   41.4350   28.5700   41.6920 C   0  0  0  0  0  0  0  0  0  0  0  0
   42.3210   28.1320   42.2370 H   0  0  0  0  0  0  0  0  0  0  0  0
   41.6100   29.6750   41.7030 H   0  0  0  0  0  0  0  0  0  0  0  0
   41.1110   25.9000   43.0920 Cl  0  0  0  0  0  0  0  0  0  0  0  0
   39.9150   27.1470   43.0940 C   0  0  0  0  0  0  0  0  0  0  0  0
   40.1700   28.3350   42.4160 C   0  0  0  0  0  0  0  0  0  0  0  0
   39.1650   29.2850   42.4610 C   0  0  0  0  0  0  0  0  0  0  0  0
   37.9400   29.1770   43.1060 C   0  0  0  0  0  0  0  0  0  0  0  0
   37.7280   27.9920   43.7600 C   0  0  0  0  0  0  0  0  0  0  0  0
   36.1990   27.7410   44.6170 Cl  0  0  0  0  0  0  0  0  0  0  0  0
   38.6860   27.0040   43.7560 C   0  0  0  0  0  0  0  0  0  0  0  0
   39.3940   30.2080   41.9200 H   0  0  0  0  0  0  0  0  0  0  0  0
   37.2350   29.9850   43.0710 H   0  0  0  0  0  0  0  0  0  0  0  0
   38.4820   26.0710   44.2890 H   0  0  0  0  0  0  0  0  0  0  0  0
  1 22  1  0  0  0  0
  1  6  1  0  0  0  0
  2  1  2  0  0  0  0
  3  2  1  0  0  0  0
  3  4  2  0  0  0  0
  4  5  1  0  0  0  0
  5  6  2  0  0  0  0
  5 17  1  0  0  0  0
  7  2  1  0  0  0  0
  9  8  1  0  0  0  0
 10  3  1  0  0  0  0
 10  9  2  0  0  0  0
 11 10  1  0  0  0  0
 12 11  1  0  0  0  0
 13 11  2  0  0  0  0
 13 15  1  0  0  0  0
 14 13  1  0  0  0  0
 15 16  2  0  0  0  0
 16  9  1  0  0  0  0
 17 18  2  0  0  0  0
 19 21  1  0  0  0  0
 19 17  1  0  0  0  0
 20 19  1  0  0  0  0
 22 23  1  0  0  0  0
 23 26  1  0  0  0  0
 24 23  1  0  0  0  0
 25 23  1  0  0  0  0
 26 28  1  0  0  0  0
 26 27  1  0  0  0  0
 26 31  1  0  0  0  0
 29 30  1  0  0  0  0
 30 36  1  0  0  0  0
 31 32  1  0  0  0  0
 31 30  2  0  0  0  0
 32 33  2  0  0  0  0
 33 34  1  0  0  0  0
 34 35  1  0  0  0  0
 36 34  2  0  0  0  0
 36 39  1  0  0  0  0
 37 32  1  0  0  0  0
 38 33  1  0  0  0  0
M  END
>  <minimizedAffinity>
-6.21781254

$$$$

 OpenBabel03242515063D

 39 41  0  0  0  0  0  0  0  0999 V2000
   40.5200   32.0460   41.1430 C   0  0  0  0  0  0  0  0  0  0  0  0
   39.6870   30.9370   41.2250 C   0  0  0  0  0  0  0  0  0  0  0  0
   39.9860   29.8980   42.0870 C   0  0  0  0  0  0  0  0  0  0  0  0
   41.1150   30.0360   42.8210 N   0  0  0  0  0  0  0  0  0  0  0  0
   41.9340   31.1190   42.7440 C   0  0  0  0  0  0  0  0  0  0  0  0
   41.6090   32.0850   41.9080 N   0  0  0  0  0  0  0  0  0  0  0  0
   38.8410   30.8960   40.6230 H   0  0  0  0  0  0  0  0  0  0  0  0
   40.5270   27.2860   40.4050 Cl  0  0  0  0  0  0  0  0  0  0  0  0
   39.3570   27.4680   41.6570 C   0  0  0  0  0  0  0  0  0  0  0  0
   39.2470   28.6740   42.2890 C   0  0  0  0  0  0  0  0  0  0  0  0
   38.2560   28.6860   43.2530 C   0  0  0  0  0  0  0  0  0  0  0  0
   38.0060   29.5470   43.8690 H   0  0  0  0  0  0  0  0  0  0  0  0
   37.4670   27.5970   43.5440 C   0  0  0  0  0  0  0  0  0  0  0  0
   36.6960   27.6160   44.2980 H   0  0  0  0  0  0  0  0  0  0  0  0
   37.6190   26.4050   42.8780 C   0  0  0  0  0  3  0  0  0  0  0  0
   38.5950   26.3530   41.9090 C   0  0  0  0  0  3  0  0  0  0  0  0
   43.1060   31.1180   43.5990 C   0  0  0  0  0  0  0  0  0  0  0  0
   43.4100   30.0350   44.1500 O   0  0  0  0  0  0  0  0  0  0  0  0
   43.8330   32.3470   43.7550 N   0  0  0  0  0  0  0  0  0  0  0  0
   44.6540   32.8580   43.3400 H   0  0  0  0  0  0  0  0  0  0  0  0
   43.5560   33.0460   44.4840 H   0  0  0  0  0  0  0  0  0  0  0  0
   40.0430   33.3300   39.9960 S   0  0  0  0  0  0  0  0  0  0  0  0
   38.4050   33.9980   40.3490 C   0  0  0  0  0  0  0  0  0  0  0  0
   38.4680   35.1080   40.3760 H   0  0  0  0  0  0  0  0  0  0  0  0
   38.1270   33.6900   41.3960 H   0  0  0  0  0  0  0  0  0  0  0  0
   37.3660   33.6040   39.3630 C   0  0  0  0  0  0  0  0  0  0  0  0
   36.4460   34.2550   39.3990 H   0  0  0  0  0  0  0  0  0  0  0  0
   37.7910   33.7640   38.3410 H   0  0  0  0  0  0  0  0  0  0  0  0
   37.9290   31.8740   36.9370 Cl  0  0  0  0  0  0  0  0  0  0  0  0
   37.2470   31.2840   38.4100 C   0  0  0  0  0  0  0  0  0  0  0  0
   37.0300   32.1680   39.4610 C   0  0  0  0  0  0  0  0  0  0  0  0
   36.4800   31.6240   40.6080 C   0  0  0  0  0  0  0  0  0  0  0  0
   36.1260   30.2970   40.8170 C   0  0  0  0  0  0  0  0  0  0  0  0
   36.3540   29.4590   39.7560 C   0  0  0  0  0  0  0  0  0  0  0  0
   35.9400   27.7450   39.9070 Cl  0  0  0  0  0  0  0  0  0  0  0  0
   36.9000   29.9360   38.5870 C   0  0  0  0  0  0  0  0  0  0  0  0
   36.3220   32.3420   41.4170 H   0  0  0  0  0  0  0  0  0  0  0  0
   35.7040   29.9880   41.7530 H   0  0  0  0  0  0  0  0  0  0  0  0
   37.0680   29.2380   37.7620 H   0  0  0  0  0  0  0  0  0  0  0  0
  1  2  2  0  0  0  0
  1  6  1  0  0  0  0
  2  3  1  0  0  0  0
  3 10  1  0  0  0  0
  3  4  2  0  0  0  0
  5  4  1  0  0  0  0
  5 17  1  0  0  0  0
  6  5  2  0  0  0  0
  7  2  1  0  0  0  0
  8  9  1  0  0  0  0
  9 16  2  0  0  0  0
  9 10  1  0  0  0  0
 10 11  2  0  0  0  0
 11 13  1  0  0  0  0
 11 12  1  0  0  0  0
 13 14  1  0  0  0  0
 15 13  2  0  0  0  0
 16 15  1  0  0  0  0
 17 19  1  0  0  0  0
 17 18  2  0  0  0  0
 19 21  1  0  0  0  0
 20 19  1  0  0  0  0
 22 23  1  0  0  0  0
 22  1  1  0  0  0  0
 23 24  1  0  0  0  0
 23 25  1  0  0  0  0
 26 27  1  0  0  0  0
 26 31  1  0  0  0  0
 26 23  1  0  0  0  0
 28 26  1  0  0  0  0
 29 30  1  0  0  0  0
 30 36  2  0  0  0  0
 30 31  1  0  0  0  0
 31 32  2  0  0  0  0
 32 33  1  0  0  0  0
 32 37  1  0  0  0  0
 33 38  1  0  0  0  0
 34 35  1  0  0  0  0
 34 33  2  0  0  0  0
 36 34  1  0  0  0  0
 39 36  1  0  0  0  0
M  END
>  <minimizedAffinity>
-5.87593079

$$$$

 OpenBabel03242515063D

 39 41  0  0  0  0  0  0  0  0999 V2000
   35.8530   25.8090   38.3300 C   0  0  0  0  0  0  0  0  0  0  0  0
   36.3390   26.9790   38.9000 C   0  0  0  0  0  0  0  0  0  0  0  0
   35.7950   28.2040   38.5560 C   0  0  0  0  0  0  0  0  0  0  0  0
   34.7890   28.1790   37.6510 N   0  0  0  0  0  0  0  0  0  0  0  0
   34.3100   27.0360   37.0910 C   0  0  0  0  0  0  0  0  0  0  0  0
   34.8590   25.8920   37.4490 N   0  0  0  0  0  0  0  0  0  0  0  0
   37.1210   26.9220   39.5810 H   0  0  0  0  0  0  0  0  0  0  0  0
   37.2000   30.3430   36.7130 Cl  0  0  0  0  0  0  0  0  0  0  0  0
   36.7890   30.5410   38.3750 C   0  0  0  0  0  0  0  0  0  0  0  0
   36.1830   29.5100   39.0350 C   0  0  0  0  0  0  0  0  0  0  0  0
   35.9310   29.7960   40.3630 C   0  0  0  0  0  0  0  0  0  0  0  0
   35.4570   29.1110   41.0620 H   0  0  0  0  0  0  0  0  0  0  0  0
   36.2570   30.9950   40.9560 C   0  0  0  0  0  0  0  0  0  0  0  0
   36.0560   31.2100   41.9940 H   0  0  0  0  0  0  0  0  0  0  0  0
   36.8660   32.0020   40.2470 C   0  0  0  0  0  3  0  0  0  0  0  0
   37.1340   31.7550   38.9190 C   0  0  0  0  0  3  0  0  0  0  0  0
   33.2250   27.1770   36.1380 C   0  0  0  0  0  0  0  0  0  0  0  0
   33.4800   27.7710   35.0650 O   0  0  0  0  0  0  0  0  0  0  0  0
   31.9440   26.6300   36.4850 N   0  0  0  0  0  0  0  0  0  0  0  0
   31.3800   25.7500   36.3600 H   0  0  0  0  0  0  0  0  0  0  0  0
   31.2540   27.1890   37.0400 H   0  0  0  0  0  0  0  0  0  0  0  0
   36.6260   24.2820   38.8420 S   0  0  0  0  0  0  0  0  0  0  0  0
   36.2760   23.8730   40.5640 C   0  0  0  0  0  0  0  0  0  0  0  0
   35.8490   22.8470   40.6100 H   0  0  0  0  0  0  0  0  0  0  0  0
   35.4530   24.5550   40.9170 H   0  0  0  0  0  0  0  0  0  0  0  0
   37.4650   23.9350   41.4530 C   0  0  0  0  0  0  0  0  0  0  0  0
   37.3810   23.2660   42.3570 H   0  0  0  0  0  0  0  0  0  0  0  0
   38.3370   23.5350   40.8800 H   0  0  0  0  0  0  0  0  0  0  0  0
   40.1630   24.9940   40.5620 Cl  0  0  0  0  0  0  0  0  0  0  0  0
   39.0120   25.9120   41.4660 C   0  0  0  0  0  0  0  0  0  0  0  0
   37.8030   25.3240   41.8240 C   0  0  0  0  0  0  0  0  0  0  0  0
   36.9340   26.1190   42.5480 C   0  0  0  0  0  0  0  0  0  0  0  0
   37.1410   27.4320   42.9520 C   0  0  0  0  0  0  0  0  0  0  0  0
   38.3440   27.9740   42.5810 C   0  0  0  0  0  0  0  0  0  0  0  0
   38.7190   29.6410   43.0430 Cl  0  0  0  0  0  0  0  0  0  0  0  0
   39.2550   27.2370   41.8590 C   0  0  0  0  0  0  0  0  0  0  0  0
   35.9920   25.6310   42.8140 H   0  0  0  0  0  0  0  0  0  0  0  0
   36.3900   27.9520   43.5150 H   0  0  0  0  0  0  0  0  0  0  0  0
   40.2050   27.7020   41.5810 H   0  0  0  0  0  0  0  0  0  0  0  0
  1 22  1  0  0  0  0
  1  2  1  0  0  0  0
  2  7  1  0  0  0  0
  3  2  2  0  0  0  0
  3 10  1  0  0  0  0
  4  3  1  0  0  0  0
  5  6  1  0  0  0  0
  5  4  2  0  0  0  0
  6  1  2  0  0  0  0
  8  9  1  0  0  0  0
  9 16  2  0  0  0  0
  9 10  1  0  0  0  0
 10 11  2  0  0  0  0
 11 13  1  0  0  0  0
 11 12  1  0  0  0  0
 13 14  1  0  0  0  0
 15 13  2  0  0  0  0
 16 15  1  0  0  0  0
 17 19  1  0  0  0  0
 17  5  1  0  0  0  0
 18 17  2  0  0  0  0
 19 21  1  0  0  0  0
 20 19  1  0  0  0  0
 22 23  1  0  0  0  0
 23 24  1  0  0  0  0
 23 25  1  0  0  0  0
 23 26  1  0  0  0  0
 26 31  1  0  0  0  0
 26 27  1  0  0  0  0
 28 26  1  0  0  0  0
 29 30  1  0  0  0  0
 30 31  2  0  0  0  0
 30 36  1  0  0  0  0
 31 32  1  0  0  0  0
 32 37  1  0  0  0  0
 32 33  2  0  0  0  0
 33 38  1  0  0  0  0
 34 33  1  0  0  0  0
 34 35  1  0  0  0  0
 36 34  2  0  0  0  0
 39 36  1  0  0  0  0
M  END
>  <minimizedAffinity>
-5.81985998

$$$$

 OpenBabel03242515063D

 39 41  0  0  0  0  0  0  0  0999 V2000
   38.8240   31.7020   39.6000 C   0  0  0  0  0  0  0  0  0  0  0  0
   39.4720   30.9740   40.5900 C   0  0  0  0  0  0  0  0  0  0  0  0
   40.7890   31.2490   40.9130 C   0  0  0  0  0  0  0  0  0  0  0  0
   41.3810   32.2460   40.2150 N   0  0  0  0  0  0  0  0  0  0  0  0
   40.7490   32.9610   39.2450 C   0  0  0  0  0  0  0  0  0  0  0  0
   39.4950   32.6640   38.9710 N   0  0  0  0  0  0  0  0  0  0  0  0
   38.9570   30.2150   41.0780 H   0  0  0  0  0  0  0  0  0  0  0  0
   41.3470   28.1460   40.8610 Cl  0  0  0  0  0  0  0  0  0  0  0  0
   41.9570   29.2720   42.0140 C   0  0  0  0  0  0  0  0  0  0  0  0
   41.6160   30.5900   41.8960 C   0  0  0  0  0  0  0  0  0  0  0  0
   42.1540   31.3750   42.8980 C   0  0  0  0  0  0  0  0  0  0  0  0
   42.0040   32.4490   42.9870 H   0  0  0  0  0  0  0  0  0  0  0  0
   42.9500   30.8800   43.9050 C   0  0  0  0  0  0  0  0  0  0  0  0
   43.3670   31.5010   44.6830 H   0  0  0  0  0  0  0  0  0  0  0  0
   43.2650   29.5440   43.9780 C   0  0  0  0  0  3  0  0  0  0  0  0
   42.7470   28.7280   42.9990 C   0  0  0  0  0  3  0  0  0  0  0  0
   41.5200   34.0010   38.5890 C   0  0  0  0  0  0  0  0  0  0  0  0
   41.9370   33.7600   37.4330 O   0  0  0  0  0  0  0  0  0  0  0  0
   41.7520   35.2250   39.3030 N   0  0  0  0  0  0  0  0  0  0  0  0
   41.3380   36.1860   39.4160 H   0  0  0  0  0  0  0  0  0  0  0  0
   42.5650   35.3200   39.9560 H   0  0  0  0  0  0  0  0  0  0  0  0
   37.1260   31.2640   39.2600 S   0  0  0  0  0  0  0  0  0  0  0  0
   36.2120   30.8250   40.7530 C   0  0  0  0  0  0  0  0  0  0  0  0
   35.2890   31.4430   40.8040 H   0  0  0  0  0  0  0  0  0  0  0  0
   36.8320   31.1410   41.6390 H   0  0  0  0  0  0  0  0  0  0  0  0
   35.8310   29.3910   40.8290 C   0  0  0  0  0  0  0  0  0  0  0  0
   34.7870   29.2270   41.2220 H   0  0  0  0  0  0  0  0  0  0  0  0
   35.8110   28.9910   39.7850 H   0  0  0  0  0  0  0  0  0  0  0  0
   36.4690   26.6250   39.7640 Cl  0  0  0  0  0  0  0  0  0  0  0  0
   37.2000   27.3140   41.1690 C   0  0  0  0  0  0  0  0  0  0  0  0
   36.8310   28.5940   41.5690 C   0  0  0  0  0  0  0  0  0  0  0  0
   37.4570   29.0780   42.7030 C   0  0  0  0  0  0  0  0  0  0  0  0
   38.4080   28.4250   43.4780 C   0  0  0  0  0  0  0  0  0  0  0  0
   38.7430   27.1660   43.0500 C   0  0  0  0  0  0  0  0  0  0  0  0
   39.9430   26.2380   43.9610 Cl  0  0  0  0  0  0  0  0  0  0  0  0
   38.1570   26.6250   41.9290 C   0  0  0  0  0  0  0  0  0  0  0  0
   37.1480   30.0860   42.9930 H   0  0  0  0  0  0  0  0  0  0  0  0
   38.8260   28.9030   44.3420 H   0  0  0  0  0  0  0  0  0  0  0  0
   38.4490   25.6180   41.6180 H   0  0  0  0  0  0  0  0  0  0  0  0
  1  2  1  0  0  0  0
  2  3  2  0  0  0  0
  2  7  1  0  0  0  0
  3 10  1  0  0  0  0
  4  3  1  0  0  0  0
  5  4  2  0  0  0  0
  6  5  1  0  0  0  0
  6  1  2  0  0  0  0
  8  9  1  0  0  0  0
  9 16  1  0  0  0  0
 10  9  2  0  0  0  0
 10 11  1  0  0  0  0
 11 12  1  0  0  0  0
 11 13  2  0  0  0  0
 13 15  1  0  0  0  0
 13 14  1  0  0  0  0
 16 15  2  0  0  0  0
 17  5  1  0  0  0  0
 17 19  1  0  0  0  0
 18 17  2  0  0  0  0
 19 20  1  0  0  0  0
 19 21  1  0  0  0  0
 22  1  1  0  0  0  0
 22 23  1  0  0  0  0
 23 24  1  0  0  0  0
 23 26  1  0  0  0  0
 23 25  1  0  0  0  0
 26 27  1  0  0  0  0
 26 31  1  0  0  0  0
 28 26  1  0  0  0  0
 29 30  1  0  0  0  0
 30 31  2  0  0  0  0
 30 36  1  0  0  0  0
 31 32  1  0  0  0  0
 32 37  1  0  0  0  0
 32 33  2  0  0  0  0
 33 38  1  0  0  0  0
 34 33  1  0  0  0  0
 34 35  1  0  0  0  0
 36 34  2  0  0  0  0
 39 36  1  0  0  0  0
M  END
>  <minimizedAffinity>
-5.77876616

$$$$
