
 OpenBabel03252502163D

 24 25  0  0  0  0  0  0  0  0999 V2000
   46.7540   34.9990   42.6570 C   0  0  0  0  0  0  0  0  0  0  0  0
   47.0690   33.9610   43.5620 C   0  0  0  0  0  0  0  0  0  0  0  0
   46.2290   33.7590   44.6550 C   0  0  0  0  0  0  0  0  0  0  0  0
   45.1500   34.5650   44.8000 N   0  0  0  0  0  0  0  0  0  0  0  0
   44.8800   35.5460   43.9160 C   0  0  0  0  0  0  0  0  0  0  0  0
   45.6660   35.7730   42.8500 N   0  0  0  0  0  0  0  0  0  0  0  0
   47.4170   35.1440   41.8100 H   0  0  0  0  0  0  0  0  0  0  0  0
   43.9950   36.1260   44.1340 H   0  0  0  0  0  0  0  0  0  0  0  0
   45.2220   31.0750   43.7910 Cl  0  0  0  0  0  0  0  0  0  0  0  0
   46.0190   31.4540   45.3300 C   0  0  0  0  0  0  0  0  0  0  0  0
   46.4520   32.7250   45.6460 C   0  0  0  0  0  0  0  0  0  0  0  0
   47.0310   32.7920   46.8640 C   0  0  0  0  0  0  0  0  0  0  0  0
   47.4000   33.7390   47.2010 H   0  0  0  0  0  0  0  0  0  0  0  0
   47.2000   31.7470   47.7430 C   0  0  0  0  0  0  0  0  0  0  0  0
   47.6750   31.8950   48.7020 H   0  0  0  0  0  0  0  0  0  0  0  0
   46.7510   30.4940   47.3850 C   0  0  0  0  0  0  0  0  0  0  0  0
   46.1560   30.3600   46.1640 C   0  0  0  0  0  0  0  0  0  0  0  0
   48.1930   33.2080   43.3110 O   0  0  0  0  0  0  0  0  0  0  0  0
   50.6670   32.9040   42.4300 O   0  0  0  0  0  0  0  0  0  0  0  0
   49.5410   33.8690   42.4680 P   0  0  0  0  0  0  0  0  0  0  0  0
   49.1240   34.2370   40.8610 O   0  0  0  0  0  0  0  0  0  0  0  0
   48.7660   33.4490   40.4040 H   0  0  0  0  0  0  0  0  0  0  0  0
   50.0540   35.3030   43.2250 O   0  0  0  0  0  0  0  0  0  0  0  0
   50.4340   35.9330   42.5440 H   0  0  0  0  0  0  0  0  0  0  0  0
  1  6  2  0  0  0  0
  1  2  1  0  0  0  0
  2  3  2  0  0  0  0
  3  4  1  0  0  0  0
  3 11  1  0  0  0  0
  5  8  1  0  0  0  0
  5  4  2  0  0  0  0
  6  5  1  0  0  0  0
  7  1  1  0  0  0  0
  9 10  1  0  0  0  0
 10 11  2  0  0  0  0
 10 17  1  0  0  0  0
 11 12  1  0  0  0  0
 12 13  1  0  0  0  0
 12 14  2  0  0  0  0
 14 15  1  0  0  0  0
 16 14  1  0  0  0  0
 17 16  2  0  0  0  0
 18  2  1  0  0  0  0
 19 20  2  0  0  0  0
 20 23  1  0  0  0  0
 20 18  1  0  0  0  0
 21 20  1  0  0  0  0
 22 21  1  0  0  0  0
 24 23  1  0  0  0  0
M  END
>  <minimizedAffinity>
-5.52036905

>  <minimizedRMSD>
0.707930982

$$$$
