
 OpenBabel03252502173D

 24 25  0  0  0  0  0  0  0  0999 V2000
   40.0010   30.6210   38.7890 C   0  0  0  0  0  0  0  0  0  0  0  0
   39.2020   30.2310   39.8870 C   0  0  0  0  0  0  0  0  0  0  0  0
   39.1330   28.8770   40.2060 C   0  0  0  0  0  0  0  0  0  0  0  0
   39.8330   27.9970   39.4510 N   0  0  0  0  0  0  0  0  0  0  0  0
   40.5860   28.4050   38.4100 C   0  0  0  0  0  0  0  0  0  0  0  0
   40.6780   29.7020   38.0700 N   0  0  0  0  0  0  0  0  0  0  0  0
   40.0450   31.6800   38.5530 H   0  0  0  0  0  0  0  0  0  0  0  0
   41.0990   27.6160   37.8800 H   0  0  0  0  0  0  0  0  0  0  0  0
   40.6760   28.7210   42.7660 Cl  0  0  0  0  0  0  0  0  0  0  0  0
   38.9810   28.2570   42.5310 C   0  0  0  0  0  0  0  0  0  0  0  0
   38.3470   28.3620   41.3100 C   0  0  0  0  0  0  0  0  0  0  0  0
   37.0600   27.9540   41.3520 C   0  0  0  0  0  0  0  0  0  0  0  0
   36.4830   27.9980   40.4520 H   0  0  0  0  0  0  0  0  0  0  0  0
   36.3940   27.4760   42.4560 C   0  0  0  0  0  0  0  0  0  0  0  0
   35.3600   27.1710   42.3960 H   0  0  0  0  0  0  0  0  0  0  0  0
   37.0680   27.3880   43.6570 C   0  0  0  0  0  3  0  0  0  0  0  0
   38.3730   27.7850   43.6790 C   0  0  0  0  0  3  0  0  0  0  0  0
   38.5350   31.2150   40.5790 O   0  0  0  0  0  0  0  0  0  0  0  0
   36.5550   31.1090   38.8300 O   0  0  0  0  0  0  0  0  0  0  0  0
   36.9430   31.6970   40.1340 P   0  0  0  0  0  0  0  0  0  0  0  0
   35.8110   31.1750   41.2920 O   0  0  0  0  0  0  0  0  0  0  0  0
   35.8690   30.2060   41.4240 H   0  0  0  0  0  0  0  0  0  0  0  0
   36.8550   33.3930   40.0360 O   0  0  0  0  0  0  0  0  0  0  0  0
   35.9350   33.7040   40.2870 H   0  0  0  0  0  0  0  0  0  0  0  0
  1  2  1  0  0  0  0
  2  3  2  0  0  0  0
  2 18  1  0  0  0  0
  3 11  1  0  0  0  0
  4  3  1  0  0  0  0
  5  4  2  0  0  0  0
  6  5  1  0  0  0  0
  6  1  2  0  0  0  0
  7  1  1  0  0  0  0
  8  5  1  0  0  0  0
 10  9  1  0  0  0  0
 10 17  1  0  0  0  0
 11 12  1  0  0  0  0
 11 10  2  0  0  0  0
 12 14  2  0  0  0  0
 13 12  1  0  0  0  0
 14 16  1  0  0  0  0
 15 14  1  0  0  0  0
 16 17  2  0  0  0  0
 19 20  2  0  0  0  0
 20 18  1  0  0  0  0
 20 21  1  0  0  0  0
 21 22  1  0  0  0  0
 23 20  1  0  0  0  0
 23 24  1  0  0  0  0
M  END
>  <minimizedAffinity>
-5.23393202

$$$$

 OpenBabel03252502173D

 24 25  0  0  0  0  0  0  0  0999 V2000
   39.8800   30.4210   38.5910 C   0  0  0  0  0  0  0  0  0  0  0  0
   39.1750   30.0850   39.7680 C   0  0  0  0  0  0  0  0  0  0  0  0
   39.1130   28.7440   40.1420 C   0  0  0  0  0  0  0  0  0  0  0  0
   39.7300   27.8250   39.3620 N   0  0  0  0  0  0  0  0  0  0  0  0
   40.3950   28.1820   38.2450 C   0  0  0  0  0  0  0  0  0  0  0  0
   40.4770   29.4640   37.8510 N   0  0  0  0  0  0  0  0  0  0  0  0
   39.9200   31.4690   38.3140 H   0  0  0  0  0  0  0  0  0  0  0  0
   40.8460   27.3650   37.7020 H   0  0  0  0  0  0  0  0  0  0  0  0
   36.3040   27.8720   39.5870 Cl  0  0  0  0  0  0  0  0  0  0  0  0
   37.1150   27.8610   41.1640 C   0  0  0  0  0  0  0  0  0  0  0  0
   38.4190   28.2830   41.3280 C   0  0  0  0  0  0  0  0  0  0  0  0
   38.8390   28.1920   42.6080 C   0  0  0  0  0  0  0  0  0  0  0  0
   39.8400   28.4970   42.8380 H   0  0  0  0  0  0  0  0  0  0  0  0
   38.1020   27.7380   43.6770 C   0  0  0  0  0  0  0  0  0  0  0  0
   38.5230   27.7000   44.6710 H   0  0  0  0  0  0  0  0  0  0  0  0
   36.8030   27.3260   43.4650 C   0  0  0  0  0  3  0  0  0  0  0  0
   36.3180   27.3940   42.1910 C   0  0  0  0  0  3  0  0  0  0  0  0
   38.5870   31.1050   40.4790 O   0  0  0  0  0  0  0  0  0  0  0  0
   36.5630   31.1550   38.7780 O   0  0  0  0  0  0  0  0  0  0  0  0
   36.9990   31.6560   40.1040 P   0  0  0  0  0  0  0  0  0  0  0  0
   35.8810   31.0990   41.2580 O   0  0  0  0  0  0  0  0  0  0  0  0
   35.9140   30.1230   41.3330 H   0  0  0  0  0  0  0  0  0  0  0  0
   36.9590   33.3560   40.1050 O   0  0  0  0  0  0  0  0  0  0  0  0
   36.0540   33.6780   40.3970 H   0  0  0  0  0  0  0  0  0  0  0  0
  1  2  1  0  0  0  0
  2  3  2  0  0  0  0
  2 18  1  0  0  0  0
  3 11  1  0  0  0  0
  4  3  1  0  0  0  0
  5  4  2  0  0  0  0
  6  5  1  0  0  0  0
  6  1  2  0  0  0  0
  7  1  1  0  0  0  0
  8  5  1  0  0  0  0
  9 10  1  0  0  0  0
 10 11  2  0  0  0  0
 10 17  1  0  0  0  0
 11 12  1  0  0  0  0
 12 13  1  0  0  0  0
 12 14  2  0  0  0  0
 14 15  1  0  0  0  0
 16 14  1  0  0  0  0
 17 16  2  0  0  0  0
 19 20  2  0  0  0  0
 20 23  1  0  0  0  0
 20 18  1  0  0  0  0
 20 21  1  0  0  0  0
 21 22  1  0  0  0  0
 23 24  1  0  0  0  0
M  END
>  <minimizedAffinity>
-5.19137907

$$$$

 OpenBabel03252502173D

 24 25  0  0  0  0  0  0  0  0999 V2000
   38.6380   29.6590   42.2490 C   0  0  0  0  0  0  0  0  0  0  0  0
   37.8640   29.5280   41.0740 C   0  0  0  0  0  0  0  0  0  0  0  0
   36.7500   28.6900   41.1060 C   0  0  0  0  0  0  0  0  0  0  0  0
   36.4620   28.0410   42.2590 N   0  0  0  0  0  0  0  0  0  0  0  0
   37.2230   28.1910   43.3620 C   0  0  0  0  0  0  0  0  0  0  0  0
   38.3040   28.9880   43.3710 N   0  0  0  0  0  0  0  0  0  0  0  0
   39.5010   30.3150   42.2080 H   0  0  0  0  0  0  0  0  0  0  0  0
   36.8980   27.6240   44.2220 H   0  0  0  0  0  0  0  0  0  0  0  0
   37.5740   26.3490   39.4330 Cl  0  0  0  0  0  0  0  0  0  0  0  0
   36.1910   27.4180   39.1360 C   0  0  0  0  0  0  0  0  0  0  0  0
   35.8840   28.4790   39.9640 C   0  0  0  0  0  0  0  0  0  0  0  0
   34.7930   29.1620   39.5540 C   0  0  0  0  0  0  0  0  0  0  0  0
   34.4750   30.0060   40.1330 H   0  0  0  0  0  0  0  0  0  0  0  0
   34.0280   28.8850   38.4460 C   0  0  0  0  0  0  0  0  0  0  0  0
   33.1690   29.4900   38.1950 H   0  0  0  0  0  0  0  0  0  0  0  0
   34.3720   27.8150   37.6470 C   0  0  0  0  0  3  0  0  0  0  0  0
   35.4660   27.0830   38.0080 C   0  0  0  0  0  3  0  0  0  0  0  0
   38.2560   30.2360   39.9620 O   0  0  0  0  0  0  0  0  0  0  0  0
   39.1170   32.6790   40.4900 O   0  0  0  0  0  0  0  0  0  0  0  0
   38.0050   31.9360   39.8510 P   0  0  0  0  0  0  0  0  0  0  0  0
   37.9240   32.4270   38.2250 O   0  0  0  0  0  0  0  0  0  0  0  0
   38.7270   32.1500   37.7370 H   0  0  0  0  0  0  0  0  0  0  0  0
   36.5400   32.3570   40.6050 O   0  0  0  0  0  0  0  0  0  0  0  0
   36.1340   33.1510   40.1470 H   0  0  0  0  0  0  0  0  0  0  0  0
  1  6  1  0  0  0  0
  2  3  1  0  0  0  0
  2  1  2  0  0  0  0
  3  4  2  0  0  0  0
  4  5  1  0  0  0  0
  5  6  2  0  0  0  0
  5  8  1  0  0  0  0
  7  1  1  0  0  0  0
 10  9  1  0  0  0  0
 10 11  1  0  0  0  0
 11  3  1  0  0  0  0
 12 11  2  0  0  0  0
 12 13  1  0  0  0  0
 14 12  1  0  0  0  0
 15 14  1  0  0  0  0
 16 17  1  0  0  0  0
 16 14  2  0  0  0  0
 17 10  2  0  0  0  0
 18  2  1  0  0  0  0
 20 18  1  0  0  0  0
 20 19  2  0  0  0  0
 20 23  1  0  0  0  0
 21 20  1  0  0  0  0
 22 21  1  0  0  0  0
 24 23  1  0  0  0  0
M  END
>  <minimizedAffinity>
-5.0776515

$$$$

 OpenBabel03252502173D

 24 25  0  0  0  0  0  0  0  0999 V2000
   38.2320   28.7280   42.6380 C   0  0  0  0  0  0  0  0  0  0  0  0
   37.4370   27.9770   41.7430 C   0  0  0  0  0  0  0  0  0  0  0  0
   38.0350   26.9300   41.0450 C   0  0  0  0  0  0  0  0  0  0  0  0
   39.3490   26.6790   41.2560 N   0  0  0  0  0  0  0  0  0  0  0  0
   40.0770   27.4160   42.1180 C   0  0  0  0  0  0  0  0  0  0  0  0
   39.5370   28.4340   42.8090 N   0  0  0  0  0  0  0  0  0  0  0  0
   37.7510   29.5390   43.1740 H   0  0  0  0  0  0  0  0  0  0  0  0
   41.1140   27.1250   42.2050 H   0  0  0  0  0  0  0  0  0  0  0  0
   36.8880   24.4700   42.3070 Cl  0  0  0  0  0  0  0  0  0  0  0  0
   36.7550   24.9360   40.6010 C   0  0  0  0  0  0  0  0  0  0  0  0
   37.3180   26.0930   40.1040 C   0  0  0  0  0  0  0  0  0  0  0  0
   37.0980   26.2550   38.7810 C   0  0  0  0  0  0  0  0  0  0  0  0
   37.4960   27.1250   38.3020 H   0  0  0  0  0  0  0  0  0  0  0  0
   36.3990   25.3990   37.9610 C   0  0  0  0  0  0  0  0  0  0  0  0
   36.2730   25.6110   36.9100 H   0  0  0  0  0  0  0  0  0  0  0  0
   35.8530   24.2540   38.5020 C   0  0  0  0  0  3  0  0  0  0  0  0
   36.0410   24.0330   39.8360 C   0  0  0  0  0  3  0  0  0  0  0  0
   36.1130   28.3270   41.6110 O   0  0  0  0  0  0  0  0  0  0  0  0
   36.5320   29.6890   39.3840 O   0  0  0  0  0  0  0  0  0  0  0  0
   35.6250   29.5950   40.5530 P   0  0  0  0  0  0  0  0  0  0  0  0
   34.0540   29.3150   39.9640 O   0  0  0  0  0  0  0  0  0  0  0  0
   33.9960   28.4410   39.5270 H   0  0  0  0  0  0  0  0  0  0  0  0
   35.6220   31.0770   41.3860 O   0  0  0  0  0  0  0  0  0  0  0  0
   34.9110   31.6790   41.0140 H   0  0  0  0  0  0  0  0  0  0  0  0
  1  6  1  0  0  0  0
  1  7  1  0  0  0  0
  2  1  2  0  0  0  0
  3  4  2  0  0  0  0
  3  2  1  0  0  0  0
  4  5  1  0  0  0  0
  5  8  1  0  0  0  0
  5  6  2  0  0  0  0
 10  9  1  0  0  0  0
 11 10  1  0  0  0  0
 11  3  1  0  0  0  0
 12 11  2  0  0  0  0
 13 12  1  0  0  0  0
 14 16  2  0  0  0  0
 14 12  1  0  0  0  0
 15 14  1  0  0  0  0
 16 17  1  0  0  0  0
 17 10  2  0  0  0  0
 18  2  1  0  0  0  0
 19 20  2  0  0  0  0
 20 23  1  0  0  0  0
 20 18  1  0  0  0  0
 21 20  1  0  0  0  0
 22 21  1  0  0  0  0
 24 23  1  0  0  0  0
M  END
>  <minimizedAffinity>
-5.0740242

$$$$

 OpenBabel03252502173D

 24 25  0  0  0  0  0  0  0  0999 V2000
   39.5510   31.1870   41.4560 C   0  0  0  0  0  0  0  0  0  0  0  0
   38.5250   30.3680   40.9340 C   0  0  0  0  0  0  0  0  0  0  0  0
   37.4630   30.9790   40.2710 C   0  0  0  0  0  0  0  0  0  0  0  0
   37.4610   32.3290   40.1590 N   0  0  0  0  0  0  0  0  0  0  0  0
   38.4570   33.0800   40.6700 C   0  0  0  0  0  0  0  0  0  0  0  0
   39.4980   32.5280   41.3150 N   0  0  0  0  0  0  0  0  0  0  0  0
   40.3710   30.6960   41.9680 H   0  0  0  0  0  0  0  0  0  0  0  0
   38.3490   34.1440   40.5200 H   0  0  0  0  0  0  0  0  0  0  0  0
   37.7560   30.5480   37.3240 Cl  0  0  0  0  0  0  0  0  0  0  0  0
   36.4110   29.9950   38.3380 C   0  0  0  0  0  0  0  0  0  0  0  0
   36.3570   30.2400   39.6950 C   0  0  0  0  0  0  0  0  0  0  0  0
   35.2480   29.7320   40.2740 C   0  0  0  0  0  0  0  0  0  0  0  0
   35.1150   29.8710   41.3280 H   0  0  0  0  0  0  0  0  0  0  0  0
   34.2430   29.0380   39.6400 C   0  0  0  0  0  0  0  0  0  0  0  0
   33.3890   28.6680   40.1870 H   0  0  0  0  0  0  0  0  0  0  0  0
   34.3390   28.8180   38.2820 C   0  0  0  0  0  3  0  0  0  0  0  0
   35.4380   29.3060   37.6380 C   0  0  0  0  0  3  0  0  0  0  0  0
   38.6350   29.0080   41.1110 O   0  0  0  0  0  0  0  0  0  0  0  0
   39.2490   27.8560   43.4110 O   0  0  0  0  0  0  0  0  0  0  0  0
   38.0990   28.2500   42.5610 P   0  0  0  0  0  0  0  0  0  0  0  0
   37.1270   29.3100   43.4700 O   0  0  0  0  0  0  0  0  0  0  0  0
   37.6020   30.1460   43.6570 H   0  0  0  0  0  0  0  0  0  0  0  0
   37.1750   26.8720   42.1890 O   0  0  0  0  0  0  0  0  0  0  0  0
   36.4730   26.7290   42.8910 H   0  0  0  0  0  0  0  0  0  0  0  0
  1  7  1  0  0  0  0
  2 18  1  0  0  0  0
  2  1  2  0  0  0  0
  3  2  1  0  0  0  0
  4  3  2  0  0  0  0
  4  5  1  0  0  0  0
  5  6  2  0  0  0  0
  6  1  1  0  0  0  0
  8  5  1  0  0  0  0
  9 10  1  0  0  0  0
 10 11  1  0  0  0  0
 11  3  1  0  0  0  0
 11 12  2  0  0  0  0
 12 13  1  0  0  0  0
 14 15  1  0  0  0  0
 14 12  1  0  0  0  0
 16 14  2  0  0  0  0
 17 16  1  0  0  0  0
 17 10  2  0  0  0  0
 18 20  1  0  0  0  0
 20 19  2  0  0  0  0
 20 21  1  0  0  0  0
 21 22  1  0  0  0  0
 23 20  1  0  0  0  0
 23 24  1  0  0  0  0
M  END
>  <minimizedAffinity>
-5.03478336

$$$$

 OpenBabel03252502173D

 24 25  0  0  0  0  0  0  0  0999 V2000
   36.9700   28.4570   38.4490 C   0  0  0  0  0  0  0  0  0  0  0  0
   37.5760   29.5480   39.1110 C   0  0  0  0  0  0  0  0  0  0  0  0
   37.6910   30.7560   38.4260 C   0  0  0  0  0  0  0  0  0  0  0  0
   37.2180   30.8290   37.1590 N   0  0  0  0  0  0  0  0  0  0  0  0
   36.6450   29.7670   36.5580 C   0  0  0  0  0  0  0  0  0  0  0  0
   36.5160   28.5860   37.1850 N   0  0  0  0  0  0  0  0  0  0  0  0
   36.8870   27.5240   38.9960 H   0  0  0  0  0  0  0  0  0  0  0  0
   36.3060   29.9420   35.5480 H   0  0  0  0  0  0  0  0  0  0  0  0
   40.6360   30.9330   37.9240 Cl  0  0  0  0  0  0  0  0  0  0  0  0
   39.6510   32.1040   38.8200 C   0  0  0  0  0  0  0  0  0  0  0  0
   38.2930   31.9410   39.0040 C   0  0  0  0  0  0  0  0  0  0  0  0
   37.7380   32.9470   39.7150 C   0  0  0  0  0  0  0  0  0  0  0  0
   36.6860   32.9110   39.9100 H   0  0  0  0  0  0  0  0  0  0  0  0
   38.3960   34.0410   40.2270 C   0  0  0  0  0  0  0  0  0  0  0  0
   37.8680   34.7990   40.7860 H   0  0  0  0  0  0  0  0  0  0  0  0
   39.7540   34.1610   40.0190 C   0  0  0  0  0  3  0  0  0  0  0  0
   40.3740   33.1760   39.3070 C   0  0  0  0  0  3  0  0  0  0  0  0
   38.0200   29.3540   40.3980 O   0  0  0  0  0  0  0  0  0  0  0  0
   36.1960   28.1240   41.8660 O   0  0  0  0  0  0  0  0  0  0  0  0
   36.9350   29.4030   41.7350 P   0  0  0  0  0  0  0  0  0  0  0  0
   37.7810   29.6610   43.1870 O   0  0  0  0  0  0  0  0  0  0  0  0
   38.4740   28.9800   43.3130 H   0  0  0  0  0  0  0  0  0  0  0  0
   35.8250   30.6760   41.5350 O   0  0  0  0  0  0  0  0  0  0  0  0
   35.5580   31.0420   42.4300 H   0  0  0  0  0  0  0  0  0  0  0  0
  1  7  1  0  0  0  0
  1  2  1  0  0  0  0
  2 18  1  0  0  0  0
  3 11  1  0  0  0  0
  3  2  2  0  0  0  0
  4  3  1  0  0  0  0
  5  4  2  0  0  0  0
  5  6  1  0  0  0  0
  6  1  2  0  0  0  0
  8  5  1  0  0  0  0
  9 10  1  0  0  0  0
 10 11  2  0  0  0  0
 10 17  1  0  0  0  0
 11 12  1  0  0  0  0
 12 13  1  0  0  0  0
 12 14  2  0  0  0  0
 14 15  1  0  0  0  0
 16 14  1  0  0  0  0
 17 16  2  0  0  0  0
 18 20  1  0  0  0  0
 20 19  2  0  0  0  0
 20 21  1  0  0  0  0
 21 22  1  0  0  0  0
 23 20  1  0  0  0  0
 23 24  1  0  0  0  0
M  END
>  <minimizedAffinity>
-4.89667702

$$$$

 OpenBabel03252502173D

 24 25  0  0  0  0  0  0  0  0999 V2000
   36.6990   30.1560   37.8860 C   0  0  0  0  0  0  0  0  0  0  0  0
   37.3210   29.8620   39.1200 C   0  0  0  0  0  0  0  0  0  0  0  0
   36.7690   28.8630   39.9180 C   0  0  0  0  0  0  0  0  0  0  0  0
   35.6610   28.2200   39.4770 N   0  0  0  0  0  0  0  0  0  0  0  0
   35.0940   28.5260   38.2930 C   0  0  0  0  0  0  0  0  0  0  0  0
   35.5970   29.4830   37.4950 N   0  0  0  0  0  0  0  0  0  0  0  0
   37.1420   30.9350   37.2750 H   0  0  0  0  0  0  0  0  0  0  0  0
   34.2150   27.9490   38.0460 H   0  0  0  0  0  0  0  0  0  0  0  0
   38.5990   26.5020   39.7380 Cl  0  0  0  0  0  0  0  0  0  0  0  0
   38.1790   27.3960   41.2110 C   0  0  0  0  0  0  0  0  0  0  0  0
   37.3220   28.4780   41.2010 C   0  0  0  0  0  0  0  0  0  0  0  0
   37.1390   29.0100   42.4290 C   0  0  0  0  0  0  0  0  0  0  0  0
   36.4890   29.8550   42.5250 H   0  0  0  0  0  0  0  0  0  0  0  0
   37.7120   28.5720   43.6000 C   0  0  0  0  0  0  0  0  0  0  0  0
   37.5070   29.0610   44.5400 H   0  0  0  0  0  0  0  0  0  0  0  0
   38.5630   27.4860   43.5620 C   0  0  0  0  0  3  0  0  0  0  0  0
   38.7890   26.9030   42.3490 C   0  0  0  0  0  3  0  0  0  0  0  0
   38.4410   30.5840   39.4620 O   0  0  0  0  0  0  0  0  0  0  0  0
   39.1660   32.2880   41.3490 O   0  0  0  0  0  0  0  0  0  0  0  0
   38.3140   32.1610   40.1420 P   0  0  0  0  0  0  0  0  0  0  0  0
   38.8220   33.3390   39.0270 O   0  0  0  0  0  0  0  0  0  0  0  0
   39.7320   33.1550   38.7150 H   0  0  0  0  0  0  0  0  0  0  0  0
   36.6980   32.4860   40.5580 O   0  0  0  0  0  0  0  0  0  0  0  0
   36.5090   33.4660   40.4600 H   0  0  0  0  0  0  0  0  0  0  0  0
  1  2  1  0  0  0  0
  2 18  1  0  0  0  0
  2  3  2  0  0  0  0
  3 11  1  0  0  0  0
  4  3  1  0  0  0  0
  5  4  2  0  0  0  0
  6  1  2  0  0  0  0
  6  5  1  0  0  0  0
  7  1  1  0  0  0  0
  8  5  1  0  0  0  0
  9 10  1  0  0  0  0
 10 17  1  0  0  0  0
 11 10  2  0  0  0  0
 11 12  1  0  0  0  0
 12 13  1  0  0  0  0
 12 14  2  0  0  0  0
 14 15  1  0  0  0  0
 16 14  1  0  0  0  0
 17 16  2  0  0  0  0
 18 20  1  0  0  0  0
 20 23  1  0  0  0  0
 20 19  2  0  0  0  0
 21 20  1  0  0  0  0
 22 21  1  0  0  0  0
 24 23  1  0  0  0  0
M  END
>  <minimizedAffinity>
-4.88651228

$$$$

 OpenBabel03252502173D

 24 25  0  0  0  0  0  0  0  0999 V2000
   35.7010   29.8680   39.5960 C   0  0  0  0  0  0  0  0  0  0  0  0
   36.7760   29.6910   40.4950 C   0  0  0  0  0  0  0  0  0  0  0  0
   37.3550   28.4280   40.5920 C   0  0  0  0  0  0  0  0  0  0  0  0
   36.8620   27.4280   39.8230 N   0  0  0  0  0  0  0  0  0  0  0  0
   35.8340   27.6340   38.9750 C   0  0  0  0  0  0  0  0  0  0  0  0
   35.2490   28.8370   38.8520 N   0  0  0  0  0  0  0  0  0  0  0  0
   35.2620   30.8580   39.5300 H   0  0  0  0  0  0  0  0  0  0  0  0
   35.5250   26.7640   38.4130 H   0  0  0  0  0  0  0  0  0  0  0  0
   36.4730   27.3270   43.2320 Cl  0  0  0  0  0  0  0  0  0  0  0  0
   38.1460   27.6160   42.7200 C   0  0  0  0  0  0  0  0  0  0  0  0
   38.4620   28.1290   41.4790 C   0  0  0  0  0  0  0  0  0  0  0  0
   39.7930   28.2700   41.2960 C   0  0  0  0  0  0  0  0  0  0  0  0
   40.1390   28.6620   40.3610 H   0  0  0  0  0  0  0  0  0  0  0  0
   40.7780   27.9570   42.2040 C   0  0  0  0  0  0  0  0  0  0  0  0
   41.8210   28.1050   41.9700 H   0  0  0  0  0  0  0  0  0  0  0  0
   40.4140   27.4470   43.4330 C   0  0  0  0  0  3  0  0  0  0  0  0
   39.0830   27.2800   43.6800 C   0  0  0  0  0  3  0  0  0  0  0  0
   37.1900   30.7810   41.2260 O   0  0  0  0  0  0  0  0  0  0  0  0
   38.6810   31.6630   39.2290 O   0  0  0  0  0  0  0  0  0  0  0  0
   38.0130   32.0960   40.4800 P   0  0  0  0  0  0  0  0  0  0  0  0
   36.9230   33.3380   40.0780 O   0  0  0  0  0  0  0  0  0  0  0  0
   36.2010   32.9990   39.5100 H   0  0  0  0  0  0  0  0  0  0  0  0
   39.1740   32.7340   41.5460 O   0  0  0  0  0  0  0  0  0  0  0  0
   39.2830   33.7190   41.3860 H   0  0  0  0  0  0  0  0  0  0  0  0
  1  2  1  0  0  0  0
  2  3  2  0  0  0  0
  2 18  1  0  0  0  0
  3 11  1  0  0  0  0
  4  3  1  0  0  0  0
  5  4  2  0  0  0  0
  6  5  1  0  0  0  0
  6  1  2  0  0  0  0
  7  1  1  0  0  0  0
  8  5  1  0  0  0  0
 10  9  1  0  0  0  0
 10 17  1  0  0  0  0
 11 10  2  0  0  0  0
 12 11  1  0  0  0  0
 12 14  2  0  0  0  0
 13 12  1  0  0  0  0
 14 16  1  0  0  0  0
 15 14  1  0  0  0  0
 16 17  2  0  0  0  0
 19 20  2  0  0  0  0
 20 18  1  0  0  0  0
 20 23  1  0  0  0  0
 21 20  1  0  0  0  0
 22 21  1  0  0  0  0
 24 23  1  0  0  0  0
M  END
>  <minimizedAffinity>
-4.84480906

$$$$

 OpenBabel03252502173D

 24 25  0  0  0  0  0  0  0  0999 V2000
   38.9450   29.2320   37.5410 C   0  0  0  0  0  0  0  0  0  0  0  0
   38.3520   29.2520   38.8230 C   0  0  0  0  0  0  0  0  0  0  0  0
   38.8420   28.3790   39.7920 C   0  0  0  0  0  0  0  0  0  0  0  0
   39.8620   27.5510   39.4610 N   0  0  0  0  0  0  0  0  0  0  0  0
   40.4040   27.5590   38.2270 C   0  0  0  0  0  0  0  0  0  0  0  0
   39.9600   28.3870   37.2660 N   0  0  0  0  0  0  0  0  0  0  0  0
   38.5540   29.9190   36.7980 H   0  0  0  0  0  0  0  0  0  0  0  0
   41.2100   26.8560   38.0780 H   0  0  0  0  0  0  0  0  0  0  0  0
   36.7160   26.2960   40.1090 Cl  0  0  0  0  0  0  0  0  0  0  0  0
   37.3260   27.3770   41.3760 C   0  0  0  0  0  0  0  0  0  0  0  0
   38.3130   28.3120   41.1400 C   0  0  0  0  0  0  0  0  0  0  0  0
   38.6270   29.0290   42.2400 C   0  0  0  0  0  0  0  0  0  0  0  0
   39.3840   29.7820   42.1570 H   0  0  0  0  0  0  0  0  0  0  0  0
   38.0650   28.8930   43.4880 C   0  0  0  0  0  0  0  0  0  0  0  0
   38.3810   29.5140   44.3140 H   0  0  0  0  0  0  0  0  0  0  0  0
   37.0820   27.9450   43.6780 C   0  0  0  0  0  3  0  0  0  0  0  0
   36.7190   27.1870   42.6030 C   0  0  0  0  0  3  0  0  0  0  0  0
   37.3210   30.1360   39.0410 O   0  0  0  0  0  0  0  0  0  0  0  0
   39.0120   31.9710   39.9160 O   0  0  0  0  0  0  0  0  0  0  0  0
   37.6250   31.7870   39.4230 P   0  0  0  0  0  0  0  0  0  0  0  0
   37.4330   32.7680   38.0470 O   0  0  0  0  0  0  0  0  0  0  0  0
   38.0050   32.4580   37.3150 H   0  0  0  0  0  0  0  0  0  0  0  0
   36.5310   32.3200   40.6110 O   0  0  0  0  0  0  0  0  0  0  0  0
   36.3360   33.2960   40.4840 H   0  0  0  0  0  0  0  0  0  0  0  0
  1  2  1  0  0  0  0
  2 18  1  0  0  0  0
  2  3  2  0  0  0  0
  3 11  1  0  0  0  0
  4  3  1  0  0  0  0
  5  4  2  0  0  0  0
  6  1  2  0  0  0  0
  6  5  1  0  0  0  0
  7  1  1  0  0  0  0
  8  5  1  0  0  0  0
  9 10  1  0  0  0  0
 10 17  1  0  0  0  0
 11 10  2  0  0  0  0
 11 12  1  0  0  0  0
 12 14  2  0  0  0  0
 13 12  1  0  0  0  0
 14 16  1  0  0  0  0
 14 15  1  0  0  0  0
 17 16  2  0  0  0  0
 18 20  1  0  0  0  0
 20 19  2  0  0  0  0
 20 23  1  0  0  0  0
 21 20  1  0  0  0  0
 22 21  1  0  0  0  0
 24 23  1  0  0  0  0
M  END
>  <minimizedAffinity>
-4.74061966

$$$$
