
 OpenBabel03242514443D

 21 22  0  0  0  0  0  0  0  0999 V2000
   45.4390   35.1260   43.9640 C   0  0  0  0  0  0  0  0  0  0  0  0
   46.5150   34.3480   43.5230 C   0  0  0  0  0  0  0  0  0  0  0  0
   46.9990   33.3450   44.3820 C   0  0  0  0  0  0  0  0  0  0  0  0
   46.3850   33.2070   45.5770 N   0  0  0  0  0  0  0  0  0  0  0  0
   45.3470   33.9780   45.9740 C   0  0  0  0  0  0  0  0  0  0  0  0
   44.8730   34.9490   45.1500 N   0  0  0  0  0  0  0  0  0  0  0  0
   47.8100   32.6990   44.1440 H   0  0  0  0  0  0  0  0  0  0  0  0
   44.9290   33.7850   46.9500 H   0  0  0  0  0  0  0  0  0  0  0  0
   45.2210   32.6990   41.4690 Cl  0  0  0  0  0  0  0  0  0  0  0  0
   46.5940   33.7750   41.2080 C   0  0  0  0  0  0  0  0  0  0  0  0
   47.1540   34.5240   42.2230 C   0  0  0  0  0  0  0  0  0  0  0  0
   48.2420   35.3650   41.9800 C   0  0  0  0  0  0  0  0  0  0  0  0
   48.6310   35.9250   42.8280 H   0  0  0  0  0  0  0  0  0  0  0  0
   48.7350   35.4220   40.6900 C   0  0  0  0  0  0  0  0  0  0  0  0
   49.5900   36.0950   40.5400 H   0  0  0  0  0  0  0  0  0  0  0  0
   48.1600   34.6600   39.6760 C   0  0  0  0  0  0  0  0  0  0  0  0
   47.0880   33.8340   39.9250 C   0  0  0  0  0  0  0  0  0  0  0  0
   44.9620   36.1830   43.0070 C   0  0  0  0  0  0  0  0  0  0  0  0
   43.9370   36.5390   43.3120 H   0  0  0  0  0  0  0  0  0  0  0  0
   44.8800   35.8170   41.9840 H   0  0  0  0  0  0  0  0  0  0  0  0
   45.6480   37.0710   43.1280 H   0  0  0  0  0  0  0  0  0  0  0  0
  1  6  1  0  0  0  0
  2  1  2  0  0  0  0
  2  3  1  0  0  0  0
  3  4  2  0  0  0  0
  4  5  1  0  0  0  0
  5  8  1  0  0  0  0
  6  5  2  0  0  0  0
  7  3  1  0  0  0  0
 10  9  1  0  0  0  0
 10 11  1  0  0  0  0
 11  2  1  0  0  0  0
 12 11  2  0  0  0  0
 12 13  1  0  0  0  0
 14 12  1  0  0  0  0
 15 14  1  0  0  0  0
 16 17  1  0  0  0  0
 16 14  2  0  0  0  0
 17 10  2  0  0  0  0
 18 21  1  0  0  0  0
 18 19  1  0  0  0  0
 18  1  1  0  0  0  0
 20 18  1  0  0  0  0
M  END
>  <minimizedAffinity>
-5.02127838

>  <minimizedRMSD>
0.291015446

$$$$
