REMARK  Name = 
REMARK  3 active torsions:
REMARK  status: ('A' for Active; 'I' for Inactive)
REMARK    1  A    between atoms: C_1  and  C_8
REMARK    2  A    between atoms: N_4  and  C_13
REMARK    3  A    between atoms: C_17  and  C_33
REMARK                            x       y       z     vdW  Elec       q    Type
REMARK                         _______ _______ _______ _____ _____    ______ ____
ROOT
ATOM      1  N   UNL     1      42.350  33.733  39.644  0.00  0.00    +0.000 NA
ATOM      2  C   UNL     1      42.221  33.931  41.091  0.00  0.00    +0.000 C 
ATOM      3  C   UNL     1      41.160  34.901  41.446  0.00  0.00    +0.000 C 
ATOM      4  N   UNL     1      40.336  35.286  40.311  0.00  0.00    +0.000 NA
ATOM      5  C   UNL     1      41.038  35.636  39.132  0.00  0.00    +0.000 C 
ATOM      6  C   UNL     1      42.448  35.108  39.106  0.00  0.00    +0.000 C 
ATOM      7  H   UNL     1      43.308  33.337  39.501  0.00  0.00    +0.000 HD
ATOM      8  H   UNL     1      42.078  32.916  41.552  0.00  0.00    +0.000 HD
ATOM      9  H   UNL     1      41.460  35.883  41.829  0.00  0.00    +0.000 HD
ATOM     10  H   UNL     1      40.450  34.377  42.141  0.00  0.00    +0.000 HD
ATOM     11  H   UNL     1      39.651  35.986  40.648  0.00  0.00    +0.000 HD
ATOM     12  H   UNL     1      40.514  35.128  38.277  0.00  0.00    +0.000 HD
ATOM     13  H   UNL     1      41.029  36.717  38.875  0.00  0.00    +0.000 HD
ATOM     14  H   UNL     1      43.029  35.715  39.830  0.00  0.00    +0.000 HD
ENDROOT
BRANCH   6  17
ATOM     15 CL   UNL     1      42.083  37.698  37.515  0.00  0.00    +0.000 Cl
ATOM     16  C   UNL     1      42.963  36.279  36.984  0.00  0.00    +0.000 A 
ATOM     17  C   UNL     1      43.068  35.157  37.783  0.00  0.00    +0.000 A 
ATOM     18  C   UNL     1      43.771  34.049  37.338  0.00  0.00    +0.000 A 
ATOM     19  H   UNL     1      43.867  33.156  37.947  0.00  0.00    +0.000 HD
ATOM     20  C   UNL     1      44.377  34.027  36.108  0.00  0.00    +0.000 A 
ATOM     21  H   UNL     1      44.935  33.175  35.730  0.00  0.00    +0.000 HD
ATOM     22  C   UNL     1      44.295  35.139  35.271  0.00  0.00    +0.000 A 
ATOM     23  C   UNL     1      43.578  36.230  35.761  0.00  0.00    +0.000 A 
ENDBRANCH   6  17
BRANCH   2  27
ATOM     24  C   UNL     1      45.633  34.620  42.029  0.00  0.00    +0.000 A 
ATOM     25  C   UNL     1      44.902  35.653  42.628  0.00  0.00    +0.000 A 
ATOM     26  C   UNL     1      43.556  35.501  42.348  0.00  0.00    +0.000 A 
ATOM     27  N   UNL     1      43.498  34.403  41.599  0.00  0.00    +0.000 N 
ATOM     28  N   UNL     1      44.706  33.888  41.413  0.00  0.00    +0.000 NA
ATOM     29  H   UNL     1      45.448  36.406  43.207  0.00  0.00    +0.000 HD
ATOM     30  H   UNL     1      42.982  36.294  42.814  0.00  0.00    +0.000 HD
BRANCH  24  33
ATOM     31  C   UNL     1      49.359  35.138  41.973  0.00  0.00    +0.000 A 
ATOM     32  C   UNL     1      47.971  35.454  41.816  0.00  0.00    +0.000 A 
ATOM     33  C   UNL     1      47.083  34.455  42.127  0.00  0.00    +0.000 A 
ATOM     34  N   UNL     1      47.544  33.249  42.557  0.00  0.00    +0.000 NA
ATOM     35  C   UNL     1      48.858  32.979  42.696  0.00  0.00    +0.000 A 
ATOM     36  N   UNL     1      49.742  33.941  42.398  0.00  0.00    +0.000 NA
ATOM     37  H   UNL     1      50.047  35.937  41.723  0.00  0.00    +0.000 HD
ATOM     38  H   UNL     1      47.592  36.402  41.477  0.00  0.00    +0.000 HD
ATOM     39  H   UNL     1      49.096  31.982  43.047  0.00  0.00    +0.000 HD
ENDBRANCH  24  33
ENDBRANCH   2  27
TORSDOF 3
