
 OpenBabel03252500593D

 38 40  0  0  0  0  0  0  0  0999 V2000
   36.8030   29.0470   40.2150 O   0  0  0  0  0  0  0  0  0  0  0  0
   37.1750   30.4480   40.6830 P   0  0  1  0  0  0  0  0  0  0  0  0
   35.7440   31.1970   41.2180 O   0  0  0  0  0  0  0  0  0  0  0  0
   35.9580   32.0030   41.7770 H   0  0  0  0  0  0  0  0  0  0  0  0
   38.2220   30.3370   42.0030 O   0  0  0  0  0  0  0  0  0  0  0  0
   38.7340   28.3810   43.2030 C   0  0  0  0  0  0  0  0  0  0  0  0
   39.1290   29.3180   42.2630 C   0  0  0  0  0  0  0  0  0  0  0  0
   40.3860   29.1650   41.6610 C   0  0  0  0  0  0  0  0  0  0  0  0
   41.1290   28.1120   42.0400 N   0  0  0  0  0  0  0  0  0  0  0  0
   40.7360   27.2170   42.9490 C   0  0  0  0  0  0  0  0  0  0  0  0
   39.5360   27.3560   43.5300 N   0  0  0  0  0  0  0  0  0  0  0  0
   40.6430   29.9080   40.9460 H   0  0  0  0  0  0  0  0  0  0  0  0
   41.4240   26.3940   43.1830 H   0  0  0  0  0  0  0  0  0  0  0  0
   37.4480   28.4690   43.8720 C   0  0  0  0  0  0  0  0  0  0  0  0
   36.9670   29.4560   43.6400 H   0  0  0  0  0  0  0  0  0  0  0  0
   37.5460   28.4430   44.9800 H   0  0  0  0  0  0  0  0  0  0  0  0
   36.5330   27.3970   43.3610 C   0  0  0  0  0  0  0  0  0  0  0  0
   36.2040   26.7850   44.2450 H   0  0  0  0  0  0  0  0  0  0  0  0
   37.0520   26.6720   42.7000 H   0  0  0  0  0  0  0  0  0  0  0  0
   35.6130   27.8190   42.8850 H   0  0  0  0  0  0  0  0  0  0  0  0
   37.7750   31.3520   39.3980 O   0  0  0  0  0  0  0  0  0  0  0  0
   38.4930   32.5110   39.6600 C   0  0  0  0  0  0  0  0  0  0  0  0
   37.7770   33.6700   39.8980 C   0  0  0  0  0  0  0  0  0  0  0  0
   38.4060   34.8790   40.1710 C   0  0  0  0  0  0  0  0  0  0  0  0
   39.7670   34.8910   40.1960 N   0  0  0  0  0  0  0  0  0  0  0  0
   40.4490   33.7740   39.9670 C   0  0  0  0  0  0  0  0  0  0  0  0
   39.8420   32.6080   39.7050 N   0  0  0  0  0  0  0  0  0  0  0  0
   36.6960   33.6610   39.8780 H   0  0  0  0  0  0  0  0  0  0  0  0
   37.8750   35.7920   40.3590 H   0  0  0  0  0  0  0  0  0  0  0  0
   41.9450   33.5740   37.3230 Cl  0  0  0  0  0  0  0  0  0  0  0  0
   42.7090   33.7710   38.8880 C   0  0  0  0  0  0  0  0  0  0  0  0
   41.9070   33.8480   40.0080 C   0  0  0  0  0  0  0  0  0  0  0  0
   42.5540   34.0020   41.2180 C   0  0  0  0  0  0  0  0  0  0  0  0
   41.9960   34.0730   42.1580 H   0  0  0  0  0  0  0  0  0  0  0  0
   43.9240   34.0820   41.3610 C   0  0  0  0  0  0  0  0  0  0  0  0
   44.3950   34.2030   42.3190 H   0  0  0  0  0  0  0  0  0  0  0  0
   44.6560   33.9960   40.1770 C   0  0  0  0  0  3  0  0  0  0  0  0
   44.0850   33.8400   38.9260 C   0  0  0  0  0  3  0  0  0  0  0  0
  2  1  2  6  0  0  0
  2  3  1  0  0  0  0
  2  5  1  0  0  0  0
  3  4  1  0  0  0  0
  5  7  1  0  0  0  0
  6 11  1  0  0  0  0
  6 14  1  0  0  0  0
  7  6  2  0  0  0  0
  8  9  2  0  0  0  0
  8  7  1  0  0  0  0
  9 10  1  0  0  0  0
 10 13  1  0  0  0  0
 10 11  2  0  0  0  0
 12  8  1  0  0  0  0
 14 16  1  0  0  0  0
 15 14  1  0  0  0  0
 17 14  1  0  0  0  0
 17 18  1  0  0  0  0
 19 17  1  0  0  0  0
 20 17  1  0  0  0  0
 21 22  1  0  0  0  0
 21  2  1  0  0  0  0
 22 27  2  0  0  0  0
 22 23  1  0  0  0  0
 23 24  2  0  0  0  0
 24 25  1  0  0  0  0
 24 29  1  0  0  0  0
 26 32  1  0  0  0  0
 26 25  2  0  0  0  0
 27 26  1  0  0  0  0
 28 23  1  0  0  0  0
 30 31  1  0  0  0  0
 31 38  2  0  0  0  0
 31 32  1  0  0  0  0
 32 33  2  0  0  0  0
 33 35  1  0  0  0  0
 33 34  1  0  0  0  0
 35 36  1  0  0  0  0
 37 35  2  0  0  0  0
 38 37  1  0  0  0  0
M  END
>  <minimizedAffinity>
-6.11263609

$$$$

 OpenBabel03252500593D

 38 40  0  0  0  0  0  0  0  0999 V2000
   37.3390   32.6200   38.6340 O   0  0  0  0  0  0  0  0  0  0  0  0
   38.2500   31.6720   37.8660 P   0  0  1  0  0  0  0  0  0  0  0  0
   38.4040   32.2900   36.2880 O   0  0  0  0  0  0  0  0  0  0  0  0
   39.1880   31.8710   35.8210 H   0  0  0  0  0  0  0  0  0  0  0  0
   39.7850   31.6770   38.5700 O   0  0  0  0  0  0  0  0  0  0  0  0
   41.8240   32.2930   37.5750 C   0  0  0  0  0  0  0  0  0  0  0  0
   40.7730   32.6400   38.4060 C   0  0  0  0  0  0  0  0  0  0  0  0
   40.7890   33.9090   39.0030 C   0  0  0  0  0  0  0  0  0  0  0  0
   41.8310   34.7090   38.7260 N   0  0  0  0  0  0  0  0  0  0  0  0
   42.8390   34.3600   37.9230 C   0  0  0  0  0  0  0  0  0  0  0  0
   42.8320   33.1490   37.3480 N   0  0  0  0  0  0  0  0  0  0  0  0
   39.9610   34.1280   39.6310 H   0  0  0  0  0  0  0  0  0  0  0  0
   43.6420   35.0940   37.7650 H   0  0  0  0  0  0  0  0  0  0  0  0
   41.8810   30.9980   36.9200 C   0  0  0  0  0  0  0  0  0  0  0  0
   41.1160   30.9540   36.1010 H   0  0  0  0  0  0  0  0  0  0  0  0
   41.6230   30.1640   37.6100 H   0  0  0  0  0  0  0  0  0  0  0  0
   43.2260   30.8070   36.2840 C   0  0  0  0  0  0  0  0  0  0  0  0
   43.6710   29.8680   36.7130 H   0  0  0  0  0  0  0  0  0  0  0  0
   43.9450   31.6060   36.5580 H   0  0  0  0  0  0  0  0  0  0  0  0
   43.1520   30.6680   35.1760 H   0  0  0  0  0  0  0  0  0  0  0  0
   37.5460   30.1490   37.7500 O   0  0  0  0  0  0  0  0  0  0  0  0
   37.0780   29.5290   38.9000 C   0  0  0  0  0  0  0  0  0  0  0  0
   35.7360   29.6690   39.2040 C   0  0  0  0  0  0  0  0  0  0  0  0
   35.1740   29.0850   40.3330 C   0  0  0  0  0  0  0  0  0  0  0  0
   35.9930   28.3610   41.1440 N   0  0  0  0  0  0  0  0  0  0  0  0
   37.2810   28.2300   40.8460 C   0  0  0  0  0  0  0  0  0  0  0  0
   37.8230   28.7930   39.7570 N   0  0  0  0  0  0  0  0  0  0  0  0
   35.0850   30.2450   38.5600 H   0  0  0  0  0  0  0  0  0  0  0  0
   34.1370   29.1780   40.5910 H   0  0  0  0  0  0  0  0  0  0  0  0
   38.7260   29.7090   43.0800 Cl  0  0  0  0  0  0  0  0  0  0  0  0
   38.8200   27.9810   42.8060 C   0  0  0  0  0  0  0  0  0  0  0  0
   38.1110   27.4410   41.7530 C   0  0  0  0  0  0  0  0  0  0  0  0
   38.2160   26.0760   41.5770 C   0  0  0  0  0  0  0  0  0  0  0  0
   37.6870   25.5630   40.7660 H   0  0  0  0  0  0  0  0  0  0  0  0
   38.9730   25.2450   42.3780 C   0  0  0  0  0  0  0  0  0  0  0  0
   39.0320   24.1860   42.2120 H   0  0  0  0  0  0  0  0  0  0  0  0
   39.6560   25.8760   43.4180 C   0  0  0  0  0  3  0  0  0  0  0  0
   39.6040   27.2370   43.6620 C   0  0  0  0  0  3  0  0  0  0  0  0
  2  5  1  0  0  0  0
  2  1  2  1  0  0  0
  3  2  1  0  0  0  0
  4  3  1  0  0  0  0
  6  7  1  0  0  0  0
  7  5  1  0  0  0  0
  7  8  2  0  0  0  0
  8 12  1  0  0  0  0
  9  8  1  0  0  0  0
 10  9  2  0  0  0  0
 11  6  2  0  0  0  0
 11 10  1  0  0  0  0
 13 10  1  0  0  0  0
 14  6  1  0  0  0  0
 14 16  1  0  0  0  0
 15 14  1  0  0  0  0
 17 19  1  0  0  0  0
 17 18  1  0  0  0  0
 17 14  1  0  0  0  0
 20 17  1  0  0  0  0
 21  2  1  0  0  0  0
 21 22  1  0  0  0  0
 22 23  2  0  0  0  0
 22 27  1  0  0  0  0
 23 24  1  0  0  0  0
 24 29  1  0  0  0  0
 24 25  2  0  0  0  0
 26 25  1  0  0  0  0
 26 32  1  0  0  0  0
 27 26  2  0  0  0  0
 28 23  1  0  0  0  0
 31 30  1  0  0  0  0
 31 38  1  0  0  0  0
 32 31  2  0  0  0  0
 33 32  1  0  0  0  0
 33 35  2  0  0  0  0
 34 33  1  0  0  0  0
 35 37  1  0  0  0  0
 36 35  1  0  0  0  0
 37 38  2  0  0  0  0
M  END
>  <minimizedAffinity>
-5.9598279

$$$$

 OpenBabel03252500593D

 38 40  0  0  0  0  0  0  0  0999 V2000
   37.3850   32.6230   40.3460 O   0  0  0  0  0  0  0  0  0  0  0  0
   36.9600   31.1600   40.3580 P   0  0  1  0  0  0  0  0  0  0  0  0
   35.6030   31.0390   41.3770 O   0  0  0  0  0  0  0  0  0  0  0  0
   35.1220   30.1720   41.2190 H   0  0  0  0  0  0  0  0  0  0  0  0
   36.4790   30.7040   38.8050 O   0  0  0  0  0  0  0  0  0  0  0  0
   36.1430   28.5390   37.9510 C   0  0  0  0  0  0  0  0  0  0  0  0
   36.9740   29.6420   38.0590 C   0  0  0  0  0  0  0  0  0  0  0  0
   38.2210   29.5980   37.4210 C   0  0  0  0  0  0  0  0  0  0  0  0
   38.5290   28.4810   36.7420 N   0  0  0  0  0  0  0  0  0  0  0  0
   37.7180   27.4250   36.6460 C   0  0  0  0  0  0  0  0  0  0  0  0
   36.5230   27.4580   37.2530 N   0  0  0  0  0  0  0  0  0  0  0  0
   38.8220   30.4670   37.5330 H   0  0  0  0  0  0  0  0  0  0  0  0
   38.0710   26.5630   36.0640 H   0  0  0  0  0  0  0  0  0  0  0  0
   34.8350   28.5060   38.5830 C   0  0  0  0  0  0  0  0  0  0  0  0
   34.7470   29.3510   39.3150 H   0  0  0  0  0  0  0  0  0  0  0  0
   34.6790   27.5810   39.1800 H   0  0  0  0  0  0  0  0  0  0  0  0
   33.7650   28.6980   37.5500 C   0  0  0  0  0  0  0  0  0  0  0  0
   33.0790   27.8080   37.6060 H   0  0  0  0  0  0  0  0  0  0  0  0
   34.1620   28.6770   36.5140 H   0  0  0  0  0  0  0  0  0  0  0  0
   33.1470   29.6090   37.7480 H   0  0  0  0  0  0  0  0  0  0  0  0
   38.1770   30.2040   41.0140 O   0  0  0  0  0  0  0  0  0  0  0  0
   37.8410   29.0100   41.6380 C   0  0  0  0  0  0  0  0  0  0  0  0
   37.5410   29.0540   42.9880 C   0  0  0  0  0  0  0  0  0  0  0  0
   37.1920   27.9120   43.6990 C   0  0  0  0  0  0  0  0  0  0  0  0
   37.1550   26.7320   43.0220 N   0  0  0  0  0  0  0  0  0  0  0  0
   37.4440   26.6970   41.7260 C   0  0  0  0  0  0  0  0  0  0  0  0
   37.7800   27.7990   41.0390 N   0  0  0  0  0  0  0  0  0  0  0  0
   37.5710   29.9910   43.5270 H   0  0  0  0  0  0  0  0  0  0  0  0
   36.9550   27.9180   44.7450 H   0  0  0  0  0  0  0  0  0  0  0  0
   39.4230   24.5590   42.6100 Cl  0  0  0  0  0  0  0  0  0  0  0  0
   38.2220   24.3470   41.3510 C   0  0  0  0  0  0  0  0  0  0  0  0
   37.3870   25.4030   41.0520 C   0  0  0  0  0  0  0  0  0  0  0  0
   36.4590   25.1880   40.0520 C   0  0  0  0  0  0  0  0  0  0  0  0
   35.7550   25.9720   39.7500 H   0  0  0  0  0  0  0  0  0  0  0  0
   36.3260   24.0040   39.3570 C   0  0  0  0  0  0  0  0  0  0  0  0
   35.5910   23.8710   38.5850 H   0  0  0  0  0  0  0  0  0  0  0  0
   37.2100   22.9900   39.7260 C   0  0  0  0  0  3  0  0  0  0  0  0
   38.1700   23.1250   40.7150 C   0  0  0  0  0  3  0  0  0  0  0  0
  2  1  2  6  0  0  0
  2 21  1  0  0  0  0
  2  3  1  0  0  0  0
  4  3  1  0  0  0  0
  5  2  1  0  0  0  0
  6  7  1  0  0  0  0
  6 14  1  0  0  0  0
  7  5  1  0  0  0  0
  8 12  1  0  0  0  0
  8  7  2  0  0  0  0
  9  8  1  0  0  0  0
 10  9  2  0  0  0  0
 10 11  1  0  0  0  0
 11  6  2  0  0  0  0
 13 10  1  0  0  0  0
 14 16  1  0  0  0  0
 14 15  1  0  0  0  0
 17 18  1  0  0  0  0
 17 20  1  0  0  0  0
 17 14  1  0  0  0  0
 19 17  1  0  0  0  0
 21 22  1  0  0  0  0
 22 23  1  0  0  0  0
 23 28  1  0  0  0  0
 23 24  2  0  0  0  0
 24 29  1  0  0  0  0
 25 24  1  0  0  0  0
 26 25  2  0  0  0  0
 27 22  2  0  0  0  0
 27 26  1  0  0  0  0
 31 30  1  0  0  0  0
 32 31  1  0  0  0  0
 32 26  1  0  0  0  0
 33 32  2  0  0  0  0
 34 33  1  0  0  0  0
 35 37  2  0  0  0  0
 35 33  1  0  0  0  0
 36 35  1  0  0  0  0
 37 38  1  0  0  0  0
 38 31  2  0  0  0  0
M  END
>  <minimizedAffinity>
-5.92332554

$$$$

 OpenBabel03252500593D

 38 40  0  0  0  0  0  0  0  0999 V2000
   36.2400   27.3910   43.7730 O   0  0  0  0  0  0  0  0  0  0  0  0
   36.9410   28.1090   42.6270 P   0  0  1  0  0  0  0  0  0  0  0  0
   37.7090   29.4770   43.2850 O   0  0  0  0  0  0  0  0  0  0  0  0
   38.3960   29.8350   42.6470 H   0  0  0  0  0  0  0  0  0  0  0  0
   38.1400   27.1060   41.9880 O   0  0  0  0  0  0  0  0  0  0  0  0
   38.6910   24.8200   41.9770 C   0  0  0  0  0  0  0  0  0  0  0  0
   37.9580   25.8520   41.4170 C   0  0  0  0  0  0  0  0  0  0  0  0
   37.1100   25.5560   40.3400 C   0  0  0  0  0  0  0  0  0  0  0  0
   37.0640   24.2810   39.9220 N   0  0  0  0  0  0  0  0  0  0  0  0
   37.7770   23.2950   40.4710 C   0  0  0  0  0  0  0  0  0  0  0  0
   38.5910   23.5690   41.5010 N   0  0  0  0  0  0  0  0  0  0  0  0
   36.5690   26.3810   39.9450 H   0  0  0  0  0  0  0  0  0  0  0  0
   37.6630   22.2870   40.0500 H   0  0  0  0  0  0  0  0  0  0  0  0
   39.5910   25.0440   43.0950 C   0  0  0  0  0  0  0  0  0  0  0  0
   39.4770   24.2180   43.8450 H   0  0  0  0  0  0  0  0  0  0  0  0
   39.3520   25.9790   43.6480 H   0  0  0  0  0  0  0  0  0  0  0  0
   41.0130   25.0200   42.6160 C   0  0  0  0  0  0  0  0  0  0  0  0
   41.4810   26.0020   42.9020 H   0  0  0  0  0  0  0  0  0  0  0  0
   41.0900   24.9860   41.5100 H   0  0  0  0  0  0  0  0  0  0  0  0
   41.6080   24.2100   43.1070 H   0  0  0  0  0  0  0  0  0  0  0  0
   35.8160   28.6480   41.5000 O   0  0  0  0  0  0  0  0  0  0  0  0
   36.2360   29.4620   40.4570 C   0  0  0  0  0  0  0  0  0  0  0  0
   35.7940   29.1530   39.1840 C   0  0  0  0  0  0  0  0  0  0  0  0
   36.1590   29.9090   38.0760 C   0  0  0  0  0  0  0  0  0  0  0  0
   36.9770   30.9770   38.2820 N   0  0  0  0  0  0  0  0  0  0  0  0
   37.3980   31.2690   39.5080 C   0  0  0  0  0  0  0  0  0  0  0  0
   37.0450   30.5400   40.5770 N   0  0  0  0  0  0  0  0  0  0  0  0
   35.1440   28.3040   39.0190 H   0  0  0  0  0  0  0  0  0  0  0  0
   35.8310   29.6910   37.0790 H   0  0  0  0  0  0  0  0  0  0  0  0
   40.3990   30.8090   39.2830 Cl  0  0  0  0  0  0  0  0  0  0  0  0
   39.6490   32.3630   39.5910 C   0  0  0  0  0  0  0  0  0  0  0  0
   38.2740   32.4270   39.6680 C   0  0  0  0  0  0  0  0  0  0  0  0
   37.7290   33.6720   39.9140 C   0  0  0  0  0  0  0  0  0  0  0  0
   36.6460   33.8150   39.9910 H   0  0  0  0  0  0  0  0  0  0  0  0
   38.4700   34.8240   40.0800 C   0  0  0  0  0  0  0  0  0  0  0  0
   38.0130   35.7780   40.2690 H   0  0  0  0  0  0  0  0  0  0  0  0
   39.8520   34.6670   39.9850 C   0  0  0  0  0  3  0  0  0  0  0  0
   40.4770   33.4550   39.7430 C   0  0  0  0  0  3  0  0  0  0  0  0
  2  3  1  0  0  0  0
  2  1  2  1  0  0  0
  4  3  1  0  0  0  0
  5  2  1  0  0  0  0
  6 14  1  0  0  0  0
  7  6  2  0  0  0  0
  7  5  1  0  0  0  0
  8  7  1  0  0  0  0
  9  8  2  0  0  0  0
  9 10  1  0  0  0  0
 10 11  2  0  0  0  0
 11  6  1  0  0  0  0
 12  8  1  0  0  0  0
 13 10  1  0  0  0  0
 14 16  1  0  0  0  0
 14 15  1  0  0  0  0
 17 18  1  0  0  0  0
 17 14  1  0  0  0  0
 17 20  1  0  0  0  0
 19 17  1  0  0  0  0
 21  2  1  0  0  0  0
 22 27  1  0  0  0  0
 22 21  1  0  0  0  0
 23 22  2  0  0  0  0
 24 25  2  0  0  0  0
 24 23  1  0  0  0  0
 25 26  1  0  0  0  0
 26 32  1  0  0  0  0
 26 27  2  0  0  0  0
 28 23  1  0  0  0  0
 29 24  1  0  0  0  0
 30 31  1  0  0  0  0
 31 32  2  0  0  0  0
 31 38  1  0  0  0  0
 32 33  1  0  0  0  0
 33 34  1  0  0  0  0
 33 35  2  0  0  0  0
 35 36  1  0  0  0  0
 37 35  1  0  0  0  0
 38 37  2  0  0  0  0
M  END
>  <minimizedAffinity>
-5.81260109

$$$$

 OpenBabel03252500593D

 38 40  0  0  0  0  0  0  0  0999 V2000
   40.0050   30.2570   37.7570 O   0  0  0  0  0  0  0  0  0  0  0  0
   39.5410   31.6820   38.0290 P   0  0  1  0  0  0  0  0  0  0  0  0
   40.1710   32.6610   36.7880 O   0  0  0  0  0  0  0  0  0  0  0  0
   39.6910   33.5420   36.7580 H   0  0  0  0  0  0  0  0  0  0  0  0
   37.8570   31.7510   37.9310 O   0  0  0  0  0  0  0  0  0  0  0  0
   36.3790   29.9220   37.9310 C   0  0  0  0  0  0  0  0  0  0  0  0
   36.9500   30.9680   38.6350 C   0  0  0  0  0  0  0  0  0  0  0  0
   36.5740   31.1500   39.9740 C   0  0  0  0  0  0  0  0  0  0  0  0
   35.6800   30.2910   40.4870 N   0  0  0  0  0  0  0  0  0  0  0  0
   35.1370   29.2860   39.7960 C   0  0  0  0  0  0  0  0  0  0  0  0
   35.4900   29.1040   38.5150 N   0  0  0  0  0  0  0  0  0  0  0  0
   37.0390   31.9660   40.4710 H   0  0  0  0  0  0  0  0  0  0  0  0
   34.4140   28.6420   40.3150 H   0  0  0  0  0  0  0  0  0  0  0  0
   36.7150   29.6660   36.5410 C   0  0  0  0  0  0  0  0  0  0  0  0
   37.4620   30.4250   36.1860 H   0  0  0  0  0  0  0  0  0  0  0  0
   35.8370   29.7800   35.8670 H   0  0  0  0  0  0  0  0  0  0  0  0
   37.3550   28.3160   36.4110 C   0  0  0  0  0  0  0  0  0  0  0  0
   36.7400   27.7210   35.6800 H   0  0  0  0  0  0  0  0  0  0  0  0
   37.3110   27.7300   37.3520 H   0  0  0  0  0  0  0  0  0  0  0  0
   38.3930   28.3800   36.0010 H   0  0  0  0  0  0  0  0  0  0  0  0
   40.1730   32.2350   39.4860 O   0  0  0  0  0  0  0  0  0  0  0  0
   40.2930   31.3530   40.5510 C   0  0  0  0  0  0  0  0  0  0  0  0
   41.4940   31.3370   41.2380 C   0  0  0  0  0  0  0  0  0  0  0  0
   41.7090   30.4910   42.3190 C   0  0  0  0  0  0  0  0  0  0  0  0
   40.6920   29.6650   42.6880 N   0  0  0  0  0  0  0  0  0  0  0  0
   39.5410   29.6860   42.0240 C   0  0  0  0  0  0  0  0  0  0  0  0
   39.3330   30.5030   40.9820 N   0  0  0  0  0  0  0  0  0  0  0  0
   42.3020   31.9930   40.9460 H   0  0  0  0  0  0  0  0  0  0  0  0
   42.6300   30.4580   42.8690 H   0  0  0  0  0  0  0  0  0  0  0  0
   38.6100   27.5490   40.0660 Cl  0  0  0  0  0  0  0  0  0  0  0  0
   37.9700   27.7660   41.6830 C   0  0  0  0  0  0  0  0  0  0  0  0
   38.4860   28.7780   42.4660 C   0  0  0  0  0  0  0  0  0  0  0  0
   37.9490   28.9110   43.7310 C   0  0  0  0  0  0  0  0  0  0  0  0
   38.3000   29.6870   44.4200 H   0  0  0  0  0  0  0  0  0  0  0  0
   36.9510   28.1050   44.2400 C   0  0  0  0  0  0  0  0  0  0  0  0
   36.5570   28.2360   45.2310 H   0  0  0  0  0  0  0  0  0  0  0  0
   36.4900   27.1080   43.3810 C   0  0  0  0  0  3  0  0  0  0  0  0
   36.9730   26.9100   42.0990 C   0  0  0  0  0  3  0  0  0  0  0  0
  2  1  2  6  0  0  0
  2 21  1  0  0  0  0
  3  2  1  0  0  0  0
  4  3  1  0  0  0  0
  5  2  1  0  0  0  0
  5  7  1  0  0  0  0
  6 11  2  0  0  0  0
  6  7  1  0  0  0  0
  7  8  2  0  0  0  0
  8 12  1  0  0  0  0
  8  9  1  0  0  0  0
 10 13  1  0  0  0  0
 10  9  2  0  0  0  0
 11 10  1  0  0  0  0
 14  6  1  0  0  0  0
 15 14  1  0  0  0  0
 16 14  1  0  0  0  0
 17 14  1  0  0  0  0
 17 19  1  0  0  0  0
 18 17  1  0  0  0  0
 20 17  1  0  0  0  0
 21 22  1  0  0  0  0
 22 27  2  0  0  0  0
 22 23  1  0  0  0  0
 23 24  2  0  0  0  0
 24 25  1  0  0  0  0
 24 29  1  0  0  0  0
 26 32  1  0  0  0  0
 26 25  2  0  0  0  0
 27 26  1  0  0  0  0
 28 23  1  0  0  0  0
 30 31  1  0  0  0  0
 31 38  2  0  0  0  0
 31 32  1  0  0  0  0
 32 33  2  0  0  0  0
 33 35  1  0  0  0  0
 33 34  1  0  0  0  0
 35 36  1  0  0  0  0
 37 35  2  0  0  0  0
 38 37  1  0  0  0  0
M  END
>  <minimizedAffinity>
-5.80005217

$$$$

 OpenBabel03252500593D

 38 40  0  0  0  0  0  0  0  0999 V2000
   36.6200   26.6940   43.0520 O   0  0  0  0  0  0  0  0  0  0  0  0
   37.0400   28.0610   42.5260 P   0  0  1  0  0  0  0  0  0  0  0  0
   37.0900   29.1190   43.8570 O   0  0  0  0  0  0  0  0  0  0  0  0
   37.6080   29.9470   43.6280 H   0  0  0  0  0  0  0  0  0  0  0  0
   38.6010   27.9610   41.8910 O   0  0  0  0  0  0  0  0  0  0  0  0
   40.6270   28.7920   42.7480 C   0  0  0  0  0  0  0  0  0  0  0  0
   39.7720   27.7140   42.5970 C   0  0  0  0  0  0  0  0  0  0  0  0
   40.1490   26.4840   43.1570 C   0  0  0  0  0  0  0  0  0  0  0  0
   41.3230   26.4360   43.8070 N   0  0  0  0  0  0  0  0  0  0  0  0
   42.1380   27.4840   43.9440 C   0  0  0  0  0  0  0  0  0  0  0  0
   41.7860   28.6630   43.4120 N   0  0  0  0  0  0  0  0  0  0  0  0
   39.4610   25.6880   43.0150 H   0  0  0  0  0  0  0  0  0  0  0  0
   43.0750   27.3320   44.4970 H   0  0  0  0  0  0  0  0  0  0  0  0
   40.3090   30.0990   42.1970 C   0  0  0  0  0  0  0  0  0  0  0  0
   39.3450   30.4690   42.6350 H   0  0  0  0  0  0  0  0  0  0  0  0
   40.1390   30.0630   41.0990 H   0  0  0  0  0  0  0  0  0  0  0  0
   41.3770   31.0830   42.5720 C   0  0  0  0  0  0  0  0  0  0  0  0
   41.7850   31.5160   41.6170 H   0  0  0  0  0  0  0  0  0  0  0  0
   42.2520   30.6010   43.0540 H   0  0  0  0  0  0  0  0  0  0  0  0
   40.9740   31.9310   43.1780 H   0  0  0  0  0  0  0  0  0  0  0  0
   35.8910   28.6500   41.4490 O   0  0  0  0  0  0  0  0  0  0  0  0
   36.2980   29.4640   40.4000 C   0  0  0  0  0  0  0  0  0  0  0  0
   35.8170   29.1700   39.1370 C   0  0  0  0  0  0  0  0  0  0  0  0
   36.1660   29.9270   38.0250 C   0  0  0  0  0  0  0  0  0  0  0  0
   37.0080   30.9800   38.2150 N   0  0  0  0  0  0  0  0  0  0  0  0
   37.4650   31.2560   39.4310 C   0  0  0  0  0  0  0  0  0  0  0  0
   37.1280   30.5270   40.5050 N   0  0  0  0  0  0  0  0  0  0  0  0
   35.1490   28.3340   38.9840 H   0  0  0  0  0  0  0  0  0  0  0  0
   35.8090   29.7210   37.0350 H   0  0  0  0  0  0  0  0  0  0  0  0
   40.3720   30.8740   38.6100 Cl  0  0  0  0  0  0  0  0  0  0  0  0
   39.7030   32.3650   39.2430 C   0  0  0  0  0  0  0  0  0  0  0  0
   38.3650   32.3980   39.5760 C   0  0  0  0  0  0  0  0  0  0  0  0
   37.8840   33.5940   40.0700 C   0  0  0  0  0  0  0  0  0  0  0  0
   36.8340   33.7100   40.3600 H   0  0  0  0  0  0  0  0  0  0  0  0
   38.6520   34.7280   40.2440 C   0  0  0  0  0  0  0  0  0  0  0  0
   38.2440   35.6430   40.6320 H   0  0  0  0  0  0  0  0  0  0  0  0
   39.9930   34.6040   39.8810 C   0  0  0  0  0  3  0  0  0  0  0  0
   40.5530   33.4420   39.3800 C   0  0  0  0  0  3  0  0  0  0  0  0
  2  1  2  1  0  0  0
  2  3  1  0  0  0  0
  4  3  1  0  0  0  0
  5  2  1  0  0  0  0
  5  7  1  0  0  0  0
  6 11  1  0  0  0  0
  7  6  2  0  0  0  0
  7  8  1  0  0  0  0
  8  9  2  0  0  0  0
  9 10  1  0  0  0  0
 10 13  1  0  0  0  0
 11 10  2  0  0  0  0
 12  8  1  0  0  0  0
 14 17  1  0  0  0  0
 14 15  1  0  0  0  0
 14  6  1  0  0  0  0
 16 14  1  0  0  0  0
 17 19  1  0  0  0  0
 17 20  1  0  0  0  0
 18 17  1  0  0  0  0
 21  2  1  0  0  0  0
 22 27  1  0  0  0  0
 22 21  1  0  0  0  0
 23 22  2  0  0  0  0
 24 25  2  0  0  0  0
 24 23  1  0  0  0  0
 25 26  1  0  0  0  0
 26 32  1  0  0  0  0
 26 27  2  0  0  0  0
 28 23  1  0  0  0  0
 29 24  1  0  0  0  0
 30 31  1  0  0  0  0
 31 38  2  0  0  0  0
 31 32  1  0  0  0  0
 32 33  2  0  0  0  0
 33 35  1  0  0  0  0
 33 34  1  0  0  0  0
 35 36  1  0  0  0  0
 37 35  2  0  0  0  0
 38 37  1  0  0  0  0
M  END
>  <minimizedAffinity>
-5.73525715

$$$$

 OpenBabel03252500593D

 38 40  0  0  0  0  0  0  0  0999 V2000
   36.1980   28.0950   42.0560 O   0  0  0  0  0  0  0  0  0  0  0  0
   37.5400   28.2990   42.7490 P   0  0  1  0  0  0  0  0  0  0  0  0
   37.2280   29.0840   44.2270 O   0  0  0  0  0  0  0  0  0  0  0  0
   38.0200   29.0070   44.8390 H   0  0  0  0  0  0  0  0  0  0  0  0
   38.2230   26.7960   43.1000 O   0  0  0  0  0  0  0  0  0  0  0  0
   39.3440   25.2510   41.7280 C   0  0  0  0  0  0  0  0  0  0  0  0
   38.1570   25.6490   42.3190 C   0  0  0  0  0  0  0  0  0  0  0  0
   37.0080   24.8800   42.0850 C   0  0  0  0  0  0  0  0  0  0  0  0
   37.1380   23.8000   41.2980 N   0  0  0  0  0  0  0  0  0  0  0  0
   38.2890   23.4270   40.7340 C   0  0  0  0  0  0  0  0  0  0  0  0
   39.3920   24.1570   40.9520 N   0  0  0  0  0  0  0  0  0  0  0  0
   36.1230   25.2260   42.5600 H   0  0  0  0  0  0  0  0  0  0  0  0
   38.2810   22.5250   40.1080 H   0  0  0  0  0  0  0  0  0  0  0  0
   40.5780   25.9940   41.9200 C   0  0  0  0  0  0  0  0  0  0  0  0
   40.3570   26.9690   42.4280 H   0  0  0  0  0  0  0  0  0  0  0  0
   41.0610   26.2660   40.9560 H   0  0  0  0  0  0  0  0  0  0  0  0
   41.5010   25.2240   42.8170 C   0  0  0  0  0  0  0  0  0  0  0  0
   42.4630   25.0670   42.2550 H   0  0  0  0  0  0  0  0  0  0  0  0
   41.1340   24.1990   43.0300 H   0  0  0  0  0  0  0  0  0  0  0  0
   41.7480   25.7880   43.7510 H   0  0  0  0  0  0  0  0  0  0  0  0
   38.5230   29.3100   41.8330 O   0  0  0  0  0  0  0  0  0  0  0  0
   37.9570   30.0710   40.8190 C   0  0  0  0  0  0  0  0  0  0  0  0
   37.9610   31.4460   40.9710 C   0  0  0  0  0  0  0  0  0  0  0  0
   37.4190   32.2920   40.0100 C   0  0  0  0  0  0  0  0  0  0  0  0
   36.8750   31.7220   38.9010 N   0  0  0  0  0  0  0  0  0  0  0  0
   36.8750   30.4010   38.7610 C   0  0  0  0  0  0  0  0  0  0  0  0
   37.3980   29.5840   39.6880 N   0  0  0  0  0  0  0  0  0  0  0  0
   38.3930   31.9000   41.8520 H   0  0  0  0  0  0  0  0  0  0  0  0
   37.4090   33.3600   40.1030 H   0  0  0  0  0  0  0  0  0  0  0  0
   34.1670   29.0320   39.0240 Cl  0  0  0  0  0  0  0  0  0  0  0  0
   35.0580   29.2000   37.5240 C   0  0  0  0  0  0  0  0  0  0  0  0
   36.2770   29.8450   37.5490 C   0  0  0  0  0  0  0  0  0  0  0  0
   36.9420   29.9530   36.3440 C   0  0  0  0  0  0  0  0  0  0  0  0
   37.9150   30.4500   36.2720 H   0  0  0  0  0  0  0  0  0  0  0  0
   36.4620   29.4620   35.1470 C   0  0  0  0  0  0  0  0  0  0  0  0
   37.0060   29.5640   34.2260 H   0  0  0  0  0  0  0  0  0  0  0  0
   35.2230   28.8260   35.2130 C   0  0  0  0  0  3  0  0  0  0  0  0
   34.4940   28.6750   36.3800 C   0  0  0  0  0  3  0  0  0  0  0  0
  2  1  2  6  0  0  0
  2  5  1  0  0  0  0
  2  3  1  0  0  0  0
  3  4  1  0  0  0  0
  6 14  1  0  0  0  0
  6  7  1  0  0  0  0
  7  5  1  0  0  0  0
  8  7  2  0  0  0  0
  8 12  1  0  0  0  0
  9  8  1  0  0  0  0
 10 11  1  0  0  0  0
 10  9  2  0  0  0  0
 11  6  2  0  0  0  0
 13 10  1  0  0  0  0
 14 15  1  0  0  0  0
 14 17  1  0  0  0  0
 16 14  1  0  0  0  0
 17 19  1  0  0  0  0
 17 20  1  0  0  0  0
 18 17  1  0  0  0  0
 21  2  1  0  0  0  0
 22 23  1  0  0  0  0
 22 21  1  0  0  0  0
 23 28  1  0  0  0  0
 24 29  1  0  0  0  0
 24 23  2  0  0  0  0
 25 24  1  0  0  0  0
 26 25  2  0  0  0  0
 26 27  1  0  0  0  0
 27 22  2  0  0  0  0
 31 32  1  0  0  0  0
 31 30  1  0  0  0  0
 32 26  1  0  0  0  0
 33 32  2  0  0  0  0
 34 33  1  0  0  0  0
 35 37  2  0  0  0  0
 35 33  1  0  0  0  0
 36 35  1  0  0  0  0
 37 38  1  0  0  0  0
 38 31  2  0  0  0  0
M  END
>  <minimizedAffinity>
-5.72957706

$$$$

 OpenBabel03252500593D

 38 40  0  0  0  0  0  0  0  0999 V2000
   37.5140   32.6270   38.6850 O   0  0  0  0  0  0  0  0  0  0  0  0
   38.3020   31.6080   37.8710 P   0  0  1  0  0  0  0  0  0  0  0  0
   38.4640   32.2370   36.2990 O   0  0  0  0  0  0  0  0  0  0  0  0
   39.1870   31.7510   35.7990 H   0  0  0  0  0  0  0  0  0  0  0  0
   39.8510   31.4490   38.5230 O   0  0  0  0  0  0  0  0  0  0  0  0
   40.7780   32.5490   40.3830 C   0  0  0  0  0  0  0  0  0  0  0  0
   40.6590   32.4710   39.0060 C   0  0  0  0  0  0  0  0  0  0  0  0
   41.3490   33.4100   38.2260 C   0  0  0  0  0  0  0  0  0  0  0  0
   42.0850   34.3290   38.8720 N   0  0  0  0  0  0  0  0  0  0  0  0
   42.1900   34.3930   40.2010 C   0  0  0  0  0  0  0  0  0  0  0  0
   41.5340   33.4990   40.9550 N   0  0  0  0  0  0  0  0  0  0  0  0
   41.2260   33.3090   37.1750 H   0  0  0  0  0  0  0  0  0  0  0  0
   42.8200   35.1870   40.6250 H   0  0  0  0  0  0  0  0  0  0  0  0
   40.0950   31.6140   41.2610 C   0  0  0  0  0  0  0  0  0  0  0  0
   39.7420   30.7290   40.6690 H   0  0  0  0  0  0  0  0  0  0  0  0
   39.1770   32.0530   41.7120 H   0  0  0  0  0  0  0  0  0  0  0  0
   41.0470   31.1040   42.3010 C   0  0  0  0  0  0  0  0  0  0  0  0
   40.6050   31.3430   43.3080 H   0  0  0  0  0  0  0  0  0  0  0  0
   42.0190   31.6390   42.2910 H   0  0  0  0  0  0  0  0  0  0  0  0
   41.1740   29.9940   42.2470 H   0  0  0  0  0  0  0  0  0  0  0  0
   37.4470   30.1640   37.7580 O   0  0  0  0  0  0  0  0  0  0  0  0
   36.9960   29.5490   38.9170 C   0  0  0  0  0  0  0  0  0  0  0  0
   35.6610   29.7000   39.2460 C   0  0  0  0  0  0  0  0  0  0  0  0
   35.1160   29.1210   40.3860 C   0  0  0  0  0  0  0  0  0  0  0  0
   35.9440   28.3920   41.1830 N   0  0  0  0  0  0  0  0  0  0  0  0
   37.2260   28.2510   40.8610 C   0  0  0  0  0  0  0  0  0  0  0  0
   37.7520   28.8090   39.7610 N   0  0  0  0  0  0  0  0  0  0  0  0
   35.0020   30.2790   38.6140 H   0  0  0  0  0  0  0  0  0  0  0  0
   34.0850   29.2220   40.6640 H   0  0  0  0  0  0  0  0  0  0  0  0
   37.0880   25.2210   40.6050 Cl  0  0  0  0  0  0  0  0  0  0  0  0
   38.1040   26.0790   41.7460 C   0  0  0  0  0  0  0  0  0  0  0  0
   38.0670   27.4580   41.7540 C   0  0  0  0  0  0  0  0  0  0  0  0
   38.8840   28.0900   42.6700 C   0  0  0  0  0  0  0  0  0  0  0  0
   38.9180   29.1830   42.7450 H   0  0  0  0  0  0  0  0  0  0  0  0
   39.7130   27.4320   43.5550 C   0  0  0  0  0  0  0  0  0  0  0  0
   40.3370   27.9560   44.2550 H   0  0  0  0  0  0  0  0  0  0  0  0
   39.6870   26.0390   43.4770 C   0  0  0  0  0  3  0  0  0  0  0  0
   38.8970   25.3300   42.5890 C   0  0  0  0  0  3  0  0  0  0  0  0
  2  5  1  0  0  0  0
  2  1  2  1  0  0  0
  3  2  1  0  0  0  0
  4  3  1  0  0  0  0
  5  7  1  0  0  0  0
  6 11  1  0  0  0  0
  6 14  1  0  0  0  0
  7  6  2  0  0  0  0
  8  9  2  0  0  0  0
  8  7  1  0  0  0  0
  9 10  1  0  0  0  0
 10 13  1  0  0  0  0
 10 11  2  0  0  0  0
 12  8  1  0  0  0  0
 14 16  1  0  0  0  0
 14 17  1  0  0  0  0
 15 14  1  0  0  0  0
 17 18  1  0  0  0  0
 19 17  1  0  0  0  0
 20 17  1  0  0  0  0
 21  2  1  0  0  0  0
 21 22  1  0  0  0  0
 22 23  2  0  0  0  0
 22 27  1  0  0  0  0
 23 24  1  0  0  0  0
 24 29  1  0  0  0  0
 24 25  2  0  0  0  0
 26 25  1  0  0  0  0
 26 32  1  0  0  0  0
 27 26  2  0  0  0  0
 28 23  1  0  0  0  0
 30 31  1  0  0  0  0
 31 32  2  0  0  0  0
 31 38  1  0  0  0  0
 32 33  1  0  0  0  0
 33 34  1  0  0  0  0
 33 35  2  0  0  0  0
 35 36  1  0  0  0  0
 37 35  1  0  0  0  0
 38 37  2  0  0  0  0
M  END
>  <minimizedAffinity>
-5.67312193

$$$$

 OpenBabel03252500593D

 38 40  0  0  0  0  0  0  0  0999 V2000
   41.1750   29.1730   41.9740 O   0  0  0  0  0  0  0  0  0  0  0  0
   40.4400   30.5040   42.0770 P   0  0  1  0  0  0  0  0  0  0  0  0
   41.5240   31.6260   42.7570 O   0  0  0  0  0  0  0  0  0  0  0  0
   41.2000   32.5640   42.6050 H   0  0  0  0  0  0  0  0  0  0  0  0
   40.0460   31.0460   40.5270 O   0  0  0  0  0  0  0  0  0  0  0  0
   38.2530   31.7660   39.1870 C   0  0  0  0  0  0  0  0  0  0  0  0
   39.1490   32.0560   40.2020 C   0  0  0  0  0  0  0  0  0  0  0  0
   39.0820   33.3200   40.8060 C   0  0  0  0  0  0  0  0  0  0  0  0
   38.1440   34.1700   40.3580 N   0  0  0  0  0  0  0  0  0  0  0  0
   37.2860   33.8770   39.3780 C   0  0  0  0  0  0  0  0  0  0  0  0
   37.3440   32.6710   38.7940 N   0  0  0  0  0  0  0  0  0  0  0  0
   39.7890   33.4940   41.5790 H   0  0  0  0  0  0  0  0  0  0  0  0
   36.5590   34.6480   39.0890 H   0  0  0  0  0  0  0  0  0  0  0  0
   38.2590   30.4810   38.5110 C   0  0  0  0  0  0  0  0  0  0  0  0
   37.8910   29.6840   39.2090 H   0  0  0  0  0  0  0  0  0  0  0  0
   39.2840   30.1640   38.2160 H   0  0  0  0  0  0  0  0  0  0  0  0
   37.3210   30.5160   37.3410 C   0  0  0  0  0  0  0  0  0  0  0  0
   37.9160   30.2540   36.4230 H   0  0  0  0  0  0  0  0  0  0  0  0
   36.9310   31.5350   37.1370 H   0  0  0  0  0  0  0  0  0  0  0  0
   36.5010   29.7610   37.4360 H   0  0  0  0  0  0  0  0  0  0  0  0
   39.1270   30.3680   43.1170 O   0  0  0  0  0  0  0  0  0  0  0  0
   38.1360   29.4360   42.8420 C   0  0  0  0  0  0  0  0  0  0  0  0
   37.7800   28.5600   43.8510 C   0  0  0  0  0  0  0  0  0  0  0  0
   36.7980   27.5930   43.6720 C   0  0  0  0  0  0  0  0  0  0  0  0
   36.1880   27.5300   42.4570 N   0  0  0  0  0  0  0  0  0  0  0  0
   36.5350   28.3740   41.4910 C   0  0  0  0  0  0  0  0  0  0  0  0
   37.4820   29.3080   41.6640 N   0  0  0  0  0  0  0  0  0  0  0  0
   38.2640   28.6100   44.8170 H   0  0  0  0  0  0  0  0  0  0  0  0
   36.5030   26.9020   44.4370 H   0  0  0  0  0  0  0  0  0  0  0  0
   37.5640   26.2940   39.5200 Cl  0  0  0  0  0  0  0  0  0  0  0  0
   36.2050   27.3620   39.2240 C   0  0  0  0  0  0  0  0  0  0  0  0
   35.8460   28.2590   40.2080 C   0  0  0  0  0  0  0  0  0  0  0  0
   34.7710   29.0790   39.9290 C   0  0  0  0  0  0  0  0  0  0  0  0
   34.4170   29.8210   40.6530 H   0  0  0  0  0  0  0  0  0  0  0  0
   34.0560   29.0480   38.7490 C   0  0  0  0  0  0  0  0  0  0  0  0
   33.2230   29.7010   38.5650 H   0  0  0  0  0  0  0  0  0  0  0  0
   34.4880   28.1100   37.8120 C   0  0  0  0  0  3  0  0  0  0  0  0
   35.5560   27.2530   38.0130 C   0  0  0  0  0  3  0  0  0  0  0  0
  2  1  2  6  0  0  0
  2  3  1  0  0  0  0
  2 21  1  0  0  0  0
  4  3  1  0  0  0  0
  5  2  1  0  0  0  0
  6  7  1  0  0  0  0
  7  5  1  0  0  0  0
  7  8  2  0  0  0  0
  8 12  1  0  0  0  0
  9  8  1  0  0  0  0
 10  9  2  0  0  0  0
 11  6  2  0  0  0  0
 11 10  1  0  0  0  0
 13 10  1  0  0  0  0
 14  6  1  0  0  0  0
 14 15  1  0  0  0  0
 16 14  1  0  0  0  0
 17 20  1  0  0  0  0
 17 14  1  0  0  0  0
 18 17  1  0  0  0  0
 19 17  1  0  0  0  0
 22 21  1  0  0  0  0
 22 23  1  0  0  0  0
 23 28  1  0  0  0  0
 24 23  2  0  0  0  0
 24 29  1  0  0  0  0
 25 24  1  0  0  0  0
 26 27  1  0  0  0  0
 26 25  2  0  0  0  0
 27 22  2  0  0  0  0
 31 30  1  0  0  0  0
 31 32  1  0  0  0  0
 32 26  1  0  0  0  0
 33 32  2  0  0  0  0
 33 34  1  0  0  0  0
 35 33  1  0  0  0  0
 36 35  1  0  0  0  0
 37 38  1  0  0  0  0
 37 35  2  0  0  0  0
 38 31  2  0  0  0  0
M  END
>  <minimizedAffinity>
-5.66521406

$$$$
