
 OpenBabel03242519213D

 34 36  0  0  0  0  0  0  0  0999 V2000
   48.0840   33.5920   42.8190 C   0  0  0  0  0  0  0  0  0  0  0  0
   48.7880   34.8180   42.7710 C   0  0  0  0  0  0  0  0  0  0  0  0
   50.1580   34.8170   42.4800 C   0  0  0  0  0  0  0  0  0  0  0  0
   50.7380   33.5930   42.2560 N   0  0  0  0  0  0  0  0  0  0  0  0
   50.0360   32.4320   42.3090 C   0  0  0  0  0  0  0  0  0  0  0  0
   48.7290   32.4410   42.5870 N   0  0  0  0  0  0  0  0  0  0  0  0
   48.4130   35.7930   42.9310 H   0  0  0  0  0  0  0  0  0  0  0  0
   50.7570   35.7100   42.4260 H   0  0  0  0  0  0  0  0  0  0  0  0
   46.6480   33.6870   43.1370 C   0  0  0  0  0  0  0  0  0  0  0  0
   45.9380   34.6810   42.3090 C   0  0  0  0  0  0  0  0  0  0  0  0
   45.4840   35.8860   43.0780 C   0  0  0  0  0  0  0  0  0  0  0  0
   44.6220   35.5120   44.2710 C   0  0  0  0  0  0  0  0  0  0  0  0
   45.1300   34.3120   45.0270 C   0  0  0  0  0  0  0  0  0  0  0  0
   46.5440   33.9700   44.6300 C   0  0  0  0  0  0  0  0  0  0  0  0
   46.2290   32.6430   43.0260 H   0  0  0  0  0  0  0  0  0  0  0  0
   46.4850   35.0330   41.4200 H   0  0  0  0  0  0  0  0  0  0  0  0
   45.0060   34.2060   41.9070 H   0  0  0  0  0  0  0  0  0  0  0  0
   44.8280   36.5030   42.4070 H   0  0  0  0  0  0  0  0  0  0  0  0
   46.2570   36.5490   43.4490 H   0  0  0  0  0  0  0  0  0  0  0  0
   43.5480   35.3820   43.9650 H   0  0  0  0  0  0  0  0  0  0  0  0
   44.6080   36.3680   44.9750 H   0  0  0  0  0  0  0  0  0  0  0  0
   44.4920   33.4400   44.7070 H   0  0  0  0  0  0  0  0  0  0  0  0
   45.0740   34.4220   46.1080 H   0  0  0  0  0  0  0  0  0  0  0  0
   46.8380   33.0410   45.1560 H   0  0  0  0  0  0  0  0  0  0  0  0
   47.2490   34.7760   44.9230 H   0  0  0  0  0  0  0  0  0  0  0  0
   50.0520   31.6310   39.4530 Cl  0  0  0  0  0  0  0  0  0  0  0  0
   50.7770   30.6740   40.7540 C   0  0  0  0  0  0  0  0  0  0  0  0
   50.7050   31.1570   42.0610 C   0  0  0  0  0  0  0  0  0  0  0  0
   51.2600   30.4370   43.1020 C   0  0  0  0  0  0  0  0  0  0  0  0
   51.1730   30.8570   44.0780 H   0  0  0  0  0  0  0  0  0  0  0  0
   51.8810   29.2320   42.7970 C   0  0  0  0  0  0  0  0  0  0  0  0
   52.3120   28.6710   43.5910 H   0  0  0  0  0  0  0  0  0  0  0  0
   51.9550   28.7490   41.4980 C   0  0  0  0  0  0  0  0  0  0  0  0
   51.3930   29.4880   40.4800 C   0  0  0  0  0  0  0  0  0  0  0  0
  1  9  1  0  0  0  0
  2  1  1  0  0  0  0
  2  7  1  0  0  0  0
  3  2  2  0  0  0  0
  4  5  2  0  0  0  0
  4  3  1  0  0  0  0
  5  6  1  0  0  0  0
  6  1  2  0  0  0  0
  8  3  1  0  0  0  0
  9 14  1  0  0  0  0
 10 11  1  0  0  0  0
 10  9  1  0  0  0  0
 11 19  1  0  0  0  0
 11 12  1  0  0  0  0
 12 21  1  0  0  0  0
 12 13  1  0  0  0  0
 13 23  1  0  0  0  0
 14 25  1  0  0  0  0
 14 13  1  0  0  0  0
 14 24  1  0  0  0  0
 15  9  1  0  0  0  0
 16 10  1  0  0  0  0
 17 10  1  0  0  0  0
 18 11  1  0  0  0  0
 20 12  1  0  0  0  0
 22 13  1  0  0  0  0
 26 27  1  0  0  0  0
 27 28  1  0  0  0  0
 28  5  1  0  0  0  0
 28 29  2  0  0  0  0
 29 30  1  0  0  0  0
 31 29  1  0  0  0  0
 31 32  1  0  0  0  0
 33 31  2  0  0  0  0
 34 27  2  0  0  0  0
 34 33  1  0  0  0  0
M  END
>  <minimizedAffinity>
-4.49799013

>  <minimizedRMSD>
2.60811353

$$$$
