
 OpenBabel03252507073D

 24 25  0  0  0  0  0  0  0  0999 V2000
   44.6840   35.4600   44.8170 C   0  0  0  0  0  0  0  0  0  0  0  0
   45.2740   35.6800   43.5630 C   0  0  0  0  0  0  0  0  0  0  0  0
   46.2740   34.8120   43.1470 C   0  0  0  0  0  0  0  0  0  0  0  0
   46.6430   33.7820   43.9720 N   0  0  0  0  0  0  0  0  0  0  0  0
   46.0530   33.6090   45.1630 C   0  0  0  0  0  0  0  0  0  0  0  0
   45.0850   34.4290   45.5920 N   0  0  0  0  0  0  0  0  0  0  0  0
   43.8960   36.1060   45.1970 H   0  0  0  0  0  0  0  0  0  0  0  0
   44.9320   36.5160   42.9630 H   0  0  0  0  0  0  0  0  0  0  0  0
   45.4150   30.8830   44.1690 Cl  0  0  0  0  0  0  0  0  0  0  0  0
   46.2320   31.2040   45.7030 C   0  0  0  0  0  0  0  0  0  0  0  0
   46.4580   32.5060   46.0280 C   0  0  0  0  0  0  0  0  0  0  0  0
   47.0970   32.7250   47.2310 C   0  0  0  0  0  0  0  0  0  0  0  0
   47.3220   33.7300   47.5760 H   0  0  0  0  0  0  0  0  0  0  0  0
   47.4970   31.7110   48.0770 C   0  0  0  0  0  0  0  0  0  0  0  0
   47.9930   31.8730   49.0120 H   0  0  0  0  0  0  0  0  0  0  0  0
   47.2370   30.4170   47.6890 C   0  0  0  0  0  3  0  0  0  0  0  0
   46.6020   30.1370   46.4980 C   0  0  0  0  0  3  0  0  0  0  0  0
   46.8460   35.0480   41.9020 O   0  0  0  0  0  0  0  0  0  0  0  0
   48.6710   33.3660   41.0110 O   0  0  0  0  0  0  0  0  0  0  0  0
   48.5140   34.7240   41.6730 P   0  0  0  0  0  0  0  0  0  0  0  0
   49.1640   35.9660   40.7440 O   0  0  0  0  0  0  0  0  0  0  0  0
   48.9930   35.8630   39.7940 H   0  0  0  0  0  0  0  0  0  0  0  0
   49.2340   34.6740   43.2000 O   0  0  0  0  0  0  0  0  0  0  0  0
   50.1940   34.9040   43.0800 H   0  0  0  0  0  0  0  0  0  0  0  0
  1  7  1  0  0  0  0
  1  6  1  0  0  0  0
  2  1  2  0  0  0  0
  3  2  1  0  0  0  0
  3  4  2  0  0  0  0
  4  5  1  0  0  0  0
  5  6  2  0  0  0  0
  5 11  1  0  0  0  0
  8  2  1  0  0  0  0
  9 10  1  0  0  0  0
 10 11  2  0  0  0  0
 10 17  1  0  0  0  0
 11 12  1  0  0  0  0
 12 13  1  0  0  0  0
 12 14  2  0  0  0  0
 14 15  1  0  0  0  0
 16 14  1  0  0  0  0
 17 16  2  0  0  0  0
 18  3  1  0  0  0  0
 19 20  2  0  0  0  0
 20 18  1  0  0  0  0
 20 23  1  0  0  0  0
 21 20  1  0  0  0  0
 22 21  1  0  0  0  0
 24 23  1  0  0  0  0
M  END
>  <minimizedAffinity>
-5.5846014

>  <minimizedRMSD>
0.648906469

$$$$
