REMARK  Name = 
REMARK  3 active torsions:
REMARK  status: ('A' for Active; 'I' for Inactive)
REMARK    1  A    between atoms: C_2  and  C_14
REMARK    2  A    between atoms: C_9  and  C_16
REMARK    3  A    between atoms: C_19  and  C_32
REMARK                            x       y       z     vdW  Elec       q    Type
REMARK                         _______ _______ _______ _____ _____    ______ ____
ROOT
ATOM      1  C   UNL     1      47.267  31.390  45.150  0.00  0.00    +0.000 A 
ATOM      2  C   UNL     1      46.871  32.728  45.133  0.00  0.00    +0.000 A 
ATOM      3  C   UNL     1      46.236  33.327  46.205  0.00  0.00    +0.000 A 
ATOM      4  C   UNL     1      45.967  32.596  47.358  0.00  0.00    +0.000 A 
ATOM      5  N   UNL     1      45.381  32.852  48.557  0.00  0.00    +0.000 N 
ATOM      6  C   UNL     1      45.412  31.707  49.296  0.00  0.00    +0.000 A 
ATOM      7  N   UNL     1      46.020  30.762  48.534  0.00  0.00    +0.000 NA
ATOM      8  C   UNL     1      46.366  31.286  47.347  0.00  0.00    +0.000 A 
ATOM      9  C   UNL     1      46.994  30.652  46.319  0.00  0.00    +0.000 A 
ATOM     10  H   UNL     1      47.761  30.931  44.314  0.00  0.00    +0.000 HD
ATOM     11  H   UNL     1      45.932  34.375  46.177  0.00  0.00    +0.000 HD
ATOM     12  H   UNL     1      44.992  33.764  48.827  0.00  0.00    +0.000 HD
ATOM     13  H   UNL     1      45.035  31.565  50.287  0.00  0.00    +0.000 HD
ENDROOT
BRANCH   2  18
ATOM     14  C   UNL     1      46.473  35.179  42.432  0.00  0.00    +0.000 A 
ATOM     15  C   UNL     1      47.656  35.011  41.700  0.00  0.00    +0.000 A 
ATOM     16  C   UNL     1      48.581  34.061  42.135  0.00  0.00    +0.000 A 
ATOM     17  N   UNL     1      48.286  33.337  43.261  0.00  0.00    +0.000 NA
ATOM     18  C   UNL     1      47.136  33.522  43.946  0.00  0.00    +0.000 A 
ATOM     19  N   UNL     1      46.243  34.433  43.533  0.00  0.00    +0.000 NA
ATOM     20  H   UNL     1      45.702  35.899  42.158  0.00  0.00    +0.000 HD
ATOM     21  H   UNL     1      47.819  35.611  40.832  0.00  0.00    +0.000 HD
ATOM     22  H   UNL     1      49.507  33.903  41.595  0.00  0.00    +0.000 HD
ENDBRANCH   2  18
BRANCH   9  23
ATOM     23  C   UNL     1      47.384  29.243  46.400  0.00  0.00    +0.000 A 
ATOM     24  C   UNL     1      48.673  28.794  46.616  0.00  0.00    +0.000 A 
ATOM     25  C   UNL     1      48.539  27.394  46.612  0.00  0.00    +0.000 A 
ATOM     26  C   UNL     1      47.212  27.090  46.400  0.00  0.00    +0.000 A 
ATOM     27  O   UNL     1      46.573  28.232  46.282  0.00  0.00    +0.000 OA
ATOM     28  H   UNL     1      49.587  29.328  46.757  0.00  0.00    +0.000 HD
ATOM     29  H   UNL     1      49.323  26.641  46.749  0.00  0.00    +0.000 HD
BRANCH  26  32
ATOM     30 CL   UNL     1      47.556  25.425  48.861  0.00  0.00    +0.000 Cl
ATOM     31  C   UNL     1      46.727  24.905  47.404  0.00  0.00    +0.000 A 
ATOM     32  C   UNL     1      46.626  25.757  46.322  0.00  0.00    +0.000 A 
ATOM     33  C   UNL     1      45.979  25.368  45.167  0.00  0.00    +0.000 A 
ATOM     34  H   UNL     1      45.896  26.026  44.320  0.00  0.00    +0.000 HD
ATOM     35  C   UNL     1      45.419  24.110  45.077  0.00  0.00    +0.000 A 
ATOM     36  H   UNL     1      44.911  23.804  44.171  0.00  0.00    +0.000 HD
ATOM     37  C   UNL     1      45.536  23.281  46.173  0.00  0.00    +0.000 A 
ATOM     38  C   UNL     1      46.176  23.630  47.352  0.00  0.00    +0.000 A 
ENDBRANCH  26  32
ENDBRANCH   9  23
TORSDOF 3
