
 OpenBabel03242522283D

 38 41  0  0  0  0  0  0  0  0999 V2000
   40.0300   29.7870   40.3220 F   0  0  0  0  0  0  0  0  0  0  0  0
   39.1930   30.8660   40.1920 C   0  0  0  0  0  0  0  0  0  0  0  0
   39.5610   31.9310   39.4410 C   0  0  0  0  0  0  0  0  0  0  0  0
   38.6220   32.9350   39.3080 C   0  0  0  0  0  0  0  0  0  0  0  0
   37.3760   32.8730   39.8920 C   0  0  0  0  0  0  0  0  0  0  0  0
   37.1020   31.7530   40.6300 C   0  0  0  0  0  0  0  0  0  0  0  0
   37.9850   30.7290   40.8090 C   0  0  0  0  0  0  0  0  0  0  0  0
   39.0360   33.7500   38.6840 H   0  0  0  0  0  0  0  0  0  0  0  0
   36.8440   33.7520   39.6440 H   0  0  0  0  0  0  0  0  0  0  0  0
   36.1010   31.9700   40.8770 H   0  0  0  0  0  0  0  0  0  0  0  0
   37.5790   29.6380   41.6520 C   0  0  0  0  0  0  0  0  0  0  0  0
   38.1310   29.5130   42.9120 C   0  0  0  0  0  0  0  0  0  0  0  0
   37.7790   28.4270   43.6800 C   0  0  0  0  0  0  0  0  0  0  0  0
   36.8940   27.4710   43.2160 C   0  0  0  0  0  0  0  0  0  0  0  0
   36.3570   27.6460   41.9250 C   0  0  0  0  0  0  0  0  0  0  0  0
   36.7010   28.7280   41.1560 C   0  0  0  0  0  0  0  0  0  0  0  0
   38.8210   30.1220   43.4310 H   0  0  0  0  0  0  0  0  0  0  0  0
   38.1750   28.2590   44.6930 H   0  0  0  0  0  0  0  0  0  0  0  0
   36.6550   26.6220   43.8820 H   0  0  0  0  0  0  0  0  0  0  0  0
   35.6910   26.8300   41.7030 H   0  0  0  0  0  0  0  0  0  0  0  0
   38.1620   27.3870   38.9800 Cl  0  0  0  0  0  0  0  0  0  0  0  0
   36.5500   28.0170   38.9170 C   0  0  0  0  0  0  0  0  0  0  0  0
   35.8720   28.6260   39.9980 C   0  0  0  0  0  0  0  0  0  0  0  0
   34.5540   29.1030   39.8060 C   0  0  0  0  0  0  0  0  0  0  0  0
   34.1330   29.5470   40.6850 H   0  0  0  0  0  0  0  0  0  0  0  0
   33.9840   28.9520   38.5610 C   0  0  0  0  0  0  0  0  0  0  0  0
   32.9590   29.3380   38.4590 H   0  0  0  0  0  0  0  0  0  0  0  0
   34.6300   28.3620   37.4980 C   0  0  0  0  0  3  0  0  0  0  0  0
   35.9320   27.8870   37.6780 C   0  0  0  0  0  3  0  0  0  0  0  0
   42.3580   31.5990   36.9260 C   0  0  0  0  0  0  0  0  0  0  0  0
   41.0690   31.5870   37.4780 C   0  0  0  0  0  0  0  0  0  0  0  0
   40.8660   31.9220   38.7970 C   0  0  0  0  0  0  0  0  0  0  0  0
   41.9900   32.2570   39.5010 N   0  0  0  0  0  0  0  0  0  0  0  0
   43.2140   32.2610   38.9600 C   0  0  0  0  0  0  0  0  0  0  0  0
   43.3920   31.9340   37.6810 N   0  0  0  0  0  0  0  0  0  0  0  0
   42.3220   31.3070   35.8710 H   0  0  0  0  0  0  0  0  0  0  0  0
   40.1580   31.3290   36.9520 H   0  0  0  0  0  0  0  0  0  0  0  0
   44.0970   32.5270   39.5250 H   0  0  0  0  0  0  0  0  0  0  0  0
  2  1  1  0  0  0  0
  2  7  1  0  0  0  0
  3  2  2  0  0  0  0
  4  3  1  0  0  0  0
  4  5  2  0  0  0  0
  5  6  1  0  0  0  0
  6  7  2  0  0  0  0
  6 10  1  0  0  0  0
  7 11  1  0  0  0  0
  8  4  1  0  0  0  0
  9  5  1  0  0  0  0
 11 12  1  0  0  0  0
 12 17  1  0  0  0  0
 12 13  2  0  0  0  0
 13 18  1  0  0  0  0
 14 13  1  0  0  0  0
 14 19  1  0  0  0  0
 15 14  2  0  0  0  0
 16 11  2  0  0  0  0
 16 15  1  0  0  0  0
 20 15  1  0  0  0  0
 22 21  1  0  0  0  0
 22 23  1  0  0  0  0
 23 16  1  0  0  0  0
 24 23  2  0  0  0  0
 24 25  1  0  0  0  0
 26 24  1  0  0  0  0
 27 26  1  0  0  0  0
 28 29  1  0  0  0  0
 28 26  2  0  0  0  0
 29 22  2  0  0  0  0
 30 31  2  0  0  0  0
 30 35  1  0  0  0  0
 31 32  1  0  0  0  0
 32  3  1  0  0  0  0
 32 33  2  0  0  0  0
 34 33  1  0  0  0  0
 34 38  1  0  0  0  0
 35 34  2  0  0  0  0
 36 30  1  0  0  0  0
 37 31  1  0  0  0  0
M  END
>  <minimizedAffinity>
-6.44613838

$$$$

 OpenBabel03242522283D

 38 41  0  0  0  0  0  0  0  0999 V2000
   39.2580   28.5760   39.5860 F   0  0  0  0  0  0  0  0  0  0  0  0
   38.9050   28.3580   40.8940 C   0  0  0  0  0  0  0  0  0  0  0  0
   39.0200   27.1220   41.4360 C   0  0  0  0  0  0  0  0  0  0  0  0
   38.7140   27.0160   42.7790 C   0  0  0  0  0  0  0  0  0  0  0  0
   38.3190   28.0930   43.5400 C   0  0  0  0  0  0  0  0  0  0  0  0
   38.2360   29.2990   42.8980 C   0  0  0  0  0  0  0  0  0  0  0  0
   38.5150   29.4730   41.5750 C   0  0  0  0  0  0  0  0  0  0  0  0
   38.8350   25.9650   43.1050 H   0  0  0  0  0  0  0  0  0  0  0  0
   38.1460   27.7610   44.5290 H   0  0  0  0  0  0  0  0  0  0  0  0
   37.9830   29.9000   43.7260 H   0  0  0  0  0  0  0  0  0  0  0  0
   38.3360   30.7870   41.0210 C   0  0  0  0  0  0  0  0  0  0  0  0
   39.2280   31.7890   41.3480 C   0  0  0  0  0  0  0  0  0  0  0  0
   39.0040   33.0550   40.8590 C   0  0  0  0  0  0  0  0  0  0  0  0
   37.9140   33.3380   40.0580 C   0  0  0  0  0  0  0  0  0  0  0  0
   37.0340   32.2800   39.7510 C   0  0  0  0  0  0  0  0  0  0  0  0
   37.2540   31.0150   40.2310 C   0  0  0  0  0  0  0  0  0  0  0  0
   40.1000   31.7740   41.9450 H   0  0  0  0  0  0  0  0  0  0  0  0
   39.6700   33.9050   41.0750 H   0  0  0  0  0  0  0  0  0  0  0  0
   37.7900   34.3760   39.7010 H   0  0  0  0  0  0  0  0  0  0  0  0
   36.2400   32.6480   39.1250 H   0  0  0  0  0  0  0  0  0  0  0  0
   37.9020   30.5920   37.3900 Cl  0  0  0  0  0  0  0  0  0  0  0  0
   36.5050   30.0160   38.2350 C   0  0  0  0  0  0  0  0  0  0  0  0
   36.2480   30.2140   39.6120 C   0  0  0  0  0  0  0  0  0  0  0  0
   35.0590   29.6910   40.1740 C   0  0  0  0  0  0  0  0  0  0  0  0
   34.9600   29.8980   41.2200 H   0  0  0  0  0  0  0  0  0  0  0  0
   34.1960   29.0060   39.3480 C   0  0  0  0  0  0  0  0  0  0  0  0
   33.2860   28.6180   39.8300 H   0  0  0  0  0  0  0  0  0  0  0  0
   34.4310   28.8040   38.0060 C   0  0  0  0  0  3  0  0  0  0  0  0
   35.6020   29.3160   37.4420 C   0  0  0  0  0  3  0  0  0  0  0  0
   41.2060   24.7520   39.4710 C   0  0  0  0  0  0  0  0  0  0  0  0
   40.8210   25.8290   40.2830 C   0  0  0  0  0  0  0  0  0  0  0  0
   39.4970   26.0290   40.6030 C   0  0  0  0  0  0  0  0  0  0  0  0
   38.6190   25.1180   40.0810 N   0  0  0  0  0  0  0  0  0  0  0  0
   39.0040   24.0970   39.3060 C   0  0  0  0  0  0  0  0  0  0  0  0
   40.2890   23.9190   39.0060 N   0  0  0  0  0  0  0  0  0  0  0  0
   42.2930   24.7550   39.3270 H   0  0  0  0  0  0  0  0  0  0  0  0
   41.4860   26.5660   40.7130 H   0  0  0  0  0  0  0  0  0  0  0  0
   38.3030   23.3830   38.8970 H   0  0  0  0  0  0  0  0  0  0  0  0
  1  2  1  0  0  0  0
  2  3  2  0  0  0  0
  2  7  1  0  0  0  0
  3  4  1  0  0  0  0
  4  8  1  0  0  0  0
  4  5  2  0  0  0  0
  5  9  1  0  0  0  0
  6  5  1  0  0  0  0
  6 10  1  0  0  0  0
  7  6  2  0  0  0  0
 11 12  1  0  0  0  0
 11  7  1  0  0  0  0
 12 17  1  0  0  0  0
 13 18  1  0  0  0  0
 13 12  2  0  0  0  0
 14 13  1  0  0  0  0
 15 14  2  0  0  0  0
 15 16  1  0  0  0  0
 16 11  2  0  0  0  0
 19 14  1  0  0  0  0
 20 15  1  0  0  0  0
 21 22  1  0  0  0  0
 22 23  1  0  0  0  0
 23 24  2  0  0  0  0
 23 16  1  0  0  0  0
 24 25  1  0  0  0  0
 26 27  1  0  0  0  0
 26 24  1  0  0  0  0
 28 26  2  0  0  0  0
 29 28  1  0  0  0  0
 29 22  2  0  0  0  0
 30 31  1  0  0  0  0
 31 32  2  0  0  0  0
 31 37  1  0  0  0  0
 32  3  1  0  0  0  0
 33 32  1  0  0  0  0
 34 33  2  0  0  0  0
 35 34  1  0  0  0  0
 35 30  2  0  0  0  0
 36 30  1  0  0  0  0
 38 34  1  0  0  0  0
M  END
>  <minimizedAffinity>
-6.22340345

$$$$

 OpenBabel03242522283D

 38 41  0  0  0  0  0  0  0  0999 V2000
   38.2090   28.2280   39.8140 F   0  0  0  0  0  0  0  0  0  0  0  0
   37.8530   28.0800   41.1310 C   0  0  0  0  0  0  0  0  0  0  0  0
   37.7310   29.1650   41.9330 C   0  0  0  0  0  0  0  0  0  0  0  0
   37.2950   28.9230   43.2210 C   0  0  0  0  0  0  0  0  0  0  0  0
   36.9900   27.6610   43.6800 C   0  0  0  0  0  0  0  0  0  0  0  0
   37.1440   26.6330   42.7900 C   0  0  0  0  0  0  0  0  0  0  0  0
   37.5780   26.7990   41.5080 C   0  0  0  0  0  0  0  0  0  0  0  0
   37.2430   29.8770   43.7800 H   0  0  0  0  0  0  0  0  0  0  0  0
   36.6780   27.7350   44.6870 H   0  0  0  0  0  0  0  0  0  0  0  0
   36.7870   25.8470   43.3950 H   0  0  0  0  0  0  0  0  0  0  0  0
   37.7420   25.6220   40.7000 C   0  0  0  0  0  0  0  0  0  0  0  0
   36.6400   25.0630   40.0830 C   0  0  0  0  0  0  0  0  0  0  0  0
   36.8060   23.9010   39.3660 C   0  0  0  0  0  0  0  0  0  0  0  0
   38.0410   23.2910   39.2550 C   0  0  0  0  0  0  0  0  0  0  0  0
   39.1350   23.9020   39.9000 C   0  0  0  0  0  0  0  0  0  0  0  0
   38.9770   25.0630   40.6140 C   0  0  0  0  0  0  0  0  0  0  0  0
   35.6290   25.3680   40.0610 H   0  0  0  0  0  0  0  0  0  0  0  0
   35.9760   23.3960   38.8470 H   0  0  0  0  0  0  0  0  0  0  0  0
   38.1060   22.3570   38.6670 H   0  0  0  0  0  0  0  0  0  0  0  0
   40.0220   23.3190   39.7280 H   0  0  0  0  0  0  0  0  0  0  0  0
   39.5750   24.0360   43.3080 Cl  0  0  0  0  0  0  0  0  0  0  0  0
   40.6160   24.9870   42.3020 C   0  0  0  0  0  0  0  0  0  0  0  0
   40.3010   25.4330   40.9980 C   0  0  0  0  0  0  0  0  0  0  0  0
   41.2460   26.2110   40.2880 C   0  0  0  0  0  0  0  0  0  0  0  0
   40.9090   26.4980   39.3120 H   0  0  0  0  0  0  0  0  0  0  0  0
   42.4430   26.5030   40.9040 C   0  0  0  0  0  0  0  0  0  0  0  0
   43.1450   27.1100   40.3140 H   0  0  0  0  0  0  0  0  0  0  0  0
   42.7650   26.0770   42.1730 C   0  0  0  0  0  3  0  0  0  0  0  0
   41.8390   25.3080   42.8830 C   0  0  0  0  0  3  0  0  0  0  0  0
   37.4380   32.4900   40.1690 C   0  0  0  0  0  0  0  0  0  0  0  0
   37.0970   31.2260   40.6710 C   0  0  0  0  0  0  0  0  0  0  0  0
   38.0100   30.4830   41.3830 C   0  0  0  0  0  0  0  0  0  0  0  0
   39.2380   31.0620   41.5540 N   0  0  0  0  0  0  0  0  0  0  0  0
   39.5480   32.2690   41.0660 C   0  0  0  0  0  0  0  0  0  0  0  0
   38.6520   32.9750   40.3790 N   0  0  0  0  0  0  0  0  0  0  0  0
   36.5880   32.9290   39.6330 H   0  0  0  0  0  0  0  0  0  0  0  0
   36.1370   30.7380   40.5560 H   0  0  0  0  0  0  0  0  0  0  0  0
   40.5210   32.7180   41.2060 H   0  0  0  0  0  0  0  0  0  0  0  0
  1  2  1  0  0  0  0
  2  7  2  0  0  0  0
  2  3  1  0  0  0  0
  3  4  2  0  0  0  0
  4  5  1  0  0  0  0
  4  8  1  0  0  0  0
  5  9  1  0  0  0  0
  6 10  1  0  0  0  0
  6  5  2  0  0  0  0
  7  6  1  0  0  0  0
 11  7  1  0  0  0  0
 12 11  2  0  0  0  0
 13 12  1  0  0  0  0
 14 13  2  0  0  0  0
 14 15  1  0  0  0  0
 15 16  2  0  0  0  0
 16 11  1  0  0  0  0
 16 23  1  0  0  0  0
 17 12  1  0  0  0  0
 18 13  1  0  0  0  0
 19 14  1  0  0  0  0
 20 15  1  0  0  0  0
 22 29  1  0  0  0  0
 22 21  1  0  0  0  0
 23 22  2  0  0  0  0
 24 26  2  0  0  0  0
 24 23  1  0  0  0  0
 25 24  1  0  0  0  0
 26 28  1  0  0  0  0
 27 26  1  0  0  0  0
 28 29  2  0  0  0  0
 30 35  2  0  0  0  0
 30 31  1  0  0  0  0
 31 32  2  0  0  0  0
 32 33  1  0  0  0  0
 32  3  1  0  0  0  0
 34 38  1  0  0  0  0
 34 33  2  0  0  0  0
 35 34  1  0  0  0  0
 36 30  1  0  0  0  0
 37 31  1  0  0  0  0
M  END
>  <minimizedAffinity>
-6.14453268

$$$$

 OpenBabel03242522283D

 38 41  0  0  0  0  0  0  0  0999 V2000
   39.5610   26.8760   40.8140 F   0  0  0  0  0  0  0  0  0  0  0  0
   38.6160   27.2700   41.7280 C   0  0  0  0  0  0  0  0  0  0  0  0
   37.5050   26.5220   41.9290 C   0  0  0  0  0  0  0  0  0  0  0  0
   36.6500   26.9590   42.9220 C   0  0  0  0  0  0  0  0  0  0  0  0
   36.8980   28.0820   43.6790 C   0  0  0  0  0  0  0  0  0  0  0  0
   38.0490   28.7670   43.3980 C   0  0  0  0  0  0  0  0  0  0  0  0
   38.9330   28.3970   42.4270 C   0  0  0  0  0  0  0  0  0  0  0  0
   35.7800   26.2780   42.9880 H   0  0  0  0  0  0  0  0  0  0  0  0
   36.1060   28.2060   44.3680 H   0  0  0  0  0  0  0  0  0  0  0  0
   37.9840   29.5000   44.1520 H   0  0  0  0  0  0  0  0  0  0  0  0
   40.0760   29.2410   42.2070 C   0  0  0  0  0  0  0  0  0  0  0  0
   41.2640   28.9550   42.8510 C   0  0  0  0  0  0  0  0  0  0  0  0
   42.3280   29.8090   42.6780 C   0  0  0  0  0  0  0  0  0  0  0  0
   42.2290   30.9350   41.8820 C   0  0  0  0  0  0  0  0  0  0  0  0
   40.9960   31.1800   41.2440 C   0  0  0  0  0  0  0  0  0  0  0  0
   39.9330   30.3300   41.4090 C   0  0  0  0  0  0  0  0  0  0  0  0
   41.5290   28.1640   43.4990 H   0  0  0  0  0  0  0  0  0  0  0  0
   43.3060   29.6490   43.1580 H   0  0  0  0  0  0  0  0  0  0  0  0
   43.1200   31.5810   41.7870 H   0  0  0  0  0  0  0  0  0  0  0  0
   41.0690   32.0830   40.6630 H   0  0  0  0  0  0  0  0  0  0  0  0
   40.2860   29.1730   38.7240 Cl  0  0  0  0  0  0  0  0  0  0  0  0
   39.0870   30.3230   39.2110 C   0  0  0  0  0  0  0  0  0  0  0  0
   38.9310   30.8300   40.5230 C   0  0  0  0  0  0  0  0  0  0  0  0
   37.9090   31.7730   40.7810 C   0  0  0  0  0  0  0  0  0  0  0  0
   37.8780   32.0930   41.8030 H   0  0  0  0  0  0  0  0  0  0  0  0
   37.1020   32.1610   39.7340 C   0  0  0  0  0  0  0  0  0  0  0  0
   36.3220   32.8960   39.9830 H   0  0  0  0  0  0  0  0  0  0  0  0
   37.2400   31.6780   38.4520 C   0  0  0  0  0  3  0  0  0  0  0  0
   38.2470   30.7460   38.1870 C   0  0  0  0  0  3  0  0  0  0  0  0
   37.6340   22.9650   40.6690 C   0  0  0  0  0  0  0  0  0  0  0  0
   37.8550   24.0900   41.4780 C   0  0  0  0  0  0  0  0  0  0  0  0
   37.3190   25.3120   41.1440 C   0  0  0  0  0  0  0  0  0  0  0  0
   36.5750   25.3370   39.9960 N   0  0  0  0  0  0  0  0  0  0  0  0
   36.3750   24.2540   39.2340 C   0  0  0  0  0  0  0  0  0  0  0  0
   36.9030   23.0790   39.5720 N   0  0  0  0  0  0  0  0  0  0  0  0
   38.1360   22.0880   41.0930 H   0  0  0  0  0  0  0  0  0  0  0  0
   38.4360   24.1070   42.3910 H   0  0  0  0  0  0  0  0  0  0  0  0
   35.7860   24.2840   38.3280 H   0  0  0  0  0  0  0  0  0  0  0  0
  1  2  1  0  0  0  0
  2  3  2  0  0  0  0
  2  7  1  0  0  0  0
  3  4  1  0  0  0  0
  4  8  1  0  0  0  0
  4  5  2  0  0  0  0
  5  9  1  0  0  0  0
  6  5  1  0  0  0  0
  6 10  1  0  0  0  0
  7  6  2  0  0  0  0
 11  7  1  0  0  0  0
 11 12  1  0  0  0  0
 12 17  1  0  0  0  0
 13 12  2  0  0  0  0
 13 18  1  0  0  0  0
 14 13  1  0  0  0  0
 15 16  1  0  0  0  0
 15 14  2  0  0  0  0
 16 11  2  0  0  0  0
 19 14  1  0  0  0  0
 20 15  1  0  0  0  0
 21 22  1  0  0  0  0
 22 23  1  0  0  0  0
 23 24  2  0  0  0  0
 23 16  1  0  0  0  0
 24 25  1  0  0  0  0
 26 27  1  0  0  0  0
 26 24  1  0  0  0  0
 28 26  2  0  0  0  0
 29 28  1  0  0  0  0
 29 22  2  0  0  0  0
 30 36  1  0  0  0  0
 30 31  1  0  0  0  0
 31 37  1  0  0  0  0
 32 31  2  0  0  0  0
 32  3  1  0  0  0  0
 33 32  1  0  0  0  0
 34 35  1  0  0  0  0
 34 33  2  0  0  0  0
 35 30  2  0  0  0  0
 38 34  1  0  0  0  0
M  END
>  <minimizedAffinity>
-6.13896465

$$$$

 OpenBabel03242522283D

 38 41  0  0  0  0  0  0  0  0999 V2000
   37.9140   28.8640   38.1650 F   0  0  0  0  0  0  0  0  0  0  0  0
   36.6600   28.9950   38.7060 C   0  0  0  0  0  0  0  0  0  0  0  0
   35.5650   28.9650   37.9090 C   0  0  0  0  0  0  0  0  0  0  0  0
   34.3440   29.0280   38.5510 C   0  0  0  0  0  0  0  0  0  0  0  0
   34.2250   29.1100   39.9210 C   0  0  0  0  0  0  0  0  0  0  0  0
   35.3920   29.1310   40.6360 C   0  0  0  0  0  0  0  0  0  0  0  0
   36.6300   29.0810   40.0660 C   0  0  0  0  0  0  0  0  0  0  0  0
   33.5300   29.0040   37.8020 H   0  0  0  0  0  0  0  0  0  0  0  0
   33.1980   29.1420   40.1680 H   0  0  0  0  0  0  0  0  0  0  0  0
   34.9810   29.1330   41.6060 H   0  0  0  0  0  0  0  0  0  0  0  0
   37.7700   29.1640   40.9380 C   0  0  0  0  0  0  0  0  0  0  0  0
   38.2260   30.4030   41.3420 C   0  0  0  0  0  0  0  0  0  0  0  0
   39.3560   30.4660   42.1240 C   0  0  0  0  0  0  0  0  0  0  0  0
   40.0340   29.3230   42.5060 C   0  0  0  0  0  0  0  0  0  0  0  0
   39.5260   28.0830   42.0700 C   0  0  0  0  0  0  0  0  0  0  0  0
   38.3980   28.0130   41.2940 C   0  0  0  0  0  0  0  0  0  0  0  0
   37.8590   31.3750   41.1480 H   0  0  0  0  0  0  0  0  0  0  0  0
   39.7800   31.4150   42.4860 H   0  0  0  0  0  0  0  0  0  0  0  0
   40.9360   29.4420   43.1330 H   0  0  0  0  0  0  0  0  0  0  0  0
   40.1530   27.2910   42.4420 H   0  0  0  0  0  0  0  0  0  0  0  0
   36.5030   27.1550   43.3770 Cl  0  0  0  0  0  0  0  0  0  0  0  0
   37.2500   26.1570   42.1750 C   0  0  0  0  0  0  0  0  0  0  0  0
   38.1310   26.6170   41.1690 C   0  0  0  0  0  0  0  0  0  0  0  0
   38.6760   25.6880   40.2520 C   0  0  0  0  0  0  0  0  0  0  0  0
   39.3310   26.1380   39.5330 H   0  0  0  0  0  0  0  0  0  0  0  0
   38.3200   24.3630   40.3790 C   0  0  0  0  0  0  0  0  0  0  0  0
   38.7680   23.6790   39.6430 H   0  0  0  0  0  0  0  0  0  0  0  0
   37.4640   23.8990   41.3520 C   0  0  0  0  0  3  0  0  0  0  0  0
   36.9210   24.8080   42.2630 C   0  0  0  0  0  3  0  0  0  0  0  0
   35.6830   27.5910   34.3940 C   0  0  0  0  0  0  0  0  0  0  0  0
   35.4860   27.6580   35.7810 C   0  0  0  0  0  0  0  0  0  0  0  0
   35.7430   28.8190   36.4730 C   0  0  0  0  0  0  0  0  0  0  0  0
   36.1920   29.8680   35.7180 N   0  0  0  0  0  0  0  0  0  0  0  0
   36.3760   29.7870   34.3940 C   0  0  0  0  0  0  0  0  0  0  0  0
   36.1230   28.6550   33.7420 N   0  0  0  0  0  0  0  0  0  0  0  0
   35.4260   26.5930   34.0220 H   0  0  0  0  0  0  0  0  0  0  0  0
   35.1320   26.8490   36.4090 H   0  0  0  0  0  0  0  0  0  0  0  0
   36.7320   30.6220   33.8070 H   0  0  0  0  0  0  0  0  0  0  0  0
  1  2  1  0  0  0  0
  2  7  1  0  0  0  0
  3  4  1  0  0  0  0
  3  2  2  0  0  0  0
  4  5  2  0  0  0  0
  5  9  1  0  0  0  0
  5  6  1  0  0  0  0
  6 10  1  0  0  0  0
  7  6  2  0  0  0  0
  7 11  1  0  0  0  0
  8  4  1  0  0  0  0
 11 16  2  0  0  0  0
 11 12  1  0  0  0  0
 12 13  2  0  0  0  0
 13 18  1  0  0  0  0
 13 14  1  0  0  0  0
 14 19  1  0  0  0  0
 15 20  1  0  0  0  0
 15 14  2  0  0  0  0
 16 15  1  0  0  0  0
 17 12  1  0  0  0  0
 22 29  1  0  0  0  0
 22 21  1  0  0  0  0
 23 16  1  0  0  0  0
 23 22  2  0  0  0  0
 24 26  2  0  0  0  0
 24 23  1  0  0  0  0
 25 24  1  0  0  0  0
 26 28  1  0  0  0  0
 27 26  1  0  0  0  0
 28 29  2  0  0  0  0
 30 31  1  0  0  0  0
 31 37  1  0  0  0  0
 31 32  2  0  0  0  0
 32  3  1  0  0  0  0
 33 32  1  0  0  0  0
 34 33  2  0  0  0  0
 35 34  1  0  0  0  0
 35 30  2  0  0  0  0
 36 30  1  0  0  0  0
 38 34  1  0  0  0  0
M  END
>  <minimizedAffinity>
-6.11451769

$$$$

 OpenBabel03242522283D

 38 41  0  0  0  0  0  0  0  0999 V2000
   39.6590   30.4730   38.1540 F   0  0  0  0  0  0  0  0  0  0  0  0
   39.0420   31.4890   38.8390 C   0  0  0  0  0  0  0  0  0  0  0  0
   39.7270   32.6120   39.1610 C   0  0  0  0  0  0  0  0  0  0  0  0
   39.0010   33.6100   39.7820 C   0  0  0  0  0  0  0  0  0  0  0  0
   37.6580   33.4910   40.0620 C   0  0  0  0  0  0  0  0  0  0  0  0
   37.0580   32.3170   39.6940 C   0  0  0  0  0  0  0  0  0  0  0  0
   37.7160   31.2880   39.0860 C   0  0  0  0  0  0  0  0  0  0  0  0
   39.6640   34.4680   40.0020 H   0  0  0  0  0  0  0  0  0  0  0  0
   37.3320   34.3790   40.5330 H   0  0  0  0  0  0  0  0  0  0  0  0
   36.0700   32.5520   39.9720 H   0  0  0  0  0  0  0  0  0  0  0  0
   36.9700   30.0920   38.8030 C   0  0  0  0  0  0  0  0  0  0  0  0
   36.2980   29.9800   37.6020 C   0  0  0  0  0  0  0  0  0  0  0  0
   35.5380   28.8560   37.3760 C   0  0  0  0  0  0  0  0  0  0  0  0
   35.4370   27.8510   38.3190 C   0  0  0  0  0  0  0  0  0  0  0  0
   36.1450   28.0120   39.5270 C   0  0  0  0  0  0  0  0  0  0  0  0
   36.9080   29.1280   39.7570 C   0  0  0  0  0  0  0  0  0  0  0  0
   36.2420   30.6350   36.7740 H   0  0  0  0  0  0  0  0  0  0  0  0
   34.9740   28.6940   36.4440 H   0  0  0  0  0  0  0  0  0  0  0  0
   34.8080   26.9750   38.0770 H   0  0  0  0  0  0  0  0  0  0  0  0
   35.9720   27.1570   40.1580 H   0  0  0  0  0  0  0  0  0  0  0  0
   39.3680   27.5730   39.3140 Cl  0  0  0  0  0  0  0  0  0  0  0  0
   38.7280   28.0950   40.8360 C   0  0  0  0  0  0  0  0  0  0  0  0
   37.5570   28.8710   41.0020 C   0  0  0  0  0  0  0  0  0  0  0  0
   37.1430   29.2240   42.3080 C   0  0  0  0  0  0  0  0  0  0  0  0
   36.2460   29.8090   42.3230 H   0  0  0  0  0  0  0  0  0  0  0  0
   37.9060   28.7920   43.3710 C   0  0  0  0  0  0  0  0  0  0  0  0
   37.5450   29.0910   44.3660 H   0  0  0  0  0  0  0  0  0  0  0  0
   39.0480   28.0370   43.2260 C   0  0  0  0  0  3  0  0  0  0  0  0
   39.4650   27.6830   41.9410 C   0  0  0  0  0  3  0  0  0  0  0  0
   43.4900   32.3050   39.1100 C   0  0  0  0  0  0  0  0  0  0  0  0
   42.1580   32.1680   39.5280 C   0  0  0  0  0  0  0  0  0  0  0  0
   41.1310   32.7110   38.7920 C   0  0  0  0  0  0  0  0  0  0  0  0
   41.5050   33.3740   37.6550 N   0  0  0  0  0  0  0  0  0  0  0  0
   42.7820   33.4970   37.2700 C   0  0  0  0  0  0  0  0  0  0  0  0
   43.7630   32.9660   37.9960 N   0  0  0  0  0  0  0  0  0  0  0  0
   44.1630   31.8100   39.8180 H   0  0  0  0  0  0  0  0  0  0  0  0
   41.8260   31.6510   40.4200 H   0  0  0  0  0  0  0  0  0  0  0  0
   43.0670   34.0230   36.3700 H   0  0  0  0  0  0  0  0  0  0  0  0
  1  2  1  0  0  0  0
  2  7  2  0  0  0  0
  2  3  1  0  0  0  0
  3  4  2  0  0  0  0
  4  8  1  0  0  0  0
  4  5  1  0  0  0  0
  5  9  1  0  0  0  0
  6 10  1  0  0  0  0
  6  5  2  0  0  0  0
  7  6  1  0  0  0  0
 11  7  1  0  0  0  0
 11 16  1  0  0  0  0
 12 11  2  0  0  0  0
 13 12  1  0  0  0  0
 13 14  2  0  0  0  0
 14 15  1  0  0  0  0
 15 16  2  0  0  0  0
 15 20  1  0  0  0  0
 16 23  1  0  0  0  0
 17 12  1  0  0  0  0
 18 13  1  0  0  0  0
 19 14  1  0  0  0  0
 21 22  1  0  0  0  0
 22 23  2  0  0  0  0
 22 29  1  0  0  0  0
 23 24  1  0  0  0  0
 24 25  1  0  0  0  0
 24 26  2  0  0  0  0
 26 27  1  0  0  0  0
 28 26  1  0  0  0  0
 29 28  2  0  0  0  0
 30 31  1  0  0  0  0
 30 36  1  0  0  0  0
 31 37  1  0  0  0  0
 32  3  1  0  0  0  0
 32 31  2  0  0  0  0
 33 32  1  0  0  0  0
 34 33  2  0  0  0  0
 34 35  1  0  0  0  0
 35 30  2  0  0  0  0
 38 34  1  0  0  0  0
M  END
>  <minimizedAffinity>
-6.08543921

$$$$

 OpenBabel03242522283D

 38 41  0  0  0  0  0  0  0  0999 V2000
   38.3690   31.4730   39.0500 F   0  0  0  0  0  0  0  0  0  0  0  0
   39.0320   30.3970   38.5160 C   0  0  0  0  0  0  0  0  0  0  0  0
   40.3550   30.4800   38.2350 C   0  0  0  0  0  0  0  0  0  0  0  0
   40.9520   29.3240   37.7720 C   0  0  0  0  0  0  0  0  0  0  0  0
   40.2610   28.1440   37.6060 C   0  0  0  0  0  0  0  0  0  0  0  0
   38.9300   28.1640   37.9200 C   0  0  0  0  0  0  0  0  0  0  0  0
   38.2750   29.2720   38.3740 C   0  0  0  0  0  0  0  0  0  0  0  0
   42.0230   29.5150   37.5700 H   0  0  0  0  0  0  0  0  0  0  0  0
   40.9310   27.4090   37.2470 H   0  0  0  0  0  0  0  0  0  0  0  0
   38.7130   27.1470   37.7550 H   0  0  0  0  0  0  0  0  0  0  0  0
   36.8630   29.1620   38.6160 C   0  0  0  0  0  0  0  0  0  0  0  0
   35.9810   29.3050   37.5630 C   0  0  0  0  0  0  0  0  0  0  0  0
   34.6310   29.2590   37.8240 C   0  0  0  0  0  0  0  0  0  0  0  0
   34.1500   29.0760   39.1070 C   0  0  0  0  0  0  0  0  0  0  0  0
   35.0900   28.9330   40.1460 C   0  0  0  0  0  0  0  0  0  0  0  0
   36.4380   28.9730   39.8920 C   0  0  0  0  0  0  0  0  0  0  0  0
   36.1510   29.4610   36.5320 H   0  0  0  0  0  0  0  0  0  0  0  0
   33.8670   29.3640   37.0380 H   0  0  0  0  0  0  0  0  0  0  0  0
   33.0540   29.0520   39.2490 H   0  0  0  0  0  0  0  0  0  0  0  0
   34.5720   28.8000   41.0800 H   0  0  0  0  0  0  0  0  0  0  0  0
   36.7630   26.0610   40.1760 Cl  0  0  0  0  0  0  0  0  0  0  0  0
   37.1930   27.2730   41.3350 C   0  0  0  0  0  0  0  0  0  0  0  0
   37.0500   28.6670   41.1450 C   0  0  0  0  0  0  0  0  0  0  0  0
   37.4380   29.5480   42.1810 C   0  0  0  0  0  0  0  0  0  0  0  0
   37.2880   30.5800   41.9370 H   0  0  0  0  0  0  0  0  0  0  0  0
   37.9430   29.0050   43.3420 C   0  0  0  0  0  0  0  0  0  0  0  0
   38.2310   29.7290   44.1180 H   0  0  0  0  0  0  0  0  0  0  0  0
   38.0890   27.6500   43.5430 C   0  0  0  0  0  3  0  0  0  0  0  0
   37.7090   26.7720   42.5250 C   0  0  0  0  0  3  0  0  0  0  0  0
   42.1470   33.3630   39.8880 C   0  0  0  0  0  0  0  0  0  0  0  0
   41.4840   32.1390   39.7250 C   0  0  0  0  0  0  0  0  0  0  0  0
   41.0500   31.7340   38.4830 C   0  0  0  0  0  0  0  0  0  0  0  0
   41.3140   32.5970   37.4550 N   0  0  0  0  0  0  0  0  0  0  0  0
   41.9470   33.7640   37.6280 C   0  0  0  0  0  0  0  0  0  0  0  0
   42.3590   34.1400   38.8370 N   0  0  0  0  0  0  0  0  0  0  0  0
   42.4140   33.5130   40.9400 H   0  0  0  0  0  0  0  0  0  0  0  0
   41.2590   31.4310   40.5130 H   0  0  0  0  0  0  0  0  0  0  0  0
   42.1500   34.4400   36.8090 H   0  0  0  0  0  0  0  0  0  0  0  0
  2  1  1  0  0  0  0
  3 32  1  0  0  0  0
  3  2  2  0  0  0  0
  4  3  1  0  0  0  0
  5  4  2  0  0  0  0
  5  6  1  0  0  0  0
  6  7  2  0  0  0  0
  7  2  1  0  0  0  0
  7 11  1  0  0  0  0
  8  4  1  0  0  0  0
  9  5  1  0  0  0  0
 10  6  1  0  0  0  0
 11 16  1  0  0  0  0
 12 13  1  0  0  0  0
 12 11  2  0  0  0  0
 13 14  2  0  0  0  0
 14 19  1  0  0  0  0
 14 15  1  0  0  0  0
 15 20  1  0  0  0  0
 16 15  2  0  0  0  0
 16 23  1  0  0  0  0
 17 12  1  0  0  0  0
 18 13  1  0  0  0  0
 21 22  1  0  0  0  0
 22 29  1  0  0  0  0
 23 22  2  0  0  0  0
 23 24  1  0  0  0  0
 24 26  2  0  0  0  0
 25 24  1  0  0  0  0
 26 28  1  0  0  0  0
 26 27  1  0  0  0  0
 29 28  2  0  0  0  0
 30 36  1  0  0  0  0
 31 30  1  0  0  0  0
 31 37  1  0  0  0  0
 32 31  2  0  0  0  0
 33 34  2  0  0  0  0
 33 32  1  0  0  0  0
 34 35  1  0  0  0  0
 35 30  2  0  0  0  0
 38 34  1  0  0  0  0
M  END
>  <minimizedAffinity>
-6.07430553

$$$$

 OpenBabel03242522283D

 38 41  0  0  0  0  0  0  0  0999 V2000
   37.3850   30.6390   37.4450 F   0  0  0  0  0  0  0  0  0  0  0  0
   36.4920   30.1770   38.3790 C   0  0  0  0  0  0  0  0  0  0  0  0
   35.6290   29.1800   38.0660 C   0  0  0  0  0  0  0  0  0  0  0  0
   34.8220   28.7310   39.0920 C   0  0  0  0  0  0  0  0  0  0  0  0
   34.8790   29.2480   40.3670 C   0  0  0  0  0  0  0  0  0  0  0  0
   35.7850   30.2510   40.5800 C   0  0  0  0  0  0  0  0  0  0  0  0
   36.6070   30.7480   39.6120 C   0  0  0  0  0  0  0  0  0  0  0  0
   34.1590   27.9280   38.7180 H   0  0  0  0  0  0  0  0  0  0  0  0
   34.1710   28.7420   40.9680 H   0  0  0  0  0  0  0  0  0  0  0  0
   35.6360   30.3800   41.6150 H   0  0  0  0  0  0  0  0  0  0  0  0
   37.4750   31.8380   39.9650 C   0  0  0  0  0  0  0  0  0  0  0  0
   37.1440   33.1210   39.5780 C   0  0  0  0  0  0  0  0  0  0  0  0
   38.0180   34.1420   39.8700 C   0  0  0  0  0  0  0  0  0  0  0  0
   39.2060   33.9080   40.5370 C   0  0  0  0  0  0  0  0  0  0  0  0
   39.4960   32.5810   40.9140 C   0  0  0  0  0  0  0  0  0  0  0  0
   38.6270   31.5590   40.6280 C   0  0  0  0  0  0  0  0  0  0  0  0
   36.3030   33.4940   39.0590 H   0  0  0  0  0  0  0  0  0  0  0  0
   37.8250   35.1910   39.5940 H   0  0  0  0  0  0  0  0  0  0  0  0
   39.8650   34.7720   40.7390 H   0  0  0  0  0  0  0  0  0  0  0  0
   40.4460   32.5530   41.4190 H   0  0  0  0  0  0  0  0  0  0  0  0
   40.3160   30.0670   38.7330 Cl  0  0  0  0  0  0  0  0  0  0  0  0
   39.9850   29.6520   40.3810 C   0  0  0  0  0  0  0  0  0  0  0  0
   39.1930   30.4160   41.2690 C   0  0  0  0  0  0  0  0  0  0  0  0
   38.9990   29.9540   42.5930 C   0  0  0  0  0  0  0  0  0  0  0  0
   38.3830   30.6040   43.1810 H   0  0  0  0  0  0  0  0  0  0  0  0
   39.5970   28.7690   42.9620 C   0  0  0  0  0  0  0  0  0  0  0  0
   39.4190   28.4510   44.0000 H   0  0  0  0  0  0  0  0  0  0  0  0
   40.3710   28.0140   42.1100 C   0  0  0  0  0  3  0  0  0  0  0  0
   40.5690   28.4610   40.8010 C   0  0  0  0  0  3  0  0  0  0  0  0
   35.1190   28.6410   34.3640 C   0  0  0  0  0  0  0  0  0  0  0  0
   35.0610   29.2340   35.6340 C   0  0  0  0  0  0  0  0  0  0  0  0
   35.6490   28.6280   36.7200 C   0  0  0  0  0  0  0  0  0  0  0  0
   36.2750   27.4390   36.4660 N   0  0  0  0  0  0  0  0  0  0  0  0
   36.3200   26.8850   35.2470 C   0  0  0  0  0  0  0  0  0  0  0  0
   35.7450   27.4850   34.2070 N   0  0  0  0  0  0  0  0  0  0  0  0
   34.5990   29.2650   33.6290 H   0  0  0  0  0  0  0  0  0  0  0  0
   34.5750   30.1730   35.8710 H   0  0  0  0  0  0  0  0  0  0  0  0
   36.8170   25.9450   35.0570 H   0  0  0  0  0  0  0  0  0  0  0  0
  1  2  1  0  0  0  0
  2  7  1  0  0  0  0
  3  2  2  0  0  0  0
  3  4  1  0  0  0  0
  4  5  2  0  0  0  0
  5  6  1  0  0  0  0
  5  9  1  0  0  0  0
  6 10  1  0  0  0  0
  7 11  1  0  0  0  0
  7  6  2  0  0  0  0
  8  4  1  0  0  0  0
 11 16  1  0  0  0  0
 12 13  1  0  0  0  0
 12 11  2  0  0  0  0
 13 14  2  0  0  0  0
 14 19  1  0  0  0  0
 14 15  1  0  0  0  0
 15 20  1  0  0  0  0
 16 15  2  0  0  0  0
 16 23  1  0  0  0  0
 17 12  1  0  0  0  0
 18 13  1  0  0  0  0
 21 22  1  0  0  0  0
 22 29  2  0  0  0  0
 22 23  1  0  0  0  0
 23 24  2  0  0  0  0
 24 26  1  0  0  0  0
 24 25  1  0  0  0  0
 26 27  1  0  0  0  0
 28 26  2  0  0  0  0
 29 28  1  0  0  0  0
 30 31  1  0  0  0  0
 31 37  1  0  0  0  0
 31 32  2  0  0  0  0
 32  3  1  0  0  0  0
 33 32  1  0  0  0  0
 34 33  2  0  0  0  0
 35 30  2  0  0  0  0
 35 34  1  0  0  0  0
 36 30  1  0  0  0  0
 38 34  1  0  0  0  0
M  END
>  <minimizedAffinity>
-6.05334663

$$$$

 OpenBabel03242522283D

 38 41  0  0  0  0  0  0  0  0999 V2000
   39.5030   27.0880   40.3340 F   0  0  0  0  0  0  0  0  0  0  0  0
   38.6670   27.2770   41.4060 C   0  0  0  0  0  0  0  0  0  0  0  0
   39.1510   27.2180   42.6700 C   0  0  0  0  0  0  0  0  0  0  0  0
   38.2500   27.4970   43.6790 C   0  0  0  0  0  0  0  0  0  0  0  0
   36.9350   27.8230   43.4340 C   0  0  0  0  0  0  0  0  0  0  0  0
   36.5460   27.8570   42.1230 C   0  0  0  0  0  0  0  0  0  0  0  0
   37.3800   27.5860   41.0780 C   0  0  0  0  0  0  0  0  0  0  0  0
   38.7540   27.4100   44.6600 H   0  0  0  0  0  0  0  0  0  0  0  0
   36.4530   27.9940   44.3600 H   0  0  0  0  0  0  0  0  0  0  0  0
   35.5540   28.1840   42.2620 H   0  0  0  0  0  0  0  0  0  0  0  0
   36.8220   27.6090   39.7540 C   0  0  0  0  0  0  0  0  0  0  0  0
   36.2610   26.4600   39.2340 C   0  0  0  0  0  0  0  0  0  0  0  0
   35.7890   26.4840   37.9420 C   0  0  0  0  0  0  0  0  0  0  0  0
   35.8680   27.6260   37.1660 C   0  0  0  0  0  0  0  0  0  0  0  0
   36.4470   28.7730   37.7440 C   0  0  0  0  0  0  0  0  0  0  0  0
   36.9150   28.7570   39.0330 C   0  0  0  0  0  0  0  0  0  0  0  0
   36.1220   25.5020   39.6580 H   0  0  0  0  0  0  0  0  0  0  0  0
   35.3290   25.6090   37.4580 H   0  0  0  0  0  0  0  0  0  0  0  0
   35.4730   27.5780   36.1350 H   0  0  0  0  0  0  0  0  0  0  0  0
   36.4400   29.5750   37.0270 H   0  0  0  0  0  0  0  0  0  0  0  0
   39.6430   29.2490   38.0390 Cl  0  0  0  0  0  0  0  0  0  0  0  0
   38.6170   30.3750   38.8630 C   0  0  0  0  0  0  0  0  0  0  0  0
   37.2970   30.1070   39.2950 C   0  0  0  0  0  0  0  0  0  0  0  0
   36.5710   31.1200   39.9630 C   0  0  0  0  0  0  0  0  0  0  0  0
   35.5850   30.8150   40.2500 H   0  0  0  0  0  0  0  0  0  0  0  0
   37.1870   32.3350   40.1670 C   0  0  0  0  0  0  0  0  0  0  0  0
   36.5830   33.0920   40.6900 H   0  0  0  0  0  0  0  0  0  0  0  0
   38.4710   32.6130   39.7520 C   0  0  0  0  0  3  0  0  0  0  0  0
   39.1960   31.6180   39.0910 C   0  0  0  0  0  3  0  0  0  0  0  0
   42.8790   27.5330   43.1750 C   0  0  0  0  0  0  0  0  0  0  0  0
   41.5370   27.8910   42.9840 C   0  0  0  0  0  0  0  0  0  0  0  0
   40.5620   26.9260   42.8710 C   0  0  0  0  0  0  0  0  0  0  0  0
   40.9980   25.6320   42.9600 N   0  0  0  0  0  0  0  0  0  0  0  0
   42.2840   25.3080   43.1410 C   0  0  0  0  0  0  0  0  0  0  0  0
   43.2140   26.2540   43.2470 N   0  0  0  0  0  0  0  0  0  0  0  0
   43.5060   28.4290   43.2420 H   0  0  0  0  0  0  0  0  0  0  0  0
   41.1560   28.9020   42.9090 H   0  0  0  0  0  0  0  0  0  0  0  0
   42.6180   24.2820   43.2100 H   0  0  0  0  0  0  0  0  0  0  0  0
  1  2  1  0  0  0  0
  2  3  1  0  0  0  0
  3 32  1  0  0  0  0
  3  4  2  0  0  0  0
  4  8  1  0  0  0  0
  5  4  1  0  0  0  0
  5  9  1  0  0  0  0
  6 10  1  0  0  0  0
  6  5  2  0  0  0  0
  7  2  2  0  0  0  0
  7  6  1  0  0  0  0
 11  7  1  0  0  0  0
 12 17  1  0  0  0  0
 12 11  1  0  0  0  0
 13 12  2  0  0  0  0
 14 15  2  0  0  0  0
 14 13  1  0  0  0  0
 15 16  1  0  0  0  0
 16 23  1  0  0  0  0
 16 11  2  0  0  0  0
 18 13  1  0  0  0  0
 19 14  1  0  0  0  0
 20 15  1  0  0  0  0
 21 22  1  0  0  0  0
 22 29  2  0  0  0  0
 22 23  1  0  0  0  0
 23 24  2  0  0  0  0
 24 26  1  0  0  0  0
 24 25  1  0  0  0  0
 26 27  1  0  0  0  0
 28 26  2  0  0  0  0
 29 28  1  0  0  0  0
 30 36  1  0  0  0  0
 30 35  1  0  0  0  0
 31 30  2  0  0  0  0
 32 33  2  0  0  0  0
 32 31  1  0  0  0  0
 33 34  1  0  0  0  0
 34 38  1  0  0  0  0
 34 35  2  0  0  0  0
 37 31  1  0  0  0  0
M  END
>  <minimizedAffinity>
-5.98969412

$$$$
