
 OpenBabel03242522273D

 38 41  0  0  0  0  0  0  0  0999 V2000
   45.4640   33.1500   41.2400 F   0  0  0  0  0  0  0  0  0  0  0  0
   46.5390   33.9840   41.0630 C   0  0  0  0  0  0  0  0  0  0  0  0
   46.9350   34.8090   42.0620 C   0  0  0  0  0  0  0  0  0  0  0  0
   48.0720   35.5550   41.8180 C   0  0  0  0  0  0  0  0  0  0  0  0
   48.7790   35.4740   40.6390 C   0  0  0  0  0  0  0  0  0  0  0  0
   48.2960   34.6090   39.6950 C   0  0  0  0  0  0  0  0  0  0  0  0
   47.1760   33.8490   39.8660 C   0  0  0  0  0  0  0  0  0  0  0  0
   48.2920   36.1930   42.6950 H   0  0  0  0  0  0  0  0  0  0  0  0
   49.6030   36.1340   40.6940 H   0  0  0  0  0  0  0  0  0  0  0  0
   49.0550   34.7240   38.9740 H   0  0  0  0  0  0  0  0  0  0  0  0
   46.7570   33.0210   38.7680 C   0  0  0  0  0  0  0  0  0  0  0  0
   45.5630   33.2950   38.1290 C   0  0  0  0  0  0  0  0  0  0  0  0
   45.1480   32.4540   37.1230 C   0  0  0  0  0  0  0  0  0  0  0  0
   45.8950   31.3540   36.7460 C   0  0  0  0  0  0  0  0  0  0  0  0
   47.1060   31.1200   37.4270 C   0  0  0  0  0  0  0  0  0  0  0  0
   47.5290   31.9560   38.4280 C   0  0  0  0  0  0  0  0  0  0  0  0
   44.8580   34.0680   38.2780 H   0  0  0  0  0  0  0  0  0  0  0  0
   44.2100   32.6070   36.5670 H   0  0  0  0  0  0  0  0  0  0  0  0
   45.5030   30.7170   35.9320 H   0  0  0  0  0  0  0  0  0  0  0  0
   47.5730   30.2360   37.0290 H   0  0  0  0  0  0  0  0  0  0  0  0
   47.3830   30.2950   40.8550 Cl  0  0  0  0  0  0  0  0  0  0  0  0
   48.8060   30.7010   39.9570 C   0  0  0  0  0  0  0  0  0  0  0  0
   48.8280   31.4770   38.7750 C   0  0  0  0  0  0  0  0  0  0  0  0
   50.0670   31.7390   38.1430 C   0  0  0  0  0  0  0  0  0  0  0  0
   49.9730   32.3350   37.2590 H   0  0  0  0  0  0  0  0  0  0  0  0
   51.2090   31.2210   38.7140 C   0  0  0  0  0  0  0  0  0  0  0  0
   52.1480   31.4510   38.1880 H   0  0  0  0  0  0  0  0  0  0  0  0
   51.2060   30.4640   39.8640 C   0  0  0  0  0  0  0  0  0  0  0  0
   49.9870   30.2000   40.4950 C   0  0  0  0  0  0  0  0  0  0  0  0
   44.5290   35.6750   44.8390 C   0  0  0  0  0  0  0  0  0  0  0  0
   45.2070   35.7310   43.6130 C   0  0  0  0  0  0  0  0  0  0  0  0
   46.1880   34.8150   43.3090 C   0  0  0  0  0  0  0  0  0  0  0  0
   46.4360   33.8760   44.2730 N   0  0  0  0  0  0  0  0  0  0  0  0
   45.7800   33.8370   45.4390 C   0  0  0  0  0  0  0  0  0  0  0  0
   44.8350   34.7330   45.7160 N   0  0  0  0  0  0  0  0  0  0  0  0
   43.7880   36.4800   44.9000 H   0  0  0  0  0  0  0  0  0  0  0  0
   45.0370   36.4590   42.8290 H   0  0  0  0  0  0  0  0  0  0  0  0
   45.9850   33.0910   46.1940 H   0  0  0  0  0  0  0  0  0  0  0  0
  2  1  1  0  0  0  0
  2  3  1  0  0  0  0
  3 32  1  0  0  0  0
  4  3  2  0  0  0  0
  4  8  1  0  0  0  0
  5  9  1  0  0  0  0
  5  4  1  0  0  0  0
  6  7  1  0  0  0  0
  6  5  2  0  0  0  0
  7  2  2  0  0  0  0
 10  6  1  0  0  0  0
 11  7  1  0  0  0  0
 12 17  1  0  0  0  0
 12 11  2  0  0  0  0
 13 12  1  0  0  0  0
 14 13  2  0  0  0  0
 14 15  1  0  0  0  0
 15 16  2  0  0  0  0
 16 11  1  0  0  0  0
 16 23  1  0  0  0  0
 18 13  1  0  0  0  0
 19 14  1  0  0  0  0
 20 15  1  0  0  0  0
 22 29  1  0  0  0  0
 22 21  1  0  0  0  0
 23 22  2  0  0  0  0
 24 26  2  0  0  0  0
 24 23  1  0  0  0  0
 25 24  1  0  0  0  0
 26 28  1  0  0  0  0
 27 26  1  0  0  0  0
 28 29  2  0  0  0  0
 30 36  1  0  0  0  0
 30 35  1  0  0  0  0
 31 30  2  0  0  0  0
 32 31  1  0  0  0  0
 32 33  2  0  0  0  0
 33 34  1  0  0  0  0
 34 35  2  0  0  0  0
 34 38  1  0  0  0  0
 37 31  1  0  0  0  0
M  END
>  <minimizedAffinity>
-5.86941528

>  <minimizedRMSD>
2.80724072

$$$$
