
 OpenBabel03252507083D

 24 25  0  0  0  0  0  0  0  0999 V2000
   44.9240   34.9790   45.0980 C   0  0  0  0  0  0  0  0  0  0  0  0
   45.4900   35.4230   43.8940 C   0  0  0  0  0  0  0  0  0  0  0  0
   46.3310   34.5600   43.2070 C   0  0  0  0  0  0  0  0  0  0  0  0
   46.5740   33.3160   43.7290 N   0  0  0  0  0  0  0  0  0  0  0  0
   46.0120   32.9330   44.8840 C   0  0  0  0  0  0  0  0  0  0  0  0
   45.1950   33.7440   45.5700 N   0  0  0  0  0  0  0  0  0  0  0  0
   44.2570   35.6110   45.6800 H   0  0  0  0  0  0  0  0  0  0  0  0
   45.2540   36.4210   43.5400 H   0  0  0  0  0  0  0  0  0  0  0  0
   47.3080   32.8650   47.5550 Cl  0  0  0  0  0  0  0  0  0  0  0  0
   46.8700   31.4190   46.6390 C   0  0  0  0  0  0  0  0  0  0  0  0
   46.2810   31.6050   45.4250 C   0  0  0  0  0  0  0  0  0  0  0  0
   45.9500   30.4590   44.7330 C   0  0  0  0  0  0  0  0  0  0  0  0
   45.4770   30.5050   43.7580 H   0  0  0  0  0  0  0  0  0  0  0  0
   46.1880   29.1850   45.2110 C   0  0  0  0  0  0  0  0  0  0  0  0
   45.9350   28.2910   44.6790 H   0  0  0  0  0  0  0  0  0  0  0  0
   46.7860   29.0680   46.4430 C   0  0  0  0  0  3  0  0  0  0  0  0
   47.1390   30.1780   47.1810 C   0  0  0  0  0  3  0  0  0  0  0  0
   46.8830   35.0190   42.0170 O   0  0  0  0  0  0  0  0  0  0  0  0
   48.6620   33.3780   40.9690 O   0  0  0  0  0  0  0  0  0  0  0  0
   48.5380   34.7100   41.6870 P   0  0  0  0  0  0  0  0  0  0  0  0
   49.1340   35.9880   40.7710 O   0  0  0  0  0  0  0  0  0  0  0  0
   48.9130   35.9190   39.8280 H   0  0  0  0  0  0  0  0  0  0  0  0
   49.3380   34.6080   43.1710 O   0  0  0  0  0  0  0  0  0  0  0  0
   50.2900   34.8470   43.0090 H   0  0  0  0  0  0  0  0  0  0  0  0
  1  6  1  0  0  0  0
  1  7  1  0  0  0  0
  2  1  2  0  0  0  0
  3  4  2  0  0  0  0
  3  2  1  0  0  0  0
  4  5  1  0  0  0  0
  5 11  1  0  0  0  0
  5  6  2  0  0  0  0
  8  2  1  0  0  0  0
 10 17  1  0  0  0  0
 10  9  1  0  0  0  0
 11 10  2  0  0  0  0
 12 14  2  0  0  0  0
 12 11  1  0  0  0  0
 13 12  1  0  0  0  0
 14 16  1  0  0  0  0
 15 14  1  0  0  0  0
 16 17  2  0  0  0  0
 18  3  1  0  0  0  0
 19 20  2  0  0  0  0
 20 18  1  0  0  0  0
 20 23  1  0  0  0  0
 21 20  1  0  0  0  0
 22 21  1  0  0  0  0
 24 23  1  0  0  0  0
M  END
>  <minimizedAffinity>
-4.61369324

>  <minimizedRMSD>
1.42066014

$$$$
