
 OpenBabel03242516523D

 45 48  0  0  1  0  0  0  0  0999 V2000
   47.8040   32.7740   41.6940 C   0  0  1  0  0  0  0  0  0  0  0  0
   47.4310   32.1520   40.4210 C   0  0  0  0  0  0  0  0  0  0  0  0
   48.4370   32.6420   39.3820 C   0  0  0  0  0  0  0  0  0  0  0  0
   48.1470   34.1140   39.1620 C   0  0  0  0  0  0  0  0  0  0  0  0
   48.1300   34.9320   40.4220 C   0  0  0  0  0  0  0  0  0  0  0  0
   47.6390   34.2970   41.6490 C   0  0  1  0  0  0  0  0  0  0  0  0
   48.9220   32.6570   41.8340 H   0  0  0  0  0  0  0  0  0  0  0  0
   46.4280   32.3960   40.0710 H   0  0  0  0  0  0  0  0  0  0  0  0
   47.5780   31.0440   40.5190 H   0  0  0  0  0  0  0  0  0  0  0  0
   48.2030   32.1510   38.4050 H   0  0  0  0  0  0  0  0  0  0  0  0
   49.4720   32.4640   39.7110 H   0  0  0  0  0  0  0  0  0  0  0  0
   47.1790   34.1690   38.6070 H   0  0  0  0  0  0  0  0  0  0  0  0
   48.9170   34.5200   38.4680 H   0  0  0  0  0  0  0  0  0  0  0  0
   49.1590   35.3540   40.5500 H   0  0  0  0  0  0  0  0  0  0  0  0
   47.4880   35.8290   40.2080 H   0  0  0  0  0  0  0  0  0  0  0  0
   48.2700   34.6650   42.5160 H   0  0  0  0  0  0  0  0  0  0  0  0
   45.3620   30.8920   43.8860 C   0  0  0  0  0  0  0  0  0  0  0  0
   46.0360   31.4310   42.7840 C   0  0  0  0  0  0  0  0  0  0  0  0
   47.1660   32.2490   42.8830 C   0  0  0  0  0  0  0  0  0  0  0  0
   47.5920   32.5060   44.1240 N   0  0  0  0  0  0  0  0  0  0  0  0
   46.9500   31.9920   45.2080 C   0  0  0  0  0  0  0  0  0  0  0  0
   45.8720   31.2110   45.1040 N   0  0  0  0  0  0  0  0  0  0  0  0
   44.5080   30.2780   43.7260 H   0  0  0  0  0  0  0  0  0  0  0  0
   45.6640   31.2030   41.7910 H   0  0  0  0  0  0  0  0  0  0  0  0
   47.3380   32.2310   46.2050 H   0  0  0  0  0  0  0  0  0  0  0  0
   46.2780   34.7050   41.9960 C   0  0  0  0  0  0  0  0  0  0  0  0
   45.8750   35.3120   43.1830 C   0  0  0  0  0  0  0  0  0  0  0  0
   44.5210   35.6280   43.2820 C   0  0  0  0  0  0  0  0  0  0  0  0
   43.7000   35.3210   42.2180 C   0  0  0  0  0  0  0  0  0  0  0  0
   44.1180   34.7150   41.0420 C   0  0  0  0  0  0  0  0  0  0  0  0
   45.4440   34.4150   40.9640 N   0  0  0  0  0  0  0  0  0  0  0  0
   46.6470   35.4840   43.9210 H   0  0  0  0  0  0  0  0  0  0  0  0
   44.2120   36.0950   44.1930 H   0  0  0  0  0  0  0  0  0  0  0  0
   42.6580   35.6010   42.3740 H   0  0  0  0  0  0  0  0  0  0  0  0
   43.1600   34.4360   39.9810 C   0  0  0  0  0  0  0  0  0  0  0  0
   42.5530   35.4010   39.4580 O   0  0  0  0  0  0  0  0  0  0  0  0
   40.8550   33.2310   41.3390 Cl  0  0  0  0  0  0  0  0  0  0  0  0
   41.5910   32.5520   39.8790 C   0  0  0  0  0  0  0  0  0  0  0  0
   42.6930   33.2230   39.3290 C   0  0  0  0  0  0  0  0  0  0  0  0
   43.2010   32.6440   38.2120 C   0  0  0  0  0  0  0  0  0  0  0  0
   44.0310   33.1140   37.7450 H   0  0  0  0  0  0  0  0  0  0  0  0
   42.7320   31.4970   37.6100 C   0  0  0  0  0  0  0  0  0  0  0  0
   43.1880   31.0930   36.7220 H   0  0  0  0  0  0  0  0  0  0  0  0
   41.6470   30.8810   38.1970 C   0  0  0  0  0  3  0  0  0  0  0  0
   41.0520   31.3850   39.3340 C   0  0  0  0  0  3  0  0  0  0  0  0
  1  7  1  1  0  0  0
  1 19  1  0  0  0  0
  2  9  1  0  0  0  0
  2  1  1  0  0  0  0
  3 11  1  0  0  0  0
  3  2  1  0  0  0  0
  4  3  1  0  0  0  0
  4  5  1  0  0  0  0
  5 14  1  0  0  0  0
  5  6  1  0  0  0  0
  6  1  1  0  0  0  0
  6 26  1  0  0  0  0
  6 16  1  1  0  0  0
  8  2  1  0  0  0  0
 10  3  1  0  0  0  0
 12  4  1  0  0  0  0
 13  4  1  0  0  0  0
 15  5  1  0  0  0  0
 17 22  1  0  0  0  0
 18 19  1  0  0  0  0
 18 17  2  0  0  0  0
 19 20  2  0  0  0  0
 20 21  1  0  0  0  0
 21 25  1  0  0  0  0
 22 21  2  0  0  0  0
 23 17  1  0  0  0  0
 24 18  1  0  0  0  0
 26 27  1  0  0  0  0
 27 28  2  0  0  0  0
 27 32  1  0  0  0  0
 28 33  1  0  0  0  0
 29 34  1  0  0  0  0
 29 28  1  0  0  0  0
 30 29  2  0  0  0  0
 31 30  1  0  0  0  0
 31 26  2  0  0  0  0
 35 30  1  0  0  0  0
 36 35  2  0  0  0  0
 38 37  1  0  0  0  0
 39 38  2  0  0  0  0
 39 35  1  0  0  0  0
 40 39  1  0  0  0  0
 41 40  1  0  0  0  0
 42 44  1  0  0  0  0
 42 40  2  0  0  0  0
 43 42  1  0  0  0  0
 44 45  2  0  0  0  0
 45 38  1  0  0  0  0
M  END
>  <minimizedAffinity>
-5.58874941

>  <minimizedRMSD>
0.866911173

$$$$
