
 OpenBabel03242516513D

 45 48  0  0  1  0  0  0  0  0999 V2000
   47.6120   32.5940   41.3730 C   0  0  1  0  0  0  0  0  0  0  0  0
   47.0250   31.9420   40.1990 C   0  0  0  0  0  0  0  0  0  0  0  0
   47.9320   32.2710   39.0150 C   0  0  0  0  0  0  0  0  0  0  0  0
   47.7540   33.7500   38.7330 C   0  0  0  0  0  0  0  0  0  0  0  0
   47.9720   34.6340   39.9280 C   0  0  0  0  0  0  0  0  0  0  0  0
   47.5840   34.1200   41.2450 C   0  0  1  0  0  0  0  0  0  0  0  0
   48.7230   32.3740   41.3840 H   0  0  0  0  0  0  0  0  0  0  0  0
   46.0130   32.2650   39.9570 H   0  0  0  0  0  0  0  0  0  0  0  0
   47.0800   30.8320   40.3530 H   0  0  0  0  0  0  0  0  0  0  0  0
   47.5320   31.7520   38.1090 H   0  0  0  0  0  0  0  0  0  0  0  0
   48.9800   32.0090   39.2280 H   0  0  0  0  0  0  0  0  0  0  0  0
   46.7330   33.8700   38.2970 H   0  0  0  0  0  0  0  0  0  0  0  0
   48.4640   34.0370   37.9250 H   0  0  0  0  0  0  0  0  0  0  0  0
   49.0430   34.9580   39.9020 H   0  0  0  0  0  0  0  0  0  0  0  0
   47.3930   35.5770   39.7330 H   0  0  0  0  0  0  0  0  0  0  0  0
   48.3500   34.4710   42.0030 H   0  0  0  0  0  0  0  0  0  0  0  0
   45.3440   31.0250   43.9630 C   0  0  0  0  0  0  0  0  0  0  0  0
   45.9170   31.4360   42.7530 C   0  0  0  0  0  0  0  0  0  0  0  0
   47.0830   32.2020   42.6630 C   0  0  0  0  0  0  0  0  0  0  0  0
   47.6500   32.5400   43.8260 N   0  0  0  0  0  0  0  0  0  0  0  0
   47.1080   32.1500   45.0110 C   0  0  0  0  0  0  0  0  0  0  0  0
   45.9930   31.4180   45.0880 N   0  0  0  0  0  0  0  0  0  0  0  0
   44.4530   30.4430   43.9460 H   0  0  0  0  0  0  0  0  0  0  0  0
   45.4320   31.1460   41.8290 H   0  0  0  0  0  0  0  0  0  0  0  0
   47.6100   32.4520   45.9380 H   0  0  0  0  0  0  0  0  0  0  0  0
   46.3210   34.6810   41.7250 C   0  0  0  0  0  0  0  0  0  0  0  0
   46.1440   35.4590   42.8670 C   0  0  0  0  0  0  0  0  0  0  0  0
   44.8440   35.8980   43.1150 C   0  0  0  0  0  0  0  0  0  0  0  0
   43.8520   35.5350   42.2290 C   0  0  0  0  0  0  0  0  0  0  0  0
   44.0460   34.7570   41.0960 C   0  0  0  0  0  0  0  0  0  0  0  0
   45.3220   34.3390   40.8710 N   0  0  0  0  0  0  0  0  0  0  0  0
   47.0280   35.6540   43.4580 H   0  0  0  0  0  0  0  0  0  0  0  0
   44.7080   36.4970   43.9900 H   0  0  0  0  0  0  0  0  0  0  0  0
   42.8670   35.9180   42.4930 H   0  0  0  0  0  0  0  0  0  0  0  0
   42.9220   34.4330   40.2290 C   0  0  0  0  0  0  0  0  0  0  0  0
   42.9460   34.8450   39.0440 O   0  0  0  0  0  0  0  0  0  0  0  0
   40.6420   36.1810   40.8290 Cl  0  0  0  0  0  0  0  0  0  0  0  0
   40.5140   34.4190   40.6970 C   0  0  0  0  0  0  0  0  0  0  0  0
   41.6810   33.6970   40.4100 C   0  0  0  0  0  0  0  0  0  0  0  0
   41.5020   32.3550   40.3230 C   0  0  0  0  0  0  0  0  0  0  0  0
   42.3500   31.7570   40.0960 H   0  0  0  0  0  0  0  0  0  0  0  0
   40.3100   31.6840   40.4910 C   0  0  0  0  0  0  0  0  0  0  0  0
   40.2440   30.6120   40.4080 H   0  0  0  0  0  0  0  0  0  0  0  0
   39.1970   32.4470   40.7730 C   0  0  0  0  0  0  0  0  0  0  0  0
   39.2660   33.8200   40.8820 C   0  0  0  0  0  0  0  0  0  0  0  0
  1  7  1  1  0  0  0
  1 19  1  0  0  0  0
  2  9  1  0  0  0  0
  2  1  1  0  0  0  0
  3 11  1  0  0  0  0
  3  2  1  0  0  0  0
  4  3  1  0  0  0  0
  4  5  1  0  0  0  0
  5  6  1  0  0  0  0
  6  1  1  0  0  0  0
  6 26  1  0  0  0  0
  6 16  1  1  0  0  0
  8  2  1  0  0  0  0
 10  3  1  0  0  0  0
 12  4  1  0  0  0  0
 13  4  1  0  0  0  0
 14  5  1  0  0  0  0
 15  5  1  0  0  0  0
 17 22  1  0  0  0  0
 18 17  2  0  0  0  0
 19 18  1  0  0  0  0
 19 20  2  0  0  0  0
 20 21  1  0  0  0  0
 21 22  2  0  0  0  0
 21 25  1  0  0  0  0
 23 17  1  0  0  0  0
 24 18  1  0  0  0  0
 26 27  1  0  0  0  0
 27 28  2  0  0  0  0
 27 32  1  0  0  0  0
 28 33  1  0  0  0  0
 29 34  1  0  0  0  0
 29 28  1  0  0  0  0
 30 29  2  0  0  0  0
 31 30  1  0  0  0  0
 31 26  2  0  0  0  0
 35 39  1  0  0  0  0
 35 30  1  0  0  0  0
 36 35  2  0  0  0  0
 38 37  1  0  0  0  0
 38 45  1  0  0  0  0
 39 38  2  0  0  0  0
 40 39  1  0  0  0  0
 40 42  2  0  0  0  0
 41 40  1  0  0  0  0
 42 44  1  0  0  0  0
 43 42  1  0  0  0  0
 44 45  2  0  0  0  0
M  END
>  <minimizedAffinity>
-6.09775829

>  <minimizedRMSD>
1.98077333

$$$$
