
 OpenBabel03242515003D

 37 39  0  0  0  0  0  0  0  0999 V2000
   45.0950   34.5900   42.0000 C   0  0  0  0  0  0  0  0  0  0  0  0
   46.4140   34.6820   41.5420 C   0  0  0  0  0  0  0  0  0  0  0  0
   47.4420   34.4600   42.4540 C   0  0  0  0  0  0  0  0  0  0  0  0
   47.1080   34.1640   43.7490 N   0  0  0  0  0  0  0  0  0  0  0  0
   45.8320   34.0820   44.1620 C   0  0  0  0  0  0  0  0  0  0  0  0
   44.8420   34.2970   43.2790 N   0  0  0  0  0  0  0  0  0  0  0  0
   46.7310   34.9120   40.5320 H   0  0  0  0  0  0  0  0  0  0  0  0
   48.4810   34.5220   42.1390 H   0  0  0  0  0  0  0  0  0  0  0  0
   45.5780   33.7620   45.5520 C   0  0  0  0  0  0  0  0  0  0  0  0
   44.8070   34.5070   46.2050 O   0  0  0  0  0  0  0  0  0  0  0  0
   45.2910   31.1020   44.0820 Cl  0  0  0  0  0  0  0  0  0  0  0  0
   46.1970   31.3170   45.5730 C   0  0  0  0  0  0  0  0  0  0  0  0
   46.2350   32.5820   46.1220 C   0  0  0  0  0  0  0  0  0  0  0  0
   46.9340   32.8290   47.3040 C   0  0  0  0  0  0  0  0  0  0  0  0
   46.9980   33.8100   47.7820 H   0  0  0  0  0  0  0  0  0  0  0  0
   47.6090   31.8140   47.9620 C   0  0  0  0  0  0  0  0  0  0  0  0
   48.1660   31.9500   48.8810 H   0  0  0  0  0  0  0  0  0  0  0  0
   47.5470   30.5590   47.3810 C   0  0  0  0  0  0  0  0  0  0  0  0
   46.8600   30.2700   46.2020 C   0  0  0  0  0  0  0  0  0  0  0  0
   43.8130   34.8860   40.7780 S   0  0  0  0  0  0  0  0  0  0  0  0
   42.1770   34.9590   41.5000 C   0  0  0  0  0  0  0  0  0  0  0  0
   42.1890   35.2310   42.5940 H   0  0  0  0  0  0  0  0  0  0  0  0
   41.7220   33.9420   41.4440 H   0  0  0  0  0  0  0  0  0  0  0  0
   41.2610   35.9270   40.8150 C   0  0  0  0  0  0  0  0  0  0  0  0
   41.7880   36.7130   40.2430 H   0  0  0  0  0  0  0  0  0  0  0  0
   40.5950   36.4300   41.5490 H   0  0  0  0  0  0  0  0  0  0  0  0
   42.0250   36.1390   37.8820 Cl  0  0  0  0  0  0  0  0  0  0  0  0
   40.6360   35.2610   38.4710 C   0  0  0  0  0  0  0  0  0  0  0  0
   40.3770   35.2300   39.8450 C   0  0  0  0  0  0  0  0  0  0  0  0
   39.2620   34.5160   40.2380 C   0  0  0  0  0  0  0  0  0  0  0  0
   38.3950   33.8430   39.4010 C   0  0  0  0  0  0  0  0  0  0  0  0
   38.6800   33.8960   38.0540 C   0  0  0  0  0  0  0  0  0  0  0  0
   37.6140   33.0600   36.9140 Cl  0  0  0  0  0  0  0  0  0  0  0  0
   39.7790   34.5930   37.6060 C   0  0  0  0  0  0  0  0  0  0  0  0
   39.0970   34.5150   41.3070 H   0  0  0  0  0  0  0  0  0  0  0  0
   37.5380   33.3080   39.8150 H   0  0  0  0  0  0  0  0  0  0  0  0
   39.9530   34.5990   36.5370 H   0  0  0  0  0  0  0  0  0  0  0  0
  1  6  1  0  0  0  0
  2  1  2  0  0  0  0
  2  3  1  0  0  0  0
  3  4  2  0  0  0  0
  4  5  1  0  0  0  0
  5  9  1  0  0  0  0
  6  5  2  0  0  0  0
  7  2  1  0  0  0  0
  8  3  1  0  0  0  0
  9 13  1  0  0  0  0
  9 10  2  0  0  0  0
 11 12  1  0  0  0  0
 12 13  2  0  0  0  0
 12 19  1  0  0  0  0
 13 14  1  0  0  0  0
 14 15  1  0  0  0  0
 14 16  2  0  0  0  0
 16 17  1  0  0  0  0
 18 16  1  0  0  0  0
 19 18  2  0  0  0  0
 20 21  1  0  0  0  0
 20  1  1  0  0  0  0
 21 22  1  0  0  0  0
 23 21  1  0  0  0  0
 24 21  1  0  0  0  0
 24 26  1  0  0  0  0
 25 24  1  0  0  0  0
 27 28  1  0  0  0  0
 28 29  1  0  0  0  0
 29 30  2  0  0  0  0
 29 24  1  0  0  0  0
 30 35  1  0  0  0  0
 31 36  1  0  0  0  0
 31 30  1  0  0  0  0
 32 31  2  0  0  0  0
 33 32  1  0  0  0  0
 34 32  1  0  0  0  0
 34 28  2  0  0  0  0
 37 34  1  0  0  0  0
M  END
>  <minimizedAffinity>
-6.79513311

>  <minimizedRMSD>
0.81441021

$$$$
