REMARK  Name = 
REMARK  6 active torsions:
REMARK  status: ('A' for Active; 'I' for Inactive)
REMARK    1  A    between atoms: C_1  and  C_2
REMARK    2  A    between atoms: C_1  and  S_11
REMARK    3  A    between atoms: C_2  and  C_5
REMARK    4  A    between atoms: S_11  and  C_12
REMARK    5  A    between atoms: C_16  and  C_18
REMARK    6  A    between atoms: C_18  and  C_31
REMARK                            x       y       z     vdW  Elec       q    Type
REMARK                         _______ _______ _______ _____ _____    ______ ____
ROOT
ATOM      1  C   UNL     1      44.809  34.709  41.986  0.00  0.00    +0.000 A 
ATOM      2  C   UNL     1      46.099  34.529  41.475  0.00  0.00    +0.000 A 
ATOM      3  C   UNL     1      47.129  34.260  42.372  0.00  0.00    +0.000 A 
ATOM      4  N   UNL     1      46.824  34.186  43.706  0.00  0.00    +0.000 NA
ATOM      5  C   UNL     1      45.576  34.363  44.170  0.00  0.00    +0.000 A 
ATOM      6  N   UNL     1      44.584  34.623  43.301  0.00  0.00    +0.000 NA
ATOM      7  H   UNL     1      46.392  34.577  40.433  0.00  0.00    +0.000 HD
ATOM      8  H   UNL     1      48.146  34.114  42.016  0.00  0.00    +0.000 HD
ENDROOT
BRANCH   5   9
ATOM      9  C   UNL     1      45.352  34.265  45.598  0.00  0.00    +0.000 C 
ATOM     10  O   UNL     1      44.532  35.052  46.129  0.00  0.00    +0.000 OA
BRANCH   9  13
ATOM     11 CL   UNL     1      46.137  31.695  44.148  0.00  0.00    +0.000 Cl
ATOM     12  C   UNL     1      46.520  32.041  45.829  0.00  0.00    +0.000 A 
ATOM     13  C   UNL     1      46.097  33.248  46.346  0.00  0.00    +0.000 A 
ATOM     14  C   UNL     1      46.365  33.592  47.672  0.00  0.00    +0.000 A 
ATOM     15  H   UNL     1      46.054  34.533  48.132  0.00  0.00    +0.000 HD
ATOM     16  C   UNL     1      47.061  32.735  48.508  0.00  0.00    +0.000 A 
ATOM     17  H   UNL     1      47.295  32.952  49.543  0.00  0.00    +0.000 HD
ATOM     18  C   UNL     1      47.468  31.533  47.953  0.00  0.00    +0.000 A 
ATOM     19  C   UNL     1      47.222  31.152  46.634  0.00  0.00    +0.000 A 
ENDBRANCH   9  13
ENDBRANCH   5   9
BRANCH   1  20
ATOM     20  S   UNL     1      43.523  35.053  40.781  0.00  0.00    +0.000 S 
BRANCH  20  21
ATOM     21  C   UNL     1      41.905  35.216  41.527  0.00  0.00    +0.000 C 
ATOM     22  H   UNL     1      41.942  35.627  42.577  0.00  0.00    +0.000 HD
ATOM     23  H   UNL     1      41.453  34.200  41.614  0.00  0.00    +0.000 HD
BRANCH  21  24
ATOM     24  C   UNL     1      40.968  36.086  40.746  0.00  0.00    +0.000 C 
ATOM     25  H   UNL     1      41.475  36.870  40.154  0.00  0.00    +0.000 HD
ATOM     26  H   UNL     1      40.239  36.587  41.419  0.00  0.00    +0.000 HD
BRANCH  24  29
ATOM     27 CL   UNL     1      41.765  36.300  37.822  0.00  0.00    +0.000 Cl
ATOM     28  C   UNL     1      40.456  35.306  38.410  0.00  0.00    +0.000 A 
ATOM     29  C   UNL     1      40.175  35.283  39.780  0.00  0.00    +0.000 A 
ATOM     30  C   UNL     1      39.126  34.474  40.172  0.00  0.00    +0.000 A 
ATOM     31  C   UNL     1      38.345  33.700  39.338  0.00  0.00    +0.000 A 
ATOM     32  C   UNL     1      38.650  33.748  37.995  0.00  0.00    +0.000 A 
ATOM     33 CL   UNL     1      37.693  32.785  36.859  0.00  0.00    +0.000 Cl
ATOM     34  C   UNL     1      39.685  34.537  37.548  0.00  0.00    +0.000 A 
ATOM     35  H   UNL     1      38.941  34.483  41.237  0.00  0.00    +0.000 HD
ATOM     36  H   UNL     1      37.536  33.094  39.751  0.00  0.00    +0.000 HD
ATOM     37  H   UNL     1      39.879  34.534  36.482  0.00  0.00    +0.000 HD
ENDBRANCH  24  29
ENDBRANCH  21  24
ENDBRANCH  20  21
ENDBRANCH   1  20
TORSDOF 6
