
     RDKit          3D

 39 41  0  0  0  0  0  0  0  0999 V2000
   41.9048   35.2159   41.5268 C   0  0  0  0  0  0  0  0  0  0  0  0
   40.9675   36.0864   40.7458 C   0  0  0  0  0  0  0  0  0  0  0  0
   41.7650   36.3002   37.8222 Cl  0  0  0  0  0  0  0  0  0  0  0  0
   40.4559   35.3063   38.4103 C   0  0  0  0  0  0  0  0  0  0  0  0
   40.1752   35.2827   39.7797 C   0  0  0  0  0  0  0  0  0  0  0  0
   39.1257   34.4738   40.1719 C   0  0  0  0  0  0  0  0  0  0  0  0
   38.3452   33.7005   39.3376 C   0  0  0  0  0  0  0  0  0  0  0  0
   38.6501   33.7481   37.9948 C   0  0  0  0  0  0  0  0  0  0  0  0
   37.6933   32.7847   36.8591 Cl  0  0  0  0  0  0  0  0  0  0  0  0
   39.6849   34.5366   37.5484 C   0  0  0  0  0  0  0  0  0  0  0  0
   43.5229   35.0534   40.7812 S   0  0  0  0  0  0  0  0  0  0  0  0
   44.8092   34.7091   41.9861 C   0  0  0  0  0  0  0  0  0  0  0  0
   46.0991   34.5291   41.4751 C   0  0  0  0  0  0  0  0  0  0  0  0
   47.1292   34.2599   42.3724 C   0  0  0  0  0  0  0  0  0  0  0  0
   46.8242   34.1858   43.7064 N   0  0  0  0  0  0  0  0  0  0  0  0
   45.5758   34.3630   44.1696 C   0  0  0  0  0  0  0  0  0  0  0  0
   44.5839   34.6227   43.3010 N   0  0  0  0  0  0  0  0  0  0  0  0
   45.3518   34.2647   45.5984 C   0  0  0  0  0  0  0  0  0  0  0  0
   44.5321   35.0521   46.1289 O   0  0  0  0  0  0  0  0  0  0  0  0
   41.9422   35.6268   42.5768 H   0  0  0  0  0  0  0  0  0  0  0  0
   41.4534   34.1995   41.6144 H   0  0  0  0  0  0  0  0  0  0  0  0
   41.4751   36.8699   40.1539 H   0  0  0  0  0  0  0  0  0  0  0  0
   40.2389   36.5866   41.4185 H   0  0  0  0  0  0  0  0  0  0  0  0
   38.9408   34.4831   41.2369 H   0  0  0  0  0  0  0  0  0  0  0  0
   37.5363   33.0939   39.7514 H   0  0  0  0  0  0  0  0  0  0  0  0
   39.8788   34.5344   36.4819 H   0  0  0  0  0  0  0  0  0  0  0  0
   46.3922   34.5773   40.4327 H   0  0  0  0  0  0  0  0  0  0  0  0
   48.1459   34.1135   42.0161 H   0  0  0  0  0  0  0  0  0  0  0  0
   46.7347   32.0425   44.0252 Cl  0  0  0  0  0  0  0  0  0  0  0  0
   46.7712   32.1876   45.7771 C   0  0  0  0  0  0  0  0  0  0  0  0
   46.0974   33.2479   46.3463 C   0  0  0  0  0  0  0  0  0  0  0  0
   46.0820   33.4278   47.7307 C   0  0  0  0  0  0  0  0  0  0  0  0
   45.5649   34.2489   48.2329 H   0  0  0  0  0  0  0  0  0  0  0  0
   46.7413   32.5493   48.5735 C   0  0  0  0  0  0  0  0  0  0  0  0
   46.7615   32.6420   49.6523 H   0  0  0  0  0  0  0  0  0  0  0  0
   47.4065   31.4973   47.9659 C   0  0  0  0  0  0  0  0  0  0  0  0
   47.4461   31.2824   46.5882 C   0  0  0  0  0  0  0  0  0  0  0  0
   47.9264   30.8052   48.6349 H   0  0  0  0  0  0  0  0  0  0  0  0
   47.9650   30.4650   46.1423 H   0  0  0  0  0  0  0  0  0  0  0  0
  2  1  1  0
  3  4  1  0
  4  5  2  0
  5  6  1  0
  5  2  1  0
  7  6  2  0
  8  7  1  0
  9  8  1  0
 10  8  2  0
 10  4  1  0
 11  1  1  0
 11 12  1  0
 12 17  1  0
 13 12  2  0
 13 14  1  0
 14 15  2  0
 15 16  1  0
 16 18  1  0
 17 16  2  0
 18 19  2  0
  1 20  1  0
  1 21  1  0
  2 22  1  0
  2 23  1  0
  6 24  1  0
  7 25  1  0
 10 26  1  0
 13 27  1  0
 14 28  1  0
 29 30  1  0
 30 31  2  0
 31 32  1  0
 32 33  1  0
 32 34  2  0
 34 35  1  0
 34 36  1  0
 36 37  2  0
 37 30  1  0
 36 38  1  0
 37 39  1  0
 18 31  1  0
M  ISO  8  20   8  21   8  22   8  23   8  24  14  25  14  26  14  27  14
M  ISO  3  28  14  33  15  35  16
M  END
>  <DihAtoms>  (1) 
15,17,30,29

>  <DihDeg>  (1) 
135.00111470922488

$$$$
