
 OpenBabel03242515003D

 37 39  0  0  0  0  0  0  0  0999 V2000
   45.0980   34.5920   42.0120 C   0  0  0  0  0  0  0  0  0  0  0  0
   46.4190   34.6560   41.5540 C   0  0  0  0  0  0  0  0  0  0  0  0
   47.4420   34.4150   42.4660 C   0  0  0  0  0  0  0  0  0  0  0  0
   47.1010   34.1280   43.7620 N   0  0  0  0  0  0  0  0  0  0  0  0
   45.8240   34.0730   44.1750 C   0  0  0  0  0  0  0  0  0  0  0  0
   44.8390   34.3070   43.2920 N   0  0  0  0  0  0  0  0  0  0  0  0
   46.7410   34.8780   40.5430 H   0  0  0  0  0  0  0  0  0  0  0  0
   48.4820   34.4560   42.1510 H   0  0  0  0  0  0  0  0  0  0  0  0
   45.5640   33.7610   45.5660 C   0  0  0  0  0  0  0  0  0  0  0  0
   44.7930   34.5120   46.2110 O   0  0  0  0  0  0  0  0  0  0  0  0
   45.2200   31.0810   44.1430 Cl  0  0  0  0  0  0  0  0  0  0  0  0
   46.1520   31.3100   45.6160 C   0  0  0  0  0  0  0  0  0  0  0  0
   46.2150   32.5820   46.1430 C   0  0  0  0  0  0  0  0  0  0  0  0
   46.9370   32.8390   47.3110 C   0  0  0  0  0  0  0  0  0  0  0  0
   47.0200   33.8270   47.7710 H   0  0  0  0  0  0  0  0  0  0  0  0
   47.6080   31.8270   47.9750 C   0  0  0  0  0  0  0  0  0  0  0  0
   48.1810   31.9710   48.8820 H   0  0  0  0  0  0  0  0  0  0  0  0
   47.5220   30.5620   47.4150 C   0  0  0  0  0  3  0  0  0  0  0  0
   46.8120   30.2640   46.2520 C   0  0  0  0  0  3  0  0  0  0  0  0
   43.8220   34.9120   40.7890 S   0  0  0  0  0  0  0  0  0  0  0  0
   42.1780   34.9240   41.4960 C   0  0  0  0  0  0  0  0  0  0  0  0
   42.1730   35.1570   42.5990 H   0  0  0  0  0  0  0  0  0  0  0  0
   41.7470   33.9000   41.4000 H   0  0  0  0  0  0  0  0  0  0  0  0
   41.2470   35.8940   40.8350 C   0  0  0  0  0  0  0  0  0  0  0  0
   41.7620   36.6960   40.2740 H   0  0  0  0  0  0  0  0  0  0  0  0
   40.5820   36.3770   41.5840 H   0  0  0  0  0  0  0  0  0  0  0  0
   42.0140   36.1260   37.9050 Cl  0  0  0  0  0  0  0  0  0  0  0  0
   40.6230   35.2470   38.4860 C   0  0  0  0  0  0  0  0  0  0  0  0
   40.3630   35.2060   39.8600 C   0  0  0  0  0  0  0  0  0  0  0  0
   39.2460   34.4910   40.2470 C   0  0  0  0  0  0  0  0  0  0  0  0
   38.3790   33.8260   39.4040 C   0  0  0  0  0  0  0  0  0  0  0  0
   38.6650   33.8890   38.0580 C   0  0  0  0  0  0  0  0  0  0  0  0
   37.5990   33.0630   36.9110 Cl  0  0  0  0  0  0  0  0  0  0  0  0
   39.7660   34.5860   37.6160 C   0  0  0  0  0  0  0  0  0  0  0  0
   39.0800   34.4830   41.3150 H   0  0  0  0  0  0  0  0  0  0  0  0
   37.5200   33.2890   39.8130 H   0  0  0  0  0  0  0  0  0  0  0  0
   39.9410   34.6000   36.5470 H   0  0  0  0  0  0  0  0  0  0  0  0
  1  6  1  0  0  0  0
  2  1  2  0  0  0  0
  2  3  1  0  0  0  0
  3  4  2  0  0  0  0
  4  5  1  0  0  0  0
  5  9  1  0  0  0  0
  6  5  2  0  0  0  0
  7  2  1  0  0  0  0
  8  3  1  0  0  0  0
  9 13  1  0  0  0  0
  9 10  2  0  0  0  0
 11 12  1  0  0  0  0
 12 13  2  0  0  0  0
 12 19  1  0  0  0  0
 13 14  1  0  0  0  0
 14 15  1  0  0  0  0
 14 16  2  0  0  0  0
 16 17  1  0  0  0  0
 18 16  1  0  0  0  0
 19 18  2  0  0  0  0
 20 21  1  0  0  0  0
 20  1  1  0  0  0  0
 21 22  1  0  0  0  0
 23 21  1  0  0  0  0
 24 21  1  0  0  0  0
 24 26  1  0  0  0  0
 25 24  1  0  0  0  0
 27 28  1  0  0  0  0
 28 29  1  0  0  0  0
 29 30  2  0  0  0  0
 29 24  1  0  0  0  0
 30 35  1  0  0  0  0
 31 36  1  0  0  0  0
 31 30  1  0  0  0  0
 32 31  2  0  0  0  0
 33 32  1  0  0  0  0
 34 32  1  0  0  0  0
 34 28  2  0  0  0  0
 37 34  1  0  0  0  0
M  END
>  <minimizedAffinity>
-6.76307201

>  <minimizedRMSD>
0.698880792

$$$$
