
     RDKit          3D

 47 50  0  0  0  0  0  0  0  0999 V2000
   47.8761   32.9253   41.8273 C   0  0  1  0  0  0  0  0  0  0  0  0
   47.5676   32.1863   40.5998 C   0  0  0  0  0  0  0  0  0  0  0  0
   48.5867   32.6296   39.5532 C   0  0  0  0  0  0  0  0  0  0  0  0
   48.2478   34.0658   39.2030 C   0  0  0  0  0  0  0  0  0  0  0  0
   48.1599   34.9826   40.3898 C   0  0  0  0  0  0  0  0  0  0  0  0
   47.6554   34.4310   41.6509 C   0  0  1  0  0  0  0  0  0  0  0  0
   45.4717   31.0914   44.1009 C   0  0  0  0  0  0  0  0  0  0  0  0
   46.1581   31.5682   42.9773 C   0  0  0  0  0  0  0  0  0  0  0  0
   47.2212   32.4738   43.0369 C   0  0  0  0  0  0  0  0  0  0  0  0
   47.5691   32.8827   44.2622 N   0  0  0  0  0  0  0  0  0  0  0  0
   46.9149   32.4316   45.3664 C   0  0  0  0  0  0  0  0  0  0  0  0
   45.8996   31.5655   45.2993 N   0  0  0  0  0  0  0  0  0  0  0  0
   46.2687   34.8103   41.9239 C   0  0  0  0  0  0  0  0  0  0  0  0
   45.8047   35.4935   43.0461 C   0  0  0  0  0  0  0  0  0  0  0  0
   44.4373   35.7615   43.0789 C   0  0  0  0  0  0  0  0  0  0  0  0
   43.6633   35.3384   42.0196 C   0  0  0  0  0  0  0  0  0  0  0  0
   44.1424   34.6584   40.9093 C   0  0  0  0  0  0  0  0  0  0  0  0
   45.4797   34.4058   40.8949 N   0  0  0  0  0  0  0  0  0  0  0  0
   43.2302   34.2568   39.8472 C   0  0  0  0  0  0  0  0  0  0  0  0
   42.3738   35.0864   39.4529 O   0  0  0  0  0  0  0  0  0  0  0  0
   48.9929   32.8660   42.0077 H   0  0  0  0  0  0  0  0  0  0  0  0
   46.5675   32.3595   40.2029 H   0  0  0  0  0  0  0  0  0  0  0  0
   47.7536   31.0974   40.7944 H   0  0  0  0  0  0  0  0  0  0  0  0
   48.4030   32.0513   38.6144 H   0  0  0  0  0  0  0  0  0  0  0  0
   49.6172   32.5224   39.9248 H   0  0  0  0  0  0  0  0  0  0  0  0
   47.2971   34.0347   38.6188 H   0  0  0  0  0  0  0  0  0  0  0  0
   49.0241   34.4441   38.4998 H   0  0  0  0  0  0  0  0  0  0  0  0
   49.1669   35.4560   40.5119 H   0  0  0  0  0  0  0  0  0  0  0  0
   47.4911   35.8323   40.0842 H   0  0  0  0  0  0  0  0  0  0  0  0
   48.2435   34.8935   42.5016 H   0  0  0  0  0  0  0  0  0  0  0  0
   44.6721   30.4020   43.9702 H   0  0  0  0  0  0  0  0  0  0  0  0
   45.8498   31.2164   41.9987 H   0  0  0  0  0  0  0  0  0  0  0  0
   47.2375   32.7965   46.3481 H   0  0  0  0  0  0  0  0  0  0  0  0
   46.5449   35.7544   43.7901 H   0  0  0  0  0  0  0  0  0  0  0  0
   44.0812   36.2860   43.9401 H   0  0  0  0  0  0  0  0  0  0  0  0
   42.6072   35.5866   42.1220 H   0  0  0  0  0  0  0  0  0  0  0  0
   42.0506   34.7606   37.2080 Cl  0  0  0  0  0  0  0  0  0  0  0  0
   42.4959   33.1468   37.7864 C   0  0  0  0  0  0  0  0  0  0  0  0
   43.0479   33.0409   39.0708 C   0  0  0  0  0  0  0  0  0  0  0  0
   43.3637   31.7744   39.4421 C   0  0  0  0  0  0  0  0  0  0  0  0
   43.7964   31.6347   40.4023 H   0  0  0  0  0  0  0  0  0  0  0  0
   43.1870   30.6399   38.6809 C   0  0  0  0  0  0  0  0  0  0  0  0
   43.4620   29.6633   39.0431 H   0  0  0  0  0  0  0  0  0  0  0  0
   42.6394   30.8072   37.4267 C   0  0  0  0  0  0  0  0  0  0  0  0
   42.2826   32.0493   36.9488 C   0  0  0  0  0  0  0  0  0  0  0  0
   42.4685   29.9709   36.7692 H   0  0  0  0  0  0  0  0  0  0  0  0
   41.8493   32.2558   35.9779 H   0  0  0  0  0  0  0  0  0  0  0  0
  1  9  1  0
  2  1  1  0
  3  2  1  0
  4  3  1  0
  4  5  1  0
  5  6  1  0
  6  1  1  0
  6 13  1  0
  7 12  2  0
  8  9  2  0
  8  7  1  0
  9 10  1  0
 10 11  2  0
 12 11  1  0
 13 14  2  0
 14 15  1  0
 16 15  2  0
 17 16  1  0
 18 17  2  0
 18 13  1  0
 19 17  1  0
 20 19  2  0
  1 21  1  1
  2 22  1  0
  2 23  1  0
  3 24  1  0
  3 25  1  0
  4 26  1  0
  4 27  1  0
  5 28  1  0
  5 29  1  0
  6 30  1  1
  7 31  1  0
  8 32  1  0
 11 33  1  0
 14 34  1  0
 15 35  1  0
 16 36  1  0
 37 38  1  0
 38 39  2  0
 39 40  1  0
 40 41  1  0
 40 42  2  0
 42 43  1  0
 42 44  1  0
 44 45  2  0
 45 38  1  0
 44 46  1  0
 45 47  1  0
 19 39  1  0
M  ISO  8  21  13  22  13  23  13  24  13  25  13  26  13  27  13  28  13
M  ISO  8  29  13  30  13  31  14  32  14  33  14  34  14  35  14  36  14
M  ISO  2  41  15  43  16
M  END
>  <DihAtoms>  (1) 
16,18,38,37

>  <DihDeg>  (1) 
131.84701433823463

$$$$
