
 OpenBabel03242516523D

 45 48  0  0  1  0  0  0  0  0999 V2000
   47.8370   32.8820   41.8370 C   0  0  1  0  0  0  0  0  0  0  0  0
   47.5020   32.2380   40.5640 C   0  0  0  0  0  0  0  0  0  0  0  0
   48.5120   32.7440   39.5370 C   0  0  0  0  0  0  0  0  0  0  0  0
   48.1870   34.2060   39.2970 C   0  0  0  0  0  0  0  0  0  0  0  0
   48.1280   35.0350   40.5490 C   0  0  0  0  0  0  0  0  0  0  0  0
   47.6330   34.3990   41.7740 C   0  0  1  0  0  0  0  0  0  0  0  0
   48.9550   32.7970   41.9960 H   0  0  0  0  0  0  0  0  0  0  0  0
   46.4990   32.4510   40.1960 H   0  0  0  0  0  0  0  0  0  0  0  0
   47.6760   31.1360   40.6760 H   0  0  0  0  0  0  0  0  0  0  0  0
   48.3070   32.2370   38.5610 H   0  0  0  0  0  0  0  0  0  0  0  0
   49.5460   32.5970   39.8850 H   0  0  0  0  0  0  0  0  0  0  0  0
   47.2280   34.2290   38.7270 H   0  0  0  0  0  0  0  0  0  0  0  0
   48.9580   34.6250   38.6120 H   0  0  0  0  0  0  0  0  0  0  0  0
   49.1430   35.4860   40.6900 H   0  0  0  0  0  0  0  0  0  0  0  0
   47.4660   35.9120   40.3150 H   0  0  0  0  0  0  0  0  0  0  0  0
   48.2390   34.7920   42.6470 H   0  0  0  0  0  0  0  0  0  0  0  0
   45.4150   30.9500   44.0080 C   0  0  0  0  0  0  0  0  0  0  0  0
   46.0930   31.4960   42.9110 C   0  0  0  0  0  0  0  0  0  0  0  0
   47.1930   32.3520   43.0210 C   0  0  0  0  0  0  0  0  0  0  0  0
   47.5860   32.6390   44.2660 N   0  0  0  0  0  0  0  0  0  0  0  0
   46.9400   32.1190   45.3450 C   0  0  0  0  0  0  0  0  0  0  0  0
   45.8900   31.3010   45.2310 N   0  0  0  0  0  0  0  0  0  0  0  0
   44.5850   30.3060   43.8400 H   0  0  0  0  0  0  0  0  0  0  0  0
   45.7480   31.2430   41.9150 H   0  0  0  0  0  0  0  0  0  0  0  0
   47.3000   32.3840   46.3450 H   0  0  0  0  0  0  0  0  0  0  0  0
   46.2560   34.7750   42.0940 C   0  0  0  0  0  0  0  0  0  0  0  0
   45.8130   35.3550   43.2800 C   0  0  0  0  0  0  0  0  0  0  0  0
   44.4500   35.6420   43.3510 C   0  0  0  0  0  0  0  0  0  0  0  0
   43.6610   35.3360   42.2630 C   0  0  0  0  0  0  0  0  0  0  0  0
   44.1200   34.7570   41.0880 C   0  0  0  0  0  0  0  0  0  0  0  0
   45.4530   34.4840   41.0380 N   0  0  0  0  0  0  0  0  0  0  0  0
   46.5630   35.5310   44.0390 H   0  0  0  0  0  0  0  0  0  0  0  0
   44.1100   36.0890   44.2610 H   0  0  0  0  0  0  0  0  0  0  0  0
   42.6100   35.5920   42.3980 H   0  0  0  0  0  0  0  0  0  0  0  0
   43.1930   34.4750   40.0010 C   0  0  0  0  0  0  0  0  0  0  0  0
   42.5850   35.4380   39.4720 O   0  0  0  0  0  0  0  0  0  0  0  0
   40.8630   33.2300   41.2790 Cl  0  0  0  0  0  0  0  0  0  0  0  0
   41.6520   32.5740   39.8350 C   0  0  0  0  0  0  0  0  0  0  0  0
   42.7610   33.2630   39.3240 C   0  0  0  0  0  0  0  0  0  0  0  0
   43.3090   32.7000   38.2180 C   0  0  0  0  0  0  0  0  0  0  0  0
   44.1460   33.1860   37.7800 H   0  0  0  0  0  0  0  0  0  0  0  0
   42.8720   31.5530   37.5920 C   0  0  0  0  0  0  0  0  0  0  0  0
   43.3600   31.1640   36.7140 H   0  0  0  0  0  0  0  0  0  0  0  0
   41.7780   30.9190   38.1400 C   0  0  0  0  0  3  0  0  0  0  0  0
   41.1430   31.4040   39.2630 C   0  0  0  0  0  3  0  0  0  0  0  0
  1  7  1  1  0  0  0
  1 19  1  0  0  0  0
  2  9  1  0  0  0  0
  2  1  1  0  0  0  0
  3 11  1  0  0  0  0
  3  2  1  0  0  0  0
  4  3  1  0  0  0  0
  4  5  1  0  0  0  0
  5 14  1  0  0  0  0
  5  6  1  0  0  0  0
  6  1  1  0  0  0  0
  6 26  1  0  0  0  0
  6 16  1  1  0  0  0
  8  2  1  0  0  0  0
 10  3  1  0  0  0  0
 12  4  1  0  0  0  0
 13  4  1  0  0  0  0
 15  5  1  0  0  0  0
 17 22  1  0  0  0  0
 18 19  1  0  0  0  0
 18 17  2  0  0  0  0
 19 20  2  0  0  0  0
 20 21  1  0  0  0  0
 21 25  1  0  0  0  0
 22 21  2  0  0  0  0
 23 17  1  0  0  0  0
 24 18  1  0  0  0  0
 26 27  1  0  0  0  0
 27 28  2  0  0  0  0
 27 32  1  0  0  0  0
 28 33  1  0  0  0  0
 29 34  1  0  0  0  0
 29 28  1  0  0  0  0
 30 29  2  0  0  0  0
 31 30  1  0  0  0  0
 31 26  2  0  0  0  0
 35 30  1  0  0  0  0
 36 35  2  0  0  0  0
 38 37  1  0  0  0  0
 39 38  1  0  0  0  0
 39 35  1  0  0  0  0
 40 39  2  0  0  0  0
 41 40  1  0  0  0  0
 42 44  2  0  0  0  0
 42 40  1  0  0  0  0
 43 42  1  0  0  0  0
 44 45  1  0  0  0  0
 45 38  2  0  0  0  0
M  END
>  <minimizedAffinity>
-5.60762739

>  <minimizedRMSD>
1.09916615

$$$$
