
     RDKit          3D

 45 48  0  0  0  0  0  0  0  0999 V2000
   47.8759   32.9435   41.9276 C   0  0  1  0  0  0  0  0  0  0  0  0
   47.6058   32.2874   40.6305 C   0  0  0  0  0  0  0  0  0  0  0  0
   48.6487   32.8231   39.6445 C   0  0  0  0  0  0  0  0  0  0  0  0
   48.3071   34.2926   39.4194 C   0  0  0  0  0  0  0  0  0  0  0  0
   48.1796   35.0927   40.6563 C   0  0  0  0  0  0  0  0  0  0  0  0
   47.6583   34.4401   41.8651 C   0  0  1  0  0  0  0  0  0  0  0  0
   45.4132   30.9647   43.9899 C   0  0  0  0  0  0  0  0  0  0  0  0
   46.1128   31.5306   42.9272 C   0  0  0  0  0  0  0  0  0  0  0  0
   47.1906   32.3750   43.0805 C   0  0  0  0  0  0  0  0  0  0  0  0
   47.5493   32.6378   44.3483 N   0  0  0  0  0  0  0  0  0  0  0  0
   46.8826   32.0983   45.3983 C   0  0  0  0  0  0  0  0  0  0  0  0
   45.8472   31.2869   45.2430 N   0  0  0  0  0  0  0  0  0  0  0  0
   46.2460   34.7825   42.1387 C   0  0  0  0  0  0  0  0  0  0  0  0
   45.7400   35.3349   43.3214 C   0  0  0  0  0  0  0  0  0  0  0  0
   44.3683   35.5915   43.3176 C   0  0  0  0  0  0  0  0  0  0  0  0
   43.6479   35.2924   42.1932 C   0  0  0  0  0  0  0  0  0  0  0  0
   44.1461   34.7565   41.0508 C   0  0  0  0  0  0  0  0  0  0  0  0
   45.4736   34.5076   41.0538 N   0  0  0  0  0  0  0  0  0  0  0  0
   48.9822   32.8534   42.1477 H   0  0  0  0  0  0  0  0  0  0  0  0
   47.8243   31.1830   40.7699 H   0  0  0  0  0  0  0  0  0  0  0  0
   46.5951   32.4479   40.2557 H   0  0  0  0  0  0  0  0  0  0  0  0
   48.4874   32.3241   38.6680 H   0  0  0  0  0  0  0  0  0  0  0  0
   49.6531   32.6869   40.0475 H   0  0  0  0  0  0  0  0  0  0  0  0
   47.4504   34.3344   38.7433 H   0  0  0  0  0  0  0  0  0  0  0  0
   49.1739   34.6854   38.8107 H   0  0  0  0  0  0  0  0  0  0  0  0
   47.4905   35.9551   40.4130 H   0  0  0  0  0  0  0  0  0  0  0  0
   49.1528   35.5962   40.8579 H   0  0  0  0  0  0  0  0  0  0  0  0
   48.2109   34.8508   42.7591 H   0  0  0  0  0  0  0  0  0  0  0  0
   44.5756   30.3100   43.7560 H   0  0  0  0  0  0  0  0  0  0  0  0
   45.7843   31.2878   41.9243 H   0  0  0  0  0  0  0  0  0  0  0  0
   47.1738   32.3118   46.4236 H   0  0  0  0  0  0  0  0  0  0  0  0
   46.4367   35.4992   44.0857 H   0  0  0  0  0  0  0  0  0  0  0  0
   43.9718   36.0143   44.2183 H   0  0  0  0  0  0  0  0  0  0  0  0
   42.6244   35.5286   42.3047 H   0  0  0  0  0  0  0  0  0  0  0  0
   43.7415   36.7998   38.6816 Cl  0  0  0  0  0  0  0  0  0  0  0  0
   43.1407   35.1693   38.7284 C   0  0  0  0  0  0  0  0  0  0  0  0
   43.4129   34.4266   39.8389 C   0  0  0  0  0  0  0  0  0  0  0  0
   42.8833   33.1523   39.7539 C   0  0  0  0  0  0  0  0  0  0  0  0
   42.9840   32.4197   40.5137 H   0  0  0  0  0  0  0  0  0  0  0  0
   42.1654   32.6945   38.6701 C   0  0  0  0  0  0  0  0  0  0  0  0
   41.7598   31.6963   38.6220 H   0  0  0  0  0  0  0  0  0  0  0  0
   41.9298   33.5045   37.5814 C   0  0  0  0  0  0  0  0  0  0  0  0
   42.4446   34.7766   37.6381 C   0  0  0  0  0  0  0  0  0  0  0  0
   41.3722   33.1532   36.7361 H   0  0  0  0  0  0  0  0  0  0  0  0
   42.2642   35.4118   36.7932 H   0  0  0  0  0  0  0  0  0  0  0  0
  1  9  1  0
  2  1  1  0
  3  2  1  0
  4  3  1  0
  4  5  1  0
  5  6  1  0
  6  1  1  0
  6 13  1  0
  7 12  2  0
  8  9  2  0
  8  7  1  0
  9 10  1  0
 10 11  2  0
 12 11  1  0
 13 14  2  0
 15 14  1  0
 16 15  2  0
 17 16  1  0
 18 17  2  0
 18 13  1  0
  1 19  1  1
  2 20  1  0
  2 21  1  0
  3 22  1  0
  3 23  1  0
  4 24  1  0
  4 25  1  0
  5 26  1  0
  5 27  1  0
  6 28  1  1
  7 29  1  0
  8 30  1  0
 11 31  1  0
 14 32  1  0
 15 33  1  0
 16 34  1  0
 35 36  1  0
 36 37  2  0
 37 38  1  0
 38 39  1  0
 38 40  2  0
 40 41  1  0
 40 42  1  0
 42 43  2  0
 43 36  1  0
 42 44  1  0
 43 45  1  0
 17 37  1  0
M  ISO  8  19  13  20  13  21  13  22  13  23  13  24  13  25  13  26  13
M  ISO  8  27  13  28  13  29  14  30  14  31  14  32  14  33  14  34  14
M  ISO  2  39  15  41  16
M  END
>  <DihAtoms>  (1) 
15,16,36,35

>  <DihDeg>  (1) 
-0.014595544515811402

$$$$
