
 OpenBabel03242518483D

 45 48  0  0  1  0  0  0  0  0999 V2000
   39.5630   30.8770   40.1470 C   0  0  2  0  0  0  0  0  0  0  0  0
   39.3130   32.0760   39.3060 C   0  0  1  0  0  0  0  0  0  0  0  0
   38.1940   32.9550   39.8640 C   0  0  0  0  0  0  0  0  0  0  0  0
   37.1110   32.0850   40.0010 O   0  0  0  0  0  0  0  0  0  0  0  0
   37.2810   31.2140   41.0540 C   0  0  0  0  0  0  0  0  0  0  0  0
   38.7090   30.9710   41.4260 C   0  0  1  0  0  0  0  0  0  0  0  0
   39.2640   29.9530   39.6130 H   0  0  0  0  0  0  0  0  0  0  0  0
   39.0490   31.7410   38.2810 H   0  0  0  0  0  0  0  0  0  0  0  0
   38.4800   33.4480   40.7890 H   0  0  0  0  0  0  0  0  0  0  0  0
   37.9230   33.6640   39.0470 H   0  0  0  0  0  0  0  0  0  0  0  0
   36.7580   31.6820   41.9360 H   0  0  0  0  0  0  0  0  0  0  0  0
   36.7910   30.2550   40.7800 H   0  0  0  0  0  0  0  0  0  0  0  0
   39.1490   31.8270   41.9750 H   0  0  0  0  0  0  0  0  0  0  0  0
   42.0370   34.0010   37.7780 C   0  0  0  0  0  0  0  0  0  0  0  0
   42.6420   34.6820   38.8770 C   0  0  0  0  0  0  0  0  0  0  0  0
   42.0610   34.4370   40.1430 C   0  0  0  0  0  0  0  0  0  0  0  0
   41.0020   33.6020   40.2380 N   0  0  0  0  0  0  0  0  0  0  0  0
   40.4730   32.9860   39.1580 C   0  0  0  0  0  0  0  0  0  0  0  0
   40.9930   33.1880   37.9270 N   0  0  0  0  0  0  0  0  0  0  0  0
   43.4780   35.3380   38.7810 H   0  0  0  0  0  0  0  0  0  0  0  0
   42.4710   34.9210   41.0160 H   0  0  0  0  0  0  0  0  0  0  0  0
   42.5890   34.2300   36.5570 O   0  0  0  0  0  0  0  0  0  0  0  0
   43.5230   33.9230   36.3620 H   0  0  0  0  0  0  0  0  0  0  0  0
   40.8980   30.7170   40.5310 O   0  0  0  0  0  0  0  0  0  0  0  0
   41.0650   31.2730   41.3340 H   0  0  0  0  0  0  0  0  0  0  0  0
   38.9080   29.7980   42.1180 O   0  0  0  0  0  0  0  0  0  0  0  0
   38.9210   27.5220   40.6620 F   0  0  0  0  0  0  0  0  0  0  0  0
   38.2110   27.7100   41.7920 C   0  0  0  0  0  0  0  0  0  0  0  0
   38.1470   28.8280   42.5960 C   0  0  0  0  0  0  0  0  0  0  0  0
   37.3270   28.7130   43.7060 C   0  0  0  0  0  0  0  0  0  0  0  0
   36.5940   27.5970   44.0550 C   0  0  0  0  0  0  0  0  0  0  0  0
   36.6950   26.5160   43.2200 C   0  0  0  0  0  0  0  0  0  0  0  0
   37.4920   26.5470   42.0910 C   0  0  0  0  0  0  0  0  0  0  0  0
   37.3270   29.6460   44.2990 H   0  0  0  0  0  0  0  0  0  0  0  0
   35.9990   27.6730   44.9610 H   0  0  0  0  0  0  0  0  0  0  0  0
   36.1070   25.6450   43.5160 H   0  0  0  0  0  0  0  0  0  0  0  0
   39.5430   24.4640   42.8860 Cl  0  0  0  0  0  0  0  0  0  0  0  0
   38.3640   24.2850   41.5910 C   0  0  0  0  0  0  0  0  0  0  0  0
   37.4780   25.3140   41.3260 C   0  0  0  0  0  0  0  0  0  0  0  0
   36.5550   25.1540   40.3000 C   0  0  0  0  0  0  0  0  0  0  0  0
   35.8290   25.9170   40.0340 H   0  0  0  0  0  0  0  0  0  0  0  0
   36.5070   23.9980   39.5470 C   0  0  0  0  0  0  0  0  0  0  0  0
   35.8030   23.8290   38.7370 H   0  0  0  0  0  0  0  0  0  0  0  0
   37.4080   22.9930   39.8420 C   0  0  0  0  0  3  0  0  0  0  0  0
   38.3500   23.0980   40.8550 C   0  0  0  0  0  3  0  0  0  0  0  0
  1  7  1  6  0  0  0
  1 24  1  0  0  0  0
  1  6  1  0  0  0  0
  2  8  1  6  0  0  0
  2  3  1  0  0  0  0
  2  1  1  0  0  0  0
  3  4  1  0  0  0  0
  3  9  1  0  0  0  0
  4  5  1  0  0  0  0
  5  6  1  0  0  0  0
  5 11  1  0  0  0  0
  6 13  1  1  0  0  0
  6 26  1  0  0  0  0
 10  3  1  0  0  0  0
 12  5  1  0  0  0  0
 14 19  2  0  0  0  0
 14 15  1  0  0  0  0
 15 16  2  0  0  0  0
 16 17  1  0  0  0  0
 16 21  1  0  0  0  0
 18  2  1  0  0  0  0
 18 17  2  0  0  0  0
 19 18  1  0  0  0  0
 20 15  1  0  0  0  0
 22 14  1  0  0  0  0
 23 22  1  0  0  0  0
 24 25  1  0  0  0  0
 26 29  1  0  0  0  0
 27 28  1  0  0  0  0
 28 33  2  0  0  0  0
 28 29  1  0  0  0  0
 29 30  2  0  0  0  0
 30 31  1  0  0  0  0
 30 34  1  0  0  0  0
 31 35  1  0  0  0  0
 32 36  1  0  0  0  0
 32 31  2  0  0  0  0
 33 32  1  0  0  0  0
 38 37  1  0  0  0  0
 39 38  1  0  0  0  0
 39 33  1  0  0  0  0
 40 39  2  0  0  0  0
 41 40  1  0  0  0  0
 42 44  2  0  0  0  0
 42 40  1  0  0  0  0
 43 42  1  0  0  0  0
 44 45  1  0  0  0  0
 45 38  2  0  0  0  0
M  END
>  <minimizedAffinity>
-7.27140045

$$$$

 OpenBabel03242518483D

 45 48  0  0  1  0  0  0  0  0999 V2000
   40.2510   32.2560   39.5090 C   0  0  2  0  0  0  0  0  0  0  0  0
   40.7710   33.5680   39.0420 C   0  0  1  0  0  0  0  0  0  0  0  0
   40.3140   34.7240   39.9320 C   0  0  0  0  0  0  0  0  0  0  0  0
   38.9230   34.6070   39.9590 O   0  0  0  0  0  0  0  0  0  0  0  0
   38.5120   33.5380   40.7230 C   0  0  0  0  0  0  0  0  0  0  0  0
   39.5300   32.4500   40.8560 C   0  0  1  0  0  0  0  0  0  0  0  0
   39.5150   31.8470   38.7910 H   0  0  0  0  0  0  0  0  0  0  0  0
   40.4220   33.7370   38.0020 H   0  0  0  0  0  0  0  0  0  0  0  0
   40.7760   34.6940   40.9160 H   0  0  0  0  0  0  0  0  0  0  0  0
   40.5380   35.6570   39.3630 H   0  0  0  0  0  0  0  0  0  0  0  0
   38.2960   33.9500   41.7500 H   0  0  0  0  0  0  0  0  0  0  0  0
   37.5830   33.1350   40.2660 H   0  0  0  0  0  0  0  0  0  0  0  0
   40.3440   32.7230   41.5550 H   0  0  0  0  0  0  0  0  0  0  0  0
   44.2090   33.6840   37.7670 C   0  0  0  0  0  0  0  0  0  0  0  0
   45.0080   33.8750   38.9350 C   0  0  0  0  0  0  0  0  0  0  0  0
   44.2970   33.9600   40.1550 C   0  0  0  0  0  0  0  0  0  0  0  0
   42.9480   33.8580   40.1470 N   0  0  0  0  0  0  0  0  0  0  0  0
   42.2480   33.6770   39.0070 C   0  0  0  0  0  0  0  0  0  0  0  0
   42.8820   33.5910   37.8160 N   0  0  0  0  0  0  0  0  0  0  0  0
   46.0710   33.9530   38.9200 H   0  0  0  0  0  0  0  0  0  0  0  0
   44.8420   34.1040   41.0760 H   0  0  0  0  0  0  0  0  0  0  0  0
   44.8840   33.6010   36.5900 O   0  0  0  0  0  0  0  0  0  0  0  0
   45.5000   32.8310   36.4170 H   0  0  0  0  0  0  0  0  0  0  0  0
   41.2400   31.2820   39.6850 O   0  0  0  0  0  0  0  0  0  0  0  0
   41.6450   31.4020   40.5820 H   0  0  0  0  0  0  0  0  0  0  0  0
   38.9920   31.2290   41.1930 O   0  0  0  0  0  0  0  0  0  0  0  0
   39.1630   28.5470   41.4800 F   0  0  0  0  0  0  0  0  0  0  0  0
   38.0540   29.2130   41.0990 C   0  0  0  0  0  0  0  0  0  0  0  0
   37.8770   30.5690   40.9310 C   0  0  0  0  0  0  0  0  0  0  0  0
   36.6060   30.9550   40.5350 C   0  0  0  0  0  0  0  0  0  0  0  0
   35.5410   30.1080   40.3060 C   0  0  0  0  0  0  0  0  0  0  0  0
   35.7750   28.7720   40.4880 C   0  0  0  0  0  0  0  0  0  0  0  0
   37.0140   28.3020   40.8820 C   0  0  0  0  0  0  0  0  0  0  0  0
   36.5420   32.0530   40.4220 H   0  0  0  0  0  0  0  0  0  0  0  0
   34.6090   30.5750   40.0000 H   0  0  0  0  0  0  0  0  0  0  0  0
   34.9180   28.1210   40.3010 H   0  0  0  0  0  0  0  0  0  0  0  0
   36.5750   27.2210   43.6790 Cl  0  0  0  0  0  0  0  0  0  0  0  0
   36.8960   26.2420   42.2510 C   0  0  0  0  0  0  0  0  0  0  0  0
   37.0800   26.8590   41.0260 C   0  0  0  0  0  0  0  0  0  0  0  0
   37.3310   26.0700   39.9100 C   0  0  0  0  0  0  0  0  0  0  0  0
   37.4850   26.4820   38.9170 H   0  0  0  0  0  0  0  0  0  0  0  0
   37.4010   24.6950   40.0010 C   0  0  0  0  0  0  0  0  0  0  0  0
   37.5950   24.0380   39.1580 H   0  0  0  0  0  0  0  0  0  0  0  0
   37.2120   24.1160   41.2410 C   0  0  0  0  0  3  0  0  0  0  0  0
   36.9580   24.8540   42.3880 C   0  0  0  0  0  3  0  0  0  0  0  0
  1  7  1  6  0  0  0
  1 24  1  0  0  0  0
  1  6  1  0  0  0  0
  2  8  1  6  0  0  0
  2  1  1  0  0  0  0
  2  3  1  0  0  0  0
  3  4  1  0  0  0  0
  3  9  1  0  0  0  0
  4  5  1  0  0  0  0
  5  6  1  0  0  0  0
  5 11  1  0  0  0  0
  6 26  1  0  0  0  0
  6 13  1  1  0  0  0
 10  3  1  0  0  0  0
 12  5  1  0  0  0  0
 14 19  2  0  0  0  0
 14 15  1  0  0  0  0
 15 16  2  0  0  0  0
 16 21  1  0  0  0  0
 17 16  1  0  0  0  0
 18  2  1  0  0  0  0
 18 17  2  0  0  0  0
 19 18  1  0  0  0  0
 20 15  1  0  0  0  0
 22 14  1  0  0  0  0
 23 22  1  0  0  0  0
 24 25  1  0  0  0  0
 28 27  1  0  0  0  0
 29 28  1  0  0  0  0
 29 26  1  0  0  0  0
 30 29  2  0  0  0  0
 31 32  2  0  0  0  0
 31 30  1  0  0  0  0
 32 33  1  0  0  0  0
 33 39  1  0  0  0  0
 33 28  2  0  0  0  0
 34 30  1  0  0  0  0
 35 31  1  0  0  0  0
 36 32  1  0  0  0  0
 38 45  1  0  0  0  0
 38 37  1  0  0  0  0
 39 38  2  0  0  0  0
 40 42  2  0  0  0  0
 40 39  1  0  0  0  0
 41 40  1  0  0  0  0
 42 44  1  0  0  0  0
 43 42  1  0  0  0  0
 44 45  2  0  0  0  0
M  END
>  <minimizedAffinity>
-7.17913628

$$$$

 OpenBabel03242518483D

 45 48  0  0  1  0  0  0  0  0999 V2000
   39.3820   31.4520   39.3400 C   0  0  2  0  0  0  0  0  0  0  0  0
   39.6630   32.9100   39.2890 C   0  0  1  0  0  0  0  0  0  0  0  0
   38.8010   33.7030   40.2690 C   0  0  0  0  0  0  0  0  0  0  0  0
   37.4920   33.3360   39.9510 O   0  0  0  0  0  0  0  0  0  0  0  0
   37.2040   32.0530   40.3600 C   0  0  0  0  0  0  0  0  0  0  0  0
   38.4030   31.1670   40.4940 C   0  0  1  0  0  0  0  0  0  0  0  0
   38.9010   31.1110   38.4020 H   0  0  0  0  0  0  0  0  0  0  0  0
   39.4800   33.2700   38.2550 H   0  0  0  0  0  0  0  0  0  0  0  0
   39.0700   33.5110   41.3050 H   0  0  0  0  0  0  0  0  0  0  0  0
   38.9040   34.7740   39.9750 H   0  0  0  0  0  0  0  0  0  0  0  0
   36.7170   32.1470   41.3720 H   0  0  0  0  0  0  0  0  0  0  0  0
   36.4910   31.6170   39.6270 H   0  0  0  0  0  0  0  0  0  0  0  0
   38.9920   31.3980   41.4040 H   0  0  0  0  0  0  0  0  0  0  0  0
   42.6540   33.7770   41.2290 C   0  0  0  0  0  0  0  0  0  0  0  0
   43.6590   33.9980   40.2390 C   0  0  0  0  0  0  0  0  0  0  0  0
   43.2440   33.8320   38.8980 C   0  0  0  0  0  0  0  0  0  0  0  0
   41.9630   33.4840   38.6360 N   0  0  0  0  0  0  0  0  0  0  0  0
   41.0580   33.2880   39.6180 C   0  0  0  0  0  0  0  0  0  0  0  0
   41.4060   33.4350   40.9160 N   0  0  0  0  0  0  0  0  0  0  0  0
   44.6650   34.2720   40.4660 H   0  0  0  0  0  0  0  0  0  0  0  0
   43.9560   33.9840   38.1010 H   0  0  0  0  0  0  0  0  0  0  0  0
   43.0440   33.9350   42.5210 O   0  0  0  0  0  0  0  0  0  0  0  0
   43.3170   34.8380   42.8570 H   0  0  0  0  0  0  0  0  0  0  0  0
   40.5180   30.6590   39.5320 O   0  0  0  0  0  0  0  0  0  0  0  0
   40.7160   30.6200   40.5030 H   0  0  0  0  0  0  0  0  0  0  0  0
   38.1070   29.8240   40.4360 O   0  0  0  0  0  0  0  0  0  0  0  0
   38.1880   27.3010   39.4730 F   0  0  0  0  0  0  0  0  0  0  0  0
   37.7960   27.6400   40.7180 C   0  0  0  0  0  0  0  0  0  0  0  0
   37.7260   28.8900   41.2910 C   0  0  0  0  0  0  0  0  0  0  0  0
   37.2870   28.9170   42.6050 C   0  0  0  0  0  0  0  0  0  0  0  0
   36.9270   27.8170   43.3560 C   0  0  0  0  0  0  0  0  0  0  0  0
   37.0160   26.5990   42.7360 C   0  0  0  0  0  0  0  0  0  0  0  0
   37.4440   26.4840   41.4270 C   0  0  0  0  0  0  0  0  0  0  0  0
   37.2580   29.9510   42.9940 H   0  0  0  0  0  0  0  0  0  0  0  0
   36.6030   28.0120   44.3750 H   0  0  0  0  0  0  0  0  0  0  0  0
   36.7260   25.7440   43.3500 H   0  0  0  0  0  0  0  0  0  0  0  0
   40.0230   24.9620   41.8870 Cl  0  0  0  0  0  0  0  0  0  0  0  0
   38.5950   24.3200   41.0820 C   0  0  0  0  0  0  0  0  0  0  0  0
   37.4760   25.1200   40.9340 C   0  0  0  0  0  0  0  0  0  0  0  0
   36.3580   24.5950   40.2970 C   0  0  0  0  0  0  0  0  0  0  0  0
   35.4440   25.1630   40.1440 H   0  0  0  0  0  0  0  0  0  0  0  0
   36.3440   23.3030   39.8130 C   0  0  0  0  0  0  0  0  0  0  0  0
   35.4950   22.8510   39.3090 H   0  0  0  0  0  0  0  0  0  0  0  0
   37.4810   22.5350   39.9800 C   0  0  0  0  0  3  0  0  0  0  0  0
   38.6240   23.0060   40.6090 C   0  0  0  0  0  3  0  0  0  0  0  0
  1  7  1  6  0  0  0
  1 24  1  0  0  0  0
  1  6  1  0  0  0  0
  2  8  1  6  0  0  0
  2  1  1  0  0  0  0
  2 18  1  0  0  0  0
  2  3  1  0  0  0  0
  3  9  1  0  0  0  0
  4  3  1  0  0  0  0
  4  5  1  0  0  0  0
  5  6  1  0  0  0  0
  5 11  1  0  0  0  0
  6 13  1  1  0  0  0
 10  3  1  0  0  0  0
 12  5  1  0  0  0  0
 14 22  1  0  0  0  0
 15 20  1  0  0  0  0
 15 14  2  0  0  0  0
 16 15  1  0  0  0  0
 17 16  2  0  0  0  0
 17 18  1  0  0  0  0
 18 19  2  0  0  0  0
 19 14  1  0  0  0  0
 21 16  1  0  0  0  0
 22 23  1  0  0  0  0
 24 25  1  0  0  0  0
 26  6  1  0  0  0  0
 26 29  1  0  0  0  0
 27 28  1  0  0  0  0
 28 29  2  0  0  0  0
 28 33  1  0  0  0  0
 29 30  1  0  0  0  0
 30 34  1  0  0  0  0
 30 31  2  0  0  0  0
 31 35  1  0  0  0  0
 32 36  1  0  0  0  0
 32 31  1  0  0  0  0
 33 32  2  0  0  0  0
 38 37  1  0  0  0  0
 39 38  1  0  0  0  0
 39 33  1  0  0  0  0
 40 39  2  0  0  0  0
 41 40  1  0  0  0  0
 42 44  2  0  0  0  0
 42 40  1  0  0  0  0
 43 42  1  0  0  0  0
 44 45  1  0  0  0  0
 45 38  2  0  0  0  0
M  END
>  <minimizedAffinity>
-6.83392954

$$$$

 OpenBabel03242518483D

 45 48  0  0  1  0  0  0  0  0999 V2000
   41.1830   31.5800   41.8740 C   0  0  2  0  0  0  0  0  0  0  0  0
   42.4450   31.7240   41.1030 C   0  0  1  0  0  0  0  0  0  0  0  0
   43.0170   30.3770   40.6660 C   0  0  0  0  0  0  0  0  0  0  0  0
   43.1210   29.6470   41.8520 O   0  0  0  0  0  0  0  0  0  0  0  0
   41.8900   29.2460   42.3190 C   0  0  0  0  0  0  0  0  0  0  0  0
   40.7500   30.1020   41.8620 C   0  0  1  0  0  0  0  0  0  0  0  0
   41.3320   31.8750   42.9310 H   0  0  0  0  0  0  0  0  0  0  0  0
   43.1870   32.2580   41.7340 H   0  0  0  0  0  0  0  0  0  0  0  0
   42.4040   29.8950   39.9070 H   0  0  0  0  0  0  0  0  0  0  0  0
   44.0610   30.5790   40.3320 H   0  0  0  0  0  0  0  0  0  0  0  0
   41.7290   28.2010   41.9270 H   0  0  0  0  0  0  0  0  0  0  0  0
   41.9360   29.2390   43.4290 H   0  0  0  0  0  0  0  0  0  0  0  0
   40.4860   29.9130   40.8030 H   0  0  0  0  0  0  0  0  0  0  0  0
   41.3100   32.8120   37.7890 C   0  0  0  0  0  0  0  0  0  0  0  0
   42.0990   33.9700   37.5120 C   0  0  0  0  0  0  0  0  0  0  0  0
   43.0210   34.3360   38.5200 C   0  0  0  0  0  0  0  0  0  0  0  0
   43.1010   33.5960   39.6490 N   0  0  0  0  0  0  0  0  0  0  0  0
   42.3250   32.5100   39.8520 C   0  0  0  0  0  0  0  0  0  0  0  0
   41.4280   32.1200   38.9190 N   0  0  0  0  0  0  0  0  0  0  0  0
   42.0200   34.5410   36.6150 H   0  0  0  0  0  0  0  0  0  0  0  0
   43.6480   35.2020   38.3730 H   0  0  0  0  0  0  0  0  0  0  0  0
   40.4210   32.4530   36.8250 O   0  0  0  0  0  0  0  0  0  0  0  0
   40.7470   32.1400   35.9320 H   0  0  0  0  0  0  0  0  0  0  0  0
   40.1210   32.3440   41.3790 O   0  0  0  0  0  0  0  0  0  0  0  0
   39.6890   31.8430   40.6420 H   0  0  0  0  0  0  0  0  0  0  0  0
   39.6350   30.0110   42.6630 O   0  0  0  0  0  0  0  0  0  0  0  0
   38.1760   29.8320   40.3970 F   0  0  0  0  0  0  0  0  0  0  0  0
   37.8910   29.1940   41.5500 C   0  0  0  0  0  0  0  0  0  0  0  0
   38.5760   29.2250   42.7450 C   0  0  0  0  0  0  0  0  0  0  0  0
   38.0370   28.4480   43.7570 C   0  0  0  0  0  0  0  0  0  0  0  0
   36.8990   27.6720   43.6590 C   0  0  0  0  0  0  0  0  0  0  0  0
   36.2590   27.6800   42.4490 C   0  0  0  0  0  0  0  0  0  0  0  0
   36.7320   28.4270   41.3850 C   0  0  0  0  0  0  0  0  0  0  0  0
   38.6390   28.5240   44.6810 H   0  0  0  0  0  0  0  0  0  0  0  0
   36.6110   27.1230   44.5500 H   0  0  0  0  0  0  0  0  0  0  0  0
   35.3630   27.0590   42.3940 H   0  0  0  0  0  0  0  0  0  0  0  0
   37.5610   26.2690   39.4260 Cl  0  0  0  0  0  0  0  0  0  0  0  0
   36.2030   27.3700   39.2110 C   0  0  0  0  0  0  0  0  0  0  0  0
   35.9280   28.3150   40.1830 C   0  0  0  0  0  0  0  0  0  0  0  0
   34.8520   29.1740   39.9950 C   0  0  0  0  0  0  0  0  0  0  0  0
   34.5750   29.9400   40.7130 H   0  0  0  0  0  0  0  0  0  0  0  0
   34.0610   29.1020   38.8660 C   0  0  0  0  0  0  0  0  0  0  0  0
   33.2110   29.7520   38.6770 H   0  0  0  0  0  0  0  0  0  0  0  0
   34.3680   28.1450   37.9180 C   0  0  0  0  0  3  0  0  0  0  0  0
   35.4290   27.2620   38.0540 C   0  0  0  0  0  3  0  0  0  0  0  0
  1  7  1  1  0  0  0
  2  8  1  1  0  0  0
  2  1  1  0  0  0  0
  3  2  1  0  0  0  0
  3  4  1  0  0  0  0
  4  5  1  0  0  0  0
  5 12  1  0  0  0  0
  6 13  1  6  0  0  0
  6  1  1  0  0  0  0
  6  5  1  0  0  0  0
  6 26  1  0  0  0  0
  9  3  1  0  0  0  0
 10  3  1  0  0  0  0
 11  5  1  0  0  0  0
 14 19  1  0  0  0  0
 15 14  2  0  0  0  0
 15 16  1  0  0  0  0
 16 17  2  0  0  0  0
 17 18  1  0  0  0  0
 18  2  1  0  0  0  0
 19 18  2  0  0  0  0
 20 15  1  0  0  0  0
 21 16  1  0  0  0  0
 22 14  1  0  0  0  0
 23 22  1  0  0  0  0
 24  1  1  0  0  0  0
 25 24  1  0  0  0  0
 26 29  1  0  0  0  0
 27 28  1  0  0  0  0
 28 29  1  0  0  0  0
 29 30  2  0  0  0  0
 30 34  1  0  0  0  0
 31 30  1  0  0  0  0
 31 35  1  0  0  0  0
 32 31  2  0  0  0  0
 33 28  2  0  0  0  0
 33 32  1  0  0  0  0
 36 32  1  0  0  0  0
 38 37  1  0  0  0  0
 38 39  1  0  0  0  0
 39 33  1  0  0  0  0
 40 39  2  0  0  0  0
 40 41  1  0  0  0  0
 42 40  1  0  0  0  0
 43 42  1  0  0  0  0
 44 45  1  0  0  0  0
 44 42  2  0  0  0  0
 45 38  2  0  0  0  0
M  END
>  <minimizedAffinity>
-6.75936174

$$$$

 OpenBabel03242518483D

 45 48  0  0  1  0  0  0  0  0999 V2000
   40.2120   32.7520   38.7190 C   0  0  2  0  0  0  0  0  0  0  0  0
   40.9050   34.0360   39.0030 C   0  0  1  0  0  0  0  0  0  0  0  0
   40.4810   34.6420   40.3390 C   0  0  0  0  0  0  0  0  0  0  0  0
   39.0900   34.7210   40.2550 O   0  0  0  0  0  0  0  0  0  0  0  0
   38.4980   33.4810   40.3550 C   0  0  0  0  0  0  0  0  0  0  0  0
   39.3820   32.3440   39.9510 C   0  0  1  0  0  0  0  0  0  0  0  0
   39.5130   32.8630   37.8670 H   0  0  0  0  0  0  0  0  0  0  0  0
   40.6810   34.7480   38.1810 H   0  0  0  0  0  0  0  0  0  0  0  0
   40.8370   34.0620   41.1870 H   0  0  0  0  0  0  0  0  0  0  0  0
   40.8540   35.6940   40.3330 H   0  0  0  0  0  0  0  0  0  0  0  0
   38.2230   33.3500   41.4400 H   0  0  0  0  0  0  0  0  0  0  0  0
   37.5830   33.4930   39.7240 H   0  0  0  0  0  0  0  0  0  0  0  0
   40.1460   32.1160   40.7200 H   0  0  0  0  0  0  0  0  0  0  0  0
   44.4250   33.8560   37.9830 C   0  0  0  0  0  0  0  0  0  0  0  0
   45.1410   33.7650   39.2150 C   0  0  0  0  0  0  0  0  0  0  0  0
   44.3470   33.7700   40.3860 C   0  0  0  0  0  0  0  0  0  0  0  0
   43.0010   33.8580   40.2760 N   0  0  0  0  0  0  0  0  0  0  0  0
   42.3820   33.9430   39.0790 C   0  0  0  0  0  0  0  0  0  0  0  0
   43.0970   33.9420   37.9320 N   0  0  0  0  0  0  0  0  0  0  0  0
   46.2030   33.6960   39.2810 H   0  0  0  0  0  0  0  0  0  0  0  0
   44.8260   33.7040   41.3500 H   0  0  0  0  0  0  0  0  0  0  0  0
   45.1800   33.8510   36.8530 O   0  0  0  0  0  0  0  0  0  0  0  0
   45.7050   33.0360   36.6030 H   0  0  0  0  0  0  0  0  0  0  0  0
   41.0740   31.6950   38.4100 O   0  0  0  0  0  0  0  0  0  0  0  0
   41.3980   31.2940   39.2560 H   0  0  0  0  0  0  0  0  0  0  0  0
   38.6930   31.2060   39.6010 O   0  0  0  0  0  0  0  0  0  0  0  0
   39.9360   29.0900   40.7320 F   0  0  0  0  0  0  0  0  0  0  0  0
   38.6050   29.3030   40.7510 C   0  0  0  0  0  0  0  0  0  0  0  0
   37.8900   30.3480   40.2080 C   0  0  0  0  0  0  0  0  0  0  0  0
   36.5200   30.2920   40.4020 C   0  0  0  0  0  0  0  0  0  0  0  0
   35.8410   29.2990   41.0780 C   0  0  0  0  0  0  0  0  0  0  0  0
   36.6020   28.2860   41.5970 C   0  0  0  0  0  0  0  0  0  0  0  0
   37.9760   28.2650   41.4480 C   0  0  0  0  0  0  0  0  0  0  0  0
   36.0170   31.1610   39.9390 H   0  0  0  0  0  0  0  0  0  0  0  0
   34.7620   29.4070   41.1400 H   0  0  0  0  0  0  0  0  0  0  0  0
   36.0440   27.5110   42.1270 H   0  0  0  0  0  0  0  0  0  0  0  0
   38.1020   25.7510   39.7610 Cl  0  0  0  0  0  0  0  0  0  0  0  0
   38.7390   25.9100   41.3950 C   0  0  0  0  0  0  0  0  0  0  0  0
   38.6180   27.1170   42.0610 C   0  0  0  0  0  0  0  0  0  0  0  0
   39.1280   27.2230   43.3500 C   0  0  0  0  0  0  0  0  0  0  0  0
   39.0710   28.1370   43.9340 H   0  0  0  0  0  0  0  0  0  0  0  0
   39.7460   26.1570   43.9700 C   0  0  0  0  0  0  0  0  0  0  0  0
   40.1600   26.1940   44.9750 H   0  0  0  0  0  0  0  0  0  0  0  0
   39.8480   24.9690   43.2730 C   0  0  0  0  0  3  0  0  0  0  0  0
   39.3580   24.8060   41.9850 C   0  0  0  0  0  3  0  0  0  0  0  0
  1  7  1  6  0  0  0
  1  2  1  0  0  0  0
  1  6  1  0  0  0  0
  2  8  1  6  0  0  0
  2 18  1  0  0  0  0
  2  3  1  0  0  0  0
  3  9  1  0  0  0  0
  4  3  1  0  0  0  0
  4  5  1  0  0  0  0
  5 11  1  0  0  0  0
  6  5  1  0  0  0  0
  6 13  1  1  0  0  0
 10  3  1  0  0  0  0
 12  5  1  0  0  0  0
 14 15  1  0  0  0  0
 15 20  1  0  0  0  0
 15 16  2  0  0  0  0
 16 21  1  0  0  0  0
 17 16  1  0  0  0  0
 18 17  2  0  0  0  0
 19 14  2  0  0  0  0
 19 18  1  0  0  0  0
 22 14  1  0  0  0  0
 23 22  1  0  0  0  0
 24  1  1  0  0  0  0
 24 25  1  0  0  0  0
 26  6  1  0  0  0  0
 26 29  1  0  0  0  0
 27 28  1  0  0  0  0
 28 33  1  0  0  0  0
 29 30  1  0  0  0  0
 29 28  2  0  0  0  0
 30 31  2  0  0  0  0
 31 35  1  0  0  0  0
 31 32  1  0  0  0  0
 32 36  1  0  0  0  0
 33 32  2  0  0  0  0
 33 39  1  0  0  0  0
 34 30  1  0  0  0  0
 37 38  1  0  0  0  0
 38 45  2  0  0  0  0
 38 39  1  0  0  0  0
 39 40  2  0  0  0  0
 40 41  1  0  0  0  0
 40 42  1  0  0  0  0
 42 43  1  0  0  0  0
 44 42  2  0  0  0  0
 45 44  1  0  0  0  0
M  END
>  <minimizedAffinity>
-6.74162197

$$$$

 OpenBabel03242518483D

 45 48  0  0  1  0  0  0  0  0999 V2000
   39.9900   32.6930   38.9400 C   0  0  2  0  0  0  0  0  0  0  0  0
   40.5500   34.0090   39.3440 C   0  0  1  0  0  0  0  0  0  0  0  0
   39.7190   34.6860   40.4330 C   0  0  0  0  0  0  0  0  0  0  0  0
   38.4270   34.7230   39.9060 O   0  0  0  0  0  0  0  0  0  0  0  0
   37.8400   33.4770   39.8940 C   0  0  0  0  0  0  0  0  0  0  0  0
   38.8120   32.3400   39.8690 C   0  0  1  0  0  0  0  0  0  0  0  0
   39.5980   32.7330   37.9050 H   0  0  0  0  0  0  0  0  0  0  0  0
   40.5970   34.6640   38.4480 H   0  0  0  0  0  0  0  0  0  0  0  0
   39.7890   34.1680   41.3870 H   0  0  0  0  0  0  0  0  0  0  0  0
   40.0690   35.7440   40.4750 H   0  0  0  0  0  0  0  0  0  0  0  0
   37.2340   33.4060   40.8420 H   0  0  0  0  0  0  0  0  0  0  0  0
   37.1750   33.4270   39.0050 H   0  0  0  0  0  0  0  0  0  0  0  0
   39.2920   32.1800   40.8540 H   0  0  0  0  0  0  0  0  0  0  0  0
   43.3230   33.8410   41.7400 C   0  0  0  0  0  0  0  0  0  0  0  0
   44.4930   33.8690   40.9230 C   0  0  0  0  0  0  0  0  0  0  0  0
   44.2630   33.9470   39.5290 C   0  0  0  0  0  0  0  0  0  0  0  0
   42.9930   33.9890   39.0660 N   0  0  0  0  0  0  0  0  0  0  0  0
   41.9260   33.9590   39.8920 C   0  0  0  0  0  0  0  0  0  0  0  0
   42.0940   33.8840   41.2310 N   0  0  0  0  0  0  0  0  0  0  0  0
   45.4870   33.8350   41.3080 H   0  0  0  0  0  0  0  0  0  0  0  0
   45.1060   33.9720   38.8550 H   0  0  0  0  0  0  0  0  0  0  0  0
   43.5350   33.7660   43.0810 O   0  0  0  0  0  0  0  0  0  0  0  0
   43.9750   34.5250   43.5630 H   0  0  0  0  0  0  0  0  0  0  0  0
   40.9100   31.6410   38.9920 O   0  0  0  0  0  0  0  0  0  0  0  0
   40.9490   31.3010   39.9230 H   0  0  0  0  0  0  0  0  0  0  0  0
   38.2760   31.1650   39.3940 O   0  0  0  0  0  0  0  0  0  0  0  0
   39.4640   28.8640   40.1650 F   0  0  0  0  0  0  0  0  0  0  0  0
   38.1380   29.1020   40.2140 C   0  0  0  0  0  0  0  0  0  0  0  0
   37.4500   30.2380   39.8480 C   0  0  0  0  0  0  0  0  0  0  0  0
   36.0770   30.1830   40.0250 C   0  0  0  0  0  0  0  0  0  0  0  0
   35.3720   29.1070   40.5250 C   0  0  0  0  0  0  0  0  0  0  0  0
   36.1060   28.0050   40.8720 C   0  0  0  0  0  0  0  0  0  0  0  0
   37.4810   27.9770   40.7280 C   0  0  0  0  0  0  0  0  0  0  0  0
   35.5970   31.1270   39.7100 H   0  0  0  0  0  0  0  0  0  0  0  0
   34.2950   29.2280   40.5990 H   0  0  0  0  0  0  0  0  0  0  0  0
   35.5270   27.1670   41.2650 H   0  0  0  0  0  0  0  0  0  0  0  0
   38.4040   27.8470   43.6110 Cl  0  0  0  0  0  0  0  0  0  0  0  0
   38.5550   26.5440   42.4360 C   0  0  0  0  0  0  0  0  0  0  0  0
   38.0920   26.7300   41.1450 C   0  0  0  0  0  0  0  0  0  0  0  0
   38.2200   25.6890   40.2330 C   0  0  0  0  0  0  0  0  0  0  0  0
   37.8810   25.7610   39.2040 H   0  0  0  0  0  0  0  0  0  0  0  0
   38.7950   24.4860   40.5880 C   0  0  0  0  0  0  0  0  0  0  0  0
   38.9160   23.6460   39.9100 H   0  0  0  0  0  0  0  0  0  0  0  0
   39.2450   24.3390   41.8860 C   0  0  0  0  0  3  0  0  0  0  0  0
   39.1430   25.3430   42.8380 C   0  0  0  0  0  3  0  0  0  0  0  0
  1  7  1  6  0  0  0
  1 24  1  0  0  0  0
  1  2  1  0  0  0  0
  1  6  1  0  0  0  0
  2  8  1  6  0  0  0
  2 18  1  0  0  0  0
  2  3  1  0  0  0  0
  3 10  1  0  0  0  0
  3  9  1  0  0  0  0
  4  3  1  0  0  0  0
  5  4  1  0  0  0  0
  5 11  1  0  0  0  0
  6  5  1  0  0  0  0
  6 13  1  1  0  0  0
 12  5  1  0  0  0  0
 14 22  1  0  0  0  0
 15 20  1  0  0  0  0
 15 14  2  0  0  0  0
 16 15  1  0  0  0  0
 17 16  2  0  0  0  0
 17 18  1  0  0  0  0
 18 19  2  0  0  0  0
 19 14  1  0  0  0  0
 21 16  1  0  0  0  0
 22 23  1  0  0  0  0
 24 25  1  0  0  0  0
 26 29  1  0  0  0  0
 26  6  1  0  0  0  0
 27 28  1  0  0  0  0
 28 33  1  0  0  0  0
 29 30  1  0  0  0  0
 29 28  2  0  0  0  0
 30 31  2  0  0  0  0
 31 35  1  0  0  0  0
 31 32  1  0  0  0  0
 32 36  1  0  0  0  0
 33 32  2  0  0  0  0
 33 39  1  0  0  0  0
 34 30  1  0  0  0  0
 38 45  1  0  0  0  0
 38 37  1  0  0  0  0
 39 38  2  0  0  0  0
 40 42  2  0  0  0  0
 40 39  1  0  0  0  0
 41 40  1  0  0  0  0
 42 44  1  0  0  0  0
 43 42  1  0  0  0  0
 44 45  2  0  0  0  0
M  END
>  <minimizedAffinity>
-6.59961128

$$$$

 OpenBabel03242518483D

 45 48  0  0  1  0  0  0  0  0999 V2000
   41.2810   30.5900   42.6660 C   0  0  2  0  0  0  0  0  0  0  0  0
   42.2250   31.2300   41.7130 C   0  0  1  0  0  0  0  0  0  0  0  0
   42.6610   30.2790   40.6000 C   0  0  0  0  0  0  0  0  0  0  0  0
   43.1600   29.1640   41.2770 O   0  0  0  0  0  0  0  0  0  0  0  0
   42.1540   28.4180   41.8500 C   0  0  0  0  0  0  0  0  0  0  0  0
   40.9070   29.1910   42.1420 C   0  0  1  0  0  0  0  0  0  0  0  0
   41.7540   30.4590   43.6590 H   0  0  0  0  0  0  0  0  0  0  0  0
   43.1160   31.5790   42.2770 H   0  0  0  0  0  0  0  0  0  0  0  0
   41.8510   30.0480   39.9130 H   0  0  0  0  0  0  0  0  0  0  0  0
   43.5380   30.7620   40.1080 H   0  0  0  0  0  0  0  0  0  0  0  0
   41.9040   27.6060   41.1100 H   0  0  0  0  0  0  0  0  0  0  0  0
   42.5550   27.9770   42.7880 H   0  0  0  0  0  0  0  0  0  0  0  0
   40.3210   29.4000   41.2260 H   0  0  0  0  0  0  0  0  0  0  0  0
   40.0880   33.3390   39.6050 C   0  0  0  0  0  0  0  0  0  0  0  0
   40.6860   34.6340   39.6870 C   0  0  0  0  0  0  0  0  0  0  0  0
   41.8420   34.7230   40.4970 C   0  0  0  0  0  0  0  0  0  0  0  0
   42.3000   33.6170   41.1260 N   0  0  0  0  0  0  0  0  0  0  0  0
   41.6890   32.4180   41.0090 C   0  0  0  0  0  0  0  0  0  0  0  0
   40.5810   32.2820   40.2470 N   0  0  0  0  0  0  0  0  0  0  0  0
   40.3080   35.4940   39.1830 H   0  0  0  0  0  0  0  0  0  0  0  0
   42.3420   35.6740   40.6020 H   0  0  0  0  0  0  0  0  0  0  0  0
   38.9770   33.2440   38.8280 O   0  0  0  0  0  0  0  0  0  0  0  0
   39.0410   33.3870   37.8390 H   0  0  0  0  0  0  0  0  0  0  0  0
   40.0970   31.3070   42.8650 O   0  0  0  0  0  0  0  0  0  0  0  0
   39.4640   31.0790   42.1370 H   0  0  0  0  0  0  0  0  0  0  0  0
   40.1110   28.6110   43.1040 O   0  0  0  0  0  0  0  0  0  0  0  0
   39.5990   26.6580   41.3070 F   0  0  0  0  0  0  0  0  0  0  0  0
   38.7150   27.1260   42.2110 C   0  0  0  0  0  0  0  0  0  0  0  0
   38.8890   28.1100   43.1600 C   0  0  0  0  0  0  0  0  0  0  0  0
   37.7850   28.3660   43.9570 C   0  0  0  0  0  0  0  0  0  0  0  0
   36.5640   27.7280   43.8720 C   0  0  0  0  0  0  0  0  0  0  0  0
   36.4480   26.7590   42.9110 C   0  0  0  0  0  0  0  0  0  0  0  0
   37.5010   26.4420   42.0740 C   0  0  0  0  0  0  0  0  0  0  0  0
   38.0010   29.1630   44.6910 H   0  0  0  0  0  0  0  0  0  0  0  0
   35.8010   28.0490   44.5750 H   0  0  0  0  0  0  0  0  0  0  0  0
   35.4740   26.2680   42.8620 H   0  0  0  0  0  0  0  0  0  0  0  0
   36.2840   27.3450   39.4500 Cl  0  0  0  0  0  0  0  0  0  0  0  0
   36.6410   25.6760   39.8830 C   0  0  0  0  0  0  0  0  0  0  0  0
   37.1990   25.3940   41.1170 C   0  0  0  0  0  0  0  0  0  0  0  0
   37.4740   24.0700   41.4400 C   0  0  0  0  0  0  0  0  0  0  0  0
   37.9110   23.7720   42.3890 H   0  0  0  0  0  0  0  0  0  0  0  0
   37.2030   23.0430   40.5610 C   0  0  0  0  0  0  0  0  0  0  0  0
   37.4010   21.9950   40.7690 H   0  0  0  0  0  0  0  0  0  0  0  0
   36.6460   23.3640   39.3380 C   0  0  0  0  0  3  0  0  0  0  0  0
   36.3510   24.6660   38.9620 C   0  0  0  0  0  3  0  0  0  0  0  0
  1 24  1  0  0  0  0
  1  7  1  1  0  0  0
  2  8  1  1  0  0  0
  2  1  1  0  0  0  0
  3  4  1  0  0  0  0
  3  2  1  0  0  0  0
  4  5  1  0  0  0  0
  5  6  1  0  0  0  0
  5 12  1  0  0  0  0
  6 13  1  6  0  0  0
  6  1  1  0  0  0  0
  6 26  1  0  0  0  0
  9  3  1  0  0  0  0
 10  3  1  0  0  0  0
 11  5  1  0  0  0  0
 14 15  2  0  0  0  0
 14 19  1  0  0  0  0
 15 16  1  0  0  0  0
 16 21  1  0  0  0  0
 16 17  2  0  0  0  0
 18 17  1  0  0  0  0
 18  2  1  0  0  0  0
 19 18  2  0  0  0  0
 20 15  1  0  0  0  0
 22 14  1  0  0  0  0
 23 22  1  0  0  0  0
 25 24  1  0  0  0  0
 26 29  1  0  0  0  0
 27 28  1  0  0  0  0
 28 29  1  0  0  0  0
 29 30  2  0  0  0  0
 30 34  1  0  0  0  0
 31 30  1  0  0  0  0
 31 35  1  0  0  0  0
 32 31  2  0  0  0  0
 33 28  2  0  0  0  0
 33 32  1  0  0  0  0
 36 32  1  0  0  0  0
 37 38  1  0  0  0  0
 38 39  1  0  0  0  0
 39 40  2  0  0  0  0
 39 33  1  0  0  0  0
 40 41  1  0  0  0  0
 42 43  1  0  0  0  0
 42 40  1  0  0  0  0
 44 42  2  0  0  0  0
 45 44  1  0  0  0  0
 45 38  2  0  0  0  0
M  END
>  <minimizedAffinity>
-6.54868031

$$$$

 OpenBabel03242518483D

 45 48  0  0  1  0  0  0  0  0999 V2000
   37.9350   30.2860   39.9050 C   0  0  2  0  0  0  0  0  0  0  0  0
   38.5980   31.2010   38.9400 C   0  0  1  0  0  0  0  0  0  0  0  0
   37.6400   31.7000   37.8600 C   0  0  0  0  0  0  0  0  0  0  0  0
   37.1080   30.5340   37.3080 O   0  0  0  0  0  0  0  0  0  0  0  0
   36.2140   29.9230   38.1590 C   0  0  0  0  0  0  0  0  0  0  0  0
   36.4250   30.2440   39.6050 C   0  0  1  0  0  0  0  0  0  0  0  0
   38.3250   29.2550   39.8010 H   0  0  0  0  0  0  0  0  0  0  0  0
   39.4470   30.6630   38.4680 H   0  0  0  0  0  0  0  0  0  0  0  0
   36.8900   32.3800   38.2560 H   0  0  0  0  0  0  0  0  0  0  0  0
   38.2800   32.1560   37.0680 H   0  0  0  0  0  0  0  0  0  0  0  0
   35.1920   30.2920   37.8580 H   0  0  0  0  0  0  0  0  0  0  0  0
   36.2910   28.8260   37.9990 H   0  0  0  0  0  0  0  0  0  0  0  0
   36.0770   31.2640   39.8610 H   0  0  0  0  0  0  0  0  0  0  0  0
   41.0230   33.5720   40.3400 C   0  0  0  0  0  0  0  0  0  0  0  0
   40.2410   34.7230   40.6610 C   0  0  0  0  0  0  0  0  0  0  0  0
   38.8600   34.6250   40.3680 C   0  0  0  0  0  0  0  0  0  0  0  0
   38.3760   33.4870   39.8200 N   0  0  0  0  0  0  0  0  0  0  0  0
   39.1690   32.4310   39.5390 C   0  0  0  0  0  0  0  0  0  0  0  0
   40.4950   32.4760   39.7990 N   0  0  0  0  0  0  0  0  0  0  0  0
   40.6420   35.6120   41.0920 H   0  0  0  0  0  0  0  0  0  0  0  0
   38.2130   35.4600   40.5860 H   0  0  0  0  0  0  0  0  0  0  0  0
   42.3510   33.6580   40.6180 O   0  0  0  0  0  0  0  0  0  0  0  0
   42.6620   33.7280   41.5670 H   0  0  0  0  0  0  0  0  0  0  0  0
   38.0980   30.6540   41.2450 O   0  0  0  0  0  0  0  0  0  0  0  0
   37.4140   31.3340   41.4710 H   0  0  0  0  0  0  0  0  0  0  0  0
   35.8790   29.3170   40.4620 O   0  0  0  0  0  0  0  0  0  0  0  0
   36.4440   27.0060   39.1800 F   0  0  0  0  0  0  0  0  0  0  0  0
   36.5900   27.2090   40.5050 C   0  0  0  0  0  0  0  0  0  0  0  0
   36.3320   28.3470   41.2380 C   0  0  0  0  0  0  0  0  0  0  0  0
   36.5930   28.2490   42.5950 C   0  0  0  0  0  0  0  0  0  0  0  0
   37.0760   27.1310   43.2440 C   0  0  0  0  0  0  0  0  0  0  0  0
   37.3150   26.0300   42.4660 C   0  0  0  0  0  0  0  0  0  0  0  0
   37.0820   26.0430   41.1030 C   0  0  0  0  0  0  0  0  0  0  0  0
   36.3620   29.1970   43.1130 H   0  0  0  0  0  0  0  0  0  0  0  0
   37.2260   27.2220   44.3160 H   0  0  0  0  0  0  0  0  0  0  0  0
   37.6970   25.1580   43.0010 H   0  0  0  0  0  0  0  0  0  0  0  0
   39.9360   25.7140   40.1400 Cl  0  0  0  0  0  0  0  0  0  0  0  0
   38.6570   24.5180   39.9550 C   0  0  0  0  0  0  0  0  0  0  0  0
   37.3900   24.7900   40.4410 C   0  0  0  0  0  0  0  0  0  0  0  0
   36.3950   23.8330   40.2860 C   0  0  0  0  0  0  0  0  0  0  0  0
   35.3780   23.9760   40.6400 H   0  0  0  0  0  0  0  0  0  0  0  0
   36.6440   22.6280   39.6620 C   0  0  0  0  0  0  0  0  0  0  0  0
   35.8990   21.8510   39.5180 H   0  0  0  0  0  0  0  0  0  0  0  0
   37.9220   22.3930   39.1910 C   0  0  0  0  0  3  0  0  0  0  0  0
   38.9540   23.3110   39.3180 C   0  0  0  0  0  3  0  0  0  0  0  0
  1  7  1  6  0  0  0
  1 24  1  0  0  0  0
  2  8  1  6  0  0  0
  2 18  1  0  0  0  0
  2  1  1  0  0  0  0
  3  9  1  0  0  0  0
  3  2  1  0  0  0  0
  4  3  1  0  0  0  0
  4  5  1  0  0  0  0
  5  6  1  0  0  0  0
  6 13  1  1  0  0  0
  6  1  1  0  0  0  0
  6 26  1  0  0  0  0
 10  3  1  0  0  0  0
 11  5  1  0  0  0  0
 12  5  1  0  0  0  0
 14 22  1  0  0  0  0
 14 15  1  0  0  0  0
 15 20  1  0  0  0  0
 16 21  1  0  0  0  0
 16 15  2  0  0  0  0
 17 16  1  0  0  0  0
 18 19  1  0  0  0  0
 18 17  2  0  0  0  0
 19 14  2  0  0  0  0
 22 23  1  0  0  0  0
 24 25  1  0  0  0  0
 26 29  1  0  0  0  0
 27 28  1  0  0  0  0
 28 33  2  0  0  0  0
 28 29  1  0  0  0  0
 29 30  2  0  0  0  0
 30 34  1  0  0  0  0
 30 31  1  0  0  0  0
 31 35  1  0  0  0  0
 32 36  1  0  0  0  0
 32 31  2  0  0  0  0
 33 32  1  0  0  0  0
 38 37  1  0  0  0  0
 38 39  1  0  0  0  0
 39 33  1  0  0  0  0
 40 39  2  0  0  0  0
 40 41  1  0  0  0  0
 42 40  1  0  0  0  0
 43 42  1  0  0  0  0
 44 45  1  0  0  0  0
 44 42  2  0  0  0  0
 45 38  2  0  0  0  0
M  END
>  <minimizedAffinity>
-6.47387028

$$$$

 OpenBabel03242518483D

 45 48  0  0  1  0  0  0  0  0999 V2000
   37.5700   29.1510   41.9970 C   0  0  2  0  0  0  0  0  0  0  0  0
   36.5660   28.1180   41.6320 C   0  0  1  0  0  0  0  0  0  0  0  0
   35.8090   28.4700   40.3530 C   0  0  0  0  0  0  0  0  0  0  0  0
   35.2930   29.7440   40.5990 O   0  0  0  0  0  0  0  0  0  0  0  0
   36.2730   30.7100   40.5710 C   0  0  0  0  0  0  0  0  0  0  0  0
   37.6480   30.2000   40.8710 C   0  0  1  0  0  0  0  0  0  0  0  0
   37.2720   29.6790   42.9250 H   0  0  0  0  0  0  0  0  0  0  0  0
   35.8490   28.0080   42.4720 H   0  0  0  0  0  0  0  0  0  0  0  0
   36.4420   28.4170   39.4700 H   0  0  0  0  0  0  0  0  0  0  0  0
   34.9320   27.7810   40.3140 H   0  0  0  0  0  0  0  0  0  0  0  0
   36.2710   31.1310   39.5260 H   0  0  0  0  0  0  0  0  0  0  0  0
   35.9930   31.4970   41.3050 H   0  0  0  0  0  0  0  0  0  0  0  0
   38.0800   29.6400   40.0190 H   0  0  0  0  0  0  0  0  0  0  0  0
   38.1360   25.2760   39.9240 C   0  0  0  0  0  0  0  0  0  0  0  0
   38.1620   24.2460   40.9130 C   0  0  0  0  0  0  0  0  0  0  0  0
   37.6170   24.5930   42.1720 C   0  0  0  0  0  0  0  0  0  0  0  0
   37.1200   25.8360   42.3610 N   0  0  0  0  0  0  0  0  0  0  0  0
   37.1240   26.7680   41.3840 C   0  0  0  0  0  0  0  0  0  0  0  0
   37.6340   26.4850   40.1650 N   0  0  0  0  0  0  0  0  0  0  0  0
   38.5600   23.2710   40.7440 H   0  0  0  0  0  0  0  0  0  0  0  0
   37.6070   23.8590   42.9630 H   0  0  0  0  0  0  0  0  0  0  0  0
   38.6570   24.9510   38.7110 O   0  0  0  0  0  0  0  0  0  0  0  0
   38.2130   24.2560   38.1440 H   0  0  0  0  0  0  0  0  0  0  0  0
   38.8580   28.6470   42.2060 O   0  0  0  0  0  0  0  0  0  0  0  0
   39.3110   28.5650   41.3280 H   0  0  0  0  0  0  0  0  0  0  0  0
   38.5170   31.1750   41.3020 O   0  0  0  0  0  0  0  0  0  0  0  0
   41.1720   31.4390   40.8730 F   0  0  0  0  0  0  0  0  0  0  0  0
   40.2610   32.4170   40.6950 C   0  0  0  0  0  0  0  0  0  0  0  0
   38.8970   32.3710   40.8850 C   0  0  0  0  0  0  0  0  0  0  0  0
   38.2200   33.5470   40.6070 C   0  0  0  0  0  0  0  0  0  0  0  0
   38.7940   34.7240   40.1690 C   0  0  0  0  0  0  0  0  0  0  0  0
   40.1530   34.7120   39.9980 C   0  0  0  0  0  0  0  0  0  0  0  0
   40.9040   33.5790   40.2530 C   0  0  0  0  0  0  0  0  0  0  0  0
   37.1350   33.4330   40.7820 H   0  0  0  0  0  0  0  0  0  0  0  0
   38.1190   35.5570   39.9980 H   0  0  0  0  0  0  0  0  0  0  0  0
   40.5850   35.6530   39.6510 H   0  0  0  0  0  0  0  0  0  0  0  0
   41.8670   33.0030   37.4380 Cl  0  0  0  0  0  0  0  0  0  0  0  0
   42.8890   33.5180   38.7750 C   0  0  0  0  0  0  0  0  0  0  0  0
   42.3250   33.7490   40.0180 C   0  0  0  0  0  0  0  0  0  0  0  0
   43.1490   34.1560   41.0600 C   0  0  0  0  0  0  0  0  0  0  0  0
   42.7790   34.3570   42.0620 H   0  0  0  0  0  0  0  0  0  0  0  0
   44.5060   34.3300   40.8810 C   0  0  0  0  0  0  0  0  0  0  0  0
   45.1880   34.6470   41.6660 H   0  0  0  0  0  0  0  0  0  0  0  0
   45.0320   34.0890   39.6270 C   0  0  0  0  0  3  0  0  0  0  0  0
   44.2580   33.6830   38.5500 C   0  0  0  0  0  3  0  0  0  0  0  0
  1 24  1  0  0  0  0
  1  7  1  1  0  0  0
  2  1  1  0  0  0  0
  2  8  1  1  0  0  0
  3  4  1  0  0  0  0
  3  2  1  0  0  0  0
  5  4  1  0  0  0  0
  5  6  1  0  0  0  0
  5 12  1  0  0  0  0
  6 13  1  6  0  0  0
  6 26  1  0  0  0  0
  6  1  1  0  0  0  0
  9  3  1  0  0  0  0
 10  3  1  0  0  0  0
 11  5  1  0  0  0  0
 14 19  2  0  0  0  0
 14 15  1  0  0  0  0
 15 16  2  0  0  0  0
 16 17  1  0  0  0  0
 16 21  1  0  0  0  0
 18  2  1  0  0  0  0
 18 17  2  0  0  0  0
 19 18  1  0  0  0  0
 20 15  1  0  0  0  0
 22 14  1  0  0  0  0
 23 22  1  0  0  0  0
 25 24  1  0  0  0  0
 28 27  1  0  0  0  0
 28 29  1  0  0  0  0
 29 26  1  0  0  0  0
 30 34  1  0  0  0  0
 30 29  2  0  0  0  0
 31 30  1  0  0  0  0
 32 31  2  0  0  0  0
 32 33  1  0  0  0  0
 33 28  2  0  0  0  0
 35 31  1  0  0  0  0
 36 32  1  0  0  0  0
 37 38  1  0  0  0  0
 38 39  1  0  0  0  0
 39 33  1  0  0  0  0
 39 40  2  0  0  0  0
 40 41  1  0  0  0  0
 42 40  1  0  0  0  0
 42 43  1  0  0  0  0
 44 42  2  0  0  0  0
 45 38  2  0  0  0  0
 45 44  1  0  0  0  0
M  END
>  <minimizedAffinity>
-6.44179249

$$$$
