
 OpenBabel03252506183D

 23 24  0  0  0  0  0  0  0  0999 V2000
   44.8410   35.5840   43.6180 C   0  0  0  0  0  0  0  0  0  0  0  0
   43.9530   35.3710   42.5460 C   0  0  0  0  0  0  0  0  0  0  0  0
   43.9150   34.0800   41.9950 C   0  0  0  0  0  0  0  0  0  0  0  0
   44.7160   33.1210   42.5080 N   0  0  0  0  0  0  0  0  0  0  0  0
   45.5580   33.3720   43.5430 C   0  0  0  0  0  0  0  0  0  0  0  0
   45.6180   34.6010   44.0950 N   0  0  0  0  0  0  0  0  0  0  0  0
   43.3350   36.1750   42.1750 H   0  0  0  0  0  0  0  0  0  0  0  0
   43.2370   33.9040   41.1710 H   0  0  0  0  0  0  0  0  0  0  0  0
   48.0420   32.8230   41.8940 Cl  0  0  0  0  0  0  0  0  0  0  0  0
   47.5530   31.9610   43.3170 C   0  0  0  0  0  0  0  0  0  0  0  0
   46.3890   32.2680   44.0320 C   0  0  0  0  0  0  0  0  0  0  0  0
   45.9770   31.6050   45.1600 C   0  0  0  0  0  0  0  0  0  0  0  0
   45.0710   31.8730   45.6840 H   0  0  0  0  0  0  0  0  0  0  0  0
   46.7870   30.5730   45.5880 C   0  0  0  0  0  0  0  0  0  0  0  0
   46.5030   30.0140   46.4800 H   0  0  0  0  0  0  0  0  0  0  0  0
   47.9540   30.1810   44.9640 C   0  0  0  0  0  3  0  0  0  0  0  0
   48.2900   30.9100   43.8330 C   0  0  0  0  0  3  0  0  0  0  0  0
   44.8950   36.9340   44.2110 C   0  0  0  0  0  3  0  0  0  0  0  0
   45.3240   37.9220   43.4550 C   0  0  0  0  0  3  0  0  0  0  0  0
   45.3970   39.3050   44.0080 C   0  0  0  0  0  0  0  0  0  0  0  0
   46.0070   39.2340   44.9430 H   0  0  0  0  0  0  0  0  0  0  0  0
   45.9250   39.9830   43.3240 H   0  0  0  0  0  0  0  0  0  0  0  0
   44.3730   39.6790   44.2690 H   0  0  0  0  0  0  0  0  0  0  0  0
  1  6  1  0  0  0  0
  1 18  1  0  0  0  0
  2  1  2  0  0  0  0
  3  4  2  0  0  0  0
  3  2  1  0  0  0  0
  4  5  1  0  0  0  0
  5 11  1  0  0  0  0
  5  6  2  0  0  0  0
  7  2  1  0  0  0  0
  8  3  1  0  0  0  0
  9 10  1  0  0  0  0
 10 17  2  0  0  0  0
 10 11  1  0  0  0  0
 11 12  2  0  0  0  0
 12 14  1  0  0  0  0
 12 13  1  0  0  0  0
 14 15  1  0  0  0  0
 16 14  2  0  0  0  0
 17 16  1  0  0  0  0
 19 20  1  0  0  0  0
 19 18  2  0  0  0  0
 20 23  1  0  0  0  0
 20 21  1  0  0  0  0
 22 20  1  0  0  0  0
M  END
>  <minimizedAffinity>
-3.3070116

>  <minimizedRMSD>
0.726763785

$$$$
