
 OpenBabel03242511543D

 34 36  0  0  1  0  0  0  0  0999 V2000
   46.5130   32.7550   41.4880 C   0  0  2  0  0  0  0  0  0  0  0  0
   46.1980   32.7360   40.0470 C   0  0  0  0  0  0  0  0  0  0  0  0
   44.9440   33.4910   39.6940 C   0  0  0  0  0  0  0  0  0  0  0  0
   43.7540   32.9470   40.4450 C   0  0  0  0  0  0  0  0  0  0  0  0
   44.0330   32.7460   41.9090 C   0  0  0  0  0  0  0  0  0  0  0  0
   45.3750   33.2960   42.3320 C   0  0  1  0  0  0  0  0  0  0  0  0
   46.7390   31.6980   41.8240 H   0  0  0  0  0  0  0  0  0  0  0  0
   46.0050   31.6840   39.6840 H   0  0  0  0  0  0  0  0  0  0  0  0
   47.0240   33.0850   39.3940 H   0  0  0  0  0  0  0  0  0  0  0  0
   44.7490   33.3400   38.6120 H   0  0  0  0  0  0  0  0  0  0  0  0
   44.9590   34.5620   39.8830 H   0  0  0  0  0  0  0  0  0  0  0  0
   42.8700   33.5760   40.2420 H   0  0  0  0  0  0  0  0  0  0  0  0
   43.5470   31.9300   40.0130 H   0  0  0  0  0  0  0  0  0  0  0  0
   43.8870   31.7150   42.2370 H   0  0  0  0  0  0  0  0  0  0  0  0
   43.2780   33.3750   42.4520 H   0  0  0  0  0  0  0  0  0  0  0  0
   45.3390   34.4010   42.1020 H   0  0  0  0  0  0  0  0  0  0  0  0
   47.7190   33.5500   41.7900 C   0  0  0  0  0  0  0  0  0  0  0  0
   47.6660   34.9110   41.4350 C   0  0  0  0  0  0  0  0  0  0  0  0
   48.7630   35.7320   41.6970 C   0  0  0  0  0  0  0  0  0  0  0  0
   49.8490   35.1320   42.3010 N   0  0  0  0  0  0  0  0  0  0  0  0
   49.8710   33.8310   42.6280 C   0  0  0  0  0  0  0  0  0  0  0  0
   48.8080   33.0300   42.3750 N   0  0  0  0  0  0  0  0  0  0  0  0
   46.8790   35.4400   40.9740 H   0  0  0  0  0  0  0  0  0  0  0  0
   48.8340   36.7770   41.4720 H   0  0  0  0  0  0  0  0  0  0  0  0
   50.7430   33.4190   43.0970 H   0  0  0  0  0  0  0  0  0  0  0  0
   44.8550   35.6750   44.2490 Cl  0  0  0  0  0  0  0  0  0  0  0  0
   45.3770   34.0850   44.7560 C   0  0  0  0  0  0  0  0  0  0  0  0
   45.5500   33.1400   43.7680 C   0  0  0  0  0  0  0  0  0  0  0  0
   45.9570   31.8930   44.2540 C   0  0  0  0  0  0  0  0  0  0  0  0
   46.1520   31.0220   43.6800 H   0  0  0  0  0  0  0  0  0  0  0  0
   46.1600   31.6520   45.5930 C   0  0  0  0  0  0  0  0  0  0  0  0
   46.4700   30.7260   46.0360 H   0  0  0  0  0  0  0  0  0  0  0  0
   45.9640   32.6610   46.5410 C   0  0  0  0  0  0  0  0  0  0  0  0
   45.5630   33.9070   46.1060 C   0  0  0  0  0  0  0  0  0  0  0  0
  1 17  1  0  0  0  0
  1  7  1  1  0  0  0
  1  6  1  0  0  0  0
  2  1  1  0  0  0  0
  3 11  1  0  0  0  0
  3  2  1  0  0  0  0
  3  4  1  0  0  0  0
  4  5  1  0  0  0  0
  5 14  1  0  0  0  0
  5  6  1  0  0  0  0
  5 15  1  0  0  0  0
  6 16  1  6  0  0  0
  6 28  1  0  0  0  0
  8  2  1  0  0  0  0
  9  2  1  0  0  0  0
 10  3  1  0  0  0  0
 12  4  1  0  0  0  0
 13  4  1  0  0  0  0
 17 22  1  0  0  0  0
 18 19  1  0  0  0  0
 18 17  2  0  0  0  0
 19 20  2  0  0  0  0
 20 21  1  0  0  0  0
 21 25  1  0  0  0  0
 22 21  2  0  0  0  0
 23 18  1  0  0  0  0
 24 19  1  0  0  0  0
 26 27  1  0  0  0  0
 27 34  1  0  0  0  0
 28 29  1  0  0  0  0
 28 27  2  0  0  0  0
 29 31  2  0  0  0  0
 30 29  1  0  0  0  0
 31 32  1  0  0  0  0
 31 33  1  0  0  0  0
 34 33  2  0  0  0  0
M  END
>  <minimizedAffinity>
-4.77526045

>  <minimizedRMSD>
3.10974598

$$$$
