
 OpenBabel03242516513D

 43 46  0  0  1  0  0  0  0  0999 V2000
   36.7830   30.4750   39.3100 C   0  0  1  0  0  0  0  0  0  0  0  0
   36.8990   29.5470   38.1640 C   0  0  0  0  0  0  0  0  0  0  0  0
   35.4930   29.4070   37.5730 C   0  0  0  0  0  0  0  0  0  0  0  0
   34.6680   28.6500   38.6090 C   0  0  0  0  0  0  0  0  0  0  0  0
   34.6950   29.2360   39.9660 C   0  0  0  0  0  0  0  0  0  0  0  0
   35.9220   29.9090   40.4170 C   0  0  1  0  0  0  0  0  0  0  0  0
   36.2030   31.3860   38.9710 H   0  0  0  0  0  0  0  0  0  0  0  0
   37.5330   30.0690   37.3820 H   0  0  0  0  0  0  0  0  0  0  0  0
   37.3130   28.5730   38.4250 H   0  0  0  0  0  0  0  0  0  0  0  0
   35.5560   28.7360   36.6920 H   0  0  0  0  0  0  0  0  0  0  0  0
   35.0780   30.3900   37.3480 H   0  0  0  0  0  0  0  0  0  0  0  0
   34.9450   27.5950   38.5480 H   0  0  0  0  0  0  0  0  0  0  0  0
   33.6140   28.6950   38.2060 H   0  0  0  0  0  0  0  0  0  0  0  0
   34.4890   28.3900   40.6870 H   0  0  0  0  0  0  0  0  0  0  0  0
   33.8060   29.8960   40.0880 H   0  0  0  0  0  0  0  0  0  0  0  0
   35.6290   30.8020   41.0420 H   0  0  0  0  0  0  0  0  0  0  0  0
   40.4580   30.7430   40.1220 C   0  0  0  0  0  0  0  0  0  0  0  0
   39.2280   30.3160   39.6270 C   0  0  0  0  0  0  0  0  0  0  0  0
   38.0400   30.9790   39.8470 C   0  0  0  0  0  0  0  0  0  0  0  0
   38.1250   32.0960   40.5870 N   0  0  0  0  0  0  0  0  0  0  0  0
   39.3110   32.5310   41.0790 C   0  0  0  0  0  0  0  0  0  0  0  0
   40.4490   31.8890   40.8640 N   0  0  0  0  0  0  0  0  0  0  0  0
   41.3360   30.1440   39.8880 H   0  0  0  0  0  0  0  0  0  0  0  0
   39.2130   29.4090   39.0360 H   0  0  0  0  0  0  0  0  0  0  0  0
   39.3770   33.4360   41.6780 H   0  0  0  0  0  0  0  0  0  0  0  0
   36.7240   29.0810   41.3420 C   0  0  0  0  0  0  0  0  0  0  0  0
   37.3480   29.5160   42.5170 C   0  0  0  0  0  0  0  0  0  0  0  0
   38.0260   28.5270   43.2320 C   0  0  0  0  0  0  0  0  0  0  0  0
   38.0260   27.2490   42.7430 C   0  0  0  0  0  0  0  0  0  0  0  0
   37.4180   26.8350   41.6040 C   0  0  0  0  0  0  0  0  0  0  0  0
   36.7620   27.7920   40.9120 N   0  0  0  0  0  0  0  0  0  0  0  0
   37.2460   30.5350   42.7400 H   0  0  0  0  0  0  0  0  0  0  0  0
   38.5070   28.8510   44.1310 H   0  0  0  0  0  0  0  0  0  0  0  0
   38.5670   26.5880   43.3650 H   0  0  0  0  0  0  0  0  0  0  0  0
   39.2240   24.5000   42.7190 Cl  0  0  0  0  0  0  0  0  0  0  0  0
   38.0950   24.3700   41.4030 C   0  0  0  0  0  0  0  0  0  0  0  0
   37.3960   25.4880   41.0560 C   0  0  0  0  0  0  0  0  0  0  0  0
   36.5340   25.2540   40.0000 C   0  0  0  0  0  0  0  0  0  0  0  0
   35.9020   25.9950   39.5800 H   0  0  0  0  0  0  0  0  0  0  0  0
   36.4030   24.0320   39.3770 C   0  0  0  0  0  0  0  0  0  0  0  0
   35.7240   23.8680   38.5550 H   0  0  0  0  0  0  0  0  0  0  0  0
   37.1440   22.9440   39.7850 C   0  0  0  0  0  3  0  0  0  0  0  0
   38.0090   23.1470   40.8320 C   0  0  0  0  0  3  0  0  0  0  0  0
  1  7  1  6  0  0  0
  1 19  1  0  0  0  0
  1  6  1  0  0  0  0
  2  9  1  0  0  0  0
  2  1  1  0  0  0  0
  3  2  1  0  0  0  0
  3  4  1  0  0  0  0
  4  5  1  0  0  0  0
  5 15  1  0  0  0  0
  5  6  1  0  0  0  0
  5 14  1  0  0  0  0
  6 16  1  1  0  0  0
  6 26  1  0  0  0  0
  8  2  1  0  0  0  0
 10  3  1  0  0  0  0
 11  3  1  0  0  0  0
 12  4  1  0  0  0  0
 13  4  1  0  0  0  0
 17 22  1  0  0  0  0
 18 19  1  0  0  0  0
 18 17  2  0  0  0  0
 19 20  2  0  0  0  0
 20 21  1  0  0  0  0
 21 25  1  0  0  0  0
 22 21  2  0  0  0  0
 23 17  1  0  0  0  0
 24 18  1  0  0  0  0
 26 27  1  0  0  0  0
 27 32  1  0  0  0  0
 27 28  2  0  0  0  0
 28 33  1  0  0  0  0
 29 28  1  0  0  0  0
 29 34  1  0  0  0  0
 30 29  2  0  0  0  0
 31 26  2  0  0  0  0
 31 30  1  0  0  0  0
 36 35  1  0  0  0  0
 37 36  1  0  0  0  0
 37 30  1  0  0  0  0
 38 37  2  0  0  0  0
 39 38  1  0  0  0  0
 40 42  2  0  0  0  0
 40 38  1  0  0  0  0
 41 40  1  0  0  0  0
 42 43  1  0  0  0  0
 43 36  2  0  0  0  0
M  END
>  <minimizedAffinity>
-6.5173769

$$$$

 OpenBabel03242516513D

 43 46  0  0  1  0  0  0  0  0999 V2000
   38.9350   24.9690   40.9340 C   0  0  1  0  0  0  0  0  0  0  0  0
   38.3410   23.8090   41.6340 C   0  0  0  0  0  0  0  0  0  0  0  0
   37.4780   23.0740   40.6040 C   0  0  0  0  0  0  0  0  0  0  0  0
   36.2990   23.9940   40.3000 C   0  0  0  0  0  0  0  0  0  0  0  0
   36.6770   25.3670   39.8990 C   0  0  0  0  0  0  0  0  0  0  0  0
   37.8850   25.9630   40.4860 C   0  0  1  0  0  0  0  0  0  0  0  0
   39.3790   24.6060   39.9590 H   0  0  0  0  0  0  0  0  0  0  0  0
   39.1960   23.1140   41.9000 H   0  0  0  0  0  0  0  0  0  0  0  0
   37.7570   24.0770   42.5140 H   0  0  0  0  0  0  0  0  0  0  0  0
   37.0420   22.1810   41.0950 H   0  0  0  0  0  0  0  0  0  0  0  0
   38.0650   22.8440   39.7150 H   0  0  0  0  0  0  0  0  0  0  0  0
   35.6000   23.9240   41.1360 H   0  0  0  0  0  0  0  0  0  0  0  0
   35.7720   23.4880   39.4380 H   0  0  0  0  0  0  0  0  0  0  0  0
   35.8050   26.0330   40.1720 H   0  0  0  0  0  0  0  0  0  0  0  0
   36.7000   25.4210   38.7870 H   0  0  0  0  0  0  0  0  0  0  0  0
   38.3950   26.5860   39.6950 H   0  0  0  0  0  0  0  0  0  0  0  0
   41.3310   25.9660   43.6720 C   0  0  0  0  0  0  0  0  0  0  0  0
   40.3170   25.3450   42.9460 C   0  0  0  0  0  0  0  0  0  0  0  0
   40.0160   25.6480   41.6370 C   0  0  0  0  0  0  0  0  0  0  0  0
   40.7690   26.6050   41.0710 N   0  0  0  0  0  0  0  0  0  0  0  0
   41.7610   27.2220   41.7580 C   0  0  0  0  0  0  0  0  0  0  0  0
   42.0460   26.9260   43.0180 N   0  0  0  0  0  0  0  0  0  0  0  0
   41.4860   25.6500   44.7020 H   0  0  0  0  0  0  0  0  0  0  0  0
   39.7380   24.5800   43.4480 H   0  0  0  0  0  0  0  0  0  0  0  0
   42.3710   27.9970   41.2990 H   0  0  0  0  0  0  0  0  0  0  0  0
   37.5840   26.9350   41.5590 C   0  0  0  0  0  0  0  0  0  0  0  0
   37.1050   26.6370   42.8390 C   0  0  0  0  0  0  0  0  0  0  0  0
   36.9280   27.7370   43.6790 C   0  0  0  0  0  0  0  0  0  0  0  0
   37.2280   28.9830   43.1990 C   0  0  0  0  0  0  0  0  0  0  0  0
   37.6930   29.2640   41.9570 C   0  0  0  0  0  0  0  0  0  0  0  0
   37.8650   28.1990   41.1430 N   0  0  0  0  0  0  0  0  0  0  0  0
   36.9270   25.6240   43.0380 H   0  0  0  0  0  0  0  0  0  0  0  0
   36.5600   27.5190   44.6600 H   0  0  0  0  0  0  0  0  0  0  0  0
   37.0570   29.7370   43.9200 H   0  0  0  0  0  0  0  0  0  0  0  0
   40.4300   30.7230   42.5400 Cl  0  0  0  0  0  0  0  0  0  0  0  0
   39.1390   31.3440   41.5560 C   0  0  0  0  0  0  0  0  0  0  0  0
   38.0240   30.5720   41.4130 C   0  0  0  0  0  0  0  0  0  0  0  0
   37.0740   31.1750   40.6090 C   0  0  0  0  0  0  0  0  0  0  0  0
   36.1370   30.7390   40.3750 H   0  0  0  0  0  0  0  0  0  0  0  0
   37.2430   32.4110   40.0240 C   0  0  0  0  0  0  0  0  0  0  0  0
   36.4910   32.8660   39.3990 H   0  0  0  0  0  0  0  0  0  0  0  0
   38.4000   33.1350   40.2130 C   0  0  0  0  0  3  0  0  0  0  0  0
   39.3620   32.5600   41.0080 C   0  0  0  0  0  3  0  0  0  0  0  0
  1  7  1  6  0  0  0
  1  2  1  0  0  0  0
  1 19  1  0  0  0  0
  2  8  1  0  0  0  0
  2  9  1  0  0  0  0
  3 10  1  0  0  0  0
  3  2  1  0  0  0  0
  4  3  1  0  0  0  0
  4 12  1  0  0  0  0
  5 14  1  0  0  0  0
  5  4  1  0  0  0  0
  5  6  1  0  0  0  0
  6 16  1  6  0  0  0
  6  1  1  0  0  0  0
  6 26  1  0  0  0  0
 11  3  1  0  0  0  0
 13  4  1  0  0  0  0
 15  5  1  0  0  0  0
 17 23  1  0  0  0  0
 18 24  1  0  0  0  0
 18 17  2  0  0  0  0
 19 18  1  0  0  0  0
 20 19  2  0  0  0  0
 20 21  1  0  0  0  0
 21 22  2  0  0  0  0
 22 17  1  0  0  0  0
 25 21  1  0  0  0  0
 26 27  1  0  0  0  0
 27 32  1  0  0  0  0
 27 28  2  0  0  0  0
 28 33  1  0  0  0  0
 29 28  1  0  0  0  0
 29 34  1  0  0  0  0
 30 29  2  0  0  0  0
 31 26  2  0  0  0  0
 31 30  1  0  0  0  0
 36 35  1  0  0  0  0
 37 36  1  0  0  0  0
 37 30  1  0  0  0  0
 38 37  2  0  0  0  0
 39 38  1  0  0  0  0
 40 42  2  0  0  0  0
 40 38  1  0  0  0  0
 41 40  1  0  0  0  0
 42 43  1  0  0  0  0
 43 36  2  0  0  0  0
M  END
>  <minimizedAffinity>
-6.36336184

$$$$

 OpenBabel03242516513D

 43 46  0  0  1  0  0  0  0  0999 V2000
   36.5950   30.5990   39.1610 C   0  0  1  0  0  0  0  0  0  0  0  0
   36.8060   29.6710   38.0280 C   0  0  0  0  0  0  0  0  0  0  0  0
   35.4170   29.3380   37.4750 C   0  0  0  0  0  0  0  0  0  0  0  0
   34.7220   28.5000   38.5440 C   0  0  0  0  0  0  0  0  0  0  0  0
   34.7020   29.1120   39.8900 C   0  0  0  0  0  0  0  0  0  0  0  0
   35.8400   29.9470   40.2990 C   0  0  1  0  0  0  0  0  0  0  0  0
   35.8940   31.4200   38.8220 H   0  0  0  0  0  0  0  0  0  0  0  0
   37.3480   30.2560   37.2220 H   0  0  0  0  0  0  0  0  0  0  0  0
   37.3490   28.7650   38.2960 H   0  0  0  0  0  0  0  0  0  0  0  0
   35.5480   28.6640   36.6040 H   0  0  0  0  0  0  0  0  0  0  0  0
   34.8730   30.2530   37.2450 H   0  0  0  0  0  0  0  0  0  0  0  0
   35.1330   27.4890   38.4940 H   0  0  0  0  0  0  0  0  0  0  0  0
   33.6620   28.4000   38.1670 H   0  0  0  0  0  0  0  0  0  0  0  0
   34.6250   28.2610   40.6300 H   0  0  0  0  0  0  0  0  0  0  0  0
   33.7370   29.6520   40.0230 H   0  0  0  0  0  0  0  0  0  0  0  0
   35.4480   30.8070   40.9160 H   0  0  0  0  0  0  0  0  0  0  0  0
   38.8110   33.1900   40.7780 C   0  0  0  0  0  0  0  0  0  0  0  0
   37.7070   32.4940   40.2910 C   0  0  0  0  0  0  0  0  0  0  0  0
   37.7880   31.2730   39.6580 C   0  0  0  0  0  0  0  0  0  0  0  0
   39.0240   30.7660   39.5260 N   0  0  0  0  0  0  0  0  0  0  0  0
   40.1130   31.4250   39.9930 C   0  0  0  0  0  0  0  0  0  0  0  0
   40.0280   32.5990   40.6000 N   0  0  0  0  0  0  0  0  0  0  0  0
   38.6340   34.1480   41.2630 H   0  0  0  0  0  0  0  0  0  0  0  0
   36.7310   32.9470   40.4220 H   0  0  0  0  0  0  0  0  0  0  0  0
   41.1130   31.0130   39.8850 H   0  0  0  0  0  0  0  0  0  0  0  0
   36.7650   29.2500   41.2180 C   0  0  0  0  0  0  0  0  0  0  0  0
   37.3330   29.7780   42.3830 C   0  0  0  0  0  0  0  0  0  0  0  0
   38.1550   28.9020   43.0940 C   0  0  0  0  0  0  0  0  0  0  0  0
   38.3340   27.6340   42.6100 C   0  0  0  0  0  0  0  0  0  0  0  0
   37.7780   27.1290   41.4810 C   0  0  0  0  0  0  0  0  0  0  0  0
   36.9830   27.9770   40.7930 N   0  0  0  0  0  0  0  0  0  0  0  0
   37.0880   30.7730   42.6030 H   0  0  0  0  0  0  0  0  0  0  0  0
   38.5950   29.2970   43.9850 H   0  0  0  0  0  0  0  0  0  0  0  0
   38.9720   27.0620   43.2290 H   0  0  0  0  0  0  0  0  0  0  0  0
   40.3630   26.2210   39.9160 Cl  0  0  0  0  0  0  0  0  0  0  0  0
   38.9760   25.2270   40.2460 C   0  0  0  0  0  0  0  0  0  0  0  0
   37.9450   25.7900   40.9390 C   0  0  0  0  0  0  0  0  0  0  0  0
   36.9060   24.9000   41.1360 C   0  0  0  0  0  0  0  0  0  0  0  0
   36.0120   25.1420   41.6530 H   0  0  0  0  0  0  0  0  0  0  0  0
   36.9170   23.5980   40.6820 C   0  0  0  0  0  0  0  0  0  0  0  0
   36.0970   22.9180   40.8470 H   0  0  0  0  0  0  0  0  0  0  0  0
   37.9970   23.0990   39.9870 C   0  0  0  0  0  3  0  0  0  0  0  0
   39.0450   23.9610   39.7760 C   0  0  0  0  0  3  0  0  0  0  0  0
  1  7  1  6  0  0  0
  1 19  1  0  0  0  0
  1  6  1  0  0  0  0
  2  9  1  0  0  0  0
  2  1  1  0  0  0  0
  3  2  1  0  0  0  0
  3  4  1  0  0  0  0
  4  5  1  0  0  0  0
  5 15  1  0  0  0  0
  5  6  1  0  0  0  0
  5 14  1  0  0  0  0
  6 16  1  1  0  0  0
  6 26  1  0  0  0  0
  8  2  1  0  0  0  0
 10  3  1  0  0  0  0
 11  3  1  0  0  0  0
 12  4  1  0  0  0  0
 13  4  1  0  0  0  0
 17 23  1  0  0  0  0
 18 24  1  0  0  0  0
 18 17  2  0  0  0  0
 19 18  1  0  0  0  0
 20 19  2  0  0  0  0
 20 21  1  0  0  0  0
 21 22  2  0  0  0  0
 22 17  1  0  0  0  0
 25 21  1  0  0  0  0
 26 27  1  0  0  0  0
 27 32  1  0  0  0  0
 27 28  2  0  0  0  0
 28 33  1  0  0  0  0
 29 28  1  0  0  0  0
 29 34  1  0  0  0  0
 30 29  2  0  0  0  0
 31 26  2  0  0  0  0
 31 30  1  0  0  0  0
 35 36  1  0  0  0  0
 36 37  1  0  0  0  0
 37 38  2  0  0  0  0
 37 30  1  0  0  0  0
 38 39  1  0  0  0  0
 40 41  1  0  0  0  0
 40 38  1  0  0  0  0
 42 40  2  0  0  0  0
 43 42  1  0  0  0  0
 43 36  2  0  0  0  0
M  END
>  <minimizedAffinity>
-6.36324692

$$$$

 OpenBabel03242516513D

 43 46  0  0  1  0  0  0  0  0999 V2000
   38.1630   30.5570   39.9200 C   0  0  1  0  0  0  0  0  0  0  0  0
   37.8600   31.8230   40.6240 C   0  0  0  0  0  0  0  0  0  0  0  0
   39.1750   32.6060   40.6980 C   0  0  0  0  0  0  0  0  0  0  0  0
   40.0780   31.8330   41.6550 C   0  0  0  0  0  0  0  0  0  0  0  0
   40.2470   30.4020   41.3210 C   0  0  0  0  0  0  0  0  0  0  0  0
   39.1210   29.6870   40.7030 C   0  0  1  0  0  0  0  0  0  0  0  0
   38.7450   30.8040   38.9820 H   0  0  0  0  0  0  0  0  0  0  0  0
   37.1650   32.4140   39.9500 H   0  0  0  0  0  0  0  0  0  0  0  0
   37.4300   31.6850   41.6150 H   0  0  0  0  0  0  0  0  0  0  0  0
   38.9700   33.5750   41.1970 H   0  0  0  0  0  0  0  0  0  0  0  0
   39.6110   32.7070   39.7050 H   0  0  0  0  0  0  0  0  0  0  0  0
   39.7390   32.0410   42.6720 H   0  0  0  0  0  0  0  0  0  0  0  0
   41.0760   32.3540   41.5690 H   0  0  0  0  0  0  0  0  0  0  0  0
   40.4930   29.8720   42.2890 H   0  0  0  0  0  0  0  0  0  0  0  0
   41.1780   30.2820   40.7220 H   0  0  0  0  0  0  0  0  0  0  0  0
   39.5350   28.9580   39.9460 H   0  0  0  0  0  0  0  0  0  0  0  0
   34.6520   29.1900   39.7380 C   0  0  0  0  0  0  0  0  0  0  0  0
   35.7870   29.9090   40.1050 C   0  0  0  0  0  0  0  0  0  0  0  0
   37.0090   29.7840   39.4830 C   0  0  0  0  0  0  0  0  0  0  0  0
   37.0590   28.9040   38.4700 N   0  0  0  0  0  0  0  0  0  0  0  0
   35.9680   28.1930   38.0950 C   0  0  0  0  0  0  0  0  0  0  0  0
   34.7950   28.3190   38.6980 N   0  0  0  0  0  0  0  0  0  0  0  0
   33.7350   29.3670   40.2980 H   0  0  0  0  0  0  0  0  0  0  0  0
   35.6940   30.6060   40.9300 H   0  0  0  0  0  0  0  0  0  0  0  0
   36.0100   27.4810   37.2740 H   0  0  0  0  0  0  0  0  0  0  0  0
   38.3940   28.8240   41.6590 C   0  0  0  0  0  0  0  0  0  0  0  0
   37.8740   29.2130   42.8980 C   0  0  0  0  0  0  0  0  0  0  0  0
   37.2020   28.2130   43.6020 C   0  0  0  0  0  0  0  0  0  0  0  0
   37.1080   26.9680   43.0410 C   0  0  0  0  0  0  0  0  0  0  0  0
   37.6140   26.5990   41.8380 C   0  0  0  0  0  0  0  0  0  0  0  0
   38.2640   27.5670   41.1570 N   0  0  0  0  0  0  0  0  0  0  0  0
   38.0410   30.2110   43.1730 H   0  0  0  0  0  0  0  0  0  0  0  0
   36.8020   28.5010   44.5520 H   0  0  0  0  0  0  0  0  0  0  0  0
   36.5790   26.2940   43.6610 H   0  0  0  0  0  0  0  0  0  0  0  0
   39.4730   24.1850   42.6590 Cl  0  0  0  0  0  0  0  0  0  0  0  0
   38.2420   24.1460   41.4330 C   0  0  0  0  0  0  0  0  0  0  0  0
   37.5320   25.2890   41.2120 C   0  0  0  0  0  0  0  0  0  0  0  0
   36.5870   25.1280   40.2160 C   0  0  0  0  0  0  0  0  0  0  0  0
   35.9320   25.8980   39.8940 H   0  0  0  0  0  0  0  0  0  0  0  0
   36.3910   23.9480   39.5310 C   0  0  0  0  0  0  0  0  0  0  0  0
   35.6470   23.8410   38.7570 H   0  0  0  0  0  0  0  0  0  0  0  0
   37.1490   22.8310   39.8100 C   0  0  0  0  0  3  0  0  0  0  0  0
   38.0960   22.9620   40.7960 C   0  0  0  0  0  3  0  0  0  0  0  0
  1  7  1  6  0  0  0
  1  2  1  0  0  0  0
  1  6  1  0  0  0  0
  2  3  1  0  0  0  0
  2  9  1  0  0  0  0
  3 10  1  0  0  0  0
  3  4  1  0  0  0  0
  4 12  1  0  0  0  0
  5  4  1  0  0  0  0
  5 14  1  0  0  0  0
  6 16  1  6  0  0  0
  6  5  1  0  0  0  0
  6 26  1  0  0  0  0
  8  2  1  0  0  0  0
 11  3  1  0  0  0  0
 13  4  1  0  0  0  0
 15  5  1  0  0  0  0
 17 18  1  0  0  0  0
 17 23  1  0  0  0  0
 18 24  1  0  0  0  0
 19  1  1  0  0  0  0
 19 18  2  0  0  0  0
 20 19  1  0  0  0  0
 21 20  2  0  0  0  0
 21 22  1  0  0  0  0
 22 17  2  0  0  0  0
 25 21  1  0  0  0  0
 26 27  1  0  0  0  0
 27 32  1  0  0  0  0
 27 28  2  0  0  0  0
 28 33  1  0  0  0  0
 29 28  1  0  0  0  0
 29 34  1  0  0  0  0
 30 29  2  0  0  0  0
 31 26  2  0  0  0  0
 31 30  1  0  0  0  0
 36 35  1  0  0  0  0
 37 36  1  0  0  0  0
 37 30  1  0  0  0  0
 38 37  2  0  0  0  0
 39 38  1  0  0  0  0
 40 42  2  0  0  0  0
 40 38  1  0  0  0  0
 41 40  1  0  0  0  0
 42 43  1  0  0  0  0
 43 36  2  0  0  0  0
M  END
>  <minimizedAffinity>
-6.12168741

$$$$

 OpenBabel03242516513D

 43 46  0  0  1  0  0  0  0  0999 V2000
   38.9420   30.0670   37.9750 C   0  0  1  0  0  0  0  0  0  0  0  0
   40.1770   29.3380   38.3410 C   0  0  0  0  0  0  0  0  0  0  0  0
   40.5140   28.4280   37.1560 C   0  0  0  0  0  0  0  0  0  0  0  0
   39.4250   27.3590   37.1160 C   0  0  0  0  0  0  0  0  0  0  0  0
   38.0440   27.8870   37.0970 C   0  0  0  0  0  0  0  0  0  0  0  0
   37.7590   29.1370   37.8150 C   0  0  1  0  0  0  0  0  0  0  0  0
   39.0780   30.4930   36.9360 H   0  0  0  0  0  0  0  0  0  0  0  0
   41.0050   30.1100   38.4070 H   0  0  0  0  0  0  0  0  0  0  0  0
   40.0940   28.7650   39.2640 H   0  0  0  0  0  0  0  0  0  0  0  0
   41.4540   27.8890   37.3930 H   0  0  0  0  0  0  0  0  0  0  0  0
   40.5600   29.0090   36.2350 H   0  0  0  0  0  0  0  0  0  0  0  0
   39.6400   26.6360   37.9060 H   0  0  0  0  0  0  0  0  0  0  0  0
   39.6230   26.8030   36.1540 H   0  0  0  0  0  0  0  0  0  0  0  0
   37.3850   27.0830   37.5420 H   0  0  0  0  0  0  0  0  0  0  0  0
   37.6970   27.9420   36.0400 H   0  0  0  0  0  0  0  0  0  0  0  0
   37.0050   29.7280   37.2180 H   0  0  0  0  0  0  0  0  0  0  0  0
   37.2770   33.2170   39.2140 C   0  0  0  0  0  0  0  0  0  0  0  0
   37.6430   32.1140   38.4460 C   0  0  0  0  0  0  0  0  0  0  0  0
   38.5960   31.1950   38.8280 C   0  0  0  0  0  0  0  0  0  0  0  0
   39.1780   31.4190   40.0170 N   0  0  0  0  0  0  0  0  0  0  0  0
   38.8370   32.4850   40.7820 C   0  0  0  0  0  0  0  0  0  0  0  0
   37.9200   33.3650   40.4090 N   0  0  0  0  0  0  0  0  0  0  0  0
   36.5110   33.8800   38.8180 H   0  0  0  0  0  0  0  0  0  0  0  0
   37.1440   31.9780   37.4940 H   0  0  0  0  0  0  0  0  0  0  0  0
   39.3090   32.6660   41.7450 H   0  0  0  0  0  0  0  0  0  0  0  0
   37.0820   28.9140   39.1110 C   0  0  0  0  0  0  0  0  0  0  0  0
   35.7840   29.3140   39.4490 C   0  0  0  0  0  0  0  0  0  0  0  0
   35.3670   28.9560   40.7320 C   0  0  0  0  0  0  0  0  0  0  0  0
   36.2330   28.2630   41.5330 C   0  0  0  0  0  0  0  0  0  0  0  0
   37.4890   27.8780   41.1980 C   0  0  0  0  0  0  0  0  0  0  0  0
   37.8940   28.2250   39.9560 N   0  0  0  0  0  0  0  0  0  0  0  0
   35.2590   29.8400   38.7100 H   0  0  0  0  0  0  0  0  0  0  0  0
   34.3760   29.2590   40.9990 H   0  0  0  0  0  0  0  0  0  0  0  0
   35.8100   28.0470   42.4770 H   0  0  0  0  0  0  0  0  0  0  0  0
   37.2600   24.7740   41.7140 Cl  0  0  0  0  0  0  0  0  0  0  0  0
   38.4940   25.8200   42.3500 C   0  0  0  0  0  0  0  0  0  0  0  0
   38.4350   27.1420   42.0210 C   0  0  0  0  0  0  0  0  0  0  0  0
   39.4690   27.8640   42.5870 C   0  0  0  0  0  0  0  0  0  0  0  0
   39.6030   28.9070   42.4520 H   0  0  0  0  0  0  0  0  0  0  0  0
   40.4410   27.3070   43.3890 C   0  0  0  0  0  0  0  0  0  0  0  0
   41.2410   27.8860   43.8220 H   0  0  0  0  0  0  0  0  0  0  0  0
   40.4350   25.9590   43.6790 C   0  0  0  0  0  3  0  0  0  0  0  0
   39.4190   25.2160   43.1300 C   0  0  0  0  0  3  0  0  0  0  0  0
  1  7  1  6  0  0  0
  1  2  1  0  0  0  0
  1 19  1  0  0  0  0
  2  8  1  0  0  0  0
  2  9  1  0  0  0  0
  3 10  1  0  0  0  0
  3  2  1  0  0  0  0
  4  3  1  0  0  0  0
  4 12  1  0  0  0  0
  5  4  1  0  0  0  0
  5 14  1  0  0  0  0
  5  6  1  0  0  0  0
  6 16  1  6  0  0  0
  6  1  1  0  0  0  0
  6 26  1  0  0  0  0
 11  3  1  0  0  0  0
 13  4  1  0  0  0  0
 15  5  1  0  0  0  0
 17 22  1  0  0  0  0
 18 19  1  0  0  0  0
 18 17  2  0  0  0  0
 19 20  2  0  0  0  0
 20 21  1  0  0  0  0
 21 25  1  0  0  0  0
 22 21  2  0  0  0  0
 23 17  1  0  0  0  0
 24 18  1  0  0  0  0
 26 27  2  0  0  0  0
 26 31  1  0  0  0  0
 27 28  1  0  0  0  0
 28 33  1  0  0  0  0
 28 29  2  0  0  0  0
 29 34  1  0  0  0  0
 30 29  1  0  0  0  0
 30 37  1  0  0  0  0
 31 30  2  0  0  0  0
 32 27  1  0  0  0  0
 35 36  1  0  0  0  0
 36 43  1  0  0  0  0
 37 36  2  0  0  0  0
 37 38  1  0  0  0  0
 38 40  2  0  0  0  0
 39 38  1  0  0  0  0
 40 42  1  0  0  0  0
 40 41  1  0  0  0  0
 43 42  2  0  0  0  0
M  END
>  <minimizedAffinity>
-6.01840353

$$$$

 OpenBabel03242516513D

 43 46  0  0  1  0  0  0  0  0999 V2000
   37.3580   30.6100   38.7630 C   0  0  1  0  0  0  0  0  0  0  0  0
   36.8430   29.2900   38.3370 C   0  0  0  0  0  0  0  0  0  0  0  0
   35.3220   29.3390   38.5070 C   0  0  0  0  0  0  0  0  0  0  0  0
   35.0630   29.3940   40.0100 C   0  0  0  0  0  0  0  0  0  0  0  0
   35.7840   30.4720   40.7210 C   0  0  0  0  0  0  0  0  0  0  0  0
   37.1130   30.8680   40.2340 C   0  0  1  0  0  0  0  0  0  0  0  0
   36.7430   31.4110   38.2540 H   0  0  0  0  0  0  0  0  0  0  0  0
   37.0460   29.2030   37.2240 H   0  0  0  0  0  0  0  0  0  0  0  0
   37.2720   28.4510   38.8850 H   0  0  0  0  0  0  0  0  0  0  0  0
   34.9070   28.3690   38.1670 H   0  0  0  0  0  0  0  0  0  0  0  0
   34.9110   30.2020   37.9830 H   0  0  0  0  0  0  0  0  0  0  0  0
   35.2100   28.3880   40.4090 H   0  0  0  0  0  0  0  0  0  0  0  0
   33.9510   29.5770   40.0890 H   0  0  0  0  0  0  0  0  0  0  0  0
   35.9050   30.1280   41.7910 H   0  0  0  0  0  0  0  0  0  0  0  0
   35.1090   31.3530   40.8120 H   0  0  0  0  0  0  0  0  0  0  0  0
   37.2180   31.9850   40.3530 H   0  0  0  0  0  0  0  0  0  0  0  0
   40.9620   30.0820   37.7790 C   0  0  0  0  0  0  0  0  0  0  0  0
   39.6240   29.8760   38.1060 C   0  0  0  0  0  0  0  0  0  0  0  0
   38.7460   30.8910   38.4190 C   0  0  0  0  0  0  0  0  0  0  0  0
   39.2560   32.1320   38.3930 N   0  0  0  0  0  0  0  0  0  0  0  0
   40.5550   32.3560   38.0770 C   0  0  0  0  0  0  0  0  0  0  0  0
   41.3950   31.3760   37.7770 N   0  0  0  0  0  0  0  0  0  0  0  0
   41.5690   29.2090   37.5470 H   0  0  0  0  0  0  0  0  0  0  0  0
   39.2610   28.8560   38.1130 H   0  0  0  0  0  0  0  0  0  0  0  0
   40.9680   33.3630   38.0560 H   0  0  0  0  0  0  0  0  0  0  0  0
   38.2130   30.3230   41.0580 C   0  0  0  0  0  0  0  0  0  0  0  0
   39.2420   31.0570   41.6590 C   0  0  0  0  0  0  0  0  0  0  0  0
   40.1460   30.3070   42.4130 C   0  0  0  0  0  0  0  0  0  0  0  0
   39.9590   28.9540   42.5030 C   0  0  0  0  0  0  0  0  0  0  0  0
   38.9580   28.2500   41.9190 C   0  0  0  0  0  0  0  0  0  0  0  0
   38.0840   28.9760   41.1890 N   0  0  0  0  0  0  0  0  0  0  0  0
   39.2330   32.0900   41.4820 H   0  0  0  0  0  0  0  0  0  0  0  0
   40.9370   30.8600   42.8750 H   0  0  0  0  0  0  0  0  0  0  0  0
   40.7010   28.4920   43.0980 H   0  0  0  0  0  0  0  0  0  0  0  0
   41.2970   26.1330   41.8540 Cl  0  0  0  0  0  0  0  0  0  0  0  0
   39.6020   25.7690   41.9800 C   0  0  0  0  0  0  0  0  0  0  0  0
   38.7290   26.8160   41.9940 C   0  0  0  0  0  0  0  0  0  0  0  0
   37.4160   26.3960   42.0980 C   0  0  0  0  0  0  0  0  0  0  0  0
   36.5860   27.0550   42.1250 H   0  0  0  0  0  0  0  0  0  0  0  0
   37.0410   25.0720   42.1770 C   0  0  0  0  0  0  0  0  0  0  0  0
   36.0110   24.7630   42.2590 H   0  0  0  0  0  0  0  0  0  0  0  0
   37.9830   24.0650   42.1580 C   0  0  0  0  0  3  0  0  0  0  0  0
   39.2960   24.4540   42.0560 C   0  0  0  0  0  3  0  0  0  0  0  0
  1  7  1  6  0  0  0
  1  6  1  0  0  0  0
  2  3  1  0  0  0  0
  2  1  1  0  0  0  0
  2  9  1  0  0  0  0
  3  4  1  0  0  0  0
  4 13  1  0  0  0  0
  4 12  1  0  0  0  0
  4  5  1  0  0  0  0
  5 15  1  0  0  0  0
  5 14  1  0  0  0  0
  6 16  1  1  0  0  0
  6  5  1  0  0  0  0
  6 26  1  0  0  0  0
  8  2  1  0  0  0  0
 10  3  1  0  0  0  0
 11  3  1  0  0  0  0
 17 18  1  0  0  0  0
 18 24  1  0  0  0  0
 18 19  2  0  0  0  0
 19  1  1  0  0  0  0
 20 19  1  0  0  0  0
 21 20  2  0  0  0  0
 22 17  2  0  0  0  0
 22 21  1  0  0  0  0
 23 17  1  0  0  0  0
 25 21  1  0  0  0  0
 26 31  2  0  0  0  0
 26 27  1  0  0  0  0
 27 28  2  0  0  0  0
 28 29  1  0  0  0  0
 28 33  1  0  0  0  0
 29 34  1  0  0  0  0
 30 37  1  0  0  0  0
 30 29  2  0  0  0  0
 31 30  1  0  0  0  0
 32 27  1  0  0  0  0
 35 36  1  0  0  0  0
 36 37  2  0  0  0  0
 36 43  1  0  0  0  0
 37 38  1  0  0  0  0
 38 39  1  0  0  0  0
 38 40  2  0  0  0  0
 40 41  1  0  0  0  0
 42 40  1  0  0  0  0
 43 42  2  0  0  0  0
M  END
>  <minimizedAffinity>
-5.99478817

$$$$

 OpenBabel03242516513D

 43 46  0  0  1  0  0  0  0  0999 V2000
   39.6700   31.9740   38.0960 C   0  0  1  0  0  0  0  0  0  0  0  0
   38.7000   30.8580   38.1510 C   0  0  0  0  0  0  0  0  0  0  0  0
   37.3050   31.4900   38.1090 C   0  0  0  0  0  0  0  0  0  0  0  0
   37.1310   32.2260   39.4350 C   0  0  0  0  0  0  0  0  0  0  0  0
   38.2150   33.1790   39.7570 C   0  0  0  0  0  0  0  0  0  0  0  0
   39.5810   32.8660   39.3150 C   0  0  1  0  0  0  0  0  0  0  0  0
   39.3700   32.6630   37.2500 H   0  0  0  0  0  0  0  0  0  0  0  0
   38.8220   30.2700   37.1880 H   0  0  0  0  0  0  0  0  0  0  0  0
   38.8140   30.2170   39.0250 H   0  0  0  0  0  0  0  0  0  0  0  0
   36.5570   30.6720   38.1200 H   0  0  0  0  0  0  0  0  0  0  0  0
   37.2170   32.1550   37.2500 H   0  0  0  0  0  0  0  0  0  0  0  0
   36.9180   31.4800   40.2030 H   0  0  0  0  0  0  0  0  0  0  0  0
   36.1630   32.7940   39.3070 H   0  0  0  0  0  0  0  0  0  0  0  0
   38.2370   33.2730   40.8830 H   0  0  0  0  0  0  0  0  0  0  0  0
   37.9070   34.1960   39.4240 H   0  0  0  0  0  0  0  0  0  0  0  0
   40.0860   33.8270   39.0080 H   0  0  0  0  0  0  0  0  0  0  0  0
   42.8190   29.9090   37.8640 C   0  0  0  0  0  0  0  0  0  0  0  0
   41.5070   30.3230   38.0840 C   0  0  0  0  0  0  0  0  0  0  0  0
   41.0530   31.6000   37.8350 C   0  0  0  0  0  0  0  0  0  0  0  0
   41.9660   32.4590   37.3540 N   0  0  0  0  0  0  0  0  0  0  0  0
   43.2480   32.0790   37.1320 C   0  0  0  0  0  0  0  0  0  0  0  0
   43.6780   30.8490   37.3740 N   0  0  0  0  0  0  0  0  0  0  0  0
   43.0710   28.8760   38.0950 H   0  0  0  0  0  0  0  0  0  0  0  0
   40.8090   29.5920   38.4740 H   0  0  0  0  0  0  0  0  0  0  0  0
   43.9860   32.7760   36.7420 H   0  0  0  0  0  0  0  0  0  0  0  0
   40.4360   32.3550   40.4080 C   0  0  0  0  0  0  0  0  0  0  0  0
   41.6560   32.8960   40.8300 C   0  0  0  0  0  0  0  0  0  0  0  0
   42.2560   32.2420   41.9070 C   0  0  0  0  0  0  0  0  0  0  0  0
   41.6220   31.1560   42.4500 C   0  0  0  0  0  0  0  0  0  0  0  0
   40.4400   30.6390   42.0360 C   0  0  0  0  0  0  0  0  0  0  0  0
   39.8590   31.2710   40.9930 N   0  0  0  0  0  0  0  0  0  0  0  0
   41.9950   33.7320   40.2980 H   0  0  0  0  0  0  0  0  0  0  0  0
   43.1900   32.6480   42.2360 H   0  0  0  0  0  0  0  0  0  0  0  0
   42.1670   30.7440   43.2570 H   0  0  0  0  0  0  0  0  0  0  0  0
   41.8400   27.8580   42.5470 Cl  0  0  0  0  0  0  0  0  0  0  0  0
   40.1730   28.2290   42.8720 C   0  0  0  0  0  0  0  0  0  0  0  0
   39.7380   29.4900   42.5870 C   0  0  0  0  0  0  0  0  0  0  0  0
   38.4000   29.6580   42.8900 C   0  0  0  0  0  0  0  0  0  0  0  0
   37.8720   30.5660   42.7430 H   0  0  0  0  0  0  0  0  0  0  0  0
   37.6050   28.6640   43.4180 C   0  0  0  0  0  0  0  0  0  0  0  0
   36.5630   28.8140   43.6490 H   0  0  0  0  0  0  0  0  0  0  0  0
   38.1160   27.4110   43.6800 C   0  0  0  0  0  3  0  0  0  0  0  0
   39.4440   27.2150   43.3890 C   0  0  0  0  0  3  0  0  0  0  0  0
  1  7  1  6  0  0  0
  1  2  1  0  0  0  0
  1  6  1  0  0  0  0
  2  9  1  0  0  0  0
  3 10  1  0  0  0  0
  3  2  1  0  0  0  0
  3  4  1  0  0  0  0
  4  5  1  0  0  0  0
  4 12  1  0  0  0  0
  5 14  1  0  0  0  0
  6 16  1  6  0  0  0
  6  5  1  0  0  0  0
  6 26  1  0  0  0  0
  8  2  1  0  0  0  0
 11  3  1  0  0  0  0
 13  4  1  0  0  0  0
 15  5  1  0  0  0  0
 17 18  1  0  0  0  0
 17 23  1  0  0  0  0
 18 24  1  0  0  0  0
 19 18  2  0  0  0  0
 19  1  1  0  0  0  0
 20 19  1  0  0  0  0
 21 20  2  0  0  0  0
 21 22  1  0  0  0  0
 22 17  2  0  0  0  0
 25 21  1  0  0  0  0
 26 27  2  0  0  0  0
 26 31  1  0  0  0  0
 27 28  1  0  0  0  0
 28 33  1  0  0  0  0
 28 29  2  0  0  0  0
 29 34  1  0  0  0  0
 30 29  1  0  0  0  0
 30 37  1  0  0  0  0
 31 30  2  0  0  0  0
 32 27  1  0  0  0  0
 35 36  1  0  0  0  0
 36 43  1  0  0  0  0
 37 36  2  0  0  0  0
 37 38  1  0  0  0  0
 38 40  2  0  0  0  0
 39 38  1  0  0  0  0
 40 41  1  0  0  0  0
 40 42  1  0  0  0  0
 43 42  2  0  0  0  0
M  END
>  <minimizedAffinity>
-5.95814514

$$$$

 OpenBabel03242516513D

 43 46  0  0  1  0  0  0  0  0999 V2000
   37.7680   26.6100   41.0340 C   0  0  1  0  0  0  0  0  0  0  0  0
   39.2220   26.5700   41.3040 C   0  0  0  0  0  0  0  0  0  0  0  0
   39.3890   25.9710   42.7030 C   0  0  0  0  0  0  0  0  0  0  0  0
   38.8370   27.0070   43.6800 C   0  0  0  0  0  0  0  0  0  0  0  0
   37.4630   27.4640   43.3800 C   0  0  0  0  0  0  0  0  0  0  0  0
   37.0390   27.5440   41.9750 C   0  0  1  0  0  0  0  0  0  0  0  0
   37.3330   25.5970   41.2870 H   0  0  0  0  0  0  0  0  0  0  0  0
   39.6710   25.8280   40.5740 H   0  0  0  0  0  0  0  0  0  0  0  0
   39.7110   27.5420   41.2330 H   0  0  0  0  0  0  0  0  0  0  0  0
   40.4740   25.9040   42.9210 H   0  0  0  0  0  0  0  0  0  0  0  0
   38.8670   25.0170   42.7710 H   0  0  0  0  0  0  0  0  0  0  0  0
   39.5840   27.7970   43.7820 H   0  0  0  0  0  0  0  0  0  0  0  0
   38.8420   26.4740   44.6750 H   0  0  0  0  0  0  0  0  0  0  0  0
   37.3650   28.5000   43.8220 H   0  0  0  0  0  0  0  0  0  0  0  0
   36.7470   26.8620   43.9840 H   0  0  0  0  0  0  0  0  0  0  0  0
   35.9560   27.2330   41.9110 H   0  0  0  0  0  0  0  0  0  0  0  0
   35.7870   26.6180   37.8230 C   0  0  0  0  0  0  0  0  0  0  0  0
   36.2000   26.4050   39.1360 C   0  0  0  0  0  0  0  0  0  0  0  0
   37.3870   26.8760   39.6530 C   0  0  0  0  0  0  0  0  0  0  0  0
   38.1560   27.5740   38.8030 N   0  0  0  0  0  0  0  0  0  0  0  0
   37.7750   27.7940   37.5210 C   0  0  0  0  0  0  0  0  0  0  0  0
   36.6320   27.3380   37.0300 N   0  0  0  0  0  0  0  0  0  0  0  0
   34.8280   26.2020   37.5180 H   0  0  0  0  0  0  0  0  0  0  0  0
   35.5430   25.8340   39.7820 H   0  0  0  0  0  0  0  0  0  0  0  0
   38.3990   28.3600   36.8330 H   0  0  0  0  0  0  0  0  0  0  0  0
   37.0370   28.9270   41.4530 C   0  0  0  0  0  0  0  0  0  0  0  0
   35.9530   29.5940   40.8710 C   0  0  0  0  0  0  0  0  0  0  0  0
   36.2020   30.9110   40.4830 C   0  0  0  0  0  0  0  0  0  0  0  0
   37.4500   31.4310   40.6970 C   0  0  0  0  0  0  0  0  0  0  0  0
   38.4960   30.7800   41.2620 C   0  0  0  0  0  0  0  0  0  0  0  0
   38.2540   29.5040   41.6380 N   0  0  0  0  0  0  0  0  0  0  0  0
   35.0670   29.0400   40.7840 H   0  0  0  0  0  0  0  0  0  0  0  0
   35.3790   31.4280   40.0360 H   0  0  0  0  0  0  0  0  0  0  0  0
   37.5220   32.4330   40.3650 H   0  0  0  0  0  0  0  0  0  0  0  0
   39.8460   32.9630   39.4280 Cl  0  0  0  0  0  0  0  0  0  0  0  0
   40.5660   32.2300   40.8300 C   0  0  0  0  0  0  0  0  0  0  0  0
   39.8320   31.3000   41.5050 C   0  0  0  0  0  0  0  0  0  0  0  0
   40.5130   30.7940   42.5970 C   0  0  0  0  0  0  0  0  0  0  0  0
   40.1160   30.0610   43.2520 H   0  0  0  0  0  0  0  0  0  0  0  0
   41.7840   31.1890   42.9540 C   0  0  0  0  0  0  0  0  0  0  0  0
   42.3000   30.7840   43.8100 H   0  0  0  0  0  0  0  0  0  0  0  0
   42.4660   32.1360   42.2210 C   0  0  0  0  0  3  0  0  0  0  0  0
   41.8130   32.6570   41.1310 C   0  0  0  0  0  3  0  0  0  0  0  0
  1  7  1  1  0  0  0
  1  2  1  0  0  0  0
  1  6  1  0  0  0  0
  2  3  1  0  0  0  0
  3 11  1  0  0  0  0
  3 10  1  0  0  0  0
  3  4  1  0  0  0  0
  4 12  1  0  0  0  0
  4 13  1  0  0  0  0
  5  4  1  0  0  0  0
  5 14  1  0  0  0  0
  5 15  1  0  0  0  0
  6 16  1  6  0  0  0
  6  5  1  0  0  0  0
  8  2  1  0  0  0  0
  9  2  1  0  0  0  0
 17 18  1  0  0  0  0
 18 19  2  0  0  0  0
 18 24  1  0  0  0  0
 19  1  1  0  0  0  0
 20 19  1  0  0  0  0
 21 20  2  0  0  0  0
 22 21  1  0  0  0  0
 22 17  2  0  0  0  0
 23 17  1  0  0  0  0
 25 21  1  0  0  0  0
 26 31  1  0  0  0  0
 26  6  1  0  0  0  0
 27 26  2  0  0  0  0
 28 29  2  0  0  0  0
 28 27  1  0  0  0  0
 29 30  1  0  0  0  0
 30 37  1  0  0  0  0
 30 31  2  0  0  0  0
 32 27  1  0  0  0  0
 33 28  1  0  0  0  0
 34 29  1  0  0  0  0
 35 36  1  0  0  0  0
 36 43  2  0  0  0  0
 36 37  1  0  0  0  0
 37 38  2  0  0  0  0
 38 40  1  0  0  0  0
 38 39  1  0  0  0  0
 40 41  1  0  0  0  0
 42 40  2  0  0  0  0
 43 42  1  0  0  0  0
M  END
>  <minimizedAffinity>
-5.86443233

$$$$

 OpenBabel03242516513D

 43 46  0  0  1  0  0  0  0  0999 V2000
   38.1800   29.8610   37.0920 C   0  0  1  0  0  0  0  0  0  0  0  0
   38.5010   28.4410   36.8270 C   0  0  0  0  0  0  0  0  0  0  0  0
   37.5950   27.9980   35.6740 C   0  0  0  0  0  0  0  0  0  0  0  0
   36.1740   27.9810   36.2300 C   0  0  0  0  0  0  0  0  0  0  0  0
   35.7510   29.2420   36.8770 C   0  0  0  0  0  0  0  0  0  0  0  0
   36.7610   30.0420   37.5850 C   0  0  1  0  0  0  0  0  0  0  0  0
   38.1830   30.4150   36.1060 H   0  0  0  0  0  0  0  0  0  0  0  0
   39.5650   28.4130   36.4370 H   0  0  0  0  0  0  0  0  0  0  0  0
   38.3780   27.7920   37.6940 H   0  0  0  0  0  0  0  0  0  0  0  0
   37.8360   26.9420   35.4350 H   0  0  0  0  0  0  0  0  0  0  0  0
   37.7020   28.6750   34.8270 H   0  0  0  0  0  0  0  0  0  0  0  0
   36.0670   27.0810   36.8400 H   0  0  0  0  0  0  0  0  0  0  0  0
   35.5280   27.7950   35.3230 H   0  0  0  0  0  0  0  0  0  0  0  0
   34.9510   28.9660   37.6270 H   0  0  0  0  0  0  0  0  0  0  0  0
   35.1990   29.8580   36.1320 H   0  0  0  0  0  0  0  0  0  0  0  0
   36.5320   31.1340   37.4170 H   0  0  0  0  0  0  0  0  0  0  0  0
   40.8780   30.5190   39.6460 C   0  0  0  0  0  0  0  0  0  0  0  0
   39.9700   29.8940   38.7940 C   0  0  0  0  0  0  0  0  0  0  0  0
   39.1150   30.5720   37.9530 C   0  0  0  0  0  0  0  0  0  0  0  0
   39.1990   31.9120   37.9940 N   0  0  0  0  0  0  0  0  0  0  0  0
   40.0750   32.5410   38.8140 C   0  0  0  0  0  0  0  0  0  0  0  0
   40.8950   31.8830   39.6210 N   0  0  0  0  0  0  0  0  0  0  0  0
   41.5080   29.8870   40.2680 H   0  0  0  0  0  0  0  0  0  0  0  0
   39.9410   28.8110   38.7990 H   0  0  0  0  0  0  0  0  0  0  0  0
   40.1420   33.6270   38.8460 H   0  0  0  0  0  0  0  0  0  0  0  0
   36.6870   29.8910   39.0540 C   0  0  0  0  0  0  0  0  0  0  0  0
   36.4650   30.9140   39.9840 C   0  0  0  0  0  0  0  0  0  0  0  0
   36.4110   30.5040   41.3170 C   0  0  0  0  0  0  0  0  0  0  0  0
   36.5750   29.1750   41.6010 C   0  0  0  0  0  0  0  0  0  0  0  0
   36.7890   28.1900   40.6950 C   0  0  0  0  0  0  0  0  0  0  0  0
   36.8410   28.5860   39.4040 N   0  0  0  0  0  0  0  0  0  0  0  0
   36.3630   31.8790   39.5880 H   0  0  0  0  0  0  0  0  0  0  0  0
   36.2430   31.2800   42.0350 H   0  0  0  0  0  0  0  0  0  0  0  0
   36.5140   28.9830   42.6390 H   0  0  0  0  0  0  0  0  0  0  0  0
   38.0150   27.0880   43.3850 Cl  0  0  0  0  0  0  0  0  0  0  0  0
   37.4700   26.1210   42.0470 C   0  0  0  0  0  0  0  0  0  0  0  0
   36.9650   26.7710   40.9600 C   0  0  0  0  0  0  0  0  0  0  0  0
   36.5680   25.8940   39.9680 C   0  0  0  0  0  0  0  0  0  0  0  0
   36.1490   26.1990   39.0430 H   0  0  0  0  0  0  0  0  0  0  0  0
   36.6730   24.5240   40.0740 C   0  0  0  0  0  0  0  0  0  0  0  0
   36.3560   23.8540   39.2890 H   0  0  0  0  0  0  0  0  0  0  0  0
   37.1940   23.9360   41.2060 C   0  0  0  0  0  3  0  0  0  0  0  0
   37.5970   24.7840   42.2080 C   0  0  0  0  0  3  0  0  0  0  0  0
  1  7  1  6  0  0  0
  1  6  1  0  0  0  0
  1 19  1  0  0  0  0
  2  1  1  0  0  0  0
  2  9  1  0  0  0  0
  3  4  1  0  0  0  0
  3  2  1  0  0  0  0
  4 12  1  0  0  0  0
  4  5  1  0  0  0  0
  5  6  1  0  0  0  0
  5 14  1  0  0  0  0
  6 16  1  6  0  0  0
  6 26  1  0  0  0  0
  8  2  1  0  0  0  0
 10  3  1  0  0  0  0
 11  3  1  0  0  0  0
 13  4  1  0  0  0  0
 15  5  1  0  0  0  0
 17 23  1  0  0  0  0
 18 24  1  0  0  0  0
 18 17  2  0  0  0  0
 19 20  2  0  0  0  0
 19 18  1  0  0  0  0
 20 21  1  0  0  0  0
 21 25  1  0  0  0  0
 21 22  2  0  0  0  0
 22 17  1  0  0  0  0
 26 31  2  0  0  0  0
 26 27  1  0  0  0  0
 27 28  2  0  0  0  0
 28 29  1  0  0  0  0
 28 33  1  0  0  0  0
 29 34  1  0  0  0  0
 30 37  1  0  0  0  0
 30 29  2  0  0  0  0
 31 30  1  0  0  0  0
 32 27  1  0  0  0  0
 36 43  1  0  0  0  0
 36 35  1  0  0  0  0
 37 36  2  0  0  0  0
 38 40  2  0  0  0  0
 38 37  1  0  0  0  0
 39 38  1  0  0  0  0
 40 42  1  0  0  0  0
 41 40  1  0  0  0  0
 42 43  2  0  0  0  0
M  END
>  <minimizedAffinity>
-5.856534

$$$$
