REMARK  Name = 
REMARK  3 active torsions:
REMARK  status: ('A' for Active; 'I' for Inactive)
REMARK    1  A    between atoms: C_1  and  C_9
REMARK    2  A    between atoms: C_6  and  C_13
REMARK    3  A    between atoms: C_17  and  C_37
REMARK                            x       y       z     vdW  Elec       q    Type
REMARK                         _______ _______ _______ _____ _____    ______ ____
ROOT
ATOM      1  C   UNL     1      47.876  32.944  41.928  0.00  0.00    +0.000 C 
ATOM      2  C   UNL     1      47.606  32.287  40.630  0.00  0.00    +0.000 C 
ATOM      3  C   UNL     1      48.649  32.823  39.645  0.00  0.00    +0.000 C 
ATOM      4  C   UNL     1      48.307  34.293  39.419  0.00  0.00    +0.000 C 
ATOM      5  C   UNL     1      48.180  35.093  40.656  0.00  0.00    +0.000 C 
ATOM      6  C   UNL     1      47.658  34.440  41.865  0.00  0.00    +0.000 C 
ATOM      7  H   UNL     1      48.982  32.853  42.148  0.00  0.00    +0.000 HD
ATOM      8  H   UNL     1      47.824  31.183  40.770  0.00  0.00    +0.000 HD
ATOM      9  H   UNL     1      46.595  32.448  40.256  0.00  0.00    +0.000 HD
ATOM     10  H   UNL     1      48.487  32.324  38.668  0.00  0.00    +0.000 HD
ATOM     11  H   UNL     1      49.653  32.687  40.047  0.00  0.00    +0.000 HD
ATOM     12  H   UNL     1      47.450  34.334  38.743  0.00  0.00    +0.000 HD
ATOM     13  H   UNL     1      49.174  34.685  38.811  0.00  0.00    +0.000 HD
ATOM     14  H   UNL     1      47.490  35.955  40.413  0.00  0.00    +0.000 HD
ATOM     15  H   UNL     1      49.153  35.596  40.858  0.00  0.00    +0.000 HD
ATOM     16  H   UNL     1      48.211  34.851  42.759  0.00  0.00    +0.000 HD
ENDROOT
BRANCH   1  19
ATOM     17  C   UNL     1      45.413  30.965  43.990  0.00  0.00    +0.000 A 
ATOM     18  C   UNL     1      46.113  31.531  42.927  0.00  0.00    +0.000 A 
ATOM     19  C   UNL     1      47.191  32.375  43.081  0.00  0.00    +0.000 A 
ATOM     20  N   UNL     1      47.549  32.638  44.348  0.00  0.00    +0.000 NA
ATOM     21  C   UNL     1      46.883  32.098  45.398  0.00  0.00    +0.000 A 
ATOM     22  N   UNL     1      45.847  31.287  45.243  0.00  0.00    +0.000 NA
ATOM     23  H   UNL     1      44.576  30.310  43.756  0.00  0.00    +0.000 HD
ATOM     24  H   UNL     1      45.784  31.288  41.924  0.00  0.00    +0.000 HD
ATOM     25  H   UNL     1      47.174  32.312  46.424  0.00  0.00    +0.000 HD
ENDBRANCH   1  19
BRANCH   6  26
ATOM     26  C   UNL     1      46.246  34.782  42.139  0.00  0.00    +0.000 A 
ATOM     27  C   UNL     1      45.740  35.335  43.321  0.00  0.00    +0.000 A 
ATOM     28  C   UNL     1      44.368  35.592  43.318  0.00  0.00    +0.000 A 
ATOM     29  C   UNL     1      43.648  35.292  42.193  0.00  0.00    +0.000 A 
ATOM     30  C   UNL     1      44.146  34.757  41.051  0.00  0.00    +0.000 A 
ATOM     31  N   UNL     1      45.474  34.508  41.054  0.00  0.00    +0.000 NA
ATOM     32  H   UNL     1      46.437  35.499  44.086  0.00  0.00    +0.000 HD
ATOM     33  H   UNL     1      43.972  36.014  44.218  0.00  0.00    +0.000 HD
ATOM     34  H   UNL     1      42.624  35.529  42.305  0.00  0.00    +0.000 HD
BRANCH  30  37
ATOM     35 CL   UNL     1      43.742  36.800  38.682  0.00  0.00    +0.000 Cl
ATOM     36  C   UNL     1      43.141  35.169  38.728  0.00  0.00    +0.000 A 
ATOM     37  C   UNL     1      43.413  34.427  39.839  0.00  0.00    +0.000 A 
ATOM     38  C   UNL     1      42.883  33.152  39.754  0.00  0.00    +0.000 A 
ATOM     39  H   UNL     1      42.984  32.420  40.514  0.00  0.00    +0.000 HD
ATOM     40  C   UNL     1      42.165  32.694  38.670  0.00  0.00    +0.000 A 
ATOM     41  H   UNL     1      41.760  31.696  38.622  0.00  0.00    +0.000 HD
ATOM     42  C   UNL     1      41.930  33.505  37.581  0.00  0.00    +0.000 A 
ATOM     43  C   UNL     1      42.445  34.777  37.638  0.00  0.00    +0.000 A 
ENDBRANCH  30  37
ENDBRANCH   6  26
TORSDOF 3
