
 OpenBabel03252507433D

 31 33  0  0  0  0  0  0  0  0999 V2000
   44.9110   33.4630   41.4360 C   0  0  0  0  0  0  0  0  0  0  0  0
   45.3030   33.7030   42.4640 H   0  0  0  0  0  0  0  0  0  0  0  0
   44.8240   32.3530   41.4240 H   0  0  0  0  0  0  0  0  0  0  0  0
   43.5810   34.1030   41.2500 C   0  0  0  0  0  0  0  0  0  0  0  0
   43.2410   35.2730   42.0240 C   0  0  0  0  0  0  0  0  0  0  0  0
   41.5350   35.6400   41.4110 S   0  0  0  0  0  0  0  0  0  0  0  0
   41.6060   34.1660   40.2430 C   0  0  0  0  0  0  0  0  0  0  0  0
   42.6290   33.7240   40.4300 N   0  0  0  0  0  0  0  0  0  0  0  0
   43.8600   35.7550   42.7490 H   0  0  0  0  0  0  0  0  0  0  0  0
   41.2170   35.8570   37.7060 Cl  0  0  0  0  0  0  0  0  0  0  0  0
   40.1350   34.6140   38.2490 C   0  0  0  0  0  0  0  0  0  0  0  0
   40.3820   33.9140   39.3820 C   0  0  0  0  0  0  0  0  0  0  0  0
   39.6060   32.9250   39.8970 C   0  0  0  0  0  0  0  0  0  0  0  0
   39.8170   32.3750   40.8050 H   0  0  0  0  0  0  0  0  0  0  0  0
   38.4590   32.6000   39.2050 C   0  0  0  0  0  0  0  0  0  0  0  0
   37.7620   31.8350   39.5080 H   0  0  0  0  0  0  0  0  0  0  0  0
   38.1610   33.2890   38.0360 C   0  0  0  0  0  3  0  0  0  0  0  0
   38.9780   34.3030   37.5270 C   0  0  0  0  0  3  0  0  0  0  0  0
   45.9520   33.9320   40.4670 C   0  0  0  0  0  0  0  0  0  0  0  0
   45.9340   33.2980   39.5890 H   0  0  0  0  0  0  0  0  0  0  0  0
   45.6060   34.9460   40.1040 H   0  0  0  0  0  0  0  0  0  0  0  0
   47.3010   34.0540   41.0520 C   0  0  0  0  0  0  0  0  0  0  0  0
   48.2070   33.0080   40.7910 C   0  0  0  0  0  0  0  0  0  0  0  0
   49.4810   33.0820   41.3200 C   0  0  0  0  0  0  0  0  0  0  0  0
   49.8160   34.1670   42.0800 N   0  0  0  0  0  0  0  0  0  0  0  0
   48.9180   35.1510   42.3070 C   0  0  0  0  0  0  0  0  0  0  0  0
   47.7000   35.0740   41.7980 N   0  0  0  0  0  0  0  0  0  0  0  0
   50.1490   32.2570   41.0970 H   0  0  0  0  0  0  0  0  0  0  0  0
   49.2900   35.9640   42.9220 H   0  0  0  0  0  0  0  0  0  0  0  0
   47.6970   31.6050   39.7810 S   0  0  0  0  0  0  0  0  0  0  0  0
   47.1580   30.6010   40.6140 H   0  0  0  0  0  0  0  0  0  0  0  0
  1  2  1  0  0  0  0
  3  1  1  0  0  0  0
  4  1  1  0  0  0  0
  4  5  2  0  0  0  0
  5  9  1  0  0  0  0
  6  5  1  0  0  0  0
  7  8  2  0  0  0  0
  7  6  1  0  0  0  0
  8  4  1  0  0  0  0
 10 11  1  0  0  0  0
 11 12  1  0  0  0  0
 12 13  2  0  0  0  0
 12  7  1  0  0  0  0
 13 14  1  0  0  0  0
 15 16  1  0  0  0  0
 15 13  1  0  0  0  0
 17 15  2  0  0  0  0
 18 17  1  0  0  0  0
 18 11  2  0  0  0  0
 19 22  1  0  0  0  0
 19  1  1  0  0  0  0
 20 19  1  0  0  0  0
 21 19  1  0  0  0  0
 22 27  1  0  0  0  0
 23 22  2  0  0  0  0
 23 24  1  0  0  0  0
 24 25  2  0  0  0  0
 25 26  1  0  0  0  0
 26 29  1  0  0  0  0
 27 26  2  0  0  0  0
 28 24  1  0  0  0  0
 30 31  1  0  0  0  0
 30 23  1  0  0  0  0
M  END
>  <minimizedAffinity>
-5.28662634

>  <minimizedRMSD>
1.98759806

$$$$
