
 OpenBabel03252506183D

 23 24  0  0  0  0  0  0  0  0999 V2000
   44.9200   35.8240   43.4310 C   0  0  0  0  0  0  0  0  0  0  0  0
   44.4460   35.8850   42.1070 C   0  0  0  0  0  0  0  0  0  0  0  0
   44.4820   34.6960   41.3600 C   0  0  0  0  0  0  0  0  0  0  0  0
   44.9610   33.5710   41.9350 N   0  0  0  0  0  0  0  0  0  0  0  0
   45.4080   33.5590   43.2180 C   0  0  0  0  0  0  0  0  0  0  0  0
   45.3860   34.6840   43.9610 N   0  0  0  0  0  0  0  0  0  0  0  0
   44.0740   36.8120   41.6960 H   0  0  0  0  0  0  0  0  0  0  0  0
   44.1210   34.7300   40.3420 H   0  0  0  0  0  0  0  0  0  0  0  0
   43.6160   31.1680   42.7160 Cl  0  0  0  0  0  0  0  0  0  0  0  0
   45.1310   31.1470   43.5600 C   0  0  0  0  0  0  0  0  0  0  0  0
   45.9090   32.2910   43.7550 C   0  0  0  0  0  0  0  0  0  0  0  0
   47.1100   32.3060   44.4190 C   0  0  0  0  0  0  0  0  0  0  0  0
   47.6820   33.2130   44.5500 H   0  0  0  0  0  0  0  0  0  0  0  0
   47.5470   31.0930   44.9100 C   0  0  0  0  0  0  0  0  0  0  0  0
   48.4960   31.0500   45.4450 H   0  0  0  0  0  0  0  0  0  0  0  0
   46.8650   29.9010   44.7770 C   0  0  0  0  0  3  0  0  0  0  0  0
   45.6610   29.9850   44.0930 C   0  0  0  0  0  3  0  0  0  0  0  0
   44.8890   37.0640   44.2320 C   0  0  0  0  0  3  0  0  0  0  0  0
   45.3520   38.1640   43.6800 C   0  0  0  0  0  3  0  0  0  0  0  0
   45.3430   39.4430   44.4470 C   0  0  0  0  0  0  0  0  0  0  0  0
   45.8770   39.2320   45.4080 H   0  0  0  0  0  0  0  0  0  0  0  0
   45.9080   40.2280   43.9270 H   0  0  0  0  0  0  0  0  0  0  0  0
   44.2920   39.7570   44.6760 H   0  0  0  0  0  0  0  0  0  0  0  0
  1  6  1  0  0  0  0
  1 18  1  0  0  0  0
  2  1  2  0  0  0  0
  3  4  2  0  0  0  0
  3  2  1  0  0  0  0
  4  5  1  0  0  0  0
  5 11  1  0  0  0  0
  5  6  2  0  0  0  0
  7  2  1  0  0  0  0
  8  3  1  0  0  0  0
  9 10  1  0  0  0  0
 10 11  2  0  0  0  0
 10 17  1  0  0  0  0
 11 12  1  0  0  0  0
 12 13  1  0  0  0  0
 12 14  2  0  0  0  0
 14 15  1  0  0  0  0
 16 14  1  0  0  0  0
 17 16  2  0  0  0  0
 19 18  2  0  0  0  0
 19 20  1  0  0  0  0
 20 23  1  0  0  0  0
 20 21  1  0  0  0  0
 22 20  1  0  0  0  0
M  END
>  <minimizedAffinity>
-3.12065148

>  <minimizedRMSD>
0.770108104

$$$$
