REMARK  Name = 
REMARK  2 active torsions:
REMARK  status: ('A' for Active; 'I' for Inactive)
REMARK    1  A    between atoms: C_3  and  C_9
REMARK    2  A    between atoms: C_13  and  C_22
REMARK                            x       y       z     vdW  Elec       q    Type
REMARK                         _______ _______ _______ _____ _____    ______ ____
ROOT
ATOM      1 BR   UNL     1      44.541  33.094  41.301  0.00  0.00    +0.000 Br
ATOM      2  C   UNL     1      46.227  33.994  41.109  0.00  0.00    +0.000 A 
ATOM      3  C   UNL     1      46.794  34.746  42.111  0.00  0.00    +0.000 A 
ATOM      4  C   UNL     1      48.005  35.345  41.861  0.00  0.00    +0.000 A 
ATOM      5  C   UNL     1      48.665  35.219  40.653  0.00  0.00    +0.000 A 
ATOM      6  C   UNL     1      48.100  34.461  39.635  0.00  0.00    +0.000 A 
ATOM      7  C   UNL     1      46.889  33.866  39.895  0.00  0.00    +0.000 A 
ATOM      8  H   UNL     1      48.431  35.934  42.669  0.00  0.00    +0.000 HD
ATOM      9  H   UNL     1      49.615  35.733  40.562  0.00  0.00    +0.000 HD
ATOM     10  H   UNL     1      48.623  34.367  38.691  0.00  0.00    +0.000 HD
ENDROOT
BRANCH   3  13
ATOM     11  C   UNL     1      44.461  35.950  44.837  0.00  0.00    +0.000 A 
ATOM     12  C   UNL     1      45.156  35.876  43.621  0.00  0.00    +0.000 A 
ATOM     13  C   UNL     1      46.054  34.848  43.372  0.00  0.00    +0.000 A 
ATOM     14  N   UNL     1      46.222  33.923  44.362  0.00  0.00    +0.000 NA
ATOM     15  C   UNL     1      45.539  34.018  45.525  0.00  0.00    +0.000 A 
ATOM     16  N   UNL     1      44.671  35.017  45.759  0.00  0.00    +0.000 NA
ATOM     17  H   UNL     1      43.801  36.812  44.868  0.00  0.00    +0.000 HD
ATOM     18  H   UNL     1      45.053  36.587  42.812  0.00  0.00    +0.000 HD
ATOM     19  H   UNL     1      45.658  33.294  46.325  0.00  0.00    +0.000 HD
ENDBRANCH   3  13
BRANCH   7  22
ATOM     20 CL   UNL     1      48.299  34.512  37.400  0.00  0.00    +0.000 Cl
ATOM     21  C   UNL     1      46.985  33.355  37.573  0.00  0.00    +0.000 A 
ATOM     22  C   UNL     1      46.344  33.082  38.787  0.00  0.00    +0.000 A 
ATOM     23  C   UNL     1      45.320  32.159  38.836  0.00  0.00    +0.000 A 
ATOM     24  H   UNL     1      44.887  32.014  39.810  0.00  0.00    +0.000 HD
ATOM     25  C   UNL     1      44.952  31.524  37.682  0.00  0.00    +0.000 A 
ATOM     26  H   UNL     1      44.140  30.798  37.745  0.00  0.00    +0.000 HD
ATOM     27  C   UNL     1      45.565  31.771  36.470  0.00  0.00    +0.000 A 
ATOM     28  C   UNL     1      46.603  32.702  36.396  0.00  0.00    +0.000 A 
ENDBRANCH   7  22
TORSDOF 2
