
 OpenBabel03252506193D

 23 24  0  0  0  0  0  0  0  0999 V2000
   37.2110   27.1490   41.4810 C   0  0  0  0  0  0  0  0  0  0  0  0
   37.1160   26.9700   42.8740 C   0  0  0  0  0  0  0  0  0  0  0  0
   37.3240   28.1020   43.6800 C   0  0  0  0  0  0  0  0  0  0  0  0
   37.5990   29.2860   43.0920 N   0  0  0  0  0  0  0  0  0  0  0  0
   37.6800   29.4130   41.7420 C   0  0  0  0  0  0  0  0  0  0  0  0
   37.4860   28.3450   40.9420 N   0  0  0  0  0  0  0  0  0  0  0  0
   36.8940   25.9990   43.2920 H   0  0  0  0  0  0  0  0  0  0  0  0
   37.2550   27.9770   44.7510 H   0  0  0  0  0  0  0  0  0  0  0  0
   40.4780   30.4200   42.3280 Cl  0  0  0  0  0  0  0  0  0  0  0  0
   39.2580   31.2650   41.4300 C   0  0  0  0  0  0  0  0  0  0  0  0
   37.9830   30.7390   41.1970 C   0  0  0  0  0  0  0  0  0  0  0  0
   36.9980   31.3830   40.4910 C   0  0  0  0  0  0  0  0  0  0  0  0
   36.0250   30.9420   40.3330 H   0  0  0  0  0  0  0  0  0  0  0  0
   37.3230   32.6290   39.9940 C   0  0  0  0  0  0  0  0  0  0  0  0
   36.5740   33.1820   39.4260 H   0  0  0  0  0  0  0  0  0  0  0  0
   38.5460   33.2460   40.1620 C   0  0  0  0  0  3  0  0  0  0  0  0
   39.4770   32.5190   40.8880 C   0  0  0  0  0  3  0  0  0  0  0  0
   36.9950   25.9710   40.6190 C   0  0  0  0  0  3  0  0  0  0  0  0
   36.9510   24.7880   41.1930 C   0  0  0  0  0  3  0  0  0  0  0  0
   36.7360   23.5660   40.3650 C   0  0  0  0  0  0  0  0  0  0  0  0
   37.5230   23.5870   39.5700 H   0  0  0  0  0  0  0  0  0  0  0  0
   36.8900   22.6510   40.9510 H   0  0  0  0  0  0  0  0  0  0  0  0
   35.7260   23.5940   39.8780 H   0  0  0  0  0  0  0  0  0  0  0  0
  1  2  1  0  0  0  0
  2  7  1  0  0  0  0
  2  3  2  0  0  0  0
  3  8  1  0  0  0  0
  4  3  1  0  0  0  0
  5  4  2  0  0  0  0
  6  1  2  0  0  0  0
  6  5  1  0  0  0  0
 10  9  1  0  0  0  0
 11 10  1  0  0  0  0
 11  5  1  0  0  0  0
 12 11  2  0  0  0  0
 13 12  1  0  0  0  0
 14 16  2  0  0  0  0
 14 12  1  0  0  0  0
 15 14  1  0  0  0  0
 16 17  1  0  0  0  0
 17 10  2  0  0  0  0
 18 19  2  0  0  0  0
 18  1  1  0  0  0  0
 20 22  1  0  0  0  0
 20 19  1  0  0  0  0
 21 20  1  0  0  0  0
 23 20  1  0  0  0  0
M  END
>  <minimizedAffinity>
-4.88264179

$$$$

 OpenBabel03252506193D

 23 24  0  0  0  0  0  0  0  0999 V2000
   39.6930   32.3610   40.8030 C   0  0  0  0  0  0  0  0  0  0  0  0
   39.4100   33.7290   40.6270 C   0  0  0  0  0  0  0  0  0  0  0  0
   38.1600   34.0560   40.0750 C   0  0  0  0  0  0  0  0  0  0  0  0
   37.3050   33.0630   39.7460 N   0  0  0  0  0  0  0  0  0  0  0  0
   37.6210   31.7560   39.9350 C   0  0  0  0  0  0  0  0  0  0  0  0
   38.8130   31.4090   40.4630 N   0  0  0  0  0  0  0  0  0  0  0  0
   40.1310   34.4820   40.9070 H   0  0  0  0  0  0  0  0  0  0  0  0
   37.9310   35.1030   39.9340 H   0  0  0  0  0  0  0  0  0  0  0  0
   37.5580   31.1040   36.9770 Cl  0  0  0  0  0  0  0  0  0  0  0  0
   36.5450   30.4020   38.1960 C   0  0  0  0  0  0  0  0  0  0  0  0
   36.6290   30.7500   39.5480 C   0  0  0  0  0  0  0  0  0  0  0  0
   35.8420   30.2120   40.5360 C   0  0  0  0  0  0  0  0  0  0  0  0
   35.9370   30.5080   41.5690 H   0  0  0  0  0  0  0  0  0  0  0  0
   34.9200   29.2680   40.1300 C   0  0  0  0  0  0  0  0  0  0  0  0
   34.2700   28.8100   40.8770 H   0  0  0  0  0  0  0  0  0  0  0  0
   34.7480   28.8480   38.8270 C   0  0  0  0  0  3  0  0  0  0  0  0
   35.5880   29.4470   37.9010 C   0  0  0  0  0  3  0  0  0  0  0  0
   41.0010   31.9980   41.3820 C   0  0  0  0  0  3  0  0  0  0  0  0
   41.0080   31.3350   42.5190 C   0  0  0  0  0  3  0  0  0  0  0  0
   42.3040   30.9450   43.1450 C   0  0  0  0  0  0  0  0  0  0  0  0
   42.9000   31.8870   43.2380 H   0  0  0  0  0  0  0  0  0  0  0  0
   42.1580   30.5510   44.1600 H   0  0  0  0  0  0  0  0  0  0  0  0
   42.8590   30.2270   42.4870 H   0  0  0  0  0  0  0  0  0  0  0  0
  1 18  1  0  0  0  0
  2  1  1  0  0  0  0
  2  7  1  0  0  0  0
  3  2  2  0  0  0  0
  4  5  2  0  0  0  0
  4  3  1  0  0  0  0
  5  6  1  0  0  0  0
  6  1  2  0  0  0  0
  8  3  1  0  0  0  0
  9 10  1  0  0  0  0
 10 11  1  0  0  0  0
 11  5  1  0  0  0  0
 11 12  2  0  0  0  0
 12 13  1  0  0  0  0
 14 12  1  0  0  0  0
 14 15  1  0  0  0  0
 16 14  2  0  0  0  0
 17 10  2  0  0  0  0
 17 16  1  0  0  0  0
 18 19  2  0  0  0  0
 19 20  1  0  0  0  0
 20 21  1  0  0  0  0
 20 22  1  0  0  0  0
 23 20  1  0  0  0  0
M  END
>  <minimizedAffinity>
-4.66924191

$$$$

 OpenBabel03252506193D

 23 24  0  0  0  0  0  0  0  0999 V2000
   37.5020   30.9230   38.1100 C   0  0  0  0  0  0  0  0  0  0  0  0
   37.4100   32.2970   38.4010 C   0  0  0  0  0  0  0  0  0  0  0  0
   37.4130   32.6650   39.7570 C   0  0  0  0  0  0  0  0  0  0  0  0
   37.5040   31.7020   40.7000 N   0  0  0  0  0  0  0  0  0  0  0  0
   37.5920   30.3870   40.3720 C   0  0  0  0  0  0  0  0  0  0  0  0
   37.5910   30.0020   39.0800 N   0  0  0  0  0  0  0  0  0  0  0  0
   37.3390   33.0260   37.6070 H   0  0  0  0  0  0  0  0  0  0  0  0
   37.3430   33.7170   39.9930 H   0  0  0  0  0  0  0  0  0  0  0  0
   35.0800   28.7590   40.8470 Cl  0  0  0  0  0  0  0  0  0  0  0  0
   36.5610   28.6300   41.7390 C   0  0  0  0  0  0  0  0  0  0  0  0
   37.6860   29.4150   41.4650 C   0  0  0  0  0  0  0  0  0  0  0  0
   38.8710   29.3350   42.1520 C   0  0  0  0  0  0  0  0  0  0  0  0
   39.7170   29.9610   41.9100 H   0  0  0  0  0  0  0  0  0  0  0  0
   38.9190   28.4080   43.1740 C   0  0  0  0  0  0  0  0  0  0  0  0
   39.8390   28.3060   43.7510 H   0  0  0  0  0  0  0  0  0  0  0  0
   37.8740   27.5820   43.5330 C   0  0  0  0  0  3  0  0  0  0  0  0
   36.7190   27.7350   42.7820 C   0  0  0  0  0  3  0  0  0  0  0  0
   37.5010   30.5180   36.6910 C   0  0  0  0  0  3  0  0  0  0  0  0
   36.4880   29.7980   36.2580 C   0  0  0  0  0  3  0  0  0  0  0  0
   36.4400   29.3630   34.8320 C   0  0  0  0  0  0  0  0  0  0  0  0
   37.4080   28.8360   34.6350 H   0  0  0  0  0  0  0  0  0  0  0  0
   35.6340   28.6380   34.6600 H   0  0  0  0  0  0  0  0  0  0  0  0
   36.3650   30.2510   34.1520 H   0  0  0  0  0  0  0  0  0  0  0  0
  1  2  2  0  0  0  0
  1  6  1  0  0  0  0
  2  3  1  0  0  0  0
  3  8  1  0  0  0  0
  3  4  2  0  0  0  0
  5  4  1  0  0  0  0
  5 11  1  0  0  0  0
  6  5  2  0  0  0  0
  7  2  1  0  0  0  0
  9 10  1  0  0  0  0
 10 17  1  0  0  0  0
 11 10  2  0  0  0  0
 11 12  1  0  0  0  0
 12 14  2  0  0  0  0
 13 12  1  0  0  0  0
 14 16  1  0  0  0  0
 14 15  1  0  0  0  0
 17 16  2  0  0  0  0
 18  1  1  0  0  0  0
 19 18  2  0  0  0  0
 20 19  1  0  0  0  0
 21 20  1  0  0  0  0
 22 20  1  0  0  0  0
 23 20  1  0  0  0  0
M  END
>  <minimizedAffinity>
-4.62439394

$$$$

 OpenBabel03252506193D

 23 24  0  0  0  0  0  0  0  0999 V2000
   38.3860   30.5410   40.0980 C   0  0  0  0  0  0  0  0  0  0  0  0
   37.3330   31.3890   40.4900 C   0  0  0  0  0  0  0  0  0  0  0  0
   36.1940   30.7800   41.0410 C   0  0  0  0  0  0  0  0  0  0  0  0
   36.1620   29.4360   41.1680 N   0  0  0  0  0  0  0  0  0  0  0  0
   37.2030   28.6560   40.7770 C   0  0  0  0  0  0  0  0  0  0  0  0
   38.3110   29.2100   40.2440 N   0  0  0  0  0  0  0  0  0  0  0  0
   37.4110   32.4590   40.3650 H   0  0  0  0  0  0  0  0  0  0  0  0
   35.3780   31.4210   41.3450 H   0  0  0  0  0  0  0  0  0  0  0  0
   37.8710   27.6520   43.5570 Cl  0  0  0  0  0  0  0  0  0  0  0  0
   37.3710   26.6760   42.2140 C   0  0  0  0  0  0  0  0  0  0  0  0
   37.0770   27.2070   40.9540 C   0  0  0  0  0  0  0  0  0  0  0  0
   36.6780   26.4610   39.8730 C   0  0  0  0  0  0  0  0  0  0  0  0
   36.4610   26.9090   38.9160 H   0  0  0  0  0  0  0  0  0  0  0  0
   36.5720   25.1010   40.0820 C   0  0  0  0  0  0  0  0  0  0  0  0
   36.2590   24.4630   39.2540 H   0  0  0  0  0  0  0  0  0  0  0  0
   36.8360   24.4670   41.2780 C   0  0  0  0  0  3  0  0  0  0  0  0
   37.2310   25.3020   42.3120 C   0  0  0  0  0  3  0  0  0  0  0  0
   39.5920   31.1630   39.5170 C   0  0  0  0  0  3  0  0  0  0  0  0
   39.5020   31.6630   38.3030 C   0  0  0  0  0  3  0  0  0  0  0  0
   40.6930   32.3020   37.6720 C   0  0  0  0  0  0  0  0  0  0  0  0
   41.5160   31.5450   37.7240 H   0  0  0  0  0  0  0  0  0  0  0  0
   40.5160   32.5180   36.6100 H   0  0  0  0  0  0  0  0  0  0  0  0
   41.0010   33.2140   38.2460 H   0  0  0  0  0  0  0  0  0  0  0  0
  1  6  2  0  0  0  0
  1  2  1  0  0  0  0
  2  3  2  0  0  0  0
  3  4  1  0  0  0  0
  3  8  1  0  0  0  0
  5 11  1  0  0  0  0
  5  4  2  0  0  0  0
  6  5  1  0  0  0  0
  7  2  1  0  0  0  0
 10 17  1  0  0  0  0
 10  9  1  0  0  0  0
 11 10  2  0  0  0  0
 12 14  2  0  0  0  0
 12 11  1  0  0  0  0
 13 12  1  0  0  0  0
 14 16  1  0  0  0  0
 15 14  1  0  0  0  0
 16 17  2  0  0  0  0
 18  1  1  0  0  0  0
 19 18  2  0  0  0  0
 20 21  1  0  0  0  0
 20 23  1  0  0  0  0
 20 19  1  0  0  0  0
 22 20  1  0  0  0  0
M  END
>  <minimizedAffinity>
-4.61420727

$$$$

 OpenBabel03252506193D

 23 24  0  0  0  0  0  0  0  0999 V2000
   37.6830   26.9600   41.5910 C   0  0  0  0  0  0  0  0  0  0  0  0
   37.4080   26.8710   42.9690 C   0  0  0  0  0  0  0  0  0  0  0  0
   37.3120   28.0790   43.6800 C   0  0  0  0  0  0  0  0  0  0  0  0
   37.4840   29.2460   43.0220 N   0  0  0  0  0  0  0  0  0  0  0  0
   37.7470   29.2840   41.6900 C   0  0  0  0  0  0  0  0  0  0  0  0
   37.8460   28.1420   40.9790 N   0  0  0  0  0  0  0  0  0  0  0  0
   37.2790   25.9100   43.4450 H   0  0  0  0  0  0  0  0  0  0  0  0
   37.1010   28.0240   44.7390 H   0  0  0  0  0  0  0  0  0  0  0  0
   35.4420   30.1640   39.9310 Cl  0  0  0  0  0  0  0  0  0  0  0  0
   36.8920   31.0650   40.2370 C   0  0  0  0  0  0  0  0  0  0  0  0
   37.9190   30.5970   41.0630 C   0  0  0  0  0  0  0  0  0  0  0  0
   39.0770   31.2870   41.3250 C   0  0  0  0  0  0  0  0  0  0  0  0
   39.8470   30.8900   41.9690 H   0  0  0  0  0  0  0  0  0  0  0  0
   39.1990   32.5190   40.7160 C   0  0  0  0  0  0  0  0  0  0  0  0
   40.1010   33.1060   40.8920 H   0  0  0  0  0  0  0  0  0  0  0  0
   38.2540   33.0800   39.8830 C   0  0  0  0  0  3  0  0  0  0  0  0
   37.1190   32.3100   39.6790 C   0  0  0  0  0  3  0  0  0  0  0  0
   37.7870   25.7010   40.8270 C   0  0  0  0  0  3  0  0  0  0  0  0
   37.3780   24.5940   41.4070 C   0  0  0  0  0  3  0  0  0  0  0  0
   37.4620   23.2960   40.6780 C   0  0  0  0  0  0  0  0  0  0  0  0
   38.5260   23.1940   40.3460 H   0  0  0  0  0  0  0  0  0  0  0  0
   37.2450   22.4480   41.3400 H   0  0  0  0  0  0  0  0  0  0  0  0
   36.7990   23.3090   39.7740 H   0  0  0  0  0  0  0  0  0  0  0  0
  1  2  1  0  0  0  0
  2  7  1  0  0  0  0
  2  3  2  0  0  0  0
  3  8  1  0  0  0  0
  4  3  1  0  0  0  0
  5  4  2  0  0  0  0
  6  1  2  0  0  0  0
  6  5  1  0  0  0  0
  9 10  1  0  0  0  0
 10 11  1  0  0  0  0
 11 12  2  0  0  0  0
 11  5  1  0  0  0  0
 12 13  1  0  0  0  0
 14 15  1  0  0  0  0
 14 12  1  0  0  0  0
 16 14  2  0  0  0  0
 17 16  1  0  0  0  0
 17 10  2  0  0  0  0
 18 19  2  0  0  0  0
 18  1  1  0  0  0  0
 20 22  1  0  0  0  0
 20 19  1  0  0  0  0
 21 20  1  0  0  0  0
 23 20  1  0  0  0  0
M  END
>  <minimizedAffinity>
-4.61028624

$$$$

 OpenBabel03252506193D

 23 24  0  0  0  0  0  0  0  0999 V2000
   36.7730   28.0470   41.4000 C   0  0  0  0  0  0  0  0  0  0  0  0
   37.0350   29.2850   42.0180 C   0  0  0  0  0  0  0  0  0  0  0  0
   36.6080   30.4400   41.3410 C   0  0  0  0  0  0  0  0  0  0  0  0
   35.9790   30.3120   40.1530 N   0  0  0  0  0  0  0  0  0  0  0  0
   35.7460   29.0950   39.5940 C   0  0  0  0  0  0  0  0  0  0  0  0
   36.1440   27.9680   40.2190 N   0  0  0  0  0  0  0  0  0  0  0  0
   37.5430   29.3300   42.9700 H   0  0  0  0  0  0  0  0  0  0  0  0
   36.8040   31.3970   41.8050 H   0  0  0  0  0  0  0  0  0  0  0  0
   37.5550   29.3580   37.1780 Cl  0  0  0  0  0  0  0  0  0  0  0  0
   35.8320   29.1730   37.1440 C   0  0  0  0  0  0  0  0  0  0  0  0
   35.0560   29.0570   38.3020 C   0  0  0  0  0  0  0  0  0  0  0  0
   33.6910   28.9090   38.3080 C   0  0  0  0  0  0  0  0  0  0  0  0
   33.1280   28.8230   39.2250 H   0  0  0  0  0  0  0  0  0  0  0  0
   33.0800   28.8780   37.0720 C   0  0  0  0  0  0  0  0  0  0  0  0
   31.9960   28.7620   37.0230 H   0  0  0  0  0  0  0  0  0  0  0  0
   33.7410   28.9840   35.8660 C   0  0  0  0  0  3  0  0  0  0  0  0
   35.1170   29.1290   35.9610 C   0  0  0  0  0  3  0  0  0  0  0  0
   37.2140   26.8230   42.0970 C   0  0  0  0  0  3  0  0  0  0  0  0
   37.0540   25.6730   41.4800 C   0  0  0  0  0  3  0  0  0  0  0  0
   37.4820   24.4070   42.1420 C   0  0  0  0  0  0  0  0  0  0  0  0
   36.9740   24.3900   43.1390 H   0  0  0  0  0  0  0  0  0  0  0  0
   37.1360   23.5250   41.5850 H   0  0  0  0  0  0  0  0  0  0  0  0
   38.5920   24.4010   42.2980 H   0  0  0  0  0  0  0  0  0  0  0  0
  1  2  1  0  0  0  0
  1 18  1  0  0  0  0
  2  7  1  0  0  0  0
  3  8  1  0  0  0  0
  3  2  2  0  0  0  0
  4  3  1  0  0  0  0
  5  4  2  0  0  0  0
  5  6  1  0  0  0  0
  6  1  2  0  0  0  0
 10  9  1  0  0  0  0
 10 11  1  0  0  0  0
 11 12  2  0  0  0  0
 11  5  1  0  0  0  0
 12 13  1  0  0  0  0
 14 12  1  0  0  0  0
 15 14  1  0  0  0  0
 16 17  1  0  0  0  0
 16 14  2  0  0  0  0
 17 10  2  0  0  0  0
 19 18  2  0  0  0  0
 19 20  1  0  0  0  0
 20 23  1  0  0  0  0
 20 21  1  0  0  0  0
 22 20  1  0  0  0  0
M  END
>  <minimizedAffinity>
-4.53786802

$$$$

 OpenBabel03252506193D

 23 24  0  0  0  0  0  0  0  0999 V2000
   36.5940   29.5170   39.3990 C   0  0  0  0  0  0  0  0  0  0  0  0
   36.3920   30.8640   39.7550 C   0  0  0  0  0  0  0  0  0  0  0  0
   37.0810   31.3360   40.8850 C   0  0  0  0  0  0  0  0  0  0  0  0
   37.8900   30.4940   41.5630 N   0  0  0  0  0  0  0  0  0  0  0  0
   38.0560   29.2010   41.1810 C   0  0  0  0  0  0  0  0  0  0  0  0
   37.4090   28.7170   40.1020 N   0  0  0  0  0  0  0  0  0  0  0  0
   35.7320   31.4940   39.1780 H   0  0  0  0  0  0  0  0  0  0  0  0
   36.9330   32.3690   41.1690 H   0  0  0  0  0  0  0  0  0  0  0  0
   36.6810   27.4920   43.2720 Cl  0  0  0  0  0  0  0  0  0  0  0  0
   38.3860   27.5490   42.9640 C   0  0  0  0  0  0  0  0  0  0  0  0
   38.9550   28.3630   41.9790 C   0  0  0  0  0  0  0  0  0  0  0  0
   40.3000   28.4280   41.7120 C   0  0  0  0  0  0  0  0  0  0  0  0
   40.7000   29.0710   40.9430 H   0  0  0  0  0  0  0  0  0  0  0  0
   41.1120   27.6240   42.4850 C   0  0  0  0  0  0  0  0  0  0  0  0
   42.1890   27.6400   42.3120 H   0  0  0  0  0  0  0  0  0  0  0  0
   40.6640   26.7840   43.4830 C   0  0  0  0  0  3  0  0  0  0  0  0
   39.2910   26.7850   43.6800 C   0  0  0  0  0  3  0  0  0  0  0  0
   35.8790   29.0030   38.2150 C   0  0  0  0  0  3  0  0  0  0  0  0
   34.5870   28.7830   38.3240 C   0  0  0  0  0  3  0  0  0  0  0  0
   33.8190   28.2630   37.1560 C   0  0  0  0  0  0  0  0  0  0  0  0
   34.3480   27.3330   36.8250 H   0  0  0  0  0  0  0  0  0  0  0  0
   32.7990   27.9730   37.4420 H   0  0  0  0  0  0  0  0  0  0  0  0
   33.8300   29.0050   36.3160 H   0  0  0  0  0  0  0  0  0  0  0  0
  1  2  2  0  0  0  0
  1  6  1  0  0  0  0
  2  3  1  0  0  0  0
  3  8  1  0  0  0  0
  3  4  2  0  0  0  0
  5  4  1  0  0  0  0
  5 11  1  0  0  0  0
  6  5  2  0  0  0  0
  7  2  1  0  0  0  0
 10  9  1  0  0  0  0
 10 17  1  0  0  0  0
 11 10  2  0  0  0  0
 12 11  1  0  0  0  0
 12 14  2  0  0  0  0
 13 12  1  0  0  0  0
 14 16  1  0  0  0  0
 15 14  1  0  0  0  0
 16 17  2  0  0  0  0
 18 19  2  0  0  0  0
 18  1  1  0  0  0  0
 20 22  1  0  0  0  0
 20 19  1  0  0  0  0
 21 20  1  0  0  0  0
 23 20  1  0  0  0  0
M  END
>  <minimizedAffinity>
-4.39506626

$$$$

 OpenBabel03252506193D

 23 24  0  0  0  0  0  0  0  0999 V2000
   37.3430   30.0300   39.1760 C   0  0  0  0  0  0  0  0  0  0  0  0
   36.4630   30.9440   39.7860 C   0  0  0  0  0  0  0  0  0  0  0  0
   36.3430   30.8800   41.1840 C   0  0  0  0  0  0  0  0  0  0  0  0
   37.0640   29.9630   41.8650 N   0  0  0  0  0  0  0  0  0  0  0  0
   37.9030   29.1010   41.2340 C   0  0  0  0  0  0  0  0  0  0  0  0
   38.0390   29.1370   39.8930 N   0  0  0  0  0  0  0  0  0  0  0  0
   35.9090   31.6570   39.1920 H   0  0  0  0  0  0  0  0  0  0  0  0
   35.6700   31.5770   41.6640 H   0  0  0  0  0  0  0  0  0  0  0  0
   40.4750   30.1690   42.4290 Cl  0  0  0  0  0  0  0  0  0  0  0  0
   39.8410   28.5680   42.6400 C   0  0  0  0  0  0  0  0  0  0  0  0
   38.6430   28.1410   42.0580 C   0  0  0  0  0  0  0  0  0  0  0  0
   38.1160   26.8820   42.2060 C   0  0  0  0  0  0  0  0  0  0  0  0
   37.1880   26.5910   41.7390 H   0  0  0  0  0  0  0  0  0  0  0  0
   38.8440   26.0090   42.9880 C   0  0  0  0  0  0  0  0  0  0  0  0
   38.4680   24.9960   43.1380 H   0  0  0  0  0  0  0  0  0  0  0  0
   40.0360   26.3190   43.6110 C   0  0  0  0  0  3  0  0  0  0  0  0
   40.4880   27.6130   43.4030 C   0  0  0  0  0  3  0  0  0  0  0  0
   37.4820   30.0830   37.7070 C   0  0  0  0  0  3  0  0  0  0  0  0
   36.4580   29.6950   36.9780 C   0  0  0  0  0  3  0  0  0  0  0  0
   36.5480   29.7290   35.4900 C   0  0  0  0  0  0  0  0  0  0  0  0
   37.4640   29.1440   35.2210 H   0  0  0  0  0  0  0  0  0  0  0  0
   35.6920   29.2240   35.0240 H   0  0  0  0  0  0  0  0  0  0  0  0
   36.6690   30.7820   35.1270 H   0  0  0  0  0  0  0  0  0  0  0  0
  1  2  2  0  0  0  0
  1  6  1  0  0  0  0
  2  3  1  0  0  0  0
  3  8  1  0  0  0  0
  3  4  2  0  0  0  0
  5  4  1  0  0  0  0
  5 11  1  0  0  0  0
  6  5  2  0  0  0  0
  7  2  1  0  0  0  0
  9 10  1  0  0  0  0
 10 17  1  0  0  0  0
 11 12  1  0  0  0  0
 11 10  2  0  0  0  0
 12 14  2  0  0  0  0
 13 12  1  0  0  0  0
 14 15  1  0  0  0  0
 14 16  1  0  0  0  0
 17 16  2  0  0  0  0
 18  1  1  0  0  0  0
 19 18  2  0  0  0  0
 20 19  1  0  0  0  0
 21 20  1  0  0  0  0
 22 20  1  0  0  0  0
 23 20  1  0  0  0  0
M  END
>  <minimizedAffinity>
-4.37380791

$$$$

 OpenBabel03252506193D

 23 24  0  0  0  0  0  0  0  0999 V2000
   38.0880   30.2960   39.8730 C   0  0  0  0  0  0  0  0  0  0  0  0
   36.9800   31.1040   40.1890 C   0  0  0  0  0  0  0  0  0  0  0  0
   35.8410   30.4570   40.6960 C   0  0  0  0  0  0  0  0  0  0  0  0
   35.8610   29.1160   40.8550 N   0  0  0  0  0  0  0  0  0  0  0  0
   36.9550   28.3750   40.5370 C   0  0  0  0  0  0  0  0  0  0  0  0
   38.0640   28.9660   40.0480 N   0  0  0  0  0  0  0  0  0  0  0  0
   37.0170   32.1730   40.0410 H   0  0  0  0  0  0  0  0  0  0  0  0
   34.9830   31.0670   40.9420 H   0  0  0  0  0  0  0  0  0  0  0  0
   36.1340   26.7810   38.0950 Cl  0  0  0  0  0  0  0  0  0  0  0  0
   36.5090   26.1300   39.6570 C   0  0  0  0  0  0  0  0  0  0  0  0
   36.8830   26.9260   40.7440 C   0  0  0  0  0  0  0  0  0  0  0  0
   37.1860   26.4410   41.9920 C   0  0  0  0  0  0  0  0  0  0  0  0
   37.4690   27.0900   42.8060 H   0  0  0  0  0  0  0  0  0  0  0  0
   37.1050   25.0720   42.1460 C   0  0  0  0  0  0  0  0  0  0  0  0
   37.3370   24.6360   43.1180 H   0  0  0  0  0  0  0  0  0  0  0  0
   36.7490   24.1890   41.1470 C   0  0  0  0  0  3  0  0  0  0  0  0
   36.4610   24.7720   39.9220 C   0  0  0  0  0  3  0  0  0  0  0  0
   39.2940   30.9580   39.3390 C   0  0  0  0  0  3  0  0  0  0  0  0
   39.2510   31.4150   38.1060 C   0  0  0  0  0  3  0  0  0  0  0  0
   40.4440   32.0910   37.5210 C   0  0  0  0  0  0  0  0  0  0  0  0
   41.2970   31.3780   37.6440 H   0  0  0  0  0  0  0  0  0  0  0  0
   40.3180   32.2660   36.4440 H   0  0  0  0  0  0  0  0  0  0  0  0
   40.6750   33.0350   38.0800 H   0  0  0  0  0  0  0  0  0  0  0  0
  1  6  2  0  0  0  0
  1  2  1  0  0  0  0
  2  3  2  0  0  0  0
  3  4  1  0  0  0  0
  3  8  1  0  0  0  0
  5 11  1  0  0  0  0
  5  4  2  0  0  0  0
  6  5  1  0  0  0  0
  7  2  1  0  0  0  0
  9 10  1  0  0  0  0
 10 17  2  0  0  0  0
 10 11  1  0  0  0  0
 11 12  2  0  0  0  0
 12 14  1  0  0  0  0
 12 13  1  0  0  0  0
 14 15  1  0  0  0  0
 16 14  2  0  0  0  0
 17 16  1  0  0  0  0
 18  1  1  0  0  0  0
 19 18  2  0  0  0  0
 20 21  1  0  0  0  0
 20 23  1  0  0  0  0
 20 19  1  0  0  0  0
 22 20  1  0  0  0  0
M  END
>  <minimizedAffinity>
-4.37227297

$$$$
