
 OpenBabel03242519163D

 42 45  0  0  1  0  0  0  0  0999 V2000
   48.3360   34.1020   40.8990 C   0  0  0  0  0  0  0  0  0  0  0  0
   47.7630   34.1070   39.6470 C   0  0  0  0  0  0  0  0  0  0  0  0
   48.1130   33.1990   38.6360 C   0  0  0  0  0  0  0  0  0  0  0  0
   49.0730   32.2930   38.9750 N   0  0  0  0  0  0  0  0  0  0  0  0
   49.6290   32.2910   40.1930 C   0  0  0  0  0  0  0  0  0  0  0  0
   49.2620   33.1790   41.1260 N   0  0  0  0  0  0  0  0  0  0  0  0
   46.9970   34.8790   39.4740 H   0  0  0  0  0  0  0  0  0  0  0  0
   47.6360   33.2460   37.6810 H   0  0  0  0  0  0  0  0  0  0  0  0
   50.6640   31.2840   40.5890 C   0  0  2  0  0  0  0  0  0  0  0  0
   51.2070   31.3280   41.9820 C   0  0  0  0  0  0  0  0  0  0  0  0
   52.0480   31.8010   40.7850 C   0  0  1  0  0  0  0  0  0  0  0  0
   50.5350   30.3110   40.0970 H   0  0  0  0  0  0  0  0  0  0  0  0
   50.8980   32.1460   42.6710 H   0  0  0  0  0  0  0  0  0  0  0  0
   51.5820   30.4000   42.4490 H   0  0  0  0  0  0  0  0  0  0  0  0
   52.2030   32.8960   40.6620 H   0  0  0  0  0  0  0  0  0  0  0  0
   52.3870   32.0510   37.8380 Cl  0  0  0  0  0  0  0  0  0  0  0  0
   53.3120   30.9940   38.9070 C   0  0  0  0  0  0  0  0  0  0  0  0
   53.1250   30.9020   40.2900 C   0  0  0  0  0  0  0  0  0  0  0  0
   53.9210   30.0320   41.0070 C   0  0  0  0  0  0  0  0  0  0  0  0
   53.7090   30.0250   42.0630 H   0  0  0  0  0  0  0  0  0  0  0  0
   54.8720   29.2810   40.3470 C   0  0  0  0  0  0  0  0  0  0  0  0
   55.4650   28.6140   40.9790 H   0  0  0  0  0  0  0  0  0  0  0  0
   55.0640   29.3650   38.9830 C   0  0  0  0  0  0  0  0  0  0  0  0
   54.2720   30.2340   38.2580 C   0  0  0  0  0  0  0  0  0  0  0  0
   47.9500   35.0400   41.9200 C   0  0  0  0  0  0  0  0  0  0  0  0
   48.5310   34.8940   42.8550 H   0  0  0  0  0  0  0  0  0  0  0  0
   48.1160   36.1190   41.6420 H   0  0  0  0  0  0  0  0  0  0  0  0
   46.5000   34.8800   42.2480 C   0  0  0  0  0  0  0  0  0  0  0  0
   45.9410   35.8270   42.1610 H   0  0  0  0  0  0  0  0  0  0  0  0
   46.0150   34.1750   41.5400 H   0  0  0  0  0  0  0  0  0  0  0  0
   44.5780   36.3870   43.9610 Cl  0  0  0  0  0  0  0  0  0  0  0  0
   45.3950   34.9570   44.5030 C   0  0  0  0  0  0  0  0  0  0  0  0
   46.2610   34.3440   43.6220 C   0  0  0  0  0  0  0  0  0  0  0  0
   46.9160   33.2000   44.0520 C   0  0  0  0  0  0  0  0  0  0  0  0
   46.7040   32.6960   45.3180 C   0  0  0  0  0  0  0  0  0  0  0  0
   45.8250   33.3240   46.2030 C   0  0  0  0  0  0  0  0  0  0  0  0
   45.1760   34.4660   45.7640 C   0  0  0  0  0  0  0  0  0  0  0  0
   47.6060   32.6820   43.4000 H   0  0  0  0  0  0  0  0  0  0  0  0
   47.2360   31.7930   45.6260 H   0  0  0  0  0  0  0  0  0  0  0  0
   45.6490   32.9410   47.1990 H   0  0  0  0  0  0  0  0  0  0  0  0
   44.2760   35.1670   46.5750 O   0  0  0  0  0  0  0  0  0  0  0  0
   44.6070   35.6440   47.4030 H   0  0  0  0  0  0  0  0  0  0  0  0
  1  6  1  0  0  0  0
  1 25  1  0  0  0  0
  2  1  2  0  0  0  0
  3  4  2  0  0  0  0
  3  2  1  0  0  0  0
  4  5  1  0  0  0  0
  5  9  1  0  0  0  0
  5  6  2  0  0  0  0
  7  2  1  0  0  0  0
  8  3  1  0  0  0  0
  9 12  1  6  0  0  0
  9 11  1  0  0  0  0
  9 10  1  0  0  0  0
 10 14  1  0  0  0  0
 10 13  1  0  0  0  0
 11 15  1  6  0  0  0
 11 10  1  0  0  0  0
 16 17  1  0  0  0  0
 17 18  1  0  0  0  0
 18 11  1  0  0  0  0
 18 19  2  0  0  0  0
 19 20  1  0  0  0  0
 21 22  1  0  0  0  0
 21 19  1  0  0  0  0
 23 21  2  0  0  0  0
 24 17  2  0  0  0  0
 24 23  1  0  0  0  0
 25 28  1  0  0  0  0
 25 26  1  0  0  0  0
 27 25  1  0  0  0  0
 28 33  1  0  0  0  0
 29 28  1  0  0  0  0
 30 28  1  0  0  0  0
 31 32  1  0  0  0  0
 32 37  1  0  0  0  0
 33 34  1  0  0  0  0
 33 32  2  0  0  0  0
 34 35  2  0  0  0  0
 35 39  1  0  0  0  0
 35 36  1  0  0  0  0
 36 40  1  0  0  0  0
 37 36  2  0  0  0  0
 37 41  1  0  0  0  0
 38 34  1  0  0  0  0
 41 42  1  0  0  0  0
M  END
>  <minimizedAffinity>
-6.24427891

>  <minimizedRMSD>
0.344616294

$$$$
