
 OpenBabel03252506183D

 23 24  0  0  0  0  0  0  0  0999 V2000
   44.8270   35.5150   43.7010 C   0  0  0  0  0  0  0  0  0  0  0  0
   43.9960   35.2570   42.5930 C   0  0  0  0  0  0  0  0  0  0  0  0
   43.9750   33.9410   42.1030 C   0  0  0  0  0  0  0  0  0  0  0  0
   44.7370   33.0020   42.7050 N   0  0  0  0  0  0  0  0  0  0  0  0
   45.5230   33.2960   43.7730 C   0  0  0  0  0  0  0  0  0  0  0  0
   45.5660   34.5500   44.2670 N   0  0  0  0  0  0  0  0  0  0  0  0
   43.4080   36.0470   42.1500 H   0  0  0  0  0  0  0  0  0  0  0  0
   43.3420   33.7310   41.2530 H   0  0  0  0  0  0  0  0  0  0  0  0
   47.8540   32.3600   42.0760 Cl  0  0  0  0  0  0  0  0  0  0  0  0
   47.4060   31.7300   43.6290 C   0  0  0  0  0  0  0  0  0  0  0  0
   46.3140   32.2100   44.3590 C   0  0  0  0  0  0  0  0  0  0  0  0
   45.9360   31.7330   45.5890 C   0  0  0  0  0  0  0  0  0  0  0  0
   45.0860   32.1320   46.1220 H   0  0  0  0  0  0  0  0  0  0  0  0
   46.7060   30.7120   46.1070 C   0  0  0  0  0  0  0  0  0  0  0  0
   46.4470   30.2970   47.0810 H   0  0  0  0  0  0  0  0  0  0  0  0
   47.8030   30.1590   45.4770 C   0  0  0  0  0  3  0  0  0  0  0  0
   48.1090   30.7070   44.2400 C   0  0  0  0  0  3  0  0  0  0  0  0
   44.8620   36.8920   44.2300 C   0  0  0  0  0  3  0  0  0  0  0  0
   45.3290   37.8400   43.4470 C   0  0  0  0  0  3  0  0  0  0  0  0
   45.3860   39.2480   43.9350 C   0  0  0  0  0  0  0  0  0  0  0  0
   45.9550   39.2200   44.8980 H   0  0  0  0  0  0  0  0  0  0  0  0
   45.9470   39.8910   43.2440 H   0  0  0  0  0  0  0  0  0  0  0  0
   44.3530   39.6370   44.1340 H   0  0  0  0  0  0  0  0  0  0  0  0
  1 18  1  0  0  0  0
  1  6  1  0  0  0  0
  2  1  2  0  0  0  0
  3  2  1  0  0  0  0
  3  4  2  0  0  0  0
  4  5  1  0  0  0  0
  5  6  2  0  0  0  0
  5 11  1  0  0  0  0
  7  2  1  0  0  0  0
  8  3  1  0  0  0  0
  9 10  1  0  0  0  0
 10 17  2  0  0  0  0
 10 11  1  0  0  0  0
 11 12  2  0  0  0  0
 12 14  1  0  0  0  0
 12 13  1  0  0  0  0
 14 15  1  0  0  0  0
 16 14  2  0  0  0  0
 17 16  1  0  0  0  0
 19 20  1  0  0  0  0
 19 18  2  0  0  0  0
 20 23  1  0  0  0  0
 20 21  1  0  0  0  0
 22 20  1  0  0  0  0
M  END
>  <minimizedAffinity>
-3.35295105

>  <minimizedRMSD>
0.674346387

$$$$
