
 OpenBabel03242523373D

 19 20  0  0  0  0  0  0  0  0999 V2000
   44.5400   35.8350   44.7340 C   0  0  0  0  0  0  0  0  0  0  0  0
   45.2330   35.8300   43.5050 C   0  0  0  0  0  0  0  0  0  0  0  0
   46.1610   34.7970   43.2950 C   0  0  0  0  0  0  0  0  0  0  0  0
   46.3420   33.8680   44.2730 N   0  0  0  0  0  0  0  0  0  0  0  0
   45.6530   33.9070   45.4440 C   0  0  0  0  0  0  0  0  0  0  0  0
   44.7670   34.8780   45.6670 N   0  0  0  0  0  0  0  0  0  0  0  0
   43.8180   36.6280   44.9090 H   0  0  0  0  0  0  0  0  0  0  0  0
   45.0650   36.5840   42.7480 H   0  0  0  0  0  0  0  0  0  0  0  0
   47.4930   31.6480   44.5930 Cl  0  0  0  0  0  0  0  0  0  0  0  0
   46.7210   31.8050   46.1620 C   0  0  0  0  0  0  0  0  0  0  0  0
   45.9000   32.8740   46.4470 C   0  0  0  0  0  0  0  0  0  0  0  0
   45.3000   32.9810   47.6910 C   0  0  0  0  0  0  0  0  0  0  0  0
   44.6510   33.8090   47.9410 H   0  0  0  0  0  0  0  0  0  0  0  0
   45.5190   32.0250   48.6440 C   0  0  0  0  0  0  0  0  0  0  0  0
   45.0350   32.1290   49.6150 H   0  0  0  0  0  0  0  0  0  0  0  0
   46.3500   30.9370   48.3600 C   0  0  0  0  0  3  0  0  0  0  0  0
   46.9400   30.8450   47.1210 C   0  0  0  0  0  3  0  0  0  0  0  0
   47.0870   34.7120   41.7670 S   0  0  0  0  0  0  0  0  0  0  0  0
   48.4110   35.1110   42.0590 H   0  0  0  0  0  0  0  0  0  0  0  0
  1  7  1  0  0  0  0
  1  6  1  0  0  0  0
  2  1  2  0  0  0  0
  3  2  1  0  0  0  0
  3  4  2  0  0  0  0
  4  5  1  0  0  0  0
  5  6  2  0  0  0  0
  5 11  1  0  0  0  0
  8  2  1  0  0  0  0
  9 10  1  0  0  0  0
 10 11  2  0  0  0  0
 10 17  1  0  0  0  0
 11 12  1  0  0  0  0
 12 13  1  0  0  0  0
 12 14  2  0  0  0  0
 14 15  1  0  0  0  0
 16 14  1  0  0  0  0
 17 16  2  0  0  0  0
 18 19  1  0  0  0  0
 18  3  1  0  0  0  0
M  END
>  <minimizedAffinity>
-4.85615253

>  <minimizedRMSD>
0.563391447

$$$$
