
 OpenBabel03242523203D

 37 40  0  0  0  0  0  0  0  0999 V2000
   44.2970   32.0500   42.7340 Cl  0  0  0  0  0  0  0  0  0  0  0  0
   44.4370   33.8050   42.6310 C   0  0  0  0  0  0  0  0  0  0  0  0
   45.2210   34.4020   43.6410 C   0  0  0  0  0  0  0  0  0  0  0  0
   45.2660   35.7770   43.4690 C   0  0  0  0  0  0  0  0  0  0  0  0
   44.6990   36.5480   42.5310 C   0  0  0  0  0  0  0  0  0  0  0  0
   43.9570   35.8890   41.5900 C   0  0  0  0  0  0  0  0  0  0  0  0
   43.8180   34.5450   41.6250 C   0  0  0  0  0  0  0  0  0  0  0  0
   45.8150   36.4110   44.1980 H   0  0  0  0  0  0  0  0  0  0  0  0
   44.7570   37.6010   42.4290 H   0  0  0  0  0  0  0  0  0  0  0  0
   43.4310   36.3460   40.7630 H   0  0  0  0  0  0  0  0  0  0  0  0
   40.8830   34.8440   41.9360 Cl  0  0  0  0  0  0  0  0  0  0  0  0
   41.6720   33.8010   40.7540 C   0  0  0  0  0  0  0  0  0  0  0  0
   43.0440   33.7150   40.6700 C   0  0  0  0  0  0  0  0  0  0  0  0
   43.6400   32.8960   39.7420 C   0  0  0  0  0  0  0  0  0  0  0  0
   44.7190   32.8610   39.7130 H   0  0  0  0  0  0  0  0  0  0  0  0
   42.8300   32.1600   38.8930 C   0  0  0  0  0  0  0  0  0  0  0  0
   43.2750   31.5060   38.1520 H   0  0  0  0  0  0  0  0  0  0  0  0
   41.4470   32.2680   39.0020 C   0  0  0  0  0  3  0  0  0  0  0  0
   40.8310   33.0810   39.9230 C   0  0  0  0  0  3  0  0  0  0  0  0
   45.9350   33.7070   44.7450 C   0  0  0  0  0  0  0  0  0  0  0  0
   45.2930   34.1440   45.6690 O   0  0  0  0  0  0  0  0  0  0  0  0
   47.0050   32.8840   44.1700 C   0  0  0  0  0  0  0  0  0  0  0  0
   47.9250   33.2810   43.2790 C   0  0  0  0  0  0  0  0  0  0  0  0
   48.7560   32.2850   42.8230 C   0  0  0  0  0  0  0  0  0  0  0  0
   48.5800   30.9780   43.3160 N   0  0  0  0  0  0  0  0  0  0  0  0
   47.6550   30.6650   44.1940 C   0  0  0  0  0  0  0  0  0  0  0  0
   46.8040   31.6380   44.6700 N   0  0  0  0  0  0  0  0  0  0  0  0
   49.5580   32.4120   42.0990 H   0  0  0  0  0  0  0  0  0  0  0  0
   47.6360   29.6180   44.4860 H   0  0  0  0  0  0  0  0  0  0  0  0
   48.1820   34.6200   42.8690 C   0  0  0  0  0  0  0  0  0  0  0  0
   49.2580   35.1090   42.1990 C   0  0  0  0  0  0  0  0  0  0  0  0
   48.0550   34.9270   41.3160 C   0  0  0  0  0  0  0  0  0  0  0  0
   47.7230   35.3850   43.5230 H   0  0  0  0  0  0  0  0  0  0  0  0
   50.1070   34.4010   41.9540 H   0  0  0  0  0  0  0  0  0  0  0  0
   49.6680   36.1430   42.1600 H   0  0  0  0  0  0  0  0  0  0  0  0
   47.9930   34.0040   40.7080 H   0  0  0  0  0  0  0  0  0  0  0  0
   47.3850   35.7740   41.0980 H   0  0  0  0  0  0  0  0  0  0  0  0
  2  1  1  0  0  0  0
  2  3  1  0  0  0  0
  3 20  1  0  0  0  0
  4  3  2  0  0  0  0
  4  8  1  0  0  0  0
  5  4  1  0  0  0  0
  6  7  1  0  0  0  0
  6  5  2  0  0  0  0
  7  2  2  0  0  0  0
  9  5  1  0  0  0  0
 10  6  1  0  0  0  0
 12 11  1  0  0  0  0
 13 12  1  0  0  0  0
 13  7  1  0  0  0  0
 14 13  2  0  0  0  0
 15 14  1  0  0  0  0
 16 18  2  0  0  0  0
 16 14  1  0  0  0  0
 17 16  1  0  0  0  0
 18 19  1  0  0  0  0
 19 12  2  0  0  0  0
 20 21  2  0  0  0  0
 22 27  1  0  0  0  0
 22 20  1  0  0  0  0
 23 22  2  0  0  0  0
 24 23  1  0  0  0  0
 24 25  2  0  0  0  0
 25 26  1  0  0  0  0
 26 29  1  0  0  0  0
 26 27  2  0  0  0  0
 28 24  1  0  0  0  0
 30 23  1  0  0  0  0
 30 33  1  0  0  0  0
 31 30  1  0  0  0  0
 32 31  1  0  0  0  0
 32 30  1  0  0  0  0
 34 31  1  0  0  0  0
 35 31  1  0  0  0  0
 36 32  1  0  0  0  0
 37 32  1  0  0  0  0
M  END
>  <minimizedAffinity>
-5.54839563

>  <minimizedRMSD>
0.648355663

$$$$
