
 OpenBabel03242523193D

 37 40  0  0  0  0  0  0  0  0999 V2000
   44.2600   32.0450   42.7310 Cl  0  0  0  0  0  0  0  0  0  0  0  0
   44.4150   33.8000   42.6280 C   0  0  0  0  0  0  0  0  0  0  0  0
   45.2010   34.3900   43.6390 C   0  0  0  0  0  0  0  0  0  0  0  0
   45.2570   35.7650   43.4670 C   0  0  0  0  0  0  0  0  0  0  0  0
   44.6990   36.5400   42.5270 C   0  0  0  0  0  0  0  0  0  0  0  0
   43.9540   35.8870   41.5840 C   0  0  0  0  0  0  0  0  0  0  0  0
   43.8040   34.5430   41.6200 C   0  0  0  0  0  0  0  0  0  0  0  0
   45.8100   36.3950   44.1970 H   0  0  0  0  0  0  0  0  0  0  0  0
   44.7660   37.5920   42.4250 H   0  0  0  0  0  0  0  0  0  0  0  0
   43.4330   36.3480   40.7560 H   0  0  0  0  0  0  0  0  0  0  0  0
   40.8710   34.8510   41.9370 Cl  0  0  0  0  0  0  0  0  0  0  0  0
   41.6540   33.8090   40.7500 C   0  0  0  0  0  0  0  0  0  0  0  0
   43.0250   33.7200   40.6630 C   0  0  0  0  0  0  0  0  0  0  0  0
   43.6170   32.9010   39.7310 C   0  0  0  0  0  0  0  0  0  0  0  0
   44.6960   32.8630   39.7010 H   0  0  0  0  0  0  0  0  0  0  0  0
   42.8030   32.1710   38.8820 C   0  0  0  0  0  0  0  0  0  0  0  0
   43.2450   31.5200   38.1380 H   0  0  0  0  0  0  0  0  0  0  0  0
   41.4210   32.2830   38.9940 C   0  0  0  0  0  3  0  0  0  0  0  0
   40.8100   33.0940   39.9190 C   0  0  0  0  0  3  0  0  0  0  0  0
   45.9070   33.6900   44.7450 C   0  0  0  0  0  0  0  0  0  0  0  0
   45.2590   34.1250   45.6670 O   0  0  0  0  0  0  0  0  0  0  0  0
   46.9800   32.8670   44.1740 C   0  0  0  0  0  0  0  0  0  0  0  0
   47.9030   33.2660   43.2880 C   0  0  0  0  0  0  0  0  0  0  0  0
   48.7370   32.2710   42.8340 C   0  0  0  0  0  0  0  0  0  0  0  0
   48.5580   30.9630   43.3250 N   0  0  0  0  0  0  0  0  0  0  0  0
   47.6290   30.6490   44.1980 C   0  0  0  0  0  0  0  0  0  0  0  0
   46.7760   31.6210   44.6710 N   0  0  0  0  0  0  0  0  0  0  0  0
   49.5420   32.3990   42.1140 H   0  0  0  0  0  0  0  0  0  0  0  0
   47.6090   29.6010   44.4880 H   0  0  0  0  0  0  0  0  0  0  0  0
   48.1630   34.6060   42.8810 C   0  0  0  0  0  0  0  0  0  0  0  0
   49.2440   35.0960   42.2190 C   0  0  0  0  0  0  0  0  0  0  0  0
   48.0470   34.9140   41.3270 C   0  0  0  0  0  0  0  0  0  0  0  0
   47.6980   35.3690   43.5320 H   0  0  0  0  0  0  0  0  0  0  0  0
   50.0950   34.3890   41.9800 H   0  0  0  0  0  0  0  0  0  0  0  0
   49.6530   36.1300   42.1840 H   0  0  0  0  0  0  0  0  0  0  0  0
   47.9910   33.9910   40.7180 H   0  0  0  0  0  0  0  0  0  0  0  0
   47.3780   35.7600   41.1050 H   0  0  0  0  0  0  0  0  0  0  0  0
  2  1  1  0  0  0  0
  2  3  1  0  0  0  0
  3 20  1  0  0  0  0
  4  3  2  0  0  0  0
  4  8  1  0  0  0  0
  5  4  1  0  0  0  0
  6  7  1  0  0  0  0
  6  5  2  0  0  0  0
  7  2  2  0  0  0  0
  9  5  1  0  0  0  0
 10  6  1  0  0  0  0
 12 11  1  0  0  0  0
 13 12  1  0  0  0  0
 13  7  1  0  0  0  0
 14 13  2  0  0  0  0
 15 14  1  0  0  0  0
 16 18  2  0  0  0  0
 16 14  1  0  0  0  0
 17 16  1  0  0  0  0
 18 19  1  0  0  0  0
 19 12  2  0  0  0  0
 20 21  2  0  0  0  0
 22 27  1  0  0  0  0
 22 20  1  0  0  0  0
 23 22  2  0  0  0  0
 24 23  1  0  0  0  0
 24 25  2  0  0  0  0
 25 26  1  0  0  0  0
 26 29  1  0  0  0  0
 26 27  2  0  0  0  0
 28 24  1  0  0  0  0
 30 23  1  0  0  0  0
 30 33  1  0  0  0  0
 31 30  1  0  0  0  0
 32 31  1  0  0  0  0
 32 30  1  0  0  0  0
 34 31  1  0  0  0  0
 35 31  1  0  0  0  0
 36 32  1  0  0  0  0
 37 32  1  0  0  0  0
M  END
>  <minimizedAffinity>
-5.53793478

>  <minimizedRMSD>
0.824995697

$$$$
