
 OpenBabel03242520223D

 44 47  0  0  0  0  0  0  0  0999 V2000
   40.6370   35.5480   39.2890 C   0  0  0  0  0  0  0  0  0  0  0  0
   39.9730   36.0200   38.5300 H   0  0  0  0  0  0  0  0  0  0  0  0
   40.6360   36.2600   40.1470 H   0  0  0  0  0  0  0  0  0  0  0  0
   39.9170   33.9520   40.9870 C   0  0  0  0  0  0  0  0  0  0  0  0
   40.1040   34.7720   41.9400 O   0  0  0  0  0  0  0  0  0  0  0  0
   40.0680   34.2600   39.6210 N   0  0  0  0  0  0  0  0  0  0  0  0
   39.8010   33.6330   38.8570 H   0  0  0  0  0  0  0  0  0  0  0  0
   39.5100   32.5590   41.3100 C   0  0  0  0  0  0  0  0  0  0  0  0
   38.3510   32.0510   40.7530 C   0  0  0  0  0  0  0  0  0  0  0  0
   37.8620   30.7780   40.9680 C   0  0  0  0  0  0  0  0  0  0  0  0
   38.6190   29.9830   41.8120 C   0  0  0  0  0  0  0  0  0  0  0  0
   39.7610   30.5100   42.3490 C   0  0  0  0  0  0  0  0  0  0  0  0
   40.2060   31.7600   42.1140 N   0  0  0  0  0  0  0  0  0  0  0  0
   37.7860   32.7050   40.0990 H   0  0  0  0  0  0  0  0  0  0  0  0
   36.9440   30.4420   40.4990 H   0  0  0  0  0  0  0  0  0  0  0  0
   38.2440   28.9860   41.9850 H   0  0  0  0  0  0  0  0  0  0  0  0
   42.2750   29.3000   41.1640 Cl  0  0  0  0  0  0  0  0  0  0  0  0
   41.7550   29.0920   42.8380 C   0  0  0  0  0  0  0  0  0  0  0  0
   40.5850   29.7030   43.2410 C   0  0  0  0  0  0  0  0  0  0  0  0
   40.2850   29.4690   44.5650 C   0  0  0  0  0  0  0  0  0  0  0  0
   39.4060   29.8850   45.0020 H   0  0  0  0  0  0  0  0  0  0  0  0
   41.0510   28.7100   45.4190 C   0  0  0  0  0  0  0  0  0  0  0  0
   40.7770   28.5520   46.4550 H   0  0  0  0  0  0  0  0  0  0  0  0
   42.2080   28.1300   44.9450 C   0  0  0  0  0  0  0  0  0  0  0  0
   42.5790   28.3180   43.6290 C   0  0  0  0  0  0  0  0  0  0  0  0
   42.0680   35.4330   38.7530 C   0  0  0  0  0  0  0  0  0  0  0  0
   42.0690   34.9660   37.7510 H   0  0  0  0  0  0  0  0  0  0  0  0
   42.4960   36.4350   38.6530 H   0  0  0  0  0  0  0  0  0  0  0  0
   44.1700   34.2550   41.6790 C   0  0  0  0  0  0  0  0  0  0  0  0
   43.4130   35.1060   40.8280 C   0  0  0  0  0  0  0  0  0  0  0  0
   42.8740   34.5870   39.6670 C   0  0  0  0  0  0  0  0  0  0  0  0
   43.1170   33.2560   39.4140 N   0  0  0  0  0  0  0  0  0  0  0  0
   43.8550   32.4850   40.2700 C   0  0  0  0  0  0  0  0  0  0  0  0
   44.3720   32.9870   41.3890 N   0  0  0  0  0  0  0  0  0  0  0  0
   43.2500   36.1420   41.0670 H   0  0  0  0  0  0  0  0  0  0  0  0
   44.0110   31.4360   40.0140 H   0  0  0  0  0  0  0  0  0  0  0  0
   44.7580   34.8380   42.9260 C   0  0  0  0  0  0  0  0  0  0  0  0
   46.2660   35.2540   42.6970 C   0  0  0  0  0  0  0  0  0  0  0  0
   45.1900   36.1660   43.0910 C   0  0  0  0  0  0  0  0  0  0  0  0
   44.6920   34.1010   43.7690 H   0  0  0  0  0  0  0  0  0  0  0  0
   46.6240   35.2570   41.6640 H   0  0  0  0  0  0  0  0  0  0  0  0
   46.9820   34.9390   43.4540 H   0  0  0  0  0  0  0  0  0  0  0  0
   45.2120   36.6080   44.1180 H   0  0  0  0  0  0  0  0  0  0  0  0
   44.9250   36.9620   42.3480 H   0  0  0  0  0  0  0  0  0  0  0  0
  1  6  1  0  0  0  0
  1  3  1  0  0  0  0
  2  1  1  0  0  0  0
  4  8  1  0  0  0  0
  4  5  2  0  0  0  0
  6  4  1  0  0  0  0
  7  6  1  0  0  0  0
  8 13  1  0  0  0  0
  9 10  1  0  0  0  0
  9  8  2  0  0  0  0
 10 11  2  0  0  0  0
 11 16  1  0  0  0  0
 11 12  1  0  0  0  0
 12 19  1  0  0  0  0
 13 12  2  0  0  0  0
 14  9  1  0  0  0  0
 15 10  1  0  0  0  0
 17 18  1  0  0  0  0
 18 19  2  0  0  0  0
 18 25  1  0  0  0  0
 19 20  1  0  0  0  0
 20 21  1  0  0  0  0
 20 22  2  0  0  0  0
 22 23  1  0  0  0  0
 24 22  1  0  0  0  0
 25 24  2  0  0  0  0
 26  1  1  0  0  0  0
 26 31  1  0  0  0  0
 27 26  1  0  0  0  0
 28 26  1  0  0  0  0
 29 37  1  0  0  0  0
 30 35  1  0  0  0  0
 30 29  2  0  0  0  0
 31 30  1  0  0  0  0
 32 31  2  0  0  0  0
 32 33  1  0  0  0  0
 33 34  2  0  0  0  0
 34 29  1  0  0  0  0
 36 33  1  0  0  0  0
 37 39  1  0  0  0  0
 37 40  1  0  0  0  0
 38 37  1  0  0  0  0
 38 39  1  0  0  0  0
 38 42  1  0  0  0  0
 39 43  1  0  0  0  0
 41 38  1  0  0  0  0
 44 39  1  0  0  0  0
M  END
>  <minimizedAffinity>
-5.82646561

>  <minimizedRMSD>
3.41065264

$$$$
