
     RDKit          3D

 39 42  0  0  0  0  0  0  0  0999 V2000
   47.5321   32.8420   43.9094 C   0  0  0  0  0  0  0  0  0  0  0  0
   48.3721   33.3859   43.0172 C   0  0  0  0  0  0  0  0  0  0  0  0
   49.2345   32.4967   42.4180 C   0  0  0  0  0  0  0  0  0  0  0  0
   49.1668   31.1391   42.7836 N   0  0  0  0  0  0  0  0  0  0  0  0
   48.3161   30.6798   43.6721 C   0  0  0  0  0  0  0  0  0  0  0  0
   47.4367   31.5416   44.2895 N   0  0  0  0  0  0  0  0  0  0  0  0
   48.5228   34.7731   42.7335 C   0  0  0  0  0  0  0  0  0  0  0  0
   49.5220   35.3947   42.0537 C   0  0  0  0  0  0  0  0  0  0  0  0
   48.2763   35.2236   41.2303 C   0  0  0  0  0  0  0  0  0  0  0  0
   46.4485   33.5321   44.6203 C   0  0  0  0  0  0  0  0  0  0  0  0
   45.8797   33.8945   45.6207 O   0  0  0  0  0  0  0  0  0  0  0  0
   44.6810   31.6660   42.9269 Cl  0  0  0  0  0  0  0  0  0  0  0  0
   44.6493   33.4216   42.7578 C   0  0  0  0  0  0  0  0  0  0  0  0
   45.5205   34.1213   43.6200 C   0  0  0  0  0  0  0  0  0  0  0  0
   45.4174   35.4875   43.4075 C   0  0  0  0  0  0  0  0  0  0  0  0
   44.6514   36.1709   42.5460 C   0  0  0  0  0  0  0  0  0  0  0  0
   43.8373   35.4164   41.7469 C   0  0  0  0  0  0  0  0  0  0  0  0
   43.8235   34.0673   41.8385 C   0  0  0  0  0  0  0  0  0  0  0  0
   49.9830   32.7484   41.6697 H   0  0  0  0  0  0  0  0  0  0  0  0
   48.3784   29.6101   43.8560 H   0  0  0  0  0  0  0  0  0  0  0  0
   48.0636   35.4368   43.4894 H   0  0  0  0  0  0  0  0  0  0  0  0
   50.3929   34.7724   41.6872 H   0  0  0  0  0  0  0  0  0  0  0  0
   49.8674   36.4522   42.0982 H   0  0  0  0  0  0  0  0  0  0  0  0
   48.2281   34.3640   40.5351 H   0  0  0  0  0  0  0  0  0  0  0  0
   47.5442   36.0427   41.1416 H   0  0  0  0  0  0  0  0  0  0  0  0
   46.0112   36.1927   44.0273 H   0  0  0  0  0  0  0  0  0  0  0  0
   44.5999   37.2202   42.4089 H   0  0  0  0  0  0  0  0  0  0  0  0
   43.1552   35.7946   40.9981 H   0  0  0  0  0  0  0  0  0  0  0  0
   41.6016   35.4268   40.4203 Cl  0  0  0  0  0  0  0  0  0  0  0  0
   41.9380   33.6980   40.3475 C   0  0  0  0  0  0  0  0  0  0  0  0
   42.9906   33.1395   41.0354 C   0  0  0  0  0  0  0  0  0  0  0  0
   43.2365   31.7885   40.9656 C   0  0  0  0  0  0  0  0  0  0  0  0
   44.0739   31.3951   41.5226 H   0  0  0  0  0  0  0  0  0  0  0  0
   42.4008   31.0051   40.1877 C   0  0  0  0  0  0  0  0  0  0  0  0
   42.5735   29.9376   40.1163 H   0  0  0  0  0  0  0  0  0  0  0  0
   41.3449   31.5989   39.5039 C   0  0  0  0  0  0  0  0  0  0  0  0
   41.0825   32.9462   39.5606 C   0  0  0  0  0  0  0  0  0  0  0  0
   40.7360   30.9182   38.9164 H   0  0  0  0  0  0  0  0  0  0  0  0
   40.2613   33.3688   39.0214 H   0  0  0  0  0  0  0  0  0  0  0  0
  1  6  1  0
  1 10  1  0
  2  1  2  0
  3  4  2  0
  3  2  1  0
  4  5  1  0
  5  6  2  0
  7  2  1  0
  8  7  1  0
  9  8  1  0
  9  7  1  0
 10 11  2  0
 13 12  1  0
 13 14  2  0
 14 10  1  0
 15 14  1  0
 16 15  2  0
 17 18  2  0
 17 16  1  0
 18 13  1  0
  3 19  1  0
  5 20  1  0
  7 21  1  0
  8 22  1  0
  8 23  1  0
  9 24  1  0
  9 25  1  0
 15 26  1  0
 16 27  1  0
 17 28  1  0
 29 30  1  0
 30 31  2  0
 31 32  1  0
 32 33  1  0
 32 34  2  0
 34 35  1  0
 34 36  1  0
 36 37  2  0
 37 30  1  0
 36 38  1  0
 37 39  1  0
 18 31  1  0
M  ISO  8  19  14  20  14  21  13  22  13  23  13  24  13  25  13  26  14
M  ISO  4  27  14  28  14  33  15  35  16
M  END
>  <DihAtoms>  (1) 
16,17,30,29

>  <DihDeg>  (1) 
89.99867228998424

$$$$
