REMARK  Name = 
REMARK  2 active torsions:
REMARK  status: ('A' for Active; 'I' for Inactive)
REMARK    1  A    between atoms: C_3  and  S_7
REMARK    2  A    between atoms: C_5  and  C_13
REMARK                            x       y       z     vdW  Elec       q    Type
REMARK                         _______ _______ _______ _____ _____    ______ ____
ROOT
ATOM      1  C   UNL     1      44.541  36.031  44.526  0.00  0.00    +0.000 A 
ATOM      2  C   UNL     1      45.257  35.899  43.318  0.00  0.00    +0.000 A 
ATOM      3  C   UNL     1      46.127  34.802  43.203  0.00  0.00    +0.000 A 
ATOM      4  N   UNL     1      46.233  33.936  44.248  0.00  0.00    +0.000 NA
ATOM      5  C   UNL     1      45.525  34.099  45.397  0.00  0.00    +0.000 A 
ATOM      6  N   UNL     1      44.693  35.132  45.529  0.00  0.00    +0.000 NA
ATOM      7  H   UNL     1      43.864  36.875  44.628  0.00  0.00    +0.000 HD
ATOM      8  H   UNL     1      45.149  36.605  42.506  0.00  0.00    +0.000 HD
ENDROOT
BRANCH   5  11
ATOM      9 CL   UNL     1      44.463  34.941  48.113  0.00  0.00    +0.000 Cl
ATOM     10  C   UNL     1      45.244  33.411  47.747  0.00  0.00    +0.000 A 
ATOM     11  C   UNL     1      45.691  33.128  46.475  0.00  0.00    +0.000 A 
ATOM     12  C   UNL     1      46.305  31.916  46.205  0.00  0.00    +0.000 A 
ATOM     13  H   UNL     1      46.666  31.667  45.218  0.00  0.00    +0.000 HD
ATOM     14  C   UNL     1      46.471  30.993  47.202  0.00  0.00    +0.000 A 
ATOM     15  H   UNL     1      46.956  30.046  46.967  0.00  0.00    +0.000 HD
ATOM     16  C   UNL     1      46.019  31.276  48.494  0.00  0.00    +0.000 A 
ATOM     17  C   UNL     1      45.411  32.483  48.747  0.00  0.00    +0.000 A 
ENDBRANCH   5  11
BRANCH   3  18
ATOM     18  S   UNL     1      47.076  34.555  41.707  0.00  0.00    +0.000 S 
ATOM     19  H   UNL     1      48.415  34.897  42.002  0.00  0.00    +0.000 HD
ENDBRANCH   3  18
TORSDOF 2
