
     RDKit          3D

 21 22  0  0  0  0  0  0  0  0999 V2000
   44.5406   36.0311   44.5262 C   0  0  0  0  0  0  0  0  0  0  0  0
   45.2566   35.8990   43.3182 C   0  0  0  0  0  0  0  0  0  0  0  0
   46.1273   34.8018   43.2032 C   0  0  0  0  0  0  0  0  0  0  0  0
   46.2330   33.9364   44.2479 N   0  0  0  0  0  0  0  0  0  0  0  0
   45.5250   34.0985   45.3970 C   0  0  0  0  0  0  0  0  0  0  0  0
   44.6928   35.1316   45.5293 N   0  0  0  0  0  0  0  0  0  0  0  0
   47.0758   34.5546   41.7073 S   0  0  0  0  0  0  0  0  0  0  0  0
   43.8637   36.8752   44.6283 H   0  0  0  0  0  0  0  0  0  0  0  0
   45.1494   36.6055   42.5062 H   0  0  0  0  0  0  0  0  0  0  0  0
   48.4150   34.8967   42.0015 H   0  0  0  0  0  0  0  0  0  0  0  0
   46.8890   31.4957   44.6362 Cl  0  0  0  0  0  0  0  0  0  0  0  0
   46.2978   31.9146   46.2373 C   0  0  0  0  0  0  0  0  0  0  0  0
   45.6914   33.1276   46.4755 C   0  0  0  0  0  0  0  0  0  0  0  0
   45.2315   33.4407   47.7440 C   0  0  0  0  0  0  0  0  0  0  0  0
   44.7520   34.3848   47.9591 H   0  0  0  0  0  0  0  0  0  0  0  0
   45.3780   32.5446   48.7676 C   0  0  0  0  0  0  0  0  0  0  0  0
   45.0087   32.8120   49.7575 H   0  0  0  0  0  0  0  0  0  0  0  0
   45.9929   31.3120   48.5310 C   0  0  0  0  0  0  0  0  0  0  0  0
   46.4445   31.0153   47.2663 C   0  0  0  0  0  0  0  0  0  0  0  0
   46.0620   30.6702   49.4066 H   0  0  0  0  0  0  0  0  0  0  0  0
   46.9193   30.0323   47.1392 H   0  0  0  0  0  0  0  0  0  0  0  0
  1  6  2  0
  2  1  1  0
  3  2  2  0
  3  4  1  0
  4  5  2  0
  5  6  1  0
  7  3  1  0
  1  8  1  0
  2  9  1  0
  7 10  1  0
 11 12  1  0
 12 13  2  0
 13 14  1  0
 14 15  1  0
 14 16  2  0
 16 17  1  0
 16 18  1  0
 18 19  2  0
 19 12  1  0
 18 20  1  0
 19 21  1  0
  5 13  1  0
M  ISO  5   8  14   9  14  10  11  15  15  17  16
M  END
>  <DihAtoms>  (1) 
3,4,12,11

>  <DihDeg>  (1) 
-0.0014213318770318793

$$$$
