
 OpenBabel03242523383D

 19 20  0  0  0  0  0  0  0  0999 V2000
   44.8430   35.2220   44.5740 C   0  0  0  0  0  0  0  0  0  0  0  0
   45.6140   35.3990   43.4060 C   0  0  0  0  0  0  0  0  0  0  0  0
   46.7110   34.5410   43.2230 C   0  0  0  0  0  0  0  0  0  0  0  0
   46.9700   33.5960   44.1690 N   0  0  0  0  0  0  0  0  0  0  0  0
   46.2020   33.4580   45.2820 C   0  0  0  0  0  0  0  0  0  0  0  0
   45.1550   34.2600   45.4770 N   0  0  0  0  0  0  0  0  0  0  0  0
   43.9910   35.8790   44.7270 H   0  0  0  0  0  0  0  0  0  0  0  0
   45.3800   36.1600   42.6730 H   0  0  0  0  0  0  0  0  0  0  0  0
   45.4700   30.6190   44.4960 Cl  0  0  0  0  0  0  0  0  0  0  0  0
   46.2530   31.0980   45.9940 C   0  0  0  0  0  0  0  0  0  0  0  0
   46.5410   32.4210   46.2520 C   0  0  0  0  0  0  0  0  0  0  0  0
   47.1600   32.7800   47.4390 C   0  0  0  0  0  0  0  0  0  0  0  0
   47.3970   33.8090   47.6670 H   0  0  0  0  0  0  0  0  0  0  0  0
   47.4860   31.8230   48.3600 C   0  0  0  0  0  0  0  0  0  0  0  0
   47.9720   32.1290   49.2870 H   0  0  0  0  0  0  0  0  0  0  0  0
   47.1950   30.4810   48.1020 C   0  0  0  0  0  3  0  0  0  0  0  0
   46.5820   30.1390   46.9200 C   0  0  0  0  0  3  0  0  0  0  0  0
   47.7450   34.6930   41.7720 S   0  0  0  0  0  0  0  0  0  0  0  0
   48.9610   35.2800   42.1870 H   0  0  0  0  0  0  0  0  0  0  0  0
  1  7  1  0  0  0  0
  1  6  1  0  0  0  0
  2  1  2  0  0  0  0
  3  2  1  0  0  0  0
  3  4  2  0  0  0  0
  4  5  1  0  0  0  0
  5  6  2  0  0  0  0
  5 11  1  0  0  0  0
  8  2  1  0  0  0  0
  9 10  1  0  0  0  0
 10 11  2  0  0  0  0
 10 17  1  0  0  0  0
 11 12  1  0  0  0  0
 12 13  1  0  0  0  0
 12 14  2  0  0  0  0
 14 15  1  0  0  0  0
 16 14  1  0  0  0  0
 17 16  2  0  0  0  0
 18 19  1  0  0  0  0
 18  3  1  0  0  0  0
M  END
>  <minimizedAffinity>
-4.2946682

>  <minimizedRMSD>
1.71150529

$$$$
