
     RDKit          3D

 21 22  0  0  0  0  0  0  0  0999 V2000
   44.5406   36.0311   44.5262 C   0  0  0  0  0  0  0  0  0  0  0  0
   45.2566   35.8990   43.3182 C   0  0  0  0  0  0  0  0  0  0  0  0
   46.1273   34.8018   43.2032 C   0  0  0  0  0  0  0  0  0  0  0  0
   46.2330   33.9364   44.2479 N   0  0  0  0  0  0  0  0  0  0  0  0
   45.5250   34.0985   45.3970 C   0  0  0  0  0  0  0  0  0  0  0  0
   44.6928   35.1316   45.5293 N   0  0  0  0  0  0  0  0  0  0  0  0
   47.0758   34.5546   41.7073 S   0  0  0  0  0  0  0  0  0  0  0  0
   43.8637   36.8752   44.6283 H   0  0  0  0  0  0  0  0  0  0  0  0
   45.1494   36.6055   42.5062 H   0  0  0  0  0  0  0  0  0  0  0  0
   48.4150   34.8967   42.0015 H   0  0  0  0  0  0  0  0  0  0  0  0
   47.7066   34.7210   47.4137 Cl  0  0  0  0  0  0  0  0  0  0  0  0
   46.6528   33.3150   47.4432 C   0  0  0  0  0  0  0  0  0  0  0  0
   45.6914   33.1276   46.4755 C   0  0  0  0  0  0  0  0  0  0  0  0
   44.8696   32.0132   46.5148 C   0  0  0  0  0  0  0  0  0  0  0  0
   44.1073   31.8412   45.7687 H   0  0  0  0  0  0  0  0  0  0  0  0
   45.0098   31.0923   47.5170 C   0  0  0  0  0  0  0  0  0  0  0  0
   44.3524   30.2230   47.5281 H   0  0  0  0  0  0  0  0  0  0  0  0
   45.9842   31.2779   48.5016 C   0  0  0  0  0  0  0  0  0  0  0  0
   46.7927   32.3892   48.4494 C   0  0  0  0  0  0  0  0  0  0  0  0
   46.0169   30.4924   49.2534 H   0  0  0  0  0  0  0  0  0  0  0  0
   47.5405   32.4828   49.2494 H   0  0  0  0  0  0  0  0  0  0  0  0
  1  6  2  0
  2  1  1  0
  3  2  2  0
  3  4  1  0
  4  5  2  0
  5  6  1  0
  7  3  1  0
  1  8  1  0
  2  9  1  0
  7 10  1  0
 11 12  1  0
 12 13  2  0
 13 14  1  0
 14 15  1  0
 14 16  2  0
 16 17  1  0
 16 18  1  0
 18 19  2  0
 19 12  1  0
 18 20  1  0
 19 21  1  0
  5 13  1  0
M  ISO  5   8  14   9  14  10  11  15  15  17  16
M  END
>  <DihAtoms>  (1) 
3,4,12,11

>  <DihDeg>  (1) 
-0.0014213318770318793

$$$$
