
     RDKit          3D

 21 22  0  0  0  0  0  0  0  0999 V2000
   44.5406   36.0311   44.5262 C   0  0  0  0  0  0  0  0  0  0  0  0
   45.2566   35.8990   43.3182 C   0  0  0  0  0  0  0  0  0  0  0  0
   46.1273   34.8018   43.2032 C   0  0  0  0  0  0  0  0  0  0  0  0
   46.2330   33.9364   44.2479 N   0  0  0  0  0  0  0  0  0  0  0  0
   45.5250   34.0985   45.3970 C   0  0  0  0  0  0  0  0  0  0  0  0
   44.6928   35.1316   45.5293 N   0  0  0  0  0  0  0  0  0  0  0  0
   47.0758   34.5546   41.7073 S   0  0  0  0  0  0  0  0  0  0  0  0
   43.8637   36.8752   44.6283 H   0  0  0  0  0  0  0  0  0  0  0  0
   45.1494   36.6055   42.5062 H   0  0  0  0  0  0  0  0  0  0  0  0
   48.4150   34.8967   42.0015 H   0  0  0  0  0  0  0  0  0  0  0  0
   48.3847   33.3044   46.0337 Cl  0  0  0  0  0  0  0  0  0  0  0  0
   46.9472   32.6999   46.8441 C   0  0  0  0  0  0  0  0  0  0  0  0
   45.6914   33.1276   46.4755 C   0  0  0  0  0  0  0  0  0  0  0  0
   44.5695   32.6402   47.1255 C   0  0  0  0  0  0  0  0  0  0  0  0
   43.5725   32.9584   46.8570 H   0  0  0  0  0  0  0  0  0  0  0  0
   44.7045   31.7302   48.1383 C   0  0  0  0  0  0  0  0  0  0  0  0
   43.8081   31.3601   48.6358 H   0  0  0  0  0  0  0  0  0  0  0  0
   45.9770   31.2929   48.5162 C   0  0  0  0  0  0  0  0  0  0  0  0
   47.0816   31.7858   47.8616 C   0  0  0  0  0  0  0  0  0  0  0  0
   45.9795   30.5705   49.3295 H   0  0  0  0  0  0  0  0  0  0  0  0
   48.0557   31.4065   48.2010 H   0  0  0  0  0  0  0  0  0  0  0  0
  1  6  2  0
  2  1  1  0
  3  2  2  0
  3  4  1  0
  4  5  2  0
  5  6  1  0
  7  3  1  0
  1  8  1  0
  2  9  1  0
  7 10  1  0
 11 12  1  0
 12 13  2  0
 13 14  1  0
 14 15  1  0
 14 16  2  0
 16 17  1  0
 16 18  1  0
 18 19  2  0
 19 12  1  0
 18 20  1  0
 19 21  1  0
  5 13  1  0
M  ISO  5   8  14   9  14  10  11  15  15  17  16
M  END
>  <DihAtoms>  (1) 
3,4,12,11

>  <DihDeg>  (1) 
-0.0014213318770318793

$$$$
