REMARK  Name = 
REMARK  2 active torsions:
REMARK  status: ('A' for Active; 'I' for Inactive)
REMARK    1  A    between atoms: C_5  and  C_9
REMARK    2  A    between atoms: C_13  and  C_22
REMARK                            x       y       z     vdW  Elec       q    Type
REMARK                         _______ _______ _______ _____ _____    ______ ____
ROOT
ATOM      1 BR   UNL     1      44.583  33.136  41.184  0.00  0.00    +0.000 Br
ATOM      2  C   UNL     1      46.290  34.000  40.948  0.00  0.00    +0.000 A 
ATOM      3  C   UNL     1      46.825  34.738  41.963  0.00  0.00    +0.000 A 
ATOM      4  C   UNL     1      48.060  35.366  41.799  0.00  0.00    +0.000 A 
ATOM      5  C   UNL     1      48.709  35.221  40.606  0.00  0.00    +0.000 A 
ATOM      6  C   UNL     1      48.131  34.471  39.619  0.00  0.00    +0.000 A 
ATOM      7  C   UNL     1      46.926  33.841  39.739  0.00  0.00    +0.000 A 
ATOM      8  H   UNL     1      48.493  35.951  42.591  0.00  0.00    +0.000 HD
ATOM      9  H   UNL     1      49.678  35.710  40.468  0.00  0.00    +0.000 HD
ATOM     10  H   UNL     1      48.713  34.405  38.699  0.00  0.00    +0.000 HD
ENDROOT
BRANCH   3  15
ATOM     11  C   UNL     1      45.601  34.039  45.339  0.00  0.00    +0.000 A 
ATOM     12  C   UNL     1      44.699  35.095  45.594  0.00  0.00    +0.000 A 
ATOM     13  C   UNL     1      44.531  36.045  44.571  0.00  0.00    +0.000 A 
ATOM     14  N   UNL     1      45.231  35.897  43.421  0.00  0.00    +0.000 NA
ATOM     15  C   UNL     1      46.095  34.860  43.210  0.00  0.00    +0.000 A 
ATOM     16  N   UNL     1      46.262  33.947  44.183  0.00  0.00    +0.000 NA
ATOM     17  H   UNL     1      45.711  33.327  46.135  0.00  0.00    +0.000 HD
ATOM     18  H   UNL     1      44.136  35.226  46.504  0.00  0.00    +0.000 HD
ATOM     19  H   UNL     1      43.867  36.903  44.647  0.00  0.00    +0.000 HD
ENDBRANCH   3  15
BRANCH   7  22
ATOM     20 CL   UNL     1      46.408  35.293  37.206  0.00  0.00    +0.000 Cl
ATOM     21  C   UNL     1      46.052  33.584  37.419  0.00  0.00    +0.000 A 
ATOM     22  C   UNL     1      46.350  33.050  38.656  0.00  0.00    +0.000 A 
ATOM     23  C   UNL     1      46.062  31.696  38.808  0.00  0.00    +0.000 A 
ATOM     24  H   UNL     1      46.299  31.276  39.792  0.00  0.00    +0.000 HD
ATOM     25  C   UNL     1      45.517  30.964  37.773  0.00  0.00    +0.000 A 
ATOM     26  H   UNL     1      45.349  29.916  38.045  0.00  0.00    +0.000 HD
ATOM     27  C   UNL     1      45.235  31.524  36.557  0.00  0.00    +0.000 A 
ATOM     28  C   UNL     1      45.508  32.876  36.367  0.00  0.00    +0.000 A 
ENDBRANCH   7  22
TORSDOF 2
