REMARK  Name = 
REMARK  4 active torsions:
REMARK  status: ('A' for Active; 'I' for Inactive)
REMARK    1  A    between atoms: C_1  and  C_10
REMARK    2  A    between atoms: C_6  and  C_18
REMARK    3  A    between atoms: C_7  and  C_16
REMARK    4  A    between atoms: C_18  and  C_37
REMARK                            x       y       z     vdW  Elec       q    Type
REMARK                         _______ _______ _______ _____ _____    ______ ____
ROOT
ATOM      1  C   UNL     1      47.548  29.973  48.279  0.00  0.00    +0.000 C 
ATOM      2  C   UNL     1      47.451  28.782  47.371  0.00  0.00    +0.000 C 
ATOM      3  C   UNL     1      48.763  28.053  47.172  0.00  0.00    +0.000 C 
ATOM      4  C   UNL     1      49.523  27.850  48.458  0.00  0.00    +0.000 C 
ATOM      5  C   UNL     1      49.545  29.086  49.302  0.00  0.00    +0.000 C 
ATOM      6  C   UNL     1      49.037  30.308  48.483  0.00  0.00    +0.000 C 
ATOM      7  H   UNL     1      47.149  29.709  49.255  0.00  0.00    +0.000 HD
ATOM      8  H   UNL     1      47.076  29.035  46.355  0.00  0.00    +0.000 HD
ATOM      9  H   UNL     1      46.727  28.052  47.788  0.00  0.00    +0.000 HD
ATOM     10  H   UNL     1      48.491  27.047  46.824  0.00  0.00    +0.000 HD
ATOM     11  H   UNL     1      49.397  28.588  46.431  0.00  0.00    +0.000 HD
ATOM     12  H   UNL     1      50.578  27.608  48.152  0.00  0.00    +0.000 HD
ATOM     13  H   UNL     1      49.177  26.943  48.993  0.00  0.00    +0.000 HD
ATOM     14  H   UNL     1      48.824  28.936  50.125  0.00  0.00    +0.000 HD
ATOM     15  H   UNL     1      50.553  29.379  49.618  0.00  0.00    +0.000 HD
ATOM     16  H   UNL     1      49.558  30.266  47.495  0.00  0.00    +0.000 HD
ENDROOT
BRANCH   1  20
ATOM     17  C   UNL     1      45.915  33.146  46.237  0.00  0.00    +0.000 A 
ATOM     18  C   UNL     1      45.340  32.934  47.490  0.00  0.00    +0.000 A 
ATOM     19  C   UNL     1      45.791  31.934  48.233  0.00  0.00    +0.000 A 
ATOM     20  C   UNL     1      46.836  31.100  47.770  0.00  0.00    +0.000 A 
ATOM     21  S   UNL     1      47.192  31.814  46.129  0.00  0.00    +0.000 S 
ATOM     22  H   UNL     1      44.543  33.580  47.836  0.00  0.00    +0.000 HD
ATOM     23  H   UNL     1      45.455  31.636  49.214  0.00  0.00    +0.000 HD
BRANCH  17  28
ATOM     24  C   UNL     1      44.426  36.108  44.546  0.00  0.00    +0.000 A 
ATOM     25  C   UNL     1      45.054  36.023  43.301  0.00  0.00    +0.000 A 
ATOM     26  C   UNL     1      45.954  34.966  43.090  0.00  0.00    +0.000 A 
ATOM     27  N   UNL     1      46.167  34.078  44.110  0.00  0.00    +0.000 NA
ATOM     28  C   UNL     1      45.537  34.206  45.288  0.00  0.00    +0.000 A 
ATOM     29  N   UNL     1      44.662  35.224  45.509  0.00  0.00    +0.000 NA
ATOM     30  H   UNL     1      43.722  36.900  44.772  0.00  0.00    +0.000 HD
ATOM     31  H   UNL     1      44.861  36.736  42.530  0.00  0.00    +0.000 HD
ATOM     32  H   UNL     1      46.475  34.837  42.154  0.00  0.00    +0.000 HD
ENDBRANCH  17  28
ENDBRANCH   1  20
BRANCH   6  33
ATOM     33  C   UNL     1      49.239  31.522  49.213  0.00  0.00    +0.000 C 
ATOM     34  O   UNL     1      49.981  31.562  50.174  0.00  0.00    +0.000 OA
BRANCH  33  37
ATOM     35 CL   UNL     1      50.602  32.424  51.999  0.00  0.00    +0.000 Cl
ATOM     36  C   UNL     1      49.733  33.380  50.773  0.00  0.00    +0.000 A 
ATOM     37  C   UNL     1      49.164  32.855  49.624  0.00  0.00    +0.000 A 
ATOM     38  C   UNL     1      48.545  33.817  48.863  0.00  0.00    +0.000 A 
ATOM     39  H   UNL     1      48.078  33.639  47.918  0.00  0.00    +0.000 HD
ATOM     40  C   UNL     1      48.398  35.169  49.041  0.00  0.00    +0.000 A 
ATOM     41  H   UNL     1      47.932  35.939  48.485  0.00  0.00    +0.000 HD
ATOM     42  C   UNL     1      48.999  35.558  50.203  0.00  0.00    +0.000 A 
ATOM     43  C   UNL     1      49.661  34.763  51.090  0.00  0.00    +0.000 A 
ENDBRANCH  33  37
ENDBRANCH   6  33
TORSDOF 4
