
 OpenBabel03242514343D

 26 27  0  0  0  0  0  0  0  0999 V2000
   38.0210   30.2740   42.3380 O   0  0  0  0  0  0  0  0  0  0  0  0
   36.9920   29.8680   41.3280 P   0  0  1  0  0  0  0  0  0  0  0  0
   35.7180   30.9580   41.4310 O   0  0  0  0  0  0  0  0  0  0  0  0
   35.9920   31.8180   41.8060 H   0  0  0  0  0  0  0  0  0  0  0  0
   37.6870   29.8960   39.7650 O   0  0  0  0  0  0  0  0  0  0  0  0
   38.5510   32.1000   39.4720 C   0  0  0  0  0  0  0  0  0  0  0  0
   38.7610   30.7320   39.4670 C   0  0  0  0  0  0  0  0  0  0  0  0
   40.0430   30.2410   39.1640 C   0  0  0  0  0  0  0  0  0  0  0  0
   41.0190   31.1420   38.8890 N   0  0  0  0  0  0  0  0  0  0  0  0
   40.7760   32.4740   38.9020 C   0  0  0  0  0  0  0  0  0  0  0  0
   39.5590   32.9320   39.1900 N   0  0  0  0  0  0  0  0  0  0  0  0
   37.5930   32.5700   39.6940 H   0  0  0  0  0  0  0  0  0  0  0  0
   40.1920   29.1650   39.1650 H   0  0  0  0  0  0  0  0  0  0  0  0
   41.5830   33.1750   38.6760 H   0  0  0  0  0  0  0  0  0  0  0  0
   36.4310   28.3380   41.6830 O   0  0  0  0  0  0  0  0  0  0  0  0
   36.9280   27.4760   42.5930 C   0  0  0  0  0  0  0  0  0  0  0  0
   36.1350   27.3510   43.6100 O   0  0  0  0  0  0  0  0  0  0  0  0
   36.7480   24.5440   41.6280 Cl  0  0  0  0  0  0  0  0  0  0  0  0
   38.1070   25.2900   42.4060 C   0  0  0  0  0  0  0  0  0  0  0  0
   38.1140   26.5980   42.8080 C   0  0  0  0  0  0  0  0  0  0  0  0
   39.2300   27.1400   43.4260 C   0  0  0  0  0  0  0  0  0  0  0  0
   39.2080   28.1960   43.7400 H   0  0  0  0  0  0  0  0  0  0  0  0
   40.3850   26.4330   43.6790 C   0  0  0  0  0  0  0  0  0  0  0  0
   41.2600   26.8350   44.1570 H   0  0  0  0  0  0  0  0  0  0  0  0
   40.4130   25.1130   43.2860 C   0  0  0  0  0  3  0  0  0  0  0  0
   39.2930   24.5950   42.6750 C   0  0  0  0  0  3  0  0  0  0  0  0
  2  3  1  0  0  0  0
  2 15  1  0  0  0  0
  2  1  2  1  0  0  0
  3  4  1  0  0  0  0
  5  2  1  0  0  0  0
  6 12  1  0  0  0  0
  7  6  1  0  0  0  0
  7  5  1  0  0  0  0
  8 13  1  0  0  0  0
  8  7  2  0  0  0  0
  9 10  2  0  0  0  0
  9  8  1  0  0  0  0
 10 11  1  0  0  0  0
 11  6  2  0  0  0  0
 14 10  1  0  0  0  0
 15 16  1  0  0  0  0
 16 20  1  0  0  0  0
 16 17  2  0  0  0  0
 18 19  1  0  0  0  0
 19 26  2  0  0  0  0
 19 20  1  0  0  0  0
 20 21  2  0  0  0  0
 21 23  1  0  0  0  0
 21 22  1  0  0  0  0
 23 24  1  0  0  0  0
 25 23  2  0  0  0  0
 26 25  1  0  0  0  0
M  END
>  <minimizedAffinity>
-5.4550786

$$$$

 OpenBabel03242514343D

 26 27  0  0  0  0  0  0  0  0999 V2000
   39.4900   33.7080   40.1530 O   0  0  0  0  0  0  0  0  0  0  0  0
   38.3810   32.7340   39.8910 P   0  0  1  0  0  0  0  0  0  0  0  0
   36.9280   33.5640   40.0380 O   0  0  0  0  0  0  0  0  0  0  0  0
   37.0300   34.5250   39.8900 H   0  0  0  0  0  0  0  0  0  0  0  0
   38.5530   32.0880   38.3160 O   0  0  0  0  0  0  0  0  0  0  0  0
   40.7130   32.2330   37.3130 C   0  0  0  0  0  0  0  0  0  0  0  0
   39.7330   31.4640   37.9170 C   0  0  0  0  0  0  0  0  0  0  0  0
   39.9640   30.0900   38.1010 C   0  0  0  0  0  0  0  0  0  0  0  0
   41.1480   29.5830   37.6760 N   0  0  0  0  0  0  0  0  0  0  0  0
   42.0840   30.3660   37.0890 C   0  0  0  0  0  0  0  0  0  0  0  0
   41.8580   31.6670   36.9170 N   0  0  0  0  0  0  0  0  0  0  0  0
   40.6220   33.3040   37.1290 H   0  0  0  0  0  0  0  0  0  0  0  0
   39.1860   29.4990   38.5760 H   0  0  0  0  0  0  0  0  0  0  0  0
   43.0280   29.9280   36.7570 H   0  0  0  0  0  0  0  0  0  0  0  0
   38.4290   31.5120   41.0240 O   0  0  0  0  0  0  0  0  0  0  0  0
   37.4670   30.6050   41.2900 C   0  0  0  0  0  0  0  0  0  0  0  0
   36.2840   31.1050   41.1220 O   0  0  0  0  0  0  0  0  0  0  0  0
   36.8860   28.4950   39.1060 Cl  0  0  0  0  0  0  0  0  0  0  0  0
   37.0670   28.1940   40.8050 C   0  0  0  0  0  0  0  0  0  0  0  0
   37.3230   29.1830   41.7160 C   0  0  0  0  0  0  0  0  0  0  0  0
   37.4580   28.8840   43.0640 C   0  0  0  0  0  0  0  0  0  0  0  0
   37.6640   29.7000   43.7740 H   0  0  0  0  0  0  0  0  0  0  0  0
   37.3480   27.6110   43.5800 C   0  0  0  0  0  0  0  0  0  0  0  0
   37.4490   27.3600   44.6200 H   0  0  0  0  0  0  0  0  0  0  0  0
   37.0910   26.5920   42.6910 C   0  0  0  0  0  3  0  0  0  0  0  0
   36.9600   26.9120   41.3580 C   0  0  0  0  0  3  0  0  0  0  0  0
  2  3  1  0  0  0  0
  2  1  2  1  0  0  0
  2 15  1  0  0  0  0
  4  3  1  0  0  0  0
  5  2  1  0  0  0  0
  6  7  1  0  0  0  0
  7  8  2  0  0  0  0
  7  5  1  0  0  0  0
  8 13  1  0  0  0  0
  9  8  1  0  0  0  0
 10  9  2  0  0  0  0
 11 10  1  0  0  0  0
 11  6  2  0  0  0  0
 12  6  1  0  0  0  0
 14 10  1  0  0  0  0
 15 16  1  0  0  0  0
 16 20  1  0  0  0  0
 17 16  2  0  0  0  0
 18 19  1  0  0  0  0
 19 26  2  0  0  0  0
 19 20  1  0  0  0  0
 20 21  2  0  0  0  0
 21 23  1  0  0  0  0
 21 22  1  0  0  0  0
 23 24  1  0  0  0  0
 25 23  2  0  0  0  0
 26 25  1  0  0  0  0
M  END
>  <minimizedAffinity>
-5.15229845

$$$$

 OpenBabel03242514343D

 26 27  0  0  0  0  0  0  0  0999 V2000
   38.3470   30.9640   41.6950 O   0  0  0  0  0  0  0  0  0  0  0  0
   37.2560   30.8730   40.6720 P   0  0  1  0  0  0  0  0  0  0  0  0
   35.7960   31.1370   41.4590 O   0  0  0  0  0  0  0  0  0  0  0  0
   35.9040   31.6480   42.2850 H   0  0  0  0  0  0  0  0  0  0  0  0
   37.5130   32.0540   39.4610 O   0  0  0  0  0  0  0  0  0  0  0  0
   39.5990   31.9480   38.3060 C   0  0  0  0  0  0  0  0  0  0  0  0
   38.7810   32.5830   39.2260 C   0  0  0  0  0  0  0  0  0  0  0  0
   39.2580   33.7290   39.8830 C   0  0  0  0  0  0  0  0  0  0  0  0
   40.5080   34.1610   39.5800 N   0  0  0  0  0  0  0  0  0  0  0  0
   41.2800   33.5150   38.6740 C   0  0  0  0  0  0  0  0  0  0  0  0
   40.8210   32.4290   38.0560 N   0  0  0  0  0  0  0  0  0  0  0  0
   39.3140   31.0550   37.7500 H   0  0  0  0  0  0  0  0  0  0  0  0
   38.6050   34.2160   40.6020 H   0  0  0  0  0  0  0  0  0  0  0  0
   42.2820   33.8870   38.4510 H   0  0  0  0  0  0  0  0  0  0  0  0
   37.2450   29.3480   39.9980 O   0  0  0  0  0  0  0  0  0  0  0  0
   36.5330   28.2790   40.4060 C   0  0  0  0  0  0  0  0  0  0  0  0
   35.2780   28.5670   40.5420 O   0  0  0  0  0  0  0  0  0  0  0  0
   37.0890   27.5670   43.3640 Cl  0  0  0  0  0  0  0  0  0  0  0  0
   36.9760   26.4500   42.0410 C   0  0  0  0  0  0  0  0  0  0  0  0
   36.7270   26.8410   40.7520 C   0  0  0  0  0  0  0  0  0  0  0  0
   36.6470   25.9030   39.7340 C   0  0  0  0  0  0  0  0  0  0  0  0
   36.4470   26.2450   38.7070 H   0  0  0  0  0  0  0  0  0  0  0  0
   36.8070   24.5480   39.9260 C   0  0  0  0  0  0  0  0  0  0  0  0
   36.7490   23.8070   39.1510 H   0  0  0  0  0  0  0  0  0  0  0  0
   37.0570   24.1200   41.2110 C   0  0  0  0  0  3  0  0  0  0  0  0
   37.1330   25.0690   42.2070 C   0  0  0  0  0  3  0  0  0  0  0  0
  2  3  1  0  0  0  0
  2  1  2  1  0  0  0
  3  4  1  0  0  0  0
  5  2  1  0  0  0  0
  6  7  1  0  0  0  0
  7  5  1  0  0  0  0
  7  8  2  0  0  0  0
  8 13  1  0  0  0  0
  9  8  1  0  0  0  0
 10  9  2  0  0  0  0
 11  6  2  0  0  0  0
 11 10  1  0  0  0  0
 12  6  1  0  0  0  0
 14 10  1  0  0  0  0
 15 16  1  0  0  0  0
 15  2  1  0  0  0  0
 16 17  2  0  0  0  0
 16 20  1  0  0  0  0
 19 26  1  0  0  0  0
 19 18  1  0  0  0  0
 20 19  2  0  0  0  0
 21 23  2  0  0  0  0
 21 20  1  0  0  0  0
 22 21  1  0  0  0  0
 23 25  1  0  0  0  0
 24 23  1  0  0  0  0
 25 26  2  0  0  0  0
M  END
>  <minimizedAffinity>
-5.14281464

$$$$

 OpenBabel03242514343D

 26 27  0  0  0  0  0  0  0  0999 V2000
   34.9200   29.1150   40.0720 O   0  0  0  0  0  0  0  0  0  0  0  0
   36.2770   28.5480   40.3600 P   0  0  1  0  0  0  0  0  0  0  0  0
   36.2780   26.9450   39.8600 O   0  0  0  0  0  0  0  0  0  0  0  0
   35.6060   26.7680   39.1720 H   0  0  0  0  0  0  0  0  0  0  0  0
   37.4600   29.4470   39.5130 O   0  0  0  0  0  0  0  0  0  0  0  0
   38.8840   30.9450   40.7070 C   0  0  0  0  0  0  0  0  0  0  0  0
   37.7840   30.7500   39.8890 C   0  0  0  0  0  0  0  0  0  0  0  0
   37.0400   31.8660   39.4720 C   0  0  0  0  0  0  0  0  0  0  0  0
   37.4410   33.0910   39.8950 N   0  0  0  0  0  0  0  0  0  0  0  0
   38.5230   33.2440   40.6950 C   0  0  0  0  0  0  0  0  0  0  0  0
   39.2230   32.1810   41.0870 N   0  0  0  0  0  0  0  0  0  0  0  0
   39.5180   30.1400   41.0790 H   0  0  0  0  0  0  0  0  0  0  0  0
   36.1800   31.6970   38.8300 H   0  0  0  0  0  0  0  0  0  0  0  0
   38.8220   34.2430   41.0200 H   0  0  0  0  0  0  0  0  0  0  0  0
   36.5720   28.6080   42.0000 O   0  0  0  0  0  0  0  0  0  0  0  0
   37.0300   27.6130   42.7860 C   0  0  0  0  0  0  0  0  0  0  0  0
   36.1560   27.2710   43.6780 O   0  0  0  0  0  0  0  0  0  0  0  0
   36.8250   24.6390   41.9640 Cl  0  0  0  0  0  0  0  0  0  0  0  0
   38.2240   25.4320   42.6150 C   0  0  0  0  0  0  0  0  0  0  0  0
   38.2400   26.7570   42.9580 C   0  0  0  0  0  0  0  0  0  0  0  0
   39.3880   27.3380   43.4750 C   0  0  0  0  0  0  0  0  0  0  0  0
   39.3730   28.4060   43.7430 H   0  0  0  0  0  0  0  0  0  0  0  0
   40.5670   26.6550   43.6800 C   0  0  0  0  0  0  0  0  0  0  0  0
   41.4660   27.0870   44.0790 H   0  0  0  0  0  0  0  0  0  0  0  0
   40.5860   25.3200   43.3440 C   0  0  0  0  0  3  0  0  0  0  0  0
   39.4350   24.7630   42.8330 C   0  0  0  0  0  3  0  0  0  0  0  0
  2  1  2  6  0  0  0
  2 15  1  0  0  0  0
  3  2  1  0  0  0  0
  4  3  1  0  0  0  0
  5  7  1  0  0  0  0
  5  2  1  0  0  0  0
  6 12  1  0  0  0  0
  6 11  1  0  0  0  0
  7  6  2  0  0  0  0
  8  7  1  0  0  0  0
  8  9  2  0  0  0  0
  9 10  1  0  0  0  0
 10 14  1  0  0  0  0
 10 11  2  0  0  0  0
 13  8  1  0  0  0  0
 15 16  1  0  0  0  0
 16 20  1  0  0  0  0
 16 17  2  0  0  0  0
 18 19  1  0  0  0  0
 19 26  2  0  0  0  0
 19 20  1  0  0  0  0
 20 21  2  0  0  0  0
 21 23  1  0  0  0  0
 21 22  1  0  0  0  0
 23 24  1  0  0  0  0
 25 23  2  0  0  0  0
 26 25  1  0  0  0  0
M  END
>  <minimizedAffinity>
-5.1347599

$$$$

 OpenBabel03242514343D

 26 27  0  0  0  0  0  0  0  0999 V2000
   37.8810   29.6310   40.6200 O   0  0  0  0  0  0  0  0  0  0  0  0
   36.4000   29.4370   40.7440 P   0  0  1  0  0  0  0  0  0  0  0  0
   35.7980   30.6910   41.6850 O   0  0  0  0  0  0  0  0  0  0  0  0
   36.3750   31.4800   41.6700 H   0  0  0  0  0  0  0  0  0  0  0  0
   35.6930   29.4540   39.1870 O   0  0  0  0  0  0  0  0  0  0  0  0
   36.6100   29.6560   36.9930 C   0  0  0  0  0  0  0  0  0  0  0  0
   36.3310   28.8670   38.0970 C   0  0  0  0  0  0  0  0  0  0  0  0
   36.7010   27.5110   38.0740 C   0  0  0  0  0  0  0  0  0  0  0  0
   37.3190   27.0400   36.9630 N   0  0  0  0  0  0  0  0  0  0  0  0
   37.5750   27.8410   35.9020 C   0  0  0  0  0  0  0  0  0  0  0  0
   37.2210   29.1240   35.9290 N   0  0  0  0  0  0  0  0  0  0  0  0
   36.3600   30.7140   36.9210 H   0  0  0  0  0  0  0  0  0  0  0  0
   36.4760   26.9050   38.9480 H   0  0  0  0  0  0  0  0  0  0  0  0
   38.0740   27.4320   35.0200 H   0  0  0  0  0  0  0  0  0  0  0  0
   36.0880   27.9860   41.5030 O   0  0  0  0  0  0  0  0  0  0  0  0
   36.7660   27.4370   42.5310 C   0  0  0  0  0  0  0  0  0  0  0  0
   36.1220   27.5650   43.6480 O   0  0  0  0  0  0  0  0  0  0  0  0
   36.9140   24.4460   41.7620 Cl  0  0  0  0  0  0  0  0  0  0  0  0
   38.1800   25.3860   42.4870 C   0  0  0  0  0  0  0  0  0  0  0  0
   38.0400   26.7110   42.8020 C   0  0  0  0  0  0  0  0  0  0  0  0
   39.0870   27.4120   43.3820 C   0  0  0  0  0  0  0  0  0  0  0  0
   38.9470   28.4770   43.6250 H   0  0  0  0  0  0  0  0  0  0  0  0
   40.3110   26.8540   43.6790 C   0  0  0  0  0  0  0  0  0  0  0  0
   41.1330   27.3800   44.1280 H   0  0  0  0  0  0  0  0  0  0  0  0
   40.4860   25.5220   43.3740 C   0  0  0  0  0  3  0  0  0  0  0  0
   39.4330   24.8450   42.8000 C   0  0  0  0  0  3  0  0  0  0  0  0
  2  1  2  6  0  0  0
  2 15  1  0  0  0  0
  2  3  1  0  0  0  0
  4  3  1  0  0  0  0
  5  2  1  0  0  0  0
  6  7  1  0  0  0  0
  7  5  1  0  0  0  0
  8  7  2  0  0  0  0
  8 13  1  0  0  0  0
  9  8  1  0  0  0  0
 10 11  1  0  0  0  0
 10  9  2  0  0  0  0
 11  6  2  0  0  0  0
 12  6  1  0  0  0  0
 14 10  1  0  0  0  0
 15 16  1  0  0  0  0
 16 20  1  0  0  0  0
 16 17  2  0  0  0  0
 18 19  1  0  0  0  0
 19 26  2  0  0  0  0
 19 20  1  0  0  0  0
 20 21  2  0  0  0  0
 21 22  1  0  0  0  0
 21 23  1  0  0  0  0
 23 24  1  0  0  0  0
 25 23  2  0  0  0  0
 26 25  1  0  0  0  0
M  END
>  <minimizedAffinity>
-4.98719645

$$$$

 OpenBabel03242514343D

 26 27  0  0  0  0  0  0  0  0999 V2000
   37.1030   29.2760   40.0990 O   0  0  0  0  0  0  0  0  0  0  0  0
   37.1270   30.1840   41.2910 P   0  0  1  0  0  0  0  0  0  0  0  0
   35.6880   31.0510   41.3010 O   0  0  0  0  0  0  0  0  0  0  0  0
   34.9730   30.5930   40.8160 H   0  0  0  0  0  0  0  0  0  0  0  0
   37.2800   29.2500   42.7150 O   0  0  0  0  0  0  0  0  0  0  0  0
   37.6470   26.8920   42.6870 C   0  0  0  0  0  0  0  0  0  0  0  0
   38.1630   28.1730   42.7810 C   0  0  0  0  0  0  0  0  0  0  0  0
   39.5500   28.3380   42.9380 C   0  0  0  0  0  0  0  0  0  0  0  0
   40.3200   27.2230   42.9900 N   0  0  0  0  0  0  0  0  0  0  0  0
   39.7800   25.9850   42.8950 C   0  0  0  0  0  0  0  0  0  0  0  0
   38.4650   25.8360   42.7470 N   0  0  0  0  0  0  0  0  0  0  0  0
   36.5870   26.6680   42.5640 H   0  0  0  0  0  0  0  0  0  0  0  0
   39.9400   29.3500   43.0100 H   0  0  0  0  0  0  0  0  0  0  0  0
   40.4260   25.1050   42.9410 H   0  0  0  0  0  0  0  0  0  0  0  0
   38.4040   31.2480   41.1590 O   0  0  0  0  0  0  0  0  0  0  0  0
   38.6400   32.1240   40.1610 C   0  0  0  0  0  0  0  0  0  0  0  0
   37.6090   32.8740   39.9340 O   0  0  0  0  0  0  0  0  0  0  0  0
   39.1180   30.3470   37.6760 Cl  0  0  0  0  0  0  0  0  0  0  0  0
   39.9960   31.7820   38.0990 C   0  0  0  0  0  0  0  0  0  0  0  0
   39.7280   32.5200   39.2200 C   0  0  0  0  0  0  0  0  0  0  0  0
   40.4640   33.6590   39.5080 C   0  0  0  0  0  0  0  0  0  0  0  0
   40.2260   34.2330   40.4180 H   0  0  0  0  0  0  0  0  0  0  0  0
   41.4910   34.1280   38.7190 C   0  0  0  0  0  0  0  0  0  0  0  0
   42.0720   35.0070   38.9250 H   0  0  0  0  0  0  0  0  0  0  0  0
   41.7870   33.4100   37.5810 C   0  0  0  0  0  3  0  0  0  0  0  0
   41.0440   32.2810   37.3150 C   0  0  0  0  0  3  0  0  0  0  0  0
  2  1  2  6  0  0  0
  2  3  1  0  0  0  0
  2  5  1  0  0  0  0
  4  3  1  0  0  0  0
  5  7  1  0  0  0  0
  6 11  2  0  0  0  0
  6  7  1  0  0  0  0
  7  8  2  0  0  0  0
  8  9  1  0  0  0  0
  8 13  1  0  0  0  0
 10 14  1  0  0  0  0
 10  9  2  0  0  0  0
 11 10  1  0  0  0  0
 12  6  1  0  0  0  0
 15  2  1  0  0  0  0
 16 15  1  0  0  0  0
 17 16  2  0  0  0  0
 18 19  1  0  0  0  0
 19 20  1  0  0  0  0
 20 21  2  0  0  0  0
 20 16  1  0  0  0  0
 21 22  1  0  0  0  0
 23 24  1  0  0  0  0
 23 21  1  0  0  0  0
 25 23  2  0  0  0  0
 26 25  1  0  0  0  0
 26 19  2  0  0  0  0
M  END
>  <minimizedAffinity>
-4.91983986

$$$$

 OpenBabel03242514343D

 26 27  0  0  0  0  0  0  0  0999 V2000
   34.2480   29.2240   39.7040 O   0  0  0  0  0  0  0  0  0  0  0  0
   35.5940   29.5150   40.2930 P   0  0  1  0  0  0  0  0  0  0  0  0
   35.4750   30.9500   41.1570 O   0  0  0  0  0  0  0  0  0  0  0  0
   34.5590   31.1380   41.4440 H   0  0  0  0  0  0  0  0  0  0  0  0
   36.0560   28.2270   41.3200 O   0  0  0  0  0  0  0  0  0  0  0  0
   38.0530   26.9260   41.4240 C   0  0  0  0  0  0  0  0  0  0  0  0
   37.3720   28.0850   41.7550 C   0  0  0  0  0  0  0  0  0  0  0  0
   38.0310   29.0680   42.5120 C   0  0  0  0  0  0  0  0  0  0  0  0
   39.3130   28.8300   42.8840 N   0  0  0  0  0  0  0  0  0  0  0  0
   39.9480   27.6840   42.5420 C   0  0  0  0  0  0  0  0  0  0  0  0
   39.3170   26.7560   41.8250 N   0  0  0  0  0  0  0  0  0  0  0  0
   37.6240   26.1100   40.8420 H   0  0  0  0  0  0  0  0  0  0  0  0
   37.4830   29.9720   42.7630 H   0  0  0  0  0  0  0  0  0  0  0  0
   40.9810   27.5210   42.8560 H   0  0  0  0  0  0  0  0  0  0  0  0
   36.7110   29.7060   39.0700 O   0  0  0  0  0  0  0  0  0  0  0  0
   37.3980   30.8230   38.7560 C   0  0  0  0  0  0  0  0  0  0  0  0
   37.2670   31.1240   37.5030 O   0  0  0  0  0  0  0  0  0  0  0  0
   40.2310   29.9580   39.6410 Cl  0  0  0  0  0  0  0  0  0  0  0  0
   39.5360   31.5380   39.8160 C   0  0  0  0  0  0  0  0  0  0  0  0
   38.2700   31.8480   39.3990 C   0  0  0  0  0  0  0  0  0  0  0  0
   37.7660   33.1290   39.5660 C   0  0  0  0  0  0  0  0  0  0  0  0
   36.7440   33.3500   39.2220 H   0  0  0  0  0  0  0  0  0  0  0  0
   38.4730   34.1610   40.1430 C   0  0  0  0  0  0  0  0  0  0  0  0
   38.1010   35.1590   40.2810 H   0  0  0  0  0  0  0  0  0  0  0  0
   39.7520   33.8840   40.5730 C   0  0  0  0  0  3  0  0  0  0  0  0
   40.2320   32.6050   40.3990 C   0  0  0  0  0  3  0  0  0  0  0  0
  2  1  2  6  0  0  0
  2  3  1  0  0  0  0
  2  5  1  0  0  0  0
  3  4  1  0  0  0  0
  5  7  1  0  0  0  0
  6  7  2  0  0  0  0
  6 11  1  0  0  0  0
  7  8  1  0  0  0  0
  8 13  1  0  0  0  0
  8  9  2  0  0  0  0
 10 14  1  0  0  0  0
 10  9  1  0  0  0  0
 11 10  2  0  0  0  0
 12  6  1  0  0  0  0
 15  2  1  0  0  0  0
 16 15  1  0  0  0  0
 16 20  1  0  0  0  0
 17 16  2  0  0  0  0
 18 19  1  0  0  0  0
 19 26  1  0  0  0  0
 20 21  1  0  0  0  0
 20 19  2  0  0  0  0
 21 23  2  0  0  0  0
 22 21  1  0  0  0  0
 23 24  1  0  0  0  0
 23 25  1  0  0  0  0
 26 25  2  0  0  0  0
M  END
>  <minimizedAffinity>
-4.9013052

$$$$

 OpenBabel03242514343D

 26 27  0  0  0  0  0  0  0  0999 V2000
   37.4780   32.3910   40.5460 O   0  0  0  0  0  0  0  0  0  0  0  0
   36.9520   30.9920   40.4520 P   0  0  1  0  0  0  0  0  0  0  0  0
   35.5440   30.9120   41.3640 O   0  0  0  0  0  0  0  0  0  0  0  0
   35.1180   31.7870   41.4700 H   0  0  0  0  0  0  0  0  0  0  0  0
   36.6350   30.6130   38.8140 O   0  0  0  0  0  0  0  0  0  0  0  0
   34.8600   29.1080   38.2880 C   0  0  0  0  0  0  0  0  0  0  0  0
   36.2180   29.3390   38.4350 C   0  0  0  0  0  0  0  0  0  0  0  0
   37.1170   28.2850   38.1970 C   0  0  0  0  0  0  0  0  0  0  0  0
   36.6040   27.0840   37.8320 N   0  0  0  0  0  0  0  0  0  0  0  0
   35.2700   26.8940   37.6990 C   0  0  0  0  0  0  0  0  0  0  0  0
   34.4240   27.8970   37.9270 N   0  0  0  0  0  0  0  0  0  0  0  0
   34.0910   29.8620   38.4520 H   0  0  0  0  0  0  0  0  0  0  0  0
   38.1790   28.4820   38.3160 H   0  0  0  0  0  0  0  0  0  0  0  0
   34.8870   25.9140   37.4030 H   0  0  0  0  0  0  0  0  0  0  0  0
   38.0710   29.9290   41.0830 O   0  0  0  0  0  0  0  0  0  0  0  0
   37.8420   28.9110   41.9370 C   0  0  0  0  0  0  0  0  0  0  0  0
   37.2830   29.3240   43.0300 O   0  0  0  0  0  0  0  0  0  0  0  0
   40.4290   27.8470   43.2540 Cl  0  0  0  0  0  0  0  0  0  0  0  0
   39.1390   26.8890   42.5990 C   0  0  0  0  0  0  0  0  0  0  0  0
   38.0200   27.4330   42.0270 C   0  0  0  0  0  0  0  0  0  0  0  0
   37.0210   26.6170   41.5190 C   0  0  0  0  0  0  0  0  0  0  0  0
   36.1320   27.0820   41.0640 H   0  0  0  0  0  0  0  0  0  0  0  0
   37.0680   25.2400   41.5440 C   0  0  0  0  0  0  0  0  0  0  0  0
   36.3050   24.5920   41.1560 H   0  0  0  0  0  0  0  0  0  0  0  0
   38.1810   24.6600   42.1130 C   0  0  0  0  0  3  0  0  0  0  0  0
   39.1610   25.4890   42.6110 C   0  0  0  0  0  3  0  0  0  0  0  0
  2  1  2  1  0  0  0
  2 15  1  0  0  0  0
  2  3  1  0  0  0  0
  3  4  1  0  0  0  0
  5  2  1  0  0  0  0
  6  7  1  0  0  0  0
  6 12  1  0  0  0  0
  7  5  1  0  0  0  0
  8 13  1  0  0  0  0
  8  7  2  0  0  0  0
  9  8  1  0  0  0  0
 10  9  2  0  0  0  0
 10 11  1  0  0  0  0
 11  6  2  0  0  0  0
 14 10  1  0  0  0  0
 15 16  1  0  0  0  0
 16 20  1  0  0  0  0
 16 17  2  0  0  0  0
 19 26  1  0  0  0  0
 19 18  1  0  0  0  0
 20 19  2  0  0  0  0
 21 23  2  0  0  0  0
 21 20  1  0  0  0  0
 22 21  1  0  0  0  0
 23 25  1  0  0  0  0
 24 23  1  0  0  0  0
 25 26  2  0  0  0  0
M  END
>  <minimizedAffinity>
-4.88576603

$$$$

 OpenBabel03242514343D

 26 27  0  0  0  0  0  0  0  0999 V2000
   40.5140   30.7160   40.0550 O   0  0  0  0  0  0  0  0  0  0  0  0
   39.5760   31.8330   40.3990 P   0  0  1  0  0  0  0  0  0  0  0  0
   39.7720   32.1790   42.0310 O   0  0  0  0  0  0  0  0  0  0  0  0
   40.6490   31.9070   42.3680 H   0  0  0  0  0  0  0  0  0  0  0  0
   39.9460   33.2010   39.4410 O   0  0  0  0  0  0  0  0  0  0  0  0
   41.6020   33.4270   37.7390 C   0  0  0  0  0  0  0  0  0  0  0  0
   41.2580   33.4950   39.0780 C   0  0  0  0  0  0  0  0  0  0  0  0
   42.2420   33.8570   40.0150 C   0  0  0  0  0  0  0  0  0  0  0  0
   43.4890   34.1240   39.5550 N   0  0  0  0  0  0  0  0  0  0  0  0
   43.7890   34.0470   38.2370 C   0  0  0  0  0  0  0  0  0  0  0  0
   42.8530   33.7030   37.3550 N   0  0  0  0  0  0  0  0  0  0  0  0
   40.9080   33.1550   36.9440 H   0  0  0  0  0  0  0  0  0  0  0  0
   41.9560   33.9070   41.0620 H   0  0  0  0  0  0  0  0  0  0  0  0
   44.8030   34.2670   37.8970 H   0  0  0  0  0  0  0  0  0  0  0  0
   38.0040   31.3470   40.1290 O   0  0  0  0  0  0  0  0  0  0  0  0
   37.2410   30.5690   40.9230 C   0  0  0  0  0  0  0  0  0  0  0  0
   36.1030   31.1290   41.1850 O   0  0  0  0  0  0  0  0  0  0  0  0
   36.0820   28.1340   39.4090 Cl  0  0  0  0  0  0  0  0  0  0  0  0
   36.7880   28.1190   40.9940 C   0  0  0  0  0  0  0  0  0  0  0  0
   37.2810   29.2420   41.6030 C   0  0  0  0  0  0  0  0  0  0  0  0
   37.8340   29.1700   42.8730 C   0  0  0  0  0  0  0  0  0  0  0  0
   38.2230   30.0890   43.3390 H   0  0  0  0  0  0  0  0  0  0  0  0
   37.9300   28.0050   43.6020 C   0  0  0  0  0  0  0  0  0  0  0  0
   38.3550   27.9300   44.5850 H   0  0  0  0  0  0  0  0  0  0  0  0
   37.4440   26.8560   43.0180 C   0  0  0  0  0  3  0  0  0  0  0  0
   36.8990   26.9500   41.7570 C   0  0  0  0  0  3  0  0  0  0  0  0
  2  1  2  6  0  0  0
  2  3  1  0  0  0  0
  3  4  1  0  0  0  0
  5  2  1  0  0  0  0
  6  7  1  0  0  0  0
  7  5  1  0  0  0  0
  7  8  2  0  0  0  0
  8 13  1  0  0  0  0
  9  8  1  0  0  0  0
 10  9  2  0  0  0  0
 11  6  2  0  0  0  0
 11 10  1  0  0  0  0
 12  6  1  0  0  0  0
 14 10  1  0  0  0  0
 15  2  1  0  0  0  0
 15 16  1  0  0  0  0
 16 17  2  0  0  0  0
 16 20  1  0  0  0  0
 18 19  1  0  0  0  0
 19 20  2  0  0  0  0
 19 26  1  0  0  0  0
 20 21  1  0  0  0  0
 21 22  1  0  0  0  0
 21 23  2  0  0  0  0
 23 24  1  0  0  0  0
 25 23  1  0  0  0  0
 26 25  2  0  0  0  0
M  END
>  <minimizedAffinity>
-4.85936642

$$$$
