
 OpenBabel03242522523D

 26 27  0  0  0  0  0  0  0  0999 V2000
   36.8360   29.7580   39.5460 O   0  0  0  0  0  0  0  0  0  0  0  0
   36.7360   29.8720   41.0910 P   0  0  2  0  0  0  0  0  0  0  0  0
   35.5550   31.0390   41.3630 O   0  0  0  0  0  0  0  0  0  0  0  0
   34.8520   30.7680   41.9950 H   0  0  0  0  0  0  0  0  0  0  0  0
   38.2320   30.4120   41.6590 O   0  0  0  0  0  0  0  0  0  0  0  0
   40.8410   32.6270   40.4360 C   0  0  0  0  0  0  0  0  0  0  0  0
   40.1930   31.5010   40.9790 C   0  0  0  0  0  0  0  0  0  0  0  0
   38.8270   31.5300   41.1240 C   0  0  0  0  0  0  0  0  0  0  0  0
   38.1760   32.6510   40.7310 N   0  0  0  0  0  0  0  0  0  0  0  0
   38.7870   33.7230   40.2160 C   0  0  0  0  0  0  0  0  0  0  0  0
   40.1390   33.7050   40.0690 N   0  0  0  0  0  0  0  0  0  0  0  0
   41.9090   32.6970   40.2850 H   0  0  0  0  0  0  0  0  0  0  0  0
   40.9030   30.7270   41.2130 H   0  0  0  0  0  0  0  0  0  0  0  0
   38.1300   34.5450   39.9490 H   0  0  0  0  0  0  0  0  0  0  0  0
   36.3290   28.3950   41.7100 O   0  0  0  0  0  0  0  0  0  0  0  0
   36.9340   27.5540   42.5680 C   0  0  0  0  0  0  0  0  0  0  0  0
   36.2080   27.3280   43.6440 O   0  0  0  0  0  0  0  0  0  0  0  0
   36.8240   24.5150   41.7900 Cl  0  0  0  0  0  0  0  0  0  0  0  0
   38.1450   25.4020   42.5100 C   0  0  0  0  0  0  0  0  0  0  0  0
   38.1570   26.7260   42.8240 C   0  0  0  0  0  0  0  0  0  0  0  0
   39.3230   27.2530   43.3950 C   0  0  0  0  0  0  0  0  0  0  0  0
   39.2310   28.3240   43.6110 H   0  0  0  0  0  0  0  0  0  0  0  0
   40.4760   26.5790   43.6790 C   0  0  0  0  0  0  0  0  0  0  0  0
   41.3180   27.0840   44.1210 H   0  0  0  0  0  0  0  0  0  0  0  0
   40.4120   25.2520   43.3450 C   0  0  0  0  0  3  0  0  0  0  0  0
   39.3080   24.6610   42.7830 C   0  0  0  0  0  3  0  0  0  0  0  0
  2  1  2  6  0  0  0
  2  3  1  0  0  0  0
  2  5  1  0  0  0  0
  2 15  1  0  0  0  0
  3  4  1  0  0  0  0
  6  7  1  0  0  0  0
  7  8  2  0  0  0  0
  7 13  1  0  0  0  0
  8  5  1  0  0  0  0
  9  8  1  0  0  0  0
 10  9  2  0  0  0  0
 11 10  1  0  0  0  0
 11  6  2  0  0  0  0
 12  6  1  0  0  0  0
 14 10  1  0  0  0  0
 15 16  1  0  0  0  0
 16 20  1  0  0  0  0
 16 17  2  0  0  0  0
 18 19  1  0  0  0  0
 19 26  2  0  0  0  0
 19 20  1  0  0  0  0
 20 21  2  0  0  0  0
 21 22  1  0  0  0  0
 21 23  1  0  0  0  0
 23 24  1  0  0  0  0
 25 23  2  0  0  0  0
 26 25  1  0  0  0  0
M  END
>  <minimizedAffinity>
-5.84087133

$$$$

 OpenBabel03242522523D

 26 27  0  0  0  0  0  0  0  0999 V2000
   35.8750   29.8130   39.2810 O   0  0  0  0  0  0  0  0  0  0  0  0
   36.3590   29.8110   40.7560 P   0  0  2  0  0  0  0  0  0  0  0  0
   35.5770   31.1210   41.4680 O   0  0  0  0  0  0  0  0  0  0  0  0
   35.1130   30.9100   42.3080 H   0  0  0  0  0  0  0  0  0  0  0  0
   38.0280   30.0630   40.7450 O   0  0  0  0  0  0  0  0  0  0  0  0
   40.4690   32.7560   40.7730 C   0  0  0  0  0  0  0  0  0  0  0  0
   39.8970   31.4720   40.8650 C   0  0  0  0  0  0  0  0  0  0  0  0
   38.5490   31.3310   40.6450 C   0  0  0  0  0  0  0  0  0  0  0  0
   37.8390   32.4470   40.3480 N   0  0  0  0  0  0  0  0  0  0  0  0
   38.3780   33.6680   40.2600 C   0  0  0  0  0  0  0  0  0  0  0  0
   39.7120   33.8180   40.4770 N   0  0  0  0  0  0  0  0  0  0  0  0
   41.5180   32.9660   40.9310 H   0  0  0  0  0  0  0  0  0  0  0  0
   40.6450   30.7370   41.1050 H   0  0  0  0  0  0  0  0  0  0  0  0
   37.6800   34.4630   40.0140 H   0  0  0  0  0  0  0  0  0  0  0  0
   35.9480   28.3690   41.4510 O   0  0  0  0  0  0  0  0  0  0  0  0
   36.5930   27.5250   42.2770 C   0  0  0  0  0  0  0  0  0  0  0  0
   36.2710   27.7170   43.5400 O   0  0  0  0  0  0  0  0  0  0  0  0
   39.5180   28.2200   43.1780 Cl  0  0  0  0  0  0  0  0  0  0  0  0
   38.8600   26.6620   42.7400 C   0  0  0  0  0  0  0  0  0  0  0  0
   37.5800   26.4000   42.3630 C   0  0  0  0  0  0  0  0  0  0  0  0
   37.2460   25.0740   42.0550 C   0  0  0  0  0  0  0  0  0  0  0  0
   36.1950   24.9680   41.7630 H   0  0  0  0  0  0  0  0  0  0  0  0
   38.0750   23.9890   42.0890 C   0  0  0  0  0  0  0  0  0  0  0  0
   37.7140   23.0080   41.8310 H   0  0  0  0  0  0  0  0  0  0  0  0
   39.3510   24.3070   42.4740 C   0  0  0  0  0  3  0  0  0  0  0  0
   39.7560   25.5800   42.7920 C   0  0  0  0  0  3  0  0  0  0  0  0
  2  1  2  6  0  0  0
  2 15  1  0  0  0  0
  2  3  1  0  0  0  0
  3  4  1  0  0  0  0
  5  2  1  0  0  0  0
  6  7  1  0  0  0  0
  6 12  1  0  0  0  0
  7 13  1  0  0  0  0
  8  5  1  0  0  0  0
  8  7  2  0  0  0  0
  9  8  1  0  0  0  0
 10  9  2  0  0  0  0
 10 11  1  0  0  0  0
 11  6  2  0  0  0  0
 14 10  1  0  0  0  0
 15 16  1  0  0  0  0
 16 20  1  0  0  0  0
 16 17  2  0  0  0  0
 19 26  1  0  0  0  0
 19 18  1  0  0  0  0
 20 19  2  0  0  0  0
 21 23  2  0  0  0  0
 21 20  1  0  0  0  0
 22 21  1  0  0  0  0
 23 25  1  0  0  0  0
 24 23  1  0  0  0  0
 25 26  2  0  0  0  0
M  END
>  <minimizedAffinity>
-5.50931025

$$$$

 OpenBabel03242522523D

 26 27  0  0  0  0  0  0  0  0999 V2000
   34.4760   29.2940   39.6670 O   0  0  0  0  0  0  0  0  0  0  0  0
   35.8730   29.7690   40.1470 P   0  0  2  0  0  0  0  0  0  0  0  0
   35.5610   30.7630   41.4690 O   0  0  0  0  0  0  0  0  0  0  0  0
   36.0850   30.5470   42.2730 H   0  0  0  0  0  0  0  0  0  0  0  0
   36.5660   30.6630   38.8940 O   0  0  0  0  0  0  0  0  0  0  0  0
   39.7460   32.4190   39.0220 C   0  0  0  0  0  0  0  0  0  0  0  0
   38.7780   31.4290   38.7670 C   0  0  0  0  0  0  0  0  0  0  0  0
   37.4810   31.6550   39.1590 C   0  0  0  0  0  0  0  0  0  0  0  0
   37.2050   32.8310   39.7730 N   0  0  0  0  0  0  0  0  0  0  0  0
   38.1210   33.7740   40.0170 C   0  0  0  0  0  0  0  0  0  0  0  0
   39.4080   33.5590   39.6340 N   0  0  0  0  0  0  0  0  0  0  0  0
   40.7890   32.3310   38.7520 H   0  0  0  0  0  0  0  0  0  0  0  0
   39.2180   30.5840   38.2660 H   0  0  0  0  0  0  0  0  0  0  0  0
   37.7460   34.6620   40.5180 H   0  0  0  0  0  0  0  0  0  0  0  0
   36.7790   28.4450   40.5450 O   0  0  0  0  0  0  0  0  0  0  0  0
   37.2610   27.9700   41.7080 C   0  0  0  0  0  0  0  0  0  0  0  0
   36.3420   27.9340   42.6530 O   0  0  0  0  0  0  0  0  0  0  0  0
   39.5030   30.0220   42.4930 Cl  0  0  0  0  0  0  0  0  0  0  0  0
   39.4700   28.2960   42.7630 C   0  0  0  0  0  0  0  0  0  0  0  0
   38.4720   27.4400   42.4150 C   0  0  0  0  0  0  0  0  0  0  0  0
   38.6350   26.0830   42.7260 C   0  0  0  0  0  0  0  0  0  0  0  0
   37.7790   25.4790   42.4050 H   0  0  0  0  0  0  0  0  0  0  0  0
   39.7030   25.5070   43.3510 C   0  0  0  0  0  0  0  0  0  0  0  0
   39.7270   24.4470   43.5420 H   0  0  0  0  0  0  0  0  0  0  0  0
   40.6790   26.4100   43.6800 C   0  0  0  0  0  3  0  0  0  0  0  0
   40.5940   27.7540   43.4090 C   0  0  0  0  0  3  0  0  0  0  0  0
  2  1  2  6  0  0  0
  2 15  1  0  0  0  0
  2  3  1  0  0  0  0
  3  4  1  0  0  0  0
  5  8  1  0  0  0  0
  5  2  1  0  0  0  0
  6 11  1  0  0  0  0
  7  6  2  0  0  0  0
  7  8  1  0  0  0  0
  8  9  2  0  0  0  0
  9 10  1  0  0  0  0
 10 14  1  0  0  0  0
 11 10  2  0  0  0  0
 12  6  1  0  0  0  0
 13  7  1  0  0  0  0
 15 16  1  0  0  0  0
 16 20  1  0  0  0  0
 16 17  2  0  0  0  0
 18 19  1  0  0  0  0
 19 26  1  0  0  0  0
 20 21  1  0  0  0  0
 20 19  2  0  0  0  0
 21 23  2  0  0  0  0
 22 21  1  0  0  0  0
 23 24  1  0  0  0  0
 23 25  1  0  0  0  0
 26 25  2  0  0  0  0
M  END
>  <minimizedAffinity>
-5.30634069

$$$$

 OpenBabel03242522523D

 26 27  0  0  0  0  0  0  0  0999 V2000
   36.7530   31.2870   39.0610 O   0  0  0  0  0  0  0  0  0  0  0  0
   37.0320   30.7080   40.4740 P   0  0  2  0  0  0  0  0  0  0  0  0
   35.6090   30.9660   41.3350 O   0  0  0  0  0  0  0  0  0  0  0  0
   35.2620   30.1690   41.7960 H   0  0  0  0  0  0  0  0  0  0  0  0
   38.2940   31.6010   41.1510 O   0  0  0  0  0  0  0  0  0  0  0  0
   40.3880   34.1600   39.6400 C   0  0  0  0  0  0  0  0  0  0  0  0
   39.4120   33.5350   40.4410 C   0  0  0  0  0  0  0  0  0  0  0  0
   39.2580   32.1730   40.3550 C   0  0  0  0  0  0  0  0  0  0  0  0
   40.0640   31.5010   39.4960 N   0  0  0  0  0  0  0  0  0  0  0  0
   40.9910   32.0900   38.7340 C   0  0  0  0  0  0  0  0  0  0  0  0
   41.1510   33.4380   38.8110 N   0  0  0  0  0  0  0  0  0  0  0  0
   40.5810   35.2230   39.6380 H   0  0  0  0  0  0  0  0  0  0  0  0
   38.8960   34.2580   41.0480 H   0  0  0  0  0  0  0  0  0  0  0  0
   41.5580   31.4180   38.0960 H   0  0  0  0  0  0  0  0  0  0  0  0
   37.4080   29.1050   40.3290 O   0  0  0  0  0  0  0  0  0  0  0  0
   36.9880   27.9970   40.9650 C   0  0  0  0  0  0  0  0  0  0  0  0
   35.9880   28.2390   41.7890 O   0  0  0  0  0  0  0  0  0  0  0  0
   38.6980   27.0490   43.4220 Cl  0  0  0  0  0  0  0  0  0  0  0  0
   37.9420   26.0730   42.1860 C   0  0  0  0  0  0  0  0  0  0  0  0
   37.1980   26.5230   41.1400 C   0  0  0  0  0  0  0  0  0  0  0  0
   36.6710   25.5720   40.2540 C   0  0  0  0  0  0  0  0  0  0  0  0
   36.0900   26.0340   39.4480 H   0  0  0  0  0  0  0  0  0  0  0  0
   36.8200   24.2160   40.3210 C   0  0  0  0  0  0  0  0  0  0  0  0
   36.3700   23.5730   39.5840 H   0  0  0  0  0  0  0  0  0  0  0  0
   37.5760   23.8160   41.3910 C   0  0  0  0  0  3  0  0  0  0  0  0
   38.1270   24.6840   42.3010 C   0  0  0  0  0  3  0  0  0  0  0  0
  2  1  2  6  0  0  0
  2  5  1  0  0  0  0
  2  3  1  0  0  0  0
  3  4  1  0  0  0  0
  6  7  1  0  0  0  0
  7 13  1  0  0  0  0
  8  7  2  0  0  0  0
  8  5  1  0  0  0  0
  9  8  1  0  0  0  0
 10 11  1  0  0  0  0
 10  9  2  0  0  0  0
 11  6  2  0  0  0  0
 12  6  1  0  0  0  0
 14 10  1  0  0  0  0
 15  2  1  0  0  0  0
 15 16  1  0  0  0  0
 16 20  1  0  0  0  0
 16 17  2  0  0  0  0
 19 26  1  0  0  0  0
 19 18  1  0  0  0  0
 20 19  2  0  0  0  0
 21 23  2  0  0  0  0
 21 20  1  0  0  0  0
 22 21  1  0  0  0  0
 23 25  1  0  0  0  0
 24 23  1  0  0  0  0
 25 26  2  0  0  0  0
M  END
>  <minimizedAffinity>
-5.21679354

$$$$

 OpenBabel03242522523D

 26 27  0  0  0  0  0  0  0  0999 V2000
   39.8820   30.3790   38.6670 O   0  0  0  0  0  0  0  0  0  0  0  0
   38.8360   31.5240   38.6030 P   0  0  2  0  0  0  0  0  0  0  0  0
   38.6960   31.8900   36.9670 O   0  0  0  0  0  0  0  0  0  0  0  0
   37.7710   31.9130   36.6330 H   0  0  0  0  0  0  0  0  0  0  0  0
   39.4720   32.8430   39.4440 O   0  0  0  0  0  0  0  0  0  0  0  0
   42.8510   34.0090   40.1010 C   0  0  0  0  0  0  0  0  0  0  0  0
   41.5320   33.5580   40.3020 C   0  0  0  0  0  0  0  0  0  0  0  0
   40.7540   33.2780   39.2060 C   0  0  0  0  0  0  0  0  0  0  0  0
   41.3070   33.4520   37.9800 N   0  0  0  0  0  0  0  0  0  0  0  0
   42.5580   33.8800   37.7850 C   0  0  0  0  0  0  0  0  0  0  0  0
   43.3360   34.1610   38.8640 N   0  0  0  0  0  0  0  0  0  0  0  0
   43.5370   34.2550   40.9000 H   0  0  0  0  0  0  0  0  0  0  0  0
   41.3080   33.4890   41.3530 H   0  0  0  0  0  0  0  0  0  0  0  0
   42.8570   33.9700   36.7450 H   0  0  0  0  0  0  0  0  0  0  0  0
   37.4180   30.9880   39.2610 O   0  0  0  0  0  0  0  0  0  0  0  0
   37.0750   30.5510   40.4860 C   0  0  0  0  0  0  0  0  0  0  0  0
   36.1420   31.2980   41.0430 O   0  0  0  0  0  0  0  0  0  0  0  0
   39.6070   30.9110   42.3070 Cl  0  0  0  0  0  0  0  0  0  0  0  0
   38.4190   29.6290   42.3420 C   0  0  0  0  0  0  0  0  0  0  0  0
   37.3270   29.5140   41.5390 C   0  0  0  0  0  0  0  0  0  0  0  0
   36.4890   28.4070   41.7290 C   0  0  0  0  0  0  0  0  0  0  0  0
   35.6410   28.4060   41.0360 H   0  0  0  0  0  0  0  0  0  0  0  0
   36.6440   27.4070   42.6470 C   0  0  0  0  0  0  0  0  0  0  0  0
   35.9360   26.5980   42.7080 H   0  0  0  0  0  0  0  0  0  0  0  0
   37.7570   27.5700   43.4280 C   0  0  0  0  0  3  0  0  0  0  0  0
   38.6260   28.6250   43.3040 C   0  0  0  0  0  3  0  0  0  0  0  0
  2  1  2  1  0  0  0
  2 15  1  0  0  0  0
  2  5  1  0  0  0  0
  3  2  1  0  0  0  0
  4  3  1  0  0  0  0
  6  7  1  0  0  0  0
  6 12  1  0  0  0  0
  7 13  1  0  0  0  0
  8  5  1  0  0  0  0
  8  7  2  0  0  0  0
  9  8  1  0  0  0  0
 10  9  2  0  0  0  0
 10 11  1  0  0  0  0
 11  6  2  0  0  0  0
 14 10  1  0  0  0  0
 15 16  1  0  0  0  0
 16 17  2  0  0  0  0
 16 20  1  0  0  0  0
 18 19  1  0  0  0  0
 19 26  1  0  0  0  0
 20 21  1  0  0  0  0
 20 19  2  0  0  0  0
 21 23  2  0  0  0  0
 22 21  1  0  0  0  0
 23 24  1  0  0  0  0
 23 25  1  0  0  0  0
 26 25  2  0  0  0  0
M  END
>  <minimizedAffinity>
-5.02763319

$$$$

 OpenBabel03242522523D

 26 27  0  0  0  0  0  0  0  0999 V2000
   38.0360   30.1780   37.2660 O   0  0  0  0  0  0  0  0  0  0  0  0
   39.1370   31.0410   37.9400 P   0  0  2  0  0  0  0  0  0  0  0  0
   39.4840   32.2490   36.8210 O   0  0  0  0  0  0  0  0  0  0  0  0
   39.4670   33.1610   37.1880 H   0  0  0  0  0  0  0  0  0  0  0  0
   40.4870   30.0540   38.1710 O   0  0  0  0  0  0  0  0  0  0  0  0
   42.9970   29.1740   35.6940 C   0  0  0  0  0  0  0  0  0  0  0  0
   41.8750   29.1000   36.5410 C   0  0  0  0  0  0  0  0  0  0  0  0
   41.5900   30.1660   37.3580 C   0  0  0  0  0  0  0  0  0  0  0  0
   42.4130   31.2420   37.3000 N   0  0  0  0  0  0  0  0  0  0  0  0
   43.4800   31.3170   36.4980 C   0  0  0  0  0  0  0  0  0  0  0  0
   43.7710   30.2660   35.6860 N   0  0  0  0  0  0  0  0  0  0  0  0
   43.3010   28.3870   35.0180 H   0  0  0  0  0  0  0  0  0  0  0  0
   41.3640   28.1600   36.4170 H   0  0  0  0  0  0  0  0  0  0  0  0
   44.0420   32.2430   36.5650 H   0  0  0  0  0  0  0  0  0  0  0  0
   38.5490   31.6400   39.3630 O   0  0  0  0  0  0  0  0  0  0  0  0
   37.7830   31.1190   40.3390 C   0  0  0  0  0  0  0  0  0  0  0  0
   36.7030   31.8380   40.5670 O   0  0  0  0  0  0  0  0  0  0  0  0
   39.8450   30.9990   42.7030 Cl  0  0  0  0  0  0  0  0  0  0  0  0
   38.5210   29.9110   42.3630 C   0  0  0  0  0  0  0  0  0  0  0  0
   37.6410   30.0030   41.3300 C   0  0  0  0  0  0  0  0  0  0  0  0
   36.6400   29.0260   41.2340 C   0  0  0  0  0  0  0  0  0  0  0  0
   35.9850   29.1890   40.3710 H   0  0  0  0  0  0  0  0  0  0  0  0
   36.4410   27.9690   42.0750 C   0  0  0  0  0  0  0  0  0  0  0  0
   35.6360   27.2730   41.9070 H   0  0  0  0  0  0  0  0  0  0  0  0
   37.3530   27.9220   43.0960 C   0  0  0  0  0  3  0  0  0  0  0  0
   38.3610   28.8390   43.2580 C   0  0  0  0  0  3  0  0  0  0  0  0
  2  1  2  6  0  0  0
  2  5  1  0  0  0  0
  2 15  1  0  0  0  0
  3  4  1  0  0  0  0
  3  2  1  0  0  0  0
  6  7  1  0  0  0  0
  7  8  2  0  0  0  0
  8  5  1  0  0  0  0
  9  8  1  0  0  0  0
 10 14  1  0  0  0  0
 10  9  2  0  0  0  0
 11  6  2  0  0  0  0
 11 10  1  0  0  0  0
 12  6  1  0  0  0  0
 13  7  1  0  0  0  0
 15 16  1  0  0  0  0
 16 17  2  0  0  0  0
 16 20  1  0  0  0  0
 19 18  1  0  0  0  0
 19 26  1  0  0  0  0
 20 19  2  0  0  0  0
 21 20  1  0  0  0  0
 21 23  2  0  0  0  0
 22 21  1  0  0  0  0
 23 25  1  0  0  0  0
 24 23  1  0  0  0  0
 25 26  2  0  0  0  0
M  END
>  <minimizedAffinity>
-4.97026062

$$$$

 OpenBabel03242522523D

 26 27  0  0  0  0  0  0  0  0999 V2000
   37.2390   29.3560   40.1320 O   0  0  0  0  0  0  0  0  0  0  0  0
   37.1020   30.7670   40.7640 P   0  0  2  0  0  0  0  0  0  0  0  0
   35.5380   30.8120   41.3840 O   0  0  0  0  0  0  0  0  0  0  0  0
   35.4790   31.1070   42.3200 H   0  0  0  0  0  0  0  0  0  0  0  0
   37.2710   31.9000   39.5240 O   0  0  0  0  0  0  0  0  0  0  0  0
   40.5400   32.3950   38.0130 C   0  0  0  0  0  0  0  0  0  0  0  0
   39.2810   31.8430   38.3180 C   0  0  0  0  0  0  0  0  0  0  0  0
   38.4930   32.4700   39.2520 C   0  0  0  0  0  0  0  0  0  0  0  0
   38.9770   33.5960   39.8320 N   0  0  0  0  0  0  0  0  0  0  0  0
   40.1720   34.1220   39.5460 C   0  0  0  0  0  0  0  0  0  0  0  0
   40.9600   33.5090   38.6230 N   0  0  0  0  0  0  0  0  0  0  0  0
   41.2290   31.9730   37.2950 H   0  0  0  0  0  0  0  0  0  0  0  0
   39.1010   30.9560   37.7370 H   0  0  0  0  0  0  0  0  0  0  0  0
   40.4200   35.0270   40.0930 H   0  0  0  0  0  0  0  0  0  0  0  0
   38.2560   30.9430   41.9330 O   0  0  0  0  0  0  0  0  0  0  0  0
   39.2160   30.1320   42.4130 C   0  0  0  0  0  0  0  0  0  0  0  0
   40.2690   30.8000   42.8420 O   0  0  0  0  0  0  0  0  0  0  0  0
   37.0590   28.2330   43.6770 Cl  0  0  0  0  0  0  0  0  0  0  0  0
   38.7060   27.8580   43.2300 C   0  0  0  0  0  0  0  0  0  0  0  0
   39.6090   28.7090   42.6750 C   0  0  0  0  0  0  0  0  0  0  0  0
   40.8870   28.2100   42.3840 C   0  0  0  0  0  0  0  0  0  0  0  0
   41.5380   28.9720   41.9400 H   0  0  0  0  0  0  0  0  0  0  0  0
   41.3410   26.9410   42.5980 C   0  0  0  0  0  0  0  0  0  0  0  0
   42.3480   26.6610   42.3370 H   0  0  0  0  0  0  0  0  0  0  0  0
   40.3940   26.1250   43.1590 C   0  0  0  0  0  3  0  0  0  0  0  0
   39.1230   26.5370   43.4730 C   0  0  0  0  0  3  0  0  0  0  0  0
  2  1  2  6  0  0  0
  2  3  1  0  0  0  0
  2 15  1  0  0  0  0
  3  4  1  0  0  0  0
  5  2  1  0  0  0  0
  6  7  2  0  0  0  0
  6 11  1  0  0  0  0
  7  8  1  0  0  0  0
  8  5  1  0  0  0  0
  8  9  2  0  0  0  0
 10  9  1  0  0  0  0
 10 14  1  0  0  0  0
 11 10  2  0  0  0  0
 12  6  1  0  0  0  0
 13  7  1  0  0  0  0
 15 16  1  0  0  0  0
 16 20  1  0  0  0  0
 16 17  2  0  0  0  0
 19 26  1  0  0  0  0
 19 18  1  0  0  0  0
 20 19  2  0  0  0  0
 21 23  2  0  0  0  0
 21 20  1  0  0  0  0
 22 21  1  0  0  0  0
 23 25  1  0  0  0  0
 24 23  1  0  0  0  0
 25 26  2  0  0  0  0
M  END
>  <minimizedAffinity>
-4.96659327

$$$$

 OpenBabel03242522523D

 26 27  0  0  0  0  0  0  0  0999 V2000
   37.1200   31.4500   38.4390 O   0  0  0  0  0  0  0  0  0  0  0  0
   37.2280   31.8810   39.9260 P   0  0  2  0  0  0  0  0  0  0  0  0
   36.7920   33.5060   39.9370 O   0  0  0  0  0  0  0  0  0  0  0  0
   36.1060   33.7390   40.6020 H   0  0  0  0  0  0  0  0  0  0  0  0
   38.8410   31.7060   40.3920 O   0  0  0  0  0  0  0  0  0  0  0  0
   40.2030   28.3380   40.5120 C   0  0  0  0  0  0  0  0  0  0  0  0
   39.7290   29.5690   40.0190 C   0  0  0  0  0  0  0  0  0  0  0  0
   39.2990   30.5190   40.9130 C   0  0  0  0  0  0  0  0  0  0  0  0
   39.3600   30.2140   42.2320 N   0  0  0  0  0  0  0  0  0  0  0  0
   39.8090   29.0470   42.7050 C   0  0  0  0  0  0  0  0  0  0  0  0
   40.2350   28.1000   41.8280 N   0  0  0  0  0  0  0  0  0  0  0  0
   40.5600   27.5310   39.8870 H   0  0  0  0  0  0  0  0  0  0  0  0
   39.7770   29.5940   38.9440 H   0  0  0  0  0  0  0  0  0  0  0  0
   39.7960   28.9520   43.7870 H   0  0  0  0  0  0  0  0  0  0  0  0
   36.2120   30.9420   40.8290 O   0  0  0  0  0  0  0  0  0  0  0  0
   35.9000   29.6330   40.8080 C   0  0  0  0  0  0  0  0  0  0  0  0
   34.6890   29.4140   40.3340 O   0  0  0  0  0  0  0  0  0  0  0  0
   36.6370   27.7700   38.3910 Cl  0  0  0  0  0  0  0  0  0  0  0  0
   36.6990   27.4060   40.0990 C   0  0  0  0  0  0  0  0  0  0  0  0
   36.3790   28.2480   41.1190 C   0  0  0  0  0  0  0  0  0  0  0  0
   36.5010   27.7640   42.4290 C   0  0  0  0  0  0  0  0  0  0  0  0
   36.2210   28.5150   43.1750 H   0  0  0  0  0  0  0  0  0  0  0  0
   36.9130   26.5190   42.8100 C   0  0  0  0  0  0  0  0  0  0  0  0
   36.9700   26.2490   43.8510 H   0  0  0  0  0  0  0  0  0  0  0  0
   37.2220   25.7120   41.7460 C   0  0  0  0  0  3  0  0  0  0  0  0
   37.1280   26.1110   40.4360 C   0  0  0  0  0  3  0  0  0  0  0  0
  2  1  2  6  0  0  0
  2  3  1  0  0  0  0
  2  5  1  0  0  0  0
  2 15  1  0  0  0  0
  3  4  1  0  0  0  0
  5  8  1  0  0  0  0
  6 11  1  0  0  0  0
  7  6  2  0  0  0  0
  7  8  1  0  0  0  0
  8  9  2  0  0  0  0
  9 10  1  0  0  0  0
 10 14  1  0  0  0  0
 11 10  2  0  0  0  0
 12  6  1  0  0  0  0
 13  7  1  0  0  0  0
 16 15  1  0  0  0  0
 16 20  1  0  0  0  0
 17 16  2  0  0  0  0
 18 19  1  0  0  0  0
 19 26  2  0  0  0  0
 19 20  1  0  0  0  0
 20 21  2  0  0  0  0
 21 23  1  0  0  0  0
 21 22  1  0  0  0  0
 23 24  1  0  0  0  0
 25 23  2  0  0  0  0
 26 25  1  0  0  0  0
M  END
>  <minimizedAffinity>
-4.94339085

$$$$

 OpenBabel03242522523D

 26 27  0  0  0  0  0  0  0  0999 V2000
   37.7250   31.1320   38.9410 O   0  0  0  0  0  0  0  0  0  0  0  0
   37.4760   31.5350   40.4190 P   0  0  2  0  0  0  0  0  0  0  0  0
   37.0050   33.1500   40.3520 O   0  0  0  0  0  0  0  0  0  0  0  0
   36.1790   33.3530   40.8450 H   0  0  0  0  0  0  0  0  0  0  0  0
   38.9440   31.3890   41.2410 O   0  0  0  0  0  0  0  0  0  0  0  0
   40.7460   28.6250   42.7650 C   0  0  0  0  0  0  0  0  0  0  0  0
   40.1030   29.8650   42.5940 C   0  0  0  0  0  0  0  0  0  0  0  0
   39.5610   30.1670   41.3680 C   0  0  0  0  0  0  0  0  0  0  0  0
   39.6760   29.2420   40.3840 N   0  0  0  0  0  0  0  0  0  0  0  0
   40.2870   28.0630   40.5410 C   0  0  0  0  0  0  0  0  0  0  0  0
   40.8270   27.7560   41.7510 N   0  0  0  0  0  0  0  0  0  0  0  0
   41.2020   28.3000   43.6890 H   0  0  0  0  0  0  0  0  0  0  0  0
   40.1240   30.4360   43.5060 H   0  0  0  0  0  0  0  0  0  0  0  0
   40.2980   27.4290   39.6600 H   0  0  0  0  0  0  0  0  0  0  0  0
   36.3060   30.5550   41.0510 O   0  0  0  0  0  0  0  0  0  0  0  0
   35.9970   29.2560   40.8810 C   0  0  0  0  0  0  0  0  0  0  0  0
   34.7650   29.0870   40.4440 O   0  0  0  0  0  0  0  0  0  0  0  0
   37.0580   28.3000   43.6760 Cl  0  0  0  0  0  0  0  0  0  0  0  0
   36.9740   27.3980   42.1820 C   0  0  0  0  0  0  0  0  0  0  0  0
   36.4970   27.8470   40.9900 C   0  0  0  0  0  0  0  0  0  0  0  0
   36.5110   26.9620   39.9030 C   0  0  0  0  0  0  0  0  0  0  0  0
   36.1080   27.4180   38.9920 H   0  0  0  0  0  0  0  0  0  0  0  0
   36.9580   25.6710   39.9010 C   0  0  0  0  0  0  0  0  0  0  0  0
   36.9240   25.0750   39.0050 H   0  0  0  0  0  0  0  0  0  0  0  0
   37.4270   25.2690   41.1240 C   0  0  0  0  0  3  0  0  0  0  0  0
   37.4470   26.0750   42.2340 C   0  0  0  0  0  3  0  0  0  0  0  0
  2  1  2  6  0  0  0
  2 15  1  0  0  0  0
  2  5  1  0  0  0  0
  3  2  1  0  0  0  0
  3  4  1  0  0  0  0
  5  8  1  0  0  0  0
  6 12  1  0  0  0  0
  7  6  1  0  0  0  0
  7 13  1  0  0  0  0
  8  7  2  0  0  0  0
  9 10  2  0  0  0  0
  9  8  1  0  0  0  0
 10 11  1  0  0  0  0
 11  6  2  0  0  0  0
 14 10  1  0  0  0  0
 16 20  1  0  0  0  0
 16 15  1  0  0  0  0
 17 16  2  0  0  0  0
 19 26  1  0  0  0  0
 19 18  1  0  0  0  0
 20 19  2  0  0  0  0
 21 20  1  0  0  0  0
 22 21  1  0  0  0  0
 23 21  2  0  0  0  0
 23 25  1  0  0  0  0
 24 23  1  0  0  0  0
 25 26  2  0  0  0  0
M  END
>  <minimizedAffinity>
-4.92641258

$$$$
