
 OpenBabel03252503593D

 34 37  0  0  0  0  0  0  0  0999 V2000
   47.2380   34.8080   42.7550 C   0  0  0  0  0  0  0  0  0  0  0  0
   46.2440   35.7550   42.4800 C   0  0  0  0  0  0  0  0  0  0  0  0
   45.0990   35.7240   43.2530 C   0  0  0  0  0  0  0  0  0  0  0  0
   44.9970   34.7900   44.2270 N   0  0  0  0  0  0  0  0  0  0  0  0
   45.9870   33.8840   44.4650 C   0  0  0  0  0  0  0  0  0  0  0  0
   47.1120   33.8960   43.7250 N   0  0  0  0  0  0  0  0  0  0  0  0
   46.3810   36.4850   41.6820 H   0  0  0  0  0  0  0  0  0  0  0  0
   44.3210   36.4510   43.0520 H   0  0  0  0  0  0  0  0  0  0  0  0
   46.0050   31.5540   45.1720 C   0  0  0  0  0  0  0  0  0  0  0  0
   45.8540   32.8780   45.5300 C   0  0  0  0  0  0  0  0  0  0  0  0
   45.5890   33.2210   46.8430 C   0  0  0  0  0  0  0  0  0  0  0  0
   45.4800   32.2050   47.7800 C   0  0  0  0  0  0  0  0  0  0  0  0
   45.2350   32.2160   49.1030 N   0  0  0  0  0  0  0  0  0  0  0  0
   45.2280   30.9520   49.5790 C   0  0  0  0  0  0  0  0  0  0  0  0
   45.4740   30.0840   48.5470 C   0  0  0  0  0  0  0  0  0  0  0  0
   45.6310   30.8730   47.4250 C   0  0  0  0  0  0  0  0  0  0  0  0
   45.8960   30.5500   46.1060 C   0  0  0  0  0  0  0  0  0  0  0  0
   46.2150   31.2820   44.1310 H   0  0  0  0  0  0  0  0  0  0  0  0
   45.4730   34.2610   47.1130 H   0  0  0  0  0  0  0  0  0  0  0  0
   45.0670   33.0550   49.7180 H   0  0  0  0  0  0  0  0  0  0  0  0
   45.0570   30.6370   50.6090 H   0  0  0  0  0  0  0  0  0  0  0  0
   45.5440   28.9900   48.5430 H   0  0  0  0  0  0  0  0  0  0  0  0
   46.0220   29.5380   45.7730 H   0  0  0  0  0  0  0  0  0  0  0  0
   48.4230   34.8780   41.9180 C   0  0  0  0  0  0  0  0  0  0  0  0
   48.9010   35.9680   41.4580 O   0  0  0  0  0  0  0  0  0  0  0  0
   47.4660   33.5370   39.4860 Cl  0  0  0  0  0  0  0  0  0  0  0  0
   48.9070   33.0340   40.3450 C   0  0  0  0  0  0  0  0  0  0  0  0
   49.2410   33.7530   41.4730 C   0  0  0  0  0  0  0  0  0  0  0  0
   50.3760   33.3580   42.1490 C   0  0  0  0  0  0  0  0  0  0  0  0
   50.6840   33.8940   43.0480 H   0  0  0  0  0  0  0  0  0  0  0  0
   51.1290   32.2900   41.7040 C   0  0  0  0  0  0  0  0  0  0  0  0
   52.0160   32.0030   42.2550 H   0  0  0  0  0  0  0  0  0  0  0  0
   50.7430   31.6090   40.5670 C   0  0  0  0  0  3  0  0  0  0  0  0
   49.6030   31.9590   39.8340 C   0  0  0  0  0  3  0  0  0  0  0  0
  1  6  1  0  0  0  0
  2  1  2  0  0  0  0
  2  3  1  0  0  0  0
  3  4  2  0  0  0  0
  4  5  1  0  0  0  0
  5 10  1  0  0  0  0
  6  5  2  0  0  0  0
  7  2  1  0  0  0  0
  8  3  1  0  0  0  0
  9 10  2  0  0  0  0
  9 17  1  0  0  0  0
 10 11  1  0  0  0  0
 11 19  1  0  0  0  0
 11 12  2  0  0  0  0
 12 13  1  0  0  0  0
 13 14  1  0  0  0  0
 13 20  1  0  0  0  0
 14 21  1  0  0  0  0
 15 14  2  0  0  0  0
 16 12  1  0  0  0  0
 16 15  1  0  0  0  0
 17 16  2  0  0  0  0
 18  9  1  0  0  0  0
 22 15  1  0  0  0  0
 23 17  1  0  0  0  0
 24  1  1  0  0  0  0
 25 24  2  0  0  0  0
 26 27  1  0  0  0  0
 27 28  1  0  0  0  0
 28 24  1  0  0  0  0
 28 29  2  0  0  0  0
 29 30  1  0  0  0  0
 31 29  1  0  0  0  0
 31 32  1  0  0  0  0
 33 31  2  0  0  0  0
 34 27  2  0  0  0  0
 34 33  1  0  0  0  0
M  END
>  <minimizedAffinity>
-6.58146667

>  <minimizedRMSD>
1.37077355

$$$$
