
     RDKit          3D

 36 39  0  0  0  0  0  0  0  0999 V2000
   46.0400   31.6971   45.1449 C   0  0  0  0  0  0  0  0  0  0  0  0
   45.8021   32.9991   45.5348 C   0  0  0  0  0  0  0  0  0  0  0  0
   45.5258   33.2917   46.8576 C   0  0  0  0  0  0  0  0  0  0  0  0
   45.4952   32.2493   47.7714 C   0  0  0  0  0  0  0  0  0  0  0  0
   45.2611   32.2122   49.0962 N   0  0  0  0  0  0  0  0  0  0  0  0
   45.3447   30.9396   49.5413 C   0  0  0  0  0  0  0  0  0  0  0  0
   45.6411   30.1148   48.4867 C   0  0  0  0  0  0  0  0  0  0  0  0
   45.7339   30.9395   47.3833 C   0  0  0  0  0  0  0  0  0  0  0  0
   46.0085   30.6665   46.0550 C   0  0  0  0  0  0  0  0  0  0  0  0
   46.8964   34.9206   42.6292 C   0  0  0  0  0  0  0  0  0  0  0  0
   45.9658   35.9655   42.5512 C   0  0  0  0  0  0  0  0  0  0  0  0
   44.9643   36.0021   43.5024 C   0  0  0  0  0  0  0  0  0  0  0  0
   44.9323   35.0384   44.4509 N   0  0  0  0  0  0  0  0  0  0  0  0
   45.8561   34.0368   44.4942 C   0  0  0  0  0  0  0  0  0  0  0  0
   46.8416   33.9806   43.5775 N   0  0  0  0  0  0  0  0  0  0  0  0
   47.9302   34.9234   41.6088 C   0  0  0  0  0  0  0  0  0  0  0  0
   48.8038   35.8446   41.4895 O   0  0  0  0  0  0  0  0  0  0  0  0
   46.2590   31.4653   44.0958 H   0  0  0  0  0  0  0  0  0  0  0  0
   45.3406   34.3153   47.1543 H   0  0  0  0  0  0  0  0  0  0  0  0
   45.0420   33.0235   49.7320 H   0  0  0  0  0  0  0  0  0  0  0  0
   45.2050   30.5904   50.5653 H   0  0  0  0  0  0  0  0  0  0  0  0
   45.7864   29.0290   48.4561 H   0  0  0  0  0  0  0  0  0  0  0  0
   46.2009   29.6744   45.6969 H   0  0  0  0  0  0  0  0  0  0  0  0
   46.0408   36.7159   41.7635 H   0  0  0  0  0  0  0  0  0  0  0  0
   44.2374   36.8037   43.4554 H   0  0  0  0  0  0  0  0  0  0  0  0
   50.7245   34.0987   41.2341 Cl  0  0  0  0  0  0  0  0  0  0  0  0
   49.4028   33.4296   40.3013 C   0  0  0  0  0  0  0  0  0  0  0  0
   48.1393   33.9073   40.5806 C   0  0  0  0  0  0  0  0  0  0  0  0
   47.0979   33.3801   39.8458 C   0  0  0  0  0  0  0  0  0  0  0  0
   46.0790   33.7255   40.0292 H   0  0  0  0  0  0  0  0  0  0  0  0
   47.3277   32.4210   38.8811 C   0  0  0  0  0  0  0  0  0  0  0  0
   46.4901   32.0255   38.3199 H   0  0  0  0  0  0  0  0  0  0  0  0
   48.6147   31.9822   38.6467 C   0  0  0  0  0  0  0  0  0  0  0  0
   49.7160   32.4755   39.3565 C   0  0  0  0  0  0  0  0  0  0  0  0
   48.8221   31.2311   37.8960 H   0  0  0  0  0  0  0  0  0  0  0  0
   50.7320   32.1462   39.1893 H   0  0  0  0  0  0  0  0  0  0  0  0
  1  2  2  0
  1  9  1  0
  2  3  1  0
  3  4  2  0
  4  5  1  0
  5  6  1  0
  7  6  2  0
  8  4  1  0
  8  7  1  0
  9  8  2  0
 10 15  1  0
 11 10  2  0
 11 12  1  0
 12 13  2  0
 13 14  1  0
 14  2  1  0
 15 14  2  0
 16 10  1  0
 17 16  2  0
  1 18  1  0
  3 19  1  0
  5 20  1  0
  6 21  1  0
  7 22  1  0
  9 23  1  0
 11 24  1  0
 12 25  1  0
 26 27  1  0
 27 28  2  0
 28 29  1  0
 29 30  1  0
 29 31  2  0
 31 32  1  0
 31 33  1  0
 33 34  2  0
 34 27  1  0
 33 35  1  0
 34 36  1  0
 16 28  1  0
M  ISO  8  18  14  19  14  20   9  21  14  22  14  23  14  24  14  25  14
M  ISO  2  30  15  32  16
M  END
>  <DihAtoms>  (1) 
9,15,27,26

>  <DihDeg>  (1) 
44.99943772686341

$$$$
