
 OpenBabel03252507593D

 29 31  0  0  1  0  0  0  0  0999 V2000
   46.6370   34.5500   43.2570 C   0  0  0  0  0  0  0  0  0  0  0  0
   45.5950   35.5050   43.4590 C   0  0  0  0  0  0  0  0  0  0  0  0
   44.8190   35.3280   44.6030 C   0  0  0  0  0  0  0  0  0  0  0  0
   45.0890   34.2940   45.4320 N   0  0  0  0  0  0  0  0  0  0  0  0
   46.1130   33.4140   45.1670 C   0  0  0  0  0  0  0  0  0  0  0  0
   46.8890   33.5150   44.1060 N   0  0  0  0  0  0  0  0  0  0  0  0
   45.4550   36.2990   42.7400 H   0  0  0  0  0  0  0  0  0  0  0  0
   44.0190   36.0290   44.7960 H   0  0  0  0  0  0  0  0  0  0  0  0
   46.3620   32.2920   46.1240 C   0  0  1  0  0  0  0  0  0  0  0  0
   47.0570   32.5910   47.4290 C   0  0  0  0  0  0  0  0  0  0  0  0
   45.5720   32.3680   47.3730 C   0  0  1  0  0  0  0  0  0  0  0  0
   46.5930   31.3380   45.6460 H   0  0  0  0  0  0  0  0  0  0  0  0
   47.4860   33.5850   47.5970 H   0  0  0  0  0  0  0  0  0  0  0  0
   47.6220   31.7420   47.8500 H   0  0  0  0  0  0  0  0  0  0  0  0
   45.1250   31.4570   47.7830 H   0  0  0  0  0  0  0  0  0  0  0  0
   44.8260   33.5920   47.6770 N   0  0  0  0  0  0  0  0  0  0  0  0
   45.3190   34.1820   48.3770 H   0  0  0  0  0  0  0  0  0  0  0  0
   43.8350   33.3940   47.9310 H   0  0  0  0  0  0  0  0  0  0  0  0
   47.4330   34.7510   42.0610 C   0  0  0  0  0  0  0  0  0  0  0  0
   48.1420   35.7820   41.8500 O   0  0  0  0  0  0  0  0  0  0  0  0
   44.9420   34.2170   40.3820 Cl  0  0  0  0  0  0  0  0  0  0  0  0
   46.4300   33.3410   40.1690 C   0  0  0  0  0  0  0  0  0  0  0  0
   47.4400   33.7130   41.0080 C   0  0  0  0  0  0  0  0  0  0  0  0
   48.6740   33.0600   40.9080 C   0  0  0  0  0  0  0  0  0  0  0  0
   49.5390   33.2880   41.5350 H   0  0  0  0  0  0  0  0  0  0  0  0
   48.9020   32.0570   39.9920 C   0  0  0  0  0  0  0  0  0  0  0  0
   49.8310   31.5320   39.8820 H   0  0  0  0  0  0  0  0  0  0  0  0
   47.8700   31.6910   39.1490 C   0  0  0  0  0  3  0  0  0  0  0  0
   46.6640   32.3370   39.2550 C   0  0  0  0  0  3  0  0  0  0  0  0
  1  2  2  0  0  0  0
  1  6  1  0  0  0  0
  2  3  1  0  0  0  0
  3  8  1  0  0  0  0
  3  4  2  0  0  0  0
  5  4  1  0  0  0  0
  5  9  1  0  0  0  0
  6  5  2  0  0  0  0
  7  2  1  0  0  0  0
  9 12  1  6  0  0  0
  9 11  1  0  0  0  0
  9 10  1  0  0  0  0
 10 13  1  0  0  0  0
 10 14  1  0  0  0  0
 11 10  1  0  0  0  0
 11 16  1  0  0  0  0
 11 15  1  1  0  0  0
 16 18  1  0  0  0  0
 16 17  1  0  0  0  0
 19  1  1  0  0  0  0
 20 19  2  0  0  0  0
 22 21  1  0  0  0  0
 22 23  1  0  0  0  0
 23 19  1  0  0  0  0
 24 23  2  0  0  0  0
 24 25  1  0  0  0  0
 26 24  1  0  0  0  0
 27 26  1  0  0  0  0
 28 29  1  0  0  0  0
 28 26  2  0  0  0  0
 29 22  2  0  0  0  0
M  END
>  <minimizedAffinity>
-5.35592318

>  <minimizedRMSD>
1.51315713

$$$$
