REMARK  Name = 
REMARK  3 active torsions:
REMARK  status: ('A' for Active; 'I' for Inactive)
REMARK    1  A    between atoms: C_2  and  C_14
REMARK    2  A    between atoms: C_10  and  C_16
REMARK    3  A    between atoms: C_16  and  C_28
REMARK                            x       y       z     vdW  Elec       q    Type
REMARK                         _______ _______ _______ _____ _____    ______ ____
ROOT
ATOM      1  C   UNL     1      46.896  34.921  42.629  0.00  0.00    +0.000 A 
ATOM      2  C   UNL     1      45.966  35.965  42.551  0.00  0.00    +0.000 A 
ATOM      3  C   UNL     1      44.964  36.002  43.502  0.00  0.00    +0.000 A 
ATOM      4  N   UNL     1      44.932  35.038  44.451  0.00  0.00    +0.000 NA
ATOM      5  C   UNL     1      45.856  34.037  44.494  0.00  0.00    +0.000 A 
ATOM      6  N   UNL     1      46.842  33.981  43.578  0.00  0.00    +0.000 NA
ATOM      7  H   UNL     1      46.041  36.716  41.764  0.00  0.00    +0.000 HD
ATOM      8  H   UNL     1      44.237  36.804  43.455  0.00  0.00    +0.000 HD
ENDROOT
BRANCH   5  10
ATOM      9  C   UNL     1      46.040  31.697  45.145  0.00  0.00    +0.000 A 
ATOM     10  C   UNL     1      45.802  32.999  45.535  0.00  0.00    +0.000 A 
ATOM     11  C   UNL     1      45.526  33.292  46.858  0.00  0.00    +0.000 A 
ATOM     12  C   UNL     1      45.495  32.249  47.771  0.00  0.00    +0.000 A 
ATOM     13  N   UNL     1      45.261  32.212  49.096  0.00  0.00    +0.000 N 
ATOM     14  C   UNL     1      45.345  30.940  49.541  0.00  0.00    +0.000 A 
ATOM     15  C   UNL     1      45.641  30.115  48.487  0.00  0.00    +0.000 A 
ATOM     16  C   UNL     1      45.734  30.939  47.383  0.00  0.00    +0.000 A 
ATOM     17  C   UNL     1      46.008  30.666  46.055  0.00  0.00    +0.000 A 
ATOM     18  H   UNL     1      46.259  31.465  44.096  0.00  0.00    +0.000 HD
ATOM     19  H   UNL     1      45.341  34.315  47.154  0.00  0.00    +0.000 HD
ATOM     20  H   UNL     1      45.042  33.023  49.732  0.00  0.00    +0.000 HD
ATOM     21  H   UNL     1      45.205  30.590  50.565  0.00  0.00    +0.000 HD
ATOM     22  H   UNL     1      45.786  29.029  48.456  0.00  0.00    +0.000 HD
ATOM     23  H   UNL     1      46.201  29.674  45.697  0.00  0.00    +0.000 HD
ENDBRANCH   5  10
BRANCH   1  24
ATOM     24  C   UNL     1      47.930  34.923  41.609  0.00  0.00    +0.000 C 
ATOM     25  O   UNL     1      48.804  35.845  41.489  0.00  0.00    +0.000 OA
BRANCH  24  28
ATOM     26 CL   UNL     1      46.031  32.684  41.678  0.00  0.00    +0.000 Cl
ATOM     27  C   UNL     1      47.319  32.801  40.498  0.00  0.00    +0.000 A 
ATOM     28  C   UNL     1      48.139  33.907  40.581  0.00  0.00    +0.000 A 
ATOM     29  C   UNL     1      49.154  34.000  39.651  0.00  0.00    +0.000 A 
ATOM     30  H   UNL     1      49.831  34.856  39.675  0.00  0.00    +0.000 HD
ATOM     31  C   UNL     1      49.326  33.023  38.692  0.00  0.00    +0.000 A 
ATOM     32  H   UNL     1      50.132  33.123  37.975  0.00  0.00    +0.000 HD
ATOM     33  C   UNL     1      48.473  31.940  38.660  0.00  0.00    +0.000 A 
ATOM     34  C   UNL     1      47.423  31.785  39.573  0.00  0.00    +0.000 A 
ENDBRANCH  24  28
ENDBRANCH   1  24
TORSDOF 3
