
 OpenBabel03252502293D

 35 37  0  0  0  0  0  0  0  0999 V2000
   37.4040   31.3410   40.0170 C   0  0  0  0  0  0  0  0  0  0  0  0
   37.3170   32.6680   39.6020 C   0  0  0  0  0  0  0  0  0  0  0  0
   38.2510   33.5910   40.1050 C   0  0  0  0  0  0  0  0  0  0  0  0
   39.2140   33.1640   40.9840 C   0  0  0  0  0  0  0  0  0  0  0  0
   39.3110   31.8660   41.3980 C   0  0  0  0  0  0  0  0  0  0  0  0
   38.3730   30.9640   40.8860 C   0  0  0  0  0  0  0  0  0  0  0  0
   36.5610   33.0120   38.9110 H   0  0  0  0  0  0  0  0  0  0  0  0
   38.2290   34.6220   39.8190 H   0  0  0  0  0  0  0  0  0  0  0  0
   39.9840   33.8020   41.4300 H   0  0  0  0  0  0  0  0  0  0  0  0
   40.0150   31.4100   42.0770 H   0  0  0  0  0  0  0  0  0  0  0  0
   35.3060   29.2190   37.7240 C   0  0  0  0  0  0  0  0  0  0  0  0
   36.3230   30.1060   38.1310 C   0  0  0  0  0  0  0  0  0  0  0  0
   36.4140   30.4470   39.4650 C   0  0  0  0  0  0  0  0  0  0  0  0
   35.4980   29.8930   40.3140 N   0  0  0  0  0  0  0  0  0  0  0  0
   34.5280   29.0450   39.9150 C   0  0  0  0  0  0  0  0  0  0  0  0
   34.4280   28.7030   38.6090 N   0  0  0  0  0  0  0  0  0  0  0  0
   37.0270   30.5240   37.4370 H   0  0  0  0  0  0  0  0  0  0  0  0
   33.8110   28.6150   40.5950 H   0  0  0  0  0  0  0  0  0  0  0  0
   35.1840   28.8360   36.2960 C   0  0  0  0  0  0  0  0  0  0  0  0
   36.0760   29.6300   35.5660 F   0  0  0  0  0  0  0  0  0  0  0  0
   33.9050   29.2330   35.8840 F   0  0  0  0  0  0  0  0  0  0  0  0
   35.4260   27.5020   36.0650 F   0  0  0  0  0  0  0  0  0  0  0  0
   38.1120   28.8530   42.4070 C   0  0  0  0  0  0  0  0  0  0  0  0
   37.7810   29.3100   43.4920 O   0  0  0  0  0  0  0  0  0  0  0  0
   38.3640   29.5940   41.2330 N   0  0  0  0  0  0  0  0  0  0  0  0
   38.6120   29.0610   40.3630 H   0  0  0  0  0  0  0  0  0  0  0  0
   40.7550   27.6270   43.2790 Cl  0  0  0  0  0  0  0  0  0  0  0  0
   39.3730   26.6730   42.7310 C   0  0  0  0  0  0  0  0  0  0  0  0
   38.2500   27.3990   42.3700 C   0  0  0  0  0  0  0  0  0  0  0  0
   37.1020   26.7500   41.9230 C   0  0  0  0  0  0  0  0  0  0  0  0
   36.1830   27.2720   41.6240 H   0  0  0  0  0  0  0  0  0  0  0  0
   37.0500   25.3630   41.8240 C   0  0  0  0  0  0  0  0  0  0  0  0
   36.1570   24.8640   41.4760 H   0  0  0  0  0  0  0  0  0  0  0  0
   38.1990   24.6560   42.1940 C   0  0  0  0  0  3  0  0  0  0  0  0
   39.3420   25.2990   42.6400 C   0  0  0  0  0  3  0  0  0  0  0  0
  1  6  1  0  0  0  0
  2  1  2  0  0  0  0
  2  3  1  0  0  0  0
  3  4  2  0  0  0  0
  4  5  1  0  0  0  0
  4  9  1  0  0  0  0
  5 10  1  0  0  0  0
  6 25  1  0  0  0  0
  6  5  2  0  0  0  0
  7  2  1  0  0  0  0
  8  3  1  0  0  0  0
 11 12  2  0  0  0  0
 11 16  1  0  0  0  0
 12 13  1  0  0  0  0
 13  1  1  0  0  0  0
 13 14  2  0  0  0  0
 15 14  1  0  0  0  0
 15 18  1  0  0  0  0
 16 15  2  0  0  0  0
 17 12  1  0  0  0  0
 19 11  1  0  0  0  0
 20 19  1  0  0  0  0
 21 19  1  0  0  0  0
 22 19  1  0  0  0  0
 23 24  2  0  0  0  0
 25 23  1  0  0  0  0
 26 25  1  0  0  0  0
 28 27  1  0  0  0  0
 29 23  1  0  0  0  0
 29 28  2  0  0  0  0
 30 29  1  0  0  0  0
 31 30  1  0  0  0  0
 32 30  2  0  0  0  0
 32 34  1  0  0  0  0
 33 32  1  0  0  0  0
 34 35  2  0  0  0  0
 35 28  1  0  0  0  0
M  END
>  <minimizedAffinity>
-6.28258181

$$$$

 OpenBabel03252502293D

 35 37  0  0  0  0  0  0  0  0999 V2000
   35.4950   27.9990   38.4720 C   0  0  0  0  0  0  0  0  0  0  0  0
   34.5490   28.2190   37.4740 C   0  0  0  0  0  0  0  0  0  0  0  0
   34.0750   27.1150   36.7430 C   0  0  0  0  0  0  0  0  0  0  0  0
   34.5540   25.8620   37.0290 C   0  0  0  0  0  0  0  0  0  0  0  0
   35.4830   25.6330   38.0050 C   0  0  0  0  0  0  0  0  0  0  0  0
   35.9400   26.7430   38.7200 C   0  0  0  0  0  0  0  0  0  0  0  0
   34.1660   29.2030   37.2420 H   0  0  0  0  0  0  0  0  0  0  0  0
   33.3480   27.2290   35.9660 H   0  0  0  0  0  0  0  0  0  0  0  0
   34.2500   24.9420   36.5190 H   0  0  0  0  0  0  0  0  0  0  0  0
   35.9340   24.7050   38.3230 H   0  0  0  0  0  0  0  0  0  0  0  0
   36.9290   31.3520   39.4010 C   0  0  0  0  0  0  0  0  0  0  0  0
   36.5440   30.2660   38.5900 C   0  0  0  0  0  0  0  0  0  0  0  0
   35.9400   29.1750   39.1810 C   0  0  0  0  0  0  0  0  0  0  0  0
   35.7550   29.2230   40.5340 N   0  0  0  0  0  0  0  0  0  0  0  0
   36.1270   30.2670   41.3020 C   0  0  0  0  0  0  0  0  0  0  0  0
   36.7210   31.3430   40.7340 N   0  0  0  0  0  0  0  0  0  0  0  0
   36.7040   30.2610   37.5290 H   0  0  0  0  0  0  0  0  0  0  0  0
   35.9750   30.2920   42.3690 H   0  0  0  0  0  0  0  0  0  0  0  0
   37.5810   32.5370   38.7920 C   0  0  0  0  0  0  0  0  0  0  0  0
   36.8930   33.6740   39.2310 F   0  0  0  0  0  0  0  0  0  0  0  0
   37.3390   32.4620   37.4140 F   0  0  0  0  0  0  0  0  0  0  0  0
   38.9200   32.6390   39.0900 F   0  0  0  0  0  0  0  0  0  0  0  0
   37.1840   25.7110   40.7760 C   0  0  0  0  0  0  0  0  0  0  0  0
   36.6000   24.6550   40.9740 O   0  0  0  0  0  0  0  0  0  0  0  0
   36.8970   26.6420   39.7550 N   0  0  0  0  0  0  0  0  0  0  0  0
   37.5050   27.4960   39.6880 H   0  0  0  0  0  0  0  0  0  0  0  0
   36.5450   27.2550   43.3160 Cl  0  0  0  0  0  0  0  0  0  0  0  0
   38.1640   26.6800   42.9080 C   0  0  0  0  0  0  0  0  0  0  0  0
   38.2720   25.9950   41.7090 C   0  0  0  0  0  0  0  0  0  0  0  0
   39.5010   25.4960   41.2860 C   0  0  0  0  0  0  0  0  0  0  0  0
   39.6470   24.9460   40.3470 H   0  0  0  0  0  0  0  0  0  0  0  0
   40.6510   25.6710   42.0510 C   0  0  0  0  0  0  0  0  0  0  0  0
   41.6030   25.2840   41.7190 H   0  0  0  0  0  0  0  0  0  0  0  0
   40.5130   26.3680   43.2560 C   0  0  0  0  0  3  0  0  0  0  0  0
   39.2900   26.8640   43.6790 C   0  0  0  0  0  3  0  0  0  0  0  0
  1  6  1  0  0  0  0
  1 13  1  0  0  0  0
  2  1  2  0  0  0  0
  3  4  2  0  0  0  0
  3  2  1  0  0  0  0
  4  5  1  0  0  0  0
  5 10  1  0  0  0  0
  5  6  2  0  0  0  0
  6 25  1  0  0  0  0
  7  2  1  0  0  0  0
  8  3  1  0  0  0  0
  9  4  1  0  0  0  0
 11 16  1  0  0  0  0
 12 13  1  0  0  0  0
 12 11  2  0  0  0  0
 13 14  2  0  0  0  0
 14 15  1  0  0  0  0
 15 18  1  0  0  0  0
 16 15  2  0  0  0  0
 17 12  1  0  0  0  0
 19 22  1  0  0  0  0
 19 20  1  0  0  0  0
 19 11  1  0  0  0  0
 21 19  1  0  0  0  0
 23 24  2  0  0  0  0
 23 29  1  0  0  0  0
 25 23  1  0  0  0  0
 26 25  1  0  0  0  0
 28 27  1  0  0  0  0
 28 35  1  0  0  0  0
 29 28  2  0  0  0  0
 30 29  1  0  0  0  0
 30 32  2  0  0  0  0
 31 30  1  0  0  0  0
 32 34  1  0  0  0  0
 33 32  1  0  0  0  0
 34 35  2  0  0  0  0
M  END
>  <minimizedAffinity>
-6.22502279

$$$$

 OpenBabel03252502293D

 35 37  0  0  0  0  0  0  0  0999 V2000
   40.1210   30.0770   42.0540 C   0  0  0  0  0  0  0  0  0  0  0  0
   41.2570   30.3460   42.8120 C   0  0  0  0  0  0  0  0  0  0  0  0
   42.0930   31.4050   42.4160 C   0  0  0  0  0  0  0  0  0  0  0  0
   41.7690   32.1390   41.3030 C   0  0  0  0  0  0  0  0  0  0  0  0
   40.6580   31.8850   40.5510 C   0  0  0  0  0  0  0  0  0  0  0  0
   39.8410   30.8280   40.9610 C   0  0  0  0  0  0  0  0  0  0  0  0
   41.5200   29.7720   43.6900 H   0  0  0  0  0  0  0  0  0  0  0  0
   42.9780   31.6540   42.9640 H   0  0  0  0  0  0  0  0  0  0  0  0
   42.3530   32.9800   40.9150 H   0  0  0  0  0  0  0  0  0  0  0  0
   40.2970   32.3840   39.6640 H   0  0  0  0  0  0  0  0  0  0  0  0
   38.7270   26.6640   42.8160 C   0  0  0  0  0  0  0  0  0  0  0  0
   39.6070   27.6430   42.3120 C   0  0  0  0  0  0  0  0  0  0  0  0
   39.3090   28.9750   42.5140 C   0  0  0  0  0  0  0  0  0  0  0  0
   38.1620   29.2590   43.2010 N   0  0  0  0  0  0  0  0  0  0  0  0
   37.3270   28.3150   43.6800 C   0  0  0  0  0  0  0  0  0  0  0  0
   37.6070   27.0060   43.4870 N   0  0  0  0  0  0  0  0  0  0  0  0
   40.5010   27.3850   41.7760 H   0  0  0  0  0  0  0  0  0  0  0  0
   36.4240   28.5530   44.2200 H   0  0  0  0  0  0  0  0  0  0  0  0
   39.0230   25.2260   42.6110 C   0  0  0  0  0  0  0  0  0  0  0  0
   39.8520   24.8090   43.6590 F   0  0  0  0  0  0  0  0  0  0  0  0
   39.8090   25.1400   41.4550 F   0  0  0  0  0  0  0  0  0  0  0  0
   37.8970   24.4390   42.5460 F   0  0  0  0  0  0  0  0  0  0  0  0
   37.3900   31.0440   40.0720 C   0  0  0  0  0  0  0  0  0  0  0  0
   37.0210   32.1330   40.4880 O   0  0  0  0  0  0  0  0  0  0  0  0
   38.6610   30.4640   40.2720 N   0  0  0  0  0  0  0  0  0  0  0  0
   38.8470   29.5310   39.8280 H   0  0  0  0  0  0  0  0  0  0  0  0
   37.6860   30.9270   37.0480 Cl  0  0  0  0  0  0  0  0  0  0  0  0
   36.3660   30.1500   37.9280 C   0  0  0  0  0  0  0  0  0  0  0  0
   36.3890   30.3090   39.3040 C   0  0  0  0  0  0  0  0  0  0  0  0
   35.3970   29.7400   40.0980 C   0  0  0  0  0  0  0  0  0  0  0  0
   35.3640   29.8310   41.1920 H   0  0  0  0  0  0  0  0  0  0  0  0
   34.3610   29.0000   39.5370 C   0  0  0  0  0  0  0  0  0  0  0  0
   33.5930   28.5610   40.1570 H   0  0  0  0  0  0  0  0  0  0  0  0
   34.3630   28.8570   38.1460 C   0  0  0  0  0  3  0  0  0  0  0  0
   35.3490   29.4230   37.3530 C   0  0  0  0  0  3  0  0  0  0  0  0
  1 13  1  0  0  0  0
  1  2  1  0  0  0  0
  2  7  1  0  0  0  0
  3  2  2  0  0  0  0
  3  8  1  0  0  0  0
  4  3  1  0  0  0  0
  5  6  1  0  0  0  0
  5  4  2  0  0  0  0
  6  1  2  0  0  0  0
  9  4  1  0  0  0  0
 10  5  1  0  0  0  0
 11 16  1  0  0  0  0
 12 13  1  0  0  0  0
 12 11  2  0  0  0  0
 13 14  2  0  0  0  0
 14 15  1  0  0  0  0
 15 18  1  0  0  0  0
 16 15  2  0  0  0  0
 17 12  1  0  0  0  0
 19 11  1  0  0  0  0
 19 20  1  0  0  0  0
 21 19  1  0  0  0  0
 22 19  1  0  0  0  0
 23 25  1  0  0  0  0
 23 24  2  0  0  0  0
 25  6  1  0  0  0  0
 26 25  1  0  0  0  0
 27 28  1  0  0  0  0
 28 29  1  0  0  0  0
 29 23  1  0  0  0  0
 29 30  2  0  0  0  0
 30 31  1  0  0  0  0
 32 30  1  0  0  0  0
 32 33  1  0  0  0  0
 34 32  2  0  0  0  0
 35 28  2  0  0  0  0
 35 34  1  0  0  0  0
M  END
>  <minimizedAffinity>
-6.11607981

$$$$

 OpenBabel03252502293D

 35 37  0  0  0  0  0  0  0  0999 V2000
   37.8800   30.9080   39.5870 C   0  0  0  0  0  0  0  0  0  0  0  0
   37.8540   32.2100   39.0940 C   0  0  0  0  0  0  0  0  0  0  0  0
   38.5140   33.2160   39.8200 C   0  0  0  0  0  0  0  0  0  0  0  0
   39.1600   32.8920   40.9860 C   0  0  0  0  0  0  0  0  0  0  0  0
   39.1930   31.6200   41.4810 C   0  0  0  0  0  0  0  0  0  0  0  0
   38.5310   30.6340   40.7440 C   0  0  0  0  0  0  0  0  0  0  0  0
   37.3470   32.4740   38.1760 H   0  0  0  0  0  0  0  0  0  0  0  0
   38.5240   34.2330   39.4860 H   0  0  0  0  0  0  0  0  0  0  0  0
   39.7010   33.6010   41.6220 H   0  0  0  0  0  0  0  0  0  0  0  0
   39.6620   31.2400   42.3770 H   0  0  0  0  0  0  0  0  0  0  0  0
   35.2540   28.8230   37.8780 C   0  0  0  0  0  0  0  0  0  0  0  0
   35.8080   29.8330   38.6900 C   0  0  0  0  0  0  0  0  0  0  0  0
   37.1810   29.9250   38.7940 C   0  0  0  0  0  0  0  0  0  0  0  0
   37.9210   29.0160   38.0910 N   0  0  0  0  0  0  0  0  0  0  0  0
   37.3810   28.0540   37.3160 C   0  0  0  0  0  0  0  0  0  0  0  0
   36.0360   27.9530   37.2070 N   0  0  0  0  0  0  0  0  0  0  0  0
   35.1980   30.5310   39.2300 H   0  0  0  0  0  0  0  0  0  0  0  0
   37.9770   27.3420   36.7660 H   0  0  0  0  0  0  0  0  0  0  0  0
   33.7810   28.7010   37.7500 C   0  0  0  0  0  0  0  0  0  0  0  0
   33.4890   27.3640   37.4550 F   0  0  0  0  0  0  0  0  0  0  0  0
   33.4180   29.4250   36.6070 F   0  0  0  0  0  0  0  0  0  0  0  0
   33.0980   29.1070   38.8730 F   0  0  0  0  0  0  0  0  0  0  0  0
   38.0000   28.5720   42.2640 C   0  0  0  0  0  0  0  0  0  0  0  0
   37.4090   29.0550   43.2190 O   0  0  0  0  0  0  0  0  0  0  0  0
   38.4920   29.2790   41.1450 N   0  0  0  0  0  0  0  0  0  0  0  0
   38.9540   28.7250   40.3830 H   0  0  0  0  0  0  0  0  0  0  0  0
   40.5480   27.5130   43.5420 Cl  0  0  0  0  0  0  0  0  0  0  0  0
   39.2870   26.4710   42.8750 C   0  0  0  0  0  0  0  0  0  0  0  0
   38.1950   27.1260   42.3290 C   0  0  0  0  0  0  0  0  0  0  0  0
   37.1420   26.4040   41.7740 C   0  0  0  0  0  0  0  0  0  0  0  0
   36.2520   26.8690   41.3290 H   0  0  0  0  0  0  0  0  0  0  0  0
   37.1550   25.0130   41.7510 C   0  0  0  0  0  0  0  0  0  0  0  0
   36.3350   24.4580   41.3190 H   0  0  0  0  0  0  0  0  0  0  0  0
   38.2700   24.3780   42.3080 C   0  0  0  0  0  3  0  0  0  0  0  0
   39.3190   25.0950   42.8610 C   0  0  0  0  0  3  0  0  0  0  0  0
  1  6  1  0  0  0  0
  2  1  2  0  0  0  0
  2  3  1  0  0  0  0
  3  4  2  0  0  0  0
  4  5  1  0  0  0  0
  4  9  1  0  0  0  0
  5 10  1  0  0  0  0
  6 25  1  0  0  0  0
  6  5  2  0  0  0  0
  7  2  1  0  0  0  0
  8  3  1  0  0  0  0
 11 12  1  0  0  0  0
 12 13  2  0  0  0  0
 12 17  1  0  0  0  0
 13  1  1  0  0  0  0
 14 13  1  0  0  0  0
 15 14  2  0  0  0  0
 16 15  1  0  0  0  0
 16 11  2  0  0  0  0
 18 15  1  0  0  0  0
 19 11  1  0  0  0  0
 19 22  1  0  0  0  0
 20 19  1  0  0  0  0
 21 19  1  0  0  0  0
 23 29  1  0  0  0  0
 23 24  2  0  0  0  0
 25 23  1  0  0  0  0
 26 25  1  0  0  0  0
 28 27  1  0  0  0  0
 29 28  2  0  0  0  0
 30 29  1  0  0  0  0
 31 30  1  0  0  0  0
 32 30  2  0  0  0  0
 32 34  1  0  0  0  0
 33 32  1  0  0  0  0
 34 35  2  0  0  0  0
 35 28  1  0  0  0  0
M  END
>  <minimizedAffinity>
-6.04865122

$$$$

 OpenBabel03252502293D

 35 37  0  0  0  0  0  0  0  0999 V2000
   37.9010   31.0350   39.6690 C   0  0  0  0  0  0  0  0  0  0  0  0
   37.7180   32.3020   39.1220 C   0  0  0  0  0  0  0  0  0  0  0  0
   38.2670   33.4090   39.7930 C   0  0  0  0  0  0  0  0  0  0  0  0
   38.9640   33.2120   40.9590 C   0  0  0  0  0  0  0  0  0  0  0  0
   39.1500   31.9740   41.5050 C   0  0  0  0  0  0  0  0  0  0  0  0
   38.5960   30.8880   40.8230 C   0  0  0  0  0  0  0  0  0  0  0  0
   37.1700   32.4660   38.2040 H   0  0  0  0  0  0  0  0  0  0  0  0
   38.1560   34.4040   39.4160 H   0  0  0  0  0  0  0  0  0  0  0  0
   39.4280   34.0050   41.5540 H   0  0  0  0  0  0  0  0  0  0  0  0
   39.6720   31.6900   42.4070 H   0  0  0  0  0  0  0  0  0  0  0  0
   35.5060   28.6550   38.0050 C   0  0  0  0  0  0  0  0  0  0  0  0
   35.9520   29.7640   38.7510 C   0  0  0  0  0  0  0  0  0  0  0  0
   37.3080   29.9440   38.9310 C   0  0  0  0  0  0  0  0  0  0  0  0
   38.1400   29.0190   38.3650 N   0  0  0  0  0  0  0  0  0  0  0  0
   37.7030   27.9600   37.6530 C   0  0  0  0  0  0  0  0  0  0  0  0
   36.3760   27.7720   37.4700 N   0  0  0  0  0  0  0  0  0  0  0  0
   35.2710   30.4730   39.1820 H   0  0  0  0  0  0  0  0  0  0  0  0
   38.3700   27.2370   37.2120 H   0  0  0  0  0  0  0  0  0  0  0  0
   34.0540   28.4370   37.7980 C   0  0  0  0  0  0  0  0  0  0  0  0
   33.6470   29.2630   36.7440 F   0  0  0  0  0  0  0  0  0  0  0  0
   33.4080   28.9360   38.9370 F   0  0  0  0  0  0  0  0  0  0  0  0
   33.7290   27.1260   37.5370 F   0  0  0  0  0  0  0  0  0  0  0  0
   38.2040   28.8100   42.3630 C   0  0  0  0  0  0  0  0  0  0  0  0
   37.4260   29.2170   43.2140 O   0  0  0  0  0  0  0  0  0  0  0  0
   38.7180   29.5560   41.2800 N   0  0  0  0  0  0  0  0  0  0  0  0
   39.3570   29.0630   40.6080 H   0  0  0  0  0  0  0  0  0  0  0  0
   36.7120   26.6740   40.7940 Cl  0  0  0  0  0  0  0  0  0  0  0  0
   38.0530   26.3200   41.8880 C   0  0  0  0  0  0  0  0  0  0  0  0
   38.6140   27.4170   42.5220 C   0  0  0  0  0  0  0  0  0  0  0  0
   39.6770   27.2560   43.4070 C   0  0  0  0  0  0  0  0  0  0  0  0
   40.1620   28.0870   43.9360 H   0  0  0  0  0  0  0  0  0  0  0  0
   40.2030   25.9970   43.6800 C   0  0  0  0  0  0  0  0  0  0  0  0
   41.0270   25.8760   44.3670 H   0  0  0  0  0  0  0  0  0  0  0  0
   39.6160   24.9080   43.0270 C   0  0  0  0  0  3  0  0  0  0  0  0
   38.5580   25.0660   42.1460 C   0  0  0  0  0  3  0  0  0  0  0  0
  1  6  1  0  0  0  0
  2  1  2  0  0  0  0
  2  3  1  0  0  0  0
  3  4  2  0  0  0  0
  4  5  1  0  0  0  0
  4  9  1  0  0  0  0
  5 10  1  0  0  0  0
  6 25  1  0  0  0  0
  6  5  2  0  0  0  0
  7  2  1  0  0  0  0
  8  3  1  0  0  0  0
 11 12  1  0  0  0  0
 12 13  2  0  0  0  0
 12 17  1  0  0  0  0
 13  1  1  0  0  0  0
 14 13  1  0  0  0  0
 15 14  2  0  0  0  0
 16 15  1  0  0  0  0
 16 11  2  0  0  0  0
 18 15  1  0  0  0  0
 19 11  1  0  0  0  0
 19 21  1  0  0  0  0
 20 19  1  0  0  0  0
 22 19  1  0  0  0  0
 23 29  1  0  0  0  0
 23 24  2  0  0  0  0
 25 23  1  0  0  0  0
 26 25  1  0  0  0  0
 27 28  1  0  0  0  0
 28 35  2  0  0  0  0
 28 29  1  0  0  0  0
 29 30  2  0  0  0  0
 30 32  1  0  0  0  0
 30 31  1  0  0  0  0
 32 33  1  0  0  0  0
 34 32  2  0  0  0  0
 35 34  1  0  0  0  0
M  END
>  <minimizedAffinity>
-6.03557158

$$$$

 OpenBabel03252502293D

 35 37  0  0  0  0  0  0  0  0999 V2000
   36.8750   28.7080   39.9620 C   0  0  0  0  0  0  0  0  0  0  0  0
   35.7610   28.0790   39.4140 C   0  0  0  0  0  0  0  0  0  0  0  0
   35.2040   28.6060   38.2360 C   0  0  0  0  0  0  0  0  0  0  0  0
   35.7680   29.7180   37.6630 C   0  0  0  0  0  0  0  0  0  0  0  0
   36.8610   30.3450   38.1910 C   0  0  0  0  0  0  0  0  0  0  0  0
   37.3990   29.8040   39.3620 C   0  0  0  0  0  0  0  0  0  0  0  0
   35.3100   27.2030   39.8590 H   0  0  0  0  0  0  0  0  0  0  0  0
   34.3470   28.1610   37.7740 H   0  0  0  0  0  0  0  0  0  0  0  0
   35.4100   30.2040   36.7490 H   0  0  0  0  0  0  0  0  0  0  0  0
   37.3920   31.2160   37.8390 H   0  0  0  0  0  0  0  0  0  0  0  0
   38.4390   26.4060   42.4970 C   0  0  0  0  0  0  0  0  0  0  0  0
   37.9690   26.8640   41.2490 C   0  0  0  0  0  0  0  0  0  0  0  0
   37.3950   28.1160   41.1730 C   0  0  0  0  0  0  0  0  0  0  0  0
   37.3200   28.8390   42.3300 N   0  0  0  0  0  0  0  0  0  0  0  0
   37.7720   28.3930   43.5190 C   0  0  0  0  0  0  0  0  0  0  0  0
   38.3360   27.1660   43.6080 N   0  0  0  0  0  0  0  0  0  0  0  0
   38.0440   26.2700   40.3580 H   0  0  0  0  0  0  0  0  0  0  0  0
   37.7060   28.9730   44.4260 H   0  0  0  0  0  0  0  0  0  0  0  0
   39.0590   25.0640   42.6080 C   0  0  0  0  0  0  0  0  0  0  0  0
   39.7360   24.8080   41.4100 F   0  0  0  0  0  0  0  0  0  0  0  0
   38.0060   24.1400   42.6480 F   0  0  0  0  0  0  0  0  0  0  0  0
   39.9120   24.9420   43.6800 F   0  0  0  0  0  0  0  0  0  0  0  0
   38.8230   31.5690   40.6650 C   0  0  0  0  0  0  0  0  0  0  0  0
   38.0440   32.4930   40.8550 O   0  0  0  0  0  0  0  0  0  0  0  0
   38.5300   30.3560   40.0070 N   0  0  0  0  0  0  0  0  0  0  0  0
   39.2930   29.6380   39.9440 H   0  0  0  0  0  0  0  0  0  0  0  0
   40.6600   33.4710   39.1620 Cl  0  0  0  0  0  0  0  0  0  0  0  0
   41.1370   32.6150   40.6320 C   0  0  0  0  0  0  0  0  0  0  0  0
   40.1720   31.7870   41.1820 C   0  0  0  0  0  0  0  0  0  0  0  0
   40.4380   31.0620   42.3410 C   0  0  0  0  0  0  0  0  0  0  0  0
   39.7140   30.3920   42.8220 H   0  0  0  0  0  0  0  0  0  0  0  0
   41.6740   31.1470   42.9760 C   0  0  0  0  0  0  0  0  0  0  0  0
   41.8760   30.5830   43.8740 H   0  0  0  0  0  0  0  0  0  0  0  0
   42.6290   31.9900   42.3970 C   0  0  0  0  0  3  0  0  0  0  0  0
   42.3650   32.7120   41.2440 C   0  0  0  0  0  3  0  0  0  0  0  0
  1 13  1  0  0  0  0
  2  7  1  0  0  0  0
  2  1  1  0  0  0  0
  3  2  2  0  0  0  0
  4  5  2  0  0  0  0
  4  3  1  0  0  0  0
  5  6  1  0  0  0  0
  6  1  2  0  0  0  0
  6 25  1  0  0  0  0
  8  3  1  0  0  0  0
  9  4  1  0  0  0  0
 10  5  1  0  0  0  0
 11 19  1  0  0  0  0
 11 16  1  0  0  0  0
 12 11  2  0  0  0  0
 13 12  1  0  0  0  0
 13 14  2  0  0  0  0
 14 15  1  0  0  0  0
 15 16  2  0  0  0  0
 15 18  1  0  0  0  0
 17 12  1  0  0  0  0
 19 21  1  0  0  0  0
 19 22  1  0  0  0  0
 20 19  1  0  0  0  0
 23 24  2  0  0  0  0
 23 29  1  0  0  0  0
 25 23  1  0  0  0  0
 26 25  1  0  0  0  0
 27 28  1  0  0  0  0
 28 29  2  0  0  0  0
 28 35  1  0  0  0  0
 29 30  1  0  0  0  0
 30 31  1  0  0  0  0
 30 32  2  0  0  0  0
 32 33  1  0  0  0  0
 34 32  1  0  0  0  0
 35 34  2  0  0  0  0
M  END
>  <minimizedAffinity>
-5.99008417

$$$$

 OpenBabel03252502293D

 35 37  0  0  0  0  0  0  0  0999 V2000
   36.8280   29.1890   38.1290 C   0  0  0  0  0  0  0  0  0  0  0  0
   36.1370   29.6610   37.0170 C   0  0  0  0  0  0  0  0  0  0  0  0
   35.0800   28.8880   36.5050 C   0  0  0  0  0  0  0  0  0  0  0  0
   34.7600   27.6990   37.1110 C   0  0  0  0  0  0  0  0  0  0  0  0
   35.4300   27.2250   38.2030 C   0  0  0  0  0  0  0  0  0  0  0  0
   36.4780   28.0080   38.6950 C   0  0  0  0  0  0  0  0  0  0  0  0
   36.3830   30.5960   36.5330 H   0  0  0  0  0  0  0  0  0  0  0  0
   34.5160   29.2050   35.6530 H   0  0  0  0  0  0  0  0  0  0  0  0
   33.9570   27.0270   36.7900 H   0  0  0  0  0  0  0  0  0  0  0  0
   35.2770   26.3150   38.7640 H   0  0  0  0  0  0  0  0  0  0  0  0
   38.8780   32.0210   39.5230 C   0  0  0  0  0  0  0  0  0  0  0  0
   37.7410   31.3080   39.0940 C   0  0  0  0  0  0  0  0  0  0  0  0
   37.9040   30.0300   38.6000 C   0  0  0  0  0  0  0  0  0  0  0  0
   39.1770   29.5350   38.5600 N   0  0  0  0  0  0  0  0  0  0  0  0
   40.2590   30.2260   38.9740 C   0  0  0  0  0  0  0  0  0  0  0  0
   40.1120   31.4800   39.4590 N   0  0  0  0  0  0  0  0  0  0  0  0
   36.7530   31.7260   39.1390 H   0  0  0  0  0  0  0  0  0  0  0  0
   41.2590   29.8230   38.9360 H   0  0  0  0  0  0  0  0  0  0  0  0
   38.7310   33.3970   40.0570 C   0  0  0  0  0  0  0  0  0  0  0  0
   37.5390   33.9250   39.5490 F   0  0  0  0  0  0  0  0  0  0  0  0
   39.7550   34.1600   39.4810 F   0  0  0  0  0  0  0  0  0  0  0  0
   38.7360   33.4540   41.4310 F   0  0  0  0  0  0  0  0  0  0  0  0
   37.0960   27.7170   41.2200 C   0  0  0  0  0  0  0  0  0  0  0  0
   36.1260   28.1660   41.8140 O   0  0  0  0  0  0  0  0  0  0  0  0
   37.2480   27.6330   39.8190 N   0  0  0  0  0  0  0  0  0  0  0  0
   38.1270   27.1940   39.4490 H   0  0  0  0  0  0  0  0  0  0  0  0
   38.9090   29.7650   42.5490 Cl  0  0  0  0  0  0  0  0  0  0  0  0
   39.0890   28.0210   42.7630 C   0  0  0  0  0  0  0  0  0  0  0  0
   38.1740   27.2360   42.0800 C   0  0  0  0  0  0  0  0  0  0  0  0
   38.2220   25.8470   42.1750 C   0  0  0  0  0  0  0  0  0  0  0  0
   37.5250   25.1760   41.6570 H   0  0  0  0  0  0  0  0  0  0  0  0
   39.1840   25.2120   42.9530 C   0  0  0  0  0  0  0  0  0  0  0  0
   39.2190   24.1340   43.0240 H   0  0  0  0  0  0  0  0  0  0  0  0
   40.0950   26.0280   43.6310 C   0  0  0  0  0  3  0  0  0  0  0  0
   40.0490   27.4100   43.5380 C   0  0  0  0  0  3  0  0  0  0  0  0
  1 13  1  0  0  0  0
  1  6  1  0  0  0  0
  2  1  2  0  0  0  0
  3  2  1  0  0  0  0
  3  4  2  0  0  0  0
  4  5  1  0  0  0  0
  5  6  2  0  0  0  0
  5 10  1  0  0  0  0
  6 25  1  0  0  0  0
  7  2  1  0  0  0  0
  8  3  1  0  0  0  0
  9  4  1  0  0  0  0
 11 19  1  0  0  0  0
 12 17  1  0  0  0  0
 12 11  2  0  0  0  0
 13 12  1  0  0  0  0
 14 13  2  0  0  0  0
 14 15  1  0  0  0  0
 15 16  2  0  0  0  0
 16 11  1  0  0  0  0
 18 15  1  0  0  0  0
 19 22  1  0  0  0  0
 20 19  1  0  0  0  0
 21 19  1  0  0  0  0
 23 24  2  0  0  0  0
 23 29  1  0  0  0  0
 25 23  1  0  0  0  0
 26 25  1  0  0  0  0
 27 28  1  0  0  0  0
 28 35  1  0  0  0  0
 29 30  1  0  0  0  0
 29 28  2  0  0  0  0
 30 32  2  0  0  0  0
 31 30  1  0  0  0  0
 32 33  1  0  0  0  0
 32 34  1  0  0  0  0
 35 34  2  0  0  0  0
M  END
>  <minimizedAffinity>
-5.87343454

$$$$

 OpenBabel03252502293D

 35 37  0  0  0  0  0  0  0  0999 V2000
   36.7720   26.1900   39.8280 C   0  0  0  0  0  0  0  0  0  0  0  0
   36.4110   24.8460   39.7720 C   0  0  0  0  0  0  0  0  0  0  0  0
   36.5090   24.0750   40.9430 C   0  0  0  0  0  0  0  0  0  0  0  0
   36.9540   24.6620   42.1010 C   0  0  0  0  0  0  0  0  0  0  0  0
   37.3110   25.9790   42.1690 C   0  0  0  0  0  0  0  0  0  0  0  0
   37.2070   26.7280   40.9930 C   0  0  0  0  0  0  0  0  0  0  0  0
   36.0600   24.3760   38.8640 H   0  0  0  0  0  0  0  0  0  0  0  0
   36.2450   23.0390   40.9550 H   0  0  0  0  0  0  0  0  0  0  0  0
   37.0660   24.1500   43.0620 H   0  0  0  0  0  0  0  0  0  0  0  0
   37.6730   26.5520   43.0090 H   0  0  0  0  0  0  0  0  0  0  0  0
   35.4860   28.1140   36.8600 C   0  0  0  0  0  0  0  0  0  0  0  0
   35.4650   27.4130   38.0820 C   0  0  0  0  0  0  0  0  0  0  0  0
   36.6500   26.9220   38.5890 C   0  0  0  0  0  0  0  0  0  0  0  0
   37.7830   27.1520   37.8600 N   0  0  0  0  0  0  0  0  0  0  0  0
   37.7930   27.8240   36.6910 C   0  0  0  0  0  0  0  0  0  0  0  0
   36.6370   28.3100   36.1820 N   0  0  0  0  0  0  0  0  0  0  0  0
   34.5570   27.2500   38.6310 H   0  0  0  0  0  0  0  0  0  0  0  0
   38.6940   27.9990   36.1240 H   0  0  0  0  0  0  0  0  0  0  0  0
   34.2260   28.6510   36.2910 C   0  0  0  0  0  0  0  0  0  0  0  0
   34.5680   29.5670   35.2900 F   0  0  0  0  0  0  0  0  0  0  0  0
   33.6230   29.4100   37.3030 F   0  0  0  0  0  0  0  0  0  0  0  0
   33.3930   27.6780   35.7910 F   0  0  0  0  0  0  0  0  0  0  0  0
   37.5300   29.1830   41.8340 C   0  0  0  0  0  0  0  0  0  0  0  0
   37.2110   29.1350   43.0140 O   0  0  0  0  0  0  0  0  0  0  0  0
   37.5420   28.0990   40.9300 N   0  0  0  0  0  0  0  0  0  0  0  0
   37.8700   28.2850   39.9500 H   0  0  0  0  0  0  0  0  0  0  0  0
   40.2940   30.2170   42.5710 Cl  0  0  0  0  0  0  0  0  0  0  0  0
   39.1410   31.1320   41.5950 C   0  0  0  0  0  0  0  0  0  0  0  0
   37.9270   30.5060   41.3590 C   0  0  0  0  0  0  0  0  0  0  0  0
   36.9420   31.1350   40.6020 C   0  0  0  0  0  0  0  0  0  0  0  0
   35.9630   30.6890   40.3820 H   0  0  0  0  0  0  0  0  0  0  0  0
   37.1460   32.4030   40.0650 C   0  0  0  0  0  0  0  0  0  0  0  0
   36.3780   32.8870   39.4790 H   0  0  0  0  0  0  0  0  0  0  0  0
   38.3790   33.0100   40.3200 C   0  0  0  0  0  3  0  0  0  0  0  0
   39.3610   32.3860   41.0720 C   0  0  0  0  0  3  0  0  0  0  0  0
  1  6  1  0  0  0  0
  2  1  2  0  0  0  0
  2  3  1  0  0  0  0
  3  8  1  0  0  0  0
  3  4  2  0  0  0  0
  4  5  1  0  0  0  0
  4  9  1  0  0  0  0
  5 10  1  0  0  0  0
  6  5  2  0  0  0  0
  7  2  1  0  0  0  0
 11 12  1  0  0  0  0
 12 13  2  0  0  0  0
 12 17  1  0  0  0  0
 13  1  1  0  0  0  0
 14 13  1  0  0  0  0
 15 14  2  0  0  0  0
 16 15  1  0  0  0  0
 16 11  2  0  0  0  0
 18 15  1  0  0  0  0
 19 11  1  0  0  0  0
 19 21  1  0  0  0  0
 20 19  1  0  0  0  0
 22 19  1  0  0  0  0
 23 24  2  0  0  0  0
 25  6  1  0  0  0  0
 25 23  1  0  0  0  0
 26 25  1  0  0  0  0
 28 27  1  0  0  0  0
 29 28  1  0  0  0  0
 29 23  1  0  0  0  0
 30 29  2  0  0  0  0
 31 30  1  0  0  0  0
 32 34  2  0  0  0  0
 32 30  1  0  0  0  0
 33 32  1  0  0  0  0
 34 35  1  0  0  0  0
 35 28  2  0  0  0  0
M  END
>  <minimizedAffinity>
-5.84340334

$$$$

 OpenBabel03252502293D

 35 37  0  0  0  0  0  0  0  0999 V2000
   36.1860   27.7340   38.5280 C   0  0  0  0  0  0  0  0  0  0  0  0
   35.5310   26.6140   38.0230 C   0  0  0  0  0  0  0  0  0  0  0  0
   34.4100   26.8070   37.1970 C   0  0  0  0  0  0  0  0  0  0  0  0
   33.9940   28.0840   36.9140 C   0  0  0  0  0  0  0  0  0  0  0  0
   34.6270   29.1910   37.4030 C   0  0  0  0  0  0  0  0  0  0  0  0
   35.7400   28.9760   38.2220 C   0  0  0  0  0  0  0  0  0  0  0  0
   35.8520   25.6040   38.2420 H   0  0  0  0  0  0  0  0  0  0  0  0
   33.8700   25.9810   36.7830 H   0  0  0  0  0  0  0  0  0  0  0  0
   33.1350   28.3390   36.2840 H   0  0  0  0  0  0  0  0  0  0  0  0
   34.4010   30.2360   37.2560 H   0  0  0  0  0  0  0  0  0  0  0  0
   38.4470   26.8180   41.3940 C   0  0  0  0  0  0  0  0  0  0  0  0
   37.2510   27.0480   40.6840 C   0  0  0  0  0  0  0  0  0  0  0  0
   37.3270   27.4640   39.3700 C   0  0  0  0  0  0  0  0  0  0  0  0
   38.5760   27.6270   38.8390 N   0  0  0  0  0  0  0  0  0  0  0  0
   39.7140   27.4040   39.5280 C   0  0  0  0  0  0  0  0  0  0  0  0
   39.6530   26.9970   40.8170 N   0  0  0  0  0  0  0  0  0  0  0  0
   36.2860   26.9100   41.1310 H   0  0  0  0  0  0  0  0  0  0  0  0
   40.6940   27.5370   39.0970 H   0  0  0  0  0  0  0  0  0  0  0  0
   38.3940   26.3710   42.8080 C   0  0  0  0  0  0  0  0  0  0  0  0
   38.5870   24.9850   42.8230 F   0  0  0  0  0  0  0  0  0  0  0  0
   37.0770   26.5720   43.2410 F   0  0  0  0  0  0  0  0  0  0  0  0
   39.3180   26.9950   43.6140 F   0  0  0  0  0  0  0  0  0  0  0  0
   36.4610   30.7430   40.0100 C   0  0  0  0  0  0  0  0  0  0  0  0
   35.7100   30.5320   40.9520 O   0  0  0  0  0  0  0  0  0  0  0  0
   36.4840   30.0350   38.7890 N   0  0  0  0  0  0  0  0  0  0  0  0
   37.2080   30.3090   38.0800 H   0  0  0  0  0  0  0  0  0  0  0  0
   38.9170   30.2450   41.7340 Cl  0  0  0  0  0  0  0  0  0  0  0  0
   38.5700   31.7930   40.9580 C   0  0  0  0  0  0  0  0  0  0  0  0
   37.4040   31.8410   40.2110 C   0  0  0  0  0  0  0  0  0  0  0  0
   37.0300   33.0110   39.5560 C   0  0  0  0  0  0  0  0  0  0  0  0
   36.1200   33.1070   38.9500 H   0  0  0  0  0  0  0  0  0  0  0  0
   37.8110   34.1600   39.6330 C   0  0  0  0  0  0  0  0  0  0  0  0
   37.5170   35.0670   39.1240 H   0  0  0  0  0  0  0  0  0  0  0  0
   38.9810   34.0840   40.3950 C   0  0  0  0  0  3  0  0  0  0  0  0
   39.3550   32.9200   41.0480 C   0  0  0  0  0  3  0  0  0  0  0  0
  1 13  1  0  0  0  0
  2  7  1  0  0  0  0
  2  1  2  0  0  0  0
  3  2  1  0  0  0  0
  4  3  2  0  0  0  0
  4  5  1  0  0  0  0
  5  6  2  0  0  0  0
  6  1  1  0  0  0  0
  6 25  1  0  0  0  0
  8  3  1  0  0  0  0
  9  4  1  0  0  0  0
 10  5  1  0  0  0  0
 11 19  1  0  0  0  0
 12 17  1  0  0  0  0
 12 11  2  0  0  0  0
 13 12  1  0  0  0  0
 14 13  2  0  0  0  0
 14 15  1  0  0  0  0
 15 16  2  0  0  0  0
 16 11  1  0  0  0  0
 18 15  1  0  0  0  0
 19 20  1  0  0  0  0
 19 21  1  0  0  0  0
 19 22  1  0  0  0  0
 23 29  1  0  0  0  0
 23 24  2  0  0  0  0
 25 23  1  0  0  0  0
 26 25  1  0  0  0  0
 28 35  1  0  0  0  0
 28 27  1  0  0  0  0
 29 28  2  0  0  0  0
 30 32  2  0  0  0  0
 30 29  1  0  0  0  0
 31 30  1  0  0  0  0
 32 34  1  0  0  0  0
 33 32  1  0  0  0  0
 34 35  2  0  0  0  0
M  END
>  <minimizedAffinity>
-5.81737423

$$$$
