
 OpenBabel03252507593D

 29 31  0  0  1  0  0  0  0  0999 V2000
   46.1300   34.7610   43.2940 C   0  0  0  0  0  0  0  0  0  0  0  0
   45.2340   35.8170   43.6360 C   0  0  0  0  0  0  0  0  0  0  0  0
   44.6140   35.7120   44.8800 C   0  0  0  0  0  0  0  0  0  0  0  0
   44.8880   34.6460   45.6680 N   0  0  0  0  0  0  0  0  0  0  0  0
   45.7660   33.6660   45.2640 C   0  0  0  0  0  0  0  0  0  0  0  0
   46.3900   33.6960   44.1030 N   0  0  0  0  0  0  0  0  0  0  0  0
   45.0770   36.6290   42.9420 H   0  0  0  0  0  0  0  0  0  0  0  0
   43.9270   36.4900   45.1820 H   0  0  0  0  0  0  0  0  0  0  0  0
   46.0280   32.5140   46.1810 C   0  0  1  0  0  0  0  0  0  0  0  0
   46.8510   32.7490   47.4240 C   0  0  0  0  0  0  0  0  0  0  0  0
   45.3550   32.6150   47.4950 C   0  0  1  0  0  0  0  0  0  0  0  0
   46.1600   31.5580   45.6730 H   0  0  0  0  0  0  0  0  0  0  0  0
   47.3520   33.7130   47.5660 H   0  0  0  0  0  0  0  0  0  0  0  0
   47.3970   31.8600   47.7830 H   0  0  0  0  0  0  0  0  0  0  0  0
   44.8910   31.7250   47.9310 H   0  0  0  0  0  0  0  0  0  0  0  0
   44.7130   33.8750   47.8790 N   0  0  0  0  0  0  0  0  0  0  0  0
   45.3000   34.4220   48.5400 H   0  0  0  0  0  0  0  0  0  0  0  0
   43.7380   33.7310   48.2160 H   0  0  0  0  0  0  0  0  0  0  0  0
   46.7650   34.8900   41.9960 C   0  0  0  0  0  0  0  0  0  0  0  0
   47.8180   35.5650   41.7890 O   0  0  0  0  0  0  0  0  0  0  0  0
   48.5350   33.4070   40.0010 Cl  0  0  0  0  0  0  0  0  0  0  0  0
   46.8070   33.5000   39.8400 C   0  0  0  0  0  0  0  0  0  0  0  0
   46.1740   34.2050   40.8250 C   0  0  0  0  0  0  0  0  0  0  0  0
   44.7820   34.3320   40.7760 C   0  0  0  0  0  0  0  0  0  0  0  0
   44.1910   34.8750   41.5150 H   0  0  0  0  0  0  0  0  0  0  0  0
   44.0280   33.7710   39.7680 C   0  0  0  0  0  0  0  0  0  0  0  0
   42.9610   33.8440   39.6920 H   0  0  0  0  0  0  0  0  0  0  0  0
   44.6800   33.0620   38.7780 C   0  0  0  0  0  3  0  0  0  0  0  0
   46.0470   32.9420   38.8350 C   0  0  0  0  0  3  0  0  0  0  0  0
  1  2  2  0  0  0  0
  1  6  1  0  0  0  0
  2  3  1  0  0  0  0
  3  8  1  0  0  0  0
  3  4  2  0  0  0  0
  5  4  1  0  0  0  0
  5  9  1  0  0  0  0
  6  5  2  0  0  0  0
  7  2  1  0  0  0  0
  9 12  1  6  0  0  0
  9 10  1  0  0  0  0
  9 11  1  0  0  0  0
 10 11  1  0  0  0  0
 10 13  1  0  0  0  0
 10 14  1  0  0  0  0
 11 16  1  0  0  0  0
 11 15  1  1  0  0  0
 16 18  1  0  0  0  0
 16 17  1  0  0  0  0
 19  1  1  0  0  0  0
 20 19  2  0  0  0  0
 22 21  1  0  0  0  0
 22 23  1  0  0  0  0
 23 19  1  0  0  0  0
 24 23  2  0  0  0  0
 24 25  1  0  0  0  0
 26 24  1  0  0  0  0
 27 26  1  0  0  0  0
 28 29  1  0  0  0  0
 28 26  2  0  0  0  0
 29 22  2  0  0  0  0
M  END
>  <minimizedAffinity>
-5.78591776

>  <minimizedRMSD>
0.37827915

$$$$
