
 OpenBabel03242510523D

 22 23  0  0  0  0  0  0  0  0999 V2000
   37.2900   32.7000   39.8300 C   0  0  0  0  0  0  0  0  0  0  0  0
   38.4230   33.1960   40.5120 C   0  0  0  0  0  0  0  0  0  0  0  0
   39.2440   32.2640   41.1440 C   0  0  0  0  0  0  0  0  0  0  0  0
   38.9280   30.9460   41.0810 N   0  0  0  0  0  0  0  0  0  0  0  0
   37.8330   30.5050   40.4180 C   0  0  0  0  0  0  0  0  0  0  0  0
   37.0140   31.3950   39.7910 N   0  0  0  0  0  0  0  0  0  0  0  0
   38.2690   28.3090   41.3320 C   0  0  0  0  0  0  0  0  0  0  0  0
   39.1090   28.7200   42.1650 O   0  0  0  0  0  0  0  0  0  0  0  0
   37.5400   29.1020   40.3800 N   0  0  0  0  0  0  0  0  0  0  0  0
   36.6500   33.4230   39.3370 H   0  0  0  0  0  0  0  0  0  0  0  0
   38.6810   34.2270   40.5680 H   0  0  0  0  0  0  0  0  0  0  0  0
   40.1410   32.5400   41.6970 H   0  0  0  0  0  0  0  0  0  0  0  0
   36.8500   28.7280   39.7040 H   0  0  0  0  0  0  0  0  0  0  0  0
   36.3790   27.3410   43.4020 Cl  0  0  0  0  0  0  0  0  0  0  0  0
   37.1770   26.2570   42.2590 C   0  0  0  0  0  0  0  0  0  0  0  0
   38.0280   26.8690   41.3580 C   0  0  0  0  0  0  0  0  0  0  0  0
   38.6590   26.0070   40.4540 C   0  0  0  0  0  0  0  0  0  0  0  0
   39.3440   26.4140   39.7130 H   0  0  0  0  0  0  0  0  0  0  0  0
   38.4380   24.6480   40.4720 C   0  0  0  0  0  0  0  0  0  0  0  0
   38.9360   23.9790   39.7610 H   0  0  0  0  0  0  0  0  0  0  0  0
   37.5710   24.0800   41.3990 C   0  0  0  0  0  3  0  0  0  0  0  0
   36.9390   24.9110   42.2990 C   0  0  0  0  0  3  0  0  0  0  0  0
  1  2  1  0  0  0  0
  2 11  1  0  0  0  0
  2  3  2  0  0  0  0
  3 12  1  0  0  0  0
  4  3  1  0  0  0  0
  5  4  2  0  0  0  0
  6  1  2  0  0  0  0
  6  5  1  0  0  0  0
  7 16  1  0  0  0  0
  7  8  2  0  0  0  0
  9  5  1  0  0  0  0
  9  7  1  0  0  0  0
 10  1  1  0  0  0  0
 13  9  1  0  0  0  0
 15 22  1  0  0  0  0
 15 14  1  0  0  0  0
 16 15  2  0  0  0  0
 17 19  2  0  0  0  0
 17 16  1  0  0  0  0
 18 17  1  0  0  0  0
 19 21  1  0  0  0  0
 20 19  1  0  0  0  0
 21 22  2  0  0  0  0
M  END
>  <minimizedAffinity>
-4.6665535

$$$$

 OpenBabel03242510523D

 22 23  0  0  0  0  0  0  0  0999 V2000
   38.0330   31.5320   38.2450 C   0  0  0  0  0  0  0  0  0  0  0  0
   37.2190   32.3420   39.0670 C   0  0  0  0  0  0  0  0  0  0  0  0
   36.9510   31.8790   40.3540 C   0  0  0  0  0  0  0  0  0  0  0  0
   37.4720   30.6920   40.7560 N   0  0  0  0  0  0  0  0  0  0  0  0
   38.2500   29.9400   39.9410 C   0  0  0  0  0  0  0  0  0  0  0  0
   38.5270   30.3710   38.6790 N   0  0  0  0  0  0  0  0  0  0  0  0
   38.1610   28.1930   41.6110 C   0  0  0  0  0  0  0  0  0  0  0  0
   37.2360   28.7310   42.2610 O   0  0  0  0  0  0  0  0  0  0  0  0
   38.7760   28.6930   40.4120 N   0  0  0  0  0  0  0  0  0  0  0  0
   38.2430   31.8920   37.2450 H   0  0  0  0  0  0  0  0  0  0  0  0
   36.8050   33.2750   38.7630 H   0  0  0  0  0  0  0  0  0  0  0  0
   36.3350   32.4240   41.0670 H   0  0  0  0  0  0  0  0  0  0  0  0
   39.5420   28.2200   39.8990 H   0  0  0  0  0  0  0  0  0  0  0  0
   36.9490   25.7390   40.4690 Cl  0  0  0  0  0  0  0  0  0  0  0  0
   38.1790   25.6930   41.7350 C   0  0  0  0  0  0  0  0  0  0  0  0
   38.6410   26.9260   42.1560 C   0  0  0  0  0  0  0  0  0  0  0  0
   39.6160   26.8860   43.1590 C   0  0  0  0  0  0  0  0  0  0  0  0
   40.0300   27.8160   43.5440 H   0  0  0  0  0  0  0  0  0  0  0  0
   40.0740   25.6960   43.6800 C   0  0  0  0  0  0  0  0  0  0  0  0
   40.8380   25.6730   44.4650 H   0  0  0  0  0  0  0  0  0  0  0  0
   39.5770   24.4810   43.2200 C   0  0  0  0  0  3  0  0  0  0  0  0
   38.6160   24.4970   42.2330 C   0  0  0  0  0  3  0  0  0  0  0  0
  1  6  2  0  0  0  0
  1  2  1  0  0  0  0
  2  3  2  0  0  0  0
  3  4  1  0  0  0  0
  3 12  1  0  0  0  0
  5  9  1  0  0  0  0
  5  4  2  0  0  0  0
  6  5  1  0  0  0  0
  7 16  1  0  0  0  0
  7  8  2  0  0  0  0
  9  7  1  0  0  0  0
 10  1  1  0  0  0  0
 11  2  1  0  0  0  0
 13  9  1  0  0  0  0
 14 15  1  0  0  0  0
 15 16  2  0  0  0  0
 15 22  1  0  0  0  0
 16 17  1  0  0  0  0
 17 18  1  0  0  0  0
 17 19  2  0  0  0  0
 19 20  1  0  0  0  0
 21 19  1  0  0  0  0
 22 21  2  0  0  0  0
M  END
>  <minimizedAffinity>
-4.65977716

$$$$

 OpenBabel03242510523D

 22 23  0  0  0  0  0  0  0  0999 V2000
   38.6830   25.1450   41.0110 C   0  0  0  0  0  0  0  0  0  0  0  0
   37.6820   24.8850   41.9730 C   0  0  0  0  0  0  0  0  0  0  0  0
   36.9220   25.9680   42.4110 C   0  0  0  0  0  0  0  0  0  0  0  0
   37.1700   27.2040   41.9060 N   0  0  0  0  0  0  0  0  0  0  0  0
   38.1390   27.4180   40.9840 C   0  0  0  0  0  0  0  0  0  0  0  0
   38.8950   26.3750   40.5390 N   0  0  0  0  0  0  0  0  0  0  0  0
   37.7470   29.7890   41.2470 C   0  0  0  0  0  0  0  0  0  0  0  0
   37.0540   29.6550   42.2820 O   0  0  0  0  0  0  0  0  0  0  0  0
   38.3640   28.7410   40.4810 N   0  0  0  0  0  0  0  0  0  0  0  0
   39.2740   24.3040   40.6690 H   0  0  0  0  0  0  0  0  0  0  0  0
   37.4780   23.9210   42.3750 H   0  0  0  0  0  0  0  0  0  0  0  0
   36.1270   25.8780   43.1490 H   0  0  0  0  0  0  0  0  0  0  0  0
   38.9320   28.8880   39.6270 H   0  0  0  0  0  0  0  0  0  0  0  0
   40.1020   31.2160   42.3490 Cl  0  0  0  0  0  0  0  0  0  0  0  0
   38.9730   31.9710   41.2200 C   0  0  0  0  0  0  0  0  0  0  0  0
   37.9280   31.1670   40.8020 C   0  0  0  0  0  0  0  0  0  0  0  0
   37.0360   31.7680   39.9070 C   0  0  0  0  0  0  0  0  0  0  0  0
   36.1880   31.2000   39.5320 H   0  0  0  0  0  0  0  0  0  0  0  0
   37.1990   33.0680   39.4810 C   0  0  0  0  0  0  0  0  0  0  0  0
   36.4950   33.5320   38.7800 H   0  0  0  0  0  0  0  0  0  0  0  0
   38.2680   33.8350   39.9320 C   0  0  0  0  0  3  0  0  0  0  0  0
   39.1590   33.2630   40.8140 C   0  0  0  0  0  3  0  0  0  0  0  0
  1  2  1  0  0  0  0
  2 11  1  0  0  0  0
  2  3  2  0  0  0  0
  3 12  1  0  0  0  0
  4  3  1  0  0  0  0
  5  4  2  0  0  0  0
  6  5  1  0  0  0  0
  6  1  2  0  0  0  0
  7  8  2  0  0  0  0
  9  5  1  0  0  0  0
  9  7  1  0  0  0  0
 10  1  1  0  0  0  0
 13  9  1  0  0  0  0
 15 14  1  0  0  0  0
 16 15  2  0  0  0  0
 16  7  1  0  0  0  0
 17 16  1  0  0  0  0
 18 17  1  0  0  0  0
 19 17  2  0  0  0  0
 19 21  1  0  0  0  0
 20 19  1  0  0  0  0
 21 22  2  0  0  0  0
 22 15  1  0  0  0  0
M  END
>  <minimizedAffinity>
-4.64487028

$$$$

 OpenBabel03242510523D

 22 23  0  0  0  0  0  0  0  0999 V2000
   41.1090   32.7690   37.6490 C   0  0  0  0  0  0  0  0  0  0  0  0
   41.6340   33.7970   38.4640 C   0  0  0  0  0  0  0  0  0  0  0  0
   41.4920   33.6530   39.8430 C   0  0  0  0  0  0  0  0  0  0  0  0
   40.8680   32.5530   40.3370 N   0  0  0  0  0  0  0  0  0  0  0  0
   40.3770   31.5860   39.5260 C   0  0  0  0  0  0  0  0  0  0  0  0
   40.5030   31.7030   38.1750 N   0  0  0  0  0  0  0  0  0  0  0  0
   39.3640   30.5840   41.4800 C   0  0  0  0  0  0  0  0  0  0  0  0
   39.5600   31.5820   42.2100 O   0  0  0  0  0  0  0  0  0  0  0  0
   39.7250   30.4430   40.0960 N   0  0  0  0  0  0  0  0  0  0  0  0
   41.2190   32.8800   36.5770 H   0  0  0  0  0  0  0  0  0  0  0  0
   42.1250   34.6630   38.0880 H   0  0  0  0  0  0  0  0  0  0  0  0
   41.8600   34.3860   40.5580 H   0  0  0  0  0  0  0  0  0  0  0  0
   39.5470   29.6000   39.5200 H   0  0  0  0  0  0  0  0  0  0  0  0
   36.4110   30.4960   41.2230 Cl  0  0  0  0  0  0  0  0  0  0  0  0
   37.3260   29.2760   42.1120 C   0  0  0  0  0  0  0  0  0  0  0  0
   38.6950   29.4630   42.1350 C   0  0  0  0  0  0  0  0  0  0  0  0
   39.4170   28.4940   42.8410 C   0  0  0  0  0  0  0  0  0  0  0  0
   40.5010   28.5720   42.9050 H   0  0  0  0  0  0  0  0  0  0  0  0
   38.7950   27.4340   43.4620 C   0  0  0  0  0  0  0  0  0  0  0  0
   39.3670   26.6790   44.0140 H   0  0  0  0  0  0  0  0  0  0  0  0
   37.4130   27.2900   43.4090 C   0  0  0  0  0  3  0  0  0  0  0  0
   36.6820   28.2330   42.7200 C   0  0  0  0  0  3  0  0  0  0  0  0
  1  6  2  0  0  0  0
  1  2  1  0  0  0  0
  2  3  2  0  0  0  0
  3  4  1  0  0  0  0
  3 12  1  0  0  0  0
  5  9  1  0  0  0  0
  5  4  2  0  0  0  0
  6  5  1  0  0  0  0
  7 16  1  0  0  0  0
  7  8  2  0  0  0  0
  9  7  1  0  0  0  0
 10  1  1  0  0  0  0
 11  2  1  0  0  0  0
 13  9  1  0  0  0  0
 14 15  1  0  0  0  0
 15 16  2  0  0  0  0
 15 22  1  0  0  0  0
 16 17  1  0  0  0  0
 17 18  1  0  0  0  0
 17 19  2  0  0  0  0
 19 20  1  0  0  0  0
 21 19  1  0  0  0  0
 22 21  2  0  0  0  0
M  END
>  <minimizedAffinity>
-4.61083603

$$$$

 OpenBabel03242510523D

 22 23  0  0  0  0  0  0  0  0999 V2000
   39.8350   32.5020   39.8130 C   0  0  0  0  0  0  0  0  0  0  0  0
   38.6830   33.3110   39.9250 C   0  0  0  0  0  0  0  0  0  0  0  0
   37.4980   32.6840   40.3050 C   0  0  0  0  0  0  0  0  0  0  0  0
   37.5000   31.3480   40.5460 N   0  0  0  0  0  0  0  0  0  0  0  0
   38.6240   30.6020   40.4280 C   0  0  0  0  0  0  0  0  0  0  0  0
   39.7950   31.1920   40.0590 N   0  0  0  0  0  0  0  0  0  0  0  0
   37.2510   28.6380   40.7490 C   0  0  0  0  0  0  0  0  0  0  0  0
   36.1700   29.2520   40.5920 O   0  0  0  0  0  0  0  0  0  0  0  0
   38.5740   29.1940   40.6930 N   0  0  0  0  0  0  0  0  0  0  0  0
   40.7580   32.9890   39.5180 H   0  0  0  0  0  0  0  0  0  0  0  0
   38.6700   34.3590   39.7390 H   0  0  0  0  0  0  0  0  0  0  0  0
   36.5540   33.2140   40.4200 H   0  0  0  0  0  0  0  0  0  0  0  0
   39.4490   28.6550   40.8280 H   0  0  0  0  0  0  0  0  0  0  0  0
   37.2090   27.8390   43.6050 Cl  0  0  0  0  0  0  0  0  0  0  0  0
   37.0770   26.6710   42.2870 C   0  0  0  0  0  0  0  0  0  0  0  0
   37.1130   27.2080   41.0140 C   0  0  0  0  0  0  0  0  0  0  0  0
   37.0080   26.2800   39.9730 C   0  0  0  0  0  0  0  0  0  0  0  0
   37.0280   26.6250   38.9410 H   0  0  0  0  0  0  0  0  0  0  0  0
   36.8780   24.9300   40.2130 C   0  0  0  0  0  0  0  0  0  0  0  0
   36.7970   24.2080   39.3910 H   0  0  0  0  0  0  0  0  0  0  0  0
   36.8470   24.4390   41.5140 C   0  0  0  0  0  3  0  0  0  0  0  0
   36.9490   25.3360   42.5550 C   0  0  0  0  0  3  0  0  0  0  0  0
  1  2  2  0  0  0  0
  1  6  1  0  0  0  0
  2  3  1  0  0  0  0
  3 12  1  0  0  0  0
  3  4  2  0  0  0  0
  5  4  1  0  0  0  0
  5  9  1  0  0  0  0
  6  5  2  0  0  0  0
  7 16  1  0  0  0  0
  8  7  2  0  0  0  0
  9  7  1  0  0  0  0
  9 13  1  0  0  0  0
 10  1  1  0  0  0  0
 11  2  1  0  0  0  0
 15 22  1  0  0  0  0
 15 14  1  0  0  0  0
 16 15  2  0  0  0  0
 17 19  2  0  0  0  0
 17 16  1  0  0  0  0
 18 17  1  0  0  0  0
 19 21  1  0  0  0  0
 20 19  1  0  0  0  0
 21 22  2  0  0  0  0
M  END
>  <minimizedAffinity>
-4.59049606

$$$$

 OpenBabel03242510523D

 22 23  0  0  0  0  0  0  0  0999 V2000
   37.4190   32.3880   38.8140 C   0  0  0  0  0  0  0  0  0  0  0  0
   37.7040   33.5530   39.5610 C   0  0  0  0  0  0  0  0  0  0  0  0
   38.4490   33.3950   40.7290 C   0  0  0  0  0  0  0  0  0  0  0  0
   38.8610   32.1540   41.0930 N   0  0  0  0  0  0  0  0  0  0  0  0
   38.5700   31.0580   40.3520 C   0  0  0  0  0  0  0  0  0  0  0  0
   37.8430   31.1860   39.2070 N   0  0  0  0  0  0  0  0  0  0  0  0
   39.4850   29.7120   42.1400 C   0  0  0  0  0  0  0  0  0  0  0  0
   39.5210   30.6570   42.9600 O   0  0  0  0  0  0  0  0  0  0  0  0
   39.0270   29.7680   40.7790 N   0  0  0  0  0  0  0  0  0  0  0  0
   36.8410   32.5100   37.9060 H   0  0  0  0  0  0  0  0  0  0  0  0
   37.3870   34.5310   39.2850 H   0  0  0  0  0  0  0  0  0  0  0  0
   38.7230   34.2250   41.3770 H   0  0  0  0  0  0  0  0  0  0  0  0
   39.0110   28.9640   40.1260 H   0  0  0  0  0  0  0  0  0  0  0  0
   37.4220   27.8830   43.2310 Cl  0  0  0  0  0  0  0  0  0  0  0  0
   39.1380   27.4690   43.1950 C   0  0  0  0  0  0  0  0  0  0  0  0
   39.9680   28.4320   42.6530 C   0  0  0  0  0  0  0  0  0  0  0  0
   41.3270   28.1010   42.6250 C   0  0  0  0  0  0  0  0  0  0  0  0
   42.0440   28.8080   42.2130 H   0  0  0  0  0  0  0  0  0  0  0  0
   41.7910   26.8970   43.1070 C   0  0  0  0  0  0  0  0  0  0  0  0
   42.8580   26.6440   43.0820 H   0  0  0  0  0  0  0  0  0  0  0  0
   40.9140   25.9600   43.6430 C   0  0  0  0  0  3  0  0  0  0  0  0
   39.5710   26.2660   43.6800 C   0  0  0  0  0  3  0  0  0  0  0  0
  1  6  2  0  0  0  0
  1  2  1  0  0  0  0
  2  3  2  0  0  0  0
  3  4  1  0  0  0  0
  3 12  1  0  0  0  0
  5  9  1  0  0  0  0
  5  4  2  0  0  0  0
  6  5  1  0  0  0  0
  7 16  1  0  0  0  0
  7  8  2  0  0  0  0
  9  7  1  0  0  0  0
 10  1  1  0  0  0  0
 11  2  1  0  0  0  0
 13  9  1  0  0  0  0
 15 14  1  0  0  0  0
 15 22  1  0  0  0  0
 16 15  2  0  0  0  0
 17 16  1  0  0  0  0
 17 19  2  0  0  0  0
 18 17  1  0  0  0  0
 19 21  1  0  0  0  0
 20 19  1  0  0  0  0
 21 22  2  0  0  0  0
M  END
>  <minimizedAffinity>
-4.54756641

$$$$

 OpenBabel03242510523D

 22 23  0  0  0  0  0  0  0  0999 V2000
   37.8220   31.5760   38.0890 C   0  0  0  0  0  0  0  0  0  0  0  0
   37.2600   32.4940   39.0040 C   0  0  0  0  0  0  0  0  0  0  0  0
   37.1770   32.0950   40.3360 C   0  0  0  0  0  0  0  0  0  0  0  0
   37.6280   30.8660   40.6930 N   0  0  0  0  0  0  0  0  0  0  0  0
   38.1610   30.0100   39.7890 C   0  0  0  0  0  0  0  0  0  0  0  0
   38.2550   30.3770   38.4800 N   0  0  0  0  0  0  0  0  0  0  0  0
   38.1810   28.3250   41.5230 C   0  0  0  0  0  0  0  0  0  0  0  0
   37.4510   28.9820   42.3000 O   0  0  0  0  0  0  0  0  0  0  0  0
   38.6240   28.7220   40.2140 N   0  0  0  0  0  0  0  0  0  0  0  0
   37.8880   31.8850   37.0520 H   0  0  0  0  0  0  0  0  0  0  0  0
   36.9030   33.4600   38.7360 H   0  0  0  0  0  0  0  0  0  0  0  0
   36.7610   32.7250   41.1210 H   0  0  0  0  0  0  0  0  0  0  0  0
   39.2300   28.1520   39.5970 H   0  0  0  0  0  0  0  0  0  0  0  0
   40.6960   28.3020   43.0950 Cl  0  0  0  0  0  0  0  0  0  0  0  0
   39.7560   26.8410   42.7800 C   0  0  0  0  0  0  0  0  0  0  0  0
   38.6090   27.0250   42.0310 C   0  0  0  0  0  0  0  0  0  0  0  0
   37.8670   25.8650   41.7840 C   0  0  0  0  0  0  0  0  0  0  0  0
   36.9500   25.9280   41.2010 H   0  0  0  0  0  0  0  0  0  0  0  0
   38.2620   24.6340   42.2590 C   0  0  0  0  0  0  0  0  0  0  0  0
   37.6760   23.7290   42.0610 H   0  0  0  0  0  0  0  0  0  0  0  0
   39.4260   24.5020   43.0090 C   0  0  0  0  0  3  0  0  0  0  0  0
   40.1720   25.6320   43.2650 C   0  0  0  0  0  3  0  0  0  0  0  0
  1  6  2  0  0  0  0
  1  2  1  0  0  0  0
  2  3  2  0  0  0  0
  3  4  1  0  0  0  0
  3 12  1  0  0  0  0
  5  9  1  0  0  0  0
  5  4  2  0  0  0  0
  6  5  1  0  0  0  0
  7 16  1  0  0  0  0
  7  8  2  0  0  0  0
  9  7  1  0  0  0  0
 10  1  1  0  0  0  0
 11  2  1  0  0  0  0
 13  9  1  0  0  0  0
 15 14  1  0  0  0  0
 15 22  1  0  0  0  0
 16 15  2  0  0  0  0
 17 16  1  0  0  0  0
 17 19  2  0  0  0  0
 18 17  1  0  0  0  0
 19 21  1  0  0  0  0
 20 19  1  0  0  0  0
 21 22  2  0  0  0  0
M  END
>  <minimizedAffinity>
-4.52661657

$$$$

 OpenBabel03242510523D

 22 23  0  0  0  0  0  0  0  0999 V2000
   41.2070   32.2160   37.2180 C   0  0  0  0  0  0  0  0  0  0  0  0
   41.5050   33.4040   37.9210 C   0  0  0  0  0  0  0  0  0  0  0  0
   41.1820   33.4410   39.2760 C   0  0  0  0  0  0  0  0  0  0  0  0
   40.6050   32.3560   39.8530 N   0  0  0  0  0  0  0  0  0  0  0  0
   40.3330   31.2320   39.1480 C   0  0  0  0  0  0  0  0  0  0  0  0
   40.6400   31.1700   37.8220 N   0  0  0  0  0  0  0  0  0  0  0  0
   39.1540   30.4030   41.0890 C   0  0  0  0  0  0  0  0  0  0  0  0
   39.1440   31.5100   41.6730 O   0  0  0  0  0  0  0  0  0  0  0  0
   39.7220   30.1120   39.8020 N   0  0  0  0  0  0  0  0  0  0  0  0
   41.4580   32.1860   36.1640 H   0  0  0  0  0  0  0  0  0  0  0  0
   41.9570   34.2610   37.4800 H   0  0  0  0  0  0  0  0  0  0  0  0
   41.3680   34.3060   39.9090 H   0  0  0  0  0  0  0  0  0  0  0  0
   39.7130   29.1800   39.3480 H   0  0  0  0  0  0  0  0  0  0  0  0
   40.9040   28.8410   42.9050 Cl  0  0  0  0  0  0  0  0  0  0  0  0
   39.1850   28.4920   42.7070 C   0  0  0  0  0  0  0  0  0  0  0  0
   38.5120   29.3150   41.8220 C   0  0  0  0  0  0  0  0  0  0  0  0
   37.1500   29.0350   41.6680 C   0  0  0  0  0  0  0  0  0  0  0  0
   36.5510   29.6390   40.9890 H   0  0  0  0  0  0  0  0  0  0  0  0
   36.5350   28.0110   42.3550 C   0  0  0  0  0  0  0  0  0  0  0  0
   35.4680   27.7980   42.2280 H   0  0  0  0  0  0  0  0  0  0  0  0
   37.2580   27.2120   43.2340 C   0  0  0  0  0  3  0  0  0  0  0  0
   38.6010   27.4700   43.4010 C   0  0  0  0  0  3  0  0  0  0  0  0
  1  6  2  0  0  0  0
  1  2  1  0  0  0  0
  2  3  2  0  0  0  0
  3  4  1  0  0  0  0
  3 12  1  0  0  0  0
  5  9  1  0  0  0  0
  5  4  2  0  0  0  0
  6  5  1  0  0  0  0
  7  8  2  0  0  0  0
  7 16  1  0  0  0  0
  9  7  1  0  0  0  0
 10  1  1  0  0  0  0
 11  2  1  0  0  0  0
 13  9  1  0  0  0  0
 15 14  1  0  0  0  0
 15 22  1  0  0  0  0
 16 15  2  0  0  0  0
 17 16  1  0  0  0  0
 17 19  2  0  0  0  0
 18 17  1  0  0  0  0
 19 21  1  0  0  0  0
 20 19  1  0  0  0  0
 21 22  2  0  0  0  0
M  END
>  <minimizedAffinity>
-4.47204256

$$$$

 OpenBabel03242510523D

 22 23  0  0  0  0  0  0  0  0999 V2000
   38.9560   24.4940   40.9140 C   0  0  0  0  0  0  0  0  0  0  0  0
   37.9010   24.1490   41.7880 C   0  0  0  0  0  0  0  0  0  0  0  0
   37.0300   25.1690   42.1690 C   0  0  0  0  0  0  0  0  0  0  0  0
   37.2270   26.4250   41.6940 N   0  0  0  0  0  0  0  0  0  0  0  0
   38.2500   26.7200   40.8570 C   0  0  0  0  0  0  0  0  0  0  0  0
   39.1150   25.7410   40.4700 N   0  0  0  0  0  0  0  0  0  0  0  0
   37.6650   29.0530   41.1020 C   0  0  0  0  0  0  0  0  0  0  0  0
   36.9000   28.8560   42.0750 O   0  0  0  0  0  0  0  0  0  0  0  0
   38.4170   28.0630   40.3830 N   0  0  0  0  0  0  0  0  0  0  0  0
   39.6340   23.7020   40.6170 H   0  0  0  0  0  0  0  0  0  0  0  0
   37.7360   23.1680   42.1660 H   0  0  0  0  0  0  0  0  0  0  0  0
   36.1860   25.0110   42.8380 H   0  0  0  0  0  0  0  0  0  0  0  0
   39.0420   28.2620   39.5810 H   0  0  0  0  0  0  0  0  0  0  0  0
   35.7760   29.9400   38.9950 Cl  0  0  0  0  0  0  0  0  0  0  0  0
   36.9770   31.0180   39.7120 C   0  0  0  0  0  0  0  0  0  0  0  0
   37.7800   30.4470   40.6820 C   0  0  0  0  0  0  0  0  0  0  0  0
   38.7300   31.3040   41.2490 C   0  0  0  0  0  0  0  0  0  0  0  0
   39.4000   30.9280   42.0200 H   0  0  0  0  0  0  0  0  0  0  0  0
   38.8460   32.6200   40.8590 C   0  0  0  0  0  0  0  0  0  0  0  0
   39.5930   33.2850   41.3070 H   0  0  0  0  0  0  0  0  0  0  0  0
   38.0130   33.1460   39.8780 C   0  0  0  0  0  3  0  0  0  0  0  0
   37.0700   32.3200   39.3060 C   0  0  0  0  0  3  0  0  0  0  0  0
  1  2  1  0  0  0  0
  2 11  1  0  0  0  0
  2  3  2  0  0  0  0
  3 12  1  0  0  0  0
  4  3  1  0  0  0  0
  5  4  2  0  0  0  0
  6  5  1  0  0  0  0
  6  1  2  0  0  0  0
  7  8  2  0  0  0  0
  9  5  1  0  0  0  0
  9  7  1  0  0  0  0
 10  1  1  0  0  0  0
 13  9  1  0  0  0  0
 14 15  1  0  0  0  0
 15 16  1  0  0  0  0
 16  7  1  0  0  0  0
 16 17  2  0  0  0  0
 17 18  1  0  0  0  0
 19 17  1  0  0  0  0
 19 20  1  0  0  0  0
 21 19  2  0  0  0  0
 22 15  2  0  0  0  0
 22 21  1  0  0  0  0
M  END
>  <minimizedAffinity>
-4.33280563

$$$$
