
 OpenBabel03252508493D

 28 30  0  0  0  0  0  0  0  0999 V2000
   45.9820   34.1880   41.0660 C   0  0  0  0  0  0  0  0  0  0  0  0
   46.5510   34.8130   42.1690 C   0  0  0  0  0  0  0  0  0  0  0  0
   47.9000   35.1860   42.0450 C   0  0  0  0  0  0  0  0  0  0  0  0
   48.5480   34.9130   40.8740 N   0  0  0  0  0  0  0  0  0  0  0  0
   47.9510   34.3110   39.8520 C   0  0  0  0  0  0  0  0  0  0  0  0
   46.6640   33.9380   39.9270 N   0  0  0  0  0  0  0  0  0  0  0  0
   48.3590   35.6780   42.9020 H   0  0  0  0  0  0  0  0  0  0  0  0
   48.5180   34.1210   38.9490 H   0  0  0  0  0  0  0  0  0  0  0  0
   45.7640   35.0510   43.3590 C   0  0  0  0  0  0  0  0  0  0  0  0
   45.0780   36.2250   43.5860 C   0  0  0  0  0  0  0  0  0  0  0  0
   44.4820   36.0250   44.8080 C   0  0  0  0  0  0  0  0  0  0  0  0
   44.7850   34.7980   45.3040 N   0  0  0  0  0  0  0  0  0  0  0  0
   45.5610   34.2360   44.4050 N   0  0  0  0  0  0  0  0  0  0  0  0
   45.0040   37.1190   42.9630 H   0  0  0  0  0  0  0  0  0  0  0  0
   43.8490   36.7160   45.3460 H   0  0  0  0  0  0  0  0  0  0  0  0
   44.5140   34.3220   46.1850 H   0  0  0  0  0  0  0  0  0  0  0  0
   44.6510   33.8050   41.1470 O   0  0  0  0  0  0  0  0  0  0  0  0
   43.5720   34.4740   40.6420 C   0  0  0  0  0  0  0  0  0  0  0  0
   43.3760   35.7430   40.6160 O   0  0  0  0  0  0  0  0  0  0  0  0
   44.0090   33.2740   37.8880 Cl  0  0  0  0  0  0  0  0  0  0  0  0
   42.4670   33.1770   38.7550 C   0  0  0  0  0  0  0  0  0  0  0  0
   42.4110   33.7760   40.0170 C   0  0  0  0  0  0  0  0  0  0  0  0
   41.1740   33.6430   40.5990 C   0  0  0  0  0  0  0  0  0  0  0  0
   41.0270   34.0770   41.5870 H   0  0  0  0  0  0  0  0  0  0  0  0
   40.1050   33.0080   40.0400 C   0  0  0  0  0  0  0  0  0  0  0  0
   39.1670   32.9480   40.5650 H   0  0  0  0  0  0  0  0  0  0  0  0
   40.2590   32.4510   38.7940 C   0  0  0  0  0  3  0  0  0  0  0  0
   41.4570   32.5270   38.1220 C   0  0  0  0  0  3  0  0  0  0  0  0
  1 17  1  0  0  0  0
  1  2  1  0  0  0  0
  2  9  1  0  0  0  0
  3  2  2  0  0  0  0
  3  7  1  0  0  0  0
  4  3  1  0  0  0  0
  5  6  1  0  0  0  0
  5  4  2  0  0  0  0
  6  1  2  0  0  0  0
  8  5  1  0  0  0  0
  9 10  1  0  0  0  0
  9 13  2  0  0  0  0
 10 11  2  0  0  0  0
 11 12  1  0  0  0  0
 11 15  1  0  0  0  0
 12 16  1  0  0  0  0
 13 12  1  0  0  0  0
 14 10  1  0  0  0  0
 18 17  1  0  0  0  0
 19 18  2  0  0  0  0
 20 21  1  0  0  0  0
 21 22  1  0  0  0  0
 22 23  2  0  0  0  0
 22 18  1  0  0  0  0
 23 24  1  0  0  0  0
 25 26  1  0  0  0  0
 25 23  1  0  0  0  0
 27 25  2  0  0  0  0
 28 21  2  0  0  0  0
 28 27  1  0  0  0  0
M  END
>  <minimizedAffinity>
-5.39165449

>  <minimizedRMSD>
0.701678038

$$$$
