
 OpenBabel03252508493D

 28 30  0  0  0  0  0  0  0  0999 V2000
   45.7820   34.1340   41.0590 C   0  0  0  0  0  0  0  0  0  0  0  0
   46.4090   34.7700   42.1240 C   0  0  0  0  0  0  0  0  0  0  0  0
   47.7550   35.1240   41.9320 C   0  0  0  0  0  0  0  0  0  0  0  0
   48.3450   34.8250   40.7360 N   0  0  0  0  0  0  0  0  0  0  0  0
   47.6940   34.2150   39.7530 C   0  0  0  0  0  0  0  0  0  0  0  0
   46.4080   33.8590   39.8940 N   0  0  0  0  0  0  0  0  0  0  0  0
   48.2580   35.6240   42.7590 H   0  0  0  0  0  0  0  0  0  0  0  0
   48.2160   34.0040   38.8280 H   0  0  0  0  0  0  0  0  0  0  0  0
   45.6810   35.0350   43.3450 C   0  0  0  0  0  0  0  0  0  0  0  0
   45.0640   36.2400   43.6080 C   0  0  0  0  0  0  0  0  0  0  0  0
   44.5060   36.0580   44.8510 C   0  0  0  0  0  0  0  0  0  0  0  0
   44.7650   34.8130   45.3240 N   0  0  0  0  0  0  0  0  0  0  0  0
   45.4760   34.2210   44.3920 N   0  0  0  0  0  0  0  0  0  0  0  0
   45.0120   37.1430   42.9960 H   0  0  0  0  0  0  0  0  0  0  0  0
   43.9290   36.7750   45.4180 H   0  0  0  0  0  0  0  0  0  0  0  0
   44.5040   34.3420   46.2110 H   0  0  0  0  0  0  0  0  0  0  0  0
   44.4530   33.7680   41.2080 O   0  0  0  0  0  0  0  0  0  0  0  0
   43.3560   34.4780   40.8060 C   0  0  0  0  0  0  0  0  0  0  0  0
   43.1840   35.7500   40.8490 O   0  0  0  0  0  0  0  0  0  0  0  0
   42.4000   35.4930   38.1100 Cl  0  0  0  0  0  0  0  0  0  0  0  0
   41.5890   34.1940   39.0000 C   0  0  0  0  0  0  0  0  0  0  0  0
   42.1420   33.8290   40.2310 C   0  0  0  0  0  0  0  0  0  0  0  0
   41.4380   32.8160   40.8350 C   0  0  0  0  0  0  0  0  0  0  0  0
   41.7880   32.4580   41.8020 H   0  0  0  0  0  0  0  0  0  0  0  0
   40.3260   32.2150   40.3220 C   0  0  0  0  0  0  0  0  0  0  0  0
   39.8320   31.4250   40.8610 H   0  0  0  0  0  0  0  0  0  0  0  0
   39.8600   32.6460   39.1040 C   0  0  0  0  0  3  0  0  0  0  0  0
   40.4900   33.6540   38.4140 C   0  0  0  0  0  3  0  0  0  0  0  0
  1 17  1  0  0  0  0
  1  2  1  0  0  0  0
  2  9  1  0  0  0  0
  3  2  2  0  0  0  0
  3  7  1  0  0  0  0
  4  3  1  0  0  0  0
  5  6  1  0  0  0  0
  5  4  2  0  0  0  0
  6  1  2  0  0  0  0
  8  5  1  0  0  0  0
  9 10  1  0  0  0  0
  9 13  2  0  0  0  0
 10 11  2  0  0  0  0
 11 12  1  0  0  0  0
 11 15  1  0  0  0  0
 12 16  1  0  0  0  0
 13 12  1  0  0  0  0
 14 10  1  0  0  0  0
 18 19  2  0  0  0  0
 18 17  1  0  0  0  0
 20 21  1  0  0  0  0
 21 22  1  0  0  0  0
 22 18  1  0  0  0  0
 22 23  2  0  0  0  0
 23 24  1  0  0  0  0
 25 23  1  0  0  0  0
 25 26  1  0  0  0  0
 27 25  2  0  0  0  0
 28 21  2  0  0  0  0
 28 27  1  0  0  0  0
M  END
>  <minimizedAffinity>
-5.52388144

>  <minimizedRMSD>
0.887874901

$$$$
