
 OpenBabel03242519093D

 47 50  0  0  1  0  0  0  0  0999 V2000
   48.7090   32.3050   37.0670 C   0  0  0  0  0  0  0  0  0  0  0  0
   48.0190   33.0350   38.0420 C   0  0  0  0  0  0  0  0  0  0  0  0
   46.7080   33.2920   37.6920 C   0  0  0  0  0  0  0  0  0  0  0  0
   46.0980   32.9000   36.5360 C   0  0  0  0  0  0  0  0  0  0  0  0
   46.8190   32.1860   35.6110 C   0  0  0  0  0  0  0  0  0  0  0  0
   48.1320   31.8990   35.9050 C   0  0  0  0  0  0  0  0  0  0  0  0
   46.1200   33.8590   38.4140 H   0  0  0  0  0  0  0  0  0  0  0  0
   45.0710   33.1560   36.3680 H   0  0  0  0  0  0  0  0  0  0  0  0
   46.3100   31.8890   34.7050 H   0  0  0  0  0  0  0  0  0  0  0  0
   49.3860   31.8140   33.7910 C   0  0  0  0  0  0  0  0  0  0  0  0
   49.1260   33.0640   33.6200 O   0  0  0  0  0  0  0  0  0  0  0  0
   48.8650   31.1520   34.9230 N   0  0  0  0  0  0  0  0  0  0  0  0
   48.9740   30.1240   35.1150 H   0  0  0  0  0  0  0  0  0  0  0  0
   47.8810   30.3040   31.6020 Cl  0  0  0  0  0  0  0  0  0  0  0  0
   49.6170   30.2030   31.9010 C   0  0  0  0  0  0  0  0  0  0  0  0
   50.1920   30.9330   32.9240 C   0  0  0  0  0  0  0  0  0  0  0  0
   51.5530   30.8460   33.1520 C   0  0  0  0  0  0  0  0  0  0  0  0
   52.0170   31.4250   33.9620 H   0  0  0  0  0  0  0  0  0  0  0  0
   52.3780   30.0460   32.3870 C   0  0  0  0  0  0  0  0  0  0  0  0
   53.4550   29.9450   32.5290 H   0  0  0  0  0  0  0  0  0  0  0  0
   51.7670   29.3330   31.3760 C   0  0  0  0  0  0  0  0  0  0  0  0
   50.3950   29.3700   31.0870 C   0  0  0  0  0  0  0  0  0  0  0  0
   48.5700   33.4760   39.2590 N   0  0  0  0  0  0  0  0  0  0  0  0
   49.5210   33.8920   39.0530 H   0  0  0  0  0  0  0  0  0  0  0  0
   47.4740   34.5250   42.4790 N   0  0  0  0  0  0  0  0  0  0  0  0
   47.4570   34.7430   41.0320 C   0  0  0  0  0  0  0  0  0  0  0  0
   48.0840   33.4510   40.6040 C   0  0  2  0  0  0  0  0  0  0  0  0
   49.3080   33.4080   41.5130 C   0  0  0  0  0  0  0  0  0  0  0  0
   48.7770   34.0180   42.7870 C   0  0  0  0  0  0  0  0  0  0  0  0
   48.1430   35.5560   40.7510 H   0  0  0  0  0  0  0  0  0  0  0  0
   46.4320   34.8770   40.6610 H   0  0  0  0  0  0  0  0  0  0  0  0
   47.4010   32.6230   40.7980 H   0  0  0  0  0  0  0  0  0  0  0  0
   50.1650   33.9430   41.0760 H   0  0  0  0  0  0  0  0  0  0  0  0
   49.5310   32.3510   41.7160 H   0  0  0  0  0  0  0  0  0  0  0  0
   48.7280   33.2870   43.6170 H   0  0  0  0  0  0  0  0  0  0  0  0
   49.4840   34.8060   43.0850 H   0  0  0  0  0  0  0  0  0  0  0  0
   44.5640   35.8650   44.3920 C   0  0  0  0  0  0  0  0  0  0  0  0
   45.5090   35.7320   43.3820 C   0  0  0  0  0  0  0  0  0  0  0  0
   46.4870   34.7340   43.4480 C   0  0  0  0  0  0  0  0  0  0  0  0
   46.4490   33.9290   44.5380 N   0  0  0  0  0  0  0  0  0  0  0  0
   45.5400   34.0530   45.5180 C   0  0  0  0  0  0  0  0  0  0  0  0
   44.5980   35.0190   45.4460 N   0  0  0  0  0  0  0  0  0  0  0  0
   43.8280   36.6470   44.3030 H   0  0  0  0  0  0  0  0  0  0  0  0
   45.5200   36.3940   42.5090 H   0  0  0  0  0  0  0  0  0  0  0  0
   45.6360   33.3340   46.3290 H   0  0  0  0  0  0  0  0  0  0  0  0
   51.2140   31.7380   37.5860 N   0  0  0  0  0  0  0  0  0  0  0  0
   50.1060   31.9900   37.3590 C   0  0  0  0  0  0  0  0  0  0  0  0
  1 47  1  0  0  0  0
  1  2  1  0  0  0  0
  2 23  1  0  0  0  0
  3  2  2  0  0  0  0
  3  7  1  0  0  0  0
  4  3  1  0  0  0  0
  5  6  1  0  0  0  0
  5  4  2  0  0  0  0
  6  1  2  0  0  0  0
  8  4  1  0  0  0  0
  9  5  1  0  0  0  0
 10 12  1  0  0  0  0
 11 10  2  0  0  0  0
 12 13  1  0  0  0  0
 12  6  1  0  0  0  0
 14 15  1  0  0  0  0
 15 16  1  0  0  0  0
 16 17  2  0  0  0  0
 16 10  1  0  0  0  0
 17 18  1  0  0  0  0
 19 20  1  0  0  0  0
 19 17  1  0  0  0  0
 21 19  2  0  0  0  0
 22 21  1  0  0  0  0
 22 15  2  0  0  0  0
 23 27  1  0  0  0  0
 24 23  1  0  0  0  0
 25 29  1  0  0  0  0
 25 39  1  0  0  0  0
 26 25  1  0  0  0  0
 27 32  1  1  0  0  0
 27 26  1  0  0  0  0
 27 28  1  0  0  0  0
 28 34  1  0  0  0  0
 28 29  1  0  0  0  0
 29 36  1  0  0  0  0
 29 35  1  0  0  0  0
 30 26  1  0  0  0  0
 31 26  1  0  0  0  0
 33 28  1  0  0  0  0
 37 42  1  0  0  0  0
 38 39  1  0  0  0  0
 38 37  2  0  0  0  0
 39 40  2  0  0  0  0
 40 41  1  0  0  0  0
 41 45  1  0  0  0  0
 42 41  2  0  0  0  0
 43 37  1  0  0  0  0
 44 38  1  0  0  0  0
 47 46  3  0  0  0  0
M  END
>  <minimizedAffinity>
-5.97322893

>  <minimizedRMSD>
0.424191028

$$$$
