
 OpenBabel03242519123D

 47 50  0  0  1  0  0  0  0  0999 V2000
   39.3520   31.4290   39.6320 C   0  0  0  0  0  0  0  0  0  0  0  0
   39.2900   32.7910   39.3140 C   0  0  0  0  0  0  0  0  0  0  0  0
   38.0320   33.3290   39.5030 C   0  0  0  0  0  0  0  0  0  0  0  0
   36.9340   32.6550   39.9500 C   0  0  0  0  0  0  0  0  0  0  0  0
   37.0470   31.3200   40.2490 C   0  0  0  0  0  0  0  0  0  0  0  0
   38.2770   30.7270   40.0800 C   0  0  0  0  0  0  0  0  0  0  0  0
   37.9230   34.3880   39.2700 H   0  0  0  0  0  0  0  0  0  0  0  0
   36.0030   33.1750   40.0600 H   0  0  0  0  0  0  0  0  0  0  0  0
   36.1610   30.8110   40.6010 H   0  0  0  0  0  0  0  0  0  0  0  0
   38.4570   28.9310   41.7510 C   0  0  0  0  0  0  0  0  0  0  0  0
   38.5270   29.8310   42.6690 O   0  0  0  0  0  0  0  0  0  0  0  0
   38.3720   29.3310   40.3990 N   0  0  0  0  0  0  0  0  0  0  0  0
   38.3710   28.6720   39.5810 H   0  0  0  0  0  0  0  0  0  0  0  0
   41.1840   27.5520   41.7680 Cl  0  0  0  0  0  0  0  0  0  0  0  0
   39.6290   26.7380   41.9450 C   0  0  0  0  0  0  0  0  0  0  0  0
   38.4540   27.4650   41.9210 C   0  0  0  0  0  0  0  0  0  0  0  0
   37.2400   26.8180   42.0590 C   0  0  0  0  0  0  0  0  0  0  0  0
   36.3020   27.3900   42.0430 H   0  0  0  0  0  0  0  0  0  0  0  0
   37.1490   25.4510   42.2240 C   0  0  0  0  0  0  0  0  0  0  0  0
   36.2160   24.8970   42.3370 H   0  0  0  0  0  0  0  0  0  0  0  0
   38.3440   24.7590   42.2430 C   0  0  0  0  0  3  0  0  0  0  0  0
   39.6100   25.3460   42.1080 C   0  0  0  0  0  3  0  0  0  0  0  0
   40.3720   33.5590   38.8480 N   0  0  0  0  0  0  0  0  0  0  0  0
   40.4710   33.3860   37.8100 H   0  0  0  0  0  0  0  0  0  0  0  0
   42.1720   35.2840   41.3890 N   0  0  0  0  0  0  0  0  0  0  0  0
   41.6400   34.0150   40.8910 C   0  0  0  0  0  0  0  0  0  0  0  0
   41.2730   34.4550   39.5060 C   0  0  2  0  0  0  0  0  0  0  0  0
   40.4870   35.7270   39.8060 C   0  0  0  0  0  0  0  0  0  0  0  0
   41.2360   36.2910   40.9890 C   0  0  0  0  0  0  0  0  0  0  0  0
   40.7100   33.7500   41.4140 H   0  0  0  0  0  0  0  0  0  0  0  0
   42.4040   33.2270   40.9120 H   0  0  0  0  0  0  0  0  0  0  0  0
   42.1750   34.6580   38.9280 H   0  0  0  0  0  0  0  0  0  0  0  0
   39.4230   35.5200   39.9980 H   0  0  0  0  0  0  0  0  0  0  0  0
   40.6360   36.4130   38.9600 H   0  0  0  0  0  0  0  0  0  0  0  0
   41.7550   37.2380   40.7500 H   0  0  0  0  0  0  0  0  0  0  0  0
   40.4890   36.5120   41.7650 H   0  0  0  0  0  0  0  0  0  0  0  0
   44.5860   36.5980   43.9140 C   0  0  0  0  0  0  0  0  0  0  0  0
   43.3830   36.3710   43.2570 C   0  0  0  0  0  0  0  0  0  0  0  0
   43.3360   35.5680   42.1120 C   0  0  0  0  0  0  0  0  0  0  0  0
   44.5150   35.0420   41.7010 N   0  0  0  0  0  0  0  0  0  0  0  0
   45.6820   35.2570   42.3300 C   0  0  0  0  0  0  0  0  0  0  0  0
   45.7180   36.0340   43.4360 N   0  0  0  0  0  0  0  0  0  0  0  0
   44.5790   37.2220   44.7920 H   0  0  0  0  0  0  0  0  0  0  0  0
   42.4400   36.8060   43.6080 H   0  0  0  0  0  0  0  0  0  0  0  0
   46.5440   34.7680   41.8820 H   0  0  0  0  0  0  0  0  0  0  0  0
   41.6800   30.2640   39.3270 N   0  0  0  0  0  0  0  0  0  0  0  0
   40.6500   30.7800   39.4600 C   0  0  0  0  0  0  0  0  0  0  0  0
  1  6  1  0  0  0  0
  2  3  1  0  0  0  0
  2  1  2  0  0  0  0
  3  4  2  0  0  0  0
  4  8  1  0  0  0  0
  4  5  1  0  0  0  0
  5  9  1  0  0  0  0
  6  5  2  0  0  0  0
  6 12  1  0  0  0  0
  7  3  1  0  0  0  0
 10 16  1  0  0  0  0
 10 11  2  0  0  0  0
 12 10  1  0  0  0  0
 13 12  1  0  0  0  0
 14 15  1  0  0  0  0
 15 22  1  0  0  0  0
 16 15  2  0  0  0  0
 16 17  1  0  0  0  0
 17 19  2  0  0  0  0
 18 17  1  0  0  0  0
 19 21  1  0  0  0  0
 19 20  1  0  0  0  0
 22 21  2  0  0  0  0
 23  2  1  0  0  0  0
 23 27  1  0  0  0  0
 24 23  1  0  0  0  0
 25 39  1  0  0  0  0
 26 31  1  0  0  0  0
 26 25  1  0  0  0  0
 26 30  1  0  0  0  0
 27 32  1  6  0  0  0
 27 28  1  0  0  0  0
 27 26  1  0  0  0  0
 28 33  1  0  0  0  0
 28 29  1  0  0  0  0
 29 25  1  0  0  0  0
 29 36  1  0  0  0  0
 34 28  1  0  0  0  0
 35 29  1  0  0  0  0
 37 43  1  0  0  0  0
 38 44  1  0  0  0  0
 38 37  2  0  0  0  0
 39 38  1  0  0  0  0
 40 39  2  0  0  0  0
 40 41  1  0  0  0  0
 41 42  2  0  0  0  0
 42 37  1  0  0  0  0
 45 41  1  0  0  0  0
 46 47  3  0  0  0  0
 47  1  1  0  0  0  0
M  END
>  <minimizedAffinity>
-6.79115582

$$$$

 OpenBabel03242519123D

 47 50  0  0  1  0  0  0  0  0999 V2000
   38.1410   30.7110   39.4390 C   0  0  0  0  0  0  0  0  0  0  0  0
   38.1340   31.9980   38.8880 C   0  0  0  0  0  0  0  0  0  0  0  0
   37.7280   32.0140   37.5690 C   0  0  0  0  0  0  0  0  0  0  0  0
   37.3610   30.9270   36.8320 C   0  0  0  0  0  0  0  0  0  0  0  0
   37.3850   29.6850   37.4180 C   0  0  0  0  0  0  0  0  0  0  0  0
   37.7820   29.6060   38.7330 C   0  0  0  0  0  0  0  0  0  0  0  0
   37.7020   32.9920   37.0860 H   0  0  0  0  0  0  0  0  0  0  0  0
   37.0610   31.0570   35.8110 H   0  0  0  0  0  0  0  0  0  0  0  0
   37.0900   28.8420   36.8110 H   0  0  0  0  0  0  0  0  0  0  0  0
   36.6290   27.7930   39.9300 C   0  0  0  0  0  0  0  0  0  0  0  0
   35.5880   28.5470   40.0090 O   0  0  0  0  0  0  0  0  0  0  0  0
   37.8000   28.2980   39.3250 N   0  0  0  0  0  0  0  0  0  0  0  0
   38.7130   27.7810   39.2690 H   0  0  0  0  0  0  0  0  0  0  0  0
   37.2500   27.4310   42.9000 Cl  0  0  0  0  0  0  0  0  0  0  0  0
   37.0570   26.1230   41.7320 C   0  0  0  0  0  0  0  0  0  0  0  0
   36.7770   26.4050   40.4080 C   0  0  0  0  0  0  0  0  0  0  0  0
   36.6290   25.3730   39.5000 C   0  0  0  0  0  0  0  0  0  0  0  0
   36.4050   25.5900   38.4470 H   0  0  0  0  0  0  0  0  0  0  0  0
   36.7520   24.0480   39.8660 C   0  0  0  0  0  0  0  0  0  0  0  0
   36.6440   23.2010   39.1860 H   0  0  0  0  0  0  0  0  0  0  0  0
   37.0320   23.8060   41.1960 C   0  0  0  0  0  3  0  0  0  0  0  0
   37.1960   24.7990   42.1710 C   0  0  0  0  0  3  0  0  0  0  0  0
   38.4950   33.1700   39.5770 N   0  0  0  0  0  0  0  0  0  0  0  0
   37.6420   33.5170   40.0970 H   0  0  0  0  0  0  0  0  0  0  0  0
   41.4770   34.6170   40.8760 N   0  0  0  0  0  0  0  0  0  0  0  0
   40.5810   33.4610   40.8240 C   0  0  0  0  0  0  0  0  0  0  0  0
   39.7260   33.8940   39.6700 C   0  0  2  0  0  0  0  0  0  0  0  0
   39.3690   35.3150   40.0920 C   0  0  0  0  0  0  0  0  0  0  0  0
   40.6390   35.7730   40.7680 C   0  0  0  0  0  0  0  0  0  0  0  0
   39.9410   33.4230   41.7170 H   0  0  0  0  0  0  0  0  0  0  0  0
   41.1370   32.5340   40.6330 H   0  0  0  0  0  0  0  0  0  0  0  0
   40.3070   33.8740   38.7480 H   0  0  0  0  0  0  0  0  0  0  0  0
   38.4760   35.3430   40.7360 H   0  0  0  0  0  0  0  0  0  0  0  0
   39.2460   35.9090   39.1760 H   0  0  0  0  0  0  0  0  0  0  0  0
   41.1500   36.5790   40.2060 H   0  0  0  0  0  0  0  0  0  0  0  0
   40.3510   36.1860   41.7450 H   0  0  0  0  0  0  0  0  0  0  0  0
   44.9240   35.3780   42.0850 C   0  0  0  0  0  0  0  0  0  0  0  0
   43.5360   35.3570   42.0380 C   0  0  0  0  0  0  0  0  0  0  0  0
   42.8680   34.6920   41.0030 C   0  0  0  0  0  0  0  0  0  0  0  0
   43.6500   34.0870   40.0770 N   0  0  0  0  0  0  0  0  0  0  0  0
   44.9930   34.1040   40.1160 C   0  0  0  0  0  0  0  0  0  0  0  0
   45.6290   34.7490   41.1190 N   0  0  0  0  0  0  0  0  0  0  0  0
   45.4000   35.9010   42.8990 H   0  0  0  0  0  0  0  0  0  0  0  0
   42.9220   35.8530   42.7990 H   0  0  0  0  0  0  0  0  0  0  0  0
   45.4840   33.5750   39.3020 H   0  0  0  0  0  0  0  0  0  0  0  0
   38.8960   30.5180   41.9410 N   0  0  0  0  0  0  0  0  0  0  0  0
   38.5600   30.6030   40.8350 C   0  0  0  0  0  0  0  0  0  0  0  0
  1 47  1  0  0  0  0
  2  1  1  0  0  0  0
  2 23  1  0  0  0  0
  3  2  2  0  0  0  0
  4  5  2  0  0  0  0
  4  3  1  0  0  0  0
  5  6  1  0  0  0  0
  6 12  1  0  0  0  0
  6  1  2  0  0  0  0
  7  3  1  0  0  0  0
  8  4  1  0  0  0  0
  9  5  1  0  0  0  0
 10 11  2  0  0  0  0
 10 16  1  0  0  0  0
 12 10  1  0  0  0  0
 13 12  1  0  0  0  0
 15 22  1  0  0  0  0
 15 14  1  0  0  0  0
 16 15  2  0  0  0  0
 17 19  2  0  0  0  0
 17 16  1  0  0  0  0
 18 17  1  0  0  0  0
 19 21  1  0  0  0  0
 20 19  1  0  0  0  0
 21 22  2  0  0  0  0
 23 27  1  0  0  0  0
 23 24  1  0  0  0  0
 25 39  1  0  0  0  0
 26 25  1  0  0  0  0
 26 30  1  0  0  0  0
 27 32  1  6  0  0  0
 27 28  1  0  0  0  0
 27 26  1  0  0  0  0
 28 33  1  0  0  0  0
 28 29  1  0  0  0  0
 29 25  1  0  0  0  0
 29 36  1  0  0  0  0
 31 26  1  0  0  0  0
 34 28  1  0  0  0  0
 35 29  1  0  0  0  0
 37 43  1  0  0  0  0
 38 37  1  0  0  0  0
 38 44  1  0  0  0  0
 39 38  2  0  0  0  0
 40 41  2  0  0  0  0
 40 39  1  0  0  0  0
 41 42  1  0  0  0  0
 42 37  2  0  0  0  0
 45 41  1  0  0  0  0
 47 46  3  0  0  0  0
M  END
>  <minimizedAffinity>
-6.36042738

$$$$

 OpenBabel03242519123D

 47 50  0  0  1  0  0  0  0  0999 V2000
   39.5400   32.2420   39.5520 C   0  0  0  0  0  0  0  0  0  0  0  0
   38.4260   31.8100   38.8210 C   0  0  0  0  0  0  0  0  0  0  0  0
   37.3560   32.6780   38.9100 C   0  0  0  0  0  0  0  0  0  0  0  0
   37.3300   33.8450   39.6160 C   0  0  0  0  0  0  0  0  0  0  0  0
   38.4480   34.2250   40.3170 C   0  0  0  0  0  0  0  0  0  0  0  0
   39.5480   33.3990   40.2660 C   0  0  0  0  0  0  0  0  0  0  0  0
   36.4590   32.3920   38.3600 H   0  0  0  0  0  0  0  0  0  0  0  0
   36.4410   34.4440   39.6140 H   0  0  0  0  0  0  0  0  0  0  0  0
   38.3990   35.1540   40.8670 H   0  0  0  0  0  0  0  0  0  0  0  0
   41.5920   34.7550   40.4360 C   0  0  0  0  0  0  0  0  0  0  0  0
   41.3890   35.1590   39.2300 O   0  0  0  0  0  0  0  0  0  0  0  0
   40.7040   33.8170   41.0060 N   0  0  0  0  0  0  0  0  0  0  0  0
   40.8230   33.3860   41.9560 H   0  0  0  0  0  0  0  0  0  0  0  0
   44.2530   33.2860   40.1210 Cl  0  0  0  0  0  0  0  0  0  0  0  0
   43.9240   34.5580   41.2980 C   0  0  0  0  0  0  0  0  0  0  0  0
   42.6790   35.1540   41.3520 C   0  0  0  0  0  0  0  0  0  0  0  0
   42.4300   36.1480   42.2790 C   0  0  0  0  0  0  0  0  0  0  0  0
   41.4420   36.6280   42.3260 H   0  0  0  0  0  0  0  0  0  0  0  0
   43.3910   36.5800   43.1710 C   0  0  0  0  0  0  0  0  0  0  0  0
   43.2420   37.3610   43.9190 H   0  0  0  0  0  0  0  0  0  0  0  0
   44.6220   35.9620   43.0870 C   0  0  0  0  0  3  0  0  0  0  0  0
   44.9460   34.9470   42.1750 C   0  0  0  0  0  3  0  0  0  0  0  0
   38.3690   30.6240   38.0670 N   0  0  0  0  0  0  0  0  0  0  0  0
   38.8620   30.8000   37.1480 H   0  0  0  0  0  0  0  0  0  0  0  0
   38.0080   27.2270   39.0680 N   0  0  0  0  0  0  0  0  0  0  0  0
   38.5680   28.5490   39.3500 C   0  0  0  0  0  0  0  0  0  0  0  0
   37.8010   29.3380   38.3320 C   0  0  2  0  0  0  0  0  0  0  0  0
   38.0240   28.4930   37.0820 C   0  0  0  0  0  0  0  0  0  0  0  0
   38.0120   27.0910   37.6420 C   0  0  0  0  0  0  0  0  0  0  0  0
   39.6310   28.5900   39.0720 H   0  0  0  0  0  0  0  0  0  0  0  0
   38.3660   28.8550   40.3850 H   0  0  0  0  0  0  0  0  0  0  0  0
   36.7480   29.3840   38.6120 H   0  0  0  0  0  0  0  0  0  0  0  0
   38.9540   28.7650   36.5600 H   0  0  0  0  0  0  0  0  0  0  0  0
   37.1350   28.6050   36.4460 H   0  0  0  0  0  0  0  0  0  0  0  0
   37.1360   26.5060   37.3010 H   0  0  0  0  0  0  0  0  0  0  0  0
   38.9120   26.5860   37.2630 H   0  0  0  0  0  0  0  0  0  0  0  0
   36.4680   24.1160   40.4390 C   0  0  0  0  0  0  0  0  0  0  0  0
   36.9000   25.0560   39.5110 C   0  0  0  0  0  0  0  0  0  0  0  0
   37.5390   26.2280   39.9290 C   0  0  0  0  0  0  0  0  0  0  0  0
   37.7030   26.3780   41.2660 N   0  0  0  0  0  0  0  0  0  0  0  0
   37.2880   25.4740   42.1680 C   0  0  0  0  0  0  0  0  0  0  0  0
   36.6710   24.3440   41.7560 N   0  0  0  0  0  0  0  0  0  0  0  0
   35.9790   23.2270   40.0760 H   0  0  0  0  0  0  0  0  0  0  0  0
   36.7570   24.9140   38.4340 H   0  0  0  0  0  0  0  0  0  0  0  0
   37.4890   25.7330   43.2050 H   0  0  0  0  0  0  0  0  0  0  0  0
   41.6510   30.6920   39.4830 N   0  0  0  0  0  0  0  0  0  0  0  0
   40.7180   31.3800   39.5120 C   0  0  0  0  0  0  0  0  0  0  0  0
  1  6  1  0  0  0  0
  2  3  1  0  0  0  0
  2  1  2  0  0  0  0
  3  4  2  0  0  0  0
  4  5  1  0  0  0  0
  5  9  1  0  0  0  0
  6  5  2  0  0  0  0
  6 12  1  0  0  0  0
  7  3  1  0  0  0  0
  8  4  1  0  0  0  0
 10 12  1  0  0  0  0
 10 16  1  0  0  0  0
 11 10  2  0  0  0  0
 12 13  1  0  0  0  0
 14 15  1  0  0  0  0
 15 16  2  0  0  0  0
 15 22  1  0  0  0  0
 16 17  1  0  0  0  0
 17 18  1  0  0  0  0
 17 19  2  0  0  0  0
 19 20  1  0  0  0  0
 21 19  1  0  0  0  0
 22 21  2  0  0  0  0
 23 27  1  0  0  0  0
 23  2  1  0  0  0  0
 24 23  1  0  0  0  0
 25 26  1  0  0  0  0
 25 39  1  0  0  0  0
 26 31  1  0  0  0  0
 27 32  1  1  0  0  0
 27 26  1  0  0  0  0
 28 29  1  0  0  0  0
 28 27  1  0  0  0  0
 29 25  1  0  0  0  0
 30 26  1  0  0  0  0
 33 28  1  0  0  0  0
 34 28  1  0  0  0  0
 35 29  1  0  0  0  0
 36 29  1  0  0  0  0
 37 42  1  0  0  0  0
 38 39  1  0  0  0  0
 38 37  2  0  0  0  0
 39 40  2  0  0  0  0
 40 41  1  0  0  0  0
 41 45  1  0  0  0  0
 42 41  2  0  0  0  0
 43 37  1  0  0  0  0
 44 38  1  0  0  0  0
 46 47  3  0  0  0  0
 47  1  1  0  0  0  0
M  END
>  <minimizedAffinity>
-6.35141468

$$$$

 OpenBabel03242519123D

 47 50  0  0  1  0  0  0  0  0999 V2000
   37.9750   29.5160   41.7190 C   0  0  0  0  0  0  0  0  0  0  0  0
   37.2790   28.3070   41.8420 C   0  0  0  0  0  0  0  0  0  0  0  0
   36.0120   28.3600   41.2950 C   0  0  0  0  0  0  0  0  0  0  0  0
   35.4480   29.4430   40.6880 C   0  0  0  0  0  0  0  0  0  0  0  0
   36.1720   30.6060   40.5920 C   0  0  0  0  0  0  0  0  0  0  0  0
   37.4430   30.6140   41.1190 C   0  0  0  0  0  0  0  0  0  0  0  0
   35.4210   27.4460   41.3630 H   0  0  0  0  0  0  0  0  0  0  0  0
   34.4530   29.3710   40.2970 H   0  0  0  0  0  0  0  0  0  0  0  0
   35.7010   31.4480   40.1060 H   0  0  0  0  0  0  0  0  0  0  0  0
   38.7370   32.2060   39.7620 C   0  0  0  0  0  0  0  0  0  0  0  0
   38.6370   31.3930   38.7670 O   0  0  0  0  0  0  0  0  0  0  0  0
   38.1810   31.8400   41.0070 N   0  0  0  0  0  0  0  0  0  0  0  0
   38.2650   32.4080   41.8870 H   0  0  0  0  0  0  0  0  0  0  0  0
   41.7120   32.2860   39.0690 Cl  0  0  0  0  0  0  0  0  0  0  0  0
   40.7240   33.6870   39.4860 C   0  0  0  0  0  0  0  0  0  0  0  0
   39.3840   33.5320   39.7840 C   0  0  0  0  0  0  0  0  0  0  0  0
   38.6180   34.6350   40.1110 C   0  0  0  0  0  0  0  0  0  0  0  0
   37.5510   34.5200   40.3470 H   0  0  0  0  0  0  0  0  0  0  0  0
   39.1450   35.9100   40.1540 C   0  0  0  0  0  0  0  0  0  0  0  0
   38.5820   36.8100   40.4060 H   0  0  0  0  0  0  0  0  0  0  0  0
   40.4870   36.0250   39.8510 C   0  0  0  0  0  3  0  0  0  0  0  0
   41.3250   34.9530   39.5120 C   0  0  0  0  0  3  0  0  0  0  0  0
   37.7850   27.1450   42.4520 N   0  0  0  0  0  0  0  0  0  0  0  0
   37.8450   27.3240   43.4920 H   0  0  0  0  0  0  0  0  0  0  0  0
   38.3000   24.4160   40.2250 N   0  0  0  0  0  0  0  0  0  0  0  0
   38.3000   25.8650   40.4310 C   0  0  0  0  0  0  0  0  0  0  0  0
   38.1900   25.8780   41.9260 C   0  0  2  0  0  0  0  0  0  0  0  0
   37.0230   24.9200   42.1380 C   0  0  0  0  0  0  0  0  0  0  0  0
   37.2490   23.8990   41.0500 C   0  0  0  0  0  0  0  0  0  0  0  0
   37.3840   26.3170   40.0250 H   0  0  0  0  0  0  0  0  0  0  0  0
   39.2260   26.3200   40.0550 H   0  0  0  0  0  0  0  0  0  0  0  0
   39.1130   25.5040   42.3710 H   0  0  0  0  0  0  0  0  0  0  0  0
   36.0520   25.4340   42.0850 H   0  0  0  0  0  0  0  0  0  0  0  0
   37.1810   24.4180   43.1040 H   0  0  0  0  0  0  0  0  0  0  0  0
   37.5180   22.9040   41.4510 H   0  0  0  0  0  0  0  0  0  0  0  0
   36.2970   23.7900   40.5100 H   0  0  0  0  0  0  0  0  0  0  0  0
   41.0340   23.1470   38.0250 C   0  0  0  0  0  0  0  0  0  0  0  0
   40.2940   24.0240   38.8090 C   0  0  0  0  0  0  0  0  0  0  0  0
   39.1060   23.6050   39.4190 C   0  0  0  0  0  0  0  0  0  0  0  0
   38.7390   22.3200   39.1970 N   0  0  0  0  0  0  0  0  0  0  0  0
   39.4490   21.4680   38.4400 C   0  0  0  0  0  0  0  0  0  0  0  0
   40.5950   21.8800   37.8540 N   0  0  0  0  0  0  0  0  0  0  0  0
   41.9420   23.5090   37.5720 H   0  0  0  0  0  0  0  0  0  0  0  0
   40.6100   25.0600   38.9760 H   0  0  0  0  0  0  0  0  0  0  0  0
   39.0280   20.4680   38.3530 H   0  0  0  0  0  0  0  0  0  0  0  0
   40.4010   29.5700   42.7080 N   0  0  0  0  0  0  0  0  0  0  0  0
   39.3270   29.5460   42.2720 C   0  0  0  0  0  0  0  0  0  0  0  0
  1  2  1  0  0  0  0
  1 47  1  0  0  0  0
  2 23  1  0  0  0  0
  3  7  1  0  0  0  0
  3  2  2  0  0  0  0
  4  3  1  0  0  0  0
  5  4  2  0  0  0  0
  5  6  1  0  0  0  0
  6  1  2  0  0  0  0
  8  4  1  0  0  0  0
  9  5  1  0  0  0  0
 10 16  1  0  0  0  0
 10 12  1  0  0  0  0
 11 10  2  0  0  0  0
 12  6  1  0  0  0  0
 12 13  1  0  0  0  0
 14 15  1  0  0  0  0
 15 22  2  0  0  0  0
 15 16  1  0  0  0  0
 16 17  2  0  0  0  0
 17 19  1  0  0  0  0
 17 18  1  0  0  0  0
 19 20  1  0  0  0  0
 21 19  2  0  0  0  0
 22 21  1  0  0  0  0
 23 24  1  0  0  0  0
 25 26  1  0  0  0  0
 25 29  1  0  0  0  0
 26 27  1  0  0  0  0
 27 28  1  0  0  0  0
 27 32  1  1  0  0  0
 27 23  1  0  0  0  0
 28 34  1  0  0  0  0
 29 35  1  0  0  0  0
 29 28  1  0  0  0  0
 30 26  1  0  0  0  0
 31 26  1  0  0  0  0
 33 28  1  0  0  0  0
 36 29  1  0  0  0  0
 37 38  1  0  0  0  0
 38 44  1  0  0  0  0
 38 39  2  0  0  0  0
 39 25  1  0  0  0  0
 40 39  1  0  0  0  0
 41 40  2  0  0  0  0
 42 37  2  0  0  0  0
 42 41  1  0  0  0  0
 43 37  1  0  0  0  0
 45 41  1  0  0  0  0
 47 46  3  0  0  0  0
M  END
>  <minimizedAffinity>
-6.27482271

$$$$

 OpenBabel03242519123D

 47 50  0  0  1  0  0  0  0  0999 V2000
   38.0610   29.8190   41.5450 C   0  0  0  0  0  0  0  0  0  0  0  0
   37.3650   28.6050   41.5030 C   0  0  0  0  0  0  0  0  0  0  0  0
   36.1260   28.7180   40.9040 C   0  0  0  0  0  0  0  0  0  0  0  0
   35.5870   29.8620   40.3910 C   0  0  0  0  0  0  0  0  0  0  0  0
   36.3100   31.0280   40.4570 C   0  0  0  0  0  0  0  0  0  0  0  0
   37.5540   30.9770   41.0430 C   0  0  0  0  0  0  0  0  0  0  0  0
   35.5360   27.8030   40.8430 H   0  0  0  0  0  0  0  0  0  0  0  0
   34.6120   29.8340   39.9470 H   0  0  0  0  0  0  0  0  0  0  0  0
   35.8590   31.9180   40.0430 H   0  0  0  0  0  0  0  0  0  0  0  0
   39.0320   32.6270   39.9750 C   0  0  0  0  0  0  0  0  0  0  0  0
   39.0960   31.8590   38.9440 O   0  0  0  0  0  0  0  0  0  0  0  0
   38.2920   32.2070   41.1010 N   0  0  0  0  0  0  0  0  0  0  0  0
   38.2320   32.7360   42.0070 H   0  0  0  0  0  0  0  0  0  0  0  0
   42.0110   32.6490   40.6580 Cl  0  0  0  0  0  0  0  0  0  0  0  0
   40.9990   34.0810   40.4650 C   0  0  0  0  0  0  0  0  0  0  0  0
   39.6580   33.9510   40.1550 C   0  0  0  0  0  0  0  0  0  0  0  0
   38.8720   35.0790   40.0070 C   0  0  0  0  0  0  0  0  0  0  0  0
   37.8060   34.9830   39.7590 H   0  0  0  0  0  0  0  0  0  0  0  0
   39.3790   36.3540   40.1580 C   0  0  0  0  0  0  0  0  0  0  0  0
   38.8000   37.2720   40.0510 H   0  0  0  0  0  0  0  0  0  0  0  0
   40.7220   36.4430   40.4670 C   0  0  0  0  0  3  0  0  0  0  0  0
   41.5780   35.3460   40.6330 C   0  0  0  0  0  3  0  0  0  0  0  0
   37.8460   27.3830   42.0060 N   0  0  0  0  0  0  0  0  0  0  0  0
   37.9930   27.4960   43.0470 H   0  0  0  0  0  0  0  0  0  0  0  0
   37.7860   23.9210   41.1810 N   0  0  0  0  0  0  0  0  0  0  0  0
   37.0300   25.1280   41.5190 C   0  0  0  0  0  0  0  0  0  0  0  0
   38.1370   26.1300   41.3810 C   0  0  2  0  0  0  0  0  0  0  0  0
   39.2310   25.4680   42.2120 C   0  0  0  0  0  0  0  0  0  0  0  0
   39.0130   24.0040   41.9140 C   0  0  0  0  0  0  0  0  0  0  0  0
   36.7230   25.1140   42.5740 H   0  0  0  0  0  0  0  0  0  0  0  0
   36.2030   25.2890   40.8160 H   0  0  0  0  0  0  0  0  0  0  0  0
   38.4220   26.2280   40.3330 H   0  0  0  0  0  0  0  0  0  0  0  0
   39.1560   25.7310   43.2780 H   0  0  0  0  0  0  0  0  0  0  0  0
   40.1970   25.7570   41.7740 H   0  0  0  0  0  0  0  0  0  0  0  0
   39.8470   23.5610   41.3360 H   0  0  0  0  0  0  0  0  0  0  0  0
   38.9700   23.4830   42.8810 H   0  0  0  0  0  0  0  0  0  0  0  0
   36.1110   21.6890   38.7040 C   0  0  0  0  0  0  0  0  0  0  0  0
   36.3430   22.7940   39.5130 C   0  0  0  0  0  0  0  0  0  0  0  0
   37.4720   22.8500   40.3370 C   0  0  0  0  0  0  0  0  0  0  0  0
   38.3000   21.7790   40.2920 N   0  0  0  0  0  0  0  0  0  0  0  0
   38.0820   20.7070   39.5130 C   0  0  0  0  0  0  0  0  0  0  0  0
   36.9890   20.6610   38.7200 N   0  0  0  0  0  0  0  0  0  0  0  0
   35.2290   21.6840   38.0840 H   0  0  0  0  0  0  0  0  0  0  0  0
   35.6590   23.6510   39.5330 H   0  0  0  0  0  0  0  0  0  0  0  0
   38.8350   19.9240   39.5850 H   0  0  0  0  0  0  0  0  0  0  0  0
   40.4360   29.7610   42.6510 N   0  0  0  0  0  0  0  0  0  0  0  0
   39.3850   29.7880   42.1640 C   0  0  0  0  0  0  0  0  0  0  0  0
  1 47  1  0  0  0  0
  2  1  1  0  0  0  0
  2 23  1  0  0  0  0
  3  2  2  0  0  0  0
  4  5  2  0  0  0  0
  4  3  1  0  0  0  0
  5  6  1  0  0  0  0
  6 12  1  0  0  0  0
  6  1  2  0  0  0  0
  7  3  1  0  0  0  0
  8  4  1  0  0  0  0
  9  5  1  0  0  0  0
 10 16  1  0  0  0  0
 10 12  1  0  0  0  0
 11 10  2  0  0  0  0
 12 13  1  0  0  0  0
 15 22  1  0  0  0  0
 15 14  1  0  0  0  0
 16 15  2  0  0  0  0
 17 16  1  0  0  0  0
 17 19  2  0  0  0  0
 18 17  1  0  0  0  0
 19 21  1  0  0  0  0
 20 19  1  0  0  0  0
 21 22  2  0  0  0  0
 23 24  1  0  0  0  0
 25 26  1  0  0  0  0
 25 29  1  0  0  0  0
 26 30  1  0  0  0  0
 27 32  1  6  0  0  0
 27 26  1  0  0  0  0
 27 23  1  0  0  0  0
 27 28  1  0  0  0  0
 28 33  1  0  0  0  0
 29 28  1  0  0  0  0
 29 36  1  0  0  0  0
 31 26  1  0  0  0  0
 34 28  1  0  0  0  0
 35 29  1  0  0  0  0
 37 42  2  0  0  0  0
 37 38  1  0  0  0  0
 38 44  1  0  0  0  0
 38 39  2  0  0  0  0
 39 25  1  0  0  0  0
 40 39  1  0  0  0  0
 41 45  1  0  0  0  0
 41 40  2  0  0  0  0
 42 41  1  0  0  0  0
 43 37  1  0  0  0  0
 47 46  3  0  0  0  0
M  END
>  <minimizedAffinity>
-6.23795748

$$$$

 OpenBabel03242519123D

 47 50  0  0  1  0  0  0  0  0999 V2000
   37.9340   27.0790   42.2290 C   0  0  0  0  0  0  0  0  0  0  0  0
   38.7810   27.8840   43.0020 C   0  0  0  0  0  0  0  0  0  0  0  0
   39.7610   27.1600   43.6520 C   0  0  0  0  0  0  0  0  0  0  0  0
   39.9340   25.8090   43.5860 C   0  0  0  0  0  0  0  0  0  0  0  0
   39.0770   25.0640   42.8150 C   0  0  0  0  0  0  0  0  0  0  0  0
   38.0780   25.7300   42.1420 C   0  0  0  0  0  0  0  0  0  0  0  0
   40.4520   27.7350   44.2700 H   0  0  0  0  0  0  0  0  0  0  0  0
   40.7320   25.3510   44.1360 H   0  0  0  0  0  0  0  0  0  0  0  0
   39.2370   23.9960   42.7820 H   0  0  0  0  0  0  0  0  0  0  0  0
   37.5680   24.5870   40.0250 C   0  0  0  0  0  0  0  0  0  0  0  0
   38.6610   25.0630   39.5380 O   0  0  0  0  0  0  0  0  0  0  0  0
   37.1940   24.9310   41.3420 N   0  0  0  0  0  0  0  0  0  0  0  0
   36.2950   24.6410   41.8010 H   0  0  0  0  0  0  0  0  0  0  0  0
   38.1390   21.5910   40.2130 Cl  0  0  0  0  0  0  0  0  0  0  0  0
   36.7590   22.3160   39.3870 C   0  0  0  0  0  0  0  0  0  0  0  0
   36.6010   23.6880   39.3650 C   0  0  0  0  0  0  0  0  0  0  0  0
   35.5170   24.2470   38.7140 C   0  0  0  0  0  0  0  0  0  0  0  0
   35.3840   25.3370   38.6940 H   0  0  0  0  0  0  0  0  0  0  0  0
   34.5670   23.4780   38.0730 C   0  0  0  0  0  0  0  0  0  0  0  0
   33.6960   23.8730   37.5470 H   0  0  0  0  0  0  0  0  0  0  0  0
   34.7590   22.1120   38.1170 C   0  0  0  0  0  3  0  0  0  0  0  0
   35.8320   21.4750   38.7560 C   0  0  0  0  0  3  0  0  0  0  0  0
   38.6740   29.2800   43.1240 N   0  0  0  0  0  0  0  0  0  0  0  0
   37.8820   29.4880   43.7930 H   0  0  0  0  0  0  0  0  0  0  0  0
   39.7050   31.8360   40.8700 N   0  0  0  0  0  0  0  0  0  0  0  0
   38.6030   31.1510   41.5480 C   0  0  0  0  0  0  0  0  0  0  0  0
   39.4060   30.3600   42.5360 C   0  0  2  0  0  0  0  0  0  0  0  0
   40.4530   29.7330   41.6210 C   0  0  0  0  0  0  0  0  0  0  0  0
   40.6970   30.8350   40.6180 C   0  0  0  0  0  0  0  0  0  0  0  0
   38.1100   30.4390   40.8710 H   0  0  0  0  0  0  0  0  0  0  0  0
   37.9160   31.8690   42.0160 H   0  0  0  0  0  0  0  0  0  0  0  0
   39.8530   31.0270   43.2730 H   0  0  0  0  0  0  0  0  0  0  0  0
   40.1040   28.7870   41.1800 H   0  0  0  0  0  0  0  0  0  0  0  0
   41.3730   29.6090   42.2100 H   0  0  0  0  0  0  0  0  0  0  0  0
   41.7150   31.2630   40.6980 H   0  0  0  0  0  0  0  0  0  0  0  0
   40.6070   30.3850   39.6190 H   0  0  0  0  0  0  0  0  0  0  0  0
   39.1130   35.4650   40.2360 C   0  0  0  0  0  0  0  0  0  0  0  0
   38.8700   34.1560   40.6310 C   0  0  0  0  0  0  0  0  0  0  0  0
   39.8590   33.1760   40.4980 C   0  0  0  0  0  0  0  0  0  0  0  0
   41.0390   33.5830   39.9700 N   0  0  0  0  0  0  0  0  0  0  0  0
   41.2810   34.8470   39.5860 C   0  0  0  0  0  0  0  0  0  0  0  0
   40.3190   35.7870   39.7180 N   0  0  0  0  0  0  0  0  0  0  0  0
   38.3240   36.1900   40.3540 H   0  0  0  0  0  0  0  0  0  0  0  0
   37.9080   33.8480   41.0560 H   0  0  0  0  0  0  0  0  0  0  0  0
   42.2750   35.0230   39.1800 H   0  0  0  0  0  0  0  0  0  0  0  0
   36.0220   28.3120   40.9290 N   0  0  0  0  0  0  0  0  0  0  0  0
   36.8660   27.7660   41.5060 C   0  0  0  0  0  0  0  0  0  0  0  0
  1  2  1  0  0  0  0
  2 23  1  0  0  0  0
  2  3  2  0  0  0  0
  3  7  1  0  0  0  0
  4  3  1  0  0  0  0
  4  8  1  0  0  0  0
  5  4  2  0  0  0  0
  6  1  2  0  0  0  0
  6  5  1  0  0  0  0
  9  5  1  0  0  0  0
 10 12  1  0  0  0  0
 11 10  2  0  0  0  0
 12 13  1  0  0  0  0
 12  6  1  0  0  0  0
 15 14  1  0  0  0  0
 16 15  1  0  0  0  0
 16 10  1  0  0  0  0
 17 16  2  0  0  0  0
 18 17  1  0  0  0  0
 19 21  2  0  0  0  0
 19 17  1  0  0  0  0
 20 19  1  0  0  0  0
 21 22  1  0  0  0  0
 22 15  2  0  0  0  0
 23 24  1  0  0  0  0
 25 26  1  0  0  0  0
 26 31  1  0  0  0  0
 26 27  1  0  0  0  0
 27 23  1  0  0  0  0
 27 32  1  1  0  0  0
 28 34  1  0  0  0  0
 28 27  1  0  0  0  0
 29 35  1  0  0  0  0
 29 25  1  0  0  0  0
 29 28  1  0  0  0  0
 30 26  1  0  0  0  0
 33 28  1  0  0  0  0
 36 29  1  0  0  0  0
 37 43  1  0  0  0  0
 37 38  1  0  0  0  0
 38 44  1  0  0  0  0
 39 38  2  0  0  0  0
 39 25  1  0  0  0  0
 40 39  1  0  0  0  0
 41 42  1  0  0  0  0
 41 40  2  0  0  0  0
 42 37  2  0  0  0  0
 45 41  1  0  0  0  0
 46 47  3  0  0  0  0
 47  1  1  0  0  0  0
M  END
>  <minimizedAffinity>
-6.21520424

$$$$

 OpenBabel03242519123D

 47 50  0  0  1  0  0  0  0  0999 V2000
   38.0860   30.6670   40.6900 C   0  0  0  0  0  0  0  0  0  0  0  0
   37.2340   29.7020   40.1380 C   0  0  0  0  0  0  0  0  0  0  0  0
   36.7060   30.0870   38.9210 C   0  0  0  0  0  0  0  0  0  0  0  0
   36.9520   31.2650   38.2800 C   0  0  0  0  0  0  0  0  0  0  0  0
   37.7940   32.1790   38.8630 C   0  0  0  0  0  0  0  0  0  0  0  0
   38.3530   31.8510   40.0780 C   0  0  0  0  0  0  0  0  0  0  0  0
   36.0330   29.3740   38.4420 H   0  0  0  0  0  0  0  0  0  0  0  0
   36.4850   31.4600   37.3350 H   0  0  0  0  0  0  0  0  0  0  0  0
   37.9710   33.1040   38.3330 H   0  0  0  0  0  0  0  0  0  0  0  0
   40.3820   33.2360   39.9650 C   0  0  0  0  0  0  0  0  0  0  0  0
   40.6650   32.6770   38.8400 O   0  0  0  0  0  0  0  0  0  0  0  0
   39.2300   32.8210   40.6680 N   0  0  0  0  0  0  0  0  0  0  0  0
   38.9520   33.1740   41.6180 H   0  0  0  0  0  0  0  0  0  0  0  0
   39.0780   35.9990   40.0360 Cl  0  0  0  0  0  0  0  0  0  0  0  0
   40.6360   35.5880   40.7530 C   0  0  0  0  0  0  0  0  0  0  0  0
   41.1310   34.3010   40.6590 C   0  0  0  0  0  0  0  0  0  0  0  0
   42.3540   33.9890   41.2230 C   0  0  0  0  0  0  0  0  0  0  0  0
   42.7520   32.9680   41.1540 H   0  0  0  0  0  0  0  0  0  0  0  0
   43.1170   34.9260   41.8900 C   0  0  0  0  0  0  0  0  0  0  0  0
   44.0860   34.7280   42.3510 H   0  0  0  0  0  0  0  0  0  0  0  0
   42.5900   36.2000   41.9630 C   0  0  0  0  0  3  0  0  0  0  0  0
   41.3600   36.5890   41.4160 C   0  0  0  0  0  3  0  0  0  0  0  0
   36.9280   28.4640   40.7300 N   0  0  0  0  0  0  0  0  0  0  0  0
   35.9920   28.5580   41.2140 H   0  0  0  0  0  0  0  0  0  0  0  0
   37.6210   24.9730   40.6500 N   0  0  0  0  0  0  0  0  0  0  0  0
   36.8980   26.1070   40.0720 C   0  0  0  0  0  0  0  0  0  0  0  0
   37.6250   27.2150   40.7720 C   0  0  2  0  0  0  0  0  0  0  0  0
   37.5700   26.7300   42.2170 C   0  0  0  0  0  0  0  0  0  0  0  0
   37.7120   25.2360   42.0540 C   0  0  0  0  0  0  0  0  0  0  0  0
   35.8550   26.1220   40.4180 H   0  0  0  0  0  0  0  0  0  0  0  0
   37.0060   26.1330   38.9800 H   0  0  0  0  0  0  0  0  0  0  0  0
   38.6490   27.2820   40.4010 H   0  0  0  0  0  0  0  0  0  0  0  0
   36.6460   27.0460   42.7240 H   0  0  0  0  0  0  0  0  0  0  0  0
   38.4750   27.0970   42.7220 H   0  0  0  0  0  0  0  0  0  0  0  0
   38.6670   24.8540   42.4640 H   0  0  0  0  0  0  0  0  0  0  0  0
   36.8990   24.7720   42.6300 H   0  0  0  0  0  0  0  0  0  0  0  0
   38.3450   21.4350   39.7100 C   0  0  0  0  0  0  0  0  0  0  0  0
   37.7630   22.5180   40.3570 C   0  0  0  0  0  0  0  0  0  0  0  0
   38.1530   23.8260   40.0510 C   0  0  0  0  0  0  0  0  0  0  0  0
   39.1130   23.9580   39.1040 N   0  0  0  0  0  0  0  0  0  0  0  0
   39.6800   22.9170   38.4740 C   0  0  0  0  0  0  0  0  0  0  0  0
   39.2980   21.6560   38.7760 N   0  0  0  0  0  0  0  0  0  0  0  0
   38.0170   20.4440   39.9750 H   0  0  0  0  0  0  0  0  0  0  0  0
   36.9870   22.3870   41.1210 H   0  0  0  0  0  0  0  0  0  0  0  0
   40.4370   23.1810   37.7380 H   0  0  0  0  0  0  0  0  0  0  0  0
   39.1680   30.0820   43.0040 N   0  0  0  0  0  0  0  0  0  0  0  0
   38.6890   30.3380   41.9790 C   0  0  0  0  0  0  0  0  0  0  0  0
  1 47  1  0  0  0  0
  2  1  1  0  0  0  0
  2 23  1  0  0  0  0
  3  2  2  0  0  0  0
  4  5  2  0  0  0  0
  4  3  1  0  0  0  0
  5  6  1  0  0  0  0
  6 12  1  0  0  0  0
  6  1  2  0  0  0  0
  7  3  1  0  0  0  0
  8  4  1  0  0  0  0
  9  5  1  0  0  0  0
 10 16  1  0  0  0  0
 10 12  1  0  0  0  0
 11 10  2  0  0  0  0
 12 13  1  0  0  0  0
 14 15  1  0  0  0  0
 15 22  1  0  0  0  0
 16 15  2  0  0  0  0
 16 17  1  0  0  0  0
 17 19  2  0  0  0  0
 18 17  1  0  0  0  0
 19 21  1  0  0  0  0
 19 20  1  0  0  0  0
 22 21  2  0  0  0  0
 23 27  1  0  0  0  0
 23 24  1  0  0  0  0
 25 29  1  0  0  0  0
 26 30  1  0  0  0  0
 26 25  1  0  0  0  0
 26 27  1  0  0  0  0
 27 32  1  6  0  0  0
 27 28  1  0  0  0  0
 28 34  1  0  0  0  0
 28 33  1  0  0  0  0
 29 28  1  0  0  0  0
 29 35  1  0  0  0  0
 29 36  1  0  0  0  0
 31 26  1  0  0  0  0
 37 43  1  0  0  0  0
 37 38  1  0  0  0  0
 38 44  1  0  0  0  0
 39 38  2  0  0  0  0
 39 25  1  0  0  0  0
 40 39  1  0  0  0  0
 41 42  1  0  0  0  0
 41 40  2  0  0  0  0
 42 37  2  0  0  0  0
 45 41  1  0  0  0  0
 47 46  3  0  0  0  0
M  END
>  <minimizedAffinity>
-6.12769365

$$$$

 OpenBabel03242519123D

 47 50  0  0  1  0  0  0  0  0999 V2000
   39.0440   31.8780   41.3080 C   0  0  0  0  0  0  0  0  0  0  0  0
   37.7730   31.3520   41.0480 C   0  0  0  0  0  0  0  0  0  0  0  0
   37.0700   32.0840   40.1110 C   0  0  0  0  0  0  0  0  0  0  0  0
   37.5160   33.2040   39.4740 C   0  0  0  0  0  0  0  0  0  0  0  0
   38.7710   33.6810   39.7640 C   0  0  0  0  0  0  0  0  0  0  0  0
   39.5200   32.9930   40.6910 C   0  0  0  0  0  0  0  0  0  0  0  0
   36.0710   31.7210   39.8690 H   0  0  0  0  0  0  0  0  0  0  0  0
   36.8830   33.6940   38.7620 H   0  0  0  0  0  0  0  0  0  0  0  0
   39.0980   34.5700   39.2450 H   0  0  0  0  0  0  0  0  0  0  0  0
   41.9400   33.0260   40.2540 C   0  0  0  0  0  0  0  0  0  0  0  0
   41.7700   32.0730   39.4050 O   0  0  0  0  0  0  0  0  0  0  0  0
   40.8280   33.5090   40.9770 N   0  0  0  0  0  0  0  0  0  0  0  0
   40.8790   34.2390   41.7310 H   0  0  0  0  0  0  0  0  0  0  0  0
   44.0340   33.2290   38.0380 Cl  0  0  0  0  0  0  0  0  0  0  0  0
   44.2140   33.8680   39.6720 C   0  0  0  0  0  0  0  0  0  0  0  0
   43.1970   33.7170   40.5960 C   0  0  0  0  0  0  0  0  0  0  0  0
   43.3480   34.2210   41.8750 C   0  0  0  0  0  0  0  0  0  0  0  0
   42.5440   34.1060   42.6140 H   0  0  0  0  0  0  0  0  0  0  0  0
   44.4920   34.8810   42.2760 C   0  0  0  0  0  0  0  0  0  0  0  0
   44.6560   35.2950   43.2720 H   0  0  0  0  0  0  0  0  0  0  0  0
   45.4840   35.0120   41.3250 C   0  0  0  0  0  3  0  0  0  0  0  0
   45.4030   34.5280   40.0120 C   0  0  0  0  0  3  0  0  0  0  0  0
   37.2370   30.2030   41.6580 N   0  0  0  0  0  0  0  0  0  0  0  0
   36.4560   30.5110   42.3010 H   0  0  0  0  0  0  0  0  0  0  0  0
   36.9150   26.6670   41.4110 N   0  0  0  0  0  0  0  0  0  0  0  0
   36.4360   27.9870   40.9990 C   0  0  0  0  0  0  0  0  0  0  0  0
   37.5590   28.8140   41.5500 C   0  0  2  0  0  0  0  0  0  0  0  0
   37.6470   28.2700   42.9720 C   0  0  0  0  0  0  0  0  0  0  0  0
   37.3390   26.8060   42.7710 C   0  0  0  0  0  0  0  0  0  0  0  0
   35.5220   28.2590   41.5460 H   0  0  0  0  0  0  0  0  0  0  0  0
   36.3380   28.0520   39.9070 H   0  0  0  0  0  0  0  0  0  0  0  0
   38.4720   28.6270   40.9830 H   0  0  0  0  0  0  0  0  0  0  0  0
   36.9590   28.7900   43.6560 H   0  0  0  0  0  0  0  0  0  0  0  0
   38.6960   28.3500   43.2900 H   0  0  0  0  0  0  0  0  0  0  0  0
   38.2120   26.1580   42.9790 H   0  0  0  0  0  0  0  0  0  0  0  0
   36.5540   26.5420   43.4930 H   0  0  0  0  0  0  0  0  0  0  0  0
   37.5550   23.1180   40.4500 C   0  0  0  0  0  0  0  0  0  0  0  0
   37.5260   24.2740   41.2210 C   0  0  0  0  0  0  0  0  0  0  0  0
   36.9880   25.4590   40.7080 C   0  0  0  0  0  0  0  0  0  0  0  0
   36.5100   25.4010   39.4410 N   0  0  0  0  0  0  0  0  0  0  0  0
   36.5350   24.2880   38.6910 C   0  0  0  0  0  0  0  0  0  0  0  0
   37.0570   23.1470   39.1940 N   0  0  0  0  0  0  0  0  0  0  0  0
   37.9790   22.2260   40.8820 H   0  0  0  0  0  0  0  0  0  0  0  0
   37.9180   24.2980   42.2440 H   0  0  0  0  0  0  0  0  0  0  0  0
   36.1150   24.3960   37.6930 H   0  0  0  0  0  0  0  0  0  0  0  0
   40.5020   30.5930   43.0650 N   0  0  0  0  0  0  0  0  0  0  0  0
   39.8560   31.1620   42.2890 C   0  0  0  0  0  0  0  0  0  0  0  0
  1 47  1  0  0  0  0
  2  1  1  0  0  0  0
  2 23  1  0  0  0  0
  3  2  2  0  0  0  0
  4  5  2  0  0  0  0
  4  3  1  0  0  0  0
  5  6  1  0  0  0  0
  6 12  1  0  0  0  0
  6  1  2  0  0  0  0
  7  3  1  0  0  0  0
  8  4  1  0  0  0  0
  9  5  1  0  0  0  0
 10 16  1  0  0  0  0
 10 12  1  0  0  0  0
 11 10  2  0  0  0  0
 12 13  1  0  0  0  0
 14 15  1  0  0  0  0
 15 22  2  0  0  0  0
 15 16  1  0  0  0  0
 16 17  2  0  0  0  0
 17 19  1  0  0  0  0
 17 18  1  0  0  0  0
 19 20  1  0  0  0  0
 21 19  2  0  0  0  0
 22 21  1  0  0  0  0
 23 24  1  0  0  0  0
 25 29  1  0  0  0  0
 26 25  1  0  0  0  0
 26 30  1  0  0  0  0
 26 27  1  0  0  0  0
 27 32  1  6  0  0  0
 27 23  1  0  0  0  0
 27 28  1  0  0  0  0
 28 34  1  0  0  0  0
 28 33  1  0  0  0  0
 29 28  1  0  0  0  0
 29 35  1  0  0  0  0
 29 36  1  0  0  0  0
 31 26  1  0  0  0  0
 37 43  1  0  0  0  0
 37 38  1  0  0  0  0
 38 44  1  0  0  0  0
 39 38  2  0  0  0  0
 39 25  1  0  0  0  0
 40 39  1  0  0  0  0
 41 42  1  0  0  0  0
 41 40  2  0  0  0  0
 42 37  2  0  0  0  0
 45 41  1  0  0  0  0
 47 46  3  0  0  0  0
M  END
>  <minimizedAffinity>
-6.10604095

$$$$

 OpenBabel03242519123D

 47 50  0  0  1  0  0  0  0  0999 V2000
   39.0120   32.0660   41.1250 C   0  0  0  0  0  0  0  0  0  0  0  0
   37.7600   31.5920   40.7160 C   0  0  0  0  0  0  0  0  0  0  0  0
   37.0670   32.5030   39.9440 C   0  0  0  0  0  0  0  0  0  0  0  0
   37.5050   33.7440   39.5860 C   0  0  0  0  0  0  0  0  0  0  0  0
   38.7410   34.1640   40.0130 C   0  0  0  0  0  0  0  0  0  0  0  0
   39.4800   33.2970   40.7860 C   0  0  0  0  0  0  0  0  0  0  0  0
   36.0820   32.1880   39.5970 H   0  0  0  0  0  0  0  0  0  0  0  0
   36.8800   34.3710   38.9810 H   0  0  0  0  0  0  0  0  0  0  0  0
   39.0620   35.1510   39.7140 H   0  0  0  0  0  0  0  0  0  0  0  0
   41.8390   33.7950   40.3000 C   0  0  0  0  0  0  0  0  0  0  0  0
   41.6580   33.3420   39.1080 O   0  0  0  0  0  0  0  0  0  0  0  0
   40.7680   33.7570   41.2200 N   0  0  0  0  0  0  0  0  0  0  0  0
   40.8370   34.0460   42.2270 H   0  0  0  0  0  0  0  0  0  0  0  0
   44.4810   32.8530   39.0870 Cl  0  0  0  0  0  0  0  0  0  0  0  0
   44.3200   34.0240   40.3970 C   0  0  0  0  0  0  0  0  0  0  0  0
   43.0700   34.3760   40.8690 C   0  0  0  0  0  0  0  0  0  0  0  0
   42.9540   35.2930   41.8970 C   0  0  0  0  0  0  0  0  0  0  0  0
   41.9630   35.5790   42.2760 H   0  0  0  0  0  0  0  0  0  0  0  0
   44.0550   35.8840   42.4840 C   0  0  0  0  0  0  0  0  0  0  0  0
   44.0140   36.6120   43.2960 H   0  0  0  0  0  0  0  0  0  0  0  0
   45.2860   35.5070   41.9860 C   0  0  0  0  0  3  0  0  0  0  0  0
   45.4800   34.5850   40.9480 C   0  0  0  0  0  3  0  0  0  0  0  0
   37.2330   30.3280   41.0390 N   0  0  0  0  0  0  0  0  0  0  0  0
   36.7220   30.4150   41.9610 H   0  0  0  0  0  0  0  0  0  0  0  0
   38.1930   27.0300   40.1040 N   0  0  0  0  0  0  0  0  0  0  0  0
   37.9430   27.9900   41.1800 C   0  0  0  0  0  0  0  0  0  0  0  0
   37.2790   29.0640   40.3710 C   0  0  2  0  0  0  0  0  0  0  0  0
   38.2690   29.2110   39.2200 C   0  0  0  0  0  0  0  0  0  0  0  0
   38.7290   27.7880   39.0140 C   0  0  0  0  0  0  0  0  0  0  0  0
   38.8870   28.3990   41.5660 H   0  0  0  0  0  0  0  0  0  0  0  0
   37.2930   27.5600   41.9540 H   0  0  0  0  0  0  0  0  0  0  0  0
   36.3010   28.7230   40.0290 H   0  0  0  0  0  0  0  0  0  0  0  0
   39.0760   29.9200   39.4570 H   0  0  0  0  0  0  0  0  0  0  0  0
   37.6960   29.5080   38.3300 H   0  0  0  0  0  0  0  0  0  0  0  0
   38.3950   27.3710   38.0440 H   0  0  0  0  0  0  0  0  0  0  0  0
   39.8280   27.8050   39.0040 H   0  0  0  0  0  0  0  0  0  0  0  0
   36.8940   23.5770   40.6620 C   0  0  0  0  0  0  0  0  0  0  0  0
   37.0250   24.9540   40.7840 C   0  0  0  0  0  0  0  0  0  0  0  0
   37.9910   25.6470   40.0460 C   0  0  0  0  0  0  0  0  0  0  0  0
   38.7680   24.8990   39.2260 N   0  0  0  0  0  0  0  0  0  0  0  0
   38.6470   23.5670   39.1030 C   0  0  0  0  0  0  0  0  0  0  0  0
   37.7120   22.9060   39.8200 N   0  0  0  0  0  0  0  0  0  0  0  0
   36.1380   23.0810   41.2480 H   0  0  0  0  0  0  0  0  0  0  0  0
   36.3850   25.5400   41.4540 H   0  0  0  0  0  0  0  0  0  0  0  0
   39.3430   23.1050   38.4050 H   0  0  0  0  0  0  0  0  0  0  0  0
   40.4470   30.4420   42.5980 N   0  0  0  0  0  0  0  0  0  0  0  0
   39.8130   31.1620   41.9470 C   0  0  0  0  0  0  0  0  0  0  0  0
  1 47  1  0  0  0  0
  2 23  1  0  0  0  0
  2  1  2  0  0  0  0
  3  2  1  0  0  0  0
  4  3  2  0  0  0  0
  4  5  1  0  0  0  0
  5  6  2  0  0  0  0
  6  1  1  0  0  0  0
  6 12  1  0  0  0  0
  7  3  1  0  0  0  0
  8  4  1  0  0  0  0
  9  5  1  0  0  0  0
 10 16  1  0  0  0  0
 10 12  1  0  0  0  0
 11 10  2  0  0  0  0
 12 13  1  0  0  0  0
 14 15  1  0  0  0  0
 15 16  2  0  0  0  0
 15 22  1  0  0  0  0
 16 17  1  0  0  0  0
 17 18  1  0  0  0  0
 17 19  2  0  0  0  0
 19 20  1  0  0  0  0
 21 19  1  0  0  0  0
 22 21  2  0  0  0  0
 23 24  1  0  0  0  0
 25 26  1  0  0  0  0
 26 30  1  0  0  0  0
 26 31  1  0  0  0  0
 27 32  1  6  0  0  0
 27 23  1  0  0  0  0
 27 26  1  0  0  0  0
 28 33  1  0  0  0  0
 28 27  1  0  0  0  0
 29 28  1  0  0  0  0
 29 25  1  0  0  0  0
 34 28  1  0  0  0  0
 35 29  1  0  0  0  0
 36 29  1  0  0  0  0
 37 38  1  0  0  0  0
 37 43  1  0  0  0  0
 38 44  1  0  0  0  0
 39 25  1  0  0  0  0
 39 38  2  0  0  0  0
 40 39  1  0  0  0  0
 41 40  2  0  0  0  0
 41 42  1  0  0  0  0
 42 37  2  0  0  0  0
 45 41  1  0  0  0  0
 47 46  3  0  0  0  0
M  END
>  <minimizedAffinity>
-6.0632205

$$$$
