
 OpenBabel03252503073D

 27 29  0  0  1  0  0  0  0  0999 V2000
   45.5410   36.1220   43.1850 C   0  0  0  0  0  0  0  0  0  0  0  0
   46.3080   34.9270   43.0960 C   0  0  0  0  0  0  0  0  0  0  0  0
   46.1070   34.0400   44.1530 C   0  0  0  0  0  0  0  0  0  0  0  0
   45.2680   34.2800   45.1700 N   0  0  0  0  0  0  0  0  0  0  0  0
   44.5530   35.4600   45.1930 C   0  0  0  0  0  0  0  0  0  0  0  0
   44.6950   36.3580   44.2140 N   0  0  0  0  0  0  0  0  0  0  0  0
   45.5690   36.9210   42.4550 H   0  0  0  0  0  0  0  0  0  0  0  0
   43.8890   35.6140   46.0280 H   0  0  0  0  0  0  0  0  0  0  0  0
   46.7990   32.8380   44.1240 C   0  0  0  0  0  0  0  0  0  0  0  0
   47.4050   32.0890   43.1710 C   0  0  0  0  0  0  0  0  0  0  0  0
   47.9810   30.9140   43.3590 C   0  0  0  0  0  0  0  0  0  0  0  0
   47.9420   30.4550   44.6420 C   0  0  0  0  0  0  0  0  0  0  0  0
   47.0420   31.7890   45.5480 S   0  0  0  0  0  0  0  0  0  0  0  0
   47.5540   32.3300   42.1330 H   0  0  0  0  0  0  0  0  0  0  0  0
   48.4940   30.1610   42.8240 H   0  0  0  0  0  0  0  0  0  0  0  0
   48.2250   29.6470   45.2830 H   0  0  0  0  0  0  0  0  0  0  0  0
   47.1520   34.7790   41.9890 C   0  0  2  0  0  0  0  0  0  0  0  0
   48.3840   35.2350   42.2670 O   0  0  0  0  0  0  0  0  0  0  0  0
   44.5920   33.1990   40.8460 Cl  0  0  0  0  0  0  0  0  0  0  0  0
   46.0510   33.4820   39.9340 C   0  0  0  0  0  0  0  0  0  0  0  0
   46.9540   34.2510   40.6060 C   0  0  0  0  0  0  0  0  0  0  0  0
   48.0460   34.5540   39.7570 C   0  0  0  0  0  0  0  0  0  0  0  0
   48.9120   35.1710   40.0650 H   0  0  0  0  0  0  0  0  0  0  0  0
   48.2100   34.1490   38.4520 C   0  0  0  0  0  0  0  0  0  0  0  0
   49.0280   34.3780   37.8210 H   0  0  0  0  0  0  0  0  0  0  0  0
   47.2060   33.3720   37.9240 C   0  0  0  0  0  0  0  0  0  0  0  0
   46.1010   33.0200   38.6550 C   0  0  0  0  0  0  0  0  0  0  0  0
  1  6  1  0  0  0  0
  2  1  2  0  0  0  0
  2  3  1  0  0  0  0
  3  4  2  0  0  0  0
  4  5  1  0  0  0  0
  5  8  1  0  0  0  0
  6  5  2  0  0  0  0
  7  1  1  0  0  0  0
  9  3  1  0  0  0  0
  9 13  1  0  0  0  0
 10 11  1  0  0  0  0
 10  9  2  0  0  0  0
 11 12  2  0  0  0  0
 12 16  1  0  0  0  0
 12 13  1  0  0  0  0
 14 10  1  0  0  0  0
 15 11  1  0  0  0  0
 17 18  1  6  0  0  0
 17  2  1  0  0  0  0
 20 21  1  0  0  0  0
 20 19  1  0  0  0  0
 21 17  1  0  0  0  0
 22 23  1  0  0  0  0
 22 21  2  0  0  0  0
 24 22  1  0  0  0  0
 25 24  1  0  0  0  0
 26 24  2  0  0  0  0
 26 27  1  0  0  0  0
 27 20  2  0  0  0  0
M  END
>  <minimizedAffinity>
-5.22861958

>  <minimizedRMSD>
0.927262247

$$$$
