
 OpenBabel03252508493D

 28 30  0  0  0  0  0  0  0  0999 V2000
   45.9410   34.1550   41.0380 C   0  0  0  0  0  0  0  0  0  0  0  0
   46.5220   34.7940   42.1260 C   0  0  0  0  0  0  0  0  0  0  0  0
   47.8680   35.1690   41.9840 C   0  0  0  0  0  0  0  0  0  0  0  0
   48.5030   34.8850   40.8080 N   0  0  0  0  0  0  0  0  0  0  0  0
   47.8960   34.2700   39.8000 C   0  0  0  0  0  0  0  0  0  0  0  0
   46.6110   33.8950   39.8940 N   0  0  0  0  0  0  0  0  0  0  0  0
   48.3350   35.6720   42.8300 H   0  0  0  0  0  0  0  0  0  0  0  0
   48.4530   34.0720   38.8930 H   0  0  0  0  0  0  0  0  0  0  0  0
   45.7470   35.0430   43.3230 C   0  0  0  0  0  0  0  0  0  0  0  0
   45.0320   36.2030   43.5300 C   0  0  0  0  0  0  0  0  0  0  0  0
   44.4620   36.0200   44.7670 C   0  0  0  0  0  0  0  0  0  0  0  0
   44.8080   34.8160   45.2910 N   0  0  0  0  0  0  0  0  0  0  0  0
   45.5840   34.2510   44.3950 N   0  0  0  0  0  0  0  0  0  0  0  0
   44.9220   37.0770   42.8850 H   0  0  0  0  0  0  0  0  0  0  0  0
   43.8180   36.7080   45.2970 H   0  0  0  0  0  0  0  0  0  0  0  0
   44.5650   34.3570   46.1890 H   0  0  0  0  0  0  0  0  0  0  0  0
   44.6130   33.7690   41.1390 O   0  0  0  0  0  0  0  0  0  0  0  0
   43.5650   34.2320   40.3930 C   0  0  0  0  0  0  0  0  0  0  0  0
   43.1630   35.4460   40.2710 O   0  0  0  0  0  0  0  0  0  0  0  0
   40.7320   33.7840   41.3840 Cl  0  0  0  0  0  0  0  0  0  0  0  0
   41.3730   33.0360   39.9120 C   0  0  0  0  0  0  0  0  0  0  0  0
   42.6980   33.3340   39.5760 C   0  0  0  0  0  0  0  0  0  0  0  0
   43.0930   32.7040   38.4220 C   0  0  0  0  0  0  0  0  0  0  0  0
   44.1100   32.8700   38.0730 H   0  0  0  0  0  0  0  0  0  0  0  0
   42.3100   31.8790   37.6670 C   0  0  0  0  0  0  0  0  0  0  0  0
   42.6980   31.4230   36.7730 H   0  0  0  0  0  0  0  0  0  0  0  0
   41.0210   31.6490   38.0820 C   0  0  0  0  0  3  0  0  0  0  0  0
   40.5250   32.2310   39.2250 C   0  0  0  0  0  3  0  0  0  0  0  0
  1 17  1  0  0  0  0
  1  2  1  0  0  0  0
  2  9  1  0  0  0  0
  3  2  2  0  0  0  0
  3  7  1  0  0  0  0
  4  3  1  0  0  0  0
  5  6  1  0  0  0  0
  5  4  2  0  0  0  0
  6  1  2  0  0  0  0
  8  5  1  0  0  0  0
  9 10  1  0  0  0  0
  9 13  2  0  0  0  0
 10 11  2  0  0  0  0
 11 12  1  0  0  0  0
 11 15  1  0  0  0  0
 12 16  1  0  0  0  0
 13 12  1  0  0  0  0
 14 10  1  0  0  0  0
 18 17  1  0  0  0  0
 19 18  2  0  0  0  0
 21 20  1  0  0  0  0
 22 21  1  0  0  0  0
 22 18  1  0  0  0  0
 23 22  2  0  0  0  0
 24 23  1  0  0  0  0
 25 27  2  0  0  0  0
 25 23  1  0  0  0  0
 26 25  1  0  0  0  0
 27 28  1  0  0  0  0
 28 21  2  0  0  0  0
M  END
>  <minimizedAffinity>
-5.30526733

>  <minimizedRMSD>
0.335211605

$$$$
