
 OpenBabel03242520183D

 35 37  0  0  0  0  0  0  0  0999 V2000
   40.7330   35.7050   39.6130 C   0  0  0  0  0  0  0  0  0  0  0  0
   40.7830   36.8210   39.6230 H   0  0  0  0  0  0  0  0  0  0  0  0
   40.5060   35.3630   38.5910 H   0  0  0  0  0  0  0  0  0  0  0  0
   43.8550   34.7680   41.5320 C   0  0  0  0  0  0  0  0  0  0  0  0
   42.6250   35.3750   41.2020 C   0  0  0  0  0  0  0  0  0  0  0  0
   42.0290   35.0890   39.9870 C   0  0  0  0  0  0  0  0  0  0  0  0
   42.6870   34.2140   39.1620 N   0  0  0  0  0  0  0  0  0  0  0  0
   43.8730   33.6510   39.5220 C   0  0  0  0  0  0  0  0  0  0  0  0
   44.4490   33.9240   40.6910 N   0  0  0  0  0  0  0  0  0  0  0  0
   42.1860   36.0530   41.9210 H   0  0  0  0  0  0  0  0  0  0  0  0
   44.2680   32.9830   38.7660 H   0  0  0  0  0  0  0  0  0  0  0  0
   44.4790   35.0910   42.8370 C   0  0  0  0  0  0  0  0  0  0  0  0
   46.0200   35.3380   42.7080 C   0  0  0  0  0  0  0  0  0  0  0  0
   45.0540   36.3420   43.1700 C   0  0  0  0  0  0  0  0  0  0  0  0
   44.2170   34.3480   43.6370 H   0  0  0  0  0  0  0  0  0  0  0  0
   46.4210   35.4760   41.6920 H   0  0  0  0  0  0  0  0  0  0  0  0
   46.6390   34.7840   43.4400 H   0  0  0  0  0  0  0  0  0  0  0  0
   44.8390   37.2210   42.4970 H   0  0  0  0  0  0  0  0  0  0  0  0
   45.1220   36.6640   44.2280 H   0  0  0  0  0  0  0  0  0  0  0  0
   39.6590   35.3140   40.5970 C   0  0  0  0  0  0  0  0  0  0  0  0
   40.1280   35.2220   41.5800 H   0  0  0  0  0  0  0  0  0  0  0  0
   38.8900   36.1310   40.7170 H   0  0  0  0  0  0  0  0  0  0  0  0
   39.2740   32.9190   40.8940 C   0  0  0  0  0  0  0  0  0  0  0  0
   40.1160   32.7830   41.8260 O   0  0  0  0  0  0  0  0  0  0  0  0
   38.9540   34.1030   40.1870 N   0  0  0  0  0  0  0  0  0  0  0  0
   38.2730   34.1410   39.4280 H   0  0  0  0  0  0  0  0  0  0  0  0
   40.0830   32.0110   38.1800 Cl  0  0  0  0  0  0  0  0  0  0  0  0
   38.9220   31.2400   39.2440 C   0  0  0  0  0  0  0  0  0  0  0  0
   38.5540   31.6830   40.5180 C   0  0  0  0  0  0  0  0  0  0  0  0
   37.6360   30.9900   41.2480 C   0  0  0  0  0  0  0  0  0  0  0  0
   37.4250   31.4190   42.2150 H   0  0  0  0  0  0  0  0  0  0  0  0
   37.0750   29.8470   40.7070 C   0  0  0  0  0  0  0  0  0  0  0  0
   36.3510   29.3290   41.3210 H   0  0  0  0  0  0  0  0  0  0  0  0
   37.4200   29.3860   39.4530 C   0  0  0  0  0  0  0  0  0  0  0  0
   38.3580   30.0990   38.7150 C   0  0  0  0  0  0  0  0  0  0  0  0
  1  2  1  0  0  0  0
  1  6  1  0  0  0  0
  1 20  1  0  0  0  0
  3  1  1  0  0  0  0
  4 12  1  0  0  0  0
  5  4  1  0  0  0  0
  5 10  1  0  0  0  0
  6  5  2  0  0  0  0
  7  8  2  0  0  0  0
  7  6  1  0  0  0  0
  8  9  1  0  0  0  0
  9  4  2  0  0  0  0
 11  8  1  0  0  0  0
 12 14  1  0  0  0  0
 12 15  1  0  0  0  0
 13 12  1  0  0  0  0
 13 14  1  0  0  0  0
 13 17  1  0  0  0  0
 14 19  1  0  0  0  0
 16 13  1  0  0  0  0
 18 14  1  0  0  0  0
 20 22  1  0  0  0  0
 20 21  1  0  0  0  0
 23 24  2  0  0  0  0
 25 20  1  0  0  0  0
 25 23  1  0  0  0  0
 26 25  1  0  0  0  0
 27 28  1  0  0  0  0
 28 29  1  0  0  0  0
 29 23  1  0  0  0  0
 29 30  2  0  0  0  0
 30 31  1  0  0  0  0
 32 30  1  0  0  0  0
 32 33  1  0  0  0  0
 34 32  2  0  0  0  0
 35 28  2  0  0  0  0
 35 34  1  0  0  0  0
M  END
>  <minimizedAffinity>
-5.29242611

>  <minimizedRMSD>
0.782854319

$$$$
