
 OpenBabel03252508493D

 28 30  0  0  0  0  0  0  0  0999 V2000
   45.9900   34.1710   41.0740 C   0  0  0  0  0  0  0  0  0  0  0  0
   46.5540   34.8150   42.1690 C   0  0  0  0  0  0  0  0  0  0  0  0
   47.8960   35.2070   42.0370 C   0  0  0  0  0  0  0  0  0  0  0  0
   48.5440   34.9350   40.8660 N   0  0  0  0  0  0  0  0  0  0  0  0
   47.9520   34.3150   39.8510 C   0  0  0  0  0  0  0  0  0  0  0  0
   46.6720   33.9230   39.9350 N   0  0  0  0  0  0  0  0  0  0  0  0
   48.3510   35.7130   42.8890 H   0  0  0  0  0  0  0  0  0  0  0  0
   48.5190   34.1260   38.9480 H   0  0  0  0  0  0  0  0  0  0  0  0
   45.7680   35.0500   43.3600 C   0  0  0  0  0  0  0  0  0  0  0  0
   45.0670   36.2170   43.5820 C   0  0  0  0  0  0  0  0  0  0  0  0
   44.4780   36.0170   44.8080 C   0  0  0  0  0  0  0  0  0  0  0  0
   44.7990   34.7970   45.3100 N   0  0  0  0  0  0  0  0  0  0  0  0
   45.5780   34.2390   44.4130 N   0  0  0  0  0  0  0  0  0  0  0  0
   44.9800   37.1050   42.9540 H   0  0  0  0  0  0  0  0  0  0  0  0
   43.8380   36.7030   45.3440 H   0  0  0  0  0  0  0  0  0  0  0  0
   44.5370   34.3230   46.1950 H   0  0  0  0  0  0  0  0  0  0  0  0
   44.6660   33.7680   41.1640 O   0  0  0  0  0  0  0  0  0  0  0  0
   43.5760   34.4090   40.6450 C   0  0  0  0  0  0  0  0  0  0  0  0
   43.3630   35.6740   40.5840 O   0  0  0  0  0  0  0  0  0  0  0  0
   43.9810   33.2250   37.8790 Cl  0  0  0  0  0  0  0  0  0  0  0  0
   42.4630   33.0840   38.7820 C   0  0  0  0  0  0  0  0  0  0  0  0
   42.4210   33.6790   40.0470 C   0  0  0  0  0  0  0  0  0  0  0  0
   41.2020   33.5090   40.6580 C   0  0  0  0  0  0  0  0  0  0  0  0
   41.0660   33.9370   41.6500 H   0  0  0  0  0  0  0  0  0  0  0  0
   40.1390   32.8450   40.1220 C   0  0  0  0  0  0  0  0  0  0  0  0
   39.2150   32.7580   40.6700 H   0  0  0  0  0  0  0  0  0  0  0  0
   40.2790   32.2940   38.8720 C   0  0  0  0  0  3  0  0  0  0  0  0
   41.4570   32.4060   38.1720 C   0  0  0  0  0  3  0  0  0  0  0  0
  1 17  1  0  0  0  0
  1  2  1  0  0  0  0
  2  9  1  0  0  0  0
  3  2  2  0  0  0  0
  3  7  1  0  0  0  0
  4  3  1  0  0  0  0
  5  6  1  0  0  0  0
  5  4  2  0  0  0  0
  6  1  2  0  0  0  0
  8  5  1  0  0  0  0
  9 10  1  0  0  0  0
  9 13  2  0  0  0  0
 10 11  2  0  0  0  0
 11 12  1  0  0  0  0
 11 15  1  0  0  0  0
 12 16  1  0  0  0  0
 13 12  1  0  0  0  0
 14 10  1  0  0  0  0
 18 17  1  0  0  0  0
 19 18  2  0  0  0  0
 20 21  1  0  0  0  0
 21 22  1  0  0  0  0
 22 18  1  0  0  0  0
 22 23  2  0  0  0  0
 23 24  1  0  0  0  0
 25 23  1  0  0  0  0
 25 26  1  0  0  0  0
 27 25  2  0  0  0  0
 28 21  2  0  0  0  0
 28 27  1  0  0  0  0
M  END
>  <minimizedAffinity>
-5.3569622

>  <minimizedRMSD>
0.646519244

$$$$
