
 OpenBabel03252508493D

 28 30  0  0  0  0  0  0  0  0999 V2000
   45.9900   34.1720   41.0750 C   0  0  0  0  0  0  0  0  0  0  0  0
   46.5540   34.8150   42.1690 C   0  0  0  0  0  0  0  0  0  0  0  0
   47.8960   35.2070   42.0380 C   0  0  0  0  0  0  0  0  0  0  0  0
   48.5440   34.9350   40.8660 N   0  0  0  0  0  0  0  0  0  0  0  0
   47.9520   34.3160   39.8510 C   0  0  0  0  0  0  0  0  0  0  0  0
   46.6720   33.9240   39.9350 N   0  0  0  0  0  0  0  0  0  0  0  0
   48.3510   35.7130   42.8890 H   0  0  0  0  0  0  0  0  0  0  0  0
   48.5180   34.1280   38.9480 H   0  0  0  0  0  0  0  0  0  0  0  0
   45.7680   35.0500   43.3610 C   0  0  0  0  0  0  0  0  0  0  0  0
   45.0670   36.2160   43.5830 C   0  0  0  0  0  0  0  0  0  0  0  0
   44.4780   36.0160   44.8090 C   0  0  0  0  0  0  0  0  0  0  0  0
   44.7990   34.7970   45.3110 N   0  0  0  0  0  0  0  0  0  0  0  0
   45.5790   34.2390   44.4130 N   0  0  0  0  0  0  0  0  0  0  0  0
   44.9790   37.1050   42.9550 H   0  0  0  0  0  0  0  0  0  0  0  0
   43.8370   36.7020   45.3440 H   0  0  0  0  0  0  0  0  0  0  0  0
   44.5380   34.3230   46.1960 H   0  0  0  0  0  0  0  0  0  0  0  0
   44.6660   33.7690   41.1640 O   0  0  0  0  0  0  0  0  0  0  0  0
   43.5760   34.4100   40.6450 C   0  0  0  0  0  0  0  0  0  0  0  0
   43.3630   35.6750   40.5840 O   0  0  0  0  0  0  0  0  0  0  0  0
   43.9810   33.2270   37.8790 Cl  0  0  0  0  0  0  0  0  0  0  0  0
   42.4630   33.0850   38.7810 C   0  0  0  0  0  0  0  0  0  0  0  0
   42.4210   33.6800   40.0460 C   0  0  0  0  0  0  0  0  0  0  0  0
   41.2030   33.5100   40.6570 C   0  0  0  0  0  0  0  0  0  0  0  0
   41.0660   33.9380   41.6500 H   0  0  0  0  0  0  0  0  0  0  0  0
   40.1380   32.8460   40.1210 C   0  0  0  0  0  0  0  0  0  0  0  0
   39.2150   32.7580   40.6690 H   0  0  0  0  0  0  0  0  0  0  0  0
   40.2800   32.2950   38.8700 C   0  0  0  0  0  3  0  0  0  0  0  0
   41.4580   32.4070   38.1710 C   0  0  0  0  0  3  0  0  0  0  0  0
  1 17  1  0  0  0  0
  1  2  1  0  0  0  0
  2  9  1  0  0  0  0
  3  2  2  0  0  0  0
  3  7  1  0  0  0  0
  4  3  1  0  0  0  0
  5  6  1  0  0  0  0
  5  4  2  0  0  0  0
  6  1  2  0  0  0  0
  8  5  1  0  0  0  0
  9 10  1  0  0  0  0
  9 13  2  0  0  0  0
 10 11  2  0  0  0  0
 11 12  1  0  0  0  0
 11 15  1  0  0  0  0
 12 16  1  0  0  0  0
 13 12  1  0  0  0  0
 14 10  1  0  0  0  0
 18 17  1  0  0  0  0
 19 18  2  0  0  0  0
 20 21  1  0  0  0  0
 21 22  1  0  0  0  0
 22 18  1  0  0  0  0
 22 23  2  0  0  0  0
 23 24  1  0  0  0  0
 25 23  1  0  0  0  0
 25 26  1  0  0  0  0
 27 25  2  0  0  0  0
 28 21  2  0  0  0  0
 28 27  1  0  0  0  0
M  END
>  <minimizedAffinity>
-5.35652065

>  <minimizedRMSD>
0.661279082

$$$$
