
 OpenBabel03252503103D

 27 29  0  0  1  0  0  0  0  0999 V2000
   36.1340   29.3190   38.4970 C   0  0  0  0  0  0  0  0  0  0  0  0
   36.8450   30.2780   39.2700 C   0  0  0  0  0  0  0  0  0  0  0  0
   37.5590   31.2050   38.5130 C   0  0  0  0  0  0  0  0  0  0  0  0
   37.5830   31.2050   37.1730 N   0  0  0  0  0  0  0  0  0  0  0  0
   36.8690   30.2460   36.4840 C   0  0  0  0  0  0  0  0  0  0  0  0
   36.1620   29.3240   37.1440 N   0  0  0  0  0  0  0  0  0  0  0  0
   35.5270   28.5260   38.9140 H   0  0  0  0  0  0  0  0  0  0  0  0
   36.9140   30.2810   35.4080 H   0  0  0  0  0  0  0  0  0  0  0  0
   38.2570   32.1920   39.1960 C   0  0  0  0  0  0  0  0  0  0  0  0
   37.9310   33.3100   39.8870 C   0  0  0  0  0  0  0  0  0  0  0  0
   38.7830   34.1610   40.4320 C   0  0  0  0  0  0  0  0  0  0  0  0
   40.0980   33.8440   40.2610 C   0  0  0  0  0  0  0  0  0  0  0  0
   40.0380   32.2770   39.2860 S   0  0  0  0  0  0  0  0  0  0  0  0
   36.9490   33.6710   40.1410 H   0  0  0  0  0  0  0  0  0  0  0  0
   38.7990   35.0580   40.9900 H   0  0  0  0  0  0  0  0  0  0  0  0
   41.0990   34.1530   40.4730 H   0  0  0  0  0  0  0  0  0  0  0  0
   36.7480   30.1870   40.6640 C   0  0  2  0  0  3  0  0  0  0  0  0
   35.9080   31.1200   41.1410 O   0  0  0  0  0  1  0  0  0  0  0  0
   39.4020   30.7810   42.3820 Cl  0  0  0  0  0  0  0  0  0  0  0  0
   38.5210   29.2770   42.4360 C   0  0  0  0  0  0  0  0  0  0  0  0
   37.3830   29.3040   41.6860 C   0  0  0  0  0  0  0  0  0  0  0  0
   36.6540   28.1070   41.8870 C   0  0  0  0  0  0  0  0  0  0  0  0
   35.6870   27.8870   41.3940 H   0  0  0  0  0  0  0  0  0  0  0  0
   37.0070   27.0550   42.7000 C   0  0  0  0  0  0  0  0  0  0  0  0
   36.4580   26.1620   42.8470 H   0  0  0  0  0  0  0  0  0  0  0  0
   38.1910   27.1850   43.3860 C   0  0  0  0  0  3  0  0  0  0  0  0
   38.9770   28.3020   43.2690 C   0  0  0  0  0  3  0  0  0  0  0  0
  1  7  1  0  0  0  0
  1  2  1  0  0  0  0
  2 17  1  0  0  0  0
  3  9  1  0  0  0  0
  3  2  2  0  0  0  0
  4  3  1  0  0  0  0
  5  6  1  0  0  0  0
  5  4  2  0  0  0  0
  6  1  2  0  0  0  0
  8  5  1  0  0  0  0
  9 13  1  0  0  0  0
  9 10  2  0  0  0  0
 10 14  1  0  0  0  0
 10 11  1  0  0  0  0
 11 15  1  0  0  0  0
 12 11  2  0  0  0  0
 12 16  1  0  0  0  0
 13 12  1  0  0  0  0
 17 18  1  1  0  0  0
 17 21  1  0  0  0  0
 19 20  1  0  0  0  0
 20 27  1  0  0  0  0
 21 22  1  0  0  0  0
 21 20  2  0  0  0  0
 22 24  2  0  0  0  0
 23 22  1  0  0  0  0
 24 25  1  0  0  0  0
 24 26  1  0  0  0  0
 27 26  2  0  0  0  0
M  END
>  <minimizedAffinity>
-5.54448223

$$$$

 OpenBabel03252503103D

 27 29  0  0  1  0  0  0  0  0999 V2000
   35.4780   26.9800   38.1190 C   0  0  0  0  0  0  0  0  0  0  0  0
   35.9320   27.6470   39.2900 C   0  0  0  0  0  0  0  0  0  0  0  0
   36.6470   26.8340   40.1680 C   0  0  0  0  0  0  0  0  0  0  0  0
   36.8920   25.5360   39.9410 N   0  0  0  0  0  0  0  0  0  0  0  0
   36.4230   24.9520   38.7820 C   0  0  0  0  0  0  0  0  0  0  0  0
   35.7290   25.6700   37.8950 N   0  0  0  0  0  0  0  0  0  0  0  0
   34.9080   27.4540   37.3290 H   0  0  0  0  0  0  0  0  0  0  0  0
   36.6420   23.9070   38.6380 H   0  0  0  0  0  0  0  0  0  0  0  0
   37.1490   27.4180   41.3230 C   0  0  0  0  0  0  0  0  0  0  0  0
   36.6840   27.6470   42.5750 C   0  0  0  0  0  0  0  0  0  0  0  0
   37.3310   28.2850   43.5360 C   0  0  0  0  0  0  0  0  0  0  0  0
   38.5720   28.7320   43.1940 C   0  0  0  0  0  0  0  0  0  0  0  0
   38.7530   28.1920   41.4380 S   0  0  0  0  0  0  0  0  0  0  0  0
   35.7530   27.3250   43.0070 H   0  0  0  0  0  0  0  0  0  0  0  0
   37.2090   28.5860   44.5420 H   0  0  0  0  0  0  0  0  0  0  0  0
   39.4340   29.2540   43.5500 H   0  0  0  0  0  0  0  0  0  0  0  0
   35.6220   29.0060   39.4250 C   0  0  2  0  0  3  0  0  0  0  0  0
   34.3740   29.1620   39.8970 O   0  0  0  0  0  1  0  0  0  0  0  0
   36.7360   30.0200   36.5820 Cl  0  0  0  0  0  0  0  0  0  0  0  0
   37.0200   30.8450   38.0920 C   0  0  0  0  0  0  0  0  0  0  0  0
   36.3690   30.2660   39.1410 C   0  0  0  0  0  0  0  0  0  0  0  0
   36.5320   31.0640   40.2990 C   0  0  0  0  0  0  0  0  0  0  0  0
   36.0930   30.8140   41.2840 H   0  0  0  0  0  0  0  0  0  0  0  0
   37.2340   32.2440   40.3940 C   0  0  0  0  0  0  0  0  0  0  0  0
   37.3530   32.8370   41.2620 H   0  0  0  0  0  0  0  0  0  0  0  0
   37.8370   32.6880   39.2410 C   0  0  0  0  0  3  0  0  0  0  0  0
   37.7440   31.9970   38.0610 C   0  0  0  0  0  3  0  0  0  0  0  0
  1  2  1  0  0  0  0
  2 17  1  0  0  0  0
  2  3  2  0  0  0  0
  3  9  1  0  0  0  0
  4  3  1  0  0  0  0
  5  4  2  0  0  0  0
  6  1  2  0  0  0  0
  6  5  1  0  0  0  0
  7  1  1  0  0  0  0
  8  5  1  0  0  0  0
  9 13  1  0  0  0  0
  9 10  2  0  0  0  0
 10 14  1  0  0  0  0
 10 11  1  0  0  0  0
 11 15  1  0  0  0  0
 12 11  2  0  0  0  0
 12 16  1  0  0  0  0
 13 12  1  0  0  0  0
 17 18  1  6  0  0  0
 19 20  1  0  0  0  0
 20 21  1  0  0  0  0
 21 17  1  0  0  0  0
 21 22  2  0  0  0  0
 22 24  1  0  0  0  0
 22 23  1  0  0  0  0
 24 25  1  0  0  0  0
 26 24  2  0  0  0  0
 27 20  2  0  0  0  0
 27 26  1  0  0  0  0
M  END
>  <minimizedAffinity>
-5.28155804

$$$$

 OpenBabel03252503103D

 27 29  0  0  1  0  0  0  0  0999 V2000
   35.6200   28.1590   37.6480 C   0  0  0  0  0  0  0  0  0  0  0  0
   36.1610   29.0820   38.5850 C   0  0  0  0  0  0  0  0  0  0  0  0
   36.9030   30.1110   38.0080 C   0  0  0  0  0  0  0  0  0  0  0  0
   37.1000   30.2310   36.6880 N   0  0  0  0  0  0  0  0  0  0  0  0
   36.5440   29.3000   35.8340 C   0  0  0  0  0  0  0  0  0  0  0  0
   35.8200   28.2860   36.3160 N   0  0  0  0  0  0  0  0  0  0  0  0
   35.0170   27.2990   37.9150 H   0  0  0  0  0  0  0  0  0  0  0  0
   36.7250   29.4330   34.7800 H   0  0  0  0  0  0  0  0  0  0  0  0
   37.4420   31.0690   38.8560 C   0  0  0  0  0  0  0  0  0  0  0  0
   37.0140   32.2320   39.4020 C   0  0  0  0  0  0  0  0  0  0  0  0
   37.7300   33.0390   40.1660 C   0  0  0  0  0  0  0  0  0  0  0  0
   39.0060   32.6220   40.4030 C   0  0  0  0  0  0  0  0  0  0  0  0
   39.1150   31.0280   39.4760 S   0  0  0  0  0  0  0  0  0  0  0  0
   36.0330   32.6720   39.3440 H   0  0  0  0  0  0  0  0  0  0  0  0
   37.6490   33.9520   40.6910 H   0  0  0  0  0  0  0  0  0  0  0  0
   39.9200   32.8660   40.9020 H   0  0  0  0  0  0  0  0  0  0  0  0
   35.8920   28.8620   39.9410 C   0  0  2  0  0  3  0  0  0  0  0  0
   34.6800   29.3380   40.2670 O   0  0  0  0  0  1  0  0  0  0  0  0
   36.7300   25.7710   40.2600 Cl  0  0  0  0  0  0  0  0  0  0  0  0
   37.0340   26.9940   41.4650 C   0  0  0  0  0  0  0  0  0  0  0  0
   36.6660   28.2420   41.0580 C   0  0  0  0  0  0  0  0  0  0  0  0
   37.0680   29.1950   42.0240 C   0  0  0  0  0  0  0  0  0  0  0  0
   36.8890   30.2830   41.9240 H   0  0  0  0  0  0  0  0  0  0  0  0
   37.7260   28.9420   43.2050 C   0  0  0  0  0  0  0  0  0  0  0  0
   38.0250   29.6590   43.9250 H   0  0  0  0  0  0  0  0  0  0  0  0
   38.0210   27.6250   43.4690 C   0  0  0  0  0  3  0  0  0  0  0  0
   37.6810   26.6190   42.6020 C   0  0  0  0  0  3  0  0  0  0  0  0
  1  7  1  0  0  0  0
  1  2  1  0  0  0  0
  2 17  1  0  0  0  0
  3  2  2  0  0  0  0
  3  9  1  0  0  0  0
  4  3  1  0  0  0  0
  5  6  1  0  0  0  0
  5  4  2  0  0  0  0
  6  1  2  0  0  0  0
  8  5  1  0  0  0  0
  9 10  2  0  0  0  0
  9 13  1  0  0  0  0
 10 11  1  0  0  0  0
 11 12  2  0  0  0  0
 11 15  1  0  0  0  0
 12 16  1  0  0  0  0
 13 12  1  0  0  0  0
 14 10  1  0  0  0  0
 17 18  1  1  0  0  0
 17 21  1  0  0  0  0
 19 20  1  0  0  0  0
 20 27  1  0  0  0  0
 21 20  2  0  0  0  0
 21 22  1  0  0  0  0
 22 24  2  0  0  0  0
 23 22  1  0  0  0  0
 24 26  1  0  0  0  0
 24 25  1  0  0  0  0
 27 26  2  0  0  0  0
M  END
>  <minimizedAffinity>
-5.21996069

$$$$

 OpenBabel03252503103D

 27 29  0  0  1  0  0  0  0  0999 V2000
   35.9380   29.0870   41.0490 C   0  0  0  0  0  0  0  0  0  0  0  0
   36.5840   27.8350   41.2440 C   0  0  0  0  0  0  0  0  0  0  0  0
   36.4950   26.9720   40.1520 C   0  0  0  0  0  0  0  0  0  0  0  0
   35.8580   27.2820   39.0150 N   0  0  0  0  0  0  0  0  0  0  0  0
   35.2530   28.5160   38.8920 C   0  0  0  0  0  0  0  0  0  0  0  0
   35.2970   29.3940   39.8980 N   0  0  0  0  0  0  0  0  0  0  0  0
   35.9060   29.8790   41.7870 H   0  0  0  0  0  0  0  0  0  0  0  0
   34.7530   28.7250   37.9620 H   0  0  0  0  0  0  0  0  0  0  0  0
   37.1250   25.7400   40.2540 C   0  0  0  0  0  0  0  0  0  0  0  0
   36.8300   24.5420   40.8150 C   0  0  0  0  0  0  0  0  0  0  0  0
   37.6200   23.4820   40.8370 C   0  0  0  0  0  0  0  0  0  0  0  0
   38.8270   23.6520   40.2280 C   0  0  0  0  0  0  0  0  0  0  0  0
   38.7630   25.3990   39.6310 S   0  0  0  0  0  0  0  0  0  0  0  0
   35.9130   24.2400   41.2910 H   0  0  0  0  0  0  0  0  0  0  0  0
   37.6380   22.4850   41.1870 H   0  0  0  0  0  0  0  0  0  0  0  0
   39.7500   23.1720   39.9830 H   0  0  0  0  0  0  0  0  0  0  0  0
   37.2210   27.6180   42.4710 C   0  0  2  0  0  3  0  0  0  0  0  0
   36.3180   27.4160   43.4440 O   0  0  0  0  0  1  0  0  0  0  0  0
   39.2750   30.0910   42.6160 Cl  0  0  0  0  0  0  0  0  0  0  0  0
   39.7170   28.4350   42.9370 C   0  0  0  0  0  0  0  0  0  0  0  0
   38.6520   27.5860   42.8980 C   0  0  0  0  0  0  0  0  0  0  0  0
   39.0600   26.2920   43.3030 C   0  0  0  0  0  0  0  0  0  0  0  0
   38.3770   25.4230   43.3620 H   0  0  0  0  0  0  0  0  0  0  0  0
   40.3270   25.9090   43.6800 C   0  0  0  0  0  0  0  0  0  0  0  0
   40.6270   24.9410   43.9820 H   0  0  0  0  0  0  0  0  0  0  0  0
   41.2910   26.8890   43.6600 C   0  0  0  0  0  3  0  0  0  0  0  0
   41.0070   28.1780   43.2870 C   0  0  0  0  0  3  0  0  0  0  0  0
  1  2  1  0  0  0  0
  1  7  1  0  0  0  0
  2 17  1  0  0  0  0
  3  9  1  0  0  0  0
  3  2  2  0  0  0  0
  4  3  1  0  0  0  0
  5  4  2  0  0  0  0
  5  6  1  0  0  0  0
  6  1  2  0  0  0  0
  8  5  1  0  0  0  0
  9 10  2  0  0  0  0
 10 11  1  0  0  0  0
 10 14  1  0  0  0  0
 11 15  1  0  0  0  0
 12 11  2  0  0  0  0
 13 12  1  0  0  0  0
 13  9  1  0  0  0  0
 16 12  1  0  0  0  0
 17 21  1  0  0  0  0
 17 18  1  1  0  0  0
 19 20  1  0  0  0  0
 20 27  1  0  0  0  0
 21 20  2  0  0  0  0
 21 22  1  0  0  0  0
 22 23  1  0  0  0  0
 22 24  2  0  0  0  0
 24 25  1  0  0  0  0
 26 24  1  0  0  0  0
 27 26  2  0  0  0  0
M  END
>  <minimizedAffinity>
-5.21062088

$$$$

 OpenBabel03252503103D

 27 29  0  0  1  0  0  0  0  0999 V2000
   37.2840   33.1570   39.8130 C   0  0  0  0  0  0  0  0  0  0  0  0
   37.5420   31.8350   40.2690 C   0  0  0  0  0  0  0  0  0  0  0  0
   38.7890   31.6720   40.8700 C   0  0  0  0  0  0  0  0  0  0  0  0
   39.6770   32.6660   41.0110 N   0  0  0  0  0  0  0  0  0  0  0  0
   39.3610   33.9260   40.5470 C   0  0  0  0  0  0  0  0  0  0  0  0
   38.1840   34.1560   39.9590 N   0  0  0  0  0  0  0  0  0  0  0  0
   36.3680   33.4660   39.3230 H   0  0  0  0  0  0  0  0  0  0  0  0
   40.1020   34.6970   40.6810 H   0  0  0  0  0  0  0  0  0  0  0  0
   39.1050   30.4150   41.3660 C   0  0  0  0  0  0  0  0  0  0  0  0
   39.0470   29.8060   42.5750 C   0  0  0  0  0  0  0  0  0  0  0  0
   39.4580   28.5790   42.8450 C   0  0  0  0  0  0  0  0  0  0  0  0
   39.9770   27.9020   41.7830 C   0  0  0  0  0  0  0  0  0  0  0  0
   39.8430   29.1120   40.3950 S   0  0  0  0  0  0  0  0  0  0  0  0
   38.6310   30.1880   43.4920 H   0  0  0  0  0  0  0  0  0  0  0  0
   39.5280   27.9000   43.6510 H   0  0  0  0  0  0  0  0  0  0  0  0
   40.4130   26.9750   41.4740 H   0  0  0  0  0  0  0  0  0  0  0  0
   36.5430   30.8740   40.0710 C   0  0  2  0  0  3  0  0  0  0  0  0
   35.8450   30.6780   41.2020 O   0  0  0  0  0  1  0  0  0  0  0  0
   38.0650   30.5660   37.2530 Cl  0  0  0  0  0  0  0  0  0  0  0  0
   36.5200   29.8410   37.6130 C   0  0  0  0  0  0  0  0  0  0  0  0
   36.1280   30.0430   38.9020 C   0  0  0  0  0  0  0  0  0  0  0  0
   34.9410   29.3140   39.1580 C   0  0  0  0  0  0  0  0  0  0  0  0
   34.4230   29.3080   40.1370 H   0  0  0  0  0  0  0  0  0  0  0  0
   34.2570   28.5180   38.2690 C   0  0  0  0  0  0  0  0  0  0  0  0
   33.3700   27.9740   38.4650 H   0  0  0  0  0  0  0  0  0  0  0  0
   34.7860   28.4230   37.0030 C   0  0  0  0  0  3  0  0  0  0  0  0
   35.9320   29.0850   36.6450 C   0  0  0  0  0  3  0  0  0  0  0  0
  1  6  2  0  0  0  0
  1  2  1  0  0  0  0
  2  3  2  0  0  0  0
  3  4  1  0  0  0  0
  3  9  1  0  0  0  0
  5  8  1  0  0  0  0
  5  4  2  0  0  0  0
  6  5  1  0  0  0  0
  7  1  1  0  0  0  0
  9 10  2  0  0  0  0
 10 11  1  0  0  0  0
 10 14  1  0  0  0  0
 11 15  1  0  0  0  0
 12 11  2  0  0  0  0
 13  9  1  0  0  0  0
 13 12  1  0  0  0  0
 16 12  1  0  0  0  0
 17  2  1  0  0  0  0
 17 18  1  1  0  0  0
 19 20  1  0  0  0  0
 20 21  1  0  0  0  0
 21 22  2  0  0  0  0
 21 17  1  0  0  0  0
 22 23  1  0  0  0  0
 24 25  1  0  0  0  0
 24 22  1  0  0  0  0
 26 24  2  0  0  0  0
 27 26  1  0  0  0  0
 27 20  2  0  0  0  0
M  END
>  <minimizedAffinity>
-5.08330679

$$$$

 OpenBabel03252503103D

 27 29  0  0  1  0  0  0  0  0999 V2000
   34.4220   29.1680   39.5410 C   0  0  0  0  0  0  0  0  0  0  0  0
   35.7840   29.5780   39.5620 C   0  0  0  0  0  0  0  0  0  0  0  0
   36.3890   29.6100   38.3070 C   0  0  0  0  0  0  0  0  0  0  0  0
   35.7560   29.2840   37.1720 N   0  0  0  0  0  0  0  0  0  0  0  0
   34.4330   28.8960   37.2230 C   0  0  0  0  0  0  0  0  0  0  0  0
   33.7880   28.8410   38.3910 N   0  0  0  0  0  0  0  0  0  0  0  0
   33.7950   29.0860   40.4200 H   0  0  0  0  0  0  0  0  0  0  0  0
   33.9600   28.6430   36.2880 H   0  0  0  0  0  0  0  0  0  0  0  0
   37.7120   30.0270   38.2400 C   0  0  0  0  0  0  0  0  0  0  0  0
   38.9230   29.4280   38.3230 C   0  0  0  0  0  0  0  0  0  0  0  0
   40.0950   30.0400   38.2820 C   0  0  0  0  0  0  0  0  0  0  0  0
   40.0300   31.3930   38.1400 C   0  0  0  0  0  0  0  0  0  0  0  0
   38.2160   31.7310   38.0710 S   0  0  0  0  0  0  0  0  0  0  0  0
   39.1400   28.3760   38.3940 H   0  0  0  0  0  0  0  0  0  0  0  0
   41.1290   29.8270   38.3230 H   0  0  0  0  0  0  0  0  0  0  0  0
   40.6130   32.2860   38.0590 H   0  0  0  0  0  0  0  0  0  0  0  0
   36.3460   29.8970   40.8040 C   0  0  2  0  0  3  0  0  0  0  0  0
   36.0230   31.1510   41.1610 O   0  0  0  0  0  1  0  0  0  0  0  0
   39.3000   30.7010   41.7940 Cl  0  0  0  0  0  0  0  0  0  0  0  0
   38.4910   29.2210   42.2370 C   0  0  0  0  0  0  0  0  0  0  0  0
   37.2150   29.1540   41.7640 C   0  0  0  0  0  0  0  0  0  0  0  0
   36.5780   27.9970   42.2760 C   0  0  0  0  0  0  0  0  0  0  0  0
   35.5320   27.7180   42.0440 H   0  0  0  0  0  0  0  0  0  0  0  0
   37.1300   27.0600   43.1190 C   0  0  0  0  0  0  0  0  0  0  0  0
   36.6500   26.1970   43.4990 H   0  0  0  0  0  0  0  0  0  0  0  0
   38.4330   27.2750   43.5000 C   0  0  0  0  0  3  0  0  0  0  0  0
   39.1450   28.3630   43.0670 C   0  0  0  0  0  3  0  0  0  0  0  0
  1  2  1  0  0  0  0
  1  7  1  0  0  0  0
  2 17  1  0  0  0  0
  3  2  2  0  0  0  0
  4  5  2  0  0  0  0
  4  3  1  0  0  0  0
  5  6  1  0  0  0  0
  6  1  2  0  0  0  0
  8  5  1  0  0  0  0
  9  3  1  0  0  0  0
  9 10  2  0  0  0  0
 10 14  1  0  0  0  0
 11 10  1  0  0  0  0
 11 15  1  0  0  0  0
 12 11  2  0  0  0  0
 13 12  1  0  0  0  0
 13  9  1  0  0  0  0
 16 12  1  0  0  0  0
 17 18  1  6  0  0  0
 17 21  1  0  0  0  0
 19 20  1  0  0  0  0
 20 27  1  0  0  0  0
 21 20  2  0  0  0  0
 21 22  1  0  0  0  0
 22 24  2  0  0  0  0
 23 22  1  0  0  0  0
 24 25  1  0  0  0  0
 24 26  1  0  0  0  0
 27 26  2  0  0  0  0
M  END
>  <minimizedAffinity>
-5.07201672

$$$$

 OpenBabel03252503103D

 27 29  0  0  1  0  0  0  0  0999 V2000
   36.2660   29.8270   38.3030 C   0  0  0  0  0  0  0  0  0  0  0  0
   36.6910   29.6000   39.6410 C   0  0  0  0  0  0  0  0  0  0  0  0
   36.7540   28.2540   39.9990 C   0  0  0  0  0  0  0  0  0  0  0  0
   36.4410   27.2520   39.1660 N   0  0  0  0  0  0  0  0  0  0  0  0
   36.0370   27.5430   37.8800 C   0  0  0  0  0  0  0  0  0  0  0  0
   35.9530   28.8100   37.4660 N   0  0  0  0  0  0  0  0  0  0  0  0
   36.1600   30.8060   37.8530 H   0  0  0  0  0  0  0  0  0  0  0  0
   35.7960   26.7080   37.2420 H   0  0  0  0  0  0  0  0  0  0  0  0
   37.1870   27.9490   41.2820 C   0  0  0  0  0  0  0  0  0  0  0  0
   36.6320   27.9400   42.5170 C   0  0  0  0  0  0  0  0  0  0  0  0
   37.2580   27.6540   43.6460 C   0  0  0  0  0  0  0  0  0  0  0  0
   38.5780   27.3460   43.5070 C   0  0  0  0  0  0  0  0  0  0  0  0
   38.8630   27.4870   41.6880 S   0  0  0  0  0  0  0  0  0  0  0  0
   35.6050   28.1180   42.7850 H   0  0  0  0  0  0  0  0  0  0  0  0
   37.0770   27.5790   44.6840 H   0  0  0  0  0  0  0  0  0  0  0  0
   39.4640   27.0670   44.0370 H   0  0  0  0  0  0  0  0  0  0  0  0
   36.9940   30.7200   40.4240 C   0  0  2  0  0  3  0  0  0  0  0  0
   35.9880   30.9930   41.2700 O   0  0  0  0  0  1  0  0  0  0  0  0
   37.1320   33.7690   39.4050 Cl  0  0  0  0  0  0  0  0  0  0  0  0
   38.4970   32.8910   40.0420 C   0  0  0  0  0  0  0  0  0  0  0  0
   38.1630   31.6470   40.4880 C   0  0  0  0  0  0  0  0  0  0  0  0
   39.2850   31.0500   41.1150 C   0  0  0  0  0  0  0  0  0  0  0  0
   39.2700   30.0400   41.5660 H   0  0  0  0  0  0  0  0  0  0  0  0
   40.5350   31.6050   41.2650 C   0  0  0  0  0  0  0  0  0  0  0  0
   41.3700   31.1550   41.7340 H   0  0  0  0  0  0  0  0  0  0  0  0
   40.7060   32.8700   40.7530 C   0  0  0  0  0  3  0  0  0  0  0  0
   39.6880   33.5430   40.1280 C   0  0  0  0  0  3  0  0  0  0  0  0
  1  2  1  0  0  0  0
  2  3  2  0  0  0  0
  2 17  1  0  0  0  0
  3  9  1  0  0  0  0
  4  3  1  0  0  0  0
  5  4  2  0  0  0  0
  6  5  1  0  0  0  0
  6  1  2  0  0  0  0
  7  1  1  0  0  0  0
  8  5  1  0  0  0  0
  9 13  1  0  0  0  0
  9 10  2  0  0  0  0
 10 14  1  0  0  0  0
 10 11  1  0  0  0  0
 11 15  1  0  0  0  0
 12 11  2  0  0  0  0
 12 16  1  0  0  0  0
 13 12  1  0  0  0  0
 17 21  1  0  0  0  0
 17 18  1  6  0  0  0
 19 20  1  0  0  0  0
 20 27  2  0  0  0  0
 20 21  1  0  0  0  0
 21 22  2  0  0  0  0
 22 24  1  0  0  0  0
 22 23  1  0  0  0  0
 24 25  1  0  0  0  0
 26 24  2  0  0  0  0
 27 26  1  0  0  0  0
M  END
>  <minimizedAffinity>
-5.02242851

$$$$

 OpenBabel03252503103D

 27 29  0  0  1  0  0  0  0  0999 V2000
   37.2000   24.5790   41.7110 C   0  0  0  0  0  0  0  0  0  0  0  0
   37.1850   25.9940   41.5720 C   0  0  0  0  0  0  0  0  0  0  0  0
   36.6610   26.4430   40.3610 C   0  0  0  0  0  0  0  0  0  0  0  0
   36.2090   25.6230   39.4020 N   0  0  0  0  0  0  0  0  0  0  0  0
   36.2520   24.2590   39.6020 C   0  0  0  0  0  0  0  0  0  0  0  0
   36.7410   23.7560   40.7390 N   0  0  0  0  0  0  0  0  0  0  0  0
   37.5700   24.0540   42.5830 H   0  0  0  0  0  0  0  0  0  0  0  0
   35.8780   23.6350   38.8070 H   0  0  0  0  0  0  0  0  0  0  0  0
   36.5860   27.8140   40.1610 C   0  0  0  0  0  0  0  0  0  0  0  0
   35.7270   28.8010   40.5130 C   0  0  0  0  0  0  0  0  0  0  0  0
   35.8230   30.0720   40.1640 C   0  0  0  0  0  0  0  0  0  0  0  0
   36.8980   30.3730   39.3830 C   0  0  0  0  0  0  0  0  0  0  0  0
   37.7500   28.7470   39.1820 S   0  0  0  0  0  0  0  0  0  0  0  0
   34.8640   28.7330   41.1520 H   0  0  0  0  0  0  0  0  0  0  0  0
   35.3210   30.9940   40.2900 H   0  0  0  0  0  0  0  0  0  0  0  0
   37.4030   31.1640   38.8690 H   0  0  0  0  0  0  0  0  0  0  0  0
   37.6800   26.7550   42.6380 C   0  0  2  0  0  3  0  0  0  0  0  0
   36.7010   27.0370   43.5130 O   0  0  0  0  0  1  0  0  0  0  0  0
   38.5880   29.8420   42.5940 Cl  0  0  0  0  0  0  0  0  0  0  0  0
   39.6670   28.5110   42.9220 C   0  0  0  0  0  0  0  0  0  0  0  0
   39.0250   27.3100   42.9710 C   0  0  0  0  0  0  0  0  0  0  0  0
   39.9340   26.3020   43.3760 C   0  0  0  0  0  0  0  0  0  0  0  0
   39.6560   25.2370   43.4980 H   0  0  0  0  0  0  0  0  0  0  0  0
   41.2660   26.4680   43.6770 C   0  0  0  0  0  0  0  0  0  0  0  0
   41.9420   25.7110   43.9790 H   0  0  0  0  0  0  0  0  0  0  0  0
   41.7600   27.7470   43.5730 C   0  0  0  0  0  3  0  0  0  0  0  0
   40.9700   28.8000   43.1920 C   0  0  0  0  0  3  0  0  0  0  0  0
  1  7  1  0  0  0  0
  2  1  1  0  0  0  0
  2 17  1  0  0  0  0
  3  2  2  0  0  0  0
  4  5  2  0  0  0  0
  4  3  1  0  0  0  0
  5  6  1  0  0  0  0
  6  1  2  0  0  0  0
  8  5  1  0  0  0  0
  9  3  1  0  0  0  0
  9 10  2  0  0  0  0
 10 14  1  0  0  0  0
 11 15  1  0  0  0  0
 11 10  1  0  0  0  0
 12 11  2  0  0  0  0
 13 12  1  0  0  0  0
 13  9  1  0  0  0  0
 16 12  1  0  0  0  0
 17 21  1  0  0  0  0
 17 18  1  6  0  0  0
 19 20  1  0  0  0  0
 20 21  2  0  0  0  0
 20 27  1  0  0  0  0
 21 22  1  0  0  0  0
 22 23  1  0  0  0  0
 22 24  2  0  0  0  0
 24 25  1  0  0  0  0
 26 24  1  0  0  0  0
 27 26  2  0  0  0  0
M  END
>  <minimizedAffinity>
-4.99943495

$$$$

 OpenBabel03252503103D

 27 29  0  0  1  0  0  0  0  0999 V2000
   36.5670   24.8190   41.2910 C   0  0  0  0  0  0  0  0  0  0  0  0
   37.4980   25.7660   41.7990 C   0  0  0  0  0  0  0  0  0  0  0  0
   38.8200   25.3220   41.7980 C   0  0  0  0  0  0  0  0  0  0  0  0
   39.1930   24.1120   41.3620 N   0  0  0  0  0  0  0  0  0  0  0  0
   38.2370   23.2420   40.8800 C   0  0  0  0  0  0  0  0  0  0  0  0
   36.9500   23.5990   40.8500 N   0  0  0  0  0  0  0  0  0  0  0  0
   35.5000   24.9910   41.2160 H   0  0  0  0  0  0  0  0  0  0  0  0
   38.5790   22.2790   40.5380 H   0  0  0  0  0  0  0  0  0  0  0  0
   39.7930   26.2010   42.2540 C   0  0  0  0  0  0  0  0  0  0  0  0
   40.3240   26.5210   43.4580 C   0  0  0  0  0  0  0  0  0  0  0  0
   41.2370   27.4520   43.6800 C   0  0  0  0  0  0  0  0  0  0  0  0
   41.6540   28.1220   42.5690 C   0  0  0  0  0  0  0  0  0  0  0  0
   40.6730   27.3490   41.2080 S   0  0  0  0  0  0  0  0  0  0  0  0
   40.1320   26.0610   44.4120 H   0  0  0  0  0  0  0  0  0  0  0  0
   41.7890   27.8820   44.4710 H   0  0  0  0  0  0  0  0  0  0  0  0
   42.3060   28.8920   42.2140 H   0  0  0  0  0  0  0  0  0  0  0  0
   36.9990   27.0020   42.2270 C   0  0  2  0  0  3  0  0  0  0  0  0
   36.5250   26.9130   43.4800 O   0  0  0  0  0  1  0  0  0  0  0  0
   38.4830   29.7250   43.0840 Cl  0  0  0  0  0  0  0  0  0  0  0  0
   37.2920   29.6210   41.8140 C   0  0  0  0  0  0  0  0  0  0  0  0
   36.8770   28.3430   41.5820 C   0  0  0  0  0  0  0  0  0  0  0  0
   36.0230   28.3190   40.4530 C   0  0  0  0  0  0  0  0  0  0  0  0
   35.5570   27.3970   40.0560 H   0  0  0  0  0  0  0  0  0  0  0  0
   35.6420   29.3960   39.6860 C   0  0  0  0  0  0  0  0  0  0  0  0
   35.0030   29.3730   38.8430 H   0  0  0  0  0  0  0  0  0  0  0  0
   36.1480   30.6190   40.0580 C   0  0  0  0  0  3  0  0  0  0  0  0
   36.9870   30.7590   41.1340 C   0  0  0  0  0  3  0  0  0  0  0  0
  1  2  1  0  0  0  0
  2 17  1  0  0  0  0
  3  2  2  0  0  0  0
  3  9  1  0  0  0  0
  4  3  1  0  0  0  0
  5  4  2  0  0  0  0
  6  5  1  0  0  0  0
  6  1  2  0  0  0  0
  7  1  1  0  0  0  0
  8  5  1  0  0  0  0
  9 10  2  0  0  0  0
 10 11  1  0  0  0  0
 10 14  1  0  0  0  0
 11 15  1  0  0  0  0
 12 11  2  0  0  0  0
 13  9  1  0  0  0  0
 13 12  1  0  0  0  0
 16 12  1  0  0  0  0
 17 18  1  6  0  0  0
 20 19  1  0  0  0  0
 21 20  1  0  0  0  0
 21 17  1  0  0  0  0
 22 21  2  0  0  0  0
 23 22  1  0  0  0  0
 24 26  2  0  0  0  0
 24 22  1  0  0  0  0
 25 24  1  0  0  0  0
 26 27  1  0  0  0  0
 27 20  2  0  0  0  0
M  END
>  <minimizedAffinity>
-4.96430874

$$$$
