
 OpenBabel03252503333D

 41 43  0  0  1  0  0  0  0  0999 V2000
   40.3740   30.7430   39.6740 C   0  0  0  0  0  0  0  0  0  0  0  0
   40.4350   32.0830   40.1570 C   0  0  0  0  0  0  0  0  0  0  0  0
   40.6010   33.0870   39.1860 C   0  0  0  0  0  0  0  0  0  0  0  0
   40.6900   32.7040   37.8900 N   0  0  0  0  0  0  0  0  0  0  0  0
   40.6260   31.4210   37.4920 C   0  0  0  0  0  0  0  0  0  0  0  0
   40.4670   30.4340   38.3960 N   0  0  0  0  0  0  0  0  0  0  0  0
   38.8810   29.5920   41.0750 C   0  0  0  0  0  0  0  0  0  0  0  0
   38.0380   30.4660   40.6790 O   0  0  0  0  0  0  0  0  0  0  0  0
   40.2060   29.6630   40.6030 N   0  0  0  0  0  0  0  0  0  0  0  0
   38.4170   28.6000   41.9700 N   0  0  0  0  0  0  0  0  0  0  0  0
   37.1150   28.7850   42.6440 C   0  0  0  0  0  0  0  0  0  0  0  0
   37.3230   28.0700   43.9400 C   0  0  0  0  0  0  0  0  0  0  0  0
   38.6930   27.4560   43.8670 C   0  0  0  0  0  0  0  0  0  0  0  0
   38.9640   27.3410   42.3840 C   0  0  1  0  0  0  0  0  0  0  0  0
   40.3530   32.2790   41.2210 H   0  0  0  0  0  0  0  0  0  0  0  0
   40.7050   31.2120   36.4460 H   0  0  0  0  0  0  0  0  0  0  0  0
   40.9150   28.9820   40.9360 H   0  0  0  0  0  0  0  0  0  0  0  0
   36.9530   29.8590   42.8870 H   0  0  0  0  0  0  0  0  0  0  0  0
   36.2870   28.3870   42.0380 H   0  0  0  0  0  0  0  0  0  0  0  0
   37.1710   28.7150   44.8260 H   0  0  0  0  0  0  0  0  0  0  0  0
   36.5990   27.2090   43.9580 H   0  0  0  0  0  0  0  0  0  0  0  0
   39.3430   28.3650   44.1260 H   0  0  0  0  0  0  0  0  0  0  0  0
   38.9910   26.7470   44.5650 H   0  0  0  0  0  0  0  0  0  0  0  0
   40.0510   27.2610   42.3330 H   0  0  0  0  0  0  0  0  0  0  0  0
   38.6620   25.6150   40.4850 C   0  0  0  0  0  0  0  0  0  0  0  0
   39.7570   26.1250   40.1080 O   0  0  0  0  0  0  0  0  0  0  0  0
   38.2540   26.2570   41.7110 N   0  0  0  0  0  0  0  0  0  0  0  0
   37.3580   25.9320   42.1900 H   0  0  0  0  0  0  0  0  0  0  0  0
   36.2000   26.5540   38.9400 Cl  0  0  0  0  0  0  0  0  0  0  0  0
   36.6090   24.8820   39.2680 C   0  0  0  0  0  0  0  0  0  0  0  0
   37.7490   24.5580   39.9780 C   0  0  0  0  0  0  0  0  0  0  0  0
   38.1320   23.2600   40.2730 C   0  0  0  0  0  0  0  0  0  0  0  0
   39.0310   23.0320   40.8320 H   0  0  0  0  0  0  0  0  0  0  0  0
   37.3290   22.2080   39.8320 C   0  0  0  0  0  0  0  0  0  0  0  0
   37.5480   21.1640   40.0150 H   0  0  0  0  0  0  0  0  0  0  0  0
   36.1970   22.5700   39.1250 C   0  0  0  0  0  3  0  0  0  0  0  0
   35.7980   23.8580   38.8210 C   0  0  0  0  0  3  0  0  0  0  0  0
   40.6590   34.4460   39.7060 C   0  0  0  0  0  0  0  0  0  0  0  0
   41.4530   35.2110   38.8550 F   0  0  0  0  0  0  0  0  0  0  0  0
   41.3570   34.3960   40.9120 F   0  0  0  0  0  0  0  0  0  0  0  0
   39.4380   35.0490   39.8100 F   0  0  0  0  0  0  0  0  0  0  0  0
  1  2  1  0  0  0  0
  1  9  1  0  0  0  0
  2 15  1  0  0  0  0
  3 38  1  0  0  0  0
  3  2  2  0  0  0  0
  4  3  1  0  0  0  0
  5  4  2  0  0  0  0
  5  6  1  0  0  0  0
  6  1  2  0  0  0  0
  7 10  1  0  0  0  0
  8  7  2  0  0  0  0
  9 17  1  0  0  0  0
  9  7  1  0  0  0  0
 10 14  1  0  0  0  0
 10 11  1  0  0  0  0
 11 18  1  0  0  0  0
 11 12  1  0  0  0  0
 12 21  1  0  0  0  0
 12 20  1  0  0  0  0
 13 12  1  0  0  0  0
 13 22  1  0  0  0  0
 13 23  1  0  0  0  0
 14 24  1  6  0  0  0
 14 13  1  0  0  0  0
 16  5  1  0  0  0  0
 19 11  1  0  0  0  0
 25 27  1  0  0  0  0
 26 25  2  0  0  0  0
 27 28  1  0  0  0  0
 27 14  1  0  0  0  0
 29 30  1  0  0  0  0
 30 31  1  0  0  0  0
 31 32  2  0  0  0  0
 31 25  1  0  0  0  0
 32 33  1  0  0  0  0
 34 35  1  0  0  0  0
 34 32  1  0  0  0  0
 36 34  2  0  0  0  0
 37 36  1  0  0  0  0
 37 30  2  0  0  0  0
 38 41  1  0  0  0  0
 38 40  1  0  0  0  0
 39 38  1  0  0  0  0
M  END
>  <minimizedAffinity>
-6.1643424

$$$$

 OpenBabel03252503333D

 41 43  0  0  1  0  0  0  0  0999 V2000
   40.2990   30.8900   39.6190 C   0  0  0  0  0  0  0  0  0  0  0  0
   40.5680   32.1400   40.2530 C   0  0  0  0  0  0  0  0  0  0  0  0
   40.7660   33.2390   39.3990 C   0  0  0  0  0  0  0  0  0  0  0  0
   40.6890   33.0250   38.0640 N   0  0  0  0  0  0  0  0  0  0  0  0
   40.4320   31.8210   37.5210 C   0  0  0  0  0  0  0  0  0  0  0  0
   40.2360   30.7460   38.3110 N   0  0  0  0  0  0  0  0  0  0  0  0
   38.8100   29.7350   41.0210 C   0  0  0  0  0  0  0  0  0  0  0  0
   38.0490   30.7410   40.8260 O   0  0  0  0  0  0  0  0  0  0  0  0
   40.0860   29.7220   40.4230 N   0  0  0  0  0  0  0  0  0  0  0  0
   38.3120   28.6890   41.8330 N   0  0  0  0  0  0  0  0  0  0  0  0
   37.1100   28.9240   42.6590 C   0  0  0  0  0  0  0  0  0  0  0  0
   37.3460   28.0250   43.8300 C   0  0  0  0  0  0  0  0  0  0  0  0
   38.6180   27.2790   43.5370 C   0  0  0  0  0  0  0  0  0  0  0  0
   38.7370   27.3340   42.0310 C   0  0  1  0  0  0  0  0  0  0  0  0
   40.6080   32.2000   41.3350 H   0  0  0  0  0  0  0  0  0  0  0  0
   40.3880   31.7460   36.4550 H   0  0  0  0  0  0  0  0  0  0  0  0
   40.7330   28.9290   40.5930 H   0  0  0  0  0  0  0  0  0  0  0  0
   37.1040   29.9680   43.0470 H   0  0  0  0  0  0  0  0  0  0  0  0
   36.1870   28.7040   42.1020 H   0  0  0  0  0  0  0  0  0  0  0  0
   37.3570   28.5590   44.7980 H   0  0  0  0  0  0  0  0  0  0  0  0
   36.5270   27.2540   43.8200 H   0  0  0  0  0  0  0  0  0  0  0  0
   39.3960   28.0690   43.8340 H   0  0  0  0  0  0  0  0  0  0  0  0
   38.8900   26.4560   44.1080 H   0  0  0  0  0  0  0  0  0  0  0  0
   39.7960   27.1420   41.8550 H   0  0  0  0  0  0  0  0  0  0  0  0
   38.1110   25.8170   40.0340 C   0  0  0  0  0  0  0  0  0  0  0  0
   39.2700   26.1600   39.6590 O   0  0  0  0  0  0  0  0  0  0  0  0
   37.8410   26.4340   41.3110 N   0  0  0  0  0  0  0  0  0  0  0  0
   36.9110   26.2330   41.7940 H   0  0  0  0  0  0  0  0  0  0  0  0
   38.0840   22.8900   40.9100 Cl  0  0  0  0  0  0  0  0  0  0  0  0
   36.9250   23.6300   39.8240 C   0  0  0  0  0  0  0  0  0  0  0  0
   37.0220   24.9670   39.4870 C   0  0  0  0  0  0  0  0  0  0  0  0
   36.1430   25.6140   38.6360 C   0  0  0  0  0  0  0  0  0  0  0  0
   36.2410   26.6630   38.3880 H   0  0  0  0  0  0  0  0  0  0  0  0
   35.0910   24.8860   38.0790 C   0  0  0  0  0  0  0  0  0  0  0  0
   34.3560   25.3080   37.4050 H   0  0  0  0  0  0  0  0  0  0  0  0
   35.0250   23.5530   38.4390 C   0  0  0  0  0  3  0  0  0  0  0  0
   35.8920   22.8890   39.2850 C   0  0  0  0  0  3  0  0  0  0  0  0
   41.0370   34.5020   40.0710 C   0  0  0  0  0  0  0  0  0  0  0  0
   41.8290   35.2860   39.2340 F   0  0  0  0  0  0  0  0  0  0  0  0
   41.8410   34.2170   41.1740 F   0  0  0  0  0  0  0  0  0  0  0  0
   39.9140   35.2110   40.3860 F   0  0  0  0  0  0  0  0  0  0  0  0
  1  2  1  0  0  0  0
  1  9  1  0  0  0  0
  2 15  1  0  0  0  0
  3 38  1  0  0  0  0
  3  2  2  0  0  0  0
  4  3  1  0  0  0  0
  5  4  2  0  0  0  0
  5  6  1  0  0  0  0
  6  1  2  0  0  0  0
  7 10  1  0  0  0  0
  8  7  2  0  0  0  0
  9 17  1  0  0  0  0
  9  7  1  0  0  0  0
 10 14  1  0  0  0  0
 10 11  1  0  0  0  0
 11 18  1  0  0  0  0
 11 12  1  0  0  0  0
 12 20  1  0  0  0  0
 13 12  1  0  0  0  0
 13 22  1  0  0  0  0
 13 23  1  0  0  0  0
 14 24  1  6  0  0  0
 14 13  1  0  0  0  0
 16  5  1  0  0  0  0
 19 11  1  0  0  0  0
 21 12  1  0  0  0  0
 25 27  1  0  0  0  0
 26 25  2  0  0  0  0
 27 28  1  0  0  0  0
 27 14  1  0  0  0  0
 30 29  1  0  0  0  0
 31 30  1  0  0  0  0
 31 25  1  0  0  0  0
 32 31  2  0  0  0  0
 33 32  1  0  0  0  0
 34 36  2  0  0  0  0
 34 32  1  0  0  0  0
 35 34  1  0  0  0  0
 36 37  1  0  0  0  0
 37 30  2  0  0  0  0
 38 41  1  0  0  0  0
 38 40  1  0  0  0  0
 39 38  1  0  0  0  0
M  END
>  <minimizedAffinity>
-6.07955408

$$$$

 OpenBabel03252503333D

 41 43  0  0  1  0  0  0  0  0999 V2000
   40.2090   31.2760   41.1880 C   0  0  0  0  0  0  0  0  0  0  0  0
   40.1990   32.6430   40.7810 C   0  0  0  0  0  0  0  0  0  0  0  0
   41.4540   33.2650   40.6620 C   0  0  0  0  0  0  0  0  0  0  0  0
   42.5550   32.5270   40.9420 N   0  0  0  0  0  0  0  0  0  0  0  0
   42.5040   31.2370   41.3230 C   0  0  0  0  0  0  0  0  0  0  0  0
   41.3170   30.6100   41.4460 N   0  0  0  0  0  0  0  0  0  0  0  0
   38.4210   30.2330   40.0790 C   0  0  0  0  0  0  0  0  0  0  0  0
   39.0310   30.6020   39.0200 O   0  0  0  0  0  0  0  0  0  0  0  0
   38.9670   30.5730   41.3320 N   0  0  0  0  0  0  0  0  0  0  0  0
   37.2220   29.4990   39.9170 N   0  0  0  0  0  0  0  0  0  0  0  0
   36.5700   29.4610   38.5920 C   0  0  0  0  0  0  0  0  0  0  0  0
   35.1250   29.3240   38.9510 C   0  0  0  0  0  0  0  0  0  0  0  0
   35.0740   29.2020   40.4490 C   0  0  0  0  0  0  0  0  0  0  0  0
   36.4500   28.6990   40.8230 C   0  0  1  0  0  0  0  0  0  0  0  0
   39.2560   33.1410   40.5810 H   0  0  0  0  0  0  0  0  0  0  0  0
   43.4250   30.7330   41.5220 H   0  0  0  0  0  0  0  0  0  0  0  0
   38.4720   30.3100   42.2050 H   0  0  0  0  0  0  0  0  0  0  0  0
   36.6860   30.4400   38.0750 H   0  0  0  0  0  0  0  0  0  0  0  0
   36.9600   28.6390   37.9730 H   0  0  0  0  0  0  0  0  0  0  0  0
   34.4950   30.1390   38.5490 H   0  0  0  0  0  0  0  0  0  0  0  0
   34.7820   28.3320   38.5480 H   0  0  0  0  0  0  0  0  0  0  0  0
   35.1690   30.3060   40.7500 H   0  0  0  0  0  0  0  0  0  0  0  0
   34.2010   28.9030   40.9240 H   0  0  0  0  0  0  0  0  0  0  0  0
   36.5360   28.9660   41.8770 H   0  0  0  0  0  0  0  0  0  0  0  0
   36.9450   26.2630   41.5280 C   0  0  0  0  0  0  0  0  0  0  0  0
   36.9030   26.7910   42.6780 O   0  0  0  0  0  0  0  0  0  0  0  0
   36.6840   27.2860   40.5440 N   0  0  0  0  0  0  0  0  0  0  0  0
   36.6550   27.0130   39.5130 H   0  0  0  0  0  0  0  0  0  0  0  0
   39.4050   24.7910   42.5840 Cl  0  0  0  0  0  0  0  0  0  0  0  0
   38.2750   24.1530   41.4060 C   0  0  0  0  0  0  0  0  0  0  0  0
   37.1880   24.9000   40.9910 C   0  0  0  0  0  0  0  0  0  0  0  0
   36.2580   24.4590   40.0640 C   0  0  0  0  0  0  0  0  0  0  0  0
   35.4150   25.0630   39.7550 H   0  0  0  0  0  0  0  0  0  0  0  0
   36.4140   23.1880   39.5110 C   0  0  0  0  0  0  0  0  0  0  0  0
   35.7370   22.7600   38.7820 H   0  0  0  0  0  0  0  0  0  0  0  0
   37.5110   22.4710   39.9500 C   0  0  0  0  0  3  0  0  0  0  0  0
   38.4500   22.8920   40.8720 C   0  0  0  0  0  3  0  0  0  0  0  0
   41.4160   34.6590   40.2440 C   0  0  0  0  0  0  0  0  0  0  0  0
   42.5880   35.2800   40.6690 F   0  0  0  0  0  0  0  0  0  0  0  0
   40.3940   35.2770   40.9630 F   0  0  0  0  0  0  0  0  0  0  0  0
   41.3070   34.8270   38.8930 F   0  0  0  0  0  0  0  0  0  0  0  0
  1  9  1  0  0  0  0
  1  6  1  0  0  0  0
  2  1  2  0  0  0  0
  3  2  1  0  0  0  0
  3  4  2  0  0  0  0
  4  5  1  0  0  0  0
  5  6  2  0  0  0  0
  5 16  1  0  0  0  0
  7  9  1  0  0  0  0
  8  7  2  0  0  0  0
  9 17  1  0  0  0  0
 10  7  1  0  0  0  0
 10 14  1  0  0  0  0
 11 12  1  0  0  0  0
 11 10  1  0  0  0  0
 12 13  1  0  0  0  0
 13 22  1  0  0  0  0
 13 14  1  0  0  0  0
 13 23  1  0  0  0  0
 14 24  1  1  0  0  0
 15  2  1  0  0  0  0
 18 11  1  0  0  0  0
 19 11  1  0  0  0  0
 20 12  1  0  0  0  0
 21 12  1  0  0  0  0
 25 26  2  0  0  0  0
 27 14  1  0  0  0  0
 27 25  1  0  0  0  0
 28 27  1  0  0  0  0
 30 29  1  0  0  0  0
 31 30  1  0  0  0  0
 31 25  1  0  0  0  0
 32 31  2  0  0  0  0
 33 32  1  0  0  0  0
 34 36  2  0  0  0  0
 34 32  1  0  0  0  0
 35 34  1  0  0  0  0
 36 37  1  0  0  0  0
 37 30  2  0  0  0  0
 38  3  1  0  0  0  0
 38 39  1  0  0  0  0
 38 40  1  0  0  0  0
 41 38  1  0  0  0  0
M  END
>  <minimizedAffinity>
-6.07779884

$$$$

 OpenBabel03252503333D

 41 43  0  0  1  0  0  0  0  0999 V2000
   41.0150   32.0120   39.6630 C   0  0  0  0  0  0  0  0  0  0  0  0
   41.7980   32.4530   40.7710 C   0  0  0  0  0  0  0  0  0  0  0  0
   42.4420   33.6940   40.6200 C   0  0  0  0  0  0  0  0  0  0  0  0
   42.2700   34.3590   39.4530 N   0  0  0  0  0  0  0  0  0  0  0  0
   41.5180   33.8910   38.4390 C   0  0  0  0  0  0  0  0  0  0  0  0
   40.8860   32.7060   38.5500 N   0  0  0  0  0  0  0  0  0  0  0  0
   39.1850   30.8430   40.5590 C   0  0  0  0  0  0  0  0  0  0  0  0
   38.9270   31.9520   41.1390 O   0  0  0  0  0  0  0  0  0  0  0  0
   40.3280   30.7550   39.7410 N   0  0  0  0  0  0  0  0  0  0  0  0
   38.2930   29.7680   40.7840 N   0  0  0  0  0  0  0  0  0  0  0  0
   37.3140   29.8580   41.8860 C   0  0  0  0  0  0  0  0  0  0  0  0
   37.1500   28.4260   42.2850 C   0  0  0  0  0  0  0  0  0  0  0  0
   37.9780   27.6240   41.3200 C   0  0  0  0  0  0  0  0  0  0  0  0
   38.0980   28.5190   40.1070 C   0  0  1  0  0  0  0  0  0  0  0  0
   41.8680   31.8400   41.6630 H   0  0  0  0  0  0  0  0  0  0  0  0
   41.4390   34.4850   37.5540 H   0  0  0  0  0  0  0  0  0  0  0  0
   40.5740   29.8560   39.2850 H   0  0  0  0  0  0  0  0  0  0  0  0
   37.7590   30.3900   42.7570 H   0  0  0  0  0  0  0  0  0  0  0  0
   36.3820   30.3440   41.5600 H   0  0  0  0  0  0  0  0  0  0  0  0
   37.3960   28.2360   43.3470 H   0  0  0  0  0  0  0  0  0  0  0  0
   36.0800   28.1500   42.0780 H   0  0  0  0  0  0  0  0  0  0  0  0
   39.0210   27.7580   41.7790 H   0  0  0  0  0  0  0  0  0  0  0  0
   37.8760   26.5920   41.2680 H   0  0  0  0  0  0  0  0  0  0  0  0
   38.9710   28.1230   39.5880 H   0  0  0  0  0  0  0  0  0  0  0  0
   36.8620   28.9040   37.8710 C   0  0  0  0  0  0  0  0  0  0  0  0
   38.0500   29.0620   37.4630 O   0  0  0  0  0  0  0  0  0  0  0  0
   36.8970   28.5970   39.2800 N   0  0  0  0  0  0  0  0  0  0  0  0
   35.9790   28.4070   39.7890 H   0  0  0  0  0  0  0  0  0  0  0  0
   36.7410   29.0310   34.8210 Cl  0  0  0  0  0  0  0  0  0  0  0  0
   35.3510   29.0200   35.8860 C   0  0  0  0  0  0  0  0  0  0  0  0
   35.5090   28.9600   37.2580 C   0  0  0  0  0  0  0  0  0  0  0  0
   34.4560   28.9480   38.1580 C   0  0  0  0  0  0  0  0  0  0  0  0
   34.6070   28.9010   39.2280 H   0  0  0  0  0  0  0  0  0  0  0  0
   33.1530   28.9980   37.6630 C   0  0  0  0  0  0  0  0  0  0  0  0
   32.2690   28.9920   38.2890 H   0  0  0  0  0  0  0  0  0  0  0  0
   33.0320   29.0560   36.2870 C   0  0  0  0  0  3  0  0  0  0  0  0
   34.0690   29.0690   35.3740 C   0  0  0  0  0  3  0  0  0  0  0  0
   43.2330   34.1220   41.7650 C   0  0  0  0  0  0  0  0  0  0  0  0
   42.6670   35.2850   42.2830 F   0  0  0  0  0  0  0  0  0  0  0  0
   44.4830   34.5080   41.2810 F   0  0  0  0  0  0  0  0  0  0  0  0
   43.3000   33.1960   42.7660 F   0  0  0  0  0  0  0  0  0  0  0  0
  1  9  1  0  0  0  0
  1  2  1  0  0  0  0
  2 15  1  0  0  0  0
  3  2  2  0  0  0  0
  3 38  1  0  0  0  0
  4  3  1  0  0  0  0
  5  6  1  0  0  0  0
  5  4  2  0  0  0  0
  6  1  2  0  0  0  0
  7 10  1  0  0  0  0
  7  8  2  0  0  0  0
  9  7  1  0  0  0  0
 10 11  1  0  0  0  0
 11 12  1  0  0  0  0
 11 18  1  0  0  0  0
 12 20  1  0  0  0  0
 13 22  1  0  0  0  0
 13 12  1  0  0  0  0
 14 24  1  6  0  0  0
 14 10  1  0  0  0  0
 14 13  1  0  0  0  0
 16  5  1  0  0  0  0
 17  9  1  0  0  0  0
 19 11  1  0  0  0  0
 21 12  1  0  0  0  0
 23 13  1  0  0  0  0
 25 27  1  0  0  0  0
 26 25  2  0  0  0  0
 27 28  1  0  0  0  0
 27 14  1  0  0  0  0
 29 30  1  0  0  0  0
 30 31  1  0  0  0  0
 31 25  1  0  0  0  0
 31 32  2  0  0  0  0
 32 33  1  0  0  0  0
 34 32  1  0  0  0  0
 34 35  1  0  0  0  0
 36 34  2  0  0  0  0
 37 30  2  0  0  0  0
 37 36  1  0  0  0  0
 38 39  1  0  0  0  0
 38 41  1  0  0  0  0
 40 38  1  0  0  0  0
M  END
>  <minimizedAffinity>
-5.98652029

$$$$

 OpenBabel03252503333D

 41 43  0  0  1  0  0  0  0  0999 V2000
   37.6000   31.0650   40.3650 C   0  0  0  0  0  0  0  0  0  0  0  0
   37.6240   32.4620   40.0760 C   0  0  0  0  0  0  0  0  0  0  0  0
   38.7230   33.1800   40.5780 C   0  0  0  0  0  0  0  0  0  0  0  0
   39.6550   32.4980   41.2850 N   0  0  0  0  0  0  0  0  0  0  0  0
   39.5800   31.1770   41.5270 C   0  0  0  0  0  0  0  0  0  0  0  0
   38.5390   30.4570   41.0610 N   0  0  0  0  0  0  0  0  0  0  0  0
   36.6230   30.0130   38.5060 C   0  0  0  0  0  0  0  0  0  0  0  0
   37.5990   30.5290   37.8640 O   0  0  0  0  0  0  0  0  0  0  0  0
   36.5100   30.2640   39.8870 N   0  0  0  0  0  0  0  0  0  0  0  0
   35.7110   29.2160   37.7750 N   0  0  0  0  0  0  0  0  0  0  0  0
   35.7300   29.2640   36.2980 C   0  0  0  0  0  0  0  0  0  0  0  0
   34.3020   28.9890   35.9510 C   0  0  0  0  0  0  0  0  0  0  0  0
   33.6000   28.7150   37.2520 C   0  0  0  0  0  0  0  0  0  0  0  0
   34.7070   28.2760   38.1820 C   0  0  1  0  0  0  0  0  0  0  0  0
   36.8220   32.9090   39.4980 H   0  0  0  0  0  0  0  0  0  0  0  0
   40.3630   30.7220   42.0950 H   0  0  0  0  0  0  0  0  0  0  0  0
   35.7080   29.8810   40.4230 H   0  0  0  0  0  0  0  0  0  0  0  0
   35.9580   30.2960   35.9470 H   0  0  0  0  0  0  0  0  0  0  0  0
   36.4430   28.5380   35.8790 H   0  0  0  0  0  0  0  0  0  0  0  0
   33.8340   29.7930   35.3530 H   0  0  0  0  0  0  0  0  0  0  0  0
   34.2860   28.0200   35.3810 H   0  0  0  0  0  0  0  0  0  0  0  0
   33.4280   29.7860   37.6260 H   0  0  0  0  0  0  0  0  0  0  0  0
   32.6440   28.3080   37.2590 H   0  0  0  0  0  0  0  0  0  0  0  0
   34.2830   28.4410   39.1730 H   0  0  0  0  0  0  0  0  0  0  0  0
   36.0810   26.1870   38.8330 C   0  0  0  0  0  0  0  0  0  0  0  0
   36.3400   26.9080   39.8410 O   0  0  0  0  0  0  0  0  0  0  0  0
   35.1940   26.9180   37.9600 N   0  0  0  0  0  0  0  0  0  0  0  0
   34.8490   26.4500   37.0660 H   0  0  0  0  0  0  0  0  0  0  0  0
   36.3530   24.0300   40.9790 Cl  0  0  0  0  0  0  0  0  0  0  0  0
   36.6110   23.7850   39.2640 C   0  0  0  0  0  0  0  0  0  0  0  0
   36.4630   24.8280   38.3690 C   0  0  0  0  0  0  0  0  0  0  0  0
   36.6530   24.7050   37.0030 C   0  0  0  0  0  0  0  0  0  0  0  0
   36.5310   25.5380   36.3220 H   0  0  0  0  0  0  0  0  0  0  0  0
   37.0130   23.4610   36.4860 C   0  0  0  0  0  0  0  0  0  0  0  0
   37.1810   23.2710   35.4330 H   0  0  0  0  0  0  0  0  0  0  0  0
   37.1520   22.4420   37.4100 C   0  0  0  0  0  3  0  0  0  0  0  0
   36.9680   22.5440   38.7750 C   0  0  0  0  0  3  0  0  0  0  0  0
   38.7240   34.6030   40.2690 C   0  0  0  0  0  0  0  0  0  0  0  0
   39.8610   34.8910   39.5160 F   0  0  0  0  0  0  0  0  0  0  0  0
   38.9000   35.2860   41.4720 F   0  0  0  0  0  0  0  0  0  0  0  0
   37.6290   35.0150   39.5650 F   0  0  0  0  0  0  0  0  0  0  0  0
  1  6  1  0  0  0  0
  2  1  2  0  0  0  0
  2  3  1  0  0  0  0
  3  4  2  0  0  0  0
  4  5  1  0  0  0  0
  5 16  1  0  0  0  0
  6  5  2  0  0  0  0
  7  9  1  0  0  0  0
  8  7  2  0  0  0  0
  9  1  1  0  0  0  0
  9 17  1  0  0  0  0
 10 14  1  0  0  0  0
 10  7  1  0  0  0  0
 11 10  1  0  0  0  0
 12 11  1  0  0  0  0
 12 13  1  0  0  0  0
 13 23  1  0  0  0  0
 13 22  1  0  0  0  0
 13 14  1  0  0  0  0
 14 24  1  1  0  0  0
 15  2  1  0  0  0  0
 18 11  1  0  0  0  0
 19 11  1  0  0  0  0
 20 12  1  0  0  0  0
 21 12  1  0  0  0  0
 25 26  2  0  0  0  0
 27 14  1  0  0  0  0
 27 25  1  0  0  0  0
 28 27  1  0  0  0  0
 30 29  1  0  0  0  0
 31 25  1  0  0  0  0
 31 30  2  0  0  0  0
 32 31  1  0  0  0  0
 33 32  1  0  0  0  0
 34 32  2  0  0  0  0
 34 36  1  0  0  0  0
 35 34  1  0  0  0  0
 36 37  2  0  0  0  0
 37 30  1  0  0  0  0
 38  3  1  0  0  0  0
 38 40  1  0  0  0  0
 39 38  1  0  0  0  0
 41 38  1  0  0  0  0
M  END
>  <minimizedAffinity>
-5.92135048

$$$$

 OpenBabel03252503333D

 41 43  0  0  1  0  0  0  0  0999 V2000
   39.1610   26.8300   40.2420 C   0  0  0  0  0  0  0  0  0  0  0  0
   37.9700   26.0520   40.1450 C   0  0  0  0  0  0  0  0  0  0  0  0
   38.0070   24.7820   40.7470 C   0  0  0  0  0  0  0  0  0  0  0  0
   39.1540   24.4060   41.3610 N   0  0  0  0  0  0  0  0  0  0  0  0
   40.2500   25.1850   41.4220 C   0  0  0  0  0  0  0  0  0  0  0  0
   40.2490   26.4080   40.8550 N   0  0  0  0  0  0  0  0  0  0  0  0
   38.4840   29.0720   40.4230 C   0  0  0  0  0  0  0  0  0  0  0  0
   37.8800   28.6700   41.4740 O   0  0  0  0  0  0  0  0  0  0  0  0
   39.2020   28.1370   39.6520 N   0  0  0  0  0  0  0  0  0  0  0  0
   38.3890   30.4470   40.1030 N   0  0  0  0  0  0  0  0  0  0  0  0
   37.3740   31.2800   40.7820 C   0  0  0  0  0  0  0  0  0  0  0  0
   37.0570   32.3060   39.7420 C   0  0  0  0  0  0  0  0  0  0  0  0
   37.9800   32.0340   38.5870 C   0  0  0  0  0  0  0  0  0  0  0  0
   39.1350   31.2850   39.2100 C   0  0  1  0  0  0  0  0  0  0  0  0
   37.1040   26.4510   39.6270 H   0  0  0  0  0  0  0  0  0  0  0  0
   41.1110   24.8050   41.9290 H   0  0  0  0  0  0  0  0  0  0  0  0
   39.6740   28.4360   38.7770 H   0  0  0  0  0  0  0  0  0  0  0  0
   36.4440   30.6920   40.9550 H   0  0  0  0  0  0  0  0  0  0  0  0
   37.7590   31.6970   41.7240 H   0  0  0  0  0  0  0  0  0  0  0  0
   35.9870   32.3280   39.4610 H   0  0  0  0  0  0  0  0  0  0  0  0
   37.3700   33.3020   40.1610 H   0  0  0  0  0  0  0  0  0  0  0  0
   37.4250   31.1700   38.0760 H   0  0  0  0  0  0  0  0  0  0  0  0
   38.0870   32.7290   37.8230 H   0  0  0  0  0  0  0  0  0  0  0  0
   39.5930   30.7770   38.3600 H   0  0  0  0  0  0  0  0  0  0  0  0
   41.4700   32.2730   39.7120 C   0  0  0  0  0  0  0  0  0  0  0  0
   41.7630   31.6040   38.6770 O   0  0  0  0  0  0  0  0  0  0  0  0
   40.0610   32.1110   39.9790 N   0  0  0  0  0  0  0  0  0  0  0  0
   39.6310   32.6290   40.8070 H   0  0  0  0  0  0  0  0  0  0  0  0
   41.0640   35.2860   39.4180 Cl  0  0  0  0  0  0  0  0  0  0  0  0
   42.0920   34.5180   40.6100 C   0  0  0  0  0  0  0  0  0  0  0  0
   42.2100   33.1420   40.6630 C   0  0  0  0  0  0  0  0  0  0  0  0
   43.0040   32.4690   41.5770 C   0  0  0  0  0  0  0  0  0  0  0  0
   43.0790   31.3900   41.5970 H   0  0  0  0  0  0  0  0  0  0  0  0
   43.7320   33.2130   42.5060 C   0  0  0  0  0  0  0  0  0  0  0  0
   44.3770   32.7740   43.2570 H   0  0  0  0  0  0  0  0  0  0  0  0
   43.5890   34.5850   42.4240 C   0  0  0  0  0  3  0  0  0  0  0  0
   42.8030   35.2740   41.5200 C   0  0  0  0  0  3  0  0  0  0  0  0
   36.7780   24.0090   40.6340 C   0  0  0  0  0  0  0  0  0  0  0  0
   37.1140   22.6710   40.4410 F   0  0  0  0  0  0  0  0  0  0  0  0
   36.1510   24.4030   39.4520 F   0  0  0  0  0  0  0  0  0  0  0  0
   35.9700   24.0940   41.7310 F   0  0  0  0  0  0  0  0  0  0  0  0
  1  6  1  0  0  0  0
  2  1  2  0  0  0  0
  2  3  1  0  0  0  0
  3  4  2  0  0  0  0
  4  5  1  0  0  0  0
  5 16  1  0  0  0  0
  6  5  2  0  0  0  0
  7  8  2  0  0  0  0
  9  1  1  0  0  0  0
  9  7  1  0  0  0  0
 10  7  1  0  0  0  0
 10 11  1  0  0  0  0
 11 18  1  0  0  0  0
 11 19  1  0  0  0  0
 12 21  1  0  0  0  0
 12 11  1  0  0  0  0
 13 14  1  0  0  0  0
 13 12  1  0  0  0  0
 14 24  1  6  0  0  0
 14 27  1  0  0  0  0
 14 10  1  0  0  0  0
 15  2  1  0  0  0  0
 17  9  1  0  0  0  0
 20 12  1  0  0  0  0
 22 13  1  0  0  0  0
 23 13  1  0  0  0  0
 25 27  1  0  0  0  0
 25 31  1  0  0  0  0
 26 25  2  0  0  0  0
 27 28  1  0  0  0  0
 29 30  1  0  0  0  0
 30 31  2  0  0  0  0
 30 37  1  0  0  0  0
 31 32  1  0  0  0  0
 32 33  1  0  0  0  0
 32 34  2  0  0  0  0
 34 35  1  0  0  0  0
 36 34  1  0  0  0  0
 37 36  2  0  0  0  0
 38  3  1  0  0  0  0
 38 41  1  0  0  0  0
 39 38  1  0  0  0  0
 40 38  1  0  0  0  0
M  END
>  <minimizedAffinity>
-5.88319445

$$$$

 OpenBabel03252503333D

 41 43  0  0  1  0  0  0  0  0999 V2000
   38.8660   30.1400   39.2730 C   0  0  0  0  0  0  0  0  0  0  0  0
   38.9800   31.4010   39.9290 C   0  0  0  0  0  0  0  0  0  0  0  0
   38.3500   32.4880   39.2980 C   0  0  0  0  0  0  0  0  0  0  0  0
   37.6960   32.2520   38.1350 N   0  0  0  0  0  0  0  0  0  0  0  0
   37.6220   31.0370   37.5620 C   0  0  0  0  0  0  0  0  0  0  0  0
   38.2150   29.9740   38.1400 N   0  0  0  0  0  0  0  0  0  0  0  0
   38.7530   28.5140   40.9650 C   0  0  0  0  0  0  0  0  0  0  0  0
   37.7110   29.1550   41.3320 O   0  0  0  0  0  0  0  0  0  0  0  0
   39.4830   28.9830   39.8550 N   0  0  0  0  0  0  0  0  0  0  0  0
   39.1050   27.3630   41.7080 N   0  0  0  0  0  0  0  0  0  0  0  0
   38.4730   27.1290   43.0230 C   0  0  0  0  0  0  0  0  0  0  0  0
   39.5420   26.3940   43.7650 C   0  0  0  0  0  0  0  0  0  0  0  0
   40.6650   26.1860   42.7870 C   0  0  0  0  0  0  0  0  0  0  0  0
   39.9950   26.2720   41.4350 C   0  0  1  0  0  0  0  0  0  0  0  0
   39.5300   31.4790   40.8610 H   0  0  0  0  0  0  0  0  0  0  0  0
   37.0830   30.9450   36.6430 H   0  0  0  0  0  0  0  0  0  0  0  0
   40.3500   28.4960   39.5590 H   0  0  0  0  0  0  0  0  0  0  0  0
   38.3130   28.0950   43.5530 H   0  0  0  0  0  0  0  0  0  0  0  0
   37.5290   26.5720   42.9240 H   0  0  0  0  0  0  0  0  0  0  0  0
   39.8540   26.8990   44.6990 H   0  0  0  0  0  0  0  0  0  0  0  0
   39.1370   25.3710   43.9930 H   0  0  0  0  0  0  0  0  0  0  0  0
   41.1730   27.2140   42.8310 H   0  0  0  0  0  0  0  0  0  0  0  0
   41.4410   25.5320   43.0070 H   0  0  0  0  0  0  0  0  0  0  0  0
   40.8200   26.4960   40.7590 H   0  0  0  0  0  0  0  0  0  0  0  0
   38.7630   24.7740   39.7270 C   0  0  0  0  0  0  0  0  0  0  0  0
   39.1790   25.6680   38.9330 O   0  0  0  0  0  0  0  0  0  0  0  0
   39.2180   25.0950   41.0580 N   0  0  0  0  0  0  0  0  0  0  0  0
   38.9790   24.4300   41.8580 H   0  0  0  0  0  0  0  0  0  0  0  0
   35.8800   25.1040   38.7740 Cl  0  0  0  0  0  0  0  0  0  0  0  0
   36.6400   23.5790   39.1800 C   0  0  0  0  0  0  0  0  0  0  0  0
   37.9550   23.5340   39.6040 C   0  0  0  0  0  0  0  0  0  0  0  0
   38.6180   22.3660   39.9420 C   0  0  0  0  0  0  0  0  0  0  0  0
   39.6490   22.3570   40.2710 H   0  0  0  0  0  0  0  0  0  0  0  0
   37.9290   21.1560   39.8530 C   0  0  0  0  0  0  0  0  0  0  0  0
   38.3650   20.1940   40.0950 H   0  0  0  0  0  0  0  0  0  0  0  0
   36.6170   21.2390   39.4260 C   0  0  0  0  0  3  0  0  0  0  0  0
   35.9390   22.3930   39.0850 C   0  0  0  0  0  3  0  0  0  0  0  0
   38.4810   33.7640   39.9870 C   0  0  0  0  0  0  0  0  0  0  0  0
   38.5370   33.5210   41.3580 F   0  0  0  0  0  0  0  0  0  0  0  0
   37.2910   34.4640   39.7880 F   0  0  0  0  0  0  0  0  0  0  0  0
   39.5930   34.4710   39.6320 F   0  0  0  0  0  0  0  0  0  0  0  0
  1  9  1  0  0  0  0
  1  2  1  0  0  0  0
  2 15  1  0  0  0  0
  3  2  2  0  0  0  0
  3 38  1  0  0  0  0
  4  3  1  0  0  0  0
  5  4  2  0  0  0  0
  5  6  1  0  0  0  0
  6  1  2  0  0  0  0
  7  8  2  0  0  0  0
  7 10  1  0  0  0  0
  9  7  1  0  0  0  0
 10 11  1  0  0  0  0
 11 18  1  0  0  0  0
 11 12  1  0  0  0  0
 12 21  1  0  0  0  0
 12 20  1  0  0  0  0
 13 22  1  0  0  0  0
 13 23  1  0  0  0  0
 13 12  1  0  0  0  0
 14 24  1  6  0  0  0
 14 10  1  0  0  0  0
 14 13  1  0  0  0  0
 16  5  1  0  0  0  0
 17  9  1  0  0  0  0
 19 11  1  0  0  0  0
 25 27  1  0  0  0  0
 26 25  2  0  0  0  0
 27 14  1  0  0  0  0
 27 28  1  0  0  0  0
 29 30  1  0  0  0  0
 30 31  1  0  0  0  0
 31 25  1  0  0  0  0
 31 32  2  0  0  0  0
 32 33  1  0  0  0  0
 34 32  1  0  0  0  0
 34 35  1  0  0  0  0
 36 34  2  0  0  0  0
 37 30  2  0  0  0  0
 37 36  1  0  0  0  0
 38 39  1  0  0  0  0
 40 38  1  0  0  0  0
 41 38  1  0  0  0  0
M  END
>  <minimizedAffinity>
-5.67332172

$$$$

 OpenBabel03252503333D

 41 43  0  0  1  0  0  0  0  0999 V2000
   36.9980   24.9570   39.1780 C   0  0  0  0  0  0  0  0  0  0  0  0
   37.1900   23.5890   39.5340 C   0  0  0  0  0  0  0  0  0  0  0  0
   37.5240   22.7150   38.4840 C   0  0  0  0  0  0  0  0  0  0  0  0
   37.6340   23.2350   37.2380 N   0  0  0  0  0  0  0  0  0  0  0  0
   37.4410   24.5380   36.9610 C   0  0  0  0  0  0  0  0  0  0  0  0
   37.1200   25.4030   37.9440 N   0  0  0  0  0  0  0  0  0  0  0  0
   37.7700   26.2350   40.9910 C   0  0  0  0  0  0  0  0  0  0  0  0
   38.8820   25.6510   40.7620 O   0  0  0  0  0  0  0  0  0  0  0  0
   36.6550   25.9090   40.1940 N   0  0  0  0  0  0  0  0  0  0  0  0
   37.7340   27.1790   42.0440 N   0  0  0  0  0  0  0  0  0  0  0  0
   38.8490   27.2260   43.0130 C   0  0  0  0  0  0  0  0  0  0  0  0
   38.1680   27.6880   44.2600 C   0  0  0  0  0  0  0  0  0  0  0  0
   36.7380   27.9570   43.8830 C   0  0  0  0  0  0  0  0  0  0  0  0
   36.7910   28.2010   42.3930 C   0  0  1  0  0  0  0  0  0  0  0  0
   37.0760   23.2770   40.5670 H   0  0  0  0  0  0  0  0  0  0  0  0
   37.5500   24.8600   35.9480 H   0  0  0  0  0  0  0  0  0  0  0  0
   35.7340   26.3480   40.3820 H   0  0  0  0  0  0  0  0  0  0  0  0
   39.2320   26.1990   43.2120 H   0  0  0  0  0  0  0  0  0  0  0  0
   39.6560   27.8890   42.6680 H   0  0  0  0  0  0  0  0  0  0  0  0
   38.2800   26.9850   45.1070 H   0  0  0  0  0  0  0  0  0  0  0  0
   38.6120   28.6880   44.5230 H   0  0  0  0  0  0  0  0  0  0  0  0
   36.3130   26.8910   43.9030 H   0  0  0  0  0  0  0  0  0  0  0  0
   36.1090   28.4720   44.5310 H   0  0  0  0  0  0  0  0  0  0  0  0
   35.7640   28.0230   42.0720 H   0  0  0  0  0  0  0  0  0  0  0  0
   37.3470   30.0370   40.6610 C   0  0  0  0  0  0  0  0  0  0  0  0
   36.8040   29.1980   39.8830 O   0  0  0  0  0  0  0  0  0  0  0  0
   37.3190   29.5050   42.0020 N   0  0  0  0  0  0  0  0  0  0  0  0
   37.7150   30.0950   42.7980 H   0  0  0  0  0  0  0  0  0  0  0  0
   40.2880   30.2740   41.4520 Cl  0  0  0  0  0  0  0  0  0  0  0  0
   39.2970   31.5850   40.8440 C   0  0  0  0  0  0  0  0  0  0  0  0
   37.9720   31.3760   40.5120 C   0  0  0  0  0  0  0  0  0  0  0  0
   37.1320   32.3660   40.0270 C   0  0  0  0  0  0  0  0  0  0  0  0
   36.0970   32.1770   39.7750 H   0  0  0  0  0  0  0  0  0  0  0  0
   37.6430   33.6530   39.8580 C   0  0  0  0  0  0  0  0  0  0  0  0
   37.0620   34.4880   39.4850 H   0  0  0  0  0  0  0  0  0  0  0  0
   38.9710   33.8240   40.1990 C   0  0  0  0  0  3  0  0  0  0  0  0
   39.8240   32.8510   40.6840 C   0  0  0  0  0  3  0  0  0  0  0  0
   37.7140   21.3250   38.8740 C   0  0  0  0  0  0  0  0  0  0  0  0
   36.4940   20.6620   38.7560 F   0  0  0  0  0  0  0  0  0  0  0  0
   38.0050   21.3160   40.2380 F   0  0  0  0  0  0  0  0  0  0  0  0
   38.6370   20.6610   38.1170 F   0  0  0  0  0  0  0  0  0  0  0  0
  1  2  1  0  0  0  0
  1  9  1  0  0  0  0
  2 15  1  0  0  0  0
  3 38  1  0  0  0  0
  3  2  2  0  0  0  0
  4  3  1  0  0  0  0
  5  4  2  0  0  0  0
  5  6  1  0  0  0  0
  6  1  2  0  0  0  0
  7 10  1  0  0  0  0
  8  7  2  0  0  0  0
  9 17  1  0  0  0  0
  9  7  1  0  0  0  0
 10 14  1  0  0  0  0
 10 11  1  0  0  0  0
 11 18  1  0  0  0  0
 11 12  1  0  0  0  0
 12 21  1  0  0  0  0
 12 20  1  0  0  0  0
 13 22  1  0  0  0  0
 13 12  1  0  0  0  0
 13 23  1  0  0  0  0
 14 24  1  6  0  0  0
 14 13  1  0  0  0  0
 16  5  1  0  0  0  0
 19 11  1  0  0  0  0
 25 27  1  0  0  0  0
 26 25  2  0  0  0  0
 27 14  1  0  0  0  0
 27 28  1  0  0  0  0
 30 29  1  0  0  0  0
 31 25  1  0  0  0  0
 31 30  2  0  0  0  0
 32 31  1  0  0  0  0
 33 32  1  0  0  0  0
 34 32  2  0  0  0  0
 34 36  1  0  0  0  0
 35 34  1  0  0  0  0
 36 37  2  0  0  0  0
 37 30  1  0  0  0  0
 38 40  1  0  0  0  0
 39 38  1  0  0  0  0
 41 38  1  0  0  0  0
M  END
>  <minimizedAffinity>
-5.664258

$$$$

 OpenBabel03252503333D

 41 43  0  0  1  0  0  0  0  0999 V2000
   35.7650   28.8210   38.3540 C   0  0  0  0  0  0  0  0  0  0  0  0
   34.9610   27.6820   38.0550 C   0  0  0  0  0  0  0  0  0  0  0  0
   34.6620   27.4710   36.6970 C   0  0  0  0  0  0  0  0  0  0  0  0
   35.1540   28.3560   35.7970 N   0  0  0  0  0  0  0  0  0  0  0  0
   35.9090   29.4160   36.1380 C   0  0  0  0  0  0  0  0  0  0  0  0
   36.2140   29.6470   37.4310 N   0  0  0  0  0  0  0  0  0  0  0  0
   37.1130   28.2290   40.1840 C   0  0  0  0  0  0  0  0  0  0  0  0
   37.5440   27.3140   39.4050 O   0  0  0  0  0  0  0  0  0  0  0  0
   36.1120   29.1030   39.7170 N   0  0  0  0  0  0  0  0  0  0  0  0
   37.6790   28.3020   41.4790 N   0  0  0  0  0  0  0  0  0  0  0  0
   38.4830   27.1690   41.9820 C   0  0  0  0  0  0  0  0  0  0  0  0
   38.2390   27.2340   43.4550 C   0  0  0  0  0  0  0  0  0  0  0  0
   37.3900   28.4530   43.6870 C   0  0  0  0  0  0  0  0  0  0  0  0
   37.6630   29.3250   42.4830 C   0  0  1  0  0  0  0  0  0  0  0  0
   34.6180   27.0360   38.8570 H   0  0  0  0  0  0  0  0  0  0  0  0
   36.2540   30.0620   35.3590 H   0  0  0  0  0  0  0  0  0  0  0  0
   35.7250   29.8340   40.3440 H   0  0  0  0  0  0  0  0  0  0  0  0
   38.0580   26.2030   41.6240 H   0  0  0  0  0  0  0  0  0  0  0  0
   39.5410   27.2660   41.6960 H   0  0  0  0  0  0  0  0  0  0  0  0
   37.8050   26.3040   43.8690 H   0  0  0  0  0  0  0  0  0  0  0  0
   39.2300   27.4510   43.9410 H   0  0  0  0  0  0  0  0  0  0  0  0
   36.3540   28.0410   43.4120 H   0  0  0  0  0  0  0  0  0  0  0  0
   37.2480   28.8220   44.6470 H   0  0  0  0  0  0  0  0  0  0  0  0
   36.8040   29.9960   42.4580 H   0  0  0  0  0  0  0  0  0  0  0  0
   39.3440   31.0940   41.6340 C   0  0  0  0  0  0  0  0  0  0  0  0
   38.3690   31.3780   40.8780 O   0  0  0  0  0  0  0  0  0  0  0  0
   38.9530   30.0090   42.5000 N   0  0  0  0  0  0  0  0  0  0  0  0
   39.6490   29.6530   43.2270 H   0  0  0  0  0  0  0  0  0  0  0  0
   40.3210   33.1910   39.6380 Cl  0  0  0  0  0  0  0  0  0  0  0  0
   41.2610   32.5500   40.9700 C   0  0  0  0  0  0  0  0  0  0  0  0
   40.7290   31.6010   41.8210 C   0  0  0  0  0  0  0  0  0  0  0  0
   41.4150   31.0510   42.8910 C   0  0  0  0  0  0  0  0  0  0  0  0
   40.9750   30.3080   43.5440 H   0  0  0  0  0  0  0  0  0  0  0  0
   42.7210   31.4740   43.1370 C   0  0  0  0  0  0  0  0  0  0  0  0
   43.3330   31.1010   43.9490 H   0  0  0  0  0  0  0  0  0  0  0  0
   43.2210   32.4240   42.2660 C   0  0  0  0  0  3  0  0  0  0  0  0
   42.5530   32.9840   41.1940 C   0  0  0  0  0  3  0  0  0  0  0  0
   33.8410   26.3010   36.4200 C   0  0  0  0  0  0  0  0  0  0  0  0
   32.5040   26.6930   36.4040 F   0  0  0  0  0  0  0  0  0  0  0  0
   33.9590   25.4460   37.5150 F   0  0  0  0  0  0  0  0  0  0  0  0
   34.1250   25.6990   35.2270 F   0  0  0  0  0  0  0  0  0  0  0  0
  1  9  1  0  0  0  0
  2  1  1  0  0  0  0
  2 15  1  0  0  0  0
  3  2  2  0  0  0  0
  4  5  2  0  0  0  0
  4  3  1  0  0  0  0
  5  6  1  0  0  0  0
  6  1  2  0  0  0  0
  7 10  1  0  0  0  0
  8  7  2  0  0  0  0
  9  7  1  0  0  0  0
  9 17  1  0  0  0  0
 10 11  1  0  0  0  0
 10 14  1  0  0  0  0
 11 12  1  0  0  0  0
 12 13  1  0  0  0  0
 12 20  1  0  0  0  0
 12 21  1  0  0  0  0
 13 23  1  0  0  0  0
 14 24  1  6  0  0  0
 14 27  1  0  0  0  0
 14 13  1  0  0  0  0
 16  5  1  0  0  0  0
 18 11  1  0  0  0  0
 19 11  1  0  0  0  0
 22 13  1  0  0  0  0
 25 31  1  0  0  0  0
 25 27  1  0  0  0  0
 26 25  2  0  0  0  0
 27 28  1  0  0  0  0
 29 30  1  0  0  0  0
 30 37  2  0  0  0  0
 30 31  1  0  0  0  0
 31 32  2  0  0  0  0
 32 34  1  0  0  0  0
 32 33  1  0  0  0  0
 34 35  1  0  0  0  0
 36 34  2  0  0  0  0
 37 36  1  0  0  0  0
 38  3  1  0  0  0  0
 38 40  1  0  0  0  0
 39 38  1  0  0  0  0
 41 38  1  0  0  0  0
M  END
>  <minimizedAffinity>
-5.65175676

$$$$
