
 OpenBabel03242520013D

 30 32  0  0  0  0  0  0  0  0999 V2000
   38.7420   29.9960   42.5720 Br  0  0  0  0  0  0  0  0  0  0  0  0
   37.6780   29.4440   41.0930 C   0  0  0  0  0  0  0  0  0  0  0  0
   37.5300   30.2240   39.9580 C   0  0  0  0  0  0  0  0  0  0  0  0
   36.7280   29.7300   38.9280 C   0  0  0  0  0  0  0  0  0  0  0  0
   36.0870   28.5110   39.0000 C   0  0  0  0  0  0  0  0  0  0  0  0
   36.2330   27.7240   40.1410 C   0  0  0  0  0  0  0  0  0  0  0  0
   37.0330   28.2360   41.1450 C   0  0  0  0  0  0  0  0  0  0  0  0
   36.6160   30.3430   38.0440 H   0  0  0  0  0  0  0  0  0  0  0  0
   35.4680   28.1420   38.1920 H   0  0  0  0  0  0  0  0  0  0  0  0
   35.7380   26.7760   40.2060 H   0  0  0  0  0  0  0  0  0  0  0  0
   38.2740   33.9210   40.2290 C   0  0  0  0  0  0  0  0  0  0  0  0
   37.5980   32.6960   40.2700 C   0  0  0  0  0  0  0  0  0  0  0  0
   38.2180   31.4950   39.9200 C   0  0  0  0  0  0  0  0  0  0  0  0
   39.5130   31.6070   39.5400 N   0  0  0  0  0  0  0  0  0  0  0  0
   40.1540   32.7940   39.5050 C   0  0  0  0  0  0  0  0  0  0  0  0
   39.5500   33.9400   39.8430 N   0  0  0  0  0  0  0  0  0  0  0  0
   37.7980   34.8490   40.4980 H   0  0  0  0  0  0  0  0  0  0  0  0
   36.5630   32.6900   40.5840 H   0  0  0  0  0  0  0  0  0  0  0  0
   41.1910   32.8090   39.1920 H   0  0  0  0  0  0  0  0  0  0  0  0
   37.1760   27.4080   42.3240 C   0  0  0  0  0  0  0  0  0  0  0  0
   36.3530   27.4990   43.2960 O   0  0  0  0  0  0  0  0  0  0  0  0
   36.6990   24.5550   41.3470 Cl  0  0  0  0  0  0  0  0  0  0  0  0
   38.1150   25.0760   42.2410 C   0  0  0  0  0  0  0  0  0  0  0  0
   38.1880   26.4000   42.6150 C   0  0  0  0  0  0  0  0  0  0  0  0
   39.2750   26.8880   43.3240 C   0  0  0  0  0  0  0  0  0  0  0  0
   39.3670   27.9370   43.6390 H   0  0  0  0  0  0  0  0  0  0  0  0
   40.3120   26.0860   43.6800 C   0  0  0  0  0  0  0  0  0  0  0  0
   41.1660   26.4490   44.2320 H   0  0  0  0  0  0  0  0  0  0  0  0
   40.2430   24.7490   43.3050 C   0  0  0  0  0  3  0  0  0  0  0  0
   39.1630   24.2460   42.5960 C   0  0  0  0  0  3  0  0  0  0  0  0
  2  7  1  0  0  0  0
  2  1  1  0  0  0  0
  3  2  2  0  0  0  0
  4  5  2  0  0  0  0
  4  3  1  0  0  0  0
  5  6  1  0  0  0  0
  6 10  1  0  0  0  0
  6  7  2  0  0  0  0
  7 20  1  0  0  0  0
  8  4  1  0  0  0  0
  9  5  1  0  0  0  0
 11 12  1  0  0  0  0
 11 17  1  0  0  0  0
 12 18  1  0  0  0  0
 13  3  1  0  0  0  0
 13 12  2  0  0  0  0
 14 13  1  0  0  0  0
 15 14  2  0  0  0  0
 15 16  1  0  0  0  0
 16 11  2  0  0  0  0
 19 15  1  0  0  0  0
 20 24  1  0  0  0  0
 20 21  2  0  0  0  0
 22 23  1  0  0  0  0
 23 30  2  0  0  0  0
 23 24  1  0  0  0  0
 24 25  2  0  0  0  0
 25 26  1  0  0  0  0
 25 27  1  0  0  0  0
 27 28  1  0  0  0  0
 29 27  2  0  0  0  0
 30 29  1  0  0  0  0
M  END
>  <minimizedAffinity>
-6.14163494

$$$$

 OpenBabel03242520013D

 30 32  0  0  0  0  0  0  0  0999 V2000
   36.4010   26.6610   38.4940 Br  0  0  0  0  0  0  0  0  0  0  0  0
   36.6720   26.8210   40.3720 C   0  0  0  0  0  0  0  0  0  0  0  0
   37.2180   25.7980   41.1290 C   0  0  0  0  0  0  0  0  0  0  0  0
   37.3750   26.0130   42.4990 C   0  0  0  0  0  0  0  0  0  0  0  0
   37.0100   27.1920   43.1160 C   0  0  0  0  0  0  0  0  0  0  0  0
   36.4600   28.2230   42.3580 C   0  0  0  0  0  0  0  0  0  0  0  0
   36.3160   27.9840   41.0040 C   0  0  0  0  0  0  0  0  0  0  0  0
   37.8020   25.2120   43.0860 H   0  0  0  0  0  0  0  0  0  0  0  0
   37.1390   27.3440   44.1800 H   0  0  0  0  0  0  0  0  0  0  0  0
   36.1740   29.1420   42.8290 H   0  0  0  0  0  0  0  0  0  0  0  0
   39.1990   23.1980   39.2300 C   0  0  0  0  0  0  0  0  0  0  0  0
   38.8520   24.3830   39.8890 C   0  0  0  0  0  0  0  0  0  0  0  0
   37.5870   24.5780   40.4460 C   0  0  0  0  0  0  0  0  0  0  0  0
   36.7290   23.5410   40.3000 N   0  0  0  0  0  0  0  0  0  0  0  0
   37.0750   22.4030   39.6620 C   0  0  0  0  0  0  0  0  0  0  0  0
   38.2920   22.2260   39.1320 N   0  0  0  0  0  0  0  0  0  0  0  0
   40.1750   23.0440   38.7990 H   0  0  0  0  0  0  0  0  0  0  0  0
   39.5960   25.1660   39.9640 H   0  0  0  0  0  0  0  0  0  0  0  0
   36.3370   21.6140   39.5830 H   0  0  0  0  0  0  0  0  0  0  0  0
   35.7430   29.0640   40.2280 C   0  0  0  0  0  0  0  0  0  0  0  0
   34.5140   29.0450   39.8810 O   0  0  0  0  0  0  0  0  0  0  0  0
   36.0980   29.3820   37.2120 Cl  0  0  0  0  0  0  0  0  0  0  0  0
   36.6170   30.5590   38.4030 C   0  0  0  0  0  0  0  0  0  0  0  0
   36.3870   30.2740   39.7320 C   0  0  0  0  0  0  0  0  0  0  0  0
   36.7680   31.1540   40.7330 C   0  0  0  0  0  0  0  0  0  0  0  0
   36.6010   30.9610   41.8020 H   0  0  0  0  0  0  0  0  0  0  0  0
   37.3820   32.3330   40.4500 C   0  0  0  0  0  0  0  0  0  0  0  0
   37.6850   33.0300   41.2160 H   0  0  0  0  0  0  0  0  0  0  0  0
   37.6160   32.6250   39.1110 C   0  0  0  0  0  3  0  0  0  0  0  0
   37.2410   31.7540   38.0990 C   0  0  0  0  0  3  0  0  0  0  0  0
  1  2  1  0  0  0  0
  2  7  2  0  0  0  0
  2  3  1  0  0  0  0
  3  4  2  0  0  0  0
  4  8  1  0  0  0  0
  4  5  1  0  0  0  0
  5  9  1  0  0  0  0
  6 10  1  0  0  0  0
  6  5  2  0  0  0  0
  7  6  1  0  0  0  0
 11 12  1  0  0  0  0
 12 18  1  0  0  0  0
 12 13  2  0  0  0  0
 13  3  1  0  0  0  0
 14 13  1  0  0  0  0
 15 14  2  0  0  0  0
 16 11  2  0  0  0  0
 16 15  1  0  0  0  0
 17 11  1  0  0  0  0
 19 15  1  0  0  0  0
 20  7  1  0  0  0  0
 21 20  2  0  0  0  0
 22 23  1  0  0  0  0
 23 24  1  0  0  0  0
 24 20  1  0  0  0  0
 24 25  2  0  0  0  0
 25 26  1  0  0  0  0
 27 25  1  0  0  0  0
 27 28  1  0  0  0  0
 29 27  2  0  0  0  0
 30 23  2  0  0  0  0
 30 29  1  0  0  0  0
M  END
>  <minimizedAffinity>
-5.80015421

$$$$

 OpenBabel03242520013D

 30 32  0  0  0  0  0  0  0  0999 V2000
   40.9660   30.2020   39.2650 Br  0  0  0  0  0  0  0  0  0  0  0  0
   39.5730   31.4670   39.5620 C   0  0  0  0  0  0  0  0  0  0  0  0
   39.7730   32.8300   39.4330 C   0  0  0  0  0  0  0  0  0  0  0  0
   38.6880   33.6750   39.6730 C   0  0  0  0  0  0  0  0  0  0  0  0
   37.4410   33.2050   40.0290 C   0  0  0  0  0  0  0  0  0  0  0  0
   37.2350   31.8320   40.1600 C   0  0  0  0  0  0  0  0  0  0  0  0
   38.3260   31.0190   39.9160 C   0  0  0  0  0  0  0  0  0  0  0  0
   38.8500   34.7390   39.5710 H   0  0  0  0  0  0  0  0  0  0  0  0
   36.6090   33.8720   40.2120 H   0  0  0  0  0  0  0  0  0  0  0  0
   36.2710   31.4590   40.4360 H   0  0  0  0  0  0  0  0  0  0  0  0
   43.3520   34.0340   39.6260 C   0  0  0  0  0  0  0  0  0  0  0  0
   42.0770   33.5950   40.0000 C   0  0  0  0  0  0  0  0  0  0  0  0
   41.0940   33.2840   39.0590 C   0  0  0  0  0  0  0  0  0  0  0  0
   41.4680   33.4400   37.7670 N   0  0  0  0  0  0  0  0  0  0  0  0
   42.7010   33.8640   37.4180 C   0  0  0  0  0  0  0  0  0  0  0  0
   43.6360   34.1590   38.3300 N   0  0  0  0  0  0  0  0  0  0  0  0
   44.1130   34.2750   40.3510 H   0  0  0  0  0  0  0  0  0  0  0  0
   41.8560   33.4970   41.0550 H   0  0  0  0  0  0  0  0  0  0  0  0
   42.9310   33.9650   36.3640 H   0  0  0  0  0  0  0  0  0  0  0  0
   38.0990   29.5960   40.0560 C   0  0  0  0  0  0  0  0  0  0  0  0
   38.0870   28.8280   39.0360 O   0  0  0  0  0  0  0  0  0  0  0  0
   35.2180   28.8790   40.7700 Cl  0  0  0  0  0  0  0  0  0  0  0  0
   36.6200   28.4260   41.7210 C   0  0  0  0  0  0  0  0  0  0  0  0
   37.8600   28.8240   41.2690 C   0  0  0  0  0  0  0  0  0  0  0  0
   39.0150   28.5050   41.9660 C   0  0  0  0  0  0  0  0  0  0  0  0
   40.0200   28.8050   41.6360 H   0  0  0  0  0  0  0  0  0  0  0  0
   38.9770   27.7890   43.1190 C   0  0  0  0  0  0  0  0  0  0  0  0
   39.8670   27.5320   43.6740 H   0  0  0  0  0  0  0  0  0  0  0  0
   37.7290   27.3850   43.5790 C   0  0  0  0  0  3  0  0  0  0  0  0
   36.5640   27.6970   42.8940 C   0  0  0  0  0  3  0  0  0  0  0  0
  1  2  1  0  0  0  0
  2  7  1  0  0  0  0
  3  2  2  0  0  0  0
  3  4  1  0  0  0  0
  4  5  2  0  0  0  0
  5  6  1  0  0  0  0
  5  9  1  0  0  0  0
  6 10  1  0  0  0  0
  7 20  1  0  0  0  0
  7  6  2  0  0  0  0
  8  4  1  0  0  0  0
 11 12  1  0  0  0  0
 11 17  1  0  0  0  0
 12 18  1  0  0  0  0
 13  3  1  0  0  0  0
 13 12  2  0  0  0  0
 14 13  1  0  0  0  0
 15 14  2  0  0  0  0
 15 16  1  0  0  0  0
 16 11  2  0  0  0  0
 19 15  1  0  0  0  0
 20 24  1  0  0  0  0
 21 20  2  0  0  0  0
 22 23  1  0  0  0  0
 23 30  1  0  0  0  0
 24 23  2  0  0  0  0
 24 25  1  0  0  0  0
 25 27  2  0  0  0  0
 26 25  1  0  0  0  0
 27 29  1  0  0  0  0
 27 28  1  0  0  0  0
 30 29  2  0  0  0  0
M  END
>  <minimizedAffinity>
-5.7049799

$$$$

 OpenBabel03242520013D

 30 32  0  0  0  0  0  0  0  0999 V2000
   36.6420   26.7100   39.4690 Br  0  0  0  0  0  0  0  0  0  0  0  0
   36.7100   28.5600   39.9150 C   0  0  0  0  0  0  0  0  0  0  0  0
   36.5700   29.5550   38.9630 C   0  0  0  0  0  0  0  0  0  0  0  0
   36.6350   30.8820   39.3910 C   0  0  0  0  0  0  0  0  0  0  0  0
   36.8300   31.2310   40.7110 C   0  0  0  0  0  0  0  0  0  0  0  0
   36.9710   30.2330   41.6730 C   0  0  0  0  0  0  0  0  0  0  0  0
   36.9030   28.9280   41.2220 C   0  0  0  0  0  0  0  0  0  0  0  0
   36.5250   31.6550   38.6430 H   0  0  0  0  0  0  0  0  0  0  0  0
   36.8780   32.2650   41.0270 H   0  0  0  0  0  0  0  0  0  0  0  0
   37.1240   30.4950   42.7000 H   0  0  0  0  0  0  0  0  0  0  0  0
   34.9120   28.6380   35.6910 C   0  0  0  0  0  0  0  0  0  0  0  0
   35.0970   29.0320   37.0210 C   0  0  0  0  0  0  0  0  0  0  0  0
   36.3670   29.1490   37.5900 C   0  0  0  0  0  0  0  0  0  0  0  0
   37.3960   28.8520   36.7620 N   0  0  0  0  0  0  0  0  0  0  0  0
   37.2050   28.4730   35.4800 C   0  0  0  0  0  0  0  0  0  0  0  0
   35.9830   28.3650   34.9440 N   0  0  0  0  0  0  0  0  0  0  0  0
   33.9340   28.5470   35.2490 H   0  0  0  0  0  0  0  0  0  0  0  0
   34.2220   29.2520   37.6180 H   0  0  0  0  0  0  0  0  0  0  0  0
   38.0760   28.2520   34.8750 H   0  0  0  0  0  0  0  0  0  0  0  0
   37.0510   27.9010   42.2310 C   0  0  0  0  0  0  0  0  0  0  0  0
   36.0460   27.4860   42.9010 O   0  0  0  0  0  0  0  0  0  0  0  0
   37.0160   24.8480   42.2450 Cl  0  0  0  0  0  0  0  0  0  0  0  0
   38.3940   25.8280   42.7070 C   0  0  0  0  0  0  0  0  0  0  0  0
   38.2580   27.1980   42.6490 C   0  0  0  0  0  0  0  0  0  0  0  0
   39.3020   28.0400   42.9980 C   0  0  0  0  0  0  0  0  0  0  0  0
   39.2300   29.1360   42.9640 H   0  0  0  0  0  0  0  0  0  0  0  0
   40.5020   27.5550   43.4110 C   0  0  0  0  0  0  0  0  0  0  0  0
   41.3260   28.1960   43.6870 H   0  0  0  0  0  0  0  0  0  0  0  0
   40.6450   26.1730   43.4720 C   0  0  0  0  0  3  0  0  0  0  0  0
   39.6100   25.3180   43.1260 C   0  0  0  0  0  3  0  0  0  0  0  0
  1  2  1  0  0  0  0
  2  7  1  0  0  0  0
  3  4  1  0  0  0  0
  3  2  2  0  0  0  0
  4  5  2  0  0  0  0
  5  9  1  0  0  0  0
  5  6  1  0  0  0  0
  6 10  1  0  0  0  0
  7  6  2  0  0  0  0
  7 20  1  0  0  0  0
  8  4  1  0  0  0  0
 11 12  1  0  0  0  0
 12 13  2  0  0  0  0
 12 18  1  0  0  0  0
 13  3  1  0  0  0  0
 14 13  1  0  0  0  0
 15 14  2  0  0  0  0
 16 15  1  0  0  0  0
 16 11  2  0  0  0  0
 17 11  1  0  0  0  0
 19 15  1  0  0  0  0
 20 24  1  0  0  0  0
 20 21  2  0  0  0  0
 22 23  1  0  0  0  0
 23 30  1  0  0  0  0
 24 23  2  0  0  0  0
 24 25  1  0  0  0  0
 25 27  2  0  0  0  0
 26 25  1  0  0  0  0
 27 29  1  0  0  0  0
 27 28  1  0  0  0  0
 30 29  2  0  0  0  0
M  END
>  <minimizedAffinity>
-5.64800358

$$$$

 OpenBabel03242520013D

 30 32  0  0  0  0  0  0  0  0999 V2000
   39.0900   27.3170   39.4270 Br  0  0  0  0  0  0  0  0  0  0  0  0
   38.2980   27.6450   41.1280 C   0  0  0  0  0  0  0  0  0  0  0  0
   37.6410   26.6550   41.8390 C   0  0  0  0  0  0  0  0  0  0  0  0
   37.0940   26.9960   43.0770 C   0  0  0  0  0  0  0  0  0  0  0  0
   37.1840   28.2660   43.6090 C   0  0  0  0  0  0  0  0  0  0  0  0
   37.8440   29.2640   42.8960 C   0  0  0  0  0  0  0  0  0  0  0  0
   38.3770   28.9000   41.6730 C   0  0  0  0  0  0  0  0  0  0  0  0
   36.5810   26.2200   43.6280 H   0  0  0  0  0  0  0  0  0  0  0  0
   36.7540   28.5150   44.5710 H   0  0  0  0  0  0  0  0  0  0  0  0
   37.9190   30.2530   43.3010 H   0  0  0  0  0  0  0  0  0  0  0  0
   36.4480   23.6600   39.8650 C   0  0  0  0  0  0  0  0  0  0  0  0
   36.5090   24.9380   40.4310 C   0  0  0  0  0  0  0  0  0  0  0  0
   37.5680   25.3370   41.2490 C   0  0  0  0  0  0  0  0  0  0  0  0
   38.5220   24.3980   41.4510 N   0  0  0  0  0  0  0  0  0  0  0  0
   38.4520   23.1680   40.9000 C   0  0  0  0  0  0  0  0  0  0  0  0
   37.4330   22.7960   40.1160 N   0  0  0  0  0  0  0  0  0  0  0  0
   35.6330   23.3490   39.2320 H   0  0  0  0  0  0  0  0  0  0  0  0
   35.7060   25.6320   40.2200 H   0  0  0  0  0  0  0  0  0  0  0  0
   39.2530   22.4680   41.1050 H   0  0  0  0  0  0  0  0  0  0  0  0
   39.0610   29.9470   40.9430 C   0  0  0  0  0  0  0  0  0  0  0  0
   40.2820   29.8160   40.5950 O   0  0  0  0  0  0  0  0  0  0  0  0
   36.7910   29.9750   38.9010 Cl  0  0  0  0  0  0  0  0  0  0  0  0
   37.5290   31.4100   39.5870 C   0  0  0  0  0  0  0  0  0  0  0  0
   38.5460   31.2370   40.5000 C   0  0  0  0  0  0  0  0  0  0  0  0
   39.1790   32.3220   41.0860 C   0  0  0  0  0  0  0  0  0  0  0  0
   39.9940   32.2220   41.8180 H   0  0  0  0  0  0  0  0  0  0  0  0
   38.8260   33.6000   40.7890 C   0  0  0  0  0  0  0  0  0  0  0  0
   39.3080   34.4560   41.2360 H   0  0  0  0  0  0  0  0  0  0  0  0
   37.8000   33.7790   39.8680 C   0  0  0  0  0  3  0  0  0  0  0  0
   37.1580   32.7050   39.2730 C   0  0  0  0  0  3  0  0  0  0  0  0
  1  2  1  0  0  0  0
  2  7  2  0  0  0  0
  2  3  1  0  0  0  0
  3  4  2  0  0  0  0
  4  5  1  0  0  0  0
  4  8  1  0  0  0  0
  5  9  1  0  0  0  0
  6 10  1  0  0  0  0
  6  5  2  0  0  0  0
  7  6  1  0  0  0  0
 11 16  2  0  0  0  0
 11 12  1  0  0  0  0
 12 13  2  0  0  0  0
 13 14  1  0  0  0  0
 13  3  1  0  0  0  0
 15 19  1  0  0  0  0
 15 14  2  0  0  0  0
 16 15  1  0  0  0  0
 17 11  1  0  0  0  0
 18 12  1  0  0  0  0
 20  7  1  0  0  0  0
 21 20  2  0  0  0  0
 22 23  1  0  0  0  0
 23 24  1  0  0  0  0
 24 20  1  0  0  0  0
 24 25  2  0  0  0  0
 25 26  1  0  0  0  0
 27 25  1  0  0  0  0
 27 28  1  0  0  0  0
 29 27  2  0  0  0  0
 30 23  2  0  0  0  0
 30 29  1  0  0  0  0
M  END
>  <minimizedAffinity>
-5.63548231

$$$$

 OpenBabel03242520013D

 30 32  0  0  0  0  0  0  0  0999 V2000
   36.2330   26.3930   38.0790 Br  0  0  0  0  0  0  0  0  0  0  0  0
   36.5310   26.7100   39.9330 C   0  0  0  0  0  0  0  0  0  0  0  0
   37.0580   25.7430   40.7720 C   0  0  0  0  0  0  0  0  0  0  0  0
   37.2370   26.0740   42.1160 C   0  0  0  0  0  0  0  0  0  0  0  0
   36.9130   27.3120   42.6300 C   0  0  0  0  0  0  0  0  0  0  0  0
   36.3820   28.2880   41.7890 C   0  0  0  0  0  0  0  0  0  0  0  0
   36.2150   27.9340   40.4630 C   0  0  0  0  0  0  0  0  0  0  0  0
   37.6490   25.3150   42.7670 H   0  0  0  0  0  0  0  0  0  0  0  0
   37.0580   27.5540   43.6750 H   0  0  0  0  0  0  0  0  0  0  0  0
   36.1270   29.2520   42.1790 H   0  0  0  0  0  0  0  0  0  0  0  0
   36.7690   22.2000   39.4850 C   0  0  0  0  0  0  0  0  0  0  0  0
   36.4410   23.4410   40.0430 C   0  0  0  0  0  0  0  0  0  0  0  0
   37.3850   24.4580   40.1970 C   0  0  0  0  0  0  0  0  0  0  0  0
   38.6320   24.1520   39.7680 N   0  0  0  0  0  0  0  0  0  0  0  0
   38.9370   22.9520   39.2310 C   0  0  0  0  0  0  0  0  0  0  0  0
   38.0230   21.9840   39.0880 N   0  0  0  0  0  0  0  0  0  0  0  0
   36.0430   21.4130   39.3650 H   0  0  0  0  0  0  0  0  0  0  0  0
   35.4200   23.6070   40.3620 H   0  0  0  0  0  0  0  0  0  0  0  0
   39.9560   22.7770   38.9090 H   0  0  0  0  0  0  0  0  0  0  0  0
   35.6630   28.9570   39.6000 C   0  0  0  0  0  0  0  0  0  0  0  0
   34.4000   29.0950   39.4660 O   0  0  0  0  0  0  0  0  0  0  0  0
   36.6220   31.5250   40.9450 Cl  0  0  0  0  0  0  0  0  0  0  0  0
   36.8560   31.1440   39.2500 C   0  0  0  0  0  0  0  0  0  0  0  0
   36.3650   29.9420   38.7860 C   0  0  0  0  0  0  0  0  0  0  0  0
   36.5100   29.5700   37.4590 C   0  0  0  0  0  0  0  0  0  0  0  0
   36.1320   28.6200   37.0540 H   0  0  0  0  0  0  0  0  0  0  0  0
   37.1400   30.3690   36.5590 C   0  0  0  0  0  0  0  0  0  0  0  0
   37.2620   30.0950   35.5220 H   0  0  0  0  0  0  0  0  0  0  0  0
   37.6370   31.5820   37.0210 C   0  0  0  0  0  3  0  0  0  0  0  0
   37.4990   31.9690   38.3450 C   0  0  0  0  0  3  0  0  0  0  0  0
  1  2  1  0  0  0  0
  2  7  2  0  0  0  0
  2  3  1  0  0  0  0
  3  4  2  0  0  0  0
  4  5  1  0  0  0  0
  4  8  1  0  0  0  0
  5  9  1  0  0  0  0
  6 10  1  0  0  0  0
  6  5  2  0  0  0  0
  7  6  1  0  0  0  0
 11 12  1  0  0  0  0
 12 13  2  0  0  0  0
 12 18  1  0  0  0  0
 13  3  1  0  0  0  0
 14 13  1  0  0  0  0
 15 14  2  0  0  0  0
 16 15  1  0  0  0  0
 16 11  2  0  0  0  0
 17 11  1  0  0  0  0
 19 15  1  0  0  0  0
 20  7  1  0  0  0  0
 21 20  2  0  0  0  0
 23 22  1  0  0  0  0
 24 23  1  0  0  0  0
 24 20  1  0  0  0  0
 25 24  2  0  0  0  0
 26 25  1  0  0  0  0
 27 29  2  0  0  0  0
 27 25  1  0  0  0  0
 28 27  1  0  0  0  0
 29 30  1  0  0  0  0
 30 23  2  0  0  0  0
M  END
>  <minimizedAffinity>
-5.57543039

$$$$

 OpenBabel03242520013D

 30 32  0  0  0  0  0  0  0  0999 V2000
   40.2040   29.8910   41.6920 Br  0  0  0  0  0  0  0  0  0  0  0  0
   38.4130   29.9990   41.0540 C   0  0  0  0  0  0  0  0  0  0  0  0
   37.9720   31.0500   40.2680 C   0  0  0  0  0  0  0  0  0  0  0  0
   36.6400   31.0380   39.8500 C   0  0  0  0  0  0  0  0  0  0  0  0
   35.7610   30.0300   40.1890 C   0  0  0  0  0  0  0  0  0  0  0  0
   36.2010   28.9710   40.9810 C   0  0  0  0  0  0  0  0  0  0  0  0
   37.5240   29.0080   41.3800 C   0  0  0  0  0  0  0  0  0  0  0  0
   36.3010   31.8610   39.2370 H   0  0  0  0  0  0  0  0  0  0  0  0
   34.7300   30.0350   39.8580 H   0  0  0  0  0  0  0  0  0  0  0  0
   35.5260   28.1850   41.2490 H   0  0  0  0  0  0  0  0  0  0  0  0
   40.6570   33.0320   38.4900 C   0  0  0  0  0  0  0  0  0  0  0  0
   39.7390   32.0220   38.8030 C   0  0  0  0  0  0  0  0  0  0  0  0
   38.9230   32.0870   39.9340 C   0  0  0  0  0  0  0  0  0  0  0  0
   39.0870   33.1930   40.6970 N   0  0  0  0  0  0  0  0  0  0  0  0
   39.9750   34.1600   40.3850 C   0  0  0  0  0  0  0  0  0  0  0  0
   40.7530   34.0880   39.2970 N   0  0  0  0  0  0  0  0  0  0  0  0
   41.2880   32.9850   37.6180 H   0  0  0  0  0  0  0  0  0  0  0  0
   39.6680   31.1690   38.1410 H   0  0  0  0  0  0  0  0  0  0  0  0
   40.0530   35.0180   41.0420 H   0  0  0  0  0  0  0  0  0  0  0  0
   37.9690   27.9020   42.2010 C   0  0  0  0  0  0  0  0  0  0  0  0
   38.3890   28.0930   43.3910 O   0  0  0  0  0  0  0  0  0  0  0  0
   40.2950   26.9010   40.4960 Cl  0  0  0  0  0  0  0  0  0  0  0  0
   39.0070   25.8850   41.1130 C   0  0  0  0  0  0  0  0  0  0  0  0
   38.0230   26.4830   41.8700 C   0  0  0  0  0  0  0  0  0  0  0  0
   36.9710   25.7470   42.3930 C   0  0  0  0  0  0  0  0  0  0  0  0
   36.1690   26.1890   43.0020 H   0  0  0  0  0  0  0  0  0  0  0  0
   36.8640   24.4080   42.1840 C   0  0  0  0  0  0  0  0  0  0  0  0
   36.0520   23.8200   42.5840 H   0  0  0  0  0  0  0  0  0  0  0  0
   37.8540   23.8010   41.4210 C   0  0  0  0  0  3  0  0  0  0  0  0
   38.9120   24.5230   40.8900 C   0  0  0  0  0  3  0  0  0  0  0  0
  2  7  1  0  0  0  0
  2  1  1  0  0  0  0
  3  2  2  0  0  0  0
  4  5  2  0  0  0  0
  4  3  1  0  0  0  0
  5  6  1  0  0  0  0
  6 10  1  0  0  0  0
  6  7  2  0  0  0  0
  7 20  1  0  0  0  0
  8  4  1  0  0  0  0
  9  5  1  0  0  0  0
 11 12  2  0  0  0  0
 11 16  1  0  0  0  0
 12 13  1  0  0  0  0
 13  3  1  0  0  0  0
 13 14  2  0  0  0  0
 15 14  1  0  0  0  0
 15 19  1  0  0  0  0
 16 15  2  0  0  0  0
 17 11  1  0  0  0  0
 18 12  1  0  0  0  0
 20 21  2  0  0  0  0
 22 23  1  0  0  0  0
 23 24  1  0  0  0  0
 24 20  1  0  0  0  0
 24 25  2  0  0  0  0
 25 26  1  0  0  0  0
 27 25  1  0  0  0  0
 27 28  1  0  0  0  0
 29 27  2  0  0  0  0
 30 23  2  0  0  0  0
 30 29  1  0  0  0  0
M  END
>  <minimizedAffinity>
-5.49256849

$$$$

 OpenBabel03242520013D

 30 32  0  0  0  0  0  0  0  0999 V2000
   39.3030   28.2620   39.6430 Br  0  0  0  0  0  0  0  0  0  0  0  0
   38.3380   27.9920   41.2620 C   0  0  0  0  0  0  0  0  0  0  0  0
   37.6100   26.8390   41.5040 C   0  0  0  0  0  0  0  0  0  0  0  0
   36.9360   26.7370   42.7220 C   0  0  0  0  0  0  0  0  0  0  0  0
   36.9700   27.7300   43.6800 C   0  0  0  0  0  0  0  0  0  0  0  0
   37.7020   28.8920   43.4390 C   0  0  0  0  0  0  0  0  0  0  0  0
   38.3590   28.9670   42.2250 C   0  0  0  0  0  0  0  0  0  0  0  0
   36.3690   25.8350   42.9060 H   0  0  0  0  0  0  0  0  0  0  0  0
   36.4420   27.6360   44.6200 H   0  0  0  0  0  0  0  0  0  0  0  0
   37.7340   29.6680   44.1760 H   0  0  0  0  0  0  0  0  0  0  0  0
   36.6050   24.7650   38.5070 C   0  0  0  0  0  0  0  0  0  0  0  0
   36.6060   25.7540   39.4970 C   0  0  0  0  0  0  0  0  0  0  0  0
   37.5980   25.8210   40.4770 C   0  0  0  0  0  0  0  0  0  0  0  0
   38.5500   24.8620   40.3970 N   0  0  0  0  0  0  0  0  0  0  0  0
   38.5380   23.9120   39.4380 C   0  0  0  0  0  0  0  0  0  0  0  0
   37.5820   23.8580   38.5020 N   0  0  0  0  0  0  0  0  0  0  0  0
   35.8410   24.7100   37.7490 H   0  0  0  0  0  0  0  0  0  0  0  0
   35.8090   26.4870   39.4920 H   0  0  0  0  0  0  0  0  0  0  0  0
   39.3330   23.1760   39.4340 H   0  0  0  0  0  0  0  0  0  0  0  0
   39.1150   30.1780   41.9890 C   0  0  0  0  0  0  0  0  0  0  0  0
   40.2580   30.3580   42.5300 O   0  0  0  0  0  0  0  0  0  0  0  0
   41.3160   32.1670   41.2650 Cl  0  0  0  0  0  0  0  0  0  0  0  0
   39.6430   32.3080   40.7590 C   0  0  0  0  0  0  0  0  0  0  0  0
   38.7630   31.3290   41.1650 C   0  0  0  0  0  0  0  0  0  0  0  0
   37.4250   31.3700   40.8060 C   0  0  0  0  0  0  0  0  0  0  0  0
   36.6950   30.6070   41.1120 H   0  0  0  0  0  0  0  0  0  0  0  0
   36.9230   32.3730   40.0390 C   0  0  0  0  0  0  0  0  0  0  0  0
   35.8840   32.4200   39.7490 H   0  0  0  0  0  0  0  0  0  0  0  0
   37.8070   33.3630   39.6260 C   0  0  0  0  0  3  0  0  0  0  0  0
   39.1470   33.3360   39.9780 C   0  0  0  0  0  3  0  0  0  0  0  0
  1  2  1  0  0  0  0
  2  3  2  0  0  0  0
  2  7  1  0  0  0  0
  3  4  1  0  0  0  0
  4  8  1  0  0  0  0
  4  5  2  0  0  0  0
  5  9  1  0  0  0  0
  6  5  1  0  0  0  0
  6 10  1  0  0  0  0
  7  6  2  0  0  0  0
 11 12  1  0  0  0  0
 12 13  2  0  0  0  0
 13  3  1  0  0  0  0
 14 13  1  0  0  0  0
 15 14  2  0  0  0  0
 16 11  2  0  0  0  0
 16 15  1  0  0  0  0
 17 11  1  0  0  0  0
 18 12  1  0  0  0  0
 19 15  1  0  0  0  0
 20  7  1  0  0  0  0
 20 21  2  0  0  0  0
 23 24  1  0  0  0  0
 23 22  1  0  0  0  0
 24 20  1  0  0  0  0
 25 26  1  0  0  0  0
 25 24  2  0  0  0  0
 27 25  1  0  0  0  0
 28 27  1  0  0  0  0
 29 30  1  0  0  0  0
 29 27  2  0  0  0  0
 30 23  2  0  0  0  0
M  END
>  <minimizedAffinity>
-5.4288888

$$$$

 OpenBabel03242520013D

 30 32  0  0  0  0  0  0  0  0999 V2000
   39.0310   27.1500   39.5190 Br  0  0  0  0  0  0  0  0  0  0  0  0
   38.1730   27.3600   41.2060 C   0  0  0  0  0  0  0  0  0  0  0  0
   37.4910   26.3240   41.8210 C   0  0  0  0  0  0  0  0  0  0  0  0
   36.8960   26.5790   43.0580 C   0  0  0  0  0  0  0  0  0  0  0  0
   36.9630   27.8080   43.6800 C   0  0  0  0  0  0  0  0  0  0  0  0
   37.6490   28.8530   43.0640 C   0  0  0  0  0  0  0  0  0  0  0  0
   38.2290   28.5740   41.8400 C   0  0  0  0  0  0  0  0  0  0  0  0
   36.3640   25.7670   43.5330 H   0  0  0  0  0  0  0  0  0  0  0  0
   36.4960   27.9900   44.6390 H   0  0  0  0  0  0  0  0  0  0  0  0
   37.7070   29.8110   43.5390 H   0  0  0  0  0  0  0  0  0  0  0  0
   36.3800   23.4750   39.5980 C   0  0  0  0  0  0  0  0  0  0  0  0
   36.4170   24.7110   40.2530 C   0  0  0  0  0  0  0  0  0  0  0  0
   37.4420   25.0500   41.1380 C   0  0  0  0  0  0  0  0  0  0  0  0
   38.3890   24.0980   41.3120 N   0  0  0  0  0  0  0  0  0  0  0  0
   38.3420   22.9100   40.6740 C   0  0  0  0  0  0  0  0  0  0  0  0
   37.3540   22.5950   39.8270 N   0  0  0  0  0  0  0  0  0  0  0  0
   35.5900   23.2100   38.9140 H   0  0  0  0  0  0  0  0  0  0  0  0
   35.6220   25.4190   40.0600 H   0  0  0  0  0  0  0  0  0  0  0  0
   39.1340   22.1950   40.8610 H   0  0  0  0  0  0  0  0  0  0  0  0
   38.9390   29.6680   41.2120 C   0  0  0  0  0  0  0  0  0  0  0  0
   40.0520   30.0850   41.6780 O   0  0  0  0  0  0  0  0  0  0  0  0
   36.1370   30.8750   41.1010 Cl  0  0  0  0  0  0  0  0  0  0  0  0
   37.3420   31.0450   39.8400 C   0  0  0  0  0  0  0  0  0  0  0  0
   38.5660   30.4410   40.0330 C   0  0  0  0  0  0  0  0  0  0  0  0
   39.5710   30.5300   39.0820 C   0  0  0  0  0  0  0  0  0  0  0  0
   40.5580   30.0620   39.2030 H   0  0  0  0  0  0  0  0  0  0  0  0
   39.3950   31.2150   37.9220 C   0  0  0  0  0  0  0  0  0  0  0  0
   40.1660   31.2940   37.1700 H   0  0  0  0  0  0  0  0  0  0  0  0
   38.1620   31.8250   37.7220 C   0  0  0  0  0  3  0  0  0  0  0  0
   37.1480   31.7450   38.6630 C   0  0  0  0  0  3  0  0  0  0  0  0
  1  2  1  0  0  0  0
  2  3  2  0  0  0  0
  2  7  1  0  0  0  0
  3  4  1  0  0  0  0
  4  8  1  0  0  0  0
  4  5  2  0  0  0  0
  5  9  1  0  0  0  0
  6 10  1  0  0  0  0
  6  5  1  0  0  0  0
  7  6  2  0  0  0  0
 11 16  2  0  0  0  0
 11 12  1  0  0  0  0
 12 13  2  0  0  0  0
 13 14  1  0  0  0  0
 13  3  1  0  0  0  0
 15 19  1  0  0  0  0
 15 14  2  0  0  0  0
 16 15  1  0  0  0  0
 17 11  1  0  0  0  0
 18 12  1  0  0  0  0
 20 21  2  0  0  0  0
 20  7  1  0  0  0  0
 23 24  1  0  0  0  0
 23 22  1  0  0  0  0
 24 20  1  0  0  0  0
 25 26  1  0  0  0  0
 25 24  2  0  0  0  0
 27 25  1  0  0  0  0
 28 27  1  0  0  0  0
 29 27  2  0  0  0  0
 29 30  1  0  0  0  0
 30 23  2  0  0  0  0
M  END
>  <minimizedAffinity>
-5.42050838

$$$$
