REMARK  Name = 
REMARK  4 active torsions:
REMARK  status: ('A' for Active; 'I' for Inactive)
REMARK    1  A    between atoms: C_1  and  O_12
REMARK    2  A    between atoms: C_2  and  C_7
REMARK    3  A    between atoms: O_12  and  C_13
REMARK    4  A    between atoms: C_13  and  C_22
REMARK                            x       y       z     vdW  Elec       q    Type
REMARK                         _______ _______ _______ _____ _____    ______ ____
ROOT
ATOM      1  C   UNL     1      46.084  34.158  41.016  0.00  0.00    +0.000 A 
ATOM      2  C   UNL     1      46.612  34.834  42.109  0.00  0.00    +0.000 A 
ATOM      3  C   UNL     1      47.937  35.283  41.983  0.00  0.00    +0.000 A 
ATOM      4  N   UNL     1      48.604  35.029  40.818  0.00  0.00    +0.000 NA
ATOM      5  C   UNL     1      48.047  34.376  39.805  0.00  0.00    +0.000 A 
ATOM      6  N   UNL     1      46.784  33.930  39.883  0.00  0.00    +0.000 NA
ATOM      7  H   UNL     1      48.363  35.815  42.833  0.00  0.00    +0.000 HD
ATOM      8  H   UNL     1      48.627  34.205  38.907  0.00  0.00    +0.000 HD
ENDROOT
BRANCH   2   9
ATOM      9  C   UNL     1      45.808  35.045  43.293  0.00  0.00    +0.000 A 
ATOM     10  C   UNL     1      45.054  36.181  43.499  0.00  0.00    +0.000 A 
ATOM     11  C   UNL     1      44.466  35.966  44.723  0.00  0.00    +0.000 A 
ATOM     12  N   UNL     1      44.838  34.767  45.239  0.00  0.00    +0.000 N 
ATOM     13  N   UNL     1      45.648  34.236  44.352  0.00  0.00    +0.000 NA
ATOM     14  H   UNL     1      44.931  37.059  42.862  0.00  0.00    +0.000 HD
ATOM     15  H   UNL     1      43.792  36.628  45.248  0.00  0.00    +0.000 HD
ATOM     16  H   UNL     1      44.592  34.290  46.127  0.00  0.00    +0.000 HD
ENDBRANCH   2   9
BRANCH   1  17
ATOM     17  O   UNL     1      44.778  33.699  41.100  0.00  0.00    +0.000 OA
BRANCH  17  18
ATOM     18  C   UNL     1      43.691  34.188  40.430  0.00  0.00    +0.000 C 
ATOM     19  O   UNL     1      43.257  35.397  40.413  0.00  0.00    +0.000 OA
BRANCH  18  22
ATOM     20 CL   UNL     1      44.480  33.873  37.516  0.00  0.00    +0.000 Cl
ATOM     21  C   UNL     1      43.054  33.096  38.224  0.00  0.00    +0.000 A 
ATOM     22  C   UNL     1      42.814  33.330  39.582  0.00  0.00    +0.000 A 
ATOM     23  C   UNL     1      41.688  32.682  40.028  0.00  0.00    +0.000 A 
ATOM     24  H   UNL     1      41.413  32.801  41.075  0.00  0.00    +0.000 HD
ATOM     25  C   UNL     1      40.877  31.896  39.263  0.00  0.00    +0.000 A 
ATOM     26  H   UNL     1      40.010  31.422  39.692  0.00  0.00    +0.000 HD
ATOM     27  C   UNL     1      41.198  31.727  37.938  0.00  0.00    +0.000 A 
ATOM     28  C   UNL     1      42.305  32.331  37.390  0.00  0.00    +0.000 A 
ENDBRANCH  18  22
ENDBRANCH  17  18
ENDBRANCH   1  17
TORSDOF 4
