
 OpenBabel03252508493D

 28 30  0  0  0  0  0  0  0  0999 V2000
   45.9120   34.2240   41.0570 C   0  0  0  0  0  0  0  0  0  0  0  0
   46.5220   34.6750   42.2210 C   0  0  0  0  0  0  0  0  0  0  0  0
   47.9000   34.9340   42.1420 C   0  0  0  0  0  0  0  0  0  0  0  0
   48.5350   34.7290   40.9490 N   0  0  0  0  0  0  0  0  0  0  0  0
   47.8990   34.2950   39.8680 C   0  0  0  0  0  0  0  0  0  0  0  0
   46.5830   34.0350   39.9000 N   0  0  0  0  0  0  0  0  0  0  0  0
   48.3910   35.2890   43.0470 H   0  0  0  0  0  0  0  0  0  0  0  0
   48.4570   34.1520   38.9510 H   0  0  0  0  0  0  0  0  0  0  0  0
   45.7450   34.8550   43.4280 C   0  0  0  0  0  0  0  0  0  0  0  0
   45.1550   36.0530   43.7720 C   0  0  0  0  0  0  0  0  0  0  0  0
   44.5330   35.7800   44.9670 C   0  0  0  0  0  0  0  0  0  0  0  0
   44.7300   34.4890   45.3360 N   0  0  0  0  0  0  0  0  0  0  0  0
   45.4650   33.9580   44.3860 N   0  0  0  0  0  0  0  0  0  0  0  0
   45.1610   37.0080   43.2430 H   0  0  0  0  0  0  0  0  0  0  0  0
   43.9530   36.4640   45.5710 H   0  0  0  0  0  0  0  0  0  0  0  0
   44.4120   33.9510   46.1640 H   0  0  0  0  0  0  0  0  0  0  0  0
   44.5520   33.9560   41.0940 O   0  0  0  0  0  0  0  0  0  0  0  0
   43.5390   34.8010   40.7310 C   0  0  0  0  0  0  0  0  0  0  0  0
   43.3430   36.0080   41.1250 O   0  0  0  0  0  0  0  0  0  0  0  0
   43.1070   31.8280   40.3030 Cl  0  0  0  0  0  0  0  0  0  0  0  0
   42.1550   33.0740   39.4800 C   0  0  0  0  0  0  0  0  0  0  0  0
   42.4640   34.4060   39.7750 C   0  0  0  0  0  0  0  0  0  0  0  0
   41.6680   35.2870   39.0850 C   0  0  0  0  0  0  0  0  0  0  0  0
   41.8310   36.3520   39.2450 H   0  0  0  0  0  0  0  0  0  0  0  0
   40.6840   34.9400   38.2090 C   0  0  0  0  0  0  0  0  0  0  0  0
   40.1050   35.6960   37.7070 H   0  0  0  0  0  0  0  0  0  0  0  0
   40.4560   33.6030   37.9850 C   0  0  0  0  0  3  0  0  0  0  0  0
   41.1960   32.6360   38.6240 C   0  0  0  0  0  3  0  0  0  0  0  0
  1 17  1  0  0  0  0
  1  2  1  0  0  0  0
  2  9  1  0  0  0  0
  3  2  2  0  0  0  0
  3  7  1  0  0  0  0
  4  3  1  0  0  0  0
  5  6  1  0  0  0  0
  5  4  2  0  0  0  0
  6  1  2  0  0  0  0
  8  5  1  0  0  0  0
  9 10  1  0  0  0  0
  9 13  2  0  0  0  0
 10 11  2  0  0  0  0
 11 12  1  0  0  0  0
 11 15  1  0  0  0  0
 12 16  1  0  0  0  0
 13 12  1  0  0  0  0
 14 10  1  0  0  0  0
 18 17  1  0  0  0  0
 18 19  2  0  0  0  0
 21 22  1  0  0  0  0
 21 20  1  0  0  0  0
 22 18  1  0  0  0  0
 23 24  1  0  0  0  0
 23 22  2  0  0  0  0
 25 23  1  0  0  0  0
 26 25  1  0  0  0  0
 27 25  2  0  0  0  0
 27 28  1  0  0  0  0
 28 21  2  0  0  0  0
M  END
>  <minimizedAffinity>
-5.61143303

>  <minimizedRMSD>
0.993460953

$$$$
