
 OpenBabel03252508023D

 42 45  0  0  1  0  0  0  0  0999 V2000
   42.0810   33.2660   41.1710 C   0  0  0  0  0  0  0  0  0  0  0  0
   42.8240   34.4020   41.3290 C   0  0  0  0  0  0  0  0  0  0  0  0
   42.1530   35.6400   41.2530 C   0  0  0  0  0  0  0  0  0  0  0  0
   40.8010   35.7560   41.0290 C   0  0  0  0  0  0  0  0  0  0  0  0
   40.0650   34.6110   40.8730 C   0  0  0  0  0  0  0  0  0  0  0  0
   40.7090   33.4110   40.9470 C   0  0  0  0  0  0  0  0  0  0  0  0
   42.6550   36.5930   41.3570 H   0  0  0  0  0  0  0  0  0  0  0  0
   40.3020   36.7050   40.9730 H   0  0  0  0  0  0  0  0  0  0  0  0
   39.0000   34.6010   40.6950 H   0  0  0  0  0  0  0  0  0  0  0  0
   40.1130   32.4910   40.8200 H   0  0  0  0  0  0  0  0  0  0  0  0
   42.7380   31.7240   41.3330 S   0  0  0  0  0  0  0  0  0  0  0  0
   41.9910   30.9790   40.1810 O   0  0  0  0  0  0  0  0  0  0  0  0
   42.3550   31.0580   42.6010 O   0  0  0  0  0  0  0  0  0  0  0  0
   44.4150   30.1870   43.3610 Cl  0  0  0  0  0  0  0  0  0  0  0  0
   44.9160   30.3270   41.6630 C   0  0  0  0  0  0  0  0  0  0  0  0
   44.1600   31.0700   40.7100 C   0  0  0  0  0  0  0  0  0  0  0  0
   44.7710   31.0170   39.4650 C   0  0  0  0  0  0  0  0  0  0  0  0
   44.1380   31.5570   38.7350 H   0  0  0  0  0  0  0  0  0  0  0  0
   45.9180   30.4060   39.0200 C   0  0  0  0  0  0  0  0  0  0  0  0
   46.2030   30.5040   37.9920 H   0  0  0  0  0  0  0  0  0  0  0  0
   46.5030   29.7490   40.0650 C   0  0  0  0  0  3  0  0  0  0  0  0
   46.0800   29.6660   41.3600 C   0  0  0  0  0  3  0  0  0  0  0  0
   44.2540   34.3890   41.5700 C   0  0  0  0  0  0  0  0  0  0  0  0
   45.1330   34.3160   40.6610 O   0  0  0  0  0  0  0  0  0  0  0  0
   44.5930   34.4680   42.9710 C   0  0  0  0  0  0  0  0  0  0  0  0
   44.2990   35.7230   43.6090 C   0  0  0  0  0  0  0  0  0  0  0  0
   44.6130   35.8220   44.9540 C   0  0  0  0  0  0  0  0  0  0  0  0
   45.1690   34.7490   45.5720 N   0  0  0  0  0  0  0  0  0  0  0  0
   45.4300   33.5730   44.9150 C   0  0  0  0  0  0  0  0  0  0  0  0
   45.1400   33.4720   43.6630 N   0  0  0  0  0  0  0  0  0  0  0  0
   43.8720   36.5980   43.1990 H   0  0  0  0  0  0  0  0  0  0  0  0
   44.4310   36.7260   45.5290 H   0  0  0  0  0  0  0  0  0  0  0  0
   46.0270   32.4550   45.6720 C   0  0  1  0  0  0  0  0  0  0  0  0
   46.9720   32.7610   46.8110 C   0  0  0  0  0  0  0  0  0  0  0  0
   45.5580   32.3340   47.0730 C   0  0  1  0  0  0  0  0  0  0  0  0
   46.1630   31.5130   45.1170 H   0  0  0  0  0  0  0  0  0  0  0  0
   47.2900   33.8020   46.9330 H   0  0  0  0  0  0  0  0  0  0  0  0
   47.7290   31.9570   47.0010 H   0  0  0  0  0  0  0  0  0  0  0  0
   45.3470   31.3350   47.4770 H   0  0  0  0  0  0  0  0  0  0  0  0
   44.7640   33.3950   47.6710 N   0  0  0  0  0  0  0  0  0  0  0  0
   45.2140   33.8090   48.4970 H   0  0  0  0  0  0  0  0  0  0  0  0
   43.7640   33.1530   47.7620 H   0  0  0  0  0  0  0  0  0  0  0  0
  1  2  1  0  0  0  0
  1 11  1  0  0  0  0
  2 23  1  0  0  0  0
  3  2  2  0  0  0  0
  3  7  1  0  0  0  0
  4  3  1  0  0  0  0
  5  6  1  0  0  0  0
  5  4  2  0  0  0  0
  6  1  2  0  0  0  0
  8  4  1  0  0  0  0
  9  5  1  0  0  0  0
 10  6  1  0  0  0  0
 11 13  2  0  0  0  0
 12 11  2  0  0  0  0
 15 14  1  0  0  0  0
 16 11  1  0  0  0  0
 16 15  2  0  0  0  0
 17 16  1  0  0  0  0
 18 17  1  0  0  0  0
 19 17  2  0  0  0  0
 19 21  1  0  0  0  0
 20 19  1  0  0  0  0
 21 22  2  0  0  0  0
 22 15  1  0  0  0  0
 23 25  1  0  0  0  0
 24 23  2  0  0  0  0
 25 26  2  0  0  0  0
 25 30  1  0  0  0  0
 26 27  1  0  0  0  0
 27 32  1  0  0  0  0
 27 28  2  0  0  0  0
 29 28  1  0  0  0  0
 29 33  1  0  0  0  0
 30 29  2  0  0  0  0
 31 26  1  0  0  0  0
 33 36  1  6  0  0  0
 33 34  1  0  0  0  0
 33 35  1  0  0  0  0
 34 37  1  0  0  0  0
 34 38  1  0  0  0  0
 34 35  1  0  0  0  0
 35 39  1  1  0  0  0
 35 40  1  0  0  0  0
 40 42  1  0  0  0  0
 40 41  1  0  0  0  0
M  END
>  <minimizedAffinity>
-5.79870796

>  <minimizedRMSD>
0.953024924

$$$$
