REMARK  Name = 
REMARK  6 active torsions:
REMARK  status: ('A' for Active; 'I' for Inactive)
REMARK    1  A    between atoms: C_1  and  C_11
REMARK    2  A    between atoms: C_5  and  C_7
REMARK    3  A    between atoms: C_9  and  N_10
REMARK    4  A    between atoms: C_11  and  C_14
REMARK    5  A    between atoms: C_13  and  S_19
REMARK    6  A    between atoms: S_19  and  C_36
REMARK                            x       y       z     vdW  Elec       q    Type
REMARK                         _______ _______ _______ _____ _____    ______ ____
ROOT
ATOM      1  C   UNL     1      41.989  33.311  41.304  0.00  0.00    +0.000 A 
ATOM      2  C   UNL     1      42.814  34.401  41.307  0.00  0.00    +0.000 A 
ATOM      3  C   UNL     1      42.234  35.663  41.065  0.00  0.00    +0.000 A 
ATOM      4  C   UNL     1      40.892  35.847  40.829  0.00  0.00    +0.000 A 
ATOM      5  C   UNL     1      40.073  34.748  40.829  0.00  0.00    +0.000 A 
ATOM      6  C   UNL     1      40.629  33.525  41.063  0.00  0.00    +0.000 A 
ATOM      7  H   UNL     1      42.805  36.582  41.039  0.00  0.00    +0.000 HD
ATOM      8  H   UNL     1      40.462  36.813  40.646  0.00  0.00    +0.000 HD
ATOM      9  H   UNL     1      39.008  34.792  40.655  0.00  0.00    +0.000 HD
ATOM     10  H   UNL     1      39.967  32.642  41.062  0.00  0.00    +0.000 HD
ENDROOT
BRANCH   1  11
ATOM     11  S   UNL     1      42.535  31.761  41.671  0.00  0.00    +0.000 S 
ATOM     12  O   UNL     1      42.386  31.074  40.276  0.00  0.00    +0.000 OA
ATOM     13  O   UNL     1      41.643  31.037  42.609  0.00  0.00    +0.000 OA
BRANCH  11  16
ATOM     14 CL   UNL     1      42.668  28.720  41.821  0.00  0.00    +0.000 Cl
ATOM     15  C   UNL     1      44.143  29.709  41.750  0.00  0.00    +0.000 A 
ATOM     16  C   UNL     1      44.097  31.132  41.712  0.00  0.00    +0.000 A 
ATOM     17  C   UNL     1      45.383  31.654  41.658  0.00  0.00    +0.000 A 
ATOM     18  H   UNL     1      45.317  32.755  41.577  0.00  0.00    +0.000 HD
ATOM     19  C   UNL     1      46.623  31.063  41.638  0.00  0.00    +0.000 A 
ATOM     20  H   UNL     1      47.499  31.676  41.595  0.00  0.00    +0.000 HD
ATOM     21  C   UNL     1      46.467  29.706  41.681  0.00  0.00    +0.000 A 
ATOM     22  C   UNL     1      45.309  28.985  41.735  0.00  0.00    +0.000 A 
ENDBRANCH  11  16
ENDBRANCH   1  11
BRANCH   2  23
ATOM     23  C   UNL     1      44.242  34.315  41.546  0.00  0.00    +0.000 C 
ATOM     24  O   UNL     1      45.113  34.162  40.639  0.00  0.00    +0.000 OA
BRANCH  23  25
ATOM     25  C   UNL     1      44.590  34.422  42.943  0.00  0.00    +0.000 A 
ATOM     26  C   UNL     1      44.307  35.692  43.556  0.00  0.00    +0.000 A 
ATOM     27  C   UNL     1      44.629  35.818  44.896  0.00  0.00    +0.000 A 
ATOM     28  N   UNL     1      45.182  34.755  45.534  0.00  0.00    +0.000 NA
ATOM     29  C   UNL     1      45.432  33.564  44.901  0.00  0.00    +0.000 A 
ATOM     30  N   UNL     1      45.135  33.438  43.653  0.00  0.00    +0.000 NA
ATOM     31  H   UNL     1      43.883  36.561  43.129  0.00  0.00    +0.000 HD
ATOM     32  H   UNL     1      44.456  36.735  45.453  0.00  0.00    +0.000 HD
BRANCH  29  33
ATOM     33  C   UNL     1      46.027  32.459  45.679  0.00  0.00    +0.000 C 
ATOM     34  C   UNL     1      46.965  32.784  46.818  0.00  0.00    +0.000 C 
ATOM     35  C   UNL     1      45.551  32.359  47.079  0.00  0.00    +0.000 C 
ATOM     36  H   UNL     1      46.167  31.509  45.139  0.00  0.00    +0.000 HD
ATOM     37  H   UNL     1      47.281  33.827  46.925  0.00  0.00    +0.000 HD
ATOM     38  H   UNL     1      47.723  31.984  47.024  0.00  0.00    +0.000 HD
ATOM     39  H   UNL     1      45.339  31.366  47.497  0.00  0.00    +0.000 HD
BRANCH  35  40
ATOM     40  N   UNL     1      44.752  33.428  47.656  0.00  0.00    +0.000 NA
ATOM     41  H   UNL     1      45.197  33.855  48.478  0.00  0.00    +0.000 HD
ATOM     42  H   UNL     1      43.752  33.186  47.745  0.00  0.00    +0.000 HD
ENDBRANCH  35  40
ENDBRANCH  29  33
ENDBRANCH  23  25
ENDBRANCH   2  23
TORSDOF 6
