
 OpenBabel03252508023D

 42 45  0  0  1  0  0  0  0  0999 V2000
   42.0390   33.2720   41.1270 C   0  0  0  0  0  0  0  0  0  0  0  0
   42.7990   34.3940   41.3100 C   0  0  0  0  0  0  0  0  0  0  0  0
   42.1450   35.6420   41.2700 C   0  0  0  0  0  0  0  0  0  0  0  0
   40.7940   35.7830   41.0580 C   0  0  0  0  0  0  0  0  0  0  0  0
   40.0410   34.6520   40.8770 C   0  0  0  0  0  0  0  0  0  0  0  0
   40.6680   33.4420   40.9150 C   0  0  0  0  0  0  0  0  0  0  0  0
   42.6610   36.5850   41.3950 H   0  0  0  0  0  0  0  0  0  0  0  0
   40.3080   36.7390   41.0290 H   0  0  0  0  0  0  0  0  0  0  0  0
   38.9740   34.6610   40.7050 H   0  0  0  0  0  0  0  0  0  0  0  0
   40.0590   32.5330   40.7690 H   0  0  0  0  0  0  0  0  0  0  0  0
   42.6760   31.7180   41.2450 S   0  0  0  0  0  0  0  0  0  0  0  0
   41.5330   30.8950   40.5690 O   0  0  0  0  0  0  0  0  0  0  0  0
   42.7870   31.2390   42.6440 O   0  0  0  0  0  0  0  0  0  0  0  0
   43.1580   28.8110   42.0230 Cl  0  0  0  0  0  0  0  0  0  0  0  0
   43.9330   29.5280   40.5930 C   0  0  0  0  0  0  0  0  0  0  0  0
   43.7430   30.8930   40.2360 C   0  0  0  0  0  0  0  0  0  0  0  0
   44.4560   31.1920   39.0820 C   0  0  0  0  0  0  0  0  0  0  0  0
   44.2500   32.2420   38.7980 H   0  0  0  0  0  0  0  0  0  0  0  0
   45.2710   30.4370   38.2740 C   0  0  0  0  0  0  0  0  0  0  0  0
   45.7290   30.8880   37.4170 H   0  0  0  0  0  0  0  0  0  0  0  0
   45.3330   29.1670   38.7720 C   0  0  0  0  0  3  0  0  0  0  0  0
   44.7170   28.6570   39.8790 C   0  0  0  0  0  3  0  0  0  0  0  0
   44.2300   34.3540   41.5410 C   0  0  0  0  0  0  0  0  0  0  0  0
   45.1020   34.2520   40.6280 O   0  0  0  0  0  0  0  0  0  0  0  0
   44.5810   34.4430   42.9390 C   0  0  0  0  0  0  0  0  0  0  0  0
   44.3030   35.7060   43.5680 C   0  0  0  0  0  0  0  0  0  0  0  0
   44.6280   35.8150   44.9080 C   0  0  0  0  0  0  0  0  0  0  0  0
   45.1790   34.7430   45.5330 N   0  0  0  0  0  0  0  0  0  0  0  0
   45.4230   33.5590   44.8850 C   0  0  0  0  0  0  0  0  0  0  0  0
   45.1240   33.4490   43.6360 N   0  0  0  0  0  0  0  0  0  0  0  0
   43.8810   36.5820   43.1520 H   0  0  0  0  0  0  0  0  0  0  0  0
   44.4590   36.7260   45.4770 H   0  0  0  0  0  0  0  0  0  0  0  0
   46.0160   32.4420   45.6490 C   0  0  1  0  0  0  0  0  0  0  0  0
   46.9660   32.7500   46.7830 C   0  0  0  0  0  0  0  0  0  0  0  0
   45.5510   32.3340   47.0520 C   0  0  1  0  0  0  0  0  0  0  0  0
   46.1440   31.4960   45.1000 H   0  0  0  0  0  0  0  0  0  0  0  0
   47.2910   33.7900   46.8960 H   0  0  0  0  0  0  0  0  0  0  0  0
   47.7190   31.9430   46.9760 H   0  0  0  0  0  0  0  0  0  0  0  0
   45.3340   31.3390   47.4630 H   0  0  0  0  0  0  0  0  0  0  0  0
   44.7650   33.4040   47.6440 N   0  0  0  0  0  0  0  0  0  0  0  0
   45.2200   33.8210   48.4660 H   0  0  0  0  0  0  0  0  0  0  0  0
   43.7640   33.1690   47.7390 H   0  0  0  0  0  0  0  0  0  0  0  0
  1 11  1  0  0  0  0
  1  2  1  0  0  0  0
  2 23  1  0  0  0  0
  3  2  2  0  0  0  0
  3  7  1  0  0  0  0
  4  3  1  0  0  0  0
  5  6  1  0  0  0  0
  5  4  2  0  0  0  0
  6  1  2  0  0  0  0
  8  4  1  0  0  0  0
  9  5  1  0  0  0  0
 10  6  1  0  0  0  0
 11 13  2  0  0  0  0
 12 11  2  0  0  0  0
 15 14  1  0  0  0  0
 16 15  1  0  0  0  0
 16 11  1  0  0  0  0
 17 16  2  0  0  0  0
 18 17  1  0  0  0  0
 19 21  2  0  0  0  0
 19 17  1  0  0  0  0
 20 19  1  0  0  0  0
 21 22  1  0  0  0  0
 22 15  2  0  0  0  0
 23 25  1  0  0  0  0
 24 23  2  0  0  0  0
 25 26  2  0  0  0  0
 25 30  1  0  0  0  0
 26 27  1  0  0  0  0
 27 32  1  0  0  0  0
 27 28  2  0  0  0  0
 29 28  1  0  0  0  0
 29 33  1  0  0  0  0
 30 29  2  0  0  0  0
 31 26  1  0  0  0  0
 33 36  1  6  0  0  0
 33 34  1  0  0  0  0
 33 35  1  0  0  0  0
 34 37  1  0  0  0  0
 34 38  1  0  0  0  0
 34 35  1  0  0  0  0
 35 39  1  1  0  0  0
 35 40  1  0  0  0  0
 40 42  1  0  0  0  0
 40 41  1  0  0  0  0
M  END
>  <minimizedAffinity>
-5.72318363

>  <minimizedRMSD>
1.34763122

$$$$
