REMARK  Name = 
REMARK  6 active torsions:
REMARK  status: ('A' for Active; 'I' for Inactive)
REMARK    1  A    between atoms: O_1  and  C_4
REMARK    2  A    between atoms: O_1  and  P_9
REMARK    3  A    between atoms: P_9  and  O_10
REMARK    4  A    between atoms: P_9  and  O_11
REMARK    5  A    between atoms: O_10  and  C_21
REMARK    6  A    between atoms: O_11  and  C_12
REMARK                            x       y       z     vdW  Elec       q    Type
REMARK                         _______ _______ _______ _____ _____    ______ ____
ROOT
ATOM      1  O   UNL     1      47.967  32.882  41.609  0.00  0.00    +0.000 OA
ATOM      2  P   UNL     1      47.090  34.069  41.199  0.00  0.00    +0.000 P 
ENDROOT
BRANCH   2   3
ATOM      3  O   UNL     1      45.524  33.841  41.883  0.00  0.00    +0.000 OA
BRANCH   3   6
ATOM      4  C   UNL     1      44.413  35.904  44.696  0.00  0.00    +0.000 A 
ATOM      5  C   UNL     1      44.651  35.497  43.365  0.00  0.00    +0.000 A 
ATOM      6  C   UNL     1      45.280  34.261  43.179  0.00  0.00    +0.000 A 
ATOM      7  N   UNL     1      45.617  33.542  44.271  0.00  0.00    +0.000 NA
ATOM      8  C   UNL     1      45.376  33.958  45.528  0.00  0.00    +0.000 A 
ATOM      9  N   UNL     1      44.772  35.142  45.746  0.00  0.00    +0.000 NA
ATOM     10  H   UNL     1      43.922  36.865  44.896  0.00  0.00    +0.000 HD
ATOM     11  H   UNL     1      44.337  36.157  42.552  0.00  0.00    +0.000 HD
ATOM     12  H   UNL     1      45.729  33.224  46.243  0.00  0.00    +0.000 HD
ENDBRANCH   3   6
ENDBRANCH   2   3
BRANCH   2  13
ATOM     13  O   UNL     1      46.941  34.220  39.549  0.00  0.00    +0.000 OA
BRANCH  13  16
ATOM     14 CL   UNL     1      46.168  34.990  36.811  0.00  0.00    +0.000 Cl
ATOM     15  C   UNL     1      45.932  33.425  37.512  0.00  0.00    +0.000 A 
ATOM     16  C   UNL     1      46.342  33.196  38.811  0.00  0.00    +0.000 A 
ATOM     17  C   UNL     1      46.148  31.929  39.371  0.00  0.00    +0.000 A 
ATOM     18  H   UNL     1      46.470  31.734  40.404  0.00  0.00    +0.000 HD
ATOM     19  C   UNL     1      45.552  30.894  38.653  0.00  0.00    +0.000 A 
ATOM     20  H   UNL     1      45.447  29.936  39.186  0.00  0.00    +0.000 HD
ATOM     21  C   UNL     1      45.143  31.119  37.359  0.00  0.00    +0.000 A 
ATOM     22  C   UNL     1      45.353  32.375  36.852  0.00  0.00    +0.000 A 
ENDBRANCH  13  16
ENDBRANCH   2  13
BRANCH   2  23
ATOM     23  O   UNL     1      47.749  35.459  41.901  0.00  0.00    +0.000 OA
BRANCH  23  24
ATOM     24  C   UNL     1      49.005  35.757  41.409  0.00  0.00    +0.000 C 
ATOM     25  F   UNL     1      49.454  37.016  41.768  0.00  0.00    +0.000 F 
ATOM     26  F   UNL     1      49.894  34.752  41.758  0.00  0.00    +0.000 F 
ATOM     27  F   UNL     1      48.897  35.753  40.020  0.00  0.00    +0.000 F 
ENDBRANCH  23  24
ENDBRANCH   2  23
TORSDOF 6
