
     RDKit          3D

 29 30  0  0  0  0  0  0  0  0999 V2000
   45.5237   33.8411   41.8825 O   0  0  0  0  0  0  0  0  0  0  0  0
   44.4126   35.9041   44.6960 C   0  0  0  0  0  0  0  0  0  0  0  0
   44.6505   35.4974   43.3655 C   0  0  0  0  0  0  0  0  0  0  0  0
   45.2798   34.2612   43.1792 C   0  0  0  0  0  0  0  0  0  0  0  0
   45.6167   33.5419   44.2711 N   0  0  0  0  0  0  0  0  0  0  0  0
   45.3760   33.9576   45.5282 C   0  0  0  0  0  0  0  0  0  0  0  0
   44.7723   35.1417   45.7462 N   0  0  0  0  0  0  0  0  0  0  0  0
   47.9673   32.8815   41.6090 O   0  0  0  0  0  0  0  0  0  0  0  0
   47.0900   34.0689   41.1990 P   0  0  1  0  0  0  0  0  0  0  0  0
   46.9411   34.2202   39.5488 O   0  0  0  0  0  0  0  0  0  0  0  0
   47.7495   35.4585   41.9010 O   0  0  0  0  0  0  0  0  0  0  0  0
   49.0051   35.7574   41.4086 C   0  0  0  0  0  0  0  0  0  0  0  0
   49.4540   37.0157   41.7676 F   0  0  0  0  0  0  0  0  0  0  0  0
   49.8944   34.7520   41.7583 F   0  0  0  0  0  0  0  0  0  0  0  0
   48.8969   35.7527   40.0200 F   0  0  0  0  0  0  0  0  0  0  0  0
   43.9220   36.8651   44.8962 H   0  0  0  0  0  0  0  0  0  0  0  0
   44.3368   36.1574   42.5517 H   0  0  0  0  0  0  0  0  0  0  0  0
   45.7294   33.2237   46.2435 H   0  0  0  0  0  0  0  0  0  0  0  0
   45.5518   35.1313   37.1146 Cl  0  0  0  0  0  0  0  0  0  0  0  0
   45.6579   33.4885   37.6470 C   0  0  0  0  0  0  0  0  0  0  0  0
   46.3420   33.1964   38.8112 C   0  0  0  0  0  0  0  0  0  0  0  0
   46.4234   31.8656   39.2351 C   0  0  0  0  0  0  0  0  0  0  0  0
   46.9649   31.6202   40.1597 H   0  0  0  0  0  0  0  0  0  0  0  0
   45.8329   30.8291   38.5141 C   0  0  0  0  0  0  0  0  0  0  0  0
   45.9562   29.8187   38.9347 H   0  0  0  0  0  0  0  0  0  0  0  0
   45.1513   31.1171   37.3548 C   0  0  0  0  0  0  0  0  0  0  0  0
   45.0976   32.4338   36.9785 C   0  0  0  0  0  0  0  0  0  0  0  0
   44.7178   30.2910   36.8398 H   0  0  0  0  0  0  0  0  0  0  0  0
   44.5507   32.6497   36.0517 H   0  0  0  0  0  0  0  0  0  0  0  0
  1  4  1  0
  2  7  2  0
  3  2  1  0
  4  3  2  0
  4  5  1  0
  5  6  2  0
  6  7  1  0
  9  8  2  0
  9  1  1  1
  9 11  1  0
 10  9  1  0
 12 14  1  0
 12 13  1  0
 12 11  1  0
 15 12  1  0
  2 16  1  0
  3 17  1  0
  6 18  1  0
 19 20  1  0
 20 21  2  0
 21 22  1  0
 22 23  1  0
 22 24  2  0
 24 25  1  0
 24 26  1  0
 26 27  2  0
 27 20  1  0
 26 28  1  0
 27 29  1  0
 10 21  1  0
M  ISO  5  16  14  17  14  18  14  23  15  25  16
M  END
>  <DihAtoms>  (1) 
8,9,20,19

>  <DihDeg>  (1) 
179.99685216207408

$$$$
