
     RDKit          3D

 24 25  0  0  0  0  0  0  0  0999 V2000
   44.5366   35.9839   44.5202 C   0  0  0  0  0  0  0  0  0  0  0  0
   45.2114   35.8889   43.3216 C   0  0  0  0  0  0  0  0  0  0  0  0
   46.0996   34.8396   43.1869 C   0  0  0  0  0  0  0  0  0  0  0  0
   46.2878   33.9517   44.1970 N   0  0  0  0  0  0  0  0  0  0  0  0
   45.5883   34.0934   45.3720 C   0  0  0  0  0  0  0  0  0  0  0  0
   44.7346   35.0996   45.5057 N   0  0  0  0  0  0  0  0  0  0  0  0
   45.8551   33.0918   46.4193 C   0  0  0  0  0  0  0  0  0  0  0  0
   46.5097   31.6311   45.6221 S   0  0  0  0  0  0  0  0  0  0  0  0
   43.7985   36.7493   44.7979 H   0  0  0  0  0  0  0  0  0  0  0  0
   44.9802   36.6424   42.6072 H   0  0  0  0  0  0  0  0  0  0  0  0
   46.6267   34.7696   42.2450 H   0  0  0  0  0  0  0  0  0  0  0  0
   44.8841   32.8807   46.9489 H   0  0  0  0  0  0  0  0  0  0  0  0
   46.5768   33.4493   47.1830 H   0  0  0  0  0  0  0  0  0  0  0  0
   46.6460   31.1138   42.3779 Cl  0  0  0  0  0  0  0  0  0  0  0  0
   45.3309   30.4191   43.2739 C   0  0  0  0  0  0  0  0  0  0  0  0
   45.4096   30.7237   44.6105 C   0  0  0  0  0  0  0  0  0  0  0  0
   44.3743   30.2157   45.4152 C   0  0  0  0  0  0  0  0  0  0  0  0
   44.1888   30.3035   46.4958 H   0  0  0  0  0  0  0  0  0  0  0  0
   43.3394   29.4491   44.8638 C   0  0  0  0  0  0  0  0  0  0  0  0
   42.5040   29.0140   45.3798 H   0  0  0  0  0  0  0  0  0  0  0  0
   43.3225   29.1798   43.5098 C   0  0  0  0  0  0  0  0  0  0  0  0
   44.3290   29.6702   42.7066 C   0  0  0  0  0  0  0  0  0  0  0  0
   42.5561   28.5936   43.0056 H   0  0  0  0  0  0  0  0  0  0  0  0
   44.4318   29.5335   41.6458 H   0  0  0  0  0  0  0  0  0  0  0  0
  1  6  2  0
  2  1  1  0
  3  2  2  0
  3  4  1  0
  4  5  2  0
  5  6  1  0
  5  7  1  0
  8  7  1  0
  1  9  1  0
  2 10  1  0
  3 11  1  0
  7 12  1  0
  7 13  1  0
 14 15  1  0
 15 16  2  0
 16 17  1  0
 17 18  1  0
 17 19  2  0
 19 20  1  0
 19 21  1  0
 21 22  2  0
 22 15  1  0
 21 23  1  0
 22 24  1  0
  8 16  1  0
M  ISO  7   9  14  10  14  11  14  12   8  13   8  18  15  20  16
M  END
>  <DihAtoms>  (1) 
6,7,15,14

>  <DihDeg>  (1) 
-4.212454372194603

$$$$
