
 OpenBabel03242519373D

 27 28  0  0  0  0  0  0  0  0999 V2000
   48.3360   32.8090   41.3680 O   0  0  0  0  0  0  0  0  0  0  0  0
   47.2350   33.8700   41.2880 P   0  0  2  0  0  0  0  0  0  0  0  0
   45.8730   33.2990   42.1770 O   0  0  0  0  0  0  0  0  0  0  0  0
   44.4080   35.8540   44.3520 C   0  0  0  0  0  0  0  0  0  0  0  0
   44.8010   35.1870   43.1710 C   0  0  0  0  0  0  0  0  0  0  0  0
   45.4770   33.9710   43.3210 C   0  0  0  0  0  0  0  0  0  0  0  0
   45.7090   33.5160   44.5700 N   0  0  0  0  0  0  0  0  0  0  0  0
   45.3210   34.1760   45.6770 C   0  0  0  0  0  0  0  0  0  0  0  0
   44.6680   35.3490   45.5730 N   0  0  0  0  0  0  0  0  0  0  0  0
   43.8750   36.8110   44.2900 H   0  0  0  0  0  0  0  0  0  0  0  0
   44.5630   35.6450   42.2080 H   0  0  0  0  0  0  0  0  0  0  0  0
   45.6110   33.6270   46.5660 H   0  0  0  0  0  0  0  0  0  0  0  0
   46.7620   34.1900   39.7250 O   0  0  0  0  0  0  0  0  0  0  0  0
   48.4160   34.6120   37.3220 Cl  0  0  0  0  0  0  0  0  0  0  0  0
   47.4280   33.2240   37.6220 C   0  0  0  0  0  0  0  0  0  0  0  0
   46.6990   33.1510   38.7940 C   0  0  0  0  0  0  0  0  0  0  0  0
   45.9020   32.0260   39.0290 C   0  0  0  0  0  0  0  0  0  0  0  0
   45.3180   31.9560   39.9580 H   0  0  0  0  0  0  0  0  0  0  0  0
   45.8250   30.9780   38.1140 C   0  0  0  0  0  0  0  0  0  0  0  0
   45.1700   30.1390   38.3960 H   0  0  0  0  0  0  0  0  0  0  0  0
   46.5500   31.0470   36.9460 C   0  0  0  0  0  0  0  0  0  0  0  0
   47.3160   32.1680   36.7580 C   0  0  0  0  0  0  0  0  0  0  0  0
   47.8020   35.2580   42.0700 O   0  0  0  0  0  0  0  0  0  0  0  0
   49.0000   35.7080   41.5490 C   0  0  0  0  0  0  0  0  0  0  0  0
   49.2900   37.0190   41.8840 F   0  0  0  0  0  0  0  0  0  0  0  0
   50.0180   34.8300   41.8920 F   0  0  0  0  0  0  0  0  0  0  0  0
   48.8680   35.6700   40.1630 F   0  0  0  0  0  0  0  0  0  0  0  0
  2  1  2  6  0  0  0
  2 23  1  0  0  0  0
  2  3  1  0  0  0  0
  3  6  1  0  0  0  0
  4  9  1  0  0  0  0
  5  6  1  0  0  0  0
  5  4  2  0  0  0  0
  6  7  2  0  0  0  0
  7  8  1  0  0  0  0
  8 12  1  0  0  0  0
  9  8  2  0  0  0  0
 10  4  1  0  0  0  0
 11  5  1  0  0  0  0
 13  2  1  0  0  0  0
 14 15  1  0  0  0  0
 15 16  1  0  0  0  0
 16 17  2  0  0  0  0
 16 13  1  0  0  0  0
 17 18  1  0  0  0  0
 19 20  1  0  0  0  0
 19 17  1  0  0  0  0
 21 19  2  0  0  0  0
 22 21  1  0  0  0  0
 22 15  2  0  0  0  0
 24 25  1  0  0  0  0
 24 26  1  0  0  0  0
 24 23  1  0  0  0  0
 27 24  1  0  0  0  0
M  END
>  <minimizedAffinity>
-5.36662197

>  <minimizedRMSD>
0.650044858

$$$$
