
 OpenBabel03242520023D

 25 27  0  0  0  0  0  0  0  0999 V2000
   46.2460   32.5800   44.6560 C   0  0  0  0  0  0  0  0  0  0  0  0
   47.5190   32.0690   44.3710 C   0  0  0  0  0  0  0  0  0  0  0  0
   47.5750   30.7930   44.8340 C   0  0  0  0  0  0  0  0  0  0  0  0
   46.3820   30.5260   45.3860 N   0  0  0  0  0  0  0  0  0  0  0  0
   45.5790   31.6050   45.2780 N   0  0  0  0  0  0  0  0  0  0  0  0
   48.3540   32.5460   43.8760 H   0  0  0  0  0  0  0  0  0  0  0  0
   48.3390   30.0270   44.8380 H   0  0  0  0  0  0  0  0  0  0  0  0
   44.5630   35.8270   44.8850 C   0  0  0  0  0  0  0  0  0  0  0  0
   44.9260   36.4490   43.6750 C   0  0  0  0  0  0  0  0  0  0  0  0
   45.7630   35.7240   42.7800 C   0  0  0  0  0  0  0  0  0  0  0  0
   46.1610   34.4780   43.1450 N   0  0  0  0  0  0  0  0  0  0  0  0
   45.7900   33.9170   44.3180 C   0  0  0  0  0  0  0  0  0  0  0  0
   44.9950   34.5810   45.1900 N   0  0  0  0  0  0  0  0  0  0  0  0
   43.9340   36.3050   45.6170 H   0  0  0  0  0  0  0  0  0  0  0  0
   44.5710   37.4300   43.4630 H   0  0  0  0  0  0  0  0  0  0  0  0
   46.0500   36.1880   41.8470 H   0  0  0  0  0  0  0  0  0  0  0  0
   45.6160   28.2660   43.6030 Cl  0  0  0  0  0  0  0  0  0  0  0  0
   45.3860   28.2860   45.3350 C   0  0  0  0  0  0  0  0  0  0  0  0
   45.7900   29.4040   46.0340 C   0  0  0  0  0  0  0  0  0  0  0  0
   45.6590   29.5350   47.4050 C   0  0  0  0  0  0  0  0  0  0  0  0
   45.9760   30.4080   47.9420 H   0  0  0  0  0  0  0  0  0  0  0  0
   45.0890   28.4870   48.1370 C   0  0  0  0  0  0  0  0  0  0  0  0
   44.9530   28.5130   49.2100 H   0  0  0  0  0  0  0  0  0  0  0  0
   44.6940   27.3810   47.4070 C   0  0  0  0  0  3  0  0  0  0  0  0
   44.8230   27.2460   46.0360 C   0  0  0  0  0  3  0  0  0  0  0  0
  1  5  2  0  0  0  0
  2  1  1  0  0  0  0
  2  3  2  0  0  0  0
  3  7  1  0  0  0  0
  3  4  1  0  0  0  0
  4 19  1  0  0  0  0
  5  4  1  0  0  0  0
  6  2  1  0  0  0  0
  8 13  1  0  0  0  0
  8 14  1  0  0  0  0
  9  8  2  0  0  0  0
 10 11  2  0  0  0  0
 10  9  1  0  0  0  0
 11 12  1  0  0  0  0
 12  1  1  0  0  0  0
 12 13  2  0  0  0  0
 15  9  1  0  0  0  0
 16 10  1  0  0  0  0
 17 18  1  0  0  0  0
 18 19  2  0  0  0  0
 18 25  1  0  0  0  0
 19 20  1  0  0  0  0
 20 21  1  0  0  0  0
 20 22  2  0  0  0  0
 22 23  1  0  0  0  0
 24 22  1  0  0  0  0
 25 24  2  0  0  0  0
M  END
>  <minimizedAffinity>
-3.90884757

>  <minimizedRMSD>
4.00352383

$$$$
