
     RDKit          3D

 39 42  0  0  0  0  0  0  0  0999 V2000
   46.7516   32.5829   45.0660 C   0  0  2  0  0  0  0  0  0  0  0  0
   47.3725   31.4762   44.9394 N   0  0  0  0  0  0  0  0  0  0  0  0
   47.3849   30.2454   44.7018 C   0  0  0  0  0  0  0  0  0  0  0  0
   47.8541   30.1215   45.9870 N   0  0  0  0  0  0  0  0  0  0  0  0
   47.1041   30.8699   46.8681 C   0  0  0  0  0  0  0  0  0  0  0  0
   46.9737   30.3213   48.1766 C   0  0  0  0  0  0  0  0  0  0  0  0
   46.1921   30.9942   49.0329 C   0  0  0  0  0  0  0  0  0  0  0  0
   45.5315   32.1389   48.7386 C   0  0  0  0  0  0  0  0  0  0  0  0
   45.7510   32.5626   47.4253 C   0  0  0  0  0  0  0  0  0  0  0  0
   46.5041   32.0483   46.3742 C   0  0  0  0  0  0  0  0  0  0  0  0
   44.4092   35.4388   45.2447 C   0  0  0  0  0  0  0  0  0  0  0  0
   44.1762   35.5404   43.8562 C   0  0  0  0  0  0  0  0  0  0  0  0
   44.8148   34.6269   43.0409 C   0  0  0  0  0  0  0  0  0  0  0  0
   45.6100   33.7134   43.6445 N   0  0  0  0  0  0  0  0  0  0  0  0
   45.8249   33.6317   44.9933 C   0  0  0  0  0  0  0  0  0  0  0  0
   45.2048   34.5001   45.6666 N   0  0  0  0  0  0  0  0  0  0  0  0
   44.5244   34.7325   41.3158 S   0  0  0  0  0  0  0  0  0  0  0  0
   47.6404   33.3352   45.3992 H   0  0  0  0  0  0  0  0  0  0  0  0
   48.1873   31.7505   44.2370 H   0  0  0  0  0  0  0  0  0  0  0  0
   46.4244   29.7089   44.5474 H   0  0  0  0  0  0  0  0  0  0  0  0
   48.0724   29.6707   44.0016 H   0  0  0  0  0  0  0  0  0  0  0  0
   48.6942   29.5160   46.2650 H   0  0  0  0  0  0  0  0  0  0  0  0
   47.4661   29.4239   48.4856 H   0  0  0  0  0  0  0  0  0  0  0  0
   46.0980   30.5609   50.0458 H   0  0  0  0  0  0  0  0  0  0  0  0
   44.9303   32.6177   49.4591 H   0  0  0  0  0  0  0  0  0  0  0  0
   45.1642   33.4746   47.3376 H   0  0  0  0  0  0  0  0  0  0  0  0
   43.9392   36.1226   45.9381 H   0  0  0  0  0  0  0  0  0  0  0  0
   43.5113   36.3316   43.5419 H   0  0  0  0  0  0  0  0  0  0  0  0
   41.6246   35.2494   42.5860 Cl  0  0  0  0  0  0  0  0  0  0  0  0
   41.8549   33.9446   41.4599 C   0  0  0  0  0  0  0  0  0  0  0  0
   43.1025   33.7009   40.8960 C   0  0  0  0  0  0  0  0  0  0  0  0
   43.2424   32.6481   40.0007 C   0  0  0  0  0  0  0  0  0  0  0  0
   44.2263   32.4511   39.5523 H   0  0  0  0  0  0  0  0  0  0  0  0
   42.1711   31.8463   39.6646 C   0  0  0  0  0  0  0  0  0  0  0  0
   42.3215   31.0392   38.9657 H   0  0  0  0  0  0  0  0  0  0  0  0
   40.9448   32.1194   40.2459 C   0  0  0  0  0  0  0  0  0  0  0  0
   40.7709   33.1525   41.1351 C   0  0  0  0  0  0  0  0  0  0  0  0
   40.0807   31.5138   40.0081 H   0  0  0  0  0  0  0  0  0  0  0  0
   39.8115   33.3672   41.5908 H   0  0  0  0  0  0  0  0  0  0  0  0
  1 15  1  0
  1 10  1  0
  2  1  1  0
  3  2  1  0
  3  4  1  0
  4  5  1  0
  5  6  2  0
  6  7  1  0
  8  7  2  0
  9  8  1  0
 10  5  1  0
 10  9  2  0
 11 16  2  0
 12 11  1  0
 13 14  1  0
 13 12  2  0
 14 15  2  0
 15 16  1  0
 17 13  1  0
  1 18  1  1
  2 19  1  0
  3 20  1  0
  3 21  1  0
  4 22  1  0
  6 23  1  0
  7 24  1  0
  8 25  1  0
  9 26  1  0
 11 27  1  0
 12 28  1  0
 29 30  1  0
 30 31  2  0
 31 32  1  0
 32 33  1  0
 32 34  2  0
 34 35  1  0
 34 36  1  0
 36 37  2  0
 37 30  1  0
 36 38  1  0
 37 39  1  0
 17 31  1  0
M  ISO  8  18  13  19   5  20  13  21  13  23  14  24  14  25  14  26  14
M  ISO  4  27  14  28  14  33  15  35  16
M  END
>  <DihAtoms>  (1) 
12,16,30,29

>  <DihDeg>  (1) 
90.00231159521087

$$$$
