
 OpenBabel03252506163D

 39 41  0  0  0  0  0  0  0  0999 V2000
   40.6270   30.5540   40.0470 F   0  0  0  0  0  0  0  0  0  0  0  0
   39.5520   31.3150   40.0580 C   0  0  0  0  0  0  0  0  0  0  0  0
   39.7130   32.6640   39.8040 C   0  0  0  0  0  0  0  0  0  0  0  0
   38.6340   33.5740   39.7880 C   0  0  0  0  0  0  0  0  0  0  0  0
   37.3460   33.0910   40.0380 C   0  0  0  0  0  0  0  0  0  0  0  0
   37.2450   31.7460   40.2830 C   0  0  0  0  0  0  0  0  0  0  0  0
   38.2640   30.8610   40.3040 C   0  0  0  0  0  0  0  0  0  0  0  0
   38.8350   34.6340   39.5790 H   0  0  0  0  0  0  0  0  0  0  0  0
   36.5650   33.8290   40.0120 H   0  0  0  0  0  0  0  0  0  0  0  0
   36.1820   31.5120   40.4530 H   0  0  0  0  0  0  0  0  0  0  0  0
   42.5380   34.0860   37.9510 C   0  0  0  0  0  0  0  0  0  0  0  0
   43.4980   34.2690   38.9850 C   0  0  0  0  0  0  0  0  0  0  0  0
   43.1580   33.8960   40.3210 C   0  0  0  0  0  0  0  0  0  0  0  0
   41.9090   33.3790   40.5160 N   0  0  0  0  0  0  0  0  0  0  0  0
   41.0420   33.2240   39.5280 C   0  0  0  0  0  0  0  0  0  0  0  0
   41.3490   33.5730   38.2540 N   0  0  0  0  0  0  0  0  0  0  0  0
   44.4740   34.6710   38.8410 H   0  0  0  0  0  0  0  0  0  0  0  0
   43.8660   34.0250   41.1130 H   0  0  0  0  0  0  0  0  0  0  0  0
   42.9070   34.4650   36.6610 N   0  0  0  0  0  0  0  0  0  0  0  0
   43.1600   35.4940   36.5950 H   0  0  0  0  0  0  0  0  0  0  0  0
   42.9270   33.7950   35.8490 H   0  0  0  0  0  0  0  0  0  0  0  0
   38.0340   29.5410   40.5640 O   0  0  0  0  0  0  0  0  0  0  0  0
   38.3360   29.7610   43.1820 O   0  0  0  0  0  0  0  0  0  0  0  0
   38.0250   28.7920   42.0710 P   0  0  2  0  0  0  0  0  0  0  0  0
   39.1570   27.5230   42.0750 O   0  0  0  0  0  0  0  0  0  0  0  0
   39.7830   25.0960   43.5450 Cl  0  0  0  0  0  0  0  0  0  0  0  0
   40.7380   26.5610   43.4290 C   0  0  0  0  0  0  0  0  0  0  0  0
   40.3820   27.7040   42.7020 C   0  0  0  0  0  0  0  0  0  0  0  0
   41.2320   28.7890   42.6980 C   0  0  0  0  0  0  0  0  0  0  0  0
   40.8510   29.6090   42.1050 H   0  0  0  0  0  0  0  0  0  0  0  0
   42.4110   28.7280   43.4100 C   0  0  0  0  0  0  0  0  0  0  0  0
   43.0300   29.6180   43.3620 H   0  0  0  0  0  0  0  0  0  0  0  0
   42.7650   27.6060   44.1260 C   0  0  0  0  0  3  0  0  0  0  0  0
   41.9300   26.5220   44.1370 C   0  0  0  0  0  3  0  0  0  0  0  0
   36.5360   28.0480   42.4080 O   0  0  0  0  0  0  0  0  0  0  0  0
   36.6490   27.1880   43.5190 C   0  0  0  0  0  0  0  0  0  0  0  0
   35.4290   27.3060   44.1900 F   0  0  0  0  0  0  0  0  0  0  0  0
   36.7610   25.8790   43.1130 F   0  0  0  0  0  0  0  0  0  0  0  0
   37.7060   27.4780   44.3360 F   0  0  0  0  0  0  0  0  0  0  0  0
  1  2  1  0  0  0  0
  2  7  1  0  0  0  0
  3  2  2  0  0  0  0
  4  3  1  0  0  0  0
  4  5  2  0  0  0  0
  5  6  1  0  0  0  0
  6  7  2  0  0  0  0
  6 10  1  0  0  0  0
  7 22  1  0  0  0  0
  8  4  1  0  0  0  0
  9  5  1  0  0  0  0
 11 16  2  0  0  0  0
 11 12  1  0  0  0  0
 12 13  2  0  0  0  0
 13 14  1  0  0  0  0
 13 18  1  0  0  0  0
 15  3  1  0  0  0  0
 15 14  2  0  0  0  0
 16 15  1  0  0  0  0
 17 12  1  0  0  0  0
 19 11  1  0  0  0  0
 20 19  1  0  0  0  0
 21 19  1  0  0  0  0
 22 24  1  0  0  0  0
 24 25  1  0  0  0  0
 24 35  1  0  0  0  0
 24 23  2  1  0  0  0
 25 28  1  0  0  0  0
 27 26  1  0  0  0  0
 27 34  1  0  0  0  0
 28 27  2  0  0  0  0
 29 28  1  0  0  0  0
 29 31  2  0  0  0  0
 30 29  1  0  0  0  0
 31 33  1  0  0  0  0
 32 31  1  0  0  0  0
 33 34  2  0  0  0  0
 35 36  1  0  0  0  0
 36 37  1  0  0  0  0
 36 39  1  0  0  0  0
 38 36  1  0  0  0  0
M  END
>  <minimizedAffinity>
-6.93945026

$$$$

 OpenBabel03252506163D

 39 41  0  0  0  0  0  0  0  0999 V2000
   40.5590   31.1940   41.3280 F   0  0  0  0  0  0  0  0  0  0  0  0
   39.4730   31.7310   40.8110 C   0  0  0  0  0  0  0  0  0  0  0  0
   39.6280   32.7960   39.9430 C   0  0  0  0  0  0  0  0  0  0  0  0
   38.5370   33.4470   39.3290 C   0  0  0  0  0  0  0  0  0  0  0  0
   37.2440   32.9970   39.6090 C   0  0  0  0  0  0  0  0  0  0  0  0
   37.1480   31.9400   40.4750 C   0  0  0  0  0  0  0  0  0  0  0  0
   38.1790   31.3050   41.0720 C   0  0  0  0  0  0  0  0  0  0  0  0
   38.7340   34.2880   38.6490 H   0  0  0  0  0  0  0  0  0  0  0  0
   36.4540   33.5310   39.1120 H   0  0  0  0  0  0  0  0  0  0  0  0
   36.0820   31.6940   40.5930 H   0  0  0  0  0  0  0  0  0  0  0  0
   42.4380   34.0610   37.9580 C   0  0  0  0  0  0  0  0  0  0  0  0
   43.4330   34.2530   38.9570 C   0  0  0  0  0  0  0  0  0  0  0  0
   43.1210   33.9400   40.3160 C   0  0  0  0  0  0  0  0  0  0  0  0
   41.8650   33.4690   40.5650 N   0  0  0  0  0  0  0  0  0  0  0  0
   40.9640   33.3040   39.6090 C   0  0  0  0  0  0  0  0  0  0  0  0
   41.2440   33.5960   38.3140 N   0  0  0  0  0  0  0  0  0  0  0  0
   44.4150   34.6200   38.7710 H   0  0  0  0  0  0  0  0  0  0  0  0
   43.8550   34.0770   41.0820 H   0  0  0  0  0  0  0  0  0  0  0  0
   42.7800   34.3800   36.6450 N   0  0  0  0  0  0  0  0  0  0  0  0
   43.0610   35.3980   36.5320 H   0  0  0  0  0  0  0  0  0  0  0  0
   42.7570   33.6810   35.8590 H   0  0  0  0  0  0  0  0  0  0  0  0
   37.9540   30.2600   41.9210 O   0  0  0  0  0  0  0  0  0  0  0  0
   39.7500   28.3430   42.2320 O   0  0  0  0  0  0  0  0  0  0  0  0
   38.3820   28.6490   41.6820 P   0  0  2  0  0  0  0  0  0  0  0  0
   38.3340   28.2970   40.0180 O   0  0  0  0  0  0  0  0  0  0  0  0
   39.0820   29.8340   37.6680 Cl  0  0  0  0  0  0  0  0  0  0  0  0
   37.4790   29.3100   38.1480 C   0  0  0  0  0  0  0  0  0  0  0  0
   37.1790   28.5690   39.2970 C   0  0  0  0  0  0  0  0  0  0  0  0
   35.8690   28.2240   39.5510 C   0  0  0  0  0  0  0  0  0  0  0  0
   35.7620   27.6550   40.4640 H   0  0  0  0  0  0  0  0  0  0  0  0
   34.8820   28.6170   38.6720 C   0  0  0  0  0  0  0  0  0  0  0  0
   33.8760   28.3110   38.9360 H   0  0  0  0  0  0  0  0  0  0  0  0
   35.1730   29.3470   37.5400 C   0  0  0  0  0  3  0  0  0  0  0  0
   36.4700   29.6940   37.2770 C   0  0  0  0  0  3  0  0  0  0  0  0
   37.2680   27.5790   42.3850 O   0  0  0  0  0  0  0  0  0  0  0  0
   37.2440   27.7330   43.7860 C   0  0  0  0  0  0  0  0  0  0  0  0
   36.0340   27.1630   44.1900 F   0  0  0  0  0  0  0  0  0  0  0  0
   38.2510   27.0040   44.3740 F   0  0  0  0  0  0  0  0  0  0  0  0
   37.3530   29.0320   44.1990 F   0  0  0  0  0  0  0  0  0  0  0  0
  2  7  1  0  0  0  0
  2  1  1  0  0  0  0
  3  2  2  0  0  0  0
  4  5  2  0  0  0  0
  4  3  1  0  0  0  0
  5  6  1  0  0  0  0
  6 10  1  0  0  0  0
  6  7  2  0  0  0  0
  7 22  1  0  0  0  0
  8  4  1  0  0  0  0
  9  5  1  0  0  0  0
 11 16  2  0  0  0  0
 11 12  1  0  0  0  0
 12 13  2  0  0  0  0
 13 14  1  0  0  0  0
 13 18  1  0  0  0  0
 15  3  1  0  0  0  0
 15 14  2  0  0  0  0
 16 15  1  0  0  0  0
 17 12  1  0  0  0  0
 19 11  1  0  0  0  0
 20 19  1  0  0  0  0
 21 19  1  0  0  0  0
 24 22  1  0  0  0  0
 24 23  2  1  0  0  0
 24 35  1  0  0  0  0
 25 24  1  0  0  0  0
 26 27  1  0  0  0  0
 27 28  1  0  0  0  0
 28 29  2  0  0  0  0
 28 25  1  0  0  0  0
 29 30  1  0  0  0  0
 31 32  1  0  0  0  0
 31 29  1  0  0  0  0
 33 31  2  0  0  0  0
 34 33  1  0  0  0  0
 34 27  2  0  0  0  0
 35 36  1  0  0  0  0
 36 37  1  0  0  0  0
 36 39  1  0  0  0  0
 36 38  1  0  0  0  0
M  END
>  <minimizedAffinity>
-6.82041788

$$$$

 OpenBabel03252506163D

 39 41  0  0  0  0  0  0  0  0999 V2000
   41.5030   31.7680   40.5630 F   0  0  0  0  0  0  0  0  0  0  0  0
   40.7660   32.8570   40.4880 C   0  0  0  0  0  0  0  0  0  0  0  0
   41.3870   34.0330   40.1130 C   0  0  0  0  0  0  0  0  0  0  0  0
   40.6970   35.2590   39.9970 C   0  0  0  0  0  0  0  0  0  0  0  0
   39.3270   35.2860   40.2710 C   0  0  0  0  0  0  0  0  0  0  0  0
   38.7630   34.0920   40.6380 C   0  0  0  0  0  0  0  0  0  0  0  0
   39.4050   32.9100   40.7550 C   0  0  0  0  0  0  0  0  0  0  0  0
   41.2550   36.1560   39.6940 H   0  0  0  0  0  0  0  0  0  0  0  0
   38.8560   36.2460   40.1650 H   0  0  0  0  0  0  0  0  0  0  0  0
   37.6900   34.2640   40.8130 H   0  0  0  0  0  0  0  0  0  0  0  0
   44.5050   33.8820   38.1930 C   0  0  0  0  0  0  0  0  0  0  0  0
   45.4790   34.1110   39.2050 C   0  0  0  0  0  0  0  0  0  0  0  0
   45.0450   34.3150   40.5510 C   0  0  0  0  0  0  0  0  0  0  0  0
   43.6990   34.2760   40.7750 N   0  0  0  0  0  0  0  0  0  0  0  0
   42.8230   34.0610   39.8060 C   0  0  0  0  0  0  0  0  0  0  0  0
   43.2180   33.8650   38.5240 N   0  0  0  0  0  0  0  0  0  0  0  0
   46.5300   34.1420   39.0380 H   0  0  0  0  0  0  0  0  0  0  0  0
   45.7610   34.4880   41.3270 H   0  0  0  0  0  0  0  0  0  0  0  0
   44.9690   33.6890   36.8910 N   0  0  0  0  0  0  0  0  0  0  0  0
   45.5230   34.5190   36.5290 H   0  0  0  0  0  0  0  0  0  0  0  0
   44.7810   32.8130   36.3390 H   0  0  0  0  0  0  0  0  0  0  0  0
   38.7300   31.7850   41.1320 O   0  0  0  0  0  0  0  0  0  0  0  0
   36.6820   30.6000   39.9510 O   0  0  0  0  0  0  0  0  0  0  0  0
   38.1770   30.5520   40.1280 P   0  0  2  0  0  0  0  0  0  0  0  0
   38.6350   29.0490   40.7810 O   0  0  0  0  0  0  0  0  0  0  0  0
   37.0700   26.7190   40.0310 Cl  0  0  0  0  0  0  0  0  0  0  0  0
   37.2230   27.4480   41.6170 C   0  0  0  0  0  0  0  0  0  0  0  0
   37.9960   28.5760   41.9180 C   0  0  0  0  0  0  0  0  0  0  0  0
   38.0250   29.0440   43.2150 C   0  0  0  0  0  0  0  0  0  0  0  0
   38.6530   29.9170   43.3240 H   0  0  0  0  0  0  0  0  0  0  0  0
   37.2940   28.3940   44.1860 C   0  0  0  0  0  0  0  0  0  0  0  0
   37.3640   28.8170   45.1820 H   0  0  0  0  0  0  0  0  0  0  0  0
   36.5320   27.2830   43.8940 C   0  0  0  0  0  3  0  0  0  0  0  0
   36.4950   26.8100   42.6110 C   0  0  0  0  0  3  0  0  0  0  0  0
   38.9020   30.6000   38.5950 O   0  0  0  0  0  0  0  0  0  0  0  0
   38.1860   31.4530   37.7300 C   0  0  0  0  0  0  0  0  0  0  0  0
   39.1650   32.1110   36.9820 F   0  0  0  0  0  0  0  0  0  0  0  0
   37.4250   30.7240   36.8470 F   0  0  0  0  0  0  0  0  0  0  0  0
   37.3680   32.3350   38.3800 F   0  0  0  0  0  0  0  0  0  0  0  0
  2  1  1  0  0  0  0
  2  7  1  0  0  0  0
  3  2  2  0  0  0  0
  4  3  1  0  0  0  0
  4  5  2  0  0  0  0
  5  6  1  0  0  0  0
  6  7  2  0  0  0  0
  6 10  1  0  0  0  0
  7 22  1  0  0  0  0
  8  4  1  0  0  0  0
  9  5  1  0  0  0  0
 11 16  2  0  0  0  0
 11 12  1  0  0  0  0
 12 13  2  0  0  0  0
 13 14  1  0  0  0  0
 13 18  1  0  0  0  0
 15  3  1  0  0  0  0
 15 14  2  0  0  0  0
 16 15  1  0  0  0  0
 17 12  1  0  0  0  0
 19 11  1  0  0  0  0
 20 19  1  0  0  0  0
 21 19  1  0  0  0  0
 24 23  2  6  0  0  0
 24 25  1  0  0  0  0
 24 22  1  0  0  0  0
 25 28  1  0  0  0  0
 26 27  1  0  0  0  0
 27 28  2  0  0  0  0
 27 34  1  0  0  0  0
 28 29  1  0  0  0  0
 29 30  1  0  0  0  0
 29 31  2  0  0  0  0
 31 32  1  0  0  0  0
 33 31  1  0  0  0  0
 34 33  2  0  0  0  0
 35 24  1  0  0  0  0
 36 39  1  0  0  0  0
 36 35  1  0  0  0  0
 37 36  1  0  0  0  0
 38 36  1  0  0  0  0
M  END
>  <minimizedAffinity>
-6.71687269

$$$$

 OpenBabel03252506163D

 39 41  0  0  0  0  0  0  0  0999 V2000
   40.4070   31.5270   41.6190 F   0  0  0  0  0  0  0  0  0  0  0  0
   39.2160   31.4600   41.0600 C   0  0  0  0  0  0  0  0  0  0  0  0
   38.9590   32.2880   39.9840 C   0  0  0  0  0  0  0  0  0  0  0  0
   37.7220   32.3000   39.3060 C   0  0  0  0  0  0  0  0  0  0  0  0
   36.7110   31.4370   39.7400 C   0  0  0  0  0  0  0  0  0  0  0  0
   37.0200   30.6390   40.8100 C   0  0  0  0  0  0  0  0  0  0  0  0
   38.1960   30.6130   41.4710 C   0  0  0  0  0  0  0  0  0  0  0  0
   37.5870   32.9850   38.4570 H   0  0  0  0  0  0  0  0  0  0  0  0
   35.7920   31.4900   39.1860 H   0  0  0  0  0  0  0  0  0  0  0  0
   36.1400   30.0140   41.0320 H   0  0  0  0  0  0  0  0  0  0  0  0
   41.6650   33.6360   37.9100 C   0  0  0  0  0  0  0  0  0  0  0  0
   41.8980   34.8980   38.5250 C   0  0  0  0  0  0  0  0  0  0  0  0
   41.1130   35.2730   39.6580 C   0  0  0  0  0  0  0  0  0  0  0  0
   40.1750   34.3750   40.0800 N   0  0  0  0  0  0  0  0  0  0  0  0
   39.9870   33.2090   39.4820 C   0  0  0  0  0  0  0  0  0  0  0  0
   40.7230   32.8380   38.4060 N   0  0  0  0  0  0  0  0  0  0  0  0
   42.6280   35.6030   38.2020 H   0  0  0  0  0  0  0  0  0  0  0  0
   41.2730   36.2170   40.1350 H   0  0  0  0  0  0  0  0  0  0  0  0
   42.4500   33.3070   36.8060 N   0  0  0  0  0  0  0  0  0  0  0  0
   42.3440   34.0020   36.0090 H   0  0  0  0  0  0  0  0  0  0  0  0
   43.0740   32.4600   36.7750 H   0  0  0  0  0  0  0  0  0  0  0  0
   38.3820   29.7700   42.5290 O   0  0  0  0  0  0  0  0  0  0  0  0
   40.3720   28.0590   42.8560 O   0  0  0  0  0  0  0  0  0  0  0  0
   38.9210   28.1760   42.4710 P   0  0  2  0  0  0  0  0  0  0  0  0
   38.6850   27.5600   40.9030 O   0  0  0  0  0  0  0  0  0  0  0  0
   36.1420   27.4710   39.5010 Cl  0  0  0  0  0  0  0  0  0  0  0  0
   37.1070   26.1220   40.0670 C   0  0  0  0  0  0  0  0  0  0  0  0
   38.3300   26.2280   40.7410 C   0  0  0  0  0  0  0  0  0  0  0  0
   38.9850   25.0790   41.1300 C   0  0  0  0  0  0  0  0  0  0  0  0
   39.9150   25.2870   41.6400 H   0  0  0  0  0  0  0  0  0  0  0  0
   38.4230   23.8510   40.8500 C   0  0  0  0  0  0  0  0  0  0  0  0
   38.9920   22.9920   41.1860 H   0  0  0  0  0  0  0  0  0  0  0  0
   37.2190   23.7430   40.1880 C   0  0  0  0  0  3  0  0  0  0  0  0
   36.5600   24.8760   39.7960 C   0  0  0  0  0  3  0  0  0  0  0  0
   38.0140   27.1570   43.4800 O   0  0  0  0  0  0  0  0  0  0  0  0
   36.8030   27.7740   43.8550 C   0  0  0  0  0  0  0  0  0  0  0  0
   36.1560   28.0580   42.6490 F   0  0  0  0  0  0  0  0  0  0  0  0
   36.0010   26.8960   44.5450 F   0  0  0  0  0  0  0  0  0  0  0  0
   36.9690   28.8970   44.6160 F   0  0  0  0  0  0  0  0  0  0  0  0
  2  7  1  0  0  0  0
  2  1  1  0  0  0  0
  3  2  2  0  0  0  0
  4  5  2  0  0  0  0
  4  3  1  0  0  0  0
  5  6  1  0  0  0  0
  6 10  1  0  0  0  0
  6  7  2  0  0  0  0
  7 22  1  0  0  0  0
  8  4  1  0  0  0  0
  9  5  1  0  0  0  0
 11 16  2  0  0  0  0
 11 12  1  0  0  0  0
 12 13  2  0  0  0  0
 13 14  1  0  0  0  0
 13 18  1  0  0  0  0
 15  3  1  0  0  0  0
 15 14  2  0  0  0  0
 16 15  1  0  0  0  0
 17 12  1  0  0  0  0
 19 11  1  0  0  0  0
 20 19  1  0  0  0  0
 21 19  1  0  0  0  0
 24 22  1  0  0  0  0
 24 23  2  1  0  0  0
 24 35  1  0  0  0  0
 25 24  1  0  0  0  0
 26 27  1  0  0  0  0
 27 28  1  0  0  0  0
 28 25  1  0  0  0  0
 28 29  2  0  0  0  0
 29 30  1  0  0  0  0
 31 29  1  0  0  0  0
 31 32  1  0  0  0  0
 33 31  2  0  0  0  0
 34 27  2  0  0  0  0
 34 33  1  0  0  0  0
 35 36  1  0  0  0  0
 36 38  1  0  0  0  0
 36 39  1  0  0  0  0
 37 36  1  0  0  0  0
M  END
>  <minimizedAffinity>
-6.64597559

$$$$

 OpenBabel03252506163D

 39 41  0  0  0  0  0  0  0  0999 V2000
   40.2940   30.4200   39.2470 F   0  0  0  0  0  0  0  0  0  0  0  0
   39.3020   31.2330   39.5460 C   0  0  0  0  0  0  0  0  0  0  0  0
   39.5780   32.5830   39.6440 C   0  0  0  0  0  0  0  0  0  0  0  0
   38.5940   33.5450   39.9560 C   0  0  0  0  0  0  0  0  0  0  0  0
   37.2830   33.1150   40.1760 C   0  0  0  0  0  0  0  0  0  0  0  0
   37.0640   31.7660   40.0660 C   0  0  0  0  0  0  0  0  0  0  0  0
   37.9920   30.8320   39.7690 C   0  0  0  0  0  0  0  0  0  0  0  0
   38.8850   34.6030   40.0180 H   0  0  0  0  0  0  0  0  0  0  0  0
   36.5770   33.8920   40.4090 H   0  0  0  0  0  0  0  0  0  0  0  0
   35.9960   31.5800   40.2560 H   0  0  0  0  0  0  0  0  0  0  0  0
   42.4870   33.9940   37.9160 C   0  0  0  0  0  0  0  0  0  0  0  0
   43.4500   34.0410   38.9630 C   0  0  0  0  0  0  0  0  0  0  0  0
   43.0820   33.5810   40.2650 C   0  0  0  0  0  0  0  0  0  0  0  0
   41.8060   33.1190   40.4150 N   0  0  0  0  0  0  0  0  0  0  0  0
   40.9380   33.0900   39.4160 C   0  0  0  0  0  0  0  0  0  0  0  0
   41.2710   33.5230   38.1750 N   0  0  0  0  0  0  0  0  0  0  0  0
   44.4460   34.4000   38.8540 H   0  0  0  0  0  0  0  0  0  0  0  0
   43.7900   33.6070   41.0660 H   0  0  0  0  0  0  0  0  0  0  0  0
   42.8840   34.4540   36.6610 N   0  0  0  0  0  0  0  0  0  0  0  0
   43.1920   35.4700   36.6780 H   0  0  0  0  0  0  0  0  0  0  0  0
   42.8740   33.8510   35.7980 H   0  0  0  0  0  0  0  0  0  0  0  0
   37.6500   29.5130   39.6900 O   0  0  0  0  0  0  0  0  0  0  0  0
   39.2110   28.7280   41.6760 O   0  0  0  0  0  0  0  0  0  0  0  0
   38.1280   28.2790   40.7310 P   0  0  2  0  0  0  0  0  0  0  0  0
   38.6700   26.9510   39.8160 O   0  0  0  0  0  0  0  0  0  0  0  0
   36.3740   25.9550   38.3400 Cl  0  0  0  0  0  0  0  0  0  0  0  0
   37.2990   25.1290   39.5790 C   0  0  0  0  0  0  0  0  0  0  0  0
   38.4000   25.6630   40.2580 C   0  0  0  0  0  0  0  0  0  0  0  0
   39.0370   24.8980   41.2120 C   0  0  0  0  0  0  0  0  0  0  0  0
   39.8700   25.4150   41.6670 H   0  0  0  0  0  0  0  0  0  0  0  0
   38.5760   23.6270   41.4790 C   0  0  0  0  0  0  0  0  0  0  0  0
   39.1240   23.0840   42.2410 H   0  0  0  0  0  0  0  0  0  0  0  0
   37.4920   23.0970   40.8130 C   0  0  0  0  0  3  0  0  0  0  0  0
   36.8530   23.8460   39.8630 C   0  0  0  0  0  3  0  0  0  0  0  0
   36.8320   27.6750   41.6470 O   0  0  0  0  0  0  0  0  0  0  0  0
   37.0610   27.8720   43.0240 C   0  0  0  0  0  0  0  0  0  0  0  0
   35.9290   27.3490   43.6550 F   0  0  0  0  0  0  0  0  0  0  0  0
   38.1390   27.1330   43.4500 F   0  0  0  0  0  0  0  0  0  0  0  0
   37.2710   29.1790   43.3670 F   0  0  0  0  0  0  0  0  0  0  0  0
  1  2  1  0  0  0  0
  2  3  2  0  0  0  0
  2  7  1  0  0  0  0
  3  4  1  0  0  0  0
  4  8  1  0  0  0  0
  4  5  2  0  0  0  0
  5  9  1  0  0  0  0
  6  5  1  0  0  0  0
  6 10  1  0  0  0  0
  7  6  2  0  0  0  0
 11 16  2  0  0  0  0
 11 12  1  0  0  0  0
 12 13  2  0  0  0  0
 13 14  1  0  0  0  0
 13 18  1  0  0  0  0
 15  3  1  0  0  0  0
 15 14  2  0  0  0  0
 16 15  1  0  0  0  0
 17 12  1  0  0  0  0
 19 20  1  0  0  0  0
 19 11  1  0  0  0  0
 21 19  1  0  0  0  0
 22  7  1  0  0  0  0
 22 24  1  0  0  0  0
 24 35  1  0  0  0  0
 24 23  2  1  0  0  0
 25 28  1  0  0  0  0
 25 24  1  0  0  0  0
 26 27  1  0  0  0  0
 27 34  2  0  0  0  0
 27 28  1  0  0  0  0
 28 29  2  0  0  0  0
 29 31  1  0  0  0  0
 29 30  1  0  0  0  0
 31 32  1  0  0  0  0
 33 31  2  0  0  0  0
 34 33  1  0  0  0  0
 35 36  1  0  0  0  0
 36 39  1  0  0  0  0
 36 38  1  0  0  0  0
 36 37  1  0  0  0  0
M  END
>  <minimizedAffinity>
-6.50242233

$$$$

 OpenBabel03252506163D

 39 41  0  0  0  0  0  0  0  0999 V2000
   40.6610   30.0820   39.6200 F   0  0  0  0  0  0  0  0  0  0  0  0
   39.5260   30.7280   39.7900 C   0  0  0  0  0  0  0  0  0  0  0  0
   39.5540   32.1090   39.7470 C   0  0  0  0  0  0  0  0  0  0  0  0
   38.4010   32.9040   39.9130 C   0  0  0  0  0  0  0  0  0  0  0  0
   37.1740   32.2690   40.1300 C   0  0  0  0  0  0  0  0  0  0  0  0
   37.2030   30.8990   40.1630 C   0  0  0  0  0  0  0  0  0  0  0  0
   38.2960   30.1220   40.0070 C   0  0  0  0  0  0  0  0  0  0  0  0
   38.4970   33.9980   39.8660 H   0  0  0  0  0  0  0  0  0  0  0  0
   36.3320   32.9250   40.2490 H   0  0  0  0  0  0  0  0  0  0  0  0
   36.1760   30.5420   40.3330 H   0  0  0  0  0  0  0  0  0  0  0  0
   42.2390   33.8810   37.9890 C   0  0  0  0  0  0  0  0  0  0  0  0
   43.1410   34.1670   39.0530 C   0  0  0  0  0  0  0  0  0  0  0  0
   42.8100   33.7410   40.3760 C   0  0  0  0  0  0  0  0  0  0  0  0
   41.6270   33.0760   40.5290 N   0  0  0  0  0  0  0  0  0  0  0  0
   40.8140   32.8280   39.5150 C   0  0  0  0  0  0  0  0  0  0  0  0
   41.1130   33.2250   38.2530 N   0  0  0  0  0  0  0  0  0  0  0  0
   44.0640   34.6850   38.9410 H   0  0  0  0  0  0  0  0  0  0  0  0
   43.4730   33.9450   41.1890 H   0  0  0  0  0  0  0  0  0  0  0  0
   42.5970   34.3150   36.7130 N   0  0  0  0  0  0  0  0  0  0  0  0
   42.7260   35.3680   36.6620 H   0  0  0  0  0  0  0  0  0  0  0  0
   42.7220   33.6610   35.8980 H   0  0  0  0  0  0  0  0  0  0  0  0
   38.1970   28.7620   40.0630 O   0  0  0  0  0  0  0  0  0  0  0  0
   39.5670   28.4830   42.3090 O   0  0  0  0  0  0  0  0  0  0  0  0
   38.6740   27.7630   41.3320 P   0  0  2  0  0  0  0  0  0  0  0  0
   39.4810   26.4040   40.7020 O   0  0  0  0  0  0  0  0  0  0  0  0
   39.6470   24.2810   42.6790 Cl  0  0  0  0  0  0  0  0  0  0  0  0
   38.7830   24.2670   41.1540 C   0  0  0  0  0  0  0  0  0  0  0  0
   38.7410   25.3250   40.2380 C   0  0  0  0  0  0  0  0  0  0  0  0
   38.0190   25.1770   39.0730 C   0  0  0  0  0  0  0  0  0  0  0  0
   38.0610   26.0580   38.4480 H   0  0  0  0  0  0  0  0  0  0  0  0
   37.3570   23.9920   38.8330 C   0  0  0  0  0  0  0  0  0  0  0  0
   36.8110   23.9460   37.8970 H   0  0  0  0  0  0  0  0  0  0  0  0
   37.3960   22.9480   39.7310 C   0  0  0  0  0  3  0  0  0  0  0  0
   38.1090   23.0840   40.8910 C   0  0  0  0  0  3  0  0  0  0  0  0
   37.3490   27.1270   42.1810 O   0  0  0  0  0  0  0  0  0  0  0  0
   37.1070   27.8700   43.3550 C   0  0  0  0  0  0  0  0  0  0  0  0
   35.8480   27.4500   43.7920 F   0  0  0  0  0  0  0  0  0  0  0  0
   38.0080   27.5350   44.3380 F   0  0  0  0  0  0  0  0  0  0  0  0
   37.1520   29.2230   43.1700 F   0  0  0  0  0  0  0  0  0  0  0  0
  1  2  1  0  0  0  0
  2  7  1  0  0  0  0
  3  2  2  0  0  0  0
  3  4  1  0  0  0  0
  4  5  2  0  0  0  0
  5  6  1  0  0  0  0
  5  9  1  0  0  0  0
  6 10  1  0  0  0  0
  7 22  1  0  0  0  0
  7  6  2  0  0  0  0
  8  4  1  0  0  0  0
 11 16  2  0  0  0  0
 11 12  1  0  0  0  0
 12 13  2  0  0  0  0
 13 14  1  0  0  0  0
 13 18  1  0  0  0  0
 15  3  1  0  0  0  0
 15 14  2  0  0  0  0
 16 15  1  0  0  0  0
 17 12  1  0  0  0  0
 19 11  1  0  0  0  0
 20 19  1  0  0  0  0
 21 19  1  0  0  0  0
 22 24  1  0  0  0  0
 24 35  1  0  0  0  0
 24 23  2  1  0  0  0
 25 24  1  0  0  0  0
 27 26  1  0  0  0  0
 28 25  1  0  0  0  0
 28 27  2  0  0  0  0
 29 28  1  0  0  0  0
 30 29  1  0  0  0  0
 31 29  2  0  0  0  0
 31 33  1  0  0  0  0
 32 31  1  0  0  0  0
 33 34  2  0  0  0  0
 34 27  1  0  0  0  0
 35 36  1  0  0  0  0
 36 37  1  0  0  0  0
 36 38  1  0  0  0  0
 39 36  1  0  0  0  0
M  END
>  <minimizedAffinity>
-6.49521446

$$$$

 OpenBabel03252506163D

 39 41  0  0  0  0  0  0  0  0999 V2000
   41.1740   31.3100   40.4880 F   0  0  0  0  0  0  0  0  0  0  0  0
   40.3070   32.2950   40.3760 C   0  0  0  0  0  0  0  0  0  0  0  0
   40.7840   33.5890   40.4620 C   0  0  0  0  0  0  0  0  0  0  0  0
   39.9480   34.7210   40.3540 C   0  0  0  0  0  0  0  0  0  0  0  0
   38.5790   34.5270   40.1520 C   0  0  0  0  0  0  0  0  0  0  0  0
   38.1610   33.2240   40.0750 C   0  0  0  0  0  0  0  0  0  0  0  0
   38.9440   32.1290   40.1760 C   0  0  0  0  0  0  0  0  0  0  0  0
   40.3960   35.7220   40.4320 H   0  0  0  0  0  0  0  0  0  0  0  0
   37.9930   35.4250   40.0780 H   0  0  0  0  0  0  0  0  0  0  0  0
   37.0730   33.2270   39.9080 H   0  0  0  0  0  0  0  0  0  0  0  0
   43.9370   34.3730   42.1590 C   0  0  0  0  0  0  0  0  0  0  0  0
   44.8630   34.3370   41.0790 C   0  0  0  0  0  0  0  0  0  0  0  0
   44.3840   34.0420   39.7650 C   0  0  0  0  0  0  0  0  0  0  0  0
   43.0450   33.8090   39.6370 N   0  0  0  0  0  0  0  0  0  0  0  0
   42.2140   33.8510   40.6660 C   0  0  0  0  0  0  0  0  0  0  0  0
   42.6520   34.1310   41.9190 N   0  0  0  0  0  0  0  0  0  0  0  0
   45.9080   34.5180   41.1710 H   0  0  0  0  0  0  0  0  0  0  0  0
   45.0630   34.0100   38.9390 H   0  0  0  0  0  0  0  0  0  0  0  0
   44.4430   34.6630   43.4250 N   0  0  0  0  0  0  0  0  0  0  0  0
   45.1770   33.9630   43.7410 H   0  0  0  0  0  0  0  0  0  0  0  0
   44.1240   35.4870   43.9970 H   0  0  0  0  0  0  0  0  0  0  0  0
   38.4060   30.8780   40.0840 O   0  0  0  0  0  0  0  0  0  0  0  0
   36.0530   31.0070   41.2830 O   0  0  0  0  0  0  0  0  0  0  0  0
   37.2970   30.1720   41.1360 P   0  0  2  0  0  0  0  0  0  0  0  0
   38.0290   29.9490   42.6550 O   0  0  0  0  0  0  0  0  0  0  0  0
   36.8060   27.7760   44.1470 Cl  0  0  0  0  0  0  0  0  0  0  0  0
   38.4440   27.8700   43.5290 C   0  0  0  0  0  0  0  0  0  0  0  0
   38.9780   28.9490   42.8150 C   0  0  0  0  0  0  0  0  0  0  0  0
   40.2870   28.8880   42.3870 C   0  0  0  0  0  0  0  0  0  0  0  0
   40.5860   29.7770   41.8480 H   0  0  0  0  0  0  0  0  0  0  0  0
   41.0420   27.7710   42.6720 C   0  0  0  0  0  0  0  0  0  0  0  0
   42.0630   27.7930   42.3050 H   0  0  0  0  0  0  0  0  0  0  0  0
   40.5200   26.7070   43.3750 C   0  0  0  0  0  3  0  0  0  0  0  0
   39.2220   26.7560   43.8050 C   0  0  0  0  0  3  0  0  0  0  0  0
   36.8440   28.6140   40.6380 O   0  0  0  0  0  0  0  0  0  0  0  0
   35.7800   28.6750   39.7150 C   0  0  0  0  0  0  0  0  0  0  0  0
   35.7190   27.3980   39.1520 F   0  0  0  0  0  0  0  0  0  0  0  0
   34.5850   28.8890   40.3610 F   0  0  0  0  0  0  0  0  0  0  0  0
   35.9340   29.6420   38.7600 F   0  0  0  0  0  0  0  0  0  0  0  0
  2  3  1  0  0  0  0
  2  1  1  0  0  0  0
  3 15  1  0  0  0  0
  4  8  1  0  0  0  0
  4  3  2  0  0  0  0
  5  4  1  0  0  0  0
  6  5  2  0  0  0  0
  6  7  1  0  0  0  0
  7  2  2  0  0  0  0
  9  5  1  0  0  0  0
 10  6  1  0  0  0  0
 11 19  1  0  0  0  0
 12 17  1  0  0  0  0
 12 11  2  0  0  0  0
 13 12  1  0  0  0  0
 14 13  2  0  0  0  0
 14 15  1  0  0  0  0
 15 16  2  0  0  0  0
 16 11  1  0  0  0  0
 18 13  1  0  0  0  0
 19 20  1  0  0  0  0
 19 21  1  0  0  0  0
 22  7  1  0  0  0  0
 22 24  1  0  0  0  0
 24 23  2  1  0  0  0
 24 25  1  0  0  0  0
 25 28  1  0  0  0  0
 27 34  1  0  0  0  0
 27 26  1  0  0  0  0
 28 27  2  0  0  0  0
 29 31  2  0  0  0  0
 29 28  1  0  0  0  0
 30 29  1  0  0  0  0
 31 33  1  0  0  0  0
 32 31  1  0  0  0  0
 33 34  2  0  0  0  0
 35 24  1  0  0  0  0
 36 38  1  0  0  0  0
 36 35  1  0  0  0  0
 37 36  1  0  0  0  0
 39 36  1  0  0  0  0
M  END
>  <minimizedAffinity>
-6.47960854

$$$$

 OpenBabel03252506163D

 39 41  0  0  0  0  0  0  0  0999 V2000
   40.0970   31.6470   41.5930 F   0  0  0  0  0  0  0  0  0  0  0  0
   38.9790   31.5720   40.9010 C   0  0  0  0  0  0  0  0  0  0  0  0
   38.8690   32.3480   39.7630 C   0  0  0  0  0  0  0  0  0  0  0  0
   37.7200   32.3480   38.9440 C   0  0  0  0  0  0  0  0  0  0  0  0
   36.6450   31.5280   39.2980 C   0  0  0  0  0  0  0  0  0  0  0  0
   36.8070   30.7800   40.4360 C   0  0  0  0  0  0  0  0  0  0  0  0
   37.8970   30.7680   41.2310 C   0  0  0  0  0  0  0  0  0  0  0  0
   37.7020   32.9900   38.0530 H   0  0  0  0  0  0  0  0  0  0  0  0
   35.7980   31.5690   38.6380 H   0  0  0  0  0  0  0  0  0  0  0  0
   35.8920   30.1850   40.5830 H   0  0  0  0  0  0  0  0  0  0  0  0
   41.7280   33.6110   37.8470 C   0  0  0  0  0  0  0  0  0  0  0  0
   42.0190   34.8250   38.5300 C   0  0  0  0  0  0  0  0  0  0  0  0
   41.2200   35.1970   39.6540 C   0  0  0  0  0  0  0  0  0  0  0  0
   40.2120   34.3440   40.0010 N   0  0  0  0  0  0  0  0  0  0  0  0
   39.9710   33.2220   39.3410 C   0  0  0  0  0  0  0  0  0  0  0  0
   40.7200   32.8540   38.2720 N   0  0  0  0  0  0  0  0  0  0  0  0
   42.8030   35.4960   38.2660 H   0  0  0  0  0  0  0  0  0  0  0  0
   41.4220   36.1050   40.1820 H   0  0  0  0  0  0  0  0  0  0  0  0
   42.5290   33.2850   36.7540 N   0  0  0  0  0  0  0  0  0  0  0  0
   42.4960   34.0210   35.9890 H   0  0  0  0  0  0  0  0  0  0  0  0
   43.0980   32.4010   36.7020 H   0  0  0  0  0  0  0  0  0  0  0  0
   37.9380   29.9780   42.3440 O   0  0  0  0  0  0  0  0  0  0  0  0
   40.1770   28.7000   42.9350 O   0  0  0  0  0  0  0  0  0  0  0  0
   38.7430   28.5090   42.5150 P   0  0  2  0  0  0  0  0  0  0  0  0
   38.6790   27.6590   41.0430 O   0  0  0  0  0  0  0  0  0  0  0  0
   36.8360   27.5900   38.7980 Cl  0  0  0  0  0  0  0  0  0  0  0  0
   38.4930   28.1610   38.8140 C   0  0  0  0  0  0  0  0  0  0  0  0
   39.3360   28.1690   39.9320 C   0  0  0  0  0  0  0  0  0  0  0  0
   40.6210   28.6490   39.8000 C   0  0  0  0  0  0  0  0  0  0  0  0
   41.1750   28.6040   40.7280 H   0  0  0  0  0  0  0  0  0  0  0  0
   41.0500   29.1090   38.5740 C   0  0  0  0  0  0  0  0  0  0  0  0
   42.0720   29.4710   38.5440 H   0  0  0  0  0  0  0  0  0  0  0  0
   40.2240   29.1030   37.4710 C   0  0  0  0  0  3  0  0  0  0  0  0
   38.9460   28.6290   37.5890 C   0  0  0  0  0  3  0  0  0  0  0  0
   37.9840   27.4890   43.6400 O   0  0  0  0  0  0  0  0  0  0  0  0
   36.6480   27.2410   43.2660 C   0  0  0  0  0  0  0  0  0  0  0  0
   36.6330   25.9080   42.8470 F   0  0  0  0  0  0  0  0  0  0  0  0
   35.8120   27.3320   44.3540 F   0  0  0  0  0  0  0  0  0  0  0  0
   36.1830   28.0820   42.2930 F   0  0  0  0  0  0  0  0  0  0  0  0
  2  7  1  0  0  0  0
  2  1  1  0  0  0  0
  3  2  2  0  0  0  0
  4  5  2  0  0  0  0
  4  3  1  0  0  0  0
  5  6  1  0  0  0  0
  6 10  1  0  0  0  0
  6  7  2  0  0  0  0
  7 22  1  0  0  0  0
  8  4  1  0  0  0  0
  9  5  1  0  0  0  0
 11 16  2  0  0  0  0
 11 12  1  0  0  0  0
 12 13  2  0  0  0  0
 13 14  1  0  0  0  0
 13 18  1  0  0  0  0
 15  3  1  0  0  0  0
 15 14  2  0  0  0  0
 16 15  1  0  0  0  0
 17 12  1  0  0  0  0
 19 11  1  0  0  0  0
 20 19  1  0  0  0  0
 21 19  1  0  0  0  0
 22 24  1  0  0  0  0
 24 23  2  1  0  0  0
 24 35  1  0  0  0  0
 25 24  1  0  0  0  0
 26 27  1  0  0  0  0
 27 28  1  0  0  0  0
 28 25  1  0  0  0  0
 29 28  2  0  0  0  0
 29 30  1  0  0  0  0
 31 29  1  0  0  0  0
 32 31  1  0  0  0  0
 33 34  1  0  0  0  0
 33 31  2  0  0  0  0
 34 27  2  0  0  0  0
 36 35  1  0  0  0  0
 36 38  1  0  0  0  0
 37 36  1  0  0  0  0
 39 36  1  0  0  0  0
M  END
>  <minimizedAffinity>
-6.39859247

$$$$

 OpenBabel03252506163D

 39 41  0  0  0  0  0  0  0  0999 V2000
   38.2140   31.7450   39.0340 F   0  0  0  0  0  0  0  0  0  0  0  0
   39.0620   30.8150   39.4210 C   0  0  0  0  0  0  0  0  0  0  0  0
   40.3890   31.1700   39.5700 C   0  0  0  0  0  0  0  0  0  0  0  0
   41.3840   30.2580   39.9800 C   0  0  0  0  0  0  0  0  0  0  0  0
   41.0130   28.9370   40.2490 C   0  0  0  0  0  0  0  0  0  0  0  0
   39.6850   28.6400   40.0860 C   0  0  0  0  0  0  0  0  0  0  0  0
   38.7200   29.4980   39.6940 C   0  0  0  0  0  0  0  0  0  0  0  0
   42.4210   30.6100   40.0780 H   0  0  0  0  0  0  0  0  0  0  0  0
   41.8130   28.2890   40.5580 H   0  0  0  0  0  0  0  0  0  0  0  0
   39.5430   27.5780   40.3380 H   0  0  0  0  0  0  0  0  0  0  0  0
   41.9510   34.0270   37.8850 C   0  0  0  0  0  0  0  0  0  0  0  0
   41.6650   35.0870   38.7910 C   0  0  0  0  0  0  0  0  0  0  0  0
   40.9320   34.8020   39.9830 C   0  0  0  0  0  0  0  0  0  0  0  0
   40.5480   33.5050   40.1730 N   0  0  0  0  0  0  0  0  0  0  0  0
   40.8330   32.5450   39.3070 C   0  0  0  0  0  0  0  0  0  0  0  0
   41.5280   32.7990   38.1710 N   0  0  0  0  0  0  0  0  0  0  0  0
   41.9610   36.1000   38.6500 H   0  0  0  0  0  0  0  0  0  0  0  0
   40.7070   35.5840   40.6770 H   0  0  0  0  0  0  0  0  0  0  0  0
   42.6670   34.3460   36.7320 N   0  0  0  0  0  0  0  0  0  0  0  0
   42.1710   35.0680   36.1310 H   0  0  0  0  0  0  0  0  0  0  0  0
   43.5950   33.9110   36.4930 H   0  0  0  0  0  0  0  0  0  0  0  0
   37.4270   29.0790   39.5650 O   0  0  0  0  0  0  0  0  0  0  0  0
   36.3750   30.6410   41.4230 O   0  0  0  0  0  0  0  0  0  0  0  0
   36.1540   29.3830   40.6240 P   0  0  2  0  0  0  0  0  0  0  0  0
   35.9660   28.0560   41.6720 O   0  0  0  0  0  0  0  0  0  0  0  0
   37.6720   28.6530   43.9470 Cl  0  0  0  0  0  0  0  0  0  0  0  0
   37.8150   27.3240   42.8120 C   0  0  0  0  0  0  0  0  0  0  0  0
   36.9580   27.0880   41.7310 C   0  0  0  0  0  0  0  0  0  0  0  0
   37.1890   25.9990   40.9160 C   0  0  0  0  0  0  0  0  0  0  0  0
   36.4650   25.9210   40.1180 H   0  0  0  0  0  0  0  0  0  0  0  0
   38.2560   25.1690   41.1820 C   0  0  0  0  0  0  0  0  0  0  0  0
   38.3770   24.3340   40.5000 H   0  0  0  0  0  0  0  0  0  0  0  0
   39.1020   25.3980   42.2450 C   0  0  0  0  0  3  0  0  0  0  0  0
   38.8830   26.4750   43.0610 C   0  0  0  0  0  3  0  0  0  0  0  0
   34.6660   29.5130   39.8170 O   0  0  0  0  0  0  0  0  0  0  0  0
   34.7030   28.8210   38.5890 C   0  0  0  0  0  0  0  0  0  0  0  0
   33.3710   28.7580   38.1720 F   0  0  0  0  0  0  0  0  0  0  0  0
   35.3890   29.5430   37.6420 F   0  0  0  0  0  0  0  0  0  0  0  0
   35.2650   27.5780   38.6740 F   0  0  0  0  0  0  0  0  0  0  0  0
  1  2  1  0  0  0  0
  2  3  2  0  0  0  0
  2  7  1  0  0  0  0
  3  4  1  0  0  0  0
  4  8  1  0  0  0  0
  4  5  2  0  0  0  0
  5  9  1  0  0  0  0
  6  5  1  0  0  0  0
  6 10  1  0  0  0  0
  7  6  2  0  0  0  0
 11 16  2  0  0  0  0
 11 12  1  0  0  0  0
 12 13  2  0  0  0  0
 13 14  1  0  0  0  0
 13 18  1  0  0  0  0
 15  3  1  0  0  0  0
 15 14  2  0  0  0  0
 16 15  1  0  0  0  0
 17 12  1  0  0  0  0
 19 11  1  0  0  0  0
 20 19  1  0  0  0  0
 21 19  1  0  0  0  0
 22  7  1  0  0  0  0
 22 24  1  0  0  0  0
 24 23  2  1  0  0  0
 24 25  1  0  0  0  0
 25 28  1  0  0  0  0
 27 34  1  0  0  0  0
 27 26  1  0  0  0  0
 28 27  2  0  0  0  0
 29 31  2  0  0  0  0
 29 28  1  0  0  0  0
 30 29  1  0  0  0  0
 31 33  1  0  0  0  0
 32 31  1  0  0  0  0
 33 34  2  0  0  0  0
 35 24  1  0  0  0  0
 36 39  1  0  0  0  0
 36 35  1  0  0  0  0
 37 36  1  0  0  0  0
 38 36  1  0  0  0  0
M  END
>  <minimizedAffinity>
-6.37498283

$$$$
