
     RDKit          3D

 27 29  0  0  0  0  0  0  0  0999 V2000
   44.5597   35.8823   44.4137 C   0  0  0  0  0  0  0  0  0  0  0  0
   45.2958   35.6000   43.2470 C   0  0  0  0  0  0  0  0  0  0  0  0
   46.2018   34.5023   43.2834 C   0  0  0  0  0  0  0  0  0  0  0  0
   46.3028   33.7944   44.4366 N   0  0  0  0  0  0  0  0  0  0  0  0
   45.5766   34.0994   45.5356 C   0  0  0  0  0  0  0  0  0  0  0  0
   44.7067   35.1362   45.5341 N   0  0  0  0  0  0  0  0  0  0  0  0
   45.7259   33.3046   46.7438 C   0  0  0  0  0  0  0  0  0  0  0  0
   46.8644   32.5622   47.0818 C   0  0  0  0  0  0  0  0  0  0  0  0
   46.6335   31.9552   48.2752 C   0  0  0  0  0  0  0  0  0  0  0  0
   45.3981   32.3097   48.6600 N   0  0  0  0  0  0  0  0  0  0  0  0
   44.8498   33.1248   47.7348 N   0  0  0  0  0  0  0  0  0  0  0  0
   43.8542   36.6930   44.4718 H   0  0  0  0  0  0  0  0  0  0  0  0
   45.1588   36.2039   42.3821 H   0  0  0  0  0  0  0  0  0  0  0  0
   46.7747   34.2729   42.3946 H   0  0  0  0  0  0  0  0  0  0  0  0
   47.7942   32.4466   46.5405 H   0  0  0  0  0  0  0  0  0  0  0  0
   47.2132   31.2990   48.9107 H   0  0  0  0  0  0  0  0  0  0  0  0
   42.6167   31.4625   48.0140 Cl  0  0  0  0  0  0  0  0  0  0  0  0
   43.2515   31.6299   49.6329 C   0  0  0  0  0  0  0  0  0  0  0  0
   44.5632   32.0322   49.7811 C   0  0  0  0  0  0  0  0  0  0  0  0
   45.1756   32.1996   51.0095 C   0  0  0  0  0  0  0  0  0  0  0  0
   46.1958   32.5126   51.1172 H   0  0  0  0  0  0  0  0  0  0  0  0
   44.4405   31.9521   52.1745 C   0  0  0  0  0  0  0  0  0  0  0  0
   44.8481   32.0603   53.1718 H   0  0  0  0  0  0  0  0  0  0  0  0
   43.1297   31.5507   51.9928 C   0  0  0  0  0  0  0  0  0  0  0  0
   42.5137   31.3822   50.7653 C   0  0  0  0  0  0  0  0  0  0  0  0
   42.5055   31.3424   52.8763 H   0  0  0  0  0  0  0  0  0  0  0  0
   41.4911   31.0681   50.6706 H   0  0  0  0  0  0  0  0  0  0  0  0
  1  6  2  0
  2  3  2  0
  2  1  1  0
  3  4  1  0
  4  5  2  0
  5  7  1  0
  6  5  1  0
  7  8  1  0
  7 11  2  0
  8  9  2  0
  9 10  1  0
 11 10  1  0
  1 12  1  0
  2 13  1  0
  3 14  1  0
  8 15  1  0
  9 16  1  0
 17 18  1  0
 18 19  2  0
 19 20  1  0
 20 21  1  0
 20 22  2  0
 22 23  1  0
 22 24  1  0
 24 25  2  0
 25 18  1  0
 24 26  1  0
 25 27  1  0
 10 19  1  0
M  ISO  7  12  14  13  14  14  14  15  14  16  14  21  15  23  16
M  END
>  <DihAtoms>  (1) 
8,9,18,17

>  <DihDeg>  (1) 
-70.98136096346043

$$$$
