
 OpenBabel03242519243D

 40 43  0  0  0  0  0  0  0  0999 V2000
   47.8820   33.8610   42.8840 C   0  0  0  0  0  0  0  0  0  0  0  0
   48.5330   35.0900   42.6400 C   0  0  0  0  0  0  0  0  0  0  0  0
   49.9040   35.1130   42.3110 C   0  0  0  0  0  0  0  0  0  0  0  0
   50.5280   33.8950   42.2500 N   0  0  0  0  0  0  0  0  0  0  0  0
   49.8610   32.7230   42.4930 C   0  0  0  0  0  0  0  0  0  0  0  0
   48.5730   32.7240   42.7990 N   0  0  0  0  0  0  0  0  0  0  0  0
   48.1170   36.0880   42.6680 H   0  0  0  0  0  0  0  0  0  0  0  0
   50.4510   36.0020   42.1170 H   0  0  0  0  0  0  0  0  0  0  0  0
   46.4550   33.9690   43.2210 C   0  0  0  0  0  0  0  0  0  0  0  0
   45.7430   34.9910   42.4550 C   0  0  0  0  0  0  0  0  0  0  0  0
   45.2790   36.1510   43.2540 C   0  0  0  0  0  0  0  0  0  0  0  0
   44.4720   35.7460   44.4790 C   0  0  0  0  0  0  0  0  0  0  0  0
   44.9700   34.5040   45.1640 C   0  0  0  0  0  0  0  0  0  0  0  0
   46.3930   34.1950   44.7430 C   0  0  0  0  0  0  0  0  0  0  0  0
   45.9450   32.9690   43.0980 H   0  0  0  0  0  0  0  0  0  0  0  0
   46.4280   35.3880   41.6710 H   0  0  0  0  0  0  0  0  0  0  0  0
   44.8630   34.6000   41.8650 H   0  0  0  0  0  0  0  0  0  0  0  0
   46.0140   36.8970   43.5390 H   0  0  0  0  0  0  0  0  0  0  0  0
   44.5350   36.7030   42.6060 H   0  0  0  0  0  0  0  0  0  0  0  0
   44.5550   36.5640   45.2320 H   0  0  0  0  0  0  0  0  0  0  0  0
   43.3890   35.5970   44.2280 H   0  0  0  0  0  0  0  0  0  0  0  0
   44.9950   34.5920   46.2680 H   0  0  0  0  0  0  0  0  0  0  0  0
   44.3610   33.6050   44.9260 H   0  0  0  0  0  0  0  0  0  0  0  0
   47.1020   34.9730   45.0710 H   0  0  0  0  0  0  0  0  0  0  0  0
   46.6870   33.2370   45.2050 H   0  0  0  0  0  0  0  0  0  0  0  0
   50.6820   31.5170   42.3940 C   0  0  0  0  0  0  0  0  0  0  0  0
   51.5550   31.4460   41.3660 N   0  0  0  0  0  0  0  0  0  0  0  0
   52.2290   30.2870   41.4250 C   0  0  0  0  0  0  0  0  0  0  0  0
   51.7570   29.6310   42.5170 N   0  0  0  0  0  0  0  0  0  0  0  0
   50.8090   30.3780   43.1150 N   0  0  0  0  0  0  0  0  0  0  0  0
   53.0010   29.8830   40.7780 H   0  0  0  0  0  0  0  0  0  0  0  0
   53.8400   29.7850   44.6570 Cl  0  0  0  0  0  0  0  0  0  0  0  0
   53.0650   28.3310   44.0650 C   0  0  0  0  0  0  0  0  0  0  0  0
   52.1060   28.3620   43.0650 C   0  0  0  0  0  0  0  0  0  0  0  0
   51.4660   27.2460   42.5630 C   0  0  0  0  0  0  0  0  0  0  0  0
   50.7270   27.3450   41.7820 H   0  0  0  0  0  0  0  0  0  0  0  0
   51.8230   26.0260   43.1110 C   0  0  0  0  0  0  0  0  0  0  0  0
   51.3250   25.1480   42.7220 H   0  0  0  0  0  0  0  0  0  0  0  0
   52.7770   25.9900   44.1070 C   0  0  0  0  0  0  0  0  0  0  0  0
   53.4140   27.1070   44.6070 C   0  0  0  0  0  0  0  0  0  0  0  0
  1  9  1  0  0  0  0
  2  7  1  0  0  0  0
  2  1  2  0  0  0  0
  3  2  1  0  0  0  0
  4  3  2  0  0  0  0
  4  5  1  0  0  0  0
  5  6  2  0  0  0  0
  6  1  1  0  0  0  0
  8  3  1  0  0  0  0
  9 14  1  0  0  0  0
 10  9  1  0  0  0  0
 10 11  1  0  0  0  0
 11 18  1  0  0  0  0
 11 12  1  0  0  0  0
 12 13  1  0  0  0  0
 12 20  1  0  0  0  0
 13 22  1  0  0  0  0
 14 24  1  0  0  0  0
 14 13  1  0  0  0  0
 14 25  1  0  0  0  0
 15  9  1  0  0  0  0
 16 10  1  0  0  0  0
 17 10  1  0  0  0  0
 19 11  1  0  0  0  0
 21 12  1  0  0  0  0
 23 13  1  0  0  0  0
 26  5  1  0  0  0  0
 26 30  2  0  0  0  0
 27 28  2  0  0  0  0
 27 26  1  0  0  0  0
 28 29  1  0  0  0  0
 29 34  1  0  0  0  0
 29 30  1  0  0  0  0
 31 28  1  0  0  0  0
 33 40  1  0  0  0  0
 33 32  1  0  0  0  0
 34 33  2  0  0  0  0
 35 34  1  0  0  0  0
 35 37  2  0  0  0  0
 36 35  1  0  0  0  0
 37 39  1  0  0  0  0
 38 37  1  0  0  0  0
 39 40  2  0  0  0  0
M  END
>  <minimizedAffinity>
-4.35839701

>  <minimizedRMSD>
0.753202856

$$$$
