REMARK  Name = 
REMARK  3 active torsions:
REMARK  status: ('A' for Active; 'I' for Inactive)
REMARK    1  A    between atoms: C_1  and  C_15
REMARK    2  A    between atoms: C_13  and  S_17
REMARK    3  A    between atoms: S_17  and  C_31
REMARK                            x       y       z     vdW  Elec       q    Type
REMARK                         _______ _______ _______ _____ _____    ______ ____
ROOT
ATOM      1  C   UNL     1      46.752  32.583  45.066  0.00  0.00    +0.000 C 
ATOM      2  N   UNL     1      47.373  31.476  44.939  0.00  0.00    +0.000 NA
ATOM      3  C   UNL     1      47.385  30.245  44.702  0.00  0.00    +0.000 C 
ATOM      4  N   UNL     1      47.854  30.122  45.987  0.00  0.00    +0.000 N 
ATOM      5  C   UNL     1      47.104  30.870  46.868  0.00  0.00    +0.000 A 
ATOM      6  C   UNL     1      46.974  30.321  48.177  0.00  0.00    +0.000 A 
ATOM      7  C   UNL     1      46.192  30.994  49.033  0.00  0.00    +0.000 A 
ATOM      8  C   UNL     1      45.532  32.139  48.739  0.00  0.00    +0.000 A 
ATOM      9  C   UNL     1      45.751  32.563  47.425  0.00  0.00    +0.000 A 
ATOM     10  C   UNL     1      46.504  32.048  46.374  0.00  0.00    +0.000 A 
ATOM     11  H   UNL     1      47.640  33.335  45.399  0.00  0.00    +0.000 HD
ATOM     12  H   UNL     1      48.187  31.750  44.237  0.00  0.00    +0.000 HD
ATOM     13  H   UNL     1      46.424  29.709  44.547  0.00  0.00    +0.000 HD
ATOM     14  H   UNL     1      48.072  29.671  44.002  0.00  0.00    +0.000 HD
ATOM     15  H   UNL     1      48.694  29.516  46.265  0.00  0.00    +0.000 HD
ATOM     16  H   UNL     1      47.466  29.424  48.486  0.00  0.00    +0.000 HD
ATOM     17  H   UNL     1      46.098  30.561  50.046  0.00  0.00    +0.000 HD
ATOM     18  H   UNL     1      44.930  32.618  49.459  0.00  0.00    +0.000 HD
ATOM     19  H   UNL     1      45.164  33.475  47.338  0.00  0.00    +0.000 HD
ENDROOT
BRANCH   1  24
ATOM     20  C   UNL     1      44.409  35.439  45.245  0.00  0.00    +0.000 A 
ATOM     21  C   UNL     1      44.176  35.540  43.856  0.00  0.00    +0.000 A 
ATOM     22  C   UNL     1      44.815  34.627  43.041  0.00  0.00    +0.000 A 
ATOM     23  N   UNL     1      45.610  33.713  43.645  0.00  0.00    +0.000 NA
ATOM     24  C   UNL     1      45.825  33.632  44.993  0.00  0.00    +0.000 A 
ATOM     25  N   UNL     1      45.205  34.500  45.667  0.00  0.00    +0.000 NA
ATOM     26  H   UNL     1      43.939  36.123  45.938  0.00  0.00    +0.000 HD
ATOM     27  H   UNL     1      43.511  36.332  43.542  0.00  0.00    +0.000 HD
BRANCH  22  28
ATOM     28  S   UNL     1      44.524  34.733  41.316  0.00  0.00    +0.000 S 
BRANCH  28  31
ATOM     29 CL   UNL     1      44.852  31.644  40.513  0.00  0.00    +0.000 Cl
ATOM     30  C   UNL     1      43.270  32.364  40.551  0.00  0.00    +0.000 A 
ATOM     31  C   UNL     1      43.102  33.701  40.896  0.00  0.00    +0.000 A 
ATOM     32  C   UNL     1      41.821  34.236  40.914  0.00  0.00    +0.000 A 
ATOM     33  H   UNL     1      41.683  35.292  41.185  0.00  0.00    +0.000 HD
ATOM     34  C   UNL     1      40.719  33.468  40.597  0.00  0.00    +0.000 A 
ATOM     35  H   UNL     1      39.741  33.921  40.622  0.00  0.00    +0.000 HD
ATOM     36  C   UNL     1      40.925  32.142  40.259  0.00  0.00    +0.000 A 
ATOM     37  C   UNL     1      42.179  31.580  40.231  0.00  0.00    +0.000 A 
ENDBRANCH  28  31
ENDBRANCH  22  28
ENDBRANCH   1  24
TORSDOF 3
