REMARK  Name = 
REMARK  8 active torsions:
REMARK  status: ('A' for Active; 'I' for Inactive)
REMARK    1  A    between atoms: C_3  and  C_12
REMARK    2  A    between atoms: C_7  and  O_15
REMARK    3  A    between atoms: C_8  and  N_14
REMARK    4  A    between atoms: O_15  and  P_17
REMARK    5  A    between atoms: P_17  and  O_18
REMARK    6  A    between atoms: P_17  and  O_19
REMARK    7  A    between atoms: O_18  and  C_33
REMARK    8  A    between atoms: O_19  and  C_20
REMARK                            x       y       z     vdW  Elec       q    Type
REMARK                         _______ _______ _______ _____ _____    ______ ____
ROOT
ATOM      1  F   UNL     1      45.190  33.459  41.164  0.00  0.00    +0.000 F 
ATOM      2  C   UNL     1      46.360  34.049  41.032  0.00  0.00    +0.000 A 
ATOM      3  C   UNL     1      46.834  34.791  42.097  0.00  0.00    +0.000 A 
ATOM      4  C   UNL     1      48.074  35.464  42.069  0.00  0.00    +0.000 A 
ATOM      5  C   UNL     1      48.858  35.377  40.915  0.00  0.00    +0.000 A 
ATOM      6  C   UNL     1      48.340  34.629  39.890  0.00  0.00    +0.000 A 
ATOM      7  C   UNL     1      47.157  33.979  39.898  0.00  0.00    +0.000 A 
ATOM      8  H   UNL     1      48.389  36.036  42.953  0.00  0.00    +0.000 HD
ATOM      9  H   UNL     1      49.791  35.909  40.952  0.00  0.00    +0.000 HD
ATOM     10  H   UNL     1      49.063  34.645  39.060  0.00  0.00    +0.000 HD
ENDROOT
BRANCH   3  15
ATOM     11  C   UNL     1      45.483  33.994  45.410  0.00  0.00    +0.000 A 
ATOM     12  C   UNL     1      44.626  35.105  45.647  0.00  0.00    +0.000 A 
ATOM     13  C   UNL     1      44.522  36.125  44.652  0.00  0.00    +0.000 A 
ATOM     14  N   UNL     1      45.268  35.958  43.521  0.00  0.00    +0.000 NA
ATOM     15  C   UNL     1      46.055  34.910  43.336  0.00  0.00    +0.000 A 
ATOM     16  N   UNL     1      46.165  33.933  44.270  0.00  0.00    +0.000 NA
ATOM     17  H   UNL     1      44.041  35.242  46.526  0.00  0.00    +0.000 HD
ATOM     18  H   UNL     1      43.883  36.968  44.810  0.00  0.00    +0.000 HD
BRANCH  11  19
ATOM     19  N   UNL     1      45.559  33.021  46.406  0.00  0.00    +0.000 N 
ATOM     20  H   UNL     1      45.899  33.412  47.333  0.00  0.00    +0.000 HD
ATOM     21  H   UNL     1      45.306  32.012  46.244  0.00  0.00    +0.000 HD
ENDBRANCH  11  19
ENDBRANCH   3  15
BRANCH   7  22
ATOM     22  O   UNL     1      46.748  33.265  38.809  0.00  0.00    +0.000 OA
BRANCH  22  24
ATOM     23  O   UNL     1      48.055  34.712  37.022  0.00  0.00    +0.000 OA
ATOM     24  P   UNL     1      47.302  33.424  37.227  0.00  0.00    +0.000 P 
BRANCH  24  25
ATOM     25  O   UNL     1      45.980  33.349  36.159  0.00  0.00    +0.000 OA
BRANCH  25  28
ATOM     26 CL   UNL     1      48.835  33.286  35.627  0.00  0.00    +0.000 Cl
ATOM     27  C   UNL     1      47.536  33.617  34.498  0.00  0.00    +0.000 A 
ATOM     28  C   UNL     1      46.173  33.633  34.814  0.00  0.00    +0.000 A 
ATOM     29  C   UNL     1      45.255  33.910  33.822  0.00  0.00    +0.000 A 
ATOM     30  H   UNL     1      44.237  33.893  34.186  0.00  0.00    +0.000 HD
ATOM     31  C   UNL     1      45.699  34.164  32.542  0.00  0.00    +0.000 A 
ATOM     32  H   UNL     1      44.922  34.373  31.814  0.00  0.00    +0.000 HD
ATOM     33  C   UNL     1      47.040  34.150  32.226  0.00  0.00    +0.000 A 
ATOM     34  C   UNL     1      47.959  33.877  33.202  0.00  0.00    +0.000 A 
ENDBRANCH  25  28
ENDBRANCH  24  25
BRANCH  24  35
ATOM     35  O   UNL     1      48.306  32.135  36.767  0.00  0.00    +0.000 OA
BRANCH  35  36
ATOM     36  C   UNL     1      47.551  30.961  36.569  0.00  0.00    +0.000 C 
ATOM     37  F   UNL     1      47.203  30.981  35.216  0.00  0.00    +0.000 F 
ATOM     38  F   UNL     1      48.326  29.843  36.770  0.00  0.00    +0.000 F 
ATOM     39  F   UNL     1      46.449  30.872  37.373  0.00  0.00    +0.000 F 
ENDBRANCH  35  36
ENDBRANCH  24  35
ENDBRANCH  22  24
ENDBRANCH   7  22
TORSDOF 8
