
 OpenBabel03242523393D

 37 41  0  0  1  0  0  0  0  0999 V2000
   46.7820   32.6650   45.0160 C   0  0  2  0  0  0  0  0  0  0  0  0
   47.3930   31.5470   44.9510 N   0  0  2  0  0  4  0  0  0  0  0  0
   47.4000   30.3100   44.7440 C   0  0  0  0  0  0  0  0  0  0  0  0
   47.7940   30.2130   46.0560 N   0  0  0  0  0  0  0  0  0  0  0  0
   47.0080   30.9930   46.8750 C   0  0  2  0  0  3  0  0  0  0  0  0
   46.7960   30.4780   48.1880 C   0  0  0  0  0  0  0  0  0  0  0  0
   45.9780   31.1830   48.9820 C   0  0  0  0  0  0  0  0  0  0  0  0
   45.3530   32.3290   48.6240 C   0  0  0  0  0  0  0  0  0  0  0  0
   45.6510   32.7170   47.3140 C   0  0  0  0  0  0  0  0  0  0  0  0
   46.4540   32.1660   46.3200 C   0  0  1  0  0  0  0  0  0  0  0  0
   47.6620   33.4130   45.3800 H   0  0  0  0  0  0  0  0  0  0  0  0
   48.2490   31.7920   44.2890 H   0  0  0  0  0  0  0  0  0  0  0  0
   46.4410   29.7830   44.5480 H   0  0  0  0  0  0  0  0  0  0  0  0
   48.1160   29.7100   44.0980 H   0  0  0  0  0  0  0  0  0  0  0  0
   48.6080   29.6030   46.3960 H   0  0  0  0  0  0  0  0  0  0  0  0
   47.2570   29.5820   48.5460 H   0  0  0  0  0  0  0  0  0  0  0  0
   45.8210   30.7760   49.9980 H   0  0  0  0  0  0  0  0  0  0  0  0
   44.7180   32.8340   49.2970 H   0  0  0  0  0  0  0  0  0  0  0  0
   45.0830   33.6340   47.1730 H   0  0  0  0  0  0  0  0  0  0  0  0
   44.5150   35.5860   44.9730 C   0  0  0  0  0  0  0  0  0  0  0  0
   44.2190   35.5370   43.5940 C   0  0  0  0  0  0  0  0  0  0  0  0
   44.7980   34.5210   42.8600 C   0  0  0  0  0  0  0  0  0  0  0  0
   45.6000   33.6590   43.5280 N   0  0  0  0  0  0  0  0  0  0  0  0
   45.8770   33.7240   44.8650 C   0  0  0  0  0  0  0  0  0  0  0  0
   45.3090   34.6790   45.4630 N   0  0  0  0  0  0  0  0  0  0  0  0
   44.0940   36.3560   45.6050 H   0  0  0  0  0  0  0  0  0  0  0  0
   43.5580   36.3070   43.2220 H   0  0  0  0  0  0  0  0  0  0  0  0
   44.4290   34.4410   41.1490 S   0  0  0  0  0  0  0  0  0  0  0  0
   42.2900   35.3970   38.9580 Cl  0  0  0  0  0  0  0  0  0  0  0  0
   41.9370   34.0300   39.9720 C   0  0  0  0  0  0  0  0  0  0  0  0
   42.8480   33.5960   40.9280 C   0  0  0  0  0  0  0  0  0  0  0  0
   42.5250   32.4980   41.7170 C   0  0  0  0  0  0  0  0  0  0  0  0
   43.2430   32.1520   42.4740 H   0  0  0  0  0  0  0  0  0  0  0  0
   41.3240   31.8380   41.5680 C   0  0  0  0  0  0  0  0  0  0  0  0
   41.1120   30.9900   42.1990 H   0  0  0  0  0  0  0  0  0  0  0  0
   40.4420   32.2970   40.6050 C   0  0  0  0  0  3  0  0  0  0  0  0
   40.7290   33.3790   39.8080 C   0  0  0  0  0  3  0  0  0  0  0  0
  1 11  1  1  0  0  0
  1 10  1  0  0  0  0
  2 12  1  1  0  0  0
  2  1  1  0  0  0  0
  2 10  1  0  0  0  0
  3  2  1  0  0  0  0
  3  4  1  0  0  0  0
  4 15  1  0  0  0  0
  4  5  1  0  0  0  0
  5  6  1  6  0  0  0
  6 16  1  0  0  0  0
  6  7  2  0  0  0  0
  7 17  1  0  0  0  0
  8  7  1  0  0  0  0
  8 18  1  0  0  0  0
  9  8  2  0  0  0  0
 10  5  1  0  0  0  0
 10  9  1  6  0  0  0
 13  3  1  0  0  0  0
 14  3  1  0  0  0  0
 19  9  1  0  0  0  0
 20 25  1  0  0  0  0
 20 26  1  0  0  0  0
 21 20  2  0  0  0  0
 22 23  2  0  0  0  0
 22 21  1  0  0  0  0
 23 24  1  0  0  0  0
 24  1  1  0  0  0  0
 24 25  2  0  0  0  0
 27 21  1  0  0  0  0
 28 22  1  0  0  0  0
 29 30  1  0  0  0  0
 30 31  1  0  0  0  0
 31 28  1  0  0  0  0
 31 32  2  0  0  0  0
 32 33  1  0  0  0  0
 34 32  1  0  0  0  0
 34 35  1  0  0  0  0
 36 34  2  0  0  0  0
 37 30  2  0  0  0  0
 37 36  1  0  0  0  0
M  END
>  <minimizedAffinity>
-5.89693403

>  <minimizedRMSD>
0.332692325

$$$$
