
 OpenBabel03252506373D

 44 47  0  0  1  0  0  0  0  0999 V2000
   44.5170   35.4900   45.1340 C   0  0  0  0  0  0  0  0  0  0  0  0
   45.1800   35.4820   43.8970 C   0  0  0  0  0  0  0  0  0  0  0  0
   46.1090   34.5280   43.6520 C   0  0  0  0  0  0  0  0  0  0  0  0
   46.3430   33.6260   44.6350 N   0  0  0  0  0  0  0  0  0  0  0  0
   45.7140   33.6380   45.8020 C   0  0  0  0  0  0  0  0  0  0  0  0
   44.7970   34.5640   46.0660 N   0  0  0  0  0  0  0  0  0  0  0  0
   46.0450   32.6360   46.7770 N   0  0  0  0  0  0  0  0  0  0  0  0
   45.2990   32.3860   47.9540 C   0  0  0  0  0  0  0  0  0  0  0  0
   46.3690   32.0500   48.9790 C   0  0  0  0  0  0  0  0  0  0  0  0
   47.6570   31.9610   48.2240 C   0  0  0  0  0  0  0  0  0  0  0  0
   47.1790   31.7340   46.7890 C   0  0  1  0  0  0  0  0  0  0  0  0
   43.7760   36.2630   45.3050 H   0  0  0  0  0  0  0  0  0  0  0  0
   46.6320   34.4980   42.7110 H   0  0  0  0  0  0  0  0  0  0  0  0
   44.4820   31.7470   48.0390 H   0  0  0  0  0  0  0  0  0  0  0  0
   44.9240   33.4000   48.3080 H   0  0  0  0  0  0  0  0  0  0  0  0
   46.1550   31.0070   49.3560 H   0  0  0  0  0  0  0  0  0  0  0  0
   46.3700   32.6830   49.8630 H   0  0  0  0  0  0  0  0  0  0  0  0
   48.2710   31.1300   48.5800 H   0  0  0  0  0  0  0  0  0  0  0  0
   48.1640   32.9550   48.3270 H   0  0  0  0  0  0  0  0  0  0  0  0
   47.9890   32.0600   46.1290 H   0  0  0  0  0  0  0  0  0  0  0  0
   44.8260   36.5060   42.9520 N   0  0  0  0  0  0  0  0  0  0  0  0
   45.6550   36.8360   42.3930 H   0  0  0  0  0  0  0  0  0  0  0  0
   43.9070   36.9190   42.7790 H   0  0  0  0  0  0  0  0  0  0  0  0
   46.6850   30.0380   46.6050 S   0  0  0  0  0  0  0  0  0  0  0  0
   45.5670   30.4680   43.4910 O   0  0  0  0  0  0  0  0  0  0  0  0
   44.9690   29.9390   44.4420 C   0  0  0  0  0  0  0  0  0  0  0  0
   45.1180   29.7360   45.9000 C   0  0  1  0  0  0  0  0  0  0  0  0
   44.5890   28.3330   46.0730 C   0  0  0  0  0  0  0  0  0  0  0  0
   43.2520   28.5240   45.3530 C   0  0  0  0  0  0  0  0  0  0  0  0
   43.7180   29.2750   44.1920 N   0  0  0  0  0  0  0  0  0  0  0  0
   44.2400   30.3390   46.2720 H   0  0  0  0  0  0  0  0  0  0  0  0
   44.4840   28.0200   47.1110 H   0  0  0  0  0  0  0  0  0  0  0  0
   45.2120   27.6660   45.4550 H   0  0  0  0  0  0  0  0  0  0  0  0
   42.8640   27.5540   45.0040 H   0  0  0  0  0  0  0  0  0  0  0  0
   42.5350   29.0860   45.9750 H   0  0  0  0  0  0  0  0  0  0  0  0
   44.5010   27.0460   42.4720 Cl  0  0  0  0  0  0  0  0  0  0  0  0
   43.2580   28.2290   42.1150 C   0  0  0  0  0  0  0  0  0  0  0  0
   42.9270   29.2780   42.9830 C   0  0  0  0  0  0  0  0  0  0  0  0
   41.9450   30.1970   42.6800 C   0  0  0  0  0  0  0  0  0  0  0  0
   41.7610   30.9710   43.4110 H   0  0  0  0  0  0  0  0  0  0  0  0
   41.2720   30.0600   41.4670 C   0  0  0  0  0  0  0  0  0  0  0  0
   40.4980   30.7920   41.2400 H   0  0  0  0  0  0  0  0  0  0  0  0
   41.5960   29.0240   40.6060 C   0  0  0  0  0  3  0  0  0  0  0  0
   42.5780   28.1060   40.9090 C   0  0  0  0  0  3  0  0  0  0  0  0
  1 12  1  0  0  0  0
  1  6  1  0  0  0  0
  2  1  2  0  0  0  0
  3  2  1  0  0  0  0
  3  4  2  0  0  0  0
  4  5  1  0  0  0  0
  5  6  2  0  0  0  0
  5  7  1  0  0  0  0
  7 11  1  0  0  0  0
  7  8  1  0  0  0  0
  8 14  1  0  0  0  0
  8 15  1  0  0  0  0
  8  9  1  0  0  0  0
  9 16  1  0  0  0  0
  9 17  1  0  0  0  0
 10 19  1  0  0  0  0
 10 18  1  0  0  0  0
 10  9  1  0  0  0  0
 11 20  1  6  0  0  0
 11 10  1  0  0  0  0
 13  3  1  0  0  0  0
 21  2  1  0  0  0  0
 22 21  1  0  0  0  0
 23 21  1  0  0  0  0
 24 11  1  0  0  0  0
 25 26  2  0  0  0  0
 26 27  1  0  0  0  0
 27 28  1  0  0  0  0
 27 31  1  1  0  0  0
 27 24  1  0  0  0  0
 28 32  1  0  0  0  0
 29 35  1  0  0  0  0
 29 28  1  0  0  0  0
 30 26  1  0  0  0  0
 30 29  1  0  0  0  0
 33 28  1  0  0  0  0
 34 29  1  0  0  0  0
 37 36  1  0  0  0  0
 37 38  1  0  0  0  0
 38 30  1  0  0  0  0
 39 38  2  0  0  0  0
 39 40  1  0  0  0  0
 41 39  1  0  0  0  0
 42 41  1  0  0  0  0
 43 44  1  0  0  0  0
 43 41  2  0  0  0  0
 44 37  2  0  0  0  0
M  END
>  <minimizedAffinity>
-5.30526304

>  <minimizedRMSD>
0.536082864

$$$$
