
 OpenBabel03242522443D

 47 50  0  0  0  0  0  0  0  0999 V2000
   36.4530   27.5290   41.5220 C   0  0  0  0  0  0  0  0  0  0  0  0
   35.4100   27.2750   41.7690 H   0  0  0  0  0  0  0  0  0  0  0  0
   36.6060   28.1680   40.6360 H   0  0  0  0  0  0  0  0  0  0  0  0
   37.6540   26.1390   39.9120 C   0  0  0  0  0  0  0  0  0  0  0  0
   37.1720   26.2990   41.2120 C   0  0  0  0  0  0  0  0  0  0  0  0
   37.3370   25.4030   42.2020 C   0  0  0  0  0  0  0  0  0  0  0  0
   38.0280   24.2360   41.9400 C   0  0  0  0  0  0  0  0  0  0  0  0
   38.5400   23.9860   40.7070 C   0  0  0  0  0  0  0  0  0  0  0  0
   38.3450   24.9370   39.7200 C   0  0  0  0  0  0  0  0  0  0  0  0
   37.0390   25.4050   43.2120 H   0  0  0  0  0  0  0  0  0  0  0  0
   38.2340   23.4270   42.6410 H   0  0  0  0  0  0  0  0  0  0  0  0
   39.1010   23.0940   40.4060 H   0  0  0  0  0  0  0  0  0  0  0  0
   38.7460   24.7640   38.7200 H   0  0  0  0  0  0  0  0  0  0  0  0
   37.5230   27.2680   38.6380 S   0  0  0  0  0  0  0  0  0  0  0  0
   38.2070   26.6190   37.3570 O   0  0  0  0  0  0  0  0  0  0  0  0
   38.3840   28.4540   38.8850 O   0  0  0  0  0  0  0  0  0  0  0  0
   36.5460   30.1630   37.6940 Cl  0  0  0  0  0  0  0  0  0  0  0  0
   35.5020   28.7550   37.4250 C   0  0  0  0  0  0  0  0  0  0  0  0
   36.0130   27.5500   37.8660 C   0  0  0  0  0  0  0  0  0  0  0  0
   35.1100   26.4960   37.6190 C   0  0  0  0  0  0  0  0  0  0  0  0
   35.4570   25.5030   37.9480 H   0  0  0  0  0  0  0  0  0  0  0  0
   33.8790   26.5610   37.0320 C   0  0  0  0  0  0  0  0  0  0  0  0
   33.3030   25.6540   36.9130 H   0  0  0  0  0  0  0  0  0  0  0  0
   33.4730   27.8150   36.6320 C   0  0  0  0  0  3  0  0  0  0  0  0
   34.2770   28.9120   36.8250 C   0  0  0  0  0  3  0  0  0  0  0  0
   37.0240   28.3630   42.6330 C   0  0  0  0  0  0  0  0  0  0  0  0
   37.9310   27.9080   43.1260 H   0  0  0  0  0  0  0  0  0  0  0  0
   36.3490   28.4850   43.5140 H   0  0  0  0  0  0  0  0  0  0  0  0
   38.8730   29.9530   42.1910 C   0  0  0  0  0  0  0  0  0  0  0  0
   37.5090   29.6120   42.0470 C   0  0  0  0  0  0  0  0  0  0  0  0
   36.6990   30.4630   41.3210 C   0  0  0  0  0  0  0  0  0  0  0  0
   37.2550   31.5740   40.7860 N   0  0  0  0  0  0  0  0  0  0  0  0
   38.5430   31.8700   40.9330 C   0  0  0  0  0  0  0  0  0  0  0  0
   39.3770   31.0690   41.6360 N   0  0  0  0  0  0  0  0  0  0  0  0
   39.6500   29.4300   42.7160 H   0  0  0  0  0  0  0  0  0  0  0  0
   35.6530   30.2030   41.2140 H   0  0  0  0  0  0  0  0  0  0  0  0
   39.0710   33.1230   40.2920 C   0  0  0  0  0  0  0  0  0  0  0  0
   39.7080   33.6830   41.0000 H   0  0  0  0  0  0  0  0  0  0  0  0
   38.1530   33.7640   40.1620 H   0  0  0  0  0  0  0  0  0  0  0  0
   39.7710   32.8800   39.0420 C   0  0  0  0  0  0  0  0  0  0  0  0
   41.0490   33.3020   38.7280 C   0  0  0  0  0  0  0  0  0  0  0  0
   41.3600   32.8830   37.4620 C   0  0  0  0  0  0  0  0  0  0  0  0
   40.2540   32.2130   37.0380 N   0  0  0  0  0  0  0  0  0  0  0  0
   39.3050   32.2060   37.9710 N   0  0  0  0  0  0  0  0  0  0  0  0
   41.7650   33.8790   39.3280 H   0  0  0  0  0  0  0  0  0  0  0  0
   42.2470   32.9900   36.8200 H   0  0  0  0  0  0  0  0  0  0  0  0
   40.0320   31.7200   36.1370 H   0  0  0  0  0  0  0  0  0  0  0  0
  1  2  1  0  0  0  0
  1 26  1  0  0  0  0
  3  1  1  0  0  0  0
  4  5  1  0  0  0  0
  5  1  1  0  0  0  0
  5  6  2  0  0  0  0
  6 10  1  0  0  0  0
  7  6  1  0  0  0  0
  7 11  1  0  0  0  0
  8  7  2  0  0  0  0
  9  4  2  0  0  0  0
  9  8  1  0  0  0  0
 12  8  1  0  0  0  0
 13  9  1  0  0  0  0
 14 16  2  0  0  0  0
 14  4  1  0  0  0  0
 15 14  2  0  0  0  0
 18 17  1  0  0  0  0
 18 19  1  0  0  0  0
 19 14  1  0  0  0  0
 20 19  2  0  0  0  0
 20 21  1  0  0  0  0
 22 20  1  0  0  0  0
 23 22  1  0  0  0  0
 24 25  1  0  0  0  0
 24 22  2  0  0  0  0
 25 18  2  0  0  0  0
 26 27  1  0  0  0  0
 26 28  1  0  0  0  0
 29 35  1  0  0  0  0
 30 29  1  0  0  0  0
 30 26  1  0  0  0  0
 31 30  2  0  0  0  0
 32 33  2  0  0  0  0
 32 31  1  0  0  0  0
 33 34  1  0  0  0  0
 34 29  2  0  0  0  0
 36 31  1  0  0  0  0
 37 33  1  0  0  0  0
 37 38  1  0  0  0  0
 39 37  1  0  0  0  0
 40 37  1  0  0  0  0
 41 40  1  0  0  0  0
 41 45  1  0  0  0  0
 42 41  2  0  0  0  0
 43 42  1  0  0  0  0
 43 44  1  0  0  0  0
 44 40  2  0  0  0  0
 46 42  1  0  0  0  0
 47 43  1  0  0  0  0
M  END
>  <minimizedAffinity>
-6.0894227

$$$$

 OpenBabel03242522443D

 47 50  0  0  0  0  0  0  0  0999 V2000
   36.4040   26.5960   38.4390 C   0  0  0  0  0  0  0  0  0  0  0  0
   37.3380   26.5650   37.8550 H   0  0  0  0  0  0  0  0  0  0  0  0
   35.9560   27.5920   38.5930 H   0  0  0  0  0  0  0  0  0  0  0  0
   36.7330   27.0470   40.8170 C   0  0  0  0  0  0  0  0  0  0  0  0
   36.6790   26.1080   39.7860 C   0  0  0  0  0  0  0  0  0  0  0  0
   36.8490   24.7840   39.9500 C   0  0  0  0  0  0  0  0  0  0  0  0
   37.0940   24.2930   41.2170 C   0  0  0  0  0  0  0  0  0  0  0  0
   37.1630   25.1240   42.2910 C   0  0  0  0  0  0  0  0  0  0  0  0
   36.9820   26.4790   42.0720 C   0  0  0  0  0  0  0  0  0  0  0  0
   36.8220   23.9800   39.2710 H   0  0  0  0  0  0  0  0  0  0  0  0
   37.2520   23.2500   41.4960 H   0  0  0  0  0  0  0  0  0  0  0  0
   37.3500   24.8290   43.3290 H   0  0  0  0  0  0  0  0  0  0  0  0
   37.0310   27.1710   42.9150 H   0  0  0  0  0  0  0  0  0  0  0  0
   36.4670   28.7270   40.6710 S   0  0  0  0  0  0  0  0  0  0  0  0
   37.0120   29.4100   42.0010 O   0  0  0  0  0  0  0  0  0  0  0  0
   35.0170   29.0460   40.7280 O   0  0  0  0  0  0  0  0  0  0  0  0
   39.6100   28.2800   40.2830 Cl  0  0  0  0  0  0  0  0  0  0  0  0
   38.7900   29.5680   39.3810 C   0  0  0  0  0  0  0  0  0  0  0  0
   37.4330   29.6800   39.6160 C   0  0  0  0  0  0  0  0  0  0  0  0
   36.8750   30.7350   38.8650 C   0  0  0  0  0  0  0  0  0  0  0  0
   35.7910   30.8800   39.0070 H   0  0  0  0  0  0  0  0  0  0  0  0
   37.5070   31.5810   38.0000 C   0  0  0  0  0  0  0  0  0  0  0  0
   36.9320   32.3460   37.4970 H   0  0  0  0  0  0  0  0  0  0  0  0
   38.8600   31.3750   37.8450 C   0  0  0  0  0  3  0  0  0  0  0  0
   39.5050   30.3740   38.5300 C   0  0  0  0  0  3  0  0  0  0  0  0
   35.3350   25.8650   37.6800 C   0  0  0  0  0  0  0  0  0  0  0  0
   34.7210   25.1640   38.3150 H   0  0  0  0  0  0  0  0  0  0  0  0
   35.7180   25.1600   36.9030 H   0  0  0  0  0  0  0  0  0  0  0  0
   34.6530   28.2300   37.3890 C   0  0  0  0  0  0  0  0  0  0  0  0
   34.3760   26.8580   37.1960 C   0  0  0  0  0  0  0  0  0  0  0  0
   33.2210   26.5170   36.5190 C   0  0  0  0  0  0  0  0  0  0  0  0
   32.4200   27.5130   36.0770 N   0  0  0  0  0  0  0  0  0  0  0  0
   32.7060   28.7980   36.2690 C   0  0  0  0  0  0  0  0  0  0  0  0
   33.8250   29.1830   36.9260 N   0  0  0  0  0  0  0  0  0  0  0  0
   35.4850   28.6900   37.8890 H   0  0  0  0  0  0  0  0  0  0  0  0
   33.0090   25.4650   36.3730 H   0  0  0  0  0  0  0  0  0  0  0  0
   31.7600   29.8330   35.7290 C   0  0  0  0  0  0  0  0  0  0  0  0
   31.1020   29.3930   34.9580 H   0  0  0  0  0  0  0  0  0  0  0  0
   32.4310   30.5410   35.1640 H   0  0  0  0  0  0  0  0  0  0  0  0
   30.9810   30.4970   36.7610 C   0  0  0  0  0  0  0  0  0  0  0  0
   30.3810   31.7380   36.6590 C   0  0  0  0  0  0  0  0  0  0  0  0
   29.7390   32.0230   37.8340 C   0  0  0  0  0  0  0  0  0  0  0  0
   29.9680   30.9390   38.6240 N   0  0  0  0  0  0  0  0  0  0  0  0
   30.7040   30.0270   37.9940 N   0  0  0  0  0  0  0  0  0  0  0  0
   30.3690   32.4450   35.8180 H   0  0  0  0  0  0  0  0  0  0  0  0
   29.1460   32.8770   38.1910 H   0  0  0  0  0  0  0  0  0  0  0  0
   29.6730   30.7080   39.6060 H   0  0  0  0  0  0  0  0  0  0  0  0
  1  3  1  0  0  0  0
  1  5  1  0  0  0  0
  2  1  1  0  0  0  0
  4  9  1  0  0  0  0
  5  6  1  0  0  0  0
  5  4  2  0  0  0  0
  6  7  2  0  0  0  0
  7 11  1  0  0  0  0
  7  8  1  0  0  0  0
  8 12  1  0  0  0  0
  9  8  2  0  0  0  0
  9 13  1  0  0  0  0
 10  6  1  0  0  0  0
 14 16  2  0  0  0  0
 14  4  1  0  0  0  0
 14 15  2  0  0  0  0
 18 19  1  0  0  0  0
 18 17  1  0  0  0  0
 19 14  1  0  0  0  0
 20 21  1  0  0  0  0
 20 19  2  0  0  0  0
 22 20  1  0  0  0  0
 23 22  1  0  0  0  0
 24 22  2  0  0  0  0
 24 25  1  0  0  0  0
 25 18  2  0  0  0  0
 26 27  1  0  0  0  0
 26  1  1  0  0  0  0
 28 26  1  0  0  0  0
 29 35  1  0  0  0  0
 30 29  1  0  0  0  0
 30 26  1  0  0  0  0
 31 30  2  0  0  0  0
 32 33  2  0  0  0  0
 32 31  1  0  0  0  0
 33 34  1  0  0  0  0
 34 29  2  0  0  0  0
 36 31  1  0  0  0  0
 37 33  1  0  0  0  0
 37 40  1  0  0  0  0
 38 37  1  0  0  0  0
 39 37  1  0  0  0  0
 40 44  2  0  0  0  0
 41 40  1  0  0  0  0
 41 42  2  0  0  0  0
 42 46  1  0  0  0  0
 42 43  1  0  0  0  0
 43 47  1  0  0  0  0
 44 43  1  0  0  0  0
 45 41  1  0  0  0  0
M  END
>  <minimizedAffinity>
-6.08308411

$$$$

 OpenBabel03242522443D

 47 50  0  0  0  0  0  0  0  0999 V2000
   37.1050   27.3240   42.1390 C   0  0  0  0  0  0  0  0  0  0  0  0
   36.2230   26.6960   42.3470 H   0  0  0  0  0  0  0  0  0  0  0  0
   37.1900   27.7270   41.1160 H   0  0  0  0  0  0  0  0  0  0  0  0
   38.7190   25.7280   41.2380 C   0  0  0  0  0  0  0  0  0  0  0  0
   38.3050   26.5150   42.3130 C   0  0  0  0  0  0  0  0  0  0  0  0
   38.9460   26.5910   43.4940 C   0  0  0  0  0  0  0  0  0  0  0  0
   40.0950   25.8470   43.6800 C   0  0  0  0  0  0  0  0  0  0  0  0
   40.5830   25.0500   42.6930 C   0  0  0  0  0  0  0  0  0  0  0  0
   39.8890   25.0050   41.4960 C   0  0  0  0  0  0  0  0  0  0  0  0
   38.7520   27.1440   44.3680 H   0  0  0  0  0  0  0  0  0  0  0  0
   40.7120   25.8090   44.5790 H   0  0  0  0  0  0  0  0  0  0  0  0
   41.4830   24.4280   42.7470 H   0  0  0  0  0  0  0  0  0  0  0  0
   40.2570   24.3750   40.6840 H   0  0  0  0  0  0  0  0  0  0  0  0
   37.9760   25.6420   39.7020 S   0  0  0  0  0  0  0  0  0  0  0  0
   36.5940   24.8750   39.8860 O   0  0  0  0  0  0  0  0  0  0  0  0
   38.7230   24.7290   38.7980 O   0  0  0  0  0  0  0  0  0  0  0  0
   39.6510   28.2530   38.9230 Cl  0  0  0  0  0  0  0  0  0  0  0  0
   37.9040   28.2090   38.6200 C   0  0  0  0  0  0  0  0  0  0  0  0
   37.2710   27.0380   38.9890 C   0  0  0  0  0  0  0  0  0  0  0  0
   35.8890   27.1040   38.7200 C   0  0  0  0  0  0  0  0  0  0  0  0
   35.3210   26.1980   38.9920 H   0  0  0  0  0  0  0  0  0  0  0  0
   35.1840   28.1370   38.1730 C   0  0  0  0  0  0  0  0  0  0  0  0
   34.1180   28.0300   38.0290 H   0  0  0  0  0  0  0  0  0  0  0  0
   35.9200   29.2530   37.8440 C   0  0  0  0  0  3  0  0  0  0  0  0
   37.2750   29.2960   38.0640 C   0  0  0  0  0  3  0  0  0  0  0  0
   37.0210   28.5670   42.9780 C   0  0  0  0  0  0  0  0  0  0  0  0
   37.7210   28.5690   43.8630 H   0  0  0  0  0  0  0  0  0  0  0  0
   36.0400   28.7150   43.4890 H   0  0  0  0  0  0  0  0  0  0  0  0
   36.5070   30.4260   41.4230 C   0  0  0  0  0  0  0  0  0  0  0  0
   37.4660   29.6910   42.1530 C   0  0  0  0  0  0  0  0  0  0  0  0
   38.7860   30.0930   42.0850 C   0  0  0  0  0  0  0  0  0  0  0  0
   39.0870   31.1700   41.3240 N   0  0  0  0  0  0  0  0  0  0  0  0
   38.1640   31.8480   40.6480 C   0  0  0  0  0  0  0  0  0  0  0  0
   36.8580   31.4930   40.6830 N   0  0  0  0  0  0  0  0  0  0  0  0
   35.4470   30.2690   41.3440 H   0  0  0  0  0  0  0  0  0  0  0  0
   39.5200   29.5270   42.6430 H   0  0  0  0  0  0  0  0  0  0  0  0
   38.5950   33.0390   39.8390 C   0  0  0  0  0  0  0  0  0  0  0  0
   39.0310   33.8160   40.4940 H   0  0  0  0  0  0  0  0  0  0  0  0
   37.6240   33.4820   39.4760 H   0  0  0  0  0  0  0  0  0  0  0  0
   39.5020   32.7030   38.7550 C   0  0  0  0  0  0  0  0  0  0  0  0
   40.8400   33.0420   38.6750 C   0  0  0  0  0  0  0  0  0  0  0  0
   41.3570   32.5490   37.5080 C   0  0  0  0  0  0  0  0  0  0  0  0
   40.3120   31.9200   36.9050 N   0  0  0  0  0  0  0  0  0  0  0  0
   39.2060   32.0060   37.6390 N   0  0  0  0  0  0  0  0  0  0  0  0
   41.4630   33.6070   39.3810 H   0  0  0  0  0  0  0  0  0  0  0  0
   42.3540   32.5790   37.0430 H   0  0  0  0  0  0  0  0  0  0  0  0
   40.2340   31.3980   35.9960 H   0  0  0  0  0  0  0  0  0  0  0  0
  1  5  1  0  0  0  0
  1  2  1  0  0  0  0
  1 26  1  0  0  0  0
  3  1  1  0  0  0  0
  4  9  2  0  0  0  0
  4  5  1  0  0  0  0
  5  6  2  0  0  0  0
  6  7  1  0  0  0  0
  6 10  1  0  0  0  0
  7 11  1  0  0  0  0
  8 12  1  0  0  0  0
  8  7  2  0  0  0  0
  9  8  1  0  0  0  0
 13  9  1  0  0  0  0
 14 15  2  0  0  0  0
 14  4  1  0  0  0  0
 16 14  2  0  0  0  0
 18 17  1  0  0  0  0
 18 19  1  0  0  0  0
 19 14  1  0  0  0  0
 20 19  2  0  0  0  0
 20 21  1  0  0  0  0
 22 20  1  0  0  0  0
 23 22  1  0  0  0  0
 24 25  1  0  0  0  0
 24 22  2  0  0  0  0
 25 18  2  0  0  0  0
 26 28  1  0  0  0  0
 26 27  1  0  0  0  0
 29 30  1  0  0  0  0
 30 26  1  0  0  0  0
 31 30  2  0  0  0  0
 31 36  1  0  0  0  0
 32 31  1  0  0  0  0
 33 34  1  0  0  0  0
 33 32  2  0  0  0  0
 34 29  2  0  0  0  0
 35 29  1  0  0  0  0
 37 38  1  0  0  0  0
 37 33  1  0  0  0  0
 39 37  1  0  0  0  0
 40 37  1  0  0  0  0
 41 40  1  0  0  0  0
 41 45  1  0  0  0  0
 42 41  2  0  0  0  0
 43 42  1  0  0  0  0
 43 44  1  0  0  0  0
 44 40  2  0  0  0  0
 46 42  1  0  0  0  0
 47 43  1  0  0  0  0
M  END
>  <minimizedAffinity>
-6.07209063

$$$$

 OpenBabel03242522443D

 47 50  0  0  0  0  0  0  0  0999 V2000
   37.2970   27.0930   39.5820 C   0  0  0  0  0  0  0  0  0  0  0  0
   37.8520   27.2730   38.6470 H   0  0  0  0  0  0  0  0  0  0  0  0
   37.8310   27.3160   40.5210 H   0  0  0  0  0  0  0  0  0  0  0  0
   37.6680   24.9130   40.6180 C   0  0  0  0  0  0  0  0  0  0  0  0
   36.9800   25.6730   39.6710 C   0  0  0  0  0  0  0  0  0  0  0  0
   36.0350   25.1880   38.8450 C   0  0  0  0  0  0  0  0  0  0  0  0
   35.7050   23.8490   38.9200 C   0  0  0  0  0  0  0  0  0  0  0  0
   36.3140   23.0240   39.8110 C   0  0  0  0  0  0  0  0  0  0  0  0
   37.2800   23.5680   40.6390 C   0  0  0  0  0  0  0  0  0  0  0  0
   35.4410   25.6460   38.1060 H   0  0  0  0  0  0  0  0  0  0  0  0
   34.9640   23.3230   38.3150 H   0  0  0  0  0  0  0  0  0  0  0  0
   36.1190   21.9540   39.9440 H   0  0  0  0  0  0  0  0  0  0  0  0
   37.7870   22.9300   41.3660 H   0  0  0  0  0  0  0  0  0  0  0  0
   38.8310   25.4900   41.7280 S   0  0  0  0  0  0  0  0  0  0  0  0
   40.2220   25.5670   40.9590 O   0  0  0  0  0  0  0  0  0  0  0  0
   39.1110   24.4800   42.7810 O   0  0  0  0  0  0  0  0  0  0  0  0
   36.4640   26.8490   43.3940 Cl  0  0  0  0  0  0  0  0  0  0  0  0
   37.8740   27.8180   42.9240 C   0  0  0  0  0  0  0  0  0  0  0  0
   38.8420   27.1400   42.2080 C   0  0  0  0  0  0  0  0  0  0  0  0
   39.9130   27.9940   41.8730 C   0  0  0  0  0  0  0  0  0  0  0  0
   40.7230   27.5140   41.2990 H   0  0  0  0  0  0  0  0  0  0  0  0
   40.0600   29.3180   42.1690 C   0  0  0  0  0  0  0  0  0  0  0  0
   40.9490   29.8360   41.8370 H   0  0  0  0  0  0  0  0  0  0  0  0
   39.0320   29.8880   42.8870 C   0  0  0  0  0  3  0  0  0  0  0  0
   37.9400   29.1460   43.2660 C   0  0  0  0  0  3  0  0  0  0  0  0
   36.1260   28.0330   39.6370 C   0  0  0  0  0  0  0  0  0  0  0  0
   35.4790   27.9050   40.5520 H   0  0  0  0  0  0  0  0  0  0  0  0
   35.3730   27.8810   38.8270 H   0  0  0  0  0  0  0  0  0  0  0  0
   37.8470   29.7220   39.0650 C   0  0  0  0  0  0  0  0  0  0  0  0
   36.6530   29.3930   39.7450 C   0  0  0  0  0  0  0  0  0  0  0  0
   36.0130   30.3900   40.4550 C   0  0  0  0  0  0  0  0  0  0  0  0
   36.5620   31.6260   40.4590 N   0  0  0  0  0  0  0  0  0  0  0  0
   37.6860   31.9110   39.8070 C   0  0  0  0  0  0  0  0  0  0  0  0
   38.3500   30.9680   39.0980 N   0  0  0  0  0  0  0  0  0  0  0  0
   38.4850   29.0930   38.4720 H   0  0  0  0  0  0  0  0  0  0  0  0
   35.1000   30.1360   40.9780 H   0  0  0  0  0  0  0  0  0  0  0  0
   38.2130   33.3170   39.8620 C   0  0  0  0  0  0  0  0  0  0  0  0
   37.6110   33.9300   40.5580 H   0  0  0  0  0  0  0  0  0  0  0  0
   37.9790   33.7300   38.8400 H   0  0  0  0  0  0  0  0  0  0  0  0
   39.6260   33.3930   40.1920 C   0  0  0  0  0  0  0  0  0  0  0  0
   40.5890   34.1020   39.5000 C   0  0  0  0  0  0  0  0  0  0  0  0
   41.8000   33.9290   40.1130 C   0  0  0  0  0  0  0  0  0  0  0  0
   41.5390   33.1120   41.1700 N   0  0  0  0  0  0  0  0  0  0  0  0
   40.2490   32.7900   41.2250 N   0  0  0  0  0  0  0  0  0  0  0  0
   40.4900   34.7250   38.6010 H   0  0  0  0  0  0  0  0  0  0  0  0
   42.8160   34.2970   39.9120 H   0  0  0  0  0  0  0  0  0  0  0  0
   42.1560   32.7110   41.9200 H   0  0  0  0  0  0  0  0  0  0  0  0
  1 26  1  0  0  0  0
  1  5  1  0  0  0  0
  1  3  1  0  0  0  0
  2  1  1  0  0  0  0
  4  9  1  0  0  0  0
  4 14  1  0  0  0  0
  5  4  2  0  0  0  0
  6  7  2  0  0  0  0
  6  5  1  0  0  0  0
  7  8  1  0  0  0  0
  8 12  1  0  0  0  0
  8  9  2  0  0  0  0
  9 13  1  0  0  0  0
 10  6  1  0  0  0  0
 11  7  1  0  0  0  0
 14 19  1  0  0  0  0
 14 16  2  0  0  0  0
 15 14  2  0  0  0  0
 18 25  1  0  0  0  0
 18 17  1  0  0  0  0
 19 18  2  0  0  0  0
 20 22  2  0  0  0  0
 20 19  1  0  0  0  0
 21 20  1  0  0  0  0
 22 24  1  0  0  0  0
 23 22  1  0  0  0  0
 24 25  2  0  0  0  0
 26 30  1  0  0  0  0
 26 27  1  0  0  0  0
 28 26  1  0  0  0  0
 29 34  2  0  0  0  0
 29 30  1  0  0  0  0
 30 31  2  0  0  0  0
 31 32  1  0  0  0  0
 31 36  1  0  0  0  0
 33 37  1  0  0  0  0
 33 32  2  0  0  0  0
 34 33  1  0  0  0  0
 35 29  1  0  0  0  0
 37 40  1  0  0  0  0
 37 38  1  0  0  0  0
 39 37  1  0  0  0  0
 40 44  2  0  0  0  0
 41 42  2  0  0  0  0
 41 40  1  0  0  0  0
 42 43  1  0  0  0  0
 43 44  1  0  0  0  0
 43 47  1  0  0  0  0
 45 41  1  0  0  0  0
 46 42  1  0  0  0  0
M  END
>  <minimizedAffinity>
-6.06038237

$$$$

 OpenBabel03242522443D

 47 50  0  0  0  0  0  0  0  0999 V2000
   38.2330   27.4300   43.1690 C   0  0  0  0  0  0  0  0  0  0  0  0
   39.1850   27.9170   42.9030 H   0  0  0  0  0  0  0  0  0  0  0  0
   38.0870   27.1870   44.2350 H   0  0  0  0  0  0  0  0  0  0  0  0
   39.3590   25.5760   42.0450 C   0  0  0  0  0  0  0  0  0  0  0  0
   38.1620   26.1420   42.4880 C   0  0  0  0  0  0  0  0  0  0  0  0
   36.9510   25.5750   42.3450 C   0  0  0  0  0  0  0  0  0  0  0  0
   36.8580   24.3470   41.7180 C   0  0  0  0  0  0  0  0  0  0  0  0
   37.9640   23.7110   41.2520 C   0  0  0  0  0  0  0  0  0  0  0  0
   39.1890   24.3340   41.4230 C   0  0  0  0  0  0  0  0  0  0  0  0
   35.9880   25.8830   42.6380 H   0  0  0  0  0  0  0  0  0  0  0  0
   35.9480   23.7750   41.5320 H   0  0  0  0  0  0  0  0  0  0  0  0
   37.9900   22.7400   40.7460 H   0  0  0  0  0  0  0  0  0  0  0  0
   40.0950   23.8470   41.0600 H   0  0  0  0  0  0  0  0  0  0  0  0
   40.9240   26.2260   42.2550 S   0  0  0  0  0  0  0  0  0  0  0  0
   41.9430   25.2560   41.5110 O   0  0  0  0  0  0  0  0  0  0  0  0
   41.3630   26.1150   43.6700 O   0  0  0  0  0  0  0  0  0  0  0  0
   43.3050   28.1320   43.2180 Cl  0  0  0  0  0  0  0  0  0  0  0  0
   42.4220   28.5160   41.7280 C   0  0  0  0  0  0  0  0  0  0  0  0
   41.4130   27.6320   41.3960 C   0  0  0  0  0  0  0  0  0  0  0  0
   40.7660   28.0270   40.2080 C   0  0  0  0  0  0  0  0  0  0  0  0
   39.9470   27.3620   39.8850 H   0  0  0  0  0  0  0  0  0  0  0  0
   41.0280   29.1150   39.4250 C   0  0  0  0  0  0  0  0  0  0  0  0
   40.4350   29.2790   38.5360 H   0  0  0  0  0  0  0  0  0  0  0  0
   42.0550   29.9250   39.8540 C   0  0  0  0  0  3  0  0  0  0  0  0
   42.7540   29.6320   41.0000 C   0  0  0  0  0  3  0  0  0  0  0  0
   37.1070   28.3840   42.8900 C   0  0  0  0  0  0  0  0  0  0  0  0
   36.6020   28.7790   43.8180 H   0  0  0  0  0  0  0  0  0  0  0  0
   36.2370   27.9310   42.3570 H   0  0  0  0  0  0  0  0  0  0  0  0
   36.8880   30.2990   41.3330 C   0  0  0  0  0  0  0  0  0  0  0  0
   37.6780   29.5680   42.2490 C   0  0  0  0  0  0  0  0  0  0  0  0
   38.9490   30.0320   42.5260 C   0  0  0  0  0  0  0  0  0  0  0  0
   39.3680   31.1600   41.9090 N   0  0  0  0  0  0  0  0  0  0  0  0
   38.6020   31.8320   41.0530 C   0  0  0  0  0  0  0  0  0  0  0  0
   37.3500   31.4180   40.7480 N   0  0  0  0  0  0  0  0  0  0  0  0
   35.8910   30.1000   40.9880 H   0  0  0  0  0  0  0  0  0  0  0  0
   39.5540   29.4700   43.2260 H   0  0  0  0  0  0  0  0  0  0  0  0
   39.1520   33.0820   40.4260 C   0  0  0  0  0  0  0  0  0  0  0  0
   39.8400   33.5960   41.1220 H   0  0  0  0  0  0  0  0  0  0  0  0
   38.2560   33.7620   40.3540 H   0  0  0  0  0  0  0  0  0  0  0  0
   39.7890   32.8520   39.1410 C   0  0  0  0  0  0  0  0  0  0  0  0
   41.0430   33.2920   38.7610 C   0  0  0  0  0  0  0  0  0  0  0  0
   41.2940   32.8800   37.4800 C   0  0  0  0  0  0  0  0  0  0  0  0
   40.1770   32.1930   37.1130 N   0  0  0  0  0  0  0  0  0  0  0  0
   39.2790   32.1710   38.0940 N   0  0  0  0  0  0  0  0  0  0  0  0
   41.7810   33.8800   39.3240 H   0  0  0  0  0  0  0  0  0  0  0  0
   42.1440   33.0000   36.7930 H   0  0  0  0  0  0  0  0  0  0  0  0
   39.9150   31.6970   36.2250 H   0  0  0  0  0  0  0  0  0  0  0  0
  1  3  1  0  0  0  0
  2  1  1  0  0  0  0
  4 14  1  0  0  0  0
  4  5  1  0  0  0  0
  5  1  1  0  0  0  0
  6  5  2  0  0  0  0
  6 10  1  0  0  0  0
  7  6  1  0  0  0  0
  8  9  1  0  0  0  0
  8  7  2  0  0  0  0
  9  4  2  0  0  0  0
 11  7  1  0  0  0  0
 12  8  1  0  0  0  0
 13  9  1  0  0  0  0
 14 16  2  0  0  0  0
 15 14  2  0  0  0  0
 18 17  1  0  0  0  0
 19 18  1  0  0  0  0
 19 14  1  0  0  0  0
 20 19  2  0  0  0  0
 21 20  1  0  0  0  0
 22 24  2  0  0  0  0
 22 20  1  0  0  0  0
 23 22  1  0  0  0  0
 24 25  1  0  0  0  0
 25 18  2  0  0  0  0
 26  1  1  0  0  0  0
 26 27  1  0  0  0  0
 28 26  1  0  0  0  0
 29 30  1  0  0  0  0
 30 31  2  0  0  0  0
 30 26  1  0  0  0  0
 31 36  1  0  0  0  0
 32 31  1  0  0  0  0
 33 32  2  0  0  0  0
 34 33  1  0  0  0  0
 34 29  2  0  0  0  0
 35 29  1  0  0  0  0
 37 33  1  0  0  0  0
 37 38  1  0  0  0  0
 39 37  1  0  0  0  0
 40 37  1  0  0  0  0
 41 40  1  0  0  0  0
 41 45  1  0  0  0  0
 42 41  2  0  0  0  0
 43 42  1  0  0  0  0
 43 44  1  0  0  0  0
 44 40  2  0  0  0  0
 46 42  1  0  0  0  0
 47 43  1  0  0  0  0
M  END
>  <minimizedAffinity>
-5.93175125

$$$$

 OpenBabel03242522443D

 47 50  0  0  0  0  0  0  0  0999 V2000
   39.6200   31.7120   41.4740 C   0  0  0  0  0  0  0  0  0  0  0  0
   38.6380   31.3200   41.1630 H   0  0  0  0  0  0  0  0  0  0  0  0
   39.6090   32.6160   42.1060 H   0  0  0  0  0  0  0  0  0  0  0  0
   39.6520   32.2310   39.0880 C   0  0  0  0  0  0  0  0  0  0  0  0
   40.3610   32.1090   40.2830 C   0  0  0  0  0  0  0  0  0  0  0  0
   41.6790   32.3470   40.4150 C   0  0  0  0  0  0  0  0  0  0  0  0
   42.4020   32.7400   39.3060 C   0  0  0  0  0  0  0  0  0  0  0  0
   41.8040   32.8910   38.0950 C   0  0  0  0  0  0  0  0  0  0  0  0
   40.4460   32.6350   38.0080 C   0  0  0  0  0  0  0  0  0  0  0  0
   42.3240   32.3040   41.2460 H   0  0  0  0  0  0  0  0  0  0  0  0
   43.4690   32.9630   39.2660 H   0  0  0  0  0  0  0  0  0  0  0  0
   42.2920   33.1990   37.1640 H   0  0  0  0  0  0  0  0  0  0  0  0
   39.9380   32.7490   37.0490 H   0  0  0  0  0  0  0  0  0  0  0  0
   37.9720   31.9990   38.8800 S   0  0  0  0  0  0  0  0  0  0  0  0
   37.6970   31.9090   37.3150 O   0  0  0  0  0  0  0  0  0  0  0  0
   37.2140   33.2190   39.2610 O   0  0  0  0  0  0  0  0  0  0  0  0
   39.3600   29.1890   38.2450 Cl  0  0  0  0  0  0  0  0  0  0  0  0
   37.7580   29.2240   39.0050 C   0  0  0  0  0  0  0  0  0  0  0  0
   37.2440   30.4850   39.2400 C   0  0  0  0  0  0  0  0  0  0  0  0
   35.9680   30.4080   39.8340 C   0  0  0  0  0  0  0  0  0  0  0  0
   35.5000   31.3840   40.0490 H   0  0  0  0  0  0  0  0  0  0  0  0
   35.2590   29.2910   40.1680 C   0  0  0  0  0  0  0  0  0  0  0  0
   34.2840   29.4020   40.6210 H   0  0  0  0  0  0  0  0  0  0  0  0
   35.8700   28.0900   39.8880 C   0  0  0  0  0  3  0  0  0  0  0  0
   37.1150   28.0490   39.3090 C   0  0  0  0  0  3  0  0  0  0  0  0
   40.2880   30.6990   42.3580 C   0  0  0  0  0  0  0  0  0  0  0  0
   40.4420   31.0490   43.4200 H   0  0  0  0  0  0  0  0  0  0  0  0
   41.3380   30.4520   42.0670 H   0  0  0  0  0  0  0  0  0  0  0  0
   39.8730   28.2660   42.1380 C   0  0  0  0  0  0  0  0  0  0  0  0
   39.3910   29.5500   42.4750 C   0  0  0  0  0  0  0  0  0  0  0  0
   38.0940   29.6570   42.9390 C   0  0  0  0  0  0  0  0  0  0  0  0
   37.3580   28.5270   43.0470 N   0  0  0  0  0  0  0  0  0  0  0  0
   37.8390   27.3280   42.7270 C   0  0  0  0  0  0  0  0  0  0  0  0
   39.1020   27.1720   42.2670 N   0  0  0  0  0  0  0  0  0  0  0  0
   40.8380   27.9820   41.7590 H   0  0  0  0  0  0  0  0  0  0  0  0
   37.7240   30.6420   43.1940 H   0  0  0  0  0  0  0  0  0  0  0  0
   36.9480   26.1290   42.8920 C   0  0  0  0  0  0  0  0  0  0  0  0
   35.8960   26.3950   42.6780 H   0  0  0  0  0  0  0  0  0  0  0  0
   36.9730   25.9280   44.0010 H   0  0  0  0  0  0  0  0  0  0  0  0
   37.3660   24.9850   42.1010 C   0  0  0  0  0  0  0  0  0  0  0  0
   36.8500   24.6070   40.8760 C   0  0  0  0  0  0  0  0  0  0  0  0
   37.4980   23.4800   40.4460 C   0  0  0  0  0  0  0  0  0  0  0  0
   38.3980   23.2020   41.4280 N   0  0  0  0  0  0  0  0  0  0  0  0
   38.3270   24.0920   42.4150 N   0  0  0  0  0  0  0  0  0  0  0  0
   36.0550   25.0700   40.2770 H   0  0  0  0  0  0  0  0  0  0  0  0
   37.4150   22.8490   39.5490 H   0  0  0  0  0  0  0  0  0  0  0  0
   39.1100   22.4370   41.5350 H   0  0  0  0  0  0  0  0  0  0  0  0
  1  3  1  0  0  0  0
  1 26  1  0  0  0  0
  2  1  1  0  0  0  0
  4  5  1  0  0  0  0
  5  6  2  0  0  0  0
  5  1  1  0  0  0  0
  6 10  1  0  0  0  0
  7  6  1  0  0  0  0
  8  7  2  0  0  0  0
  9  8  1  0  0  0  0
  9  4  2  0  0  0  0
 11  7  1  0  0  0  0
 12  8  1  0  0  0  0
 13  9  1  0  0  0  0
 14  4  1  0  0  0  0
 14 19  1  0  0  0  0
 14 16  2  0  0  0  0
 15 14  2  0  0  0  0
 17 18  1  0  0  0  0
 18 19  2  0  0  0  0
 18 25  1  0  0  0  0
 19 20  1  0  0  0  0
 20 21  1  0  0  0  0
 20 22  2  0  0  0  0
 22 23  1  0  0  0  0
 24 22  1  0  0  0  0
 25 24  2  0  0  0  0
 26 30  1  0  0  0  0
 26 27  1  0  0  0  0
 28 26  1  0  0  0  0
 29 34  2  0  0  0  0
 29 30  1  0  0  0  0
 30 31  2  0  0  0  0
 31 32  1  0  0  0  0
 31 36  1  0  0  0  0
 33 37  1  0  0  0  0
 33 32  2  0  0  0  0
 34 33  1  0  0  0  0
 35 29  1  0  0  0  0
 37 39  1  0  0  0  0
 38 37  1  0  0  0  0
 40 44  2  0  0  0  0
 40 37  1  0  0  0  0
 41 40  1  0  0  0  0
 42 41  2  0  0  0  0
 42 43  1  0  0  0  0
 43 47  1  0  0  0  0
 43 44  1  0  0  0  0
 45 41  1  0  0  0  0
 46 42  1  0  0  0  0
M  END
>  <minimizedAffinity>
-5.8739152

$$$$

 OpenBabel03242522443D

 47 50  0  0  0  0  0  0  0  0999 V2000
   37.6840   28.8660   41.9940 C   0  0  0  0  0  0  0  0  0  0  0  0
   36.7250   29.2770   42.3490 H   0  0  0  0  0  0  0  0  0  0  0  0
   38.0510   29.2450   41.0250 H   0  0  0  0  0  0  0  0  0  0  0  0
   36.8780   27.0090   40.6270 C   0  0  0  0  0  0  0  0  0  0  0  0
   37.5280   27.4310   41.7880 C   0  0  0  0  0  0  0  0  0  0  0  0
   38.0340   26.6050   42.7220 C   0  0  0  0  0  0  0  0  0  0  0  0
   37.9140   25.2410   42.5430 C   0  0  0  0  0  0  0  0  0  0  0  0
   37.3000   24.7270   41.4450 C   0  0  0  0  0  0  0  0  0  0  0  0
   36.7960   25.6160   40.5110 C   0  0  0  0  0  0  0  0  0  0  0  0
   38.5490   26.7890   43.6210 H   0  0  0  0  0  0  0  0  0  0  0  0
   38.2730   24.4590   43.2140 H   0  0  0  0  0  0  0  0  0  0  0  0
   37.1600   23.6650   41.2170 H   0  0  0  0  0  0  0  0  0  0  0  0
   36.2980   25.2340   39.6190 H   0  0  0  0  0  0  0  0  0  0  0  0
   36.2710   28.0120   39.3850 S   0  0  0  0  0  0  0  0  0  0  0  0
   35.1880   28.9750   40.0410 O   0  0  0  0  0  0  0  0  0  0  0  0
   35.4540   27.2320   38.4200 O   0  0  0  0  0  0  0  0  0  0  0  0
   39.3390   27.6610   38.5520 Cl  0  0  0  0  0  0  0  0  0  0  0  0
   38.5520   29.2390   38.3570 C   0  0  0  0  0  0  0  0  0  0  0  0
   37.2260   29.2880   38.7430 C   0  0  0  0  0  0  0  0  0  0  0  0
   36.6950   30.5810   38.5610 C   0  0  0  0  0  0  0  0  0  0  0  0
   35.6360   30.6900   38.8510 H   0  0  0  0  0  0  0  0  0  0  0  0
   37.3240   31.6920   38.0770 C   0  0  0  0  0  0  0  0  0  0  0  0
   36.7720   32.6180   37.9980 H   0  0  0  0  0  0  0  0  0  0  0  0
   38.6440   31.5240   37.7240 C   0  0  0  0  0  3  0  0  0  0  0  0
   39.2620   30.3040   37.8600 C   0  0  0  0  0  3  0  0  0  0  0  0
   38.7700   29.2800   42.9440 C   0  0  0  0  0  0  0  0  0  0  0  0
   39.5170   28.4650   43.1680 H   0  0  0  0  0  0  0  0  0  0  0  0
   38.4150   29.5250   43.9740 H   0  0  0  0  0  0  0  0  0  0  0  0
   38.8870   31.2900   41.4990 C   0  0  0  0  0  0  0  0  0  0  0  0
   39.5530   30.3310   42.2940 C   0  0  0  0  0  0  0  0  0  0  0  0
   40.9200   30.4530   42.4520 C   0  0  0  0  0  0  0  0  0  0  0  0
   41.5450   31.4840   41.8400 N   0  0  0  0  0  0  0  0  0  0  0  0
   40.8930   32.3770   41.0990 C   0  0  0  0  0  0  0  0  0  0  0  0
   39.5550   32.2990   40.9140 N   0  0  0  0  0  0  0  0  0  0  0  0
   37.8430   31.3610   41.2550 H   0  0  0  0  0  0  0  0  0  0  0  0
   41.4300   29.7150   43.0590 H   0  0  0  0  0  0  0  0  0  0  0  0
   41.6740   33.4950   40.4680 C   0  0  0  0  0  0  0  0  0  0  0  0
   42.6000   33.6920   41.0390 H   0  0  0  0  0  0  0  0  0  0  0  0
   41.0300   34.4030   40.6430 H   0  0  0  0  0  0  0  0  0  0  0  0
   41.9670   33.2730   39.0620 C   0  0  0  0  0  0  0  0  0  0  0  0
   42.4490   32.1040   38.5040 C   0  0  0  0  0  0  0  0  0  0  0  0
   42.5990   32.2820   37.1550 C   0  0  0  0  0  0  0  0  0  0  0  0
   42.2000   33.5630   36.9280 N   0  0  0  0  0  0  0  0  0  0  0  0
   41.8220   34.1590   38.0560 N   0  0  0  0  0  0  0  0  0  0  0  0
   42.6990   31.1490   38.9830 H   0  0  0  0  0  0  0  0  0  0  0  0
   42.9450   31.6360   36.3340 H   0  0  0  0  0  0  0  0  0  0  0  0
   42.1410   34.1380   36.0500 H   0  0  0  0  0  0  0  0  0  0  0  0
  1  2  1  0  0  0  0
  1 26  1  0  0  0  0
  3  1  1  0  0  0  0
  4  5  1  0  0  0  0
  5  1  1  0  0  0  0
  5  6  2  0  0  0  0
  6 10  1  0  0  0  0
  7  6  1  0  0  0  0
  7 11  1  0  0  0  0
  8  7  2  0  0  0  0
  9  4  2  0  0  0  0
  9  8  1  0  0  0  0
 12  8  1  0  0  0  0
 13  9  1  0  0  0  0
 14 15  2  0  0  0  0
 14  4  1  0  0  0  0
 16 14  2  0  0  0  0
 18 17  1  0  0  0  0
 18 19  1  0  0  0  0
 19 14  1  0  0  0  0
 20 19  2  0  0  0  0
 20 21  1  0  0  0  0
 22 20  1  0  0  0  0
 23 22  1  0  0  0  0
 24 25  1  0  0  0  0
 24 22  2  0  0  0  0
 25 18  2  0  0  0  0
 26 27  1  0  0  0  0
 26 28  1  0  0  0  0
 29 30  1  0  0  0  0
 30 31  2  0  0  0  0
 30 26  1  0  0  0  0
 31 36  1  0  0  0  0
 32 31  1  0  0  0  0
 33 32  2  0  0  0  0
 34 33  1  0  0  0  0
 34 29  2  0  0  0  0
 35 29  1  0  0  0  0
 37 39  1  0  0  0  0
 37 38  1  0  0  0  0
 37 33  1  0  0  0  0
 40 37  1  0  0  0  0
 41 45  1  0  0  0  0
 41 40  1  0  0  0  0
 42 41  2  0  0  0  0
 43 42  1  0  0  0  0
 43 44  1  0  0  0  0
 44 40  2  0  0  0  0
 46 42  1  0  0  0  0
 47 43  1  0  0  0  0
M  END
>  <minimizedAffinity>
-5.83683634

$$$$

 OpenBabel03242522443D

 47 50  0  0  0  0  0  0  0  0999 V2000
   35.9010   28.5210   38.9690 C   0  0  0  0  0  0  0  0  0  0  0  0
   36.8370   28.6420   39.5380 H   0  0  0  0  0  0  0  0  0  0  0  0
   34.9630   28.6240   39.5400 H   0  0  0  0  0  0  0  0  0  0  0  0
   36.9040   26.3050   38.7520 C   0  0  0  0  0  0  0  0  0  0  0  0
   35.8540   27.1660   38.4320 C   0  0  0  0  0  0  0  0  0  0  0  0
   34.7940   26.8280   37.6760 C   0  0  0  0  0  0  0  0  0  0  0  0
   34.7160   25.5460   37.1690 C   0  0  0  0  0  0  0  0  0  0  0  0
   35.6870   24.6300   37.4240 C   0  0  0  0  0  0  0  0  0  0  0  0
   36.7580   25.0240   38.2070 C   0  0  0  0  0  0  0  0  0  0  0  0
   33.9410   27.3680   37.3740 H   0  0  0  0  0  0  0  0  0  0  0  0
   33.9210   25.1370   36.5440 H   0  0  0  0  0  0  0  0  0  0  0  0
   35.7110   23.5940   37.0680 H   0  0  0  0  0  0  0  0  0  0  0  0
   37.5530   24.3100   38.4300 H   0  0  0  0  0  0  0  0  0  0  0  0
   38.2400   26.6660   39.7530 S   0  0  0  0  0  0  0  0  0  0  0  0
   39.0130   27.8880   39.0900 O   0  0  0  0  0  0  0  0  0  0  0  0
   39.2570   25.5840   39.6970 O   0  0  0  0  0  0  0  0  0  0  0  0
   36.9030   25.2360   42.2820 Cl  0  0  0  0  0  0  0  0  0  0  0  0
   37.4500   26.9180   42.4140 C   0  0  0  0  0  0  0  0  0  0  0  0
   38.0160   27.4450   41.2680 C   0  0  0  0  0  0  0  0  0  0  0  0
   38.4070   28.7840   41.4690 C   0  0  0  0  0  0  0  0  0  0  0  0
   38.8680   29.2670   40.5900 H   0  0  0  0  0  0  0  0  0  0  0  0
   38.2860   29.5390   42.6000 C   0  0  0  0  0  0  0  0  0  0  0  0
   38.6390   30.5600   42.5920 H   0  0  0  0  0  0  0  0  0  0  0  0
   37.7080   28.9080   43.6790 C   0  0  0  0  0  3  0  0  0  0  0  0
   37.2900   27.6030   43.5930 C   0  0  0  0  0  3  0  0  0  0  0  0
   35.8000   29.6320   37.9630 C   0  0  0  0  0  0  0  0  0  0  0  0
   34.8050   30.1630   37.9680 H   0  0  0  0  0  0  0  0  0  0  0  0
   35.8520   29.2980   36.8990 H   0  0  0  0  0  0  0  0  0  0  0  0
   36.5880   31.3660   39.5480 C   0  0  0  0  0  0  0  0  0  0  0  0
   36.7700   30.6600   38.3380 C   0  0  0  0  0  0  0  0  0  0  0  0
   37.8850   30.9500   37.5770 C   0  0  0  0  0  0  0  0  0  0  0  0
   38.7430   31.8920   38.0320 N   0  0  0  0  0  0  0  0  0  0  0  0
   38.5500   32.5400   39.1780 C   0  0  0  0  0  0  0  0  0  0  0  0
   37.4720   32.2920   39.9580 N   0  0  0  0  0  0  0  0  0  0  0  0
   35.7920   31.2890   40.2650 H   0  0  0  0  0  0  0  0  0  0  0  0
   38.0230   30.4100   36.6480 H   0  0  0  0  0  0  0  0  0  0  0  0
   39.5660   33.5620   39.6060 C   0  0  0  0  0  0  0  0  0  0  0  0
   39.0670   34.4420   40.0500 H   0  0  0  0  0  0  0  0  0  0  0  0
   39.9950   33.9350   38.6330 H   0  0  0  0  0  0  0  0  0  0  0  0
   40.5780   33.0300   40.5020 C   0  0  0  0  0  0  0  0  0  0  0  0
   40.6850   31.7190   40.9260 C   0  0  0  0  0  0  0  0  0  0  0  0
   41.7630   31.6060   41.7620 C   0  0  0  0  0  0  0  0  0  0  0  0
   42.2860   32.8610   41.8250 N   0  0  0  0  0  0  0  0  0  0  0  0
   41.5880   33.7130   41.0780 N   0  0  0  0  0  0  0  0  0  0  0  0
   40.0590   30.8500   40.6850 H   0  0  0  0  0  0  0  0  0  0  0  0
   42.2120   30.7700   42.3180 H   0  0  0  0  0  0  0  0  0  0  0  0
   43.1130   33.2550   42.3390 H   0  0  0  0  0  0  0  0  0  0  0  0
  1  2  1  0  0  0  0
  1  3  1  0  0  0  0
  4 14  1  0  0  0  0
  5  4  1  0  0  0  0
  5  1  1  0  0  0  0
  6  5  2  0  0  0  0
  7  8  2  0  0  0  0
  7  6  1  0  0  0  0
  8  9  1  0  0  0  0
  9 13  1  0  0  0  0
  9  4  2  0  0  0  0
 10  6  1  0  0  0  0
 11  7  1  0  0  0  0
 12  8  1  0  0  0  0
 14 19  1  0  0  0  0
 15 14  2  0  0  0  0
 16 14  2  0  0  0  0
 17 18  1  0  0  0  0
 18 25  1  0  0  0  0
 19 20  1  0  0  0  0
 19 18  2  0  0  0  0
 20 22  2  0  0  0  0
 21 20  1  0  0  0  0
 22 24  1  0  0  0  0
 23 22  1  0  0  0  0
 25 24  2  0  0  0  0
 26 27  1  0  0  0  0
 26 30  1  0  0  0  0
 26  1  1  0  0  0  0
 28 26  1  0  0  0  0
 29 34  1  0  0  0  0
 29 35  1  0  0  0  0
 30 29  2  0  0  0  0
 31 32  2  0  0  0  0
 31 30  1  0  0  0  0
 32 33  1  0  0  0  0
 33 37  1  0  0  0  0
 33 34  2  0  0  0  0
 36 31  1  0  0  0  0
 37 38  1  0  0  0  0
 37 40  1  0  0  0  0
 39 37  1  0  0  0  0
 40 41  1  0  0  0  0
 40 44  2  0  0  0  0
 41 42  2  0  0  0  0
 42 43  1  0  0  0  0
 42 46  1  0  0  0  0
 43 47  1  0  0  0  0
 44 43  1  0  0  0  0
 45 41  1  0  0  0  0
M  END
>  <minimizedAffinity>
-5.73842239

$$$$

 OpenBabel03242522443D

 47 50  0  0  0  0  0  0  0  0999 V2000
   39.1780   25.6520   38.6770 C   0  0  0  0  0  0  0  0  0  0  0  0
   38.5810   25.9530   39.5530 H   0  0  0  0  0  0  0  0  0  0  0  0
   38.9560   24.6600   38.2490 H   0  0  0  0  0  0  0  0  0  0  0  0
   40.8600   25.3110   40.4150 C   0  0  0  0  0  0  0  0  0  0  0  0
   40.5790   25.5730   39.0730 C   0  0  0  0  0  0  0  0  0  0  0  0
   41.5110   25.7420   38.1180 C   0  0  0  0  0  0  0  0  0  0  0  0
   42.8460   25.6560   38.4630 C   0  0  0  0  0  0  0  0  0  0  0  0
   43.2250   25.4020   39.7430 C   0  0  0  0  0  0  0  0  0  0  0  0
   42.2300   25.2350   40.6910 C   0  0  0  0  0  0  0  0  0  0  0  0
   41.4360   25.9300   37.0840 H   0  0  0  0  0  0  0  0  0  0  0  0
   43.7020   25.7730   37.7980 H   0  0  0  0  0  0  0  0  0  0  0  0
   44.2530   25.3140   40.1090 H   0  0  0  0  0  0  0  0  0  0  0  0
   42.5040   25.0280   41.7270 H   0  0  0  0  0  0  0  0  0  0  0  0
   39.7170   25.0300   41.6520 S   0  0  0  0  0  0  0  0  0  0  0  0
   40.5270   24.7710   42.9960 O   0  0  0  0  0  0  0  0  0  0  0  0
   39.0200   23.7330   41.4510 O   0  0  0  0  0  0  0  0  0  0  0  0
   36.5950   24.7890   42.3040 Cl  0  0  0  0  0  0  0  0  0  0  0  0
   37.4380   26.3200   42.6080 C   0  0  0  0  0  0  0  0  0  0  0  0
   38.7840   26.3230   42.2950 C   0  0  0  0  0  0  0  0  0  0  0  0
   39.3620   27.5810   42.5600 C   0  0  0  0  0  0  0  0  0  0  0  0
   40.4380   27.6530   42.3320 H   0  0  0  0  0  0  0  0  0  0  0  0
   38.7560   28.7000   43.0550 C   0  0  0  0  0  0  0  0  0  0  0  0
   39.3430   29.5960   43.2030 H   0  0  0  0  0  0  0  0  0  0  0  0
   37.4120   28.5790   43.3300 C   0  0  0  0  0  3  0  0  0  0  0  0
   36.7500   27.3960   43.1100 C   0  0  0  0  0  3  0  0  0  0  0  0
   38.8670   26.5810   37.5380 C   0  0  0  0  0  0  0  0  0  0  0  0
   38.0810   26.1890   36.8300 H   0  0  0  0  0  0  0  0  0  0  0  0
   39.7170   26.7480   36.8330 H   0  0  0  0  0  0  0  0  0  0  0  0
   37.3680   27.6840   39.1740 C   0  0  0  0  0  0  0  0  0  0  0  0
   38.2830   27.7970   38.1030 C   0  0  0  0  0  0  0  0  0  0  0  0
   38.6140   29.0620   37.6600 C   0  0  0  0  0  0  0  0  0  0  0  0
   38.0470   30.1250   38.2760 N   0  0  0  0  0  0  0  0  0  0  0  0
   37.1910   29.9910   39.2860 C   0  0  0  0  0  0  0  0  0  0  0  0
   36.8350   28.7730   39.7550 N   0  0  0  0  0  0  0  0  0  0  0  0
   36.9870   26.8000   39.6490 H   0  0  0  0  0  0  0  0  0  0  0  0
   39.3130   29.1470   36.8370 H   0  0  0  0  0  0  0  0  0  0  0  0
   36.6220   31.2330   39.9150 C   0  0  0  0  0  0  0  0  0  0  0  0
   35.9720   30.9710   40.7700 H   0  0  0  0  0  0  0  0  0  0  0  0
   35.9180   31.6310   39.1300 H   0  0  0  0  0  0  0  0  0  0  0  0
   37.6350   32.1980   40.3070 C   0  0  0  0  0  0  0  0  0  0  0  0
   37.7340   33.5020   39.8610 C   0  0  0  0  0  0  0  0  0  0  0  0
   38.8160   34.0960   40.4530 C   0  0  0  0  0  0  0  0  0  0  0  0
   39.3480   33.1300   41.2500 N   0  0  0  0  0  0  0  0  0  0  0  0
   38.6520   31.9990   41.1690 N   0  0  0  0  0  0  0  0  0  0  0  0
   37.1000   34.0520   39.1530 H   0  0  0  0  0  0  0  0  0  0  0  0
   39.2620   35.1000   40.3940 H   0  0  0  0  0  0  0  0  0  0  0  0
   40.1800   33.1250   41.8920 H   0  0  0  0  0  0  0  0  0  0  0  0
  1  5  1  0  0  0  0
  1  2  1  0  0  0  0
  3  1  1  0  0  0  0
  4  9  1  0  0  0  0
  4 14  1  0  0  0  0
  5  4  2  0  0  0  0
  6  7  2  0  0  0  0
  6  5  1  0  0  0  0
  7  8  1  0  0  0  0
  8 12  1  0  0  0  0
  8  9  2  0  0  0  0
  9 13  1  0  0  0  0
 10  6  1  0  0  0  0
 11  7  1  0  0  0  0
 14 19  1  0  0  0  0
 14 15  2  0  0  0  0
 16 14  2  0  0  0  0
 17 18  1  0  0  0  0
 18 25  1  0  0  0  0
 19 20  1  0  0  0  0
 19 18  2  0  0  0  0
 20 22  2  0  0  0  0
 21 20  1  0  0  0  0
 22 23  1  0  0  0  0
 22 24  1  0  0  0  0
 25 24  2  0  0  0  0
 26 30  1  0  0  0  0
 26  1  1  0  0  0  0
 27 26  1  0  0  0  0
 28 26  1  0  0  0  0
 29 35  1  0  0  0  0
 29 34  1  0  0  0  0
 30 29  2  0  0  0  0
 31 30  1  0  0  0  0
 31 32  2  0  0  0  0
 32 33  1  0  0  0  0
 33 34  2  0  0  0  0
 33 37  1  0  0  0  0
 36 31  1  0  0  0  0
 37 40  1  0  0  0  0
 37 38  1  0  0  0  0
 39 37  1  0  0  0  0
 40 44  2  0  0  0  0
 41 40  1  0  0  0  0
 41 42  2  0  0  0  0
 42 43  1  0  0  0  0
 43 47  1  0  0  0  0
 44 43  1  0  0  0  0
 45 41  1  0  0  0  0
 46 42  1  0  0  0  0
M  END
>  <minimizedAffinity>
-5.73163271

$$$$
