
 OpenBabel03252506363D

 44 47  0  0  1  0  0  0  0  0999 V2000
   44.4950   35.6410   45.0780 C   0  0  0  0  0  0  0  0  0  0  0  0
   45.1280   35.6040   43.8260 C   0  0  0  0  0  0  0  0  0  0  0  0
   46.0190   34.6170   43.5660 C   0  0  0  0  0  0  0  0  0  0  0  0
   46.2440   33.7140   44.5490 N   0  0  0  0  0  0  0  0  0  0  0  0
   45.6430   33.7530   45.7300 C   0  0  0  0  0  0  0  0  0  0  0  0
   44.7650   34.7120   46.0100 N   0  0  0  0  0  0  0  0  0  0  0  0
   45.9630   32.7450   46.7030 N   0  0  0  0  0  0  0  0  0  0  0  0
   45.2360   32.5280   47.8990 C   0  0  0  0  0  0  0  0  0  0  0  0
   46.3170   32.1610   48.9010 C   0  0  0  0  0  0  0  0  0  0  0  0
   47.5840   32.0230   48.1160 C   0  0  0  0  0  0  0  0  0  0  0  0
   47.0650   31.8050   46.6950 C   0  0  1  0  0  0  0  0  0  0  0  0
   43.7850   36.4410   45.2620 H   0  0  0  0  0  0  0  0  0  0  0  0
   46.5180   34.5650   42.6130 H   0  0  0  0  0  0  0  0  0  0  0  0
   44.4000   31.9170   48.0060 H   0  0  0  0  0  0  0  0  0  0  0  0
   44.9040   33.5560   48.2550 H   0  0  0  0  0  0  0  0  0  0  0  0
   46.0760   31.1280   49.2890 H   0  0  0  0  0  0  0  0  0  0  0  0
   46.3600   32.7980   49.7810 H   0  0  0  0  0  0  0  0  0  0  0  0
   48.1770   31.1730   48.4640 H   0  0  0  0  0  0  0  0  0  0  0  0
   48.1260   33.0000   48.2020 H   0  0  0  0  0  0  0  0  0  0  0  0
   47.8700   32.1000   46.0140 H   0  0  0  0  0  0  0  0  0  0  0  0
   44.7880   36.6340   42.8830 N   0  0  0  0  0  0  0  0  0  0  0  0
   45.6150   36.9330   42.3040 H   0  0  0  0  0  0  0  0  0  0  0  0
   43.8800   37.0780   42.7300 H   0  0  0  0  0  0  0  0  0  0  0  0
   46.5090   30.1260   46.5320 S   0  0  0  0  0  0  0  0  0  0  0  0
   46.4400   29.9530   43.2010 O   0  0  0  0  0  0  0  0  0  0  0  0
   45.5120   29.7100   43.9890 C   0  0  0  0  0  0  0  0  0  0  0  0
   45.1910   29.8260   45.4290 C   0  0  1  0  0  0  0  0  0  0  0  0
   44.4160   28.5550   45.6770 C   0  0  0  0  0  0  0  0  0  0  0  0
   43.3990   28.7070   44.5440 C   0  0  0  0  0  0  0  0  0  0  0  0
   44.3000   29.1300   43.4780 N   0  0  0  0  0  0  0  0  0  0  0  0
   44.3520   30.5790   45.3830 H   0  0  0  0  0  0  0  0  0  0  0  0
   43.9610   28.4940   46.6650 H   0  0  0  0  0  0  0  0  0  0  0  0
   45.0770   27.7090   45.4250 H   0  0  0  0  0  0  0  0  0  0  0  0
   42.9790   27.7250   44.2730 H   0  0  0  0  0  0  0  0  0  0  0  0
   42.6310   29.4610   44.7890 H   0  0  0  0  0  0  0  0  0  0  0  0
   43.1520   31.5930   42.4010 Cl  0  0  0  0  0  0  0  0  0  0  0  0
   43.3520   30.0870   41.5270 C   0  0  0  0  0  0  0  0  0  0  0  0
   43.9100   28.9380   42.0990 C   0  0  0  0  0  0  0  0  0  0  0  0
   44.0570   27.7640   41.3910 C   0  0  0  0  0  0  0  0  0  0  0  0
   44.4990   26.9290   41.9170 H   0  0  0  0  0  0  0  0  0  0  0  0
   43.6300   27.7420   40.0640 C   0  0  0  0  0  0  0  0  0  0  0  0
   43.7510   26.8090   39.5160 H   0  0  0  0  0  0  0  0  0  0  0  0
   43.0760   28.8780   39.4930 C   0  0  0  0  0  3  0  0  0  0  0  0
   42.9300   30.0500   40.2020 C   0  0  0  0  0  3  0  0  0  0  0  0
  1 12  1  0  0  0  0
  1  6  1  0  0  0  0
  2  1  2  0  0  0  0
  3  2  1  0  0  0  0
  3  4  2  0  0  0  0
  4  5  1  0  0  0  0
  5  6  2  0  0  0  0
  5  7  1  0  0  0  0
  7  8  1  0  0  0  0
  8 14  1  0  0  0  0
  8 15  1  0  0  0  0
  8  9  1  0  0  0  0
  9 16  1  0  0  0  0
  9 17  1  0  0  0  0
 10 19  1  0  0  0  0
 10 18  1  0  0  0  0
 10  9  1  0  0  0  0
 11 20  1  6  0  0  0
 11  7  1  0  0  0  0
 11 10  1  0  0  0  0
 13  3  1  0  0  0  0
 21  2  1  0  0  0  0
 22 21  1  0  0  0  0
 23 21  1  0  0  0  0
 24 11  1  0  0  0  0
 25 26  2  0  0  0  0
 26 27  1  0  0  0  0
 27 31  1  1  0  0  0
 27 28  1  0  0  0  0
 27 24  1  0  0  0  0
 28 32  1  0  0  0  0
 29 35  1  0  0  0  0
 29 28  1  0  0  0  0
 30 26  1  0  0  0  0
 30 29  1  0  0  0  0
 33 28  1  0  0  0  0
 34 29  1  0  0  0  0
 37 38  1  0  0  0  0
 37 36  1  0  0  0  0
 38 30  1  0  0  0  0
 39 40  1  0  0  0  0
 39 38  2  0  0  0  0
 41 39  1  0  0  0  0
 42 41  1  0  0  0  0
 43 41  2  0  0  0  0
 43 44  1  0  0  0  0
 44 37  2  0  0  0  0
M  END
>  <minimizedAffinity>
-5.1586318

>  <minimizedRMSD>
0.966288805

$$$$
