
 OpenBabel03252506373D

 44 47  0  0  1  0  0  0  0  0999 V2000
   44.5170   35.4900   45.1330 C   0  0  0  0  0  0  0  0  0  0  0  0
   45.1800   35.4820   43.8960 C   0  0  0  0  0  0  0  0  0  0  0  0
   46.1100   34.5280   43.6510 C   0  0  0  0  0  0  0  0  0  0  0  0
   46.3430   33.6260   44.6350 N   0  0  0  0  0  0  0  0  0  0  0  0
   45.7140   33.6380   45.8010 C   0  0  0  0  0  0  0  0  0  0  0  0
   44.7970   34.5640   46.0660 N   0  0  0  0  0  0  0  0  0  0  0  0
   46.0460   32.6360   46.7770 N   0  0  0  0  0  0  0  0  0  0  0  0
   45.2990   32.3860   47.9540 C   0  0  0  0  0  0  0  0  0  0  0  0
   46.3690   32.0500   48.9790 C   0  0  0  0  0  0  0  0  0  0  0  0
   47.6570   31.9610   48.2240 C   0  0  0  0  0  0  0  0  0  0  0  0
   47.1790   31.7350   46.7890 C   0  0  1  0  0  0  0  0  0  0  0  0
   43.7770   36.2630   45.3050 H   0  0  0  0  0  0  0  0  0  0  0  0
   46.6330   34.4990   42.7110 H   0  0  0  0  0  0  0  0  0  0  0  0
   44.4820   31.7470   48.0380 H   0  0  0  0  0  0  0  0  0  0  0  0
   44.9240   33.4000   48.3080 H   0  0  0  0  0  0  0  0  0  0  0  0
   46.1540   31.0070   49.3560 H   0  0  0  0  0  0  0  0  0  0  0  0
   46.3690   32.6840   49.8630 H   0  0  0  0  0  0  0  0  0  0  0  0
   48.2710   31.1300   48.5810 H   0  0  0  0  0  0  0  0  0  0  0  0
   48.1630   32.9560   48.3270 H   0  0  0  0  0  0  0  0  0  0  0  0
   47.9900   32.0610   46.1290 H   0  0  0  0  0  0  0  0  0  0  0  0
   44.8270   36.5060   42.9510 N   0  0  0  0  0  0  0  0  0  0  0  0
   45.6560   36.8360   42.3930 H   0  0  0  0  0  0  0  0  0  0  0  0
   43.9080   36.9190   42.7780 H   0  0  0  0  0  0  0  0  0  0  0  0
   46.6850   30.0380   46.6050 S   0  0  0  0  0  0  0  0  0  0  0  0
   45.5670   30.4680   43.4910 O   0  0  0  0  0  0  0  0  0  0  0  0
   44.9690   29.9390   44.4420 C   0  0  0  0  0  0  0  0  0  0  0  0
   45.1180   29.7360   45.9000 C   0  0  1  0  0  0  0  0  0  0  0  0
   44.5900   28.3330   46.0730 C   0  0  0  0  0  0  0  0  0  0  0  0
   43.2530   28.5240   45.3540 C   0  0  0  0  0  0  0  0  0  0  0  0
   43.7180   29.2750   44.1930 N   0  0  0  0  0  0  0  0  0  0  0  0
   44.2410   30.3390   46.2720 H   0  0  0  0  0  0  0  0  0  0  0  0
   44.4840   28.0200   47.1110 H   0  0  0  0  0  0  0  0  0  0  0  0
   45.2130   27.6660   45.4550 H   0  0  0  0  0  0  0  0  0  0  0  0
   42.8640   27.5540   45.0050 H   0  0  0  0  0  0  0  0  0  0  0  0
   42.5350   29.0860   45.9760 H   0  0  0  0  0  0  0  0  0  0  0  0
   44.5020   27.0460   42.4720 Cl  0  0  0  0  0  0  0  0  0  0  0  0
   43.2580   28.2290   42.1160 C   0  0  0  0  0  0  0  0  0  0  0  0
   42.9270   29.2780   42.9830 C   0  0  0  0  0  0  0  0  0  0  0  0
   41.9440   30.1960   42.6810 C   0  0  0  0  0  0  0  0  0  0  0  0
   41.7590   30.9700   43.4130 H   0  0  0  0  0  0  0  0  0  0  0  0
   41.2710   30.0580   41.4680 C   0  0  0  0  0  0  0  0  0  0  0  0
   40.4970   30.7900   41.2410 H   0  0  0  0  0  0  0  0  0  0  0  0
   41.5950   29.0220   40.6060 C   0  0  0  0  0  3  0  0  0  0  0  0
   42.5780   28.1040   40.9090 C   0  0  0  0  0  3  0  0  0  0  0  0
  1 12  1  0  0  0  0
  1  6  1  0  0  0  0
  2  1  2  0  0  0  0
  3  2  1  0  0  0  0
  3  4  2  0  0  0  0
  4  5  1  0  0  0  0
  5  6  2  0  0  0  0
  5  7  1  0  0  0  0
  7 11  1  0  0  0  0
  7  8  1  0  0  0  0
  8 14  1  0  0  0  0
  8 15  1  0  0  0  0
  8  9  1  0  0  0  0
  9 16  1  0  0  0  0
  9 17  1  0  0  0  0
 10 19  1  0  0  0  0
 10 18  1  0  0  0  0
 10  9  1  0  0  0  0
 11 20  1  6  0  0  0
 11 10  1  0  0  0  0
 13  3  1  0  0  0  0
 21  2  1  0  0  0  0
 22 21  1  0  0  0  0
 23 21  1  0  0  0  0
 24 11  1  0  0  0  0
 25 26  2  0  0  0  0
 26 27  1  0  0  0  0
 27 28  1  0  0  0  0
 27 31  1  1  0  0  0
 27 24  1  0  0  0  0
 28 32  1  0  0  0  0
 29 35  1  0  0  0  0
 29 28  1  0  0  0  0
 30 26  1  0  0  0  0
 30 29  1  0  0  0  0
 33 28  1  0  0  0  0
 34 29  1  0  0  0  0
 37 36  1  0  0  0  0
 37 38  1  0  0  0  0
 38 30  1  0  0  0  0
 39 38  2  0  0  0  0
 39 40  1  0  0  0  0
 41 39  1  0  0  0  0
 42 41  1  0  0  0  0
 43 44  1  0  0  0  0
 43 41  2  0  0  0  0
 44 37  2  0  0  0  0
M  END
>  <minimizedAffinity>
-5.30544472

>  <minimizedRMSD>
0.09661486

$$$$
