
 OpenBabel03252506373D

 44 47  0  0  1  0  0  0  0  0999 V2000
   44.5180   35.4890   45.1330 C   0  0  0  0  0  0  0  0  0  0  0  0
   45.1800   35.4810   43.8960 C   0  0  0  0  0  0  0  0  0  0  0  0
   46.1100   34.5270   43.6510 C   0  0  0  0  0  0  0  0  0  0  0  0
   46.3430   33.6250   44.6350 N   0  0  0  0  0  0  0  0  0  0  0  0
   45.7140   33.6380   45.8010 C   0  0  0  0  0  0  0  0  0  0  0  0
   44.7970   34.5640   46.0660 N   0  0  0  0  0  0  0  0  0  0  0  0
   46.0460   32.6360   46.7770 N   0  0  0  0  0  0  0  0  0  0  0  0
   45.3000   32.3870   47.9540 C   0  0  0  0  0  0  0  0  0  0  0  0
   46.3690   32.0500   48.9790 C   0  0  0  0  0  0  0  0  0  0  0  0
   47.6570   31.9610   48.2240 C   0  0  0  0  0  0  0  0  0  0  0  0
   47.1790   31.7340   46.7890 C   0  0  1  0  0  0  0  0  0  0  0  0
   43.7770   36.2630   45.3050 H   0  0  0  0  0  0  0  0  0  0  0  0
   46.6330   34.4970   42.7100 H   0  0  0  0  0  0  0  0  0  0  0  0
   44.4820   31.7480   48.0390 H   0  0  0  0  0  0  0  0  0  0  0  0
   44.9250   33.4010   48.3080 H   0  0  0  0  0  0  0  0  0  0  0  0
   46.1540   31.0070   49.3560 H   0  0  0  0  0  0  0  0  0  0  0  0
   46.3700   32.6840   49.8630 H   0  0  0  0  0  0  0  0  0  0  0  0
   48.2710   31.1290   48.5800 H   0  0  0  0  0  0  0  0  0  0  0  0
   48.1640   32.9550   48.3270 H   0  0  0  0  0  0  0  0  0  0  0  0
   47.9890   32.0590   46.1280 H   0  0  0  0  0  0  0  0  0  0  0  0
   44.8270   36.5050   42.9510 N   0  0  0  0  0  0  0  0  0  0  0  0
   45.6560   36.8350   42.3920 H   0  0  0  0  0  0  0  0  0  0  0  0
   43.9080   36.9180   42.7780 H   0  0  0  0  0  0  0  0  0  0  0  0
   46.6840   30.0370   46.6050 S   0  0  0  0  0  0  0  0  0  0  0  0
   45.5680   30.4680   43.4910 O   0  0  0  0  0  0  0  0  0  0  0  0
   44.9690   29.9390   44.4420 C   0  0  0  0  0  0  0  0  0  0  0  0
   45.1180   29.7360   45.9000 C   0  0  1  0  0  0  0  0  0  0  0  0
   44.5890   28.3330   46.0720 C   0  0  0  0  0  0  0  0  0  0  0  0
   43.2520   28.5250   45.3530 C   0  0  0  0  0  0  0  0  0  0  0  0
   43.7180   29.2750   44.1920 N   0  0  0  0  0  0  0  0  0  0  0  0
   44.2400   30.3390   46.2710 H   0  0  0  0  0  0  0  0  0  0  0  0
   44.4830   28.0200   47.1100 H   0  0  0  0  0  0  0  0  0  0  0  0
   45.2120   27.6660   45.4550 H   0  0  0  0  0  0  0  0  0  0  0  0
   42.8630   27.5540   45.0040 H   0  0  0  0  0  0  0  0  0  0  0  0
   42.5340   29.0860   45.9740 H   0  0  0  0  0  0  0  0  0  0  0  0
   44.5010   27.0460   42.4720 Cl  0  0  0  0  0  0  0  0  0  0  0  0
   43.2580   28.2290   42.1150 C   0  0  0  0  0  0  0  0  0  0  0  0
   42.9280   29.2780   42.9820 C   0  0  0  0  0  0  0  0  0  0  0  0
   41.9450   30.1970   42.6800 C   0  0  0  0  0  0  0  0  0  0  0  0
   41.7610   30.9710   43.4110 H   0  0  0  0  0  0  0  0  0  0  0  0
   41.2720   30.0600   41.4670 C   0  0  0  0  0  0  0  0  0  0  0  0
   40.4990   30.7930   41.2390 H   0  0  0  0  0  0  0  0  0  0  0  0
   41.5960   29.0230   40.6040 C   0  0  0  0  0  3  0  0  0  0  0  0
   42.5780   28.1050   40.9080 C   0  0  0  0  0  3  0  0  0  0  0  0
  1 12  1  0  0  0  0
  1  6  1  0  0  0  0
  2  1  2  0  0  0  0
  3  2  1  0  0  0  0
  3  4  2  0  0  0  0
  4  5  1  0  0  0  0
  5  6  2  0  0  0  0
  5  7  1  0  0  0  0
  7 11  1  0  0  0  0
  7  8  1  0  0  0  0
  8 14  1  0  0  0  0
  8 15  1  0  0  0  0
  8  9  1  0  0  0  0
  9 16  1  0  0  0  0
  9 17  1  0  0  0  0
 10 19  1  0  0  0  0
 10 18  1  0  0  0  0
 10  9  1  0  0  0  0
 11 20  1  6  0  0  0
 11 10  1  0  0  0  0
 13  3  1  0  0  0  0
 21  2  1  0  0  0  0
 22 21  1  0  0  0  0
 23 21  1  0  0  0  0
 24 11  1  0  0  0  0
 25 26  2  0  0  0  0
 26 27  1  0  0  0  0
 27 28  1  0  0  0  0
 27 31  1  1  0  0  0
 27 24  1  0  0  0  0
 28 32  1  0  0  0  0
 29 35  1  0  0  0  0
 29 28  1  0  0  0  0
 30 26  1  0  0  0  0
 30 29  1  0  0  0  0
 33 28  1  0  0  0  0
 34 29  1  0  0  0  0
 37 36  1  0  0  0  0
 37 38  1  0  0  0  0
 38 30  1  0  0  0  0
 39 38  2  0  0  0  0
 39 40  1  0  0  0  0
 41 39  1  0  0  0  0
 42 41  1  0  0  0  0
 43 44  1  0  0  0  0
 43 41  2  0  0  0  0
 44 37  2  0  0  0  0
M  END
>  <minimizedAffinity>
-5.30527878

>  <minimizedRMSD>
0.409398198

$$$$
