REMARK  Name = 
REMARK  4 active torsions:
REMARK  status: ('A' for Active; 'I' for Inactive)
REMARK    1  A    between atoms: C_2  and  N_12
REMARK    2  A    between atoms: C_11  and  S_13
REMARK    3  A    between atoms: S_13  and  C_16
REMARK    4  A    between atoms: N_19  and  C_38
REMARK                            x       y       z     vdW  Elec       q    Type
REMARK                         _______ _______ _______ _____ _____    ______ ____
ROOT
ATOM      1  C   UNL     1      44.506  35.536  45.119  0.00  0.00    +0.000 A 
ATOM      2  C   UNL     1      45.165  35.509  43.880  0.00  0.00    +0.000 A 
ATOM      3  C   UNL     1      46.084  34.543  43.642  0.00  0.00    +0.000 A 
ATOM      4  N   UNL     1      46.311  33.649  44.634  0.00  0.00    +0.000 NA
ATOM      5  C   UNL     1      45.686  33.679  45.802  0.00  0.00    +0.000 A 
ATOM      6  N   UNL     1      44.779  34.617  46.060  0.00  0.00    +0.000 NA
ATOM      7  N   UNL     1      46.010  32.683  46.786  0.00  0.00    +0.000 N 
ATOM      8  C   UNL     1      45.265  32.453  47.968  0.00  0.00    +0.000 C 
ATOM      9  C   UNL     1      46.334  32.116  48.993  0.00  0.00    +0.000 C 
ATOM     10  C   UNL     1      47.619  32.006  48.235  0.00  0.00    +0.000 C 
ATOM     11  C   UNL     1      47.134  31.770  46.804  0.00  0.00    +0.000 C 
ATOM     12  H   UNL     1      43.774  36.319  45.285  0.00  0.00    +0.000 HD
ATOM     13  H   UNL     1      46.604  34.499  42.700  0.00  0.00    +0.000 HD
ATOM     14  H   UNL     1      44.441  31.823  48.061  0.00  0.00    +0.000 HD
ATOM     15  H   UNL     1      44.901  33.474  48.313  0.00  0.00    +0.000 HD
ATOM     16  H   UNL     1      46.110  31.079  49.381  0.00  0.00    +0.000 HD
ATOM     17  H   UNL     1      46.344  32.758  49.871  0.00  0.00    +0.000 HD
ATOM     18  H   UNL     1      48.225  31.172  48.598  0.00  0.00    +0.000 HD
ATOM     19  H   UNL     1      48.136  32.996  48.327  0.00  0.00    +0.000 HD
ATOM     20  H   UNL     1      47.946  32.081  46.138  0.00  0.00    +0.000 HD
ENDROOT
BRANCH   2  21
ATOM     21  N   UNL     1      44.819  36.527  42.926  0.00  0.00    +0.000 N 
ATOM     22  H   UNL     1      45.650  36.843  42.362  0.00  0.00    +0.000 HD
ATOM     23  H   UNL     1      43.904  36.948  42.752  0.00  0.00    +0.000 HD
ENDBRANCH   2  21
BRANCH  11  24
ATOM     24  S   UNL     1      46.622  30.077  46.638  0.00  0.00    +0.000 S 
BRANCH  24  27
ATOM     25  O   UNL     1      45.609  30.511  43.489  0.00  0.00    +0.000 OA
ATOM     26  C   UNL     1      44.978  29.985  44.420  0.00  0.00    +0.000 C 
ATOM     27  C   UNL     1      45.078  29.782  45.882  0.00  0.00    +0.000 C 
ATOM     28  C   UNL     1      44.538  28.381  46.038  0.00  0.00    +0.000 C 
ATOM     29  C   UNL     1      43.226  28.578  45.275  0.00  0.00    +0.000 C 
ATOM     30  N   UNL     1      43.733  29.326  44.130  0.00  0.00    +0.000 N 
ATOM     31  H   UNL     1      44.191  30.389  46.225  0.00  0.00    +0.000 HD
ATOM     32  H   UNL     1      44.397  28.069  47.072  0.00  0.00    +0.000 HD
ATOM     33  H   UNL     1      45.178  27.711  45.441  0.00  0.00    +0.000 HD
ATOM     34  H   UNL     1      42.845  27.609  44.914  0.00  0.00    +0.000 HD
ATOM     35  H   UNL     1      42.491  29.143  45.873  0.00  0.00    +0.000 HD
BRANCH  30  38
ATOM     36 CL   UNL     1      40.877  29.046  44.685  0.00  0.00    +0.000 Cl
ATOM     37  C   UNL     1      41.603  29.200  43.097  0.00  0.00    +0.000 A 
ATOM     38  C   UNL     1      42.982  29.332  42.895  0.00  0.00    +0.000 A 
ATOM     39  C   UNL     1      43.530  29.452  41.636  0.00  0.00    +0.000 A 
ATOM     40  H   UNL     1      44.605  29.549  41.579  0.00  0.00    +0.000 HD
ATOM     41  C   UNL     1      42.665  29.439  40.542  0.00  0.00    +0.000 A 
ATOM     42  H   UNL     1      43.110  29.535  39.552  0.00  0.00    +0.000 HD
ATOM     43  C   UNL     1      41.299  29.309  40.737  0.00  0.00    +0.000 A 
ATOM     44  C   UNL     1      40.753  29.189  41.997  0.00  0.00    +0.000 A 
ENDBRANCH  30  38
ENDBRANCH  24  27
ENDBRANCH  11  24
TORSDOF 4
