
 OpenBabel03242512173D

 33 35  0  0  0  0  0  0  0  0999 V2000
   48.3820   33.1550   41.2220 C   0  0  0  0  0  0  0  0  0  0  0  0
   47.9910   34.3480   41.7910 C   0  0  0  0  0  0  0  0  0  0  0  0
   48.9360   35.0810   42.4950 C   0  0  0  0  0  0  0  0  0  0  0  0
   50.2300   34.5980   42.6070 C   0  0  0  0  0  0  0  0  0  0  0  0
   50.5470   33.4140   42.0220 C   0  0  0  0  0  0  0  0  0  0  0  0
   49.6430   32.6340   41.3020 C   0  0  0  0  0  0  0  0  0  0  0  0
   48.6020   36.0200   42.9340 H   0  0  0  0  0  0  0  0  0  0  0  0
   50.9630   35.1690   43.1550 H   0  0  0  0  0  0  0  0  0  0  0  0
   51.5750   33.0350   42.1150 H   0  0  0  0  0  0  0  0  0  0  0  0
   46.5790   34.7390   41.5920 C   0  0  0  0  0  0  0  0  0  0  0  0
   46.6220   35.7590   41.1170 H   0  0  0  0  0  0  0  0  0  0  0  0
   46.0550   34.0860   40.9220 H   0  0  0  0  0  0  0  0  0  0  0  0
   45.9140   34.9290   42.9330 C   0  0  0  0  0  0  0  0  0  0  0  0
   46.0190   33.8790   43.8590 C   0  0  0  0  0  0  0  0  0  0  0  0
   45.4150   34.0570   45.0950 C   0  0  0  0  0  0  0  0  0  0  0  0
   44.7680   35.2190   45.3340 N   0  0  0  0  0  0  0  0  0  0  0  0
   44.6840   36.2150   44.4210 C   0  0  0  0  0  0  0  0  0  0  0  0
   45.2570   36.0630   43.2270 N   0  0  0  0  0  0  0  0  0  0  0  0
   46.5510   32.9830   43.5910 H   0  0  0  0  0  0  0  0  0  0  0  0
   45.4610   33.2960   45.8400 H   0  0  0  0  0  0  0  0  0  0  0  0
   44.1400   37.0970   44.7290 H   0  0  0  0  0  0  0  0  0  0  0  0
   47.4900   32.3370   40.4860 O   0  0  0  0  0  0  0  0  0  0  0  0
   47.1130   31.5560   41.0180 H   0  0  0  0  0  0  0  0  0  0  0  0
   50.0770   31.4460   40.7470 O   0  0  0  0  0  0  0  0  0  0  0  0
   49.5990   32.1430   37.8820 Cl  0  0  0  0  0  0  0  0  0  0  0  0
   51.1000   31.6870   38.6150 C   0  0  0  0  0  0  0  0  0  0  0  0
   51.2020   31.3880   39.9500 C   0  0  0  0  0  0  0  0  0  0  0  0
   52.4360   31.0330   40.4580 C   0  0  0  0  0  0  0  0  0  0  0  0
   52.5230   30.7990   41.4940 H   0  0  0  0  0  0  0  0  0  0  0  0
   53.5770   30.9730   39.6530 C   0  0  0  0  0  0  0  0  0  0  0  0
   54.5220   30.6900   40.0970 H   0  0  0  0  0  0  0  0  0  0  0  0
   53.4210   31.2830   38.3220 C   0  0  0  0  0  0  0  0  0  0  0  0
   52.2230   31.6350   37.7870 C   0  0  0  0  0  0  0  0  0  0  0  0
  1  6  2  0  0  0  0
  1  2  1  0  0  0  0
  2  3  2  0  0  0  0
  3  4  1  0  0  0  0
  3  7  1  0  0  0  0
  4  8  1  0  0  0  0
  5  9  1  0  0  0  0
  5  4  2  0  0  0  0
  6  5  1  0  0  0  0
 10  2  1  0  0  0  0
 10 13  1  0  0  0  0
 11 10  1  0  0  0  0
 12 10  1  0  0  0  0
 13 18  2  0  0  0  0
 13 14  1  0  0  0  0
 14 15  2  0  0  0  0
 15 16  1  0  0  0  0
 15 20  1  0  0  0  0
 17 21  1  0  0  0  0
 17 16  2  0  0  0  0
 18 17  1  0  0  0  0
 19 14  1  0  0  0  0
 22 23  1  0  0  0  0
 22  1  1  0  0  0  0
 24  6  1  0  0  0  0
 25 26  1  0  0  0  0
 26 27  1  0  0  0  0
 27 28  2  0  0  0  0
 27 24  1  0  0  0  0
 28 29  1  0  0  0  0
 30 31  1  0  0  0  0
 30 28  1  0  0  0  0
 32 30  2  0  0  0  0
 33 32  1  0  0  0  0
 33 26  2  0  0  0  0
M  END
>  <minimizedAffinity>
-5.63958263

>  <minimizedRMSD>
1.8840903

$$$$
