
 OpenBabel03242511073D

 27 29  0  0  1  0  0  0  0  0999 V2000
   37.1480   27.2860   42.4690 C   0  0  1  0  0  0  0  0  0  0  0  0
   36.3320   27.6300   43.6770 C   0  0  0  0  0  0  0  0  0  0  0  0
   37.2910   28.6350   43.0250 C   0  0  2  0  0  0  0  0  0  0  0  0
   36.5490   27.1120   41.5660 H   0  0  0  0  0  0  0  0  0  0  0  0
   35.2640   27.8340   43.5400 H   0  0  0  0  0  0  0  0  0  0  0  0
   36.6320   27.1160   44.6000 H   0  0  0  0  0  0  0  0  0  0  0  0
   38.2240   28.7730   43.6510 H   0  0  0  0  0  0  0  0  0  0  0  0
   39.2670   24.2770   41.9720 C   0  0  0  0  0  0  0  0  0  0  0  0
   40.3270   24.5300   42.9120 C   0  0  0  0  0  0  0  0  0  0  0  0
   40.2790   25.7360   43.6800 C   0  0  0  0  0  0  0  0  0  0  0  0
   39.2600   26.5810   43.5010 N   0  0  0  0  0  0  0  0  0  0  0  0
   38.2680   26.3080   42.5980 C   0  0  0  0  0  0  0  0  0  0  0  0
   38.2810   25.1680   41.8480 N   0  0  0  0  0  0  0  0  0  0  0  0
   39.3320   23.3600   41.4090 H   0  0  0  0  0  0  0  0  0  0  0  0
   41.1180   23.8280   43.0210 H   0  0  0  0  0  0  0  0  0  0  0  0
   41.0980   25.8790   44.3710 H   0  0  0  0  0  0  0  0  0  0  0  0
   36.7100   29.7940   42.4430 N   0  0  0  0  0  0  0  0  0  0  0  0
   35.9860   30.2570   43.0430 H   0  0  0  0  0  0  0  0  0  0  0  0
   34.7980   29.0970   40.2730 Cl  0  0  0  0  0  0  0  0  0  0  0  0
   36.2100   30.1200   40.0690 C   0  0  0  0  0  0  0  0  0  0  0  0
   37.0110   30.3580   41.1670 C   0  0  0  0  0  0  0  0  0  0  0  0
   38.1220   31.1590   41.0210 C   0  0  0  0  0  0  0  0  0  0  0  0
   38.7960   31.3910   41.8360 H   0  0  0  0  0  0  0  0  0  0  0  0
   38.4250   31.7100   39.7970 C   0  0  0  0  0  0  0  0  0  0  0  0
   39.2930   32.3400   39.6630 H   0  0  0  0  0  0  0  0  0  0  0  0
   37.6370   31.4820   38.6900 C   0  0  0  0  0  3  0  0  0  0  0  0
   36.5150   30.6740   38.8350 C   0  0  0  0  0  3  0  0  0  0  0  0
  1  4  1  6  0  0  0
  1 12  1  0  0  0  0
  1  3  1  0  0  0  0
  1  2  1  0  0  0  0
  2  6  1  0  0  0  0
  3  7  1  1  0  0  0
  3  2  1  0  0  0  0
  5  2  1  0  0  0  0
  8  9  1  0  0  0  0
  9 15  1  0  0  0  0
  9 10  2  0  0  0  0
 10 16  1  0  0  0  0
 11 10  1  0  0  0  0
 12 11  2  0  0  0  0
 13  8  2  0  0  0  0
 13 12  1  0  0  0  0
 14  8  1  0  0  0  0
 17  3  1  0  0  0  0
 17 18  1  0  0  0  0
 20 19  1  0  0  0  0
 20 21  1  0  0  0  0
 21 17  1  0  0  0  0
 22 21  2  0  0  0  0
 22 23  1  0  0  0  0
 24 22  1  0  0  0  0
 25 24  1  0  0  0  0
 26 27  1  0  0  0  0
 26 24  2  0  0  0  0
 27 20  2  0  0  0  0
M  END
>  <minimizedAffinity>
-5.19510365

$$$$

 OpenBabel03242511073D

 27 29  0  0  1  0  0  0  0  0999 V2000
   36.9920   30.2770   39.4890 C   0  0  1  0  0  0  0  0  0  0  0  0
   36.8730   31.6890   39.9750 C   0  0  0  0  0  0  0  0  0  0  0  0
   36.1590   30.5220   40.6710 C   0  0  2  0  0  0  0  0  0  0  0  0
   38.0000   29.8580   39.5900 H   0  0  0  0  0  0  0  0  0  0  0  0
   37.7190   32.1220   40.5190 H   0  0  0  0  0  0  0  0  0  0  0  0
   36.3020   32.3580   39.3180 H   0  0  0  0  0  0  0  0  0  0  0  0
   35.0490   30.5350   40.4510 H   0  0  0  0  0  0  0  0  0  0  0  0
   34.5430   28.9470   37.0340 C   0  0  0  0  0  0  0  0  0  0  0  0
   35.2460   29.1670   35.7990 C   0  0  0  0  0  0  0  0  0  0  0  0
   36.5390   29.7750   35.8530 C   0  0  0  0  0  0  0  0  0  0  0  0
   37.0480   30.1160   37.0410 N   0  0  0  0  0  0  0  0  0  0  0  0
   36.3500   29.8920   38.1970 C   0  0  0  0  0  0  0  0  0  0  0  0
   35.1140   29.3140   38.1830 N   0  0  0  0  0  0  0  0  0  0  0  0
   33.5700   28.4860   36.9600 H   0  0  0  0  0  0  0  0  0  0  0  0
   34.8010   28.8780   34.8770 H   0  0  0  0  0  0  0  0  0  0  0  0
   37.0250   29.9190   34.8980 H   0  0  0  0  0  0  0  0  0  0  0  0
   36.5660   30.2200   41.9980 N   0  0  0  0  0  0  0  0  0  0  0  0
   36.2800   30.9360   42.7070 H   0  0  0  0  0  0  0  0  0  0  0  0
   39.4250   30.7280   42.6430 Cl  0  0  0  0  0  0  0  0  0  0  0  0
   38.6360   29.1640   42.7660 C   0  0  0  0  0  0  0  0  0  0  0  0
   37.3000   29.0760   42.4330 C   0  0  0  0  0  0  0  0  0  0  0  0
   36.6700   27.8550   42.5250 C   0  0  0  0  0  0  0  0  0  0  0  0
   35.6250   27.7090   42.2810 H   0  0  0  0  0  0  0  0  0  0  0  0
   37.3650   26.7440   42.9420 C   0  0  0  0  0  0  0  0  0  0  0  0
   36.8860   25.7770   43.0200 H   0  0  0  0  0  0  0  0  0  0  0  0
   38.6990   26.8140   43.2780 C   0  0  0  0  0  3  0  0  0  0  0  0
   39.3390   28.0440   43.1860 C   0  0  0  0  0  3  0  0  0  0  0  0
  1  4  1  1  0  0  0
  1  2  1  0  0  0  0
  1  3  1  0  0  0  0
  2  5  1  0  0  0  0
  2  3  1  0  0  0  0
  3  7  1  6  0  0  0
  3 17  1  0  0  0  0
  6  2  1  0  0  0  0
  8 13  1  0  0  0  0
  9 10  1  0  0  0  0
  9  8  2  0  0  0  0
 10 11  2  0  0  0  0
 11 12  1  0  0  0  0
 12  1  1  0  0  0  0
 13 12  2  0  0  0  0
 14  8  1  0  0  0  0
 15  9  1  0  0  0  0
 16 10  1  0  0  0  0
 17 21  1  0  0  0  0
 17 18  1  0  0  0  0
 19 20  1  0  0  0  0
 20 27  1  0  0  0  0
 21 22  1  0  0  0  0
 21 20  2  0  0  0  0
 22 24  2  0  0  0  0
 23 22  1  0  0  0  0
 24 25  1  0  0  0  0
 24 26  1  0  0  0  0
 27 26  2  0  0  0  0
M  END
>  <minimizedAffinity>
-5.10657787

$$$$

 OpenBabel03242511073D

 27 29  0  0  1  0  0  0  0  0999 V2000
   37.0420   30.3090   39.4780 C   0  0  1  0  0  0  0  0  0  0  0  0
   36.8660   31.7140   39.9660 C   0  0  0  0  0  0  0  0  0  0  0  0
   36.1800   30.5210   40.6450 C   0  0  2  0  0  0  0  0  0  0  0  0
   38.0620   29.9240   39.5960 H   0  0  0  0  0  0  0  0  0  0  0  0
   37.6870   32.1740   40.5260 H   0  0  0  0  0  0  0  0  0  0  0  0
   36.2850   32.3660   39.3000 H   0  0  0  0  0  0  0  0  0  0  0  0
   35.0740   30.4970   40.4060 H   0  0  0  0  0  0  0  0  0  0  0  0
   36.5650   29.7870   35.8320 C   0  0  0  0  0  0  0  0  0  0  0  0
   35.2560   29.1900   35.8100 C   0  0  0  0  0  0  0  0  0  0  0  0
   34.5860   28.9780   37.0550 C   0  0  0  0  0  0  0  0  0  0  0  0
   35.1910   29.3400   38.1890 N   0  0  0  0  0  0  0  0  0  0  0  0
   36.4370   29.9070   38.1730 C   0  0  0  0  0  0  0  0  0  0  0  0
   37.1070   30.1230   37.0040 N   0  0  0  0  0  0  0  0  0  0  0  0
   37.0440   29.9340   34.8770 H   0  0  0  0  0  0  0  0  0  0  0  0
   34.8130   28.9180   34.8820 H   0  0  0  0  0  0  0  0  0  0  0  0
   33.6060   28.5260   36.9840 H   0  0  0  0  0  0  0  0  0  0  0  0
   36.5740   30.2280   41.9790 N   0  0  0  0  0  0  0  0  0  0  0  0
   36.2770   30.9480   42.6800 H   0  0  0  0  0  0  0  0  0  0  0  0
   39.4340   30.7420   42.6140 Cl  0  0  0  0  0  0  0  0  0  0  0  0
   38.6430   29.1810   42.7590 C   0  0  0  0  0  0  0  0  0  0  0  0
   37.3070   29.0890   42.4280 C   0  0  0  0  0  0  0  0  0  0  0  0
   36.6750   27.8710   42.5380 C   0  0  0  0  0  0  0  0  0  0  0  0
   35.6290   27.7230   42.2970 H   0  0  0  0  0  0  0  0  0  0  0  0
   37.3690   26.7640   42.9700 C   0  0  0  0  0  0  0  0  0  0  0  0
   36.8900   25.8000   43.0610 H   0  0  0  0  0  0  0  0  0  0  0  0
   38.7040   26.8370   43.3030 C   0  0  0  0  0  3  0  0  0  0  0  0
   39.3450   28.0660   43.1940 C   0  0  0  0  0  3  0  0  0  0  0  0
  1  4  1  1  0  0  0
  1  2  1  0  0  0  0
  1  3  1  0  0  0  0
  2  5  1  0  0  0  0
  2  3  1  0  0  0  0
  3  7  1  6  0  0  0
  3 17  1  0  0  0  0
  6  2  1  0  0  0  0
  8 13  1  0  0  0  0
  9  8  2  0  0  0  0
  9 10  1  0  0  0  0
 10 11  2  0  0  0  0
 12 11  1  0  0  0  0
 12  1  1  0  0  0  0
 13 12  2  0  0  0  0
 14  8  1  0  0  0  0
 15  9  1  0  0  0  0
 16 10  1  0  0  0  0
 17 21  1  0  0  0  0
 17 18  1  0  0  0  0
 19 20  1  0  0  0  0
 20 27  1  0  0  0  0
 21 22  1  0  0  0  0
 21 20  2  0  0  0  0
 22 24  2  0  0  0  0
 23 22  1  0  0  0  0
 24 25  1  0  0  0  0
 24 26  1  0  0  0  0
 27 26  2  0  0  0  0
M  END
>  <minimizedAffinity>
-5.08116722

$$$$

 OpenBabel03242511073D

 27 29  0  0  1  0  0  0  0  0999 V2000
   37.0460   30.1830   39.9900 C   0  0  1  0  0  0  0  0  0  0  0  0
   36.7510   31.5420   40.5450 C   0  0  0  0  0  0  0  0  0  0  0  0
   36.3550   30.2550   41.2810 C   0  0  2  0  0  0  0  0  0  0  0  0
   38.1170   29.9490   39.9400 H   0  0  0  0  0  0  0  0  0  0  0  0
   37.5750   32.1100   40.9900 H   0  0  0  0  0  0  0  0  0  0  0  0
   35.9870   32.1100   39.9970 H   0  0  0  0  0  0  0  0  0  0  0  0
   35.2400   30.0730   41.2110 H   0  0  0  0  0  0  0  0  0  0  0  0
   36.1980   29.4540   36.4480 C   0  0  0  0  0  0  0  0  0  0  0  0
   34.8910   28.8690   36.5940 C   0  0  0  0  0  0  0  0  0  0  0  0
   34.3510   28.7380   37.9110 C   0  0  0  0  0  0  0  0  0  0  0  0
   35.0700   29.1600   38.9550 N   0  0  0  0  0  0  0  0  0  0  0  0
   36.3100   29.7120   38.7790 C   0  0  0  0  0  0  0  0  0  0  0  0
   36.8580   29.8520   37.5380 N   0  0  0  0  0  0  0  0  0  0  0  0
   36.5780   29.5400   35.4430 H   0  0  0  0  0  0  0  0  0  0  0  0
   34.3550   28.5480   35.7340 H   0  0  0  0  0  0  0  0  0  0  0  0
   33.3670   28.2930   37.9670 H   0  0  0  0  0  0  0  0  0  0  0  0
   36.9870   30.0070   42.5290 N   0  0  0  0  0  0  0  0  0  0  0  0
   36.5770   30.5440   43.3300 H   0  0  0  0  0  0  0  0  0  0  0  0
   36.2490   27.3500   43.6450 Cl  0  0  0  0  0  0  0  0  0  0  0  0
   37.8910   27.8660   43.2950 C   0  0  0  0  0  0  0  0  0  0  0  0
   38.0850   29.1300   42.7780 C   0  0  0  0  0  0  0  0  0  0  0  0
   39.3670   29.5470   42.4980 C   0  0  0  0  0  0  0  0  0  0  0  0
   39.5970   30.5240   42.0920 H   0  0  0  0  0  0  0  0  0  0  0  0
   40.4350   28.7120   42.7340 C   0  0  0  0  0  0  0  0  0  0  0  0
   41.4490   29.0230   42.5210 H   0  0  0  0  0  0  0  0  0  0  0  0
   40.2600   27.4470   43.2500 C   0  0  0  0  0  3  0  0  0  0  0  0
   38.9670   27.0240   43.5330 C   0  0  0  0  0  3  0  0  0  0  0  0
  1  4  1  1  0  0  0
  1  2  1  0  0  0  0
  1  3  1  0  0  0  0
  2  5  1  0  0  0  0
  2  3  1  0  0  0  0
  3  7  1  6  0  0  0
  3 17  1  0  0  0  0
  6  2  1  0  0  0  0
  8  9  2  0  0  0  0
  8 13  1  0  0  0  0
  9 10  1  0  0  0  0
 10 16  1  0  0  0  0
 10 11  2  0  0  0  0
 12 11  1  0  0  0  0
 12  1  1  0  0  0  0
 13 12  2  0  0  0  0
 14  8  1  0  0  0  0
 15  9  1  0  0  0  0
 17 21  1  0  0  0  0
 17 18  1  0  0  0  0
 20 27  1  0  0  0  0
 20 19  1  0  0  0  0
 21 20  2  0  0  0  0
 22 24  2  0  0  0  0
 22 21  1  0  0  0  0
 23 22  1  0  0  0  0
 24 26  1  0  0  0  0
 25 24  1  0  0  0  0
 26 27  2  0  0  0  0
M  END
>  <minimizedAffinity>
-5.04972267

$$$$

 OpenBabel03242511073D

 27 29  0  0  1  0  0  0  0  0999 V2000
   36.5700   29.8570   41.4530 C   0  0  1  0  0  0  0  0  0  0  0  0
   35.4870   29.1860   40.6670 C   0  0  0  0  0  0  0  0  0  0  0  0
   36.8320   28.5050   40.9500 C   0  0  2  0  0  0  0  0  0  0  0  0
   36.3140   30.0240   42.5060 H   0  0  0  0  0  0  0  0  0  0  0  0
   34.6260   28.7830   41.2110 H   0  0  0  0  0  0  0  0  0  0  0  0
   35.2970   29.6190   39.6760 H   0  0  0  0  0  0  0  0  0  0  0  0
   37.4800   28.4810   40.0220 H   0  0  0  0  0  0  0  0  0  0  0  0
   37.3590   32.7880   39.3120 C   0  0  0  0  0  0  0  0  0  0  0  0
   38.6800   33.1180   39.7760 C   0  0  0  0  0  0  0  0  0  0  0  0
   39.2510   32.3240   40.8180 C   0  0  0  0  0  0  0  0  0  0  0  0
   38.5460   31.3080   41.3230 N   0  0  0  0  0  0  0  0  0  0  0  0
   37.2910   31.0220   40.8580 C   0  0  0  0  0  0  0  0  0  0  0  0
   36.7130   31.7580   39.8650 N   0  0  0  0  0  0  0  0  0  0  0  0
   36.9560   33.4050   38.5250 H   0  0  0  0  0  0  0  0  0  0  0  0
   39.2050   33.9360   39.3430 H   0  0  0  0  0  0  0  0  0  0  0  0
   40.2450   32.6130   41.1310 H   0  0  0  0  0  0  0  0  0  0  0  0
   36.8060   27.3420   41.7660 N   0  0  0  0  0  0  0  0  0  0  0  0
   35.8490   26.9340   41.8970 H   0  0  0  0  0  0  0  0  0  0  0  0
   36.8890   24.3810   41.4900 Cl  0  0  0  0  0  0  0  0  0  0  0  0
   38.0840   25.3380   42.3490 C   0  0  0  0  0  0  0  0  0  0  0  0
   37.9170   26.7070   42.3960 C   0  0  0  0  0  0  0  0  0  0  0  0
   38.8480   27.4690   43.0660 C   0  0  0  0  0  0  0  0  0  0  0  0
   38.7840   28.5480   43.1450 H   0  0  0  0  0  0  0  0  0  0  0  0
   39.9250   26.8710   43.6780 C   0  0  0  0  0  0  0  0  0  0  0  0
   40.6650   27.4540   44.2090 H   0  0  0  0  0  0  0  0  0  0  0  0
   40.1070   25.5060   43.6420 C   0  0  0  0  0  3  0  0  0  0  0  0
   39.1690   24.7340   42.9660 C   0  0  0  0  0  3  0  0  0  0  0  0
  1  4  1  1  0  0  0
  2  3  1  0  0  0  0
  2  5  1  0  0  0  0
  2  1  1  0  0  0  0
  3  7  1  6  0  0  0
  3  1  1  0  0  0  0
  3 17  1  0  0  0  0
  6  2  1  0  0  0  0
  8  9  2  0  0  0  0
  8 13  1  0  0  0  0
  9 10  1  0  0  0  0
 10 16  1  0  0  0  0
 10 11  2  0  0  0  0
 12 11  1  0  0  0  0
 12  1  1  0  0  0  0
 13 12  2  0  0  0  0
 14  8  1  0  0  0  0
 15  9  1  0  0  0  0
 17 18  1  0  0  0  0
 17 21  1  0  0  0  0
 19 20  1  0  0  0  0
 20 21  2  0  0  0  0
 20 27  1  0  0  0  0
 21 22  1  0  0  0  0
 22 23  1  0  0  0  0
 22 24  2  0  0  0  0
 24 25  1  0  0  0  0
 26 24  1  0  0  0  0
 27 26  2  0  0  0  0
M  END
>  <minimizedAffinity>
-4.9727478

$$$$

 OpenBabel03242511073D

 27 29  0  0  1  0  0  0  0  0999 V2000
   36.7080   27.1650   42.2250 C   0  0  1  0  0  0  0  0  0  0  0  0
   36.4250   27.4290   43.6720 C   0  0  0  0  0  0  0  0  0  0  0  0
   37.4250   28.2700   42.8680 C   0  0  2  0  0  0  0  0  0  0  0  0
   35.8540   27.3590   41.5650 H   0  0  0  0  0  0  0  0  0  0  0  0
   35.4850   27.9280   43.9330 H   0  0  0  0  0  0  0  0  0  0  0  0
   36.7960   26.6620   44.3640 H   0  0  0  0  0  0  0  0  0  0  0  0
   38.4920   28.0170   43.1520 H   0  0  0  0  0  0  0  0  0  0  0  0
   37.4210   23.6730   41.1810 C   0  0  0  0  0  0  0  0  0  0  0  0
   38.8590   23.6740   41.1850 C   0  0  0  0  0  0  0  0  0  0  0  0
   39.5360   24.8820   41.5390 C   0  0  0  0  0  0  0  0  0  0  0  0
   38.8160   25.9630   41.8530 N   0  0  0  0  0  0  0  0  0  0  0  0
   37.4470   25.9260   41.8390 C   0  0  0  0  0  0  0  0  0  0  0  0
   36.7680   24.7910   41.5060 N   0  0  0  0  0  0  0  0  0  0  0  0
   36.9400   22.7460   40.9100 H   0  0  0  0  0  0  0  0  0  0  0  0
   39.3910   22.7890   40.9280 H   0  0  0  0  0  0  0  0  0  0  0  0
   40.6160   24.8310   41.5260 H   0  0  0  0  0  0  0  0  0  0  0  0
   37.1020   29.6400   42.6710 N   0  0  0  0  0  0  0  0  0  0  0  0
   36.6020   30.0820   43.4790 H   0  0  0  0  0  0  0  0  0  0  0  0
   39.7950   30.9020   42.6400 Cl  0  0  0  0  0  0  0  0  0  0  0  0
   38.5950   31.0780   41.3710 C   0  0  0  0  0  0  0  0  0  0  0  0
   37.3840   30.4340   41.5190 C   0  0  0  0  0  0  0  0  0  0  0  0
   36.4350   30.5630   40.5310 C   0  0  0  0  0  0  0  0  0  0  0  0
   35.4630   30.0870   40.5770 H   0  0  0  0  0  0  0  0  0  0  0  0
   36.6930   31.3260   39.4150 C   0  0  0  0  0  0  0  0  0  0  0  0
   35.9590   31.4390   38.6300 H   0  0  0  0  0  0  0  0  0  0  0  0
   37.8960   31.9760   39.2510 C   0  0  0  0  0  3  0  0  0  0  0  0
   38.8570   31.8480   40.2470 C   0  0  0  0  0  3  0  0  0  0  0  0
  1  4  1  6  0  0  0
  1  3  1  0  0  0  0
  1  2  1  0  0  0  0
  2  5  1  0  0  0  0
  2  6  1  0  0  0  0
  3  7  1  1  0  0  0
  3  2  1  0  0  0  0
  8  9  2  0  0  0  0
  8 13  1  0  0  0  0
  9 10  1  0  0  0  0
 10 11  2  0  0  0  0
 12 11  1  0  0  0  0
 12  1  1  0  0  0  0
 13 12  2  0  0  0  0
 14  8  1  0  0  0  0
 15  9  1  0  0  0  0
 16 10  1  0  0  0  0
 17  3  1  0  0  0  0
 17 18  1  0  0  0  0
 20 21  1  0  0  0  0
 20 19  1  0  0  0  0
 21 17  1  0  0  0  0
 22 23  1  0  0  0  0
 22 21  2  0  0  0  0
 24 22  1  0  0  0  0
 25 24  1  0  0  0  0
 26 24  2  0  0  0  0
 26 27  1  0  0  0  0
 27 20  2  0  0  0  0
M  END
>  <minimizedAffinity>
-4.96775341

$$$$

 OpenBabel03242511073D

 27 29  0  0  1  0  0  0  0  0999 V2000
   38.8610   29.5640   41.5610 C   0  0  1  0  0  0  0  0  0  0  0  0
   39.4280   30.1850   42.8010 C   0  0  0  0  0  0  0  0  0  0  0  0
   38.1230   29.3780   42.8140 C   0  0  2  0  0  0  0  0  0  0  0  0
   39.4790   28.7570   41.1480 H   0  0  0  0  0  0  0  0  0  0  0  0
   40.2910   29.7030   43.2730 H   0  0  0  0  0  0  0  0  0  0  0  0
   39.3870   31.2820   42.8300 H   0  0  0  0  0  0  0  0  0  0  0  0
   37.2240   30.0570   42.9190 H   0  0  0  0  0  0  0  0  0  0  0  0
   37.6000   30.7420   38.2730 C   0  0  0  0  0  0  0  0  0  0  0  0
   37.3110   32.1210   38.5680 C   0  0  0  0  0  0  0  0  0  0  0  0
   37.5530   32.5950   39.8950 C   0  0  0  0  0  0  0  0  0  0  0  0
   38.0360   31.7500   40.8100 N   0  0  0  0  0  0  0  0  0  0  0  0
   38.3000   30.4450   40.4940 C   0  0  0  0  0  0  0  0  0  0  0  0
   38.0810   29.9570   39.2380 N   0  0  0  0  0  0  0  0  0  0  0  0
   37.4080   30.4150   37.2630 H   0  0  0  0  0  0  0  0  0  0  0  0
   36.9280   32.7570   37.8060 H   0  0  0  0  0  0  0  0  0  0  0  0
   37.3200   33.6370   40.0650 H   0  0  0  0  0  0  0  0  0  0  0  0
   38.1250   28.1660   43.5560 N   0  0  0  0  0  0  0  0  0  0  0  0
   38.0890   28.3010   44.5950 H   0  0  0  0  0  0  0  0  0  0  0  0
   40.7940   26.8570   43.6680 Cl  0  0  0  0  0  0  0  0  0  0  0  0
   39.3410   26.1100   43.0230 C   0  0  0  0  0  0  0  0  0  0  0  0
   38.1690   26.8380   43.0350 C   0  0  0  0  0  0  0  0  0  0  0  0
   37.0230   26.2640   42.5330 C   0  0  0  0  0  0  0  0  0  0  0  0
   36.0670   26.7720   42.5100 H   0  0  0  0  0  0  0  0  0  0  0  0
   37.0510   24.9850   42.0270 C   0  0  0  0  0  0  0  0  0  0  0  0
   36.1610   24.5180   41.6280 H   0  0  0  0  0  0  0  0  0  0  0  0
   38.2120   24.2440   42.0070 C   0  0  0  0  0  3  0  0  0  0  0  0
   39.3710   24.8210   42.5130 C   0  0  0  0  0  3  0  0  0  0  0  0
  1  4  1  6  0  0  0
  1  2  1  0  0  0  0
  1  3  1  0  0  0  0
  2  3  1  0  0  0  0
  2  6  1  0  0  0  0
  2  5  1  0  0  0  0
  3  7  1  1  0  0  0
  3 17  1  0  0  0  0
  8  9  2  0  0  0  0
  8 13  1  0  0  0  0
  9 10  1  0  0  0  0
 10 16  1  0  0  0  0
 10 11  2  0  0  0  0
 12 11  1  0  0  0  0
 12  1  1  0  0  0  0
 13 12  2  0  0  0  0
 14  8  1  0  0  0  0
 15  9  1  0  0  0  0
 17 18  1  0  0  0  0
 20 21  1  0  0  0  0
 20 19  1  0  0  0  0
 21 17  1  0  0  0  0
 22 21  2  0  0  0  0
 23 22  1  0  0  0  0
 24 22  1  0  0  0  0
 25 24  1  0  0  0  0
 26 24  2  0  0  0  0
 26 27  1  0  0  0  0
 27 20  2  0  0  0  0
M  END
>  <minimizedAffinity>
-4.8041153

$$$$

 OpenBabel03242511073D

 27 29  0  0  1  0  0  0  0  0999 V2000
   36.3400   28.3630   39.7930 C   0  0  1  0  0  0  0  0  0  0  0  0
   35.0380   28.9180   39.3060 C   0  0  0  0  0  0  0  0  0  0  0  0
   35.5220   29.1150   40.7480 C   0  0  2  0  0  0  0  0  0  0  0  0
   37.2200   28.8210   39.3240 H   0  0  0  0  0  0  0  0  0  0  0  0
   35.0610   29.8100   38.6700 H   0  0  0  0  0  0  0  0  0  0  0  0
   34.2650   28.1680   39.0910 H   0  0  0  0  0  0  0  0  0  0  0  0
   34.9410   28.4600   41.4660 H   0  0  0  0  0  0  0  0  0  0  0  0
   36.2240   24.7180   39.0860 C   0  0  0  0  0  0  0  0  0  0  0  0
   36.7540   24.1840   40.3120 C   0  0  0  0  0  0  0  0  0  0  0  0
   37.1420   25.1000   41.3390 C   0  0  0  0  0  0  0  0  0  0  0  0
   37.0010   26.4120   41.1280 N   0  0  0  0  0  0  0  0  0  0  0  0
   36.4920   26.8850   39.9490 C   0  0  0  0  0  0  0  0  0  0  0  0
   36.1120   26.0410   38.9460 N   0  0  0  0  0  0  0  0  0  0  0  0
   35.9400   24.0020   38.3310 H   0  0  0  0  0  0  0  0  0  0  0  0
   36.8480   23.1320   40.4350 H   0  0  0  0  0  0  0  0  0  0  0  0
   37.5340   24.6490   42.2400 H   0  0  0  0  0  0  0  0  0  0  0  0
   35.8080   30.4460   41.1550 N   0  0  0  0  0  0  0  0  0  0  0  0
   35.0460   30.8950   41.7170 H   0  0  0  0  0  0  0  0  0  0  0  0
   38.2060   29.6430   42.7210 Cl  0  0  0  0  0  0  0  0  0  0  0  0
   38.1770   30.9320   41.5290 C   0  0  0  0  0  0  0  0  0  0  0  0
   36.9900   31.1950   40.8760 C   0  0  0  0  0  0  0  0  0  0  0  0
   36.9550   32.2030   39.9390 C   0  0  0  0  0  0  0  0  0  0  0  0
   36.0610   32.4670   39.3870 H   0  0  0  0  0  0  0  0  0  0  0  0
   38.0870   32.9330   39.6610 C   0  0  0  0  0  0  0  0  0  0  0  0
   38.0770   33.7280   38.9280 H   0  0  0  0  0  0  0  0  0  0  0  0
   39.2800   32.6840   40.3020 C   0  0  0  0  0  3  0  0  0  0  0  0
   39.3190   31.6680   41.2490 C   0  0  0  0  0  3  0  0  0  0  0  0
  1  4  1  6  0  0  0
  1 12  1  0  0  0  0
  1  3  1  0  0  0  0
  2  1  1  0  0  0  0
  2  3  1  0  0  0  0
  3 17  1  0  0  0  0
  3  7  1  1  0  0  0
  5  2  1  0  0  0  0
  6  2  1  0  0  0  0
  8  9  1  0  0  0  0
  9 15  1  0  0  0  0
  9 10  2  0  0  0  0
 10 16  1  0  0  0  0
 11 10  1  0  0  0  0
 12 11  2  0  0  0  0
 13  8  2  0  0  0  0
 13 12  1  0  0  0  0
 14  8  1  0  0  0  0
 17 18  1  0  0  0  0
 20 19  1  0  0  0  0
 21 17  1  0  0  0  0
 21 20  2  0  0  0  0
 22 21  1  0  0  0  0
 23 22  1  0  0  0  0
 24 22  2  0  0  0  0
 24 26  1  0  0  0  0
 25 24  1  0  0  0  0
 26 27  2  0  0  0  0
 27 20  1  0  0  0  0
M  END
>  <minimizedAffinity>
-4.70595169

$$$$

 OpenBabel03242511073D

 27 29  0  0  1  0  0  0  0  0999 V2000
   37.2180   27.2780   42.2020 C   0  0  1  0  0  0  0  0  0  0  0  0
   36.5470   27.3910   43.5360 C   0  0  0  0  0  0  0  0  0  0  0  0
   37.9120   28.0310   43.2500 C   0  0  2  0  0  0  0  0  0  0  0  0
   36.6870   27.7990   41.3950 H   0  0  0  0  0  0  0  0  0  0  0  0
   35.7070   28.0870   43.6360 H   0  0  0  0  0  0  0  0  0  0  0  0
   36.4970   26.4560   44.1100 H   0  0  0  0  0  0  0  0  0  0  0  0
   38.7460   27.4520   43.7500 H   0  0  0  0  0  0  0  0  0  0  0  0
   39.5630   24.6260   41.0770 C   0  0  0  0  0  0  0  0  0  0  0  0
   38.6620   23.5160   40.9140 C   0  0  0  0  0  0  0  0  0  0  0  0
   37.2770   23.7170   41.2060 C   0  0  0  0  0  0  0  0  0  0  0  0
   36.8670   24.9200   41.6170 N   0  0  0  0  0  0  0  0  0  0  0  0
   37.7510   25.9550   41.7610 C   0  0  0  0  0  0  0  0  0  0  0  0
   39.0800   25.8000   41.4930 N   0  0  0  0  0  0  0  0  0  0  0  0
   40.6000   24.4430   40.8490 H   0  0  0  0  0  0  0  0  0  0  0  0
   39.0350   22.5760   40.5830 H   0  0  0  0  0  0  0  0  0  0  0  0
   36.6430   22.8520   41.0670 H   0  0  0  0  0  0  0  0  0  0  0  0
   37.9780   29.4500   43.2900 N   0  0  0  0  0  0  0  0  0  0  0  0
   37.4450   29.8810   44.0830 H   0  0  0  0  0  0  0  0  0  0  0  0
   36.2870   30.6950   41.1820 Cl  0  0  0  0  0  0  0  0  0  0  0  0
   38.0160   30.9490   41.3550 C   0  0  0  0  0  0  0  0  0  0  0  0
   38.6740   30.3040   42.3830 C   0  0  0  0  0  0  0  0  0  0  0  0
   40.0290   30.4950   42.5300 C   0  0  0  0  0  0  0  0  0  0  0  0
   40.6120   30.0240   43.3120 H   0  0  0  0  0  0  0  0  0  0  0  0
   40.7140   31.3160   41.6630 C   0  0  0  0  0  0  0  0  0  0  0  0
   41.7780   31.4770   41.7630 H   0  0  0  0  0  0  0  0  0  0  0  0
   40.0730   31.9660   40.6320 C   0  0  0  0  0  3  0  0  0  0  0  0
   38.7050   31.7760   40.4800 C   0  0  0  0  0  3  0  0  0  0  0  0
  1  4  1  6  0  0  0
  1  3  1  0  0  0  0
  1  2  1  0  0  0  0
  2  5  1  0  0  0  0
  2  6  1  0  0  0  0
  3 17  1  0  0  0  0
  3  2  1  0  0  0  0
  3  7  1  1  0  0  0
  8 13  1  0  0  0  0
  9  8  2  0  0  0  0
  9 10  1  0  0  0  0
 10 11  2  0  0  0  0
 11 12  1  0  0  0  0
 12  1  1  0  0  0  0
 13 12  2  0  0  0  0
 14  8  1  0  0  0  0
 15  9  1  0  0  0  0
 16 10  1  0  0  0  0
 17 18  1  0  0  0  0
 19 20  1  0  0  0  0
 20 21  1  0  0  0  0
 21 22  2  0  0  0  0
 21 17  1  0  0  0  0
 22 23  1  0  0  0  0
 24 25  1  0  0  0  0
 24 22  1  0  0  0  0
 26 24  2  0  0  0  0
 27 26  1  0  0  0  0
 27 20  2  0  0  0  0
M  END
>  <minimizedAffinity>
-4.64446497

$$$$
