
 OpenBabel03252506363D

 44 47  0  0  1  0  0  0  0  0999 V2000
   44.4830   35.6920   45.0270 C   0  0  0  0  0  0  0  0  0  0  0  0
   45.1210   35.6550   43.7770 C   0  0  0  0  0  0  0  0  0  0  0  0
   46.0130   34.6690   43.5200 C   0  0  0  0  0  0  0  0  0  0  0  0
   46.2340   33.7650   44.5040 N   0  0  0  0  0  0  0  0  0  0  0  0
   45.6290   33.8040   45.6820 C   0  0  0  0  0  0  0  0  0  0  0  0
   44.7490   34.7630   45.9590 N   0  0  0  0  0  0  0  0  0  0  0  0
   45.9450   32.7960   46.6560 N   0  0  0  0  0  0  0  0  0  0  0  0
   45.2140   32.5790   47.8490 C   0  0  0  0  0  0  0  0  0  0  0  0
   46.2910   32.2110   48.8550 C   0  0  0  0  0  0  0  0  0  0  0  0
   47.5600   32.0740   48.0760 C   0  0  0  0  0  0  0  0  0  0  0  0
   47.0470   31.8560   46.6520 C   0  0  1  0  0  0  0  0  0  0  0  0
   43.7730   36.4920   45.2080 H   0  0  0  0  0  0  0  0  0  0  0  0
   46.5160   34.6170   42.5690 H   0  0  0  0  0  0  0  0  0  0  0  0
   44.3770   31.9680   47.9530 H   0  0  0  0  0  0  0  0  0  0  0  0
   44.8800   33.6070   48.2050 H   0  0  0  0  0  0  0  0  0  0  0  0
   46.0480   31.1780   49.2420 H   0  0  0  0  0  0  0  0  0  0  0  0
   46.3310   32.8490   49.7360 H   0  0  0  0  0  0  0  0  0  0  0  0
   48.1520   31.2240   48.4250 H   0  0  0  0  0  0  0  0  0  0  0  0
   48.1030   33.0510   48.1640 H   0  0  0  0  0  0  0  0  0  0  0  0
   47.8550   32.1510   45.9740 H   0  0  0  0  0  0  0  0  0  0  0  0
   44.7840   36.6860   42.8330 N   0  0  0  0  0  0  0  0  0  0  0  0
   45.6140   36.9840   42.2570 H   0  0  0  0  0  0  0  0  0  0  0  0
   43.8770   37.1300   42.6760 H   0  0  0  0  0  0  0  0  0  0  0  0
   46.4910   30.1770   46.4870 S   0  0  0  0  0  0  0  0  0  0  0  0
   46.5010   30.1540   43.1510 O   0  0  0  0  0  0  0  0  0  0  0  0
   45.5680   29.8350   43.9060 C   0  0  0  0  0  0  0  0  0  0  0  0
   45.2120   29.8700   45.3420 C   0  0  1  0  0  0  0  0  0  0  0  0
   44.4910   28.5550   45.5140 C   0  0  0  0  0  0  0  0  0  0  0  0
   43.4910   28.7140   44.3660 C   0  0  0  0  0  0  0  0  0  0  0  0
   44.3940   29.2250   43.3410 N   0  0  0  0  0  0  0  0  0  0  0  0
   44.3410   30.5850   45.3100 H   0  0  0  0  0  0  0  0  0  0  0  0
   44.0190   28.4280   46.4870 H   0  0  0  0  0  0  0  0  0  0  0  0
   45.1950   27.7520   45.2390 H   0  0  0  0  0  0  0  0  0  0  0  0
   43.1230   27.7280   44.0410 H   0  0  0  0  0  0  0  0  0  0  0  0
   42.6850   29.4200   44.6270 H   0  0  0  0  0  0  0  0  0  0  0  0
   43.0970   31.6560   42.3680 Cl  0  0  0  0  0  0  0  0  0  0  0  0
   43.4160   30.2160   41.4230 C   0  0  0  0  0  0  0  0  0  0  0  0
   44.0430   29.0800   41.9460 C   0  0  0  0  0  0  0  0  0  0  0  0
   44.2840   27.9580   41.1820 C   0  0  0  0  0  0  0  0  0  0  0  0
   44.7750   27.1300   41.6730 H   0  0  0  0  0  0  0  0  0  0  0  0
   43.8830   27.9770   39.8470 C   0  0  0  0  0  0  0  0  0  0  0  0
   44.0780   27.0840   39.2540 H   0  0  0  0  0  0  0  0  0  0  0  0
   43.2610   29.1000   39.3240 C   0  0  0  0  0  3  0  0  0  0  0  0
   43.0210   30.2210   40.0890 C   0  0  0  0  0  3  0  0  0  0  0  0
  1 12  1  0  0  0  0
  1  6  1  0  0  0  0
  2  1  2  0  0  0  0
  3  2  1  0  0  0  0
  3  4  2  0  0  0  0
  4  5  1  0  0  0  0
  5  6  2  0  0  0  0
  5  7  1  0  0  0  0
  7  8  1  0  0  0  0
  8 14  1  0  0  0  0
  8 15  1  0  0  0  0
  8  9  1  0  0  0  0
  9 16  1  0  0  0  0
  9 17  1  0  0  0  0
 10 19  1  0  0  0  0
 10 18  1  0  0  0  0
 10  9  1  0  0  0  0
 11 20  1  6  0  0  0
 11  7  1  0  0  0  0
 11 10  1  0  0  0  0
 13  3  1  0  0  0  0
 21  2  1  0  0  0  0
 22 21  1  0  0  0  0
 23 21  1  0  0  0  0
 24 11  1  0  0  0  0
 25 26  2  0  0  0  0
 26 27  1  0  0  0  0
 27 31  1  1  0  0  0
 27 28  1  0  0  0  0
 27 24  1  0  0  0  0
 28 32  1  0  0  0  0
 29 35  1  0  0  0  0
 29 28  1  0  0  0  0
 30 26  1  0  0  0  0
 30 29  1  0  0  0  0
 33 28  1  0  0  0  0
 34 29  1  0  0  0  0
 37 38  1  0  0  0  0
 37 36  1  0  0  0  0
 38 30  1  0  0  0  0
 39 40  1  0  0  0  0
 39 38  2  0  0  0  0
 41 39  1  0  0  0  0
 42 41  1  0  0  0  0
 43 41  2  0  0  0  0
 43 44  1  0  0  0  0
 44 37  2  0  0  0  0
M  END
>  <minimizedAffinity>
-5.13466644

>  <minimizedRMSD>
1.02085638

$$$$
