
     RDKit          3D

 26 27  0  0  0  0  0  0  0  0999 V2000
   44.4756   35.6868   44.5906 C   0  0  0  0  0  0  0  0  0  0  0  0
   44.9269   35.8226   43.2579 C   0  0  0  0  0  0  0  0  0  0  0  0
   46.0089   35.0082   42.8888 C   0  0  0  0  0  0  0  0  0  0  0  0
   46.5495   34.1594   43.8000 N   0  0  0  0  0  0  0  0  0  0  0  0
   46.0780   34.0684   45.0662 C   0  0  0  0  0  0  0  0  0  0  0  0
   45.0427   34.8355   45.4495 N   0  0  0  0  0  0  0  0  0  0  0  0
   46.5944   33.2217   46.0255 O   0  0  0  0  0  0  0  0  0  0  0  0
   46.7874   32.2178   48.3909 O   0  0  0  0  0  0  0  0  0  0  0  0
   45.7458   32.5170   47.3052 P   0  0  1  0  0  0  0  0  0  0  0  0
   44.5320   33.5274   47.8611 O   0  0  0  0  0  0  0  0  0  0  0  0
   45.0487   31.0360   46.8911 O   0  0  0  0  0  0  0  0  0  0  0  0
   43.6398   36.3132   44.8822 H   0  0  0  0  0  0  0  0  0  0  0  0
   44.4970   36.4922   42.5469 H   0  0  0  0  0  0  0  0  0  0  0  0
   46.4132   35.0589   41.8707 H   0  0  0  0  0  0  0  0  0  0  0  0
   44.9023   34.2840   48.3588 H   0  0  0  0  0  0  0  0  0  0  0  0
   46.2152   28.2916   47.3192 Cl  0  0  0  0  0  0  0  0  0  0  0  0
   44.8781   29.0011   48.1826 C   0  0  0  0  0  0  0  0  0  0  0  0
   44.4449   30.2739   47.8826 C   0  0  0  0  0  0  0  0  0  0  0  0
   43.3796   30.7277   48.6324 C   0  0  0  0  0  0  0  0  0  0  0  0
   42.9766   31.7191   48.4604 H   0  0  0  0  0  0  0  0  0  0  0  0
   42.7501   30.0064   49.6255 C   0  0  0  0  0  0  0  0  0  0  0  0
   41.9171   30.4168   50.1807 H   0  0  0  0  0  0  0  0  0  0  0  0
   43.2226   28.7181   49.8970 C   0  0  0  0  0  0  0  0  0  0  0  0
   44.2950   28.2121   49.1695 C   0  0  0  0  0  0  0  0  0  0  0  0
   42.7534   28.1242   50.6686 H   0  0  0  0  0  0  0  0  0  0  0  0
   44.6188   27.2246   49.4139 H   0  0  0  0  0  0  0  0  0  0  0  0
  1  6  2  0
  2  1  1  0
  3  2  2  0
  3  4  1  0
  4  5  2  0
  5  6  1  0
  5  7  1  0
  9  7  1  6
  9 10  1  0
  9  8  2  0
 11  9  1  0
  1 12  1  0
  2 13  1  0
  3 14  1  0
 10 15  1  0
 16 17  1  0
 17 18  2  0
 18 19  1  0
 19 20  1  0
 19 21  2  0
 21 22  1  0
 21 23  1  0
 23 24  2  0
 24 17  1  0
 23 25  1  0
 24 26  1  0
 11 18  1  0
M  ISO  6  12  14  13  14  14  14  15   3  20  15  22  16
M  END
>  <DihAtoms>  (1) 
8,10,17,16

>  <DihDeg>  (1) 
-179.99991928447298

$$$$
