
 OpenBabel03242522473D

 41 44  0  0  0  0  0  0  0  0999 V2000
   45.6730   34.6600   44.2080 C   0  0  0  0  0  0  0  0  0  0  0  0
   46.7380   33.9400   43.6390 C   0  0  0  0  0  0  0  0  0  0  0  0
   47.3090   32.8810   44.3710 C   0  0  0  0  0  0  0  0  0  0  0  0
   46.7950   32.6190   45.5880 N   0  0  0  0  0  0  0  0  0  0  0  0
   45.7690   33.3270   46.1150 C   0  0  0  0  0  0  0  0  0  0  0  0
   45.2240   34.3310   45.4260 N   0  0  0  0  0  0  0  0  0  0  0  0
   45.0950   35.7220   43.4760 N   0  0  0  0  0  0  0  0  0  0  0  0
   48.1130   32.2930   44.0070 H   0  0  0  0  0  0  0  0  0  0  0  0
   45.7690   36.3890   43.0510 H   0  0  0  0  0  0  0  0  0  0  0  0
   44.0380   35.7390   43.4300 H   0  0  0  0  0  0  0  0  0  0  0  0
   47.2750   34.2460   42.3250 C   0  0  0  0  0  0  0  0  0  0  0  0
   48.2780   35.1380   42.0060 C   0  0  0  0  0  0  0  0  0  0  0  0
   48.6800   35.3200   40.6990 C   0  0  0  0  0  0  0  0  0  0  0  0
   48.0820   34.6060   39.6530 C   0  0  0  0  0  0  0  0  0  0  0  0
   48.5240   34.8380   38.4120 N   0  0  0  0  0  0  0  0  0  0  0  0
   47.9610   34.1620   37.3790 C   0  0  0  0  0  0  0  0  0  0  0  0
   46.9550   33.2640   37.6760 C   0  0  0  0  0  0  0  0  0  0  0  0
   46.4880   33.0130   38.9500 C   0  0  0  0  0  0  0  0  0  0  0  0
   47.0810   33.7170   39.9800 C   0  0  0  0  0  0  0  0  0  0  0  0
   46.6810   33.5380   41.2990 C   0  0  0  0  0  0  0  0  0  0  0  0
   48.7030   35.6590   42.8460 H   0  0  0  0  0  0  0  0  0  0  0  0
   49.4780   36.0370   40.4920 H   0  0  0  0  0  0  0  0  0  0  0  0
   48.2800   34.3100   36.3530 H   0  0  0  0  0  0  0  0  0  0  0  0
   46.4530   32.6840   36.9060 H   0  0  0  0  0  0  0  0  0  0  0  0
   45.6930   32.2990   39.1520 H   0  0  0  0  0  0  0  0  0  0  0  0
   45.8740   32.8060   41.4540 H   0  0  0  0  0  0  0  0  0  0  0  0
   45.2760   32.9570   47.4810 C   0  0  0  0  0  0  0  0  0  0  0  0
   45.1760   33.9220   48.0260 H   0  0  0  0  0  0  0  0  0  0  0  0
   44.3470   32.3760   47.4460 H   0  0  0  0  0  0  0  0  0  0  0  0
   46.3860   32.1840   48.2040 C   0  0  0  0  0  0  0  0  0  0  0  0
   47.3420   32.5440   47.7250 H   0  0  0  0  0  0  0  0  0  0  0  0
   46.3650   32.3890   49.2860 H   0  0  0  0  0  0  0  0  0  0  0  0
   48.9220   30.6170   48.2180 Cl  0  0  0  0  0  0  0  0  0  0  0  0
   47.3280   29.9780   47.8860 C   0  0  0  0  0  0  0  0  0  0  0  0
   46.1620   30.7490   47.8940 C   0  0  0  0  0  0  0  0  0  0  0  0
   44.9180   30.1950   47.6260 C   0  0  0  0  0  0  0  0  0  0  0  0
   44.0590   30.8580   47.6500 H   0  0  0  0  0  0  0  0  0  0  0  0
   44.7850   28.8400   47.3380 C   0  0  0  0  0  0  0  0  0  0  0  0
   43.8260   28.3970   47.1290 H   0  0  0  0  0  0  0  0  0  0  0  0
   45.9680   28.1350   47.3460 C   0  0  0  0  0  0  0  0  0  0  0  0
   47.2310   28.6100   47.6000 C   0  0  0  0  0  0  0  0  0  0  0  0
  1  6  1  0  0  0  0
  2  1  2  0  0  0  0
  2  3  1  0  0  0  0
  3  4  2  0  0  0  0
  4  5  1  0  0  0  0
  5 27  1  0  0  0  0
  6  5  2  0  0  0  0
  7  1  1  0  0  0  0
  8  3  1  0  0  0  0
  9  7  1  0  0  0  0
 10  7  1  0  0  0  0
 11  2  1  0  0  0  0
 12 11  1  0  0  0  0
 12 21  1  0  0  0  0
 13 12  2  0  0  0  0
 14 19  1  0  0  0  0
 14 13  1  0  0  0  0
 15 14  2  0  0  0  0
 16 17  2  0  0  0  0
 16 15  1  0  0  0  0
 17 18  1  0  0  0  0
 18 25  1  0  0  0  0
 18 19  2  0  0  0  0
 19 20  1  0  0  0  0
 20 26  1  0  0  0  0
 20 11  2  0  0  0  0
 22 13  1  0  0  0  0
 23 16  1  0  0  0  0
 24 17  1  0  0  0  0
 27 28  1  0  0  0  0
 27 30  1  0  0  0  0
 29 27  1  0  0  0  0
 30 32  1  0  0  0  0
 31 30  1  0  0  0  0
 34 35  1  0  0  0  0
 34 33  1  0  0  0  0
 35 30  1  0  0  0  0
 36 37  1  0  0  0  0
 36 35  2  0  0  0  0
 38 40  2  0  0  0  0
 38 36  1  0  0  0  0
 39 38  1  0  0  0  0
 40 41  1  0  0  0  0
 41 34  2  0  0  0  0
M  END
>  <minimizedAffinity>
-6.630445

>  <minimizedRMSD>
2.80775332

$$$$
