REMARK  Name = 
REMARK  4 active torsions:
REMARK  status: ('A' for Active; 'I' for Inactive)
REMARK    1  A    between atoms: C_2  and  N_7
REMARK    2  A    between atoms: C_3  and  C_14
REMARK    3  A    between atoms: C_20  and  O_22
REMARK    4  A    between atoms: O_22  and  C_40
REMARK                            x       y       z     vdW  Elec       q    Type
REMARK                         _______ _______ _______ _____ _____    ______ ____
ROOT
ATOM      1  C   UNL     1      45.151  36.020  43.496  0.00  0.00    +0.000 A 
ATOM      2  C   UNL     1      45.954  34.901  43.273  0.00  0.00    +0.000 A 
ATOM      3  C   UNL     1      46.056  33.954  44.242  0.00  0.00    +0.000 A 
ATOM      4  N   UNL     1      45.352  34.169  45.375  0.00  0.00    +0.000 NA
ATOM      5  C   UNL     1      44.580  35.227  45.611  0.00  0.00    +0.000 A 
ATOM      6  N   UNL     1      44.485  36.143  44.672  0.00  0.00    +0.000 NA
ATOM      7  H   UNL     1      45.064  36.780  42.731  0.00  0.00    +0.000 HD
ATOM      8  H   UNL     1      44.002  35.438  46.501  0.00  0.00    +0.000 HD
ENDROOT
BRANCH   2   9
ATOM      9  N   UNL     1      46.594  34.812  42.036  0.00  0.00    +0.000 N 
ATOM     10  C   UNL     1      47.890  35.275  41.797  0.00  0.00    +0.000 C 
ATOM     11  C   UNL     1      48.449  34.909  40.438  0.00  0.00    +0.000 C 
ATOM     12  N   UNL     1      48.133  33.647  39.980  0.00  0.00    +0.000 NA
ATOM     13  C   UNL     1      46.837  33.196  40.173  0.00  0.00    +0.000 C 
ATOM     14  C   UNL     1      45.998  34.241  40.863  0.00  0.00    +0.000 C 
ATOM     15  H   UNL     1      47.884  36.398  41.833  0.00  0.00    +0.000 HD
ATOM     16  H   UNL     1      48.645  34.998  42.584  0.00  0.00    +0.000 HD
ATOM     17  H   UNL     1      48.104  35.680  39.700  0.00  0.00    +0.000 HD
ATOM     18  H   UNL     1      49.559  35.015  40.516  0.00  0.00    +0.000 HD
ATOM     19  H   UNL     1      48.849  32.999  39.658  0.00  0.00    +0.000 HD
ATOM     20  H   UNL     1      46.689  32.226  40.692  0.00  0.00    +0.000 HD
ATOM     21  H   UNL     1      46.347  33.036  39.172  0.00  0.00    +0.000 HD
ATOM     22  H   UNL     1      45.687  35.036  40.140  0.00  0.00    +0.000 HD
ATOM     23  H   UNL     1      45.055  33.746  41.188  0.00  0.00    +0.000 HD
ENDBRANCH   2   9
BRANCH   3  25
ATOM     24  C   UNL     1      46.486  32.040  45.552  0.00  0.00    +0.000 A 
ATOM     25  C   UNL     1      46.775  32.755  44.367  0.00  0.00    +0.000 A 
ATOM     26  C   UNL     1      47.709  32.104  43.586  0.00  0.00    +0.000 A 
ATOM     27  C   UNL     1      48.312  30.914  43.871  0.00  0.00    +0.000 A 
ATOM     28  C   UNL     1      47.985  30.268  45.038  0.00  0.00    +0.000 A 
ATOM     29  C   UNL     1      47.063  30.842  45.882  0.00  0.00    +0.000 A 
ATOM     30  O   UNL     1      48.730  29.109  45.066  0.00  0.00    +0.000 OA
ATOM     31  C   UNL     1      49.524  29.044  43.893  0.00  0.00    +0.000 C 
ATOM     32  O   UNL     1      49.243  30.222  43.143  0.00  0.00    +0.000 OA
ATOM     33  H   UNL     1      45.800  32.279  46.367  0.00  0.00    +0.000 HD
ATOM     34  H   UNL     1      47.930  32.631  42.711  0.00  0.00    +0.000 HD
ATOM     35  H   UNL     1      46.879  30.259  46.766  0.00  0.00    +0.000 HD
ATOM     36  H   UNL     1      50.598  29.002  44.150  0.00  0.00    +0.000 HD
BRANCH  31  37
ATOM     37  O   UNL     1      49.124  27.966  43.159  0.00  0.00    +0.000 OA
BRANCH  37  40
ATOM     38 CL   UNL     1      48.176  25.069  43.899  0.00  0.00    +0.000 Cl
ATOM     39  C   UNL     1      49.462  25.504  42.801  0.00  0.00    +0.000 A 
ATOM     40  C   UNL     1      49.668  26.855  42.660  0.00  0.00    +0.000 A 
ATOM     41  C   UNL     1      50.706  27.186  41.773  0.00  0.00    +0.000 A 
ATOM     42  H   UNL     1      51.054  28.198  41.500  0.00  0.00    +0.000 HD
ATOM     43  C   UNL     1      51.455  26.233  41.101  0.00  0.00    +0.000 A 
ATOM     44  H   UNL     1      52.260  26.435  40.413  0.00  0.00    +0.000 HD
ATOM     45  C   UNL     1      51.175  24.911  41.307  0.00  0.00    +0.000 A 
ATOM     46  C   UNL     1      50.179  24.531  42.157  0.00  0.00    +0.000 A 
ENDBRANCH  37  40
ENDBRANCH  31  37
ENDBRANCH   3  25
TORSDOF 4
