
 OpenBabel03242521103D

 19 20  0  0  0  0  0  0  0  0999 V2000
   38.1030   28.6760   43.3340 S   0  0  0  0  0  0  0  0  0  0  0  0
   36.0970   30.6140   40.4180 C   0  0  0  0  0  0  0  0  0  0  0  0
   37.1020   31.5230   39.9620 C   0  0  0  0  0  0  0  0  0  0  0  0
   38.3420   31.4750   40.5920 C   0  0  0  0  0  0  0  0  0  0  0  0
   38.5460   30.5860   41.5940 N   0  0  0  0  0  0  0  0  0  0  0  0
   37.5640   29.7270   42.0100 C   0  0  0  0  0  0  0  0  0  0  0  0
   36.3580   29.7560   41.4150 N   0  0  0  0  0  0  0  0  0  0  0  0
   35.1060   30.5780   39.9900 H   0  0  0  0  0  0  0  0  0  0  0  0
   36.8260   32.1870   39.1570 H   0  0  0  0  0  0  0  0  0  0  0  0
   39.0830   32.1550   40.2470 H   0  0  0  0  0  0  0  0  0  0  0  0
   40.7360   27.0050   43.6750 Cl  0  0  0  0  0  0  0  0  0  0  0  0
   39.2740   26.2680   43.0260 C   0  0  0  0  0  0  0  0  0  0  0  0
   38.0880   26.9550   42.8550 C   0  0  0  0  0  0  0  0  0  0  0  0
   37.0060   26.2730   42.3360 C   0  0  0  0  0  0  0  0  0  0  0  0
   36.0970   26.8830   42.2290 H   0  0  0  0  0  0  0  0  0  0  0  0
   37.0910   24.9390   41.9940 C   0  0  0  0  0  0  0  0  0  0  0  0
   36.2110   24.4530   41.5910 H   0  0  0  0  0  0  0  0  0  0  0  0
   38.3030   24.2660   42.1770 C   0  0  0  0  0  3  0  0  0  0  0  0
   39.4200   24.9270   42.6990 C   0  0  0  0  0  3  0  0  0  0  0  0
  2  7  1  0  0  0  0
  3  2  2  0  0  0  0
  3  4  1  0  0  0  0
  4  5  2  0  0  0  0
  5  6  1  0  0  0  0
  6  1  1  0  0  0  0
  7  6  2  0  0  0  0
  8  2  1  0  0  0  0
  9  3  1  0  0  0  0
 10  4  1  0  0  0  0
 12 11  1  0  0  0  0
 13 12  1  0  0  0  0
 13  1  1  0  0  0  0
 14 13  2  0  0  0  0
 15 14  1  0  0  0  0
 16 18  2  0  0  0  0
 16 14  1  0  0  0  0
 17 16  1  0  0  0  0
 18 19  1  0  0  0  0
 19 12  2  0  0  0  0
M  END
>  <minimizedAffinity>
-4.39163065

$$$$

 OpenBabel03242521103D

 19 20  0  0  0  0  0  0  0  0999 V2000
   39.7110   30.3160   42.0220 S   0  0  0  0  0  0  0  0  0  0  0  0
   38.5040   33.7380   40.2570 C   0  0  0  0  0  0  0  0  0  0  0  0
   37.3250   33.2900   39.5850 C   0  0  0  0  0  0  0  0  0  0  0  0
   36.9790   31.9500   39.7240 C   0  0  0  0  0  0  0  0  0  0  0  0
   37.7580   31.1360   40.4760 N   0  0  0  0  0  0  0  0  0  0  0  0
   38.8830   31.5930   41.1090 C   0  0  0  0  0  0  0  0  0  0  0  0
   39.2350   32.8850   40.9890 N   0  0  0  0  0  0  0  0  0  0  0  0
   38.8510   34.7610   40.2080 H   0  0  0  0  0  0  0  0  0  0  0  0
   36.7830   34.0280   39.0140 H   0  0  0  0  0  0  0  0  0  0  0  0
   36.1010   31.6250   39.2190 H   0  0  0  0  0  0  0  0  0  0  0  0
   39.6730   27.8570   40.0730 Cl  0  0  0  0  0  0  0  0  0  0  0  0
   38.6380   27.9000   41.4980 C   0  0  0  0  0  0  0  0  0  0  0  0
   38.6130   28.9550   42.3900 C   0  0  0  0  0  0  0  0  0  0  0  0
   37.7610   28.8780   43.4720 C   0  0  0  0  0  0  0  0  0  0  0  0
   37.7960   29.7520   44.1370 H   0  0  0  0  0  0  0  0  0  0  0  0
   36.9480   27.7810   43.6720 C   0  0  0  0  0  0  0  0  0  0  0  0
   36.2980   27.7720   44.5380 H   0  0  0  0  0  0  0  0  0  0  0  0
   36.9910   26.7260   42.7560 C   0  0  0  0  0  3  0  0  0  0  0  0
   37.8430   26.7720   41.6470 C   0  0  0  0  0  3  0  0  0  0  0  0
  1 13  1  0  0  0  0
  2  7  1  0  0  0  0
  3  4  1  0  0  0  0
  3  2  2  0  0  0  0
  4  5  2  0  0  0  0
  5  6  1  0  0  0  0
  6  1  1  0  0  0  0
  7  6  2  0  0  0  0
  8  2  1  0  0  0  0
  9  3  1  0  0  0  0
 10  4  1  0  0  0  0
 11 12  1  0  0  0  0
 12 19  2  0  0  0  0
 12 13  1  0  0  0  0
 13 14  2  0  0  0  0
 14 16  1  0  0  0  0
 14 15  1  0  0  0  0
 16 17  1  0  0  0  0
 18 16  2  0  0  0  0
 19 18  1  0  0  0  0
M  END
>  <minimizedAffinity>
-4.36655998

$$$$

 OpenBabel03242521103D

 19 20  0  0  0  0  0  0  0  0999 V2000
   38.3180   29.5340   39.6360 S   0  0  0  0  0  0  0  0  0  0  0  0
   37.2240   33.4150   39.4790 C   0  0  0  0  0  0  0  0  0  0  0  0
   38.3180   34.0280   40.1640 C   0  0  0  0  0  0  0  0  0  0  0  0
   39.3300   33.1950   40.6320 C   0  0  0  0  0  0  0  0  0  0  0  0
   39.2400   31.8590   40.4240 N   0  0  0  0  0  0  0  0  0  0  0  0
   38.1790   31.2980   39.7650 C   0  0  0  0  0  0  0  0  0  0  0  0
   37.1910   32.0850   39.3040 N   0  0  0  0  0  0  0  0  0  0  0  0
   36.3940   33.9810   39.0810 H   0  0  0  0  0  0  0  0  0  0  0  0
   38.2830   35.1020   40.2700 H   0  0  0  0  0  0  0  0  0  0  0  0
   40.1400   33.6590   41.1410 H   0  0  0  0  0  0  0  0  0  0  0  0
   35.4510   28.7940   40.6740 Cl  0  0  0  0  0  0  0  0  0  0  0  0
   36.8830   28.4420   41.6380 C   0  0  0  0  0  0  0  0  0  0  0  0
   38.1680   28.7450   41.2320 C   0  0  0  0  0  0  0  0  0  0  0  0
   39.2130   28.4220   42.0720 C   0  0  0  0  0  0  0  0  0  0  0  0
   40.2050   28.6920   41.6820 H   0  0  0  0  0  0  0  0  0  0  0  0
   38.9960   27.8120   43.2900 C   0  0  0  0  0  0  0  0  0  0  0  0
   39.8530   27.5800   43.9110 H   0  0  0  0  0  0  0  0  0  0  0  0
   37.6870   27.5160   43.6790 C   0  0  0  0  0  3  0  0  0  0  0  0
   36.6030   27.8290   42.8520 C   0  0  0  0  0  3  0  0  0  0  0  0
  1  6  1  0  0  0  0
  1 13  1  0  0  0  0
  2  3  1  0  0  0  0
  3  9  1  0  0  0  0
  3  4  2  0  0  0  0
  4 10  1  0  0  0  0
  5  4  1  0  0  0  0
  6  5  2  0  0  0  0
  7  2  2  0  0  0  0
  7  6  1  0  0  0  0
  8  2  1  0  0  0  0
 11 12  1  0  0  0  0
 12 19  1  0  0  0  0
 13 12  2  0  0  0  0
 13 14  1  0  0  0  0
 14 16  2  0  0  0  0
 15 14  1  0  0  0  0
 16 18  1  0  0  0  0
 16 17  1  0  0  0  0
 19 18  2  0  0  0  0
M  END
>  <minimizedAffinity>
-4.29680252

$$$$

 OpenBabel03242521103D

 19 20  0  0  0  0  0  0  0  0999 V2000
   36.5950   27.7370   42.2640 S   0  0  0  0  0  0  0  0  0  0  0  0
   37.5060   29.8470   38.9470 C   0  0  0  0  0  0  0  0  0  0  0  0
   37.1890   31.1720   39.3780 C   0  0  0  0  0  0  0  0  0  0  0  0
   36.7110   31.3260   40.6760 C   0  0  0  0  0  0  0  0  0  0  0  0
   36.5670   30.2350   41.4660 N   0  0  0  0  0  0  0  0  0  0  0  0
   36.8790   28.9760   41.0250 C   0  0  0  0  0  0  0  0  0  0  0  0
   37.3430   28.8050   39.7750 N   0  0  0  0  0  0  0  0  0  0  0  0
   37.8830   29.6300   37.9570 H   0  0  0  0  0  0  0  0  0  0  0  0
   37.3430   31.9650   38.6620 H   0  0  0  0  0  0  0  0  0  0  0  0
   36.4760   32.3150   40.9880 H   0  0  0  0  0  0  0  0  0  0  0  0
   36.8830   24.6530   41.7590 Cl  0  0  0  0  0  0  0  0  0  0  0  0
   38.1870   25.5760   42.5040 C   0  0  0  0  0  0  0  0  0  0  0  0
   38.1150   26.9330   42.7490 C   0  0  0  0  0  0  0  0  0  0  0  0
   39.1990   27.5500   43.3390 C   0  0  0  0  0  0  0  0  0  0  0  0
   39.0700   28.6290   43.5030 H   0  0  0  0  0  0  0  0  0  0  0  0
   40.3330   26.8420   43.6790 C   0  0  0  0  0  0  0  0  0  0  0  0
   41.1550   27.3760   44.1400 H   0  0  0  0  0  0  0  0  0  0  0  0
   40.3820   25.4690   43.4210 C   0  0  0  0  0  3  0  0  0  0  0  0
   39.3000   24.8120   42.8250 C   0  0  0  0  0  3  0  0  0  0  0  0
  1 13  1  0  0  0  0
  2  3  2  0  0  0  0
  2  7  1  0  0  0  0
  3  4  1  0  0  0  0
  4 10  1  0  0  0  0
  4  5  2  0  0  0  0
  6  5  1  0  0  0  0
  6  1  1  0  0  0  0
  7  6  2  0  0  0  0
  8  2  1  0  0  0  0
  9  3  1  0  0  0  0
 11 12  1  0  0  0  0
 12 13  2  0  0  0  0
 12 19  1  0  0  0  0
 13 14  1  0  0  0  0
 14 15  1  0  0  0  0
 14 16  2  0  0  0  0
 16 17  1  0  0  0  0
 18 16  1  0  0  0  0
 19 18  2  0  0  0  0
M  END
>  <minimizedAffinity>
-4.28688765

$$$$

 OpenBabel03242521103D

 19 20  0  0  0  0  0  0  0  0999 V2000
   39.0620   29.6360   40.1670 S   0  0  0  0  0  0  0  0  0  0  0  0
   37.4120   28.5290   43.6800 C   0  0  0  0  0  0  0  0  0  0  0  0
   36.8730   27.2520   43.3310 C   0  0  0  0  0  0  0  0  0  0  0  0
   37.0580   26.8150   42.0220 C   0  0  0  0  0  0  0  0  0  0  0  0
   37.7280   27.6010   41.1460 N   0  0  0  0  0  0  0  0  0  0  0  0
   38.2330   28.8210   41.5090 C   0  0  0  0  0  0  0  0  0  0  0  0
   38.0670   29.2630   42.7680 N   0  0  0  0  0  0  0  0  0  0  0  0
   37.3190   28.9510   44.6700 H   0  0  0  0  0  0  0  0  0  0  0  0
   36.3580   26.7130   44.1110 H   0  0  0  0  0  0  0  0  0  0  0  0
   36.6530   25.8640   41.7710 H   0  0  0  0  0  0  0  0  0  0  0  0
   36.5910   30.6160   38.5000 Cl  0  0  0  0  0  0  0  0  0  0  0  0
   37.5980   31.7590   39.3840 C   0  0  0  0  0  0  0  0  0  0  0  0
   38.6960   31.3840   40.1340 C   0  0  0  0  0  0  0  0  0  0  0  0
   39.4120   32.3680   40.7840 C   0  0  0  0  0  0  0  0  0  0  0  0
   40.2710   31.9950   41.3610 H   0  0  0  0  0  0  0  0  0  0  0  0
   39.0510   33.6970   40.6990 C   0  0  0  0  0  0  0  0  0  0  0  0
   39.6480   34.4290   41.2300 H   0  0  0  0  0  0  0  0  0  0  0  0
   37.9360   34.0510   39.9340 C   0  0  0  0  0  3  0  0  0  0  0  0
   37.1880   33.0790   39.2610 C   0  0  0  0  0  3  0  0  0  0  0  0
  1  6  1  0  0  0  0
  2  8  1  0  0  0  0
  3  2  1  0  0  0  0
  3  9  1  0  0  0  0
  4  3  2  0  0  0  0
  5  6  2  0  0  0  0
  5  4  1  0  0  0  0
  6  7  1  0  0  0  0
  7  2  2  0  0  0  0
 10  4  1  0  0  0  0
 11 12  1  0  0  0  0
 12 13  1  0  0  0  0
 13  1  1  0  0  0  0
 13 14  2  0  0  0  0
 14 15  1  0  0  0  0
 16 14  1  0  0  0  0
 16 17  1  0  0  0  0
 18 16  2  0  0  0  0
 19 12  2  0  0  0  0
 19 18  1  0  0  0  0
M  END
>  <minimizedAffinity>
-4.26069212

$$$$

 OpenBabel03242521103D

 19 20  0  0  0  0  0  0  0  0999 V2000
   37.3410   28.4900   43.4070 S   0  0  0  0  0  0  0  0  0  0  0  0
   39.9920   25.4490   43.4400 C   0  0  0  0  0  0  0  0  0  0  0  0
   39.2900   24.4750   42.6650 C   0  0  0  0  0  0  0  0  0  0  0  0
   38.0340   24.8260   42.1800 C   0  0  0  0  0  0  0  0  0  0  0  0
   37.5340   26.0550   42.4550 N   0  0  0  0  0  0  0  0  0  0  0  0
   38.2300   26.9680   43.2020 C   0  0  0  0  0  0  0  0  0  0  0  0
   39.4460   26.6500   43.6800 N   0  0  0  0  0  0  0  0  0  0  0  0
   40.9720   25.2660   43.8580 H   0  0  0  0  0  0  0  0  0  0  0  0
   39.7870   23.5290   42.5100 H   0  0  0  0  0  0  0  0  0  0  0  0
   37.5190   24.0950   41.6050 H   0  0  0  0  0  0  0  0  0  0  0  0
   39.2780   30.6940   42.2960 Cl  0  0  0  0  0  0  0  0  0  0  0  0
   37.8450   30.2090   41.3930 C   0  0  0  0  0  0  0  0  0  0  0  0
   36.9590   29.2450   41.8330 C   0  0  0  0  0  0  0  0  0  0  0  0
   35.8690   28.9470   41.0410 C   0  0  0  0  0  0  0  0  0  0  0  0
   35.2090   28.1720   41.4550 H   0  0  0  0  0  0  0  0  0  0  0  0
   35.6580   29.5860   39.8370 C   0  0  0  0  0  0  0  0  0  0  0  0
   34.7860   29.3140   39.2540 H   0  0  0  0  0  0  0  0  0  0  0  0
   36.5690   30.5580   39.4130 C   0  0  0  0  0  3  0  0  0  0  0  0
   37.6840   30.8850   40.1920 C   0  0  0  0  0  3  0  0  0  0  0  0
  2  7  1  0  0  0  0
  2  8  1  0  0  0  0
  3  2  2  0  0  0  0
  4  5  2  0  0  0  0
  4  3  1  0  0  0  0
  5  6  1  0  0  0  0
  6  1  1  0  0  0  0
  6  7  2  0  0  0  0
  9  3  1  0  0  0  0
 10  4  1  0  0  0  0
 12 13  1  0  0  0  0
 12 11  1  0  0  0  0
 13  1  1  0  0  0  0
 14 15  1  0  0  0  0
 14 13  2  0  0  0  0
 16 14  1  0  0  0  0
 17 16  1  0  0  0  0
 18 16  2  0  0  0  0
 18 19  1  0  0  0  0
 19 12  2  0  0  0  0
M  END
>  <minimizedAffinity>
-4.22154808

$$$$

 OpenBabel03242521103D

 19 20  0  0  0  0  0  0  0  0999 V2000
   35.2900   29.1770   40.3240 S   0  0  0  0  0  0  0  0  0  0  0  0
   37.4540   31.7710   38.1170 C   0  0  0  0  0  0  0  0  0  0  0  0
   37.8960   32.6790   39.1290 C   0  0  0  0  0  0  0  0  0  0  0  0
   37.4920   32.4260   40.4360 C   0  0  0  0  0  0  0  0  0  0  0  0
   36.7110   31.3500   40.6950 N   0  0  0  0  0  0  0  0  0  0  0  0
   36.3020   30.4970   39.7050 C   0  0  0  0  0  0  0  0  0  0  0  0
   36.6810   30.7220   38.4340 N   0  0  0  0  0  0  0  0  0  0  0  0
   37.7160   31.8860   37.0750 H   0  0  0  0  0  0  0  0  0  0  0  0
   38.5150   33.5010   38.8050 H   0  0  0  0  0  0  0  0  0  0  0  0
   37.8250   33.1070   41.1830 H   0  0  0  0  0  0  0  0  0  0  0  0
   36.4240   26.7890   38.6340 Cl  0  0  0  0  0  0  0  0  0  0  0  0
   36.7400   26.9070   40.3640 C   0  0  0  0  0  0  0  0  0  0  0  0
   36.2680   27.9340   41.1560 C   0  0  0  0  0  0  0  0  0  0  0  0
   36.5790   27.9220   42.4990 C   0  0  0  0  0  0  0  0  0  0  0  0
   36.1690   28.7700   43.0660 H   0  0  0  0  0  0  0  0  0  0  0  0
   37.3440   26.9150   43.0520 C   0  0  0  0  0  0  0  0  0  0  0  0
   37.5590   26.9540   44.1130 H   0  0  0  0  0  0  0  0  0  0  0  0
   37.8110   25.8860   42.2300 C   0  0  0  0  0  3  0  0  0  0  0  0
   37.5130   25.8670   40.8630 C   0  0  0  0  0  3  0  0  0  0  0  0
  1 13  1  0  0  0  0
  2  7  2  0  0  0  0
  2  3  1  0  0  0  0
  3  4  2  0  0  0  0
  4  5  1  0  0  0  0
  4 10  1  0  0  0  0
  6  1  1  0  0  0  0
  6  5  2  0  0  0  0
  7  6  1  0  0  0  0
  8  2  1  0  0  0  0
  9  3  1  0  0  0  0
 11 12  1  0  0  0  0
 12 19  2  0  0  0  0
 12 13  1  0  0  0  0
 13 14  2  0  0  0  0
 14 16  1  0  0  0  0
 14 15  1  0  0  0  0
 16 17  1  0  0  0  0
 18 16  2  0  0  0  0
 19 18  1  0  0  0  0
M  END
>  <minimizedAffinity>
-4.16067505

$$$$

 OpenBabel03242521103D

 19 20  0  0  0  0  0  0  0  0999 V2000
   39.4290   29.5670   40.1290 S   0  0  0  0  0  0  0  0  0  0  0  0
   39.9080   33.5630   40.4320 C   0  0  0  0  0  0  0  0  0  0  0  0
   38.5690   34.0090   40.2130 C   0  0  0  0  0  0  0  0  0  0  0  0
   37.5980   33.0380   39.9860 C   0  0  0  0  0  0  0  0  0  0  0  0
   37.9540   31.7310   39.9800 N   0  0  0  0  0  0  0  0  0  0  0  0
   39.2470   31.3320   40.1920 C   0  0  0  0  0  0  0  0  0  0  0  0
   40.2000   32.2540   40.4140 N   0  0  0  0  0  0  0  0  0  0  0  0
   40.7280   34.2430   40.6170 H   0  0  0  0  0  0  0  0  0  0  0  0
   38.4020   35.0760   40.2410 H   0  0  0  0  0  0  0  0  0  0  0  0
   36.6040   33.3800   39.8230 H   0  0  0  0  0  0  0  0  0  0  0  0
   40.7060   28.7430   42.8740 Cl  0  0  0  0  0  0  0  0  0  0  0  0
   39.0100   28.4170   42.5290 C   0  0  0  0  0  0  0  0  0  0  0  0
   38.3950   28.7570   41.3400 C   0  0  0  0  0  0  0  0  0  0  0  0
   37.0590   28.4510   41.1830 C   0  0  0  0  0  0  0  0  0  0  0  0
   36.6390   28.7520   40.2120 H   0  0  0  0  0  0  0  0  0  0  0  0
   36.3420   27.8220   42.1790 C   0  0  0  0  0  0  0  0  0  0  0  0
   35.2950   27.6050   42.0030 H   0  0  0  0  0  0  0  0  0  0  0  0
   36.9860   27.4870   43.3740 C   0  0  0  0  0  3  0  0  0  0  0  0
   38.3400   27.7830   43.5670 C   0  0  0  0  0  3  0  0  0  0  0  0
  1  6  1  0  0  0  0
  1 13  1  0  0  0  0
  2  8  1  0  0  0  0
  3  9  1  0  0  0  0
  3  2  2  0  0  0  0
  4  3  1  0  0  0  0
  5  4  2  0  0  0  0
  5  6  1  0  0  0  0
  6  7  2  0  0  0  0
  7  2  1  0  0  0  0
 10  4  1  0  0  0  0
 12 11  1  0  0  0  0
 12 19  1  0  0  0  0
 13 12  2  0  0  0  0
 14 13  1  0  0  0  0
 14 16  2  0  0  0  0
 15 14  1  0  0  0  0
 16 18  1  0  0  0  0
 17 16  1  0  0  0  0
 18 19  2  0  0  0  0
M  END
>  <minimizedAffinity>
-4.04801273

$$$$

 OpenBabel03242521103D

 19 20  0  0  0  0  0  0  0  0999 V2000
   35.2420   29.3130   40.3020 S   0  0  0  0  0  0  0  0  0  0  0  0
   38.1890   29.2170   43.0580 C   0  0  0  0  0  0  0  0  0  0  0  0
   38.3590   27.8070   43.2170 C   0  0  0  0  0  0  0  0  0  0  0  0
   37.5450   26.9730   42.4550 C   0  0  0  0  0  0  0  0  0  0  0  0
   36.6400   27.5200   41.6080 N   0  0  0  0  0  0  0  0  0  0  0  0
   36.4990   28.8760   41.4770 C   0  0  0  0  0  0  0  0  0  0  0  0
   37.2750   29.6990   42.2030 N   0  0  0  0  0  0  0  0  0  0  0  0
   38.7750   29.9410   43.6060 H   0  0  0  0  0  0  0  0  0  0  0  0
   39.1120   27.4850   43.9210 H   0  0  0  0  0  0  0  0  0  0  0  0
   37.6780   25.9250   42.5810 H   0  0  0  0  0  0  0  0  0  0  0  0
   34.0240   27.9130   37.7720 Cl  0  0  0  0  0  0  0  0  0  0  0  0
   35.3670   29.0440   37.6240 C   0  0  0  0  0  0  0  0  0  0  0  0
   35.9420   29.6890   38.7020 C   0  0  0  0  0  0  0  0  0  0  0  0
   36.9900   30.5540   38.4650 C   0  0  0  0  0  0  0  0  0  0  0  0
   37.3950   31.0300   39.3690 H   0  0  0  0  0  0  0  0  0  0  0  0
   37.4620   30.7800   37.1880 C   0  0  0  0  0  0  0  0  0  0  0  0
   38.2880   31.4700   37.0580 H   0  0  0  0  0  0  0  0  0  0  0  0
   36.8640   30.1160   36.1130 C   0  0  0  0  0  3  0  0  0  0  0  0
   35.8000   29.2310   36.3180 C   0  0  0  0  0  3  0  0  0  0  0  0
  1  6  1  0  0  0  0
  2  3  1  0  0  0  0
  2  8  1  0  0  0  0
  3  9  1  0  0  0  0
  4 10  1  0  0  0  0
  4  3  2  0  0  0  0
  5  4  1  0  0  0  0
  6  5  2  0  0  0  0
  6  7  1  0  0  0  0
  7  2  2  0  0  0  0
 12 11  1  0  0  0  0
 12 13  1  0  0  0  0
 13  1  1  0  0  0  0
 14 13  2  0  0  0  0
 14 15  1  0  0  0  0
 16 14  1  0  0  0  0
 17 16  1  0  0  0  0
 18 19  1  0  0  0  0
 18 16  2  0  0  0  0
 19 12  2  0  0  0  0
M  END
>  <minimizedAffinity>
-4.02947903

$$$$
