
 OpenBabel03242515093D

 36 38  0  0  0  0  0  0  0  0999 V2000
   46.1870   33.8430   44.7460 C   0  0  0  0  0  0  0  0  0  0  0  0
   45.1440   34.6560   45.0680 C   0  0  0  0  0  0  0  0  0  0  0  0
   44.6820   35.6900   44.3010 C   0  0  0  0  0  0  0  0  0  0  0  0
   45.3110   35.9440   43.1020 C   0  0  0  0  0  0  0  0  0  0  0  0
   46.3680   35.1500   42.7390 C   0  0  0  0  0  0  0  0  0  0  0  0
   46.8030   34.1100   43.5490 C   0  0  0  0  0  0  0  0  0  0  0  0
   44.6060   34.5030   46.0040 H   0  0  0  0  0  0  0  0  0  0  0  0
   43.8460   36.3040   44.6070 H   0  0  0  0  0  0  0  0  0  0  0  0
   44.9670   36.7570   42.4740 H   0  0  0  0  0  0  0  0  0  0  0  0
   46.8240   35.3960   41.7870 H   0  0  0  0  0  0  0  0  0  0  0  0
   47.2670   30.5020   45.8010 C   0  0  0  0  0  0  0  0  0  0  0  0
   47.4720   30.6400   47.1630 C   0  0  0  0  0  0  0  0  0  0  0  0
   47.2400   31.8830   47.7300 C   0  0  0  0  0  0  0  0  0  0  0  0
   46.8220   32.9380   46.9580 N   0  0  0  0  0  0  0  0  0  0  0  0
   46.6300   32.7590   45.6070 C   0  0  0  0  0  0  0  0  0  0  0  0
   46.8590   31.5510   45.0780 N   0  0  0  0  0  0  0  0  0  0  0  0
   47.4570   29.5200   45.3910 H   0  0  0  0  0  0  0  0  0  0  0  0
   47.7980   29.8770   47.8540 H   0  0  0  0  0  0  0  0  0  0  0  0
   47.3440   32.1820   48.7650 H   0  0  0  0  0  0  0  0  0  0  0  0
   47.8980   33.3950   43.0270 N   0  0  0  0  0  0  0  0  0  0  0  0
   47.6760   32.3730   42.9600 H   0  0  0  0  0  0  0  0  0  0  0  0
   49.4590   33.8650   42.5030 S   0  0  0  0  0  0  0  0  0  0  0  0
   49.4010   34.1550   41.0150 O   0  0  0  0  0  0  0  0  0  0  0  0
   49.4050   35.0530   40.6330 H   0  0  0  0  0  0  0  0  0  0  0  0
   49.9980   35.0730   43.1900 O   0  0  0  0  0  0  0  0  0  0  0  0
   49.9910   35.3210   44.1450 H   0  0  0  0  0  0  0  0  0  0  0  0
   50.4520   32.5170   42.6800 O   0  0  0  0  0  0  0  0  0  0  0  0
   48.4340   30.3320   42.1320 Cl  0  0  0  0  0  0  0  0  0  0  0  0
   49.8690   30.6670   41.1540 C   0  0  0  0  0  0  0  0  0  0  0  0
   50.6850   31.7210   41.5650 C   0  0  0  0  0  0  0  0  0  0  0  0
   51.7870   31.9320   40.7620 C   0  0  0  0  0  0  0  0  0  0  0  0
   52.4720   32.7480   41.0310 H   0  0  0  0  0  0  0  0  0  0  0  0
   52.1440   31.2260   39.6310 C   0  0  0  0  0  0  0  0  0  0  0  0
   53.0280   31.4740   39.0740 H   0  0  0  0  0  0  0  0  0  0  0  0
   51.2780   30.1860   39.2820 C   0  0  0  0  0  0  0  0  0  0  0  0
   50.1610   29.9200   40.0370 C   0  0  0  0  0  0  0  0  0  0  0  0
  1  2  1  0  0  0  0
  1 15  1  0  0  0  0
  2  7  1  0  0  0  0
  3  8  1  0  0  0  0
  3  2  2  0  0  0  0
  4  3  1  0  0  0  0
  5  4  2  0  0  0  0
  5  6  1  0  0  0  0
  6  1  2  0  0  0  0
  9  4  1  0  0  0  0
 10  5  1  0  0  0  0
 11 12  1  0  0  0  0
 12 13  2  0  0  0  0
 12 18  1  0  0  0  0
 13 19  1  0  0  0  0
 14 13  1  0  0  0  0
 15 14  2  0  0  0  0
 16 15  1  0  0  0  0
 16 11  2  0  0  0  0
 17 11  1  0  0  0  0
 20  6  1  0  0  0  0
 21 20  1  0  0  0  0
 22 27  1  0  0  0  0
 22 20  1  0  0  0  0
 22 25  1  0  0  0  0
 23 22  1  0  0  0  0
 24 23  1  0  0  0  0
 25 26  1  0  0  0  0
 29 30  1  0  0  0  0
 29 28  1  0  0  0  0
 30 27  1  0  0  0  0
 31 32  1  0  0  0  0
 31 30  2  0  0  0  0
 33 31  1  0  0  0  0
 34 33  1  0  0  0  0
 35 33  2  0  0  0  0
 35 36  1  0  0  0  0
 36 29  2  0  0  0  0
M  END
>  <minimizedAffinity>
-5.86305332

>  <minimizedRMSD>
2.54537296

$$$$
