
     RDKit          3D

 39 41  0  0  0  0  0  0  0  0999 V2000
   45.1276   36.0021   43.0590 C   0  0  0  0  0  0  0  0  0  0  0  0
   44.1421   35.8011   42.0894 C   0  0  0  0  0  0  0  0  0  0  0  0
   44.3771   34.8168   41.1188 C   0  0  0  0  0  0  0  0  0  0  0  0
   45.5381   34.1133   41.1664 N   0  0  0  0  0  0  0  0  0  0  0  0
   46.4658   34.3402   42.1230 C   0  0  0  0  0  0  0  0  0  0  0  0
   46.2652   35.2838   43.0718 N   0  0  0  0  0  0  0  0  0  0  0  0
   48.9519   35.7987   41.2320 Cl  0  0  0  0  0  0  0  0  0  0  0  0
   48.8738   34.1425   41.7017 C   0  0  0  0  0  0  0  0  0  0  0  0
   47.7015   33.5294   42.1013 C   0  0  0  0  0  0  0  0  0  0  0  0
   47.6014   32.2120   42.4824 C   0  0  0  0  0  0  0  0  0  0  0  0
   48.7486   31.4783   42.4571 C   0  0  0  0  0  0  0  0  0  0  0  0
   49.9796   31.9735   42.0782 C   0  0  0  0  0  0  0  0  0  0  0  0
   49.9828   33.3123   41.7103 C   0  0  0  0  0  0  0  0  0  0  0  0
   44.9038   37.0309   44.0898 C   0  0  0  0  0  0  0  0  0  0  0  0
   45.4590   38.2049   43.9135 C   0  0  0  0  0  0  0  0  0  0  0  0
   45.2637   39.2859   44.9301 C   0  0  0  0  0  0  0  0  0  0  0  0
   44.7761   40.4584   44.2423 N   0  0  0  0  0  0  0  0  0  0  0  0
   43.2222   36.3620   42.0558 H   0  0  0  0  0  0  0  0  0  0  0  0
   43.6794   34.5943   40.3390 H   0  0  0  0  0  0  0  0  0  0  0  0
   46.6438   31.8119   42.7813 H   0  0  0  0  0  0  0  0  0  0  0  0
   48.7086   30.4309   42.7523 H   0  0  0  0  0  0  0  0  0  0  0  0
   50.8814   31.3884   42.0606 H   0  0  0  0  0  0  0  0  0  0  0  0
   50.9326   33.7384   41.4059 H   0  0  0  0  0  0  0  0  0  0  0  0
   44.3100   36.8838   44.9865 H   0  0  0  0  0  0  0  0  0  0  0  0
   46.0598   38.4200   43.0485 H   0  0  0  0  0  0  0  0  0  0  0  0
   44.4940   38.9823   45.6693 H   0  0  0  0  0  0  0  0  0  0  0  0
   46.2527   39.4556   45.4019 H   0  0  0  0  0  0  0  0  0  0  0  0
   44.6135   40.4691   43.2088 H   0  0  0  0  0  0  0  0  0  0  0  0
   45.7918   42.9355   42.9869 Cl  0  0  0  0  0  0  0  0  0  0  0  0
   44.9096   42.8980   44.5028 C   0  0  0  0  0  0  0  0  0  0  0  0
   44.4943   41.6698   44.9728 C   0  0  0  0  0  0  0  0  0  0  0  0
   43.7894   41.5738   46.1706 C   0  0  0  0  0  0  0  0  0  0  0  0
   43.4651   40.6093   46.5367 H   0  0  0  0  0  0  0  0  0  0  0  0
   43.5183   42.7323   46.8720 C   0  0  0  0  0  0  0  0  0  0  0  0
   42.9661   42.7003   47.8193 H   0  0  0  0  0  0  0  0  0  0  0  0
   43.9415   43.9614   46.3886 C   0  0  0  0  0  0  0  0  0  0  0  0
   44.6482   44.0801   45.1921 C   0  0  0  0  0  0  0  0  0  0  0  0
   43.7034   44.8413   46.9769 H   0  0  0  0  0  0  0  0  0  0  0  0
   44.9741   45.0355   44.8216 H   0  0  0  0  0  0  0  0  0  0  0  0
  1  6  1  0
  1 14  1  0
  2  1  2  0
  3  4  2  0
  3  2  1  0
  4  5  1  0
  5  6  2  0
  7  8  1  0
  8 13  2  0
  8  9  1  0
  9  5  1  0
  9 10  2  0
 11 10  1  0
 12 11  2  0
 13 12  1  0
 15 14  2  0
 15 16  1  0
 17 16  1  0
  2 18  1  0
  3 19  1  0
 10 20  1  0
 11 21  1  0
 12 22  1  0
 13 23  1  0
 14 24  1  0
 15 25  1  0
 16 26  1  0
 16 27  1  0
 17 28  1  0
 29 30  1  0
 30 31  2  0
 31 32  1  0
 32 33  1  0
 32 34  2  0
 34 35  1  0
 34 36  1  0
 36 37  2  0
 37 30  1  0
 36 38  1  0
 37 39  1  0
 17 31  1  0
M  ISO  8  18  14  19  14  20  14  21  14  22  14  23  14  26   8  27   8
M  ISO  3  28   5  33  15  35  16
M  END
>  <DihAtoms>  (1) 
15,16,30,29

>  <DihDeg>  (1) 
179.99995229844072

$$$$
