
 OpenBabel03252505273D

 24 25  0  0  0  0  0  0  0  0999 V2000
   47.0010   31.4840   48.1800 O   0  0  0  0  0  0  0  0  0  0  0  0
   45.9660   31.9800   47.1620 P   0  0  1  0  0  0  0  0  0  0  0  0
   44.5540   32.4920   47.9010 O   0  0  0  0  0  0  0  0  0  0  0  0
   44.7460   33.0650   48.6720 H   0  0  0  0  0  0  0  0  0  0  0  0
   46.7080   33.2380   46.3150 O   0  0  0  0  0  0  0  0  0  0  0  0
   44.4420   35.5100   44.7900 C   0  0  0  0  0  0  0  0  0  0  0  0
   44.8760   35.6110   43.4490 C   0  0  0  0  0  0  0  0  0  0  0  0
   46.0010   34.8440   43.1070 C   0  0  0  0  0  0  0  0  0  0  0  0
   46.5960   34.0690   44.0500 N   0  0  0  0  0  0  0  0  0  0  0  0
   46.1380   34.0090   45.3230 C   0  0  0  0  0  0  0  0  0  0  0  0
   45.0630   34.7330   45.6820 N   0  0  0  0  0  0  0  0  0  0  0  0
   43.5730   36.1000   45.0610 H   0  0  0  0  0  0  0  0  0  0  0  0
   44.4030   36.2220   42.7120 H   0  0  0  0  0  0  0  0  0  0  0  0
   46.3940   34.8720   42.0840 H   0  0  0  0  0  0  0  0  0  0  0  0
   45.5940   30.6590   46.1780 O   0  0  0  0  0  0  0  0  0  0  0  0
   48.2030   29.3180   45.4900 Cl  0  0  0  0  0  0  0  0  0  0  0  0
   46.9060   28.6480   46.4420 C   0  0  0  0  0  0  0  0  0  0  0  0
   45.7610   29.3750   46.6810 C   0  0  0  0  0  0  0  0  0  0  0  0
   44.8050   28.7400   47.4460 C   0  0  0  0  0  0  0  0  0  0  0  0
   43.8750   29.2430   47.6810 H   0  0  0  0  0  0  0  0  0  0  0  0
   44.9290   27.4680   47.9660 C   0  0  0  0  0  0  0  0  0  0  0  0
   44.1430   27.0220   48.5610 H   0  0  0  0  0  0  0  0  0  0  0  0
   46.1090   26.7640   47.6990 C   0  0  0  0  0  3  0  0  0  0  0  0
   47.1040   27.3600   46.9310 C   0  0  0  0  0  3  0  0  0  0  0  0
  2  3  1  0  0  0  0
  2  1  2  1  0  0  0
  3  4  1  0  0  0  0
  5  2  1  0  0  0  0
  6 12  1  0  0  0  0
  6 11  1  0  0  0  0
  7  6  2  0  0  0  0
  8  7  1  0  0  0  0
  8  9  2  0  0  0  0
  9 10  1  0  0  0  0
 10 11  2  0  0  0  0
 10  5  1  0  0  0  0
 13  7  1  0  0  0  0
 14  8  1  0  0  0  0
 15 18  1  0  0  0  0
 15  2  1  0  0  0  0
 16 17  1  0  0  0  0
 17 18  2  0  0  0  0
 17 24  1  0  0  0  0
 18 19  1  0  0  0  0
 19 20  1  0  0  0  0
 19 21  2  0  0  0  0
 21 22  1  0  0  0  0
 23 21  1  0  0  0  0
 24 23  2  0  0  0  0
M  END
>  <minimizedAffinity>
-4.48147488

>  <minimizedRMSD>
2.27528763

$$$$
